data_functionalizedCrystal
_audit_creation_method	'MofGen! by Chris Wilmer'
_symmetry_space_group_name_H-M	'P1'
_symmetry_Int_Tables_number	1
_symmetry_cell_setting	triclinic
loop_
_symmetry_equiv_pos_as_xyz
  x,y,z
_cell_length_a	20.875641
_cell_length_b	14.560438
_cell_length_c	14.560438
_cell_angle_alpha	90.000844
_cell_angle_beta	62.440490
_cell_angle_gamma	57.591248
loop_
_atom_site_label
_atom_site_type_symbol
_atom_site_fract_x
_atom_site_fract_y
_atom_site_fract_z
Zr1	Zr	0.702118	-0.157413	0.921648
O2	O	0.835934	-0.311087	0.782033
O3	O	0.568301	-0.105429	0.959571
O4	O	0.702117	-0.304059	0.966602
O5	O	0.702119	0.038681	0.775003
O6	O	0.702119	-0.304060	1.117740
O7	O	0.702117	-0.112457	0.775002
O8	O	0.462746	0.051253	1.105163
O9	O	0.941492	-0.316632	0.787580
O10	O	0.623344	-0.089148	1.094429
O11	O	0.623344	0.023645	0.981637
O12	O	0.780896	-0.210217	0.989915
O13	O	0.780896	-0.097423	0.877123
Zr14	Zr	0.702124	0.083633	1.162698
Zr15	Zr	0.702121	-0.157415	1.162696
Zr16	Zr	0.702121	0.083635	0.921649
Zr17	Zr	0.870472	-0.166256	0.930495
Zr18	Zr	0.533770	0.092477	1.153851
O19	O	0.835942	0.031649	1.124775
O20	O	0.835938	-0.311090	1.124773
O21	O	0.835938	0.031652	0.782035
O22	O	0.568309	0.237308	1.302313
O23	O	0.568305	-0.105432	1.302311
O24	O	0.568305	0.237310	0.959573
O25	O	0.702124	-0.112461	1.309343
O26	O	0.702125	0.230280	1.117744
O27	O	0.702124	0.230281	0.966605
O28	O	0.702125	0.038677	1.309344
O29	O	0.941495	-0.316634	0.979181
O30	O	0.462748	0.242854	1.105164
O31	O	0.462750	0.242853	1.296766
O32	O	0.462748	0.051252	1.296765
O33	O	0.941495	-0.125031	0.787581
O34	O	0.941497	-0.125033	0.979182
O35	O	0.623347	0.136437	1.094431
O36	O	0.623347	0.023643	1.207223
O37	O	0.780899	-0.097425	1.102709
O38	O	0.780899	0.015369	0.989916
C39	C	0.491536	-0.025828	1.031107
C40	C	0.420066	-0.022073	1.027351
C41	C	0.702118	-0.036887	0.740658
C42	C	0.702117	-0.036887	0.638327
C43	C	0.702125	0.264624	1.042175
C44	C	0.702126	0.366956	1.042175
C45	C	0.386489	-0.079187	1.084460
C46	C	0.319330	-0.075648	1.080934
C47	C	0.285754	-0.015003	1.020292
C48	C	0.319333	0.042118	0.963181
C49	C	0.386487	0.038586	0.966714
C50	C	0.084910	0.001882	1.003417
C51	C	0.017754	0.005407	0.999886
C52	C	0.017754	-0.112358	1.117641
C53	C	0.084912	-0.115890	1.121163
C54	C	0.118483	-0.058765	1.064057
N55	N	0.217108	-0.011387	1.016683
N56	N	0.187122	-0.062374	1.067673
C57	C	0.912706	-0.047952	1.053239
C58	C	0.984177	-0.051706	1.056995
C59	C	0.702118	-0.338404	1.042171
C60	C	0.702117	-0.440735	1.042171
C61	C	0.784365	0.351838	0.987622
C62	C	0.784361	0.447993	0.987616
C63	C	0.619871	0.574381	1.096726
C64	C	0.619877	0.478227	1.096724
C65	C	0.619878	0.026305	0.644804
C66	C	0.619882	0.026306	0.548649
C67	C	0.784371	-0.100087	0.439544
C68	C	0.784366	-0.100080	0.535698
C69	C	0.702125	-0.036892	1.343687
C70	C	0.702126	-0.036893	1.446019
C71	C	0.491540	-0.025830	1.332621
C72	C	0.420071	-0.022077	1.431197
C73	C	0.491540	0.275686	1.031109
C74	C	0.420071	0.381772	1.027353
C75	C	0.491543	0.275684	1.332623
C76	C	0.420075	0.381769	1.431199
C77	C	0.912699	-0.349464	0.751723
C78	C	0.984167	-0.455548	0.653147
C79	C	0.912703	-0.047949	0.751724
C80	C	0.984172	-0.051703	0.653149
C81	C	0.912703	-0.349466	1.053237
C82	C	0.984172	-0.455552	1.056992
C83	C	0.386506	-0.079200	1.418612
C84	C	0.319363	-0.075696	1.511225
C85	C	0.285780	-0.015062	1.616423
C86	C	0.319350	0.042063	1.629006
C87	C	0.386498	0.038552	1.536393
C88	C	0.386509	0.490477	1.084467
C89	C	0.319366	0.590164	1.080935
C90	C	0.285780	0.581144	1.020295
C91	C	0.319348	0.472428	0.963174
C92	C	0.386495	0.372742	0.966701
C93	C	0.386513	0.372710	1.536378
C94	C	0.319371	0.472378	1.629011
C95	C	0.285787	0.581104	1.616462
C96	C	0.319356	0.590160	1.511272
C97	C	0.386502	0.490493	1.418642
C98	C	1.017738	-0.446490	0.547968
C99	C	1.084901	-0.546159	0.455337
C100	C	1.118488	-0.654885	0.467886
C101	C	1.084915	-0.663941	0.573076
C102	C	1.017758	-0.564273	0.665705
C103	C	1.017743	0.005410	0.665734
C104	C	1.084906	0.001879	0.573122
C105	C	1.118491	-0.058759	0.467925
C106	C	1.084917	-0.115880	0.455341
C107	C	1.017760	-0.112355	0.547953
C108	C	1.017736	-0.446494	1.117643
C109	C	1.084881	-0.546163	1.121193
C110	C	1.118464	-0.654888	1.064085
C111	C	1.084893	-0.663943	1.003433
C112	C	1.017745	-0.564275	0.999890
H113	H	0.413826	-0.128577	1.133836
H114	H	0.291992	0.465100	0.913802
H115	H	0.231103	-0.012211	1.691824
C116	C	1.192357	-0.764512	0.365979
N117	N	1.247991	-0.847080	0.289218
H118	H	0.413812	0.284234	0.920195
C119	C	0.282396	0.709770	1.497486
N120	N	0.254551	0.799864	1.487105
H121	H	0.291991	-0.122153	1.127437
H122	H	0.851338	0.261239	0.943201
C123	C	0.529402	0.696784	1.156906
N124	N	0.461258	0.788979	1.202301
H125	H	0.990425	-0.571662	0.751343
H126	H	0.552904	0.490545	1.141148
H127	H	0.231104	0.662323	1.017432
H128	H	-0.009580	0.054792	0.950499
C129	C	0.121838	-0.182601	1.187878
N130	N	0.149652	-0.232850	1.238128
H131	H	0.413847	0.284189	1.546617
H132	H	1.112271	-0.752478	0.583280
H133	H	-0.009587	-0.158865	1.164135
C134	C	0.423446	0.500427	1.151173
N135	N	0.451267	0.507931	1.201412
H136	H	0.990403	0.054796	0.751383
C137	C	0.980803	-0.326905	1.180478
N138	N	0.952984	-0.236833	1.227816
H139	H	0.990395	-0.357969	0.537729
H140	H	0.851336	-0.151538	0.355974
C141	C	0.121800	0.064765	0.940638
N142	N	0.149577	0.112147	0.893365
C143	C	0.980844	-0.574258	0.933149
N144	N	0.953056	-0.581786	0.882874
C145	C	0.282449	0.462391	1.744709
N146	N	0.254639	0.454866	1.831850
H147	H	0.851339	-0.151537	0.530416
C148	C	1.121801	-0.536177	1.187911
N149	N	1.149607	-0.528653	1.238162
H150	H	0.851328	0.435673	0.943190
C151	C	1.121817	0.064729	0.586988
N152	N	1.149615	0.112072	0.597434
C153	C	0.211917	0.690731	1.718369
N154	N	0.156275	0.773299	1.795129
H155	H	0.291986	0.091504	0.913811
C156	C	1.192361	-0.062620	0.366059
N157	N	1.247998	-0.065519	0.289337
C158	C	0.980829	-0.175173	0.534090
N159	N	0.953014	-0.222489	0.523640
H160	H	1.112272	-0.165250	0.369678
H161	H	0.552905	0.077774	0.728365
H162	H	0.292037	-0.122215	1.500958
H163	H	0.413819	0.497885	1.333004
C164	C	1.192330	-0.764516	1.067991
N165	N	1.247968	-0.847084	1.070936
H166	H	0.292042	0.678676	1.127454
H167	H	1.112225	-0.538763	0.369696
H168	H	0.413826	0.085090	0.920207
H169	H	0.413849	-0.128590	1.332964
C170	C	0.529413	0.095812	0.555783
N171	N	0.461267	0.148165	0.561159
C172	C	0.282393	0.108768	1.744733
N173	N	0.254549	0.159017	1.831901
H174	H	0.413817	0.085076	1.546656
H175	H	1.112247	-0.752481	0.956938
