data_functionalizedCrystal
_audit_creation_method	'MofGen! by Chris Wilmer'
_symmetry_space_group_name_H-M	'P1'
_symmetry_Int_Tables_number	1
_symmetry_cell_setting	triclinic
loop_
_symmetry_equiv_pos_as_xyz
  x,y,z
_cell_length_a	29.839134
_cell_length_b	29.839131
_cell_length_c	29.839125
_cell_angle_alpha	89.982291
_cell_angle_beta	89.978020
_cell_angle_gamma	90.036281
loop_
_atom_site_label
_atom_site_type_symbol
_atom_site_fract_x
_atom_site_fract_y
_atom_site_fract_z
Zn1	Zn	0.686720	-0.178978	-0.254125
Zn2	Zn	1.186720	0.321022	0.245875
Zn3	Zn	0.686652	-0.254090	-0.178995
Zn4	Zn	1.186652	0.245910	0.321005
Zn5	Zn	0.611602	-0.178968	-0.178995
Zn6	Zn	1.111602	0.321032	0.321005
Zn7	Zn	0.611550	-0.254075	-0.254083
Zn8	Zn	1.111550	0.245925	0.245917
O9	O	0.649131	-0.216528	-0.216549
O10	O	1.149131	0.283472	0.283451
O11	O	0.749578	-0.188952	-0.244176
O12	O	1.249578	0.311048	0.255824
O13	O	0.676690	-0.244127	-0.116128
O14	O	1.176690	0.255873	0.383872
O15	O	0.621617	-0.116102	-0.188978
O16	O	1.121617	0.383898	0.311022
O17	O	0.749528	-0.244137	-0.188979
O18	O	1.249528	0.255863	0.311021
O19	O	0.676805	-0.116109	-0.244176
O20	O	1.176805	0.383891	0.255824
O21	O	0.621551	-0.188935	-0.116127
O22	O	1.121551	0.311065	0.383873
O23	O	0.548728	-0.188921	-0.188938
O24	O	1.048728	0.311079	0.311062
O25	O	0.621528	-0.244111	-0.316956
O26	O	1.121528	0.255889	0.183044
O27	O	0.548690	-0.244101	-0.244105
O28	O	1.048690	0.255899	0.255895
O29	O	0.676755	-0.188937	-0.316987
O30	O	1.176755	0.311063	0.183013
O31	O	0.676639	-0.316955	-0.188938
O32	O	1.176639	0.183045	0.311062
O33	O	0.621462	-0.316944	-0.244105
O34	O	1.121462	0.183056	0.255895
C35	C	0.532408	-0.216509	-0.216517
C36	C	1.032408	0.283491	0.283483
C37	C	0.482474	-0.216511	-0.216514
C38	C	0.982474	0.283489	0.283486
C39	C	0.172820	-0.245303	-0.245240
C40	C	0.672820	0.254697	0.254760
C41	C	-0.014853	-0.245315	-0.245260
C42	C	0.485147	0.254685	0.254740
O43	O	-0.039127	-0.269774	-0.269665
O44	O	0.460873	0.230226	0.230335
N45	N	-0.038311	-0.216544	-0.216583
N46	N	0.461689	0.283456	0.283417
C47	C	-0.014848	-0.187766	-0.187902
C48	C	0.485152	0.312234	0.312098
O49	O	-0.039107	-0.163291	-0.163514
O50	O	0.460893	0.336709	0.336486
C51	C	0.172824	-0.187751	-0.187884
C52	C	0.672824	0.312249	0.312116
C53	C	0.196280	-0.216527	-0.216560
C54	C	0.696280	0.283473	0.283440
C55	C	0.196276	-0.274076	-0.273913
C56	C	0.696276	0.225924	0.226087
C57	C	0.243191	-0.274075	-0.273906
C58	C	0.743191	0.225925	0.226094
C59	C	0.266651	-0.245299	-0.245226
C60	C	0.766651	0.254701	0.254774
C61	C	0.243195	-0.216526	-0.216553
C62	C	0.743195	0.283474	0.283447
C63	C	0.196286	-0.158971	-0.159205
C64	C	0.696286	0.341029	0.340795
C65	C	0.243207	-0.158969	-0.159204
C66	C	0.743207	0.341031	0.340796
C67	C	0.266663	-0.187745	-0.187880
C68	C	0.766663	0.312255	0.312120
C69	C	0.313570	-0.187749	-0.187865
C70	C	0.813570	0.312251	0.312135
N71	N	0.337029	-0.216520	-0.216542
N72	N	0.837029	0.283480	0.283458
C73	C	0.313569	-0.245295	-0.245222
C74	C	0.813569	0.254705	0.254778
C75	C	-0.113379	-0.187776	-0.187912
C76	C	0.386621	0.312224	0.312088
C77	C	-0.160297	-0.187780	-0.187916
C78	C	0.339703	0.312220	0.312084
C79	C	-0.160298	-0.245329	-0.245275
C80	C	0.339702	0.254671	0.254725
C81	C	-0.113380	-0.245327	-0.245269
C82	C	0.386620	0.254673	0.254731
C83	C	-0.089921	-0.216547	-0.216589
C84	C	0.410079	0.283453	0.283411
C85	C	0.412095	-0.245290	-0.245205
C86	C	0.912095	0.254710	0.254795
C87	C	0.459014	-0.245287	-0.245194
C88	C	0.959014	0.254713	0.254806
C89	C	0.459012	-0.187736	-0.187837
C90	C	0.959012	0.312264	0.312163
C91	C	0.412096	-0.187740	-0.187846
C92	C	0.912096	0.312260	0.312154
C93	C	0.388639	-0.216519	-0.216534
C94	C	0.888639	0.283481	0.283466
O95	O	0.337873	-0.163299	-0.163477
O96	O	0.837873	0.336701	0.336523
O97	O	0.337836	-0.269759	-0.269613
O98	O	0.837836	0.230241	0.230387
C99	C	0.125905	-0.245304	-0.245247
C100	C	0.625905	0.254696	0.254753
C101	C	0.102449	-0.216531	-0.216574
C102	C	0.602449	0.283469	0.283426
C103	C	0.125909	-0.187755	-0.187893
C104	C	0.625909	0.312245	0.312107
C105	C	0.055531	-0.216535	-0.216577
C106	C	0.555531	0.283465	0.283423
C107	C	0.032071	-0.245310	-0.245258
C108	C	0.532071	0.254690	0.254742
C109	C	0.055529	-0.274082	-0.273934
C110	C	0.555529	0.225918	0.226066
C111	C	0.102445	-0.274080	-0.273927
C112	C	0.602445	0.225920	0.226073
C113	C	0.102451	-0.158984	-0.159217
C114	C	0.602451	0.341016	0.340783
C115	C	0.055535	-0.158989	-0.159226
C116	C	0.555535	0.341011	0.340774
C117	C	0.032075	-0.187764	-0.187906
C118	C	0.532075	0.312236	0.312094
C119	C	0.649050	-0.333250	-0.216527
C120	C	1.149050	0.166750	0.283473
C121	C	0.649056	-0.383185	-0.216533
C122	C	1.149056	0.116815	0.283467
C123	C	0.677914	-0.692821	-0.187866
C124	C	1.177914	-0.192821	0.312134
C125	C	0.677969	-0.880494	-0.187883
C126	C	1.177969	-0.380494	0.312117
O127	O	0.702441	-0.904753	-0.163493
O128	O	1.202441	-0.404753	0.336507
N129	N	0.649224	-0.903970	-0.216583
N130	N	1.149224	-0.403970	0.283417
C131	C	0.620465	-0.880524	-0.245283
C132	C	1.120465	-0.380524	0.254717
O133	O	0.596020	-0.904798	-0.269698
O134	O	1.096020	-0.404798	0.230302
C135	C	0.620412	-0.692852	-0.245268
C136	C	1.120412	-0.192852	0.254732
C137	C	0.649156	-0.669379	-0.216563
C138	C	1.149156	-0.169379	0.283437
C139	C	0.706656	-0.669348	-0.159164
C140	C	1.206656	-0.169348	0.340836
C141	C	0.706640	-0.622433	-0.159158
C142	C	1.206640	-0.122433	0.340842
C143	C	0.677882	-0.598990	-0.187854
C144	C	1.177882	-0.098990	0.312146
C145	C	0.649140	-0.622463	-0.216557
C146	C	1.149140	-0.122463	0.283443
C147	C	0.591656	-0.669407	-0.273969
C148	C	1.091656	-0.169407	0.226031
C149	C	0.591646	-0.622486	-0.273964
C150	C	1.091646	-0.122486	0.226036
C151	C	0.620390	-0.599013	-0.245259
C152	C	1.120390	-0.099013	0.254741
C153	C	0.620367	-0.552106	-0.245248
C154	C	1.120367	-0.052106	0.254752
N155	N	0.649112	-0.528630	-0.216548
N156	N	1.149112	-0.028630	0.283452
C157	C	0.677869	-0.552072	-0.187851
C158	C	1.177869	-0.052072	0.312149
C159	C	0.620494	-0.979055	-0.245289
C160	C	1.120494	-0.479055	0.254711
C161	C	0.620507	-1.025973	-0.245292
C162	C	1.120507	-0.525973	0.254708
C163	C	0.678012	-1.025939	-0.187893
C164	C	1.178012	-0.525939	0.312107
C165	C	0.677996	-0.979021	-0.187887
C166	C	1.177996	-0.479021	0.312113
C167	C	0.649239	-0.955579	-0.216589
C168	C	1.149239	-0.455579	0.283411
C169	C	0.677834	-0.453547	-0.187841
C170	C	1.177834	0.046453	0.312159
C171	C	0.677814	-0.406627	-0.187836
C172	C	1.177814	0.093373	0.312164
C173	C	0.620311	-0.406664	-0.245237
C174	C	1.120311	0.093336	0.254763
C175	C	0.620329	-0.453580	-0.245240
C176	C	1.120329	0.046420	0.254760
C177	C	0.649094	-0.477020	-0.216540
C178	C	1.149094	0.022980	0.283460
O179	O	0.595912	-0.527818	-0.269629
O180	O	1.095912	-0.027818	0.230371
O181	O	0.702318	-0.527791	-0.163447
O182	O	1.202318	-0.027791	0.336553
C183	C	0.677930	-0.739737	-0.187872
C184	C	1.177930	-0.239737	0.312128
C185	C	0.649188	-0.763210	-0.216574
C186	C	1.149188	-0.263210	0.283426
C187	C	0.620430	-0.739767	-0.245271
C188	C	1.120430	-0.239767	0.254729
C189	C	0.649200	-0.810128	-0.216578
C190	C	1.149200	-0.310128	0.283422
C191	C	0.677958	-0.833570	-0.187881
C192	C	1.177958	-0.333570	0.312119
C193	C	0.706703	-0.810094	-0.159181
C194	C	1.206703	-0.310094	0.340819
C195	C	0.706687	-0.763179	-0.159175
C196	C	1.206687	-0.263179	0.340825
C197	C	0.591685	-0.763243	-0.273971
C198	C	1.091685	-0.263243	0.226029
C199	C	0.591703	-0.810158	-0.273974
C200	C	1.091703	-0.310158	0.226026
C201	C	0.620461	-0.833601	-0.245277
C202	C	1.120461	-0.333601	0.254723
C203	C	0.766309	-0.216547	-0.216582
C204	C	1.266309	0.283453	0.283418
C205	C	0.816244	-0.216555	-0.216596
C206	C	1.316244	0.283445	0.283404
C207	C	0.649143	-0.216524	-0.333728
C208	C	1.149143	0.283476	0.166272
C209	C	0.649148	-0.216522	-0.383662
C210	C	1.149148	0.283478	0.116338
C211	C	0.649225	-0.099349	-0.216582
C212	C	1.149225	0.400651	0.283418
C213	C	0.649265	-0.049415	-0.216595
C214	C	1.149265	0.450585	0.283405
C215	C	0.677935	-0.187718	-0.693325
C216	C	1.177935	0.312282	-0.193325
C217	C	0.677957	-0.187680	-0.880998
C218	C	1.177957	0.312320	-0.380998
O219	O	0.702399	-0.163232	-0.905279
O220	O	1.202399	0.336768	-0.405279
N221	N	0.649208	-0.216402	-0.904448
N222	N	1.149208	0.283598	-0.404448
C223	C	0.620449	-0.245133	-0.880976
C224	C	1.120449	0.254867	-0.380976
O225	O	0.595993	-0.269559	-0.905228
O226	O	1.095993	0.230441	-0.405228
C227	C	0.620424	-0.245169	-0.693304
C228	C	1.120424	0.254831	-0.193304
C229	C	0.649179	-0.216448	-0.669857
C230	C	1.149179	0.283552	-0.169857
C231	C	0.706687	-0.158999	-0.669877
C232	C	1.206687	0.341001	-0.169877
C233	C	0.706683	-0.159011	-0.622962
C234	C	1.206683	0.340989	-0.122962
C235	C	0.677927	-0.187741	-0.599494
C236	C	1.177927	0.312259	-0.099494
C237	C	0.649175	-0.216460	-0.622941
C238	C	1.149175	0.283540	-0.122941
C239	C	0.591663	-0.273898	-0.669833
C240	C	1.091663	0.226102	-0.169833
C241	C	0.591659	-0.273903	-0.622912
C242	C	1.091659	0.226097	-0.122912
C243	C	0.620414	-0.245183	-0.599465
C244	C	1.120414	0.254817	-0.099465
C245	C	0.620415	-0.245202	-0.552558
C246	C	1.120415	0.254798	-0.052558
N247	N	0.649164	-0.216480	-0.529108
N248	N	1.149164	0.283520	-0.029108
C249	C	0.677920	-0.187749	-0.552576
C250	C	1.177920	0.312251	-0.052576
C251	C	0.620464	-0.245113	-0.979507
C252	C	1.120464	0.254887	-0.479507
C253	C	0.620471	-0.245105	-1.026425
C254	C	1.120471	0.254895	-0.526425
C255	C	0.677979	-0.187650	-1.026443
C256	C	1.177979	0.312350	-0.526443
C257	C	0.677974	-0.187661	-0.979524
C258	C	1.177974	0.312339	-0.479524
C259	C	0.649214	-0.216391	-0.956057
C260	C	1.149214	0.283609	-0.456057
C261	C	0.677910	-0.187776	-0.454050
C262	C	1.177910	0.312224	0.045950
C263	C	0.677904	-0.187792	-0.407130
C264	C	1.177904	0.312208	0.092870
C265	C	0.620395	-0.245244	-0.407116
C266	C	1.120395	0.254756	0.092884
C267	C	0.620401	-0.245230	-0.454032
C268	C	1.120401	0.254770	0.045968
C269	C	0.649161	-0.216493	-0.477497
C270	C	1.149161	0.283507	0.022503
O271	O	0.595982	-0.269633	-0.528248
O272	O	1.095982	0.230367	-0.028248
O273	O	0.702366	-0.163320	-0.528316
O274	O	1.202366	0.336680	-0.028316
C275	C	0.677939	-0.187706	-0.740240
C276	C	1.177939	0.312294	-0.240240
C277	C	0.649187	-0.216425	-0.763688
C278	C	1.149187	0.283575	-0.263688
C279	C	0.620431	-0.245155	-0.740219
C280	C	1.120431	0.254845	-0.240219
C281	C	0.649194	-0.216417	-0.810605
C282	C	1.149194	0.283583	-0.310605
C283	C	0.677950	-0.187686	-0.834074
C284	C	1.177950	0.312314	-0.334074
C285	C	0.706699	-0.158964	-0.810624
C286	C	1.206699	0.341036	-0.310624
C287	C	0.706695	-0.158976	-0.763708
C288	C	1.206695	0.341024	-0.263708
C289	C	0.591682	-0.273877	-0.763669
C290	C	1.091682	0.226123	-0.263669
C291	C	0.591689	-0.273864	-0.810585
C292	C	1.091689	0.226136	-0.310585
C293	C	0.620445	-0.245133	-0.834053
C294	C	1.120445	0.254867	-0.334053
C295	C	0.649145	-0.216499	-0.099827
C296	C	1.149145	0.283501	0.400173
C297	C	0.649227	-0.216374	-0.049893
C298	C	1.149227	0.283626	0.450107
H299	H	0.393001	-0.268723	-0.268566
H300	H	0.893001	0.231277	0.231434
C301	C	0.588787	-0.276832	-0.479833
C302	C	1.088787	0.223168	0.020167
C303	C	0.592426	-0.327905	-0.473382
C304	C	1.092426	0.172095	0.026618
C305	C	0.560813	-0.359507	-0.499183
C306	C	1.060813	0.140493	0.000817
C307	C	0.525562	-0.340036	-0.531436
C308	C	1.025562	0.159964	-0.031436
C309	C	0.521922	-0.288960	-0.537889
C310	C	1.021922	0.211040	-0.037889
C311	C	0.553534	-0.257358	-0.512087
C312	C	1.053534	0.242642	-0.012087
H313	H	0.618522	-0.342321	-0.449505
H314	H	1.118522	0.157679	0.050495
H315	H	0.563508	-0.397317	-0.494406
H316	H	1.063508	0.102683	0.005594
H317	H	0.502161	-0.363430	-0.550535
H318	H	1.002161	0.136570	-0.050535
H319	H	0.495825	-0.274544	-0.561765
H320	H	0.995825	0.225456	-0.061765
H321	H	0.550839	-0.219549	-0.516865
H322	H	1.050839	0.280451	-0.016865
H323	H	0.177180	-0.297509	-0.297271
H324	H	0.677180	0.202491	0.202729
H325	H	0.701327	-0.164374	-0.473150
H326	H	1.201327	0.335626	0.026850
C327	C	0.386288	-0.156090	-0.156304
C328	C	0.886288	0.343910	0.343696
C329	C	0.354068	-0.120851	-0.175847
C330	C	0.854068	0.379149	0.324153
C331	C	0.328262	-0.089196	-0.144309
C332	C	0.828262	0.410804	0.355691
C333	C	0.334677	-0.092780	-0.093229
C334	C	0.834677	0.407220	0.406771
C335	C	0.366899	-0.128021	-0.073684
C336	C	0.866899	0.371979	0.426316
C337	C	0.392705	-0.159675	-0.105221
C338	C	0.892705	0.340325	0.394779
H339	H	0.349318	-0.118196	-0.213662
H340	H	0.849318	0.381804	0.286338
H341	H	0.304409	-0.063109	-0.158778
H342	H	0.804409	0.436891	0.341222
H343	H	0.315574	-0.069348	-0.069883
H344	H	0.815574	0.430652	0.430117
H345	H	0.371649	-0.130675	-0.035869
H346	H	0.871649	0.369325	0.464131
H347	H	0.416558	-0.185763	-0.090752
H348	H	0.916558	0.314237	0.409248
H349	H	0.036441	-0.135556	-0.135871
H350	H	0.536441	0.364444	0.364129
C351	C	-0.087575	-0.156121	-0.156359
C352	C	0.412425	0.343879	0.343641
C353	C	-0.055349	-0.175533	-0.121049
C354	C	0.444651	0.324467	0.378951
C355	C	-0.029547	-0.143881	-0.089494
C356	C	0.470453	0.356119	0.410506
C357	C	-0.035971	-0.092815	-0.093248
C358	C	0.464029	0.407185	0.406752
C359	C	-0.068198	-0.073400	-0.128558
C360	C	0.431802	0.426600	0.371442
C361	C	-0.094000	-0.105052	-0.160114
C362	C	0.406000	0.394948	0.339886
H363	H	-0.050593	-0.213338	-0.118269
H364	H	0.449407	0.286662	0.381731
H365	H	-0.005690	-0.158254	-0.063354
H366	H	0.494310	0.341746	0.436646
H367	H	-0.016871	-0.069384	-0.069888
H368	H	0.483129	0.430616	0.430112
H369	H	-0.072955	-0.035595	-0.131339
H370	H	0.427045	0.464405	0.368661
H371	H	-0.117857	-0.090679	-0.186253
H372	H	0.382143	0.409321	0.313747
C373	C	0.588771	-0.276849	-0.381291
C374	C	1.088771	0.223151	0.118709
C375	C	0.553518	-0.257382	-0.349022
C376	C	1.053518	0.242618	0.150978
C377	C	0.521895	-0.288987	-0.323194
C378	C	1.021895	0.211013	0.176806
C379	C	0.525524	-0.340058	-0.329634
C380	C	1.025524	0.159942	0.170366
C381	C	0.560778	-0.359528	-0.361904
C382	C	1.060778	0.140472	0.138096
C383	C	0.592402	-0.327923	-0.387732
C384	C	1.092402	0.172077	0.112268
H385	H	0.550830	-0.219574	-0.344254
H386	H	1.050830	0.280426	0.155746
H387	H	0.495797	-0.274574	-0.299305
H388	H	0.995797	0.225426	0.200695
H389	H	0.502115	-0.363454	-0.310514
H390	H	1.002115	0.136546	0.189486
H391	H	0.563467	-0.397337	-0.366672
H392	H	1.063467	0.102663	0.133328
H393	H	0.618499	-0.342336	-0.411621
H394	H	1.118499	0.157664	0.088379
C395	C	0.709609	-0.156044	-1.052264
C396	C	1.209609	0.343956	-0.552264
C397	C	0.709610	-0.156037	-1.103871
C398	C	1.209610	0.343963	-0.603871
C399	C	0.741236	-0.124430	-1.129694
C400	C	1.241236	0.375570	-0.629694
C401	C	0.772860	-0.092830	-1.103909
C402	C	1.272860	0.407170	-0.603909
C403	C	0.772860	-0.092837	-1.052298
C404	C	1.272860	0.407163	-0.552298
C405	C	0.741235	-0.124444	-1.026476
C406	C	1.241235	0.375556	-0.526476
H407	H	0.686199	-0.179429	-1.122962
H408	H	1.186199	0.320571	-0.622962
H409	H	0.741236	-0.124425	-1.167900
H410	H	1.241236	0.375575	-0.667900
H411	H	0.796271	-0.069433	-1.123025
H412	H	1.296271	0.430567	-0.623025
H413	H	0.796272	-0.069444	-1.033208
H414	H	1.296272	0.430556	-0.533208
H415	H	0.741235	-0.124448	-0.988270
H416	H	1.241235	0.375552	-0.488270
C417	C	-0.087580	-0.276978	-0.276814
C418	C	0.412420	0.223022	0.223186
C419	C	-0.094064	-0.328045	-0.273056
C420	C	0.405936	0.171955	0.226944
C421	C	-0.068267	-0.359696	-0.304604
C422	C	0.431733	0.140304	0.195396
C423	C	-0.035988	-0.340282	-0.339911
C424	C	0.464012	0.159718	0.160089
C425	C	-0.029503	-0.289213	-0.343671
C426	C	0.470497	0.210787	0.156329
C427	C	-0.055299	-0.257561	-0.312122
C428	C	0.444701	0.242439	0.187878
H429	H	-0.117960	-0.342419	-0.246918
H430	H	0.382040	0.157581	0.253082
H431	H	-0.073068	-0.397501	-0.301820
H432	H	0.426932	0.102499	0.198180
H433	H	-0.016892	-0.363712	-0.363264
H434	H	0.483108	0.136288	0.136736
H435	H	-0.005606	-0.274839	-0.369808
H436	H	0.494394	0.225161	0.130192
H437	H	-0.050499	-0.219757	-0.314906
H438	H	0.449501	0.280243	0.185094
C439	C	-0.186109	-0.276981	-0.276826
C440	C	0.313891	0.223019	0.223174
C441	C	-0.237717	-0.276980	-0.276828
C442	C	0.262283	0.223020	0.223172
C443	C	-0.263531	-0.308627	-0.308380
C444	C	0.236469	0.191373	0.191620
C445	C	-0.237736	-0.340276	-0.339929
C446	C	0.262264	0.159724	0.160071
C447	C	-0.186126	-0.340278	-0.339928
C448	C	0.313874	0.159722	0.160072
C449	C	-0.160312	-0.308631	-0.308376
C450	C	0.339688	0.191369	0.191624
H451	H	-0.256814	-0.253551	-0.253472
H452	H	0.243186	0.246449	0.246528
H453	H	-0.301736	-0.308625	-0.308380
H454	H	0.198264	0.191375	0.191620
H455	H	-0.256845	-0.363703	-0.363285
H456	H	0.243155	0.136297	0.136715
H457	H	-0.167029	-0.363708	-0.363284
H458	H	0.332971	0.136292	0.136716
H459	H	-0.122106	-0.308633	-0.308376
H460	H	0.377894	0.191367	0.191624
H461	H	0.262285	-0.297506	-0.297258
H462	H	0.762285	0.202494	0.202742
C463	C	0.560010	-0.596702	-0.305535
C464	C	1.060010	-0.096702	0.194465
C465	C	0.579441	-0.564415	-0.340825
C466	C	1.079441	-0.064415	0.159175
C467	C	0.547804	-0.538632	-0.372396
C468	C	1.047804	-0.038632	0.127604
C469	C	0.496737	-0.545135	-0.368676
C470	C	0.996737	-0.045135	0.131324
C471	C	0.477305	-0.577424	-0.333384
C472	C	0.977305	-0.077424	0.166616
C473	C	0.508941	-0.603207	-0.301814
C474	C	1.008941	-0.103207	0.198186
H475	H	0.617245	-0.559599	-0.343581
H476	H	1.117245	-0.059599	0.156419
H477	H	0.562190	-0.514729	-0.398521
H478	H	1.062190	-0.014729	0.101479
H479	H	0.473318	-0.526049	-0.392046
H480	H	0.973318	-0.026049	0.107954
H481	H	0.439500	-0.582240	-0.330629
H482	H	0.939500	-0.082240	0.169371
H483	H	0.494555	-0.627109	-0.275688
H484	H	0.994555	-0.127109	0.224312
C485	C	0.738324	-0.127380	-0.737921
C486	C	1.238324	0.372620	-0.237921
C487	C	0.734696	-0.076307	-0.744382
C488	C	1.234696	0.423693	-0.244382
C489	C	0.766326	-0.044708	-0.718599
C490	C	1.266326	0.455292	-0.218599
C491	C	0.801583	-0.064181	-0.686354
C492	C	1.301583	0.435819	-0.186354
C493	C	0.805212	-0.115256	-0.679891
C494	C	1.305212	0.384744	-0.179891
C495	C	0.773582	-0.146856	-0.705674
C496	C	1.273582	0.353144	-0.205674
H497	H	0.708596	-0.061889	-0.768253
H498	H	1.208596	0.438111	-0.268253
H499	H	0.763640	-0.006898	-0.723383
H500	H	1.263640	0.493102	-0.223383
H501	H	0.824997	-0.040790	-0.667267
H502	H	1.324997	0.459210	-0.167267
H503	H	0.831312	-0.129674	-0.656020
H504	H	1.331312	0.370326	-0.156020
H505	H	0.776269	-0.184665	-0.700890
H506	H	1.276269	0.315335	-0.200890
C507	C	0.170497	-0.127316	-0.127658
C508	C	0.670497	0.372684	0.372342
C509	C	0.176988	-0.076251	-0.131419
C510	C	0.676988	0.423749	0.368581
C511	C	0.151201	-0.044594	-0.099867
C512	C	0.651201	0.455406	0.400133
C513	C	0.118924	-0.064003	-0.064555
C514	C	0.618924	0.435997	0.435445
C515	C	0.112432	-0.115071	-0.060793
C516	C	0.612432	0.384929	0.439207
C517	C	0.138218	-0.146727	-0.092345
C518	C	0.638218	0.353273	0.407655
H519	H	0.200883	-0.061881	-0.157560
H520	H	0.700883	0.438119	0.342440
H521	H	0.156007	-0.006790	-0.102652
H522	H	0.656007	0.493210	0.397348
H523	H	0.099835	-0.040569	-0.041199
H524	H	0.599835	0.459431	0.458801
H525	H	0.088537	-0.129441	-0.034652
H526	H	0.588537	0.370559	0.465348
H527	H	0.133412	-0.184531	-0.089560
H528	H	0.633412	0.315469	0.410440
H529	H	-0.179390	-0.164352	-0.164561
H530	H	0.320610	0.335648	0.335439
H531	H	0.568268	-0.744160	-0.297340
H532	H	1.068268	-0.244160	0.202660
H533	H	0.730093	-0.744071	-0.135801
H534	H	1.230093	-0.244071	0.364199
C535	C	0.738307	-0.127412	-0.597172
C536	C	1.238307	0.372588	-0.097172
C537	C	0.773563	-0.146881	-0.564924
C538	C	1.273563	0.353119	-0.064924
C539	C	0.805187	-0.115278	-0.539137
C540	C	1.305187	0.384722	-0.039137
C541	C	0.801554	-0.064206	-0.545599
C542	C	1.301554	0.435794	-0.045599
C543	C	0.766297	-0.044734	-0.577849
C544	C	1.266297	0.455266	-0.077849
C545	C	0.734673	-0.076337	-0.603636
C546	C	1.234673	0.423663	-0.103636
H547	H	0.776254	-0.184690	-0.560139
H548	H	1.276254	0.315310	-0.060139
H549	H	0.831287	-0.129693	-0.515264
H550	H	1.331287	0.370307	-0.015264
H551	H	0.824964	-0.040812	-0.526510
H552	H	1.324964	0.459188	-0.026510
H553	H	0.763606	-0.006925	-0.582634
H554	H	1.263606	0.493075	-0.082634
H555	H	0.708573	-0.061922	-0.627509
H556	H	1.208573	0.438078	-0.127509
H557	H	0.730104	-0.135601	-0.688980
H558	H	1.230104	0.364399	-0.188980
H559	H	0.262305	-0.135529	-0.135852
H560	H	0.762305	0.364471	0.364148
C561	C	0.709601	-0.156066	-0.953735
C562	C	1.209601	0.343934	-0.453735
C563	C	0.705976	-0.104993	-0.960196
C564	C	1.205976	0.395007	-0.460196
C565	C	0.737604	-0.073395	-0.934409
C566	C	1.237604	0.426605	-0.434409
C567	C	0.772857	-0.092869	-0.902160
C568	C	1.272857	0.407131	-0.402160
C569	C	0.776484	-0.143945	-0.895697
C570	C	1.276484	0.356055	-0.395697
C571	C	0.744856	-0.175543	-0.921484
C572	C	1.244856	0.324457	-0.421484
H573	H	0.679878	-0.090574	-0.984070
H574	H	1.179878	0.409426	-0.484070
H575	H	0.734919	-0.035585	-0.939193
H576	H	1.234919	0.464415	-0.439193
H577	H	0.796270	-0.069478	-0.883071
H578	H	1.296270	0.430522	-0.383071
H579	H	0.802581	-0.158363	-0.871824
H580	H	1.302581	0.341637	-0.371824
H581	H	0.747541	-0.213352	-0.916700
H582	H	1.247541	0.286648	-0.416700
C583	C	0.709435	-0.380808	-0.156260
C584	C	1.209435	0.119192	0.343740
C585	C	0.705809	-0.387288	-0.105185
C586	C	1.205809	0.112712	0.394815
C587	C	0.737430	-0.361471	-0.073611
C588	C	1.237430	0.138529	0.426389
C589	C	0.772677	-0.329173	-0.093111
C590	C	1.272677	0.170827	0.406889
C591	C	0.776305	-0.322692	-0.144188
C592	C	1.276305	0.177308	0.355812
C593	C	0.744684	-0.348509	-0.175762
C594	C	1.244684	0.151491	0.324238
H595	H	0.679716	-0.411197	-0.090748
H596	H	1.179716	0.088803	0.409252
H597	H	0.734745	-0.366269	-0.035800
H598	H	1.234745	0.133731	0.464200
H599	H	0.796085	-0.310062	-0.069737
H600	H	1.296085	0.189938	0.430263
H601	H	0.802398	-0.298782	-0.158625
H602	H	1.302398	0.201218	0.341375
H603	H	0.747370	-0.343711	-0.213573
H604	H	1.247370	0.156289	0.286427
H605	H	0.730115	-0.135573	-0.829740
H606	H	1.230115	0.364427	-0.329740
H607	H	0.478121	-0.164309	-0.164485
H608	H	0.978121	0.335691	0.335515
H609	H	0.730117	-0.829189	-0.135814
H610	H	1.230117	-0.329189	0.364186
C611	C	0.128242	-0.305732	-0.305474
C612	C	0.628242	0.194268	0.194526
C613	C	0.121753	-0.356798	-0.301717
C614	C	0.621753	0.143202	0.198283
C615	C	0.147546	-0.388451	-0.333266
C616	C	0.647546	0.111549	0.166734
C617	C	0.179828	-0.369039	-0.368573
C618	C	0.679828	0.130961	0.131427
C619	C	0.186317	-0.317970	-0.372331
C620	C	0.686317	0.182030	0.127669
C621	C	0.160524	-0.286317	-0.340782
C622	C	0.660524	0.213683	0.159218
H623	H	0.097855	-0.371170	-0.275580
H624	H	0.597855	0.128830	0.224420
H625	H	0.142742	-0.426255	-0.330484
H626	H	0.642742	0.073745	0.169516
H627	H	0.198921	-0.392470	-0.391928
H628	H	0.698921	0.107530	0.108072
H629	H	0.210215	-0.303598	-0.398468
H630	H	0.710215	0.196402	0.101532
H631	H	0.165329	-0.248513	-0.343564
H632	H	0.665329	0.251487	0.156436
H633	H	0.568233	-0.297294	-0.603808
H634	H	1.068233	0.202706	-0.103808
C635	C	0.588857	-0.953274	-0.276861
C636	C	1.088857	-0.453274	0.223139
C637	C	0.537790	-0.959779	-0.273137
C638	C	1.037790	-0.459779	0.226863
C639	C	0.506151	-0.934002	-0.304709
C640	C	1.006151	-0.434002	0.195291
C641	C	0.525578	-0.901720	-0.340006
C642	C	1.025578	-0.401720	0.159994
C643	C	0.576647	-0.895213	-0.343731
C644	C	1.076647	-0.395213	0.156269
C645	C	0.608286	-0.920990	-0.312159
C646	C	1.108286	-0.420990	0.187841
H647	H	0.523407	-0.983678	-0.247007
H648	H	1.023407	-0.483678	0.252993
H649	H	0.468347	-0.938818	-0.301951
H650	H	0.968347	-0.438818	0.198049
H651	H	0.502157	-0.882638	-0.363377
H652	H	1.002157	-0.382638	0.136623
H653	H	0.591030	-0.871315	-0.369861
H654	H	1.091030	-0.371315	0.130139
H655	H	0.646091	-0.916174	-0.314918
H656	H	1.146091	-0.416174	0.185082
C657	C	0.560038	-0.695217	-0.305550
C658	C	1.060038	-0.195217	0.194450
C659	C	0.508968	-0.688807	-0.301834
C660	C	1.008968	-0.188807	0.198166
C661	C	0.477349	-0.714615	-0.333418
C662	C	0.977349	-0.214615	0.166582
C663	C	0.496800	-0.746833	-0.368717
C664	C	0.996800	-0.246833	0.131283
C665	C	0.547873	-0.753245	-0.372434
C666	C	1.047873	-0.253245	0.127566
C667	C	0.579492	-0.727437	-0.340850
C668	C	1.079492	-0.227437	0.159150
H669	H	0.494567	-0.664956	-0.275702
H670	H	0.994567	-0.164956	0.224298
H671	H	0.439541	-0.709869	-0.330666
H672	H	0.939541	-0.209869	0.169334
H673	H	0.473393	-0.765938	-0.392097
H674	H	0.973393	-0.265938	0.107903
H675	H	0.562274	-0.777096	-0.398566
H676	H	1.062274	-0.277096	0.101434
H677	H	0.617300	-0.732183	-0.343602
H678	H	1.117300	-0.232183	0.156398
H679	H	0.596925	-0.472692	-0.268615
H680	H	1.096925	0.027308	0.231385
H681	H	0.036420	-0.297513	-0.297286
H682	H	0.536420	0.202487	0.202714
H683	H	0.596895	-0.387570	-0.268600
H684	H	1.096895	0.112430	0.231400
H685	H	0.597061	-0.268497	-1.045512
H686	H	1.097061	0.231503	-0.545512
C687	C	0.709472	-0.479326	-0.156269
C688	C	1.209472	0.020674	0.343731
C689	C	0.705834	-0.472894	-0.105194
C690	C	1.205834	0.027106	0.394806
C691	C	0.737469	-0.498674	-0.073619
C692	C	1.237469	0.001326	0.426381
C693	C	0.772742	-0.530886	-0.093120
C694	C	1.272742	-0.030886	0.406880
C695	C	0.776381	-0.537319	-0.144198
C696	C	1.276381	-0.037319	0.355802
C697	C	0.744746	-0.511540	-0.175772
C698	C	1.244746	-0.011540	0.324228
H699	H	0.679721	-0.449048	-0.090756
H700	H	1.179721	0.050952	0.409244
H701	H	0.734774	-0.493912	-0.035808
H702	H	1.234774	0.006088	0.464192
H703	H	0.796160	-0.549970	-0.069747
H704	H	1.296160	-0.049970	0.430253
H705	H	0.802494	-0.561166	-0.158636
H706	H	1.302494	-0.061166	0.341364
H707	H	0.747441	-0.516302	-0.213583
H708	H	1.247441	-0.016302	0.286417
H709	H	0.730047	-0.603324	-0.135785
H710	H	1.230047	-0.103324	0.364215
C711	C	0.738292	-0.695129	-0.127593
C712	C	1.238292	-0.195129	0.372407
C713	C	0.734655	-0.688691	-0.076518
C714	C	1.234655	-0.188691	0.423482
C715	C	0.766291	-0.714468	-0.044942
C716	C	1.266291	-0.214468	0.455058
C717	C	0.801564	-0.746681	-0.064440
C718	C	1.301564	-0.246681	0.435560
C719	C	0.805202	-0.753120	-0.115517
C720	C	1.305202	-0.253120	0.384483
C721	C	0.773566	-0.727344	-0.147094
C722	C	1.273566	-0.227344	0.352906
H723	H	0.708543	-0.664844	-0.062082
H724	H	1.208543	-0.164844	0.437918
H725	H	0.763597	-0.709701	-0.007131
H726	H	1.263597	-0.209701	0.492869
H727	H	0.824982	-0.765762	-0.041066
H728	H	1.324982	-0.265762	0.458934
H729	H	0.831314	-0.776968	-0.129954
H730	H	1.331314	-0.276968	0.370046
H731	H	0.776259	-0.732110	-0.184904
H732	H	1.276259	-0.232110	0.315096
H733	H	0.121547	-0.135551	-0.135861
H734	H	0.621547	0.364449	0.364139
C735	C	0.709535	-0.156195	-0.381339
C736	C	1.209535	0.343805	0.118661
C737	C	0.705908	-0.105122	-0.387795
C738	C	1.205908	0.394878	0.112205
C739	C	0.737537	-0.073526	-0.362006
C740	C	1.237537	0.426474	0.137994
C741	C	0.772793	-0.093004	-0.329762
C742	C	1.272793	0.406996	0.170238
C743	C	0.776421	-0.144080	-0.323305
C744	C	1.276421	0.355920	0.176695
C745	C	0.744792	-0.175676	-0.349094
C746	C	1.244792	0.324324	0.150906
H747	H	0.679809	-0.090701	-0.411665
H748	H	1.179809	0.409299	0.088335
H749	H	0.734851	-0.035716	-0.366786
H750	H	1.234851	0.464284	0.133214
H751	H	0.796206	-0.069615	-0.310671
H752	H	1.296206	0.430385	0.189329
H753	H	0.802520	-0.158501	-0.299434
H754	H	1.302520	0.341499	0.200566
H755	H	0.747478	-0.213486	-0.344314
H756	H	1.247478	0.286514	0.155686
H757	H	0.701402	-0.959912	-0.164514
H758	H	1.201402	-0.459912	0.335486
C759	C	0.588885	-1.051790	-0.276865
C760	C	1.088885	-0.551790	0.223135
C761	C	0.557255	-1.025997	-0.308430
C762	C	1.057255	-0.525997	0.191570
C763	C	0.525634	-1.051813	-0.340006
C764	C	1.025634	-0.551813	0.159994
C765	C	0.525643	-1.103420	-0.340017
C766	C	1.025643	-0.603420	0.159983
C767	C	0.557273	-1.129216	-0.308449
C768	C	1.057273	-0.629216	0.191551
C769	C	0.588894	-1.103400	-0.276873
C770	C	1.088894	-0.603400	0.223127
H771	H	0.557248	-0.987792	-0.308424
H772	H	1.057248	-0.487792	0.191576
H773	H	0.502219	-1.032717	-0.363374
H774	H	1.002219	-0.532717	0.136626
H775	H	0.502235	-1.122530	-0.363391
H776	H	1.002235	-0.622530	0.136609
H777	H	0.557280	-1.167422	-0.308456
H778	H	1.057280	-0.667422	0.191544
H779	H	0.612309	-1.122496	-0.253505
H780	H	1.112309	-0.622496	0.246495
H781	H	0.597044	-0.268511	-0.960404
H782	H	1.097044	0.231489	-0.460404
H783	H	0.701427	-1.045034	-0.164527
H784	H	1.201427	-0.545034	0.335473
C785	C	0.560052	-0.305457	-0.836371
C786	C	1.060052	0.194543	-0.336371
C787	C	0.563665	-0.356531	-0.829915
C788	C	1.063665	0.143469	-0.329915
C789	C	0.532024	-0.388119	-0.855699
C790	C	1.032024	0.111881	-0.355699
C791	C	0.496769	-0.368632	-0.887938
C792	C	0.996769	0.131368	-0.387938
C793	C	0.493154	-0.317555	-0.894395
C794	C	0.993154	0.182445	-0.394395
C795	C	0.524795	-0.285968	-0.868612
C796	C	1.024795	0.214032	-0.368612
H797	H	0.589764	-0.370959	-0.806049
H798	H	1.089764	0.129041	-0.306049
H799	H	0.534700	-0.425929	-0.850919
H800	H	1.034700	0.074071	-0.350919
H801	H	0.473346	-0.392015	-0.907025
H802	H	0.973346	0.107985	-0.407025
H803	H	0.467054	-0.303127	-0.918262
H804	H	0.967054	0.196873	-0.418262
H805	H	0.522119	-0.248157	-0.873392
H806	H	1.022119	0.251843	-0.373392
H807	H	0.568265	-0.297274	-0.744566
H808	H	1.068265	0.202726	-0.244566
H809	H	0.568248	-0.297285	-0.688916
H810	H	1.068248	0.202715	-0.188916
H811	H	0.478110	-0.268721	-0.268545
H812	H	0.978110	0.231279	0.231455
H813	H	0.568292	-0.829266	-0.297349
H814	H	1.068292	-0.329266	0.202651
