data_functionalizedCrystal
_audit_creation_method	'MofGen! by Chris Wilmer'
_symmetry_space_group_name_H-M	'P1'
_symmetry_Int_Tables_number	1
_symmetry_cell_setting	triclinic
loop_
_symmetry_equiv_pos_as_xyz
  x,y,z
_cell_length_a	15.297475
_cell_length_b	13.897448
_cell_length_c	13.897441
_cell_angle_alpha	89.969401
_cell_angle_beta	80.312610
_cell_angle_gamma	80.320483
loop_
_atom_site_label
_atom_site_type_symbol
_atom_site_fract_x
_atom_site_fract_y
_atom_site_fract_z
Zn1	Zn	1.379309	-0.639579	-0.800193
Zn2	Zn	1.879309	-0.139579	-0.300193
Zn3	Zn	1.379210	-0.800882	-0.638876
Zn4	Zn	1.879210	-0.300882	-0.138876
Zn5	Zn	1.228433	-0.611663	-0.611038
Zn6	Zn	1.728433	-0.111663	-0.111038
Zn7	Zn	1.228416	-0.772872	-0.772271
Zn8	Zn	1.728416	-0.272872	-0.272271
O9	O	1.303842	-0.706249	-0.705594
O10	O	1.803842	-0.206249	-0.205594
O11	O	1.505546	-0.684382	-0.802129
O12	O	2.005546	-0.184382	-0.302129
O13	O	1.359175	-0.775821	-0.500195
O14	O	1.859175	-0.275821	-0.000195
O15	O	1.248495	-0.480394	-0.636165
O16	O	1.748495	0.019606	-0.136165
O17	O	1.505473	-0.802891	-0.683610
O18	O	2.005473	-0.302891	-0.183610
O19	O	1.359344	-0.500903	-0.775136
O20	O	1.859344	-0.000903	-0.275136
O21	O	1.248399	-0.636803	-0.479743
O22	O	1.748399	-0.136803	0.020257
O23	O	1.102180	-0.609643	-0.609091
O24	O	1.602180	-0.109643	-0.109091
O25	O	1.248466	-0.755151	-0.910963
O26	O	1.748466	-0.255151	-0.410963
O27	O	1.102168	-0.728082	-0.727547
O28	O	1.602168	-0.228082	-0.227547
O29	O	1.359327	-0.657221	-0.931477
O30	O	1.859327	-0.157221	-0.431477
O31	O	1.359158	-0.932139	-0.656535
O32	O	1.859158	-0.432139	-0.156535
O33	O	1.248370	-0.911561	-0.754540
O34	O	1.748370	-0.411561	-0.254540
C35	C	1.069439	-0.662794	-0.662269
C36	C	1.569439	-0.162794	-0.162269
C37	C	0.969160	-0.644227	-0.643757
C38	C	1.469160	-0.144227	-0.143757
C39	C	0.686565	-0.838957	-0.837904
C40	C	1.186565	-0.338957	-0.337904
C41	C	0.780782	-0.856409	-0.855294
C42	C	1.280782	-0.356409	-0.355294
C43	C	0.827881	-0.803365	-0.802411
C44	C	1.327881	-0.303365	-0.302411
C45	C	0.780754	-0.732866	-0.732135
C46	C	1.280754	-0.232866	-0.232135
C47	C	0.686529	-0.715418	-0.714738
C48	C	1.186529	-0.215418	-0.214738
C49	C	0.827844	-0.679826	-0.679246
C50	C	1.327844	-0.179826	-0.179246
C51	C	0.780718	-0.609328	-0.608970
C52	C	1.280718	-0.109328	-0.108970
C53	C	0.686501	-0.591882	-0.591577
C54	C	1.186501	-0.091882	-0.091577
C55	C	0.639402	-0.644926	-0.644459
C56	C	1.139402	-0.144926	-0.144459
C57	C	0.922070	-0.697274	-0.696643
C58	C	1.422070	-0.197274	-0.196643
C59	C	0.922033	-0.573735	-0.573478
C60	C	1.422033	-0.073735	-0.073478
C61	C	0.827817	-0.556284	-0.556088
C62	C	1.327817	-0.056284	-0.056088
C63	C	1.303776	-0.956851	-0.705554
C64	C	1.803776	-0.456851	-0.205554
C65	C	1.303830	-1.064075	-0.705585
C66	C	1.803830	-0.564075	-0.205585
C67	C	1.303925	-1.260388	-0.705663
C68	C	1.803925	-0.760388	-0.205663
C69	C	1.303870	-1.151145	-0.705622
C70	C	1.803870	-0.651145	-0.205622
C71	C	1.539160	-0.749875	-0.749089
C72	C	2.039160	-0.249875	-0.249089
C73	C	1.639439	-0.768465	-0.767624
C74	C	2.139439	-0.268465	-0.267624
C75	C	1.303906	-0.706176	-0.957199
C76	C	1.803906	-0.206176	-0.457199
C77	C	1.303933	-0.706145	-1.064418
C78	C	1.803933	-0.206145	-0.564418
C79	C	1.303932	-0.454673	-0.705660
C80	C	1.803932	0.045327	-0.205660
C81	C	1.303971	-0.347466	-0.705688
C82	C	1.803971	0.152534	-0.205688
C83	C	1.303958	-0.706084	-1.260718
C84	C	1.803958	-0.206084	-0.760718
C85	C	1.303941	-0.706120	-1.151482
C86	C	1.803941	-0.206120	-0.651482
C87	C	1.303830	-0.706262	-0.454978
C88	C	1.803830	-0.206262	0.045022
C89	C	1.303977	-0.706054	-0.347792
C90	C	1.803977	-0.206054	0.152208
H91	H	0.562683	-0.630719	-0.630305
H92	H	1.062683	-0.130719	-0.130305
H93	H	0.960381	-0.530544	-0.530415
H94	H	1.460381	-0.030544	-0.030415
N95	N	0.929500	-0.822186	-0.821162
N96	N	1.429500	-0.322186	-0.321162
H97	H	0.952208	-0.874894	-0.873706
H98	H	1.452208	-0.374894	-0.373706
H99	H	0.952144	-0.760199	-0.843165
H100	H	1.452144	-0.260199	-0.343165
H101	H	0.648133	-0.534488	-0.534343
H102	H	1.148133	-0.034488	-0.034343
H103	H	0.819146	-0.913811	-0.912510
H104	H	1.319146	-0.413811	-0.412510
H105	H	0.960432	-0.754674	-0.753863
H106	H	1.460432	-0.254674	-0.253863
N107	N	0.635760	-0.896165	-0.894922
N108	N	1.135760	-0.396165	-0.394922
H109	H	0.596691	-0.849787	-0.932476
H110	H	1.096691	-0.349787	-0.432476
H111	H	0.679961	-0.943470	-0.942031
H112	H	1.179961	-0.443470	-0.442031
N113	N	0.776984	-0.480267	-0.480274
N114	N	1.276984	0.019733	0.019726
H115	H	0.710150	-0.477272	-0.477276
H116	H	1.210150	0.022728	0.022724
H117	H	0.793426	-0.498256	-0.414399
H118	H	1.293426	0.001744	0.085601
