data_functionalizedCrystal
_audit_creation_method	'MofGen! by Chris Wilmer'
_symmetry_space_group_name_H-M	'P1'
_symmetry_Int_Tables_number	1
_symmetry_cell_setting	triclinic
loop_
_symmetry_equiv_pos_as_xyz
  x,y,z
_cell_length_a	12.594517
_cell_length_b	19.077068
_cell_length_c	12.594510
_cell_angle_alpha	87.741997
_cell_angle_beta	90.021120
_cell_angle_gamma	92.326860
loop_
_atom_site_label
_atom_site_type_symbol
_atom_site_fract_x
_atom_site_fract_y
_atom_site_fract_z
Zn1	Zn	1.610160	-0.280139	0.618826
Zn2	Zn	1.602864	-0.397861	0.447977
Zn3	Zn	1.432162	-0.280182	0.440858
Zn4	Zn	1.424962	-0.397800	0.625903
O5	O	1.517537	-0.338996	0.533391
O6	O	1.758138	-0.295763	0.596180
O7	O	1.580180	-0.382294	0.298090
O8	O	1.461841	-0.181686	0.458524
O9	O	1.752777	-0.382253	0.470658
O10	O	1.592615	-0.181655	0.589277
O11	O	1.454766	-0.295836	0.292859
O12	O	1.282262	-0.295776	0.465387
O13	O	1.449570	-0.382148	0.773908
O14	O	1.276972	-0.382190	0.601339
O15	O	1.585634	-0.295704	0.768708
O16	O	1.573198	-0.496344	0.477521
O17	O	1.442495	-0.496298	0.608243
C18	C	1.506303	-0.521858	0.544446
C19	C	1.501594	-0.600088	0.549210
C20	C	1.240997	-0.338982	0.533359
C21	C	1.122691	-0.338992	0.533371
C22	C	1.567485	-0.636840	0.483446
C23	C	1.563062	-0.710345	0.487933
C24	C	1.492742	-0.747096	0.558181
C25	C	1.426849	-0.710339	0.623953
C26	C	1.431277	-0.636835	0.619470
C27	C	1.472199	-0.966928	0.578886
C28	C	1.467773	-1.040437	0.583362
C29	C	1.603988	-1.040438	0.447343
C30	C	1.608406	-0.966934	0.442862
C31	C	1.542516	-0.930182	0.508638
N32	N	1.488217	-0.822230	0.562768
N33	N	1.547047	-0.855050	0.504056
C34	C	1.056288	-0.291928	0.459559
C35	C	0.981557	-0.356130	0.437267
C36	C	0.986621	-0.274822	0.555683
C37	C	1.049516	-0.403228	0.511031
C38	C	1.054589	-0.321877	0.629490
C39	C	0.979888	-0.386123	0.607238
C40	C	1.795157	-0.339010	0.533424
C41	C	1.913462	-0.339017	0.533438
C42	C	1.517613	-0.338914	0.811007
C43	C	1.517645	-0.338880	0.929311
C44	C	1.528845	-0.155419	0.522317
C45	C	1.533664	-0.077189	0.517598
C46	C	1.517527	-0.339026	0.256852
C47	C	1.517713	-0.338862	0.138537
C48	C	1.591671	-0.291859	0.995736
C49	C	1.495647	-0.274632	1.065483
C50	C	1.613729	-0.356058	1.070359
C51	C	1.421571	-0.321619	0.997498
C52	C	1.539716	-0.403076	1.002370
C53	C	1.443623	-0.385872	1.072087
H54	H	1.624742	-0.606922	0.426238
H55	H	0.958808	-0.220551	0.574491
H56	H	0.949514	-0.370622	0.356010
H57	H	1.418547	-0.937011	0.632442
H58	H	1.369597	-0.740267	0.681155
C59	C	1.652694	-0.170951	0.982304
C60	C	1.676039	-0.238153	0.950584
H61	H	1.704773	-0.137795	0.954421
H62	H	1.652875	-0.170282	1.057672
H63	H	1.584607	-0.159197	0.956313
H64	H	1.744124	-0.249909	0.976581
H65	H	1.675870	-0.238824	0.875199
H66	H	1.477002	-0.220335	1.093335
C67	C	1.312862	-0.302062	0.843357
C68	C	1.311889	-0.301904	0.954521
H69	H	1.245152	-0.289885	0.816826
H70	H	1.328632	-0.347524	0.821255
H71	H	1.365451	-0.268874	0.816601
H72	H	1.259304	-0.335095	0.981278
H73	H	1.296106	-0.256435	0.976633
C74	C	1.198017	-0.475837	0.485608
C75	C	1.086801	-0.476523	0.485457
H76	H	1.221034	-0.521084	0.469812
H77	H	1.223636	-0.463599	0.553637
H78	H	1.224804	-0.442370	0.433463
H79	H	1.060014	-0.509987	0.537608
H80	H	1.061171	-0.488770	0.417418
H81	H	1.380981	-0.425629	1.105324
H82	H	1.377623	-0.606912	0.673024
C83	C	1.164344	-0.241792	0.728104
C84	C	1.097895	-0.302288	0.739145
H85	H	1.191086	-0.229696	0.795800
H86	H	1.125127	-0.204231	0.698708
H87	H	1.221896	-0.250426	0.682327
H88	H	1.040339	-0.293652	0.784916
H89	H	1.137114	-0.339857	0.768557
H90	H	1.558391	-0.457357	0.974497
C91	C	0.966776	-0.507059	0.667956
C92	C	0.934973	-0.439925	0.691543
H93	H	0.939039	-0.540274	0.719997
H94	H	1.042153	-0.507606	0.667996
H95	H	0.940686	-0.518830	0.599883
H96	H	0.961070	-0.428151	0.759613
H97	H	0.859581	-0.439375	0.691515
C98	C	1.800729	-0.326383	1.074856
C99	C	1.723381	-0.375689	1.113515
H100	H	1.868425	-0.338502	1.101492
H101	H	1.784566	-0.281102	1.097434
H102	H	1.801663	-0.326115	0.999422
H103	H	1.722442	-0.375953	1.188950
H104	H	1.739549	-0.420982	1.090944
H105	H	1.616716	-0.740266	0.434380
C106	C	1.654571	-1.063153	0.268546
C107	C	1.676417	-1.080841	0.375057
H108	H	1.699287	-1.088100	0.223922
H109	H	1.667278	-1.014124	0.255827
H110	H	1.582335	-1.075251	0.253650
H111	H	1.748652	-1.068738	0.389955
H112	H	1.663719	-1.129880	0.387781
H113	H	1.410523	-1.070358	0.640585
C114	C	1.628253	-0.884356	0.294659
C115	C	1.685708	-0.926544	0.365641
H116	H	1.675976	-0.859426	0.246980
H117	H	1.589658	-0.851947	0.333183
H118	H	1.580172	-0.913088	0.255663
H119	H	1.733784	-0.897811	0.404644
H120	H	1.724321	-0.958956	0.327114
H121	H	1.089737	-0.252166	0.397066
