data_functionalizedCrystal
_audit_creation_method	'MofGen! by Chris Wilmer'
_symmetry_space_group_name_H-M	'P1'
_symmetry_Int_Tables_number	1
_symmetry_cell_setting	triclinic
loop_
_symmetry_equiv_pos_as_xyz
  x,y,z
_cell_length_a	11.792241
_cell_length_b	11.792241
_cell_length_c	8.140239
_cell_angle_alpha	90.003307
_cell_angle_beta	89.997269
_cell_angle_gamma	84.193416
loop_
_atom_site_label
_atom_site_type_symbol
_atom_site_fract_x
_atom_site_fract_y
_atom_site_fract_z
O1	O	1.506904	0.155566	0.136455
O2	O	2.006904	0.655566	0.636455
O3	O	1.176563	0.171599	0.136493
O4	O	1.676563	0.671599	0.636493
O5	O	1.349750	-0.001588	0.136461
O6	O	1.849750	0.498412	0.636461
O7	O	1.333717	0.328753	0.136486
O8	O	1.833717	0.828753	0.636486
O9	O	1.349744	-0.001590	-0.136766
O10	O	1.849744	0.498410	0.363234
O11	O	1.176557	0.171597	-0.136734
O12	O	1.676557	0.671597	0.363266
O13	O	1.506898	0.155564	-0.136773
O14	O	2.006898	0.655564	0.363227
Zn15	Zn	1.341727	0.163581	-0.180134
Zn16	Zn	1.841727	0.663581	0.319866
Zn17	Zn	1.341734	0.163582	0.179854
Zn18	Zn	1.841734	0.663582	0.679854
O19	O	1.333711	0.328751	-0.136741
O20	O	1.833711	0.828751	0.363259
C21	C	1.134269	0.170591	-0.000116
C22	C	1.634269	0.670591	0.499884
C23	C	1.008255	0.167576	-0.000101
C24	C	1.508255	0.667576	0.499899
C25	C	1.348740	-0.043880	-0.000152
C26	C	1.848740	0.456120	0.499848
C27	C	1.345726	-0.169894	-0.000150
C28	C	1.845726	0.330106	0.499850
C29	C	1.340183	-0.400606	-0.000122
C30	C	1.840183	0.099394	0.499878
C31	C	1.343262	-0.272221	-0.000137
C32	C	1.843262	0.227779	0.499863
C33	C	0.777543	0.162034	-0.000149
C34	C	1.277543	0.662034	0.499851
C35	C	0.905928	0.165113	-0.000123
C36	C	1.405928	0.665113	0.499877
C37	C	1.549192	0.156572	-0.000160
C38	C	2.049192	0.656572	0.499840
C39	C	1.675206	0.159587	-0.000164
C40	C	2.175206	0.659587	0.499836
C41	C	1.334721	0.371043	-0.000124
C42	C	1.834721	0.871043	0.499876
C43	C	1.337736	0.497057	-0.000116
C44	C	1.837736	0.997057	0.499884
N45	N	1.341730	0.163579	-0.425817
N46	N	1.841730	0.663579	0.074183
N47	N	1.341740	0.163575	0.425537
N48	N	1.841740	0.663575	0.925537
