data_functionalizedCrystal
_audit_creation_method	'MofGen! by Chris Wilmer'
_symmetry_space_group_name_H-M	'P1'
_symmetry_Int_Tables_number	1
_symmetry_cell_setting	triclinic
loop_
_symmetry_equiv_pos_as_xyz
  x,y,z
_cell_length_a	10.723023
_cell_length_b	10.723024
_cell_length_c	9.798715
_cell_angle_alpha	90.001967
_cell_angle_beta	90.003303
_cell_angle_gamma	84.467709
loop_
_atom_site_label
_atom_site_type_symbol
_atom_site_fract_x
_atom_site_fract_y
_atom_site_fract_z
O1	O	1.657187	0.175020	0.113483
O2	O	2.157187	0.675020	0.613483
O3	O	1.294035	0.191774	0.113487
O4	O	1.794035	0.691774	0.613487
O5	O	1.483988	0.001821	0.113480
O6	O	1.983988	0.501821	0.613480
O7	O	1.467235	0.364973	0.113490
O8	O	1.967235	0.864973	0.613490
O9	O	1.483975	0.001820	-0.113502
O10	O	1.983975	0.501820	0.386498
O11	O	1.294022	0.191774	-0.113495
O12	O	1.794022	0.691774	0.386505
O13	O	1.657174	0.175019	-0.113499
O14	O	2.157174	0.675019	0.386501
Zn15	Zn	1.475596	0.183396	-0.149535
Zn16	Zn	1.975596	0.683396	0.350465
Zn17	Zn	1.475613	0.183397	0.149523
Zn18	Zn	1.975613	0.683397	0.649523
O19	O	1.467221	0.364973	-0.113492
O20	O	1.967221	0.864973	0.386508
C21	C	1.247529	0.190555	-0.000004
C22	C	1.747529	0.690555	0.499996
C23	C	1.108974	0.186908	-0.000003
C24	C	1.608974	0.686908	0.499997
C25	C	0.903999	0.181512	-0.117581
C26	C	1.403999	0.681512	0.382419
C27	C	1.047203	0.185281	-0.117585
C28	C	1.547203	0.685281	0.382415
C29	C	1.482762	-0.044679	-0.000009
C30	C	1.982762	0.455321	0.499991
C31	C	1.479114	-0.183233	-0.000005
C32	C	1.979114	0.316767	0.499995
C33	C	1.585402	-0.258216	-0.000004
C34	C	2.085402	0.241784	0.499996
C35	C	1.581634	-0.401420	0.000001
C36	C	2.081634	0.098580	0.500001
C37	C	1.703680	0.176239	-0.000005
C38	C	2.203680	0.676239	0.499995
C39	C	1.842235	0.179886	0.000003
C40	C	2.342235	0.679886	0.500003
C41	C	1.468447	0.411473	0.000001
C42	C	1.968447	0.911473	0.500001
C43	C	1.472095	0.550027	0.000005
C44	C	1.972095	1.050027	0.500005
N45	N	1.475593	0.183395	-0.353635
N46	N	1.975593	0.683395	0.146365
C47	C	1.402844	0.111032	-0.421446
C48	C	1.902844	0.611032	0.078554
C49	C	1.402861	0.111027	-0.578608
C50	C	1.902861	0.611027	-0.078608
N51	N	1.475626	0.183388	0.353623
N52	N	1.975626	0.683388	0.853623
H53	H	0.895372	0.181292	0.100668
H54	H	1.395372	0.681292	0.600668
O55	O	1.351549	-0.364649	-0.000005
O56	O	1.851549	0.135351	0.499995
H57	H	1.347749	-0.304673	0.092510
H58	H	1.847749	0.195327	0.592510
H59	H	1.385328	-0.225055	0.000005
H60	H	1.885328	0.274945	0.500005
O61	O	1.709643	-0.202839	-0.000006
O62	O	2.209643	0.297161	0.499994
H63	H	1.693106	-0.099051	-0.000018
H64	H	2.193106	0.400949	0.499982
O65	O	1.038652	0.185047	0.133368
O66	O	1.538652	0.685047	0.633368
H67	H	0.968944	0.268395	0.139228
H68	H	1.468944	0.768395	0.639228
H69	H	1.340543	0.049086	-0.363149
H70	H	1.840543	0.549086	0.136851
H71	H	1.537882	0.245352	-0.411932
H72	H	2.037882	0.745352	0.088068
H73	H	1.340581	0.049071	-0.636924
H74	H	1.840581	0.549071	-0.136924
O75	O	1.558127	0.265466	-0.569147
O76	O	2.058127	0.765466	-0.069147
H77	H	1.657612	0.238973	-0.596464
H78	H	2.157612	0.738973	-0.096464
O79	O	0.833535	0.180454	-0.250933
O80	O	1.333535	0.680454	0.249067
H81	H	0.732066	0.178067	-0.230002
H82	H	1.232066	0.678067	0.269998
H83	H	1.672625	-0.465852	-0.000004
H84	H	2.172625	0.034148	0.499996
O85	O	1.117543	0.187140	-0.250944
O86	O	1.617543	0.687140	0.249056
H87	H	1.218980	0.189821	-0.230020
H88	H	1.718980	0.689821	0.269980
