data_functionalizedCrystal
_audit_creation_method	'MofGen! by Chris Wilmer'
_symmetry_space_group_name_H-M	'P1'
_symmetry_Int_Tables_number	1
_symmetry_cell_setting	triclinic
loop_
_symmetry_equiv_pos_as_xyz
  x,y,z
_cell_length_a	11.026607
_cell_length_b	10.654545
_cell_length_c	9.482900
_cell_angle_alpha	99.427550
_cell_angle_beta	78.636152
_cell_angle_gamma	96.535722
loop_
_atom_site_label
_atom_site_type_symbol
_atom_site_fract_x
_atom_site_fract_y
_atom_site_fract_z
O1	O	1.633382	0.511465	-0.120881
O2	O	1.279571	0.451469	-0.120884
O3	O	1.464610	0.300493	-0.120881
O4	O	1.448342	0.662440	-0.120884
O5	O	1.427026	0.331317	0.120910
O6	O	1.241987	0.482293	0.120908
O7	O	1.595797	0.542289	0.120911
Cu8	Cu	1.415460	0.515105	0.142987
Cu9	Cu	1.459908	0.478652	-0.142960
O10	O	1.410758	0.693264	0.120908
C11	C	1.215475	0.455813	0.000011
C12	C	1.080483	0.422818	0.000009
C13	C	1.007445	0.513921	0.000008
C14	C	0.867924	0.479822	0.000006
C15	C	1.444624	0.268848	0.000012
C16	C	1.441050	0.128627	0.000003
C17	C	1.482040	0.095017	-0.263606
C18	C	1.500861	0.012338	-0.395410
C19	C	1.497503	-0.119410	-0.395411
C20	C	1.475318	-0.168481	-0.263595
C21	C	1.456498	-0.085802	-0.131791
C22	C	1.459862	0.045948	-0.131804
C23	C	1.415500	-0.052193	0.131815
C24	C	1.418866	0.079557	0.131820
C25	C	1.393315	-0.101264	0.263631
C26	C	1.374504	-0.018584	0.395438
C27	C	1.377864	0.113172	0.395434
C28	C	1.400046	0.162235	0.263623
C29	C	1.659894	0.537945	0.000013
C30	C	1.794887	0.570938	0.000005
C31	C	1.430745	0.724910	0.000012
C32	C	1.434320	0.865129	0.000011
N33	N	1.384207	0.540746	0.344107
N34	N	1.491171	0.453004	-0.344080
C35	C	1.450681	0.486207	0.416307
C36	C	1.424687	0.507551	0.583724
H37	H	0.835639	0.674188	0.000014
H38	H	1.567327	0.390500	0.593797
C39	C	0.812870	0.340337	0.000007
N40	N	0.771401	0.235278	0.000005
H41	H	1.526833	0.423705	0.354180
C42	C	1.321792	0.591980	0.667646
N43	N	1.244294	0.655571	0.730859
C44	C	1.281317	0.625170	0.428035
N45	N	1.203819	0.688761	0.491248
H46	H	1.390576	-0.208542	0.263620
H47	H	1.039728	0.319572	-0.000027
C48	C	1.525273	0.066327	-0.540401
N49	N	1.543663	0.106989	-0.649608
C50	C	1.062504	0.653400	0.000013
N51	N	1.103972	0.758458	0.000016
C52	C	1.485771	0.239945	-0.263616
N53	N	1.488588	0.349107	-0.263627
H54	H	1.512816	-0.186729	-0.502737
C55	C	1.471594	-0.313411	-0.263605
N56	N	1.468782	-0.422575	-0.263611
H57	H	1.356434	-0.058550	0.502752
H58	H	1.402790	0.269510	0.263608
H59	H	1.362519	0.180481	0.502765
