data_functionalizedCrystal
_audit_creation_method	'MofGen! by Chris Wilmer'
_symmetry_space_group_name_H-M	'P1'
_symmetry_Int_Tables_number	1
_symmetry_cell_setting	triclinic
loop_
_symmetry_equiv_pos_as_xyz
  x,y,z
_cell_length_a	15.995355
_cell_length_b	26.210047
_cell_length_c	15.995292
_cell_angle_alpha	89.992307
_cell_angle_beta	96.518589
_cell_angle_gamma	89.995137
loop_
_atom_site_label
_atom_site_type_symbol
_atom_site_fract_x
_atom_site_fract_y
_atom_site_fract_z
O1	O	-1.110968	0.042376	0.107935
O2	O	-0.610968	0.542376	0.607935
O3	O	-0.867190	0.042387	0.121259
O4	O	-0.367190	0.542387	0.621259
O5	O	-0.995768	0.042382	-0.007293
O6	O	-0.495768	0.542382	0.492707
O7	O	-0.982390	0.042381	0.236488
O8	O	-0.482390	0.542381	0.736488
O9	O	-0.995743	-0.042476	-0.007273
O10	O	-0.495743	0.457524	0.492727
O11	O	-0.867165	-0.042471	0.121279
O12	O	-0.367165	0.457529	0.621279
O13	O	-1.110943	-0.042482	0.107955
O14	O	-0.610943	0.457518	0.607955
Cu15	Cu	-0.989052	-0.050225	0.114619
Cu16	Cu	-0.489052	0.449775	0.614619
Cu17	Cu	-0.989081	0.050130	0.114596
Cu18	Cu	-0.489081	0.550130	0.614596
O19	O	-0.982365	-0.042477	0.236508
O20	O	-0.482365	0.457523	0.736508
C21	C	-0.835983	-0.000040	0.120718
C22	C	-0.335983	0.499960	0.620718
C23	C	-0.743033	-0.000036	0.119065
C24	C	-0.243033	0.499964	0.619065
C25	C	-0.572848	-0.000043	0.116063
C26	C	-0.072848	0.499957	0.616063
C27	C	-0.549522	-0.000042	0.023263
C28	C	-0.049522	0.499958	0.523263
C29	C	-0.452845	-0.000238	0.021513
C30	C	0.047155	0.499762	0.521513
C31	C	-0.405290	-0.000049	0.113107
C32	C	0.094710	0.499951	0.613107
C33	C	-0.434358	-0.048411	0.159781
C34	C	0.065642	0.451589	0.659781
C35	C	-0.531149	-0.048449	0.160886
C36	C	-0.031149	0.451551	0.660886
C37	C	-0.531088	0.048054	0.162222
C38	C	-0.031088	0.548054	0.662222
C39	C	-0.434594	0.048687	0.158792
C40	C	0.065406	0.548687	0.658792
C41	C	-0.310593	-0.000055	0.111442
C42	C	0.189407	0.499945	0.611442
C43	C	-0.667545	-0.000041	0.117732
C44	C	-0.167545	0.499959	0.617732
N45	N	-0.989037	-0.120809	0.114635
N46	N	-0.489037	0.379191	0.614635
C47	C	-1.046010	-0.473325	0.057685
C48	C	-0.546010	0.026675	0.557685
C49	C	-1.046028	-0.686984	0.057674
C50	C	-0.546028	-0.186984	0.557674
O51	O	-1.094436	-0.714607	0.009256
O52	O	-0.594436	-0.214607	0.509256
N53	N	-0.989085	-0.713703	0.114577
N54	N	-0.489085	-0.213703	0.614577
C55	C	-0.932131	-0.687004	0.171484
C56	C	-0.432131	-0.187004	0.671484
O57	O	-0.883692	-0.714632	0.219878
O58	O	-0.383692	-0.214632	0.719878
C59	C	-0.932109	-0.473346	0.171491
C60	C	-0.432109	0.026654	0.671491
C61	C	-0.989061	-0.446630	0.114589
C62	C	-0.489061	0.053370	0.614589
C63	C	-1.102956	-0.446609	0.000788
C64	C	-0.602956	0.053391	0.500788
C65	C	-1.102954	-0.393197	0.000794
C66	C	-0.602954	0.106803	0.500794
C67	C	-1.046005	-0.366502	0.057698
C68	C	-0.546005	0.133498	0.557698
C69	C	-0.989059	-0.393218	0.114596
C70	C	-0.489059	0.106782	0.614596
C71	C	-0.875151	-0.446648	0.228393
C72	C	-0.375151	0.053352	0.728393
C73	C	-0.875149	-0.393230	0.228388
C74	C	-0.375149	0.106770	0.728388
C75	C	-0.932101	-0.366514	0.171487
C76	C	-0.432101	0.133486	0.671487
C77	C	-0.932108	-0.313112	0.171507
C78	C	-0.432108	0.186888	0.671507
N79	N	-0.989050	-0.286393	0.114603
N80	N	-0.489050	0.213607	0.614603
C81	C	-1.045999	-0.313088	0.057699
C82	C	-0.545999	0.186912	0.557699
C83	C	-0.932147	-0.799177	0.171477
C84	C	-0.432147	-0.299177	0.671477
C85	C	-0.932153	-0.852591	0.171477
C86	C	-0.432153	-0.352591	0.671477
C87	C	-1.046050	-0.852567	0.057665
C88	C	-0.546050	-0.352567	0.557665
C89	C	-1.046047	-0.799152	0.057670
C90	C	-0.546047	-0.299152	0.557670
C91	C	-0.989090	-0.772458	0.114574
C92	C	-0.489090	-0.272458	0.614574
C93	C	-1.045991	-0.200920	0.057717
C94	C	-0.545991	0.299080	0.557717
C95	C	-1.045986	-0.147504	0.057731
C96	C	-0.545986	0.352496	0.557731
C97	C	-0.932087	-0.147532	0.171540
C98	C	-0.432087	0.352468	0.671540
C99	C	-0.932094	-0.200944	0.171529
C100	C	-0.432094	0.299056	0.671529
C101	C	-0.989049	-0.227636	0.114611
C102	C	-0.489049	0.272364	0.614611
O103	O	-0.883719	-0.285455	0.219892
O104	O	-0.383719	0.214545	0.719892
O105	O	-1.094418	-0.285450	0.009300
O106	O	-0.594418	0.214550	0.509300
C107	C	-1.046012	-0.526736	0.057679
C108	C	-0.546012	-0.026736	0.557679
C109	C	-0.989065	-0.553453	0.114576
C110	C	-0.489065	-0.053453	0.614576
C111	C	-0.932116	-0.526757	0.171480
C112	C	-0.432116	-0.026757	0.671480
C113	C	-0.989071	-0.606867	0.114576
C114	C	-0.489071	-0.106867	0.614576
C115	C	-1.046020	-0.633562	0.057672
C116	C	-0.546020	-0.133562	0.557672
C117	C	-1.102963	-0.606843	0.000768
C118	C	-0.602963	-0.106843	0.500768
C119	C	-1.102960	-0.553432	0.000775
C120	C	-0.602960	-0.053432	0.500775
C121	C	-0.875174	-0.553476	0.228384
C122	C	-0.375174	-0.053476	0.728384
C123	C	-0.875181	-0.606888	0.228373
C124	C	-0.375181	-0.106888	0.728373
C125	C	-0.932130	-0.633583	0.171469
C126	C	-0.432130	-0.133583	0.671469
C127	C	-0.142151	-0.000054	0.108486
C128	C	0.357849	0.499946	0.608486
C129	C	-0.235105	-0.000056	0.110106
C130	C	0.264895	0.499944	0.610106
C131	C	-0.995211	-0.000046	-0.038479
C132	C	-0.495211	0.499954	0.461521
C133	C	-0.993579	-0.000042	-0.131432
C134	C	-0.493579	0.499958	0.368568
N135	N	-0.989102	0.120714	0.114573
N136	N	-0.489102	0.620714	0.614573
C137	C	-0.987577	-0.000046	-0.469171
C138	C	-0.487577	0.499954	0.030829
C139	C	-1.080382	-0.000240	-0.445857
C140	C	-0.580382	0.499760	0.054143
C141	C	-1.082145	-0.000047	-0.349181
C142	C	-0.582145	0.499953	0.150819
C143	C	-0.990555	-0.000044	-0.301615
C144	C	-0.490555	0.499956	0.198385
C145	C	-0.944172	0.048414	-0.330728
C146	C	-0.444172	0.548414	0.169272
C147	C	-0.943055	0.048453	-0.427518
C148	C	-0.443055	0.548453	0.072482
C149	C	-0.941131	-0.048046	-0.427353
C150	C	-0.441131	0.451954	0.072647
C151	C	-0.944570	-0.048685	-0.330860
C152	C	-0.444570	0.451315	0.169140
C153	C	-0.992233	-0.000041	-0.206918
C154	C	-0.492233	0.499959	0.293082
C155	C	-0.985897	-0.000045	-0.563866
C156	C	-0.485897	0.499955	-0.063866
C157	C	-0.982922	-0.000048	0.267694
C158	C	-0.482922	0.499952	0.767694
C159	C	-0.984554	-0.000049	0.360647
C160	C	-0.484554	0.499951	0.860647
H161	H	-0.578504	-0.034671	-0.012112
H162	H	-0.078504	0.465329	0.487888
H163	H	-1.118707	0.034747	-0.330784
H164	H	-0.618707	0.534747	0.169216
H165	H	-0.885764	-0.777446	0.217817
H166	H	-0.385764	-0.277446	0.717817
H167	H	-1.149327	-0.371448	-0.045542
H168	H	-0.649327	0.128552	0.454458
H169	H	-0.416054	0.084466	0.124802
H170	H	0.083946	0.584466	0.624802
F171	F	-0.857187	-0.052508	-0.287769
F172	F	-0.357187	0.447492	0.212231
F173	F	-1.106606	-0.119073	-0.002832
F174	F	-0.606606	0.380927	0.497168
F175	F	-1.106662	-0.770724	-0.002892
F176	F	-0.606662	-0.270724	0.497108
H177	H	-0.401624	0.051757	0.225624
H178	H	0.098376	0.551757	0.725624
H179	H	-0.828775	-0.468393	0.274727
H180	H	-0.328775	0.031607	0.774727
F181	F	-0.549355	0.048653	0.251513
F182	F	-0.049355	0.548653	0.751513
H183	H	-0.414262	-0.084538	0.127773
H184	H	0.085738	0.415462	0.627773
H185	H	-1.092368	-0.222647	0.011368
H186	H	-0.592368	0.277353	0.511368
H187	H	-0.402497	-0.050074	0.227193
H188	H	0.097503	0.449926	0.727193
H189	H	-0.434406	-0.035108	-0.014835
H190	H	0.065594	0.464892	0.485165
H191	H	-1.149331	-0.468339	-0.045554
H192	H	-0.649331	0.031661	0.454446
F193	F	-0.428006	0.045066	-0.026240
F194	F	0.071994	0.545066	0.473760
H195	H	-1.115964	0.034314	-0.474882
H196	H	-0.615964	0.534314	0.025118
F197	F	-0.586152	0.045281	-0.023765
F198	F	-0.086152	0.545281	0.476235
F199	F	-0.986299	0.095549	-0.304522
F200	F	-0.486299	0.595549	0.195478
F201	F	-1.106659	-0.880988	-0.002896
F202	F	-0.606659	-0.380988	0.497104
H203	H	-0.885787	-0.874340	0.217820
H204	H	-0.385787	-0.374340	0.717820
H205	H	-0.872820	-0.048371	-0.441344
H206	H	-0.372820	0.451629	0.058656
F207	F	-0.814523	-0.364824	0.288953
F208	F	-0.314523	0.135176	0.788953
H209	H	-0.975198	0.084675	-0.454343
H210	H	-0.475198	0.584675	0.045657
H211	H	-0.557931	-0.084737	0.128959
H212	H	-0.057931	0.415263	0.628959
F213	F	-0.550182	-0.051147	0.249835
F214	F	-0.050182	0.448853	0.749835
H215	H	-0.970346	-0.084777	-0.455432
H216	H	-0.470346	0.415223	0.044568
H217	H	-0.559374	0.084723	0.132936
H218	H	-0.059374	0.584723	0.632936
F219	F	-0.854119	0.051333	-0.446542
F220	F	-0.354119	0.551333	0.053458
H221	H	-1.149336	-0.531683	-0.045560
H222	H	-0.649336	-0.031683	0.454440
F223	F	-0.871488	-0.229376	0.232100
F224	F	-0.371488	0.270624	0.732100
F225	F	-0.871482	-0.119113	0.232100
F226	F	-0.371482	0.380887	0.732100
F227	F	-1.163575	-0.635263	-0.059791
F228	F	-0.663575	-0.135263	0.440209
F229	F	-0.856079	0.050775	-0.289074
F230	F	-0.356079	0.550775	0.210926
F231	F	-0.814565	-0.635316	0.288944
F232	F	-0.314565	-0.135316	0.788944
H233	H	-0.828798	-0.531745	0.274721
H234	H	-0.328798	-0.031745	0.774721
F235	F	-1.129611	-0.045457	-0.324298
F236	F	-0.629611	0.454543	0.175702
H237	H	-1.116142	-0.034992	-0.473845
H238	H	-0.616142	0.465008	0.026155
H239	H	-0.978344	-0.084534	-0.312286
H240	H	-0.478344	0.415466	0.187714
