data_functionalizedCrystal
_audit_creation_method	'MofGen! by Chris Wilmer'
_symmetry_space_group_name_H-M	'P1'
_symmetry_Int_Tables_number	1
_symmetry_cell_setting	triclinic
loop_
_symmetry_equiv_pos_as_xyz
  x,y,z
_cell_length_a	14.044191
_cell_length_b	14.044190
_cell_length_c	12.503572
_cell_angle_alpha	93.839403
_cell_angle_beta	86.162165
_cell_angle_gamma	93.191777
loop_
_atom_site_label
_atom_site_type_symbol
_atom_site_fract_x
_atom_site_fract_y
_atom_site_fract_z
O1	O	1.282215	0.225145	-0.089290
O2	O	1.532215	0.475145	0.160710
O3	O	1.782215	0.725145	0.410710
O4	O	2.032215	0.975145	0.660710
O5	O	1.005543	0.216832	-0.089303
O6	O	1.255543	0.466832	0.160697
O7	O	1.505543	0.716832	0.410697
O8	O	1.755543	0.966832	0.660697
O9	O	1.139721	0.082653	-0.089276
O10	O	1.389721	0.332653	0.160724
O11	O	1.639721	0.582653	0.410724
O12	O	1.889721	0.832653	0.660724
O13	O	1.148036	0.359323	-0.089318
O14	O	1.398036	0.609323	0.160682
O15	O	1.648036	0.859323	0.410682
O16	O	1.898036	1.109323	0.660682
O17	O	1.129632	0.092762	0.089364
O18	O	1.379632	0.342762	0.339364
O19	O	1.629632	0.592762	0.589364
O20	O	1.879632	0.842762	0.839364
O21	O	0.995453	0.226941	0.089337
O22	O	1.245453	0.476941	0.339337
O23	O	1.495453	0.726941	0.589337
O24	O	1.745453	0.976941	0.839337
O25	O	1.272125	0.235254	0.089350
O26	O	1.522125	0.485254	0.339350
O27	O	1.772125	0.735254	0.589350
O28	O	2.022125	0.985254	0.839350
Cu29	Cu	1.132868	0.232021	0.105654
Cu30	Cu	1.382868	0.482021	0.355654
Cu31	Cu	1.632868	0.732021	0.605654
Cu32	Cu	1.882868	0.982021	0.855654
Cu33	Cu	1.144800	0.220065	-0.105608
Cu34	Cu	1.394800	0.470065	0.144392
Cu35	Cu	1.644800	0.720065	0.394392
Cu36	Cu	1.894800	0.970065	0.644392
O37	O	1.137947	0.369433	0.089322
O38	O	1.387947	0.619433	0.339322
O39	O	1.637947	0.869433	0.589322
O40	O	1.887947	1.119433	0.839322
C41	C	0.964876	0.218249	0.000016
C42	C	1.214876	0.468249	0.250016
C43	C	1.464876	0.718249	0.500016
C44	C	1.714876	0.968249	0.750016
C45	C	0.858733	0.207402	0.000012
C46	C	1.108733	0.457402	0.250012
C47	C	1.358733	0.707402	0.500012
C48	C	1.608733	0.957402	0.750012
C49	C	0.613276	0.264503	0.000014
C50	C	0.863276	0.514503	0.250014
C51	C	1.113276	0.764503	0.500014
C52	C	1.363276	1.014503	0.750014
C53	C	0.664399	0.187587	0.000023
C54	C	0.914399	0.437587	0.250023
C55	C	1.164399	0.687587	0.500023
C56	C	1.414399	0.937587	0.750023
C57	C	0.772536	0.198615	0.000017
C58	C	1.022536	0.448615	0.250017
C59	C	1.272536	0.698615	0.500017
C60	C	1.522536	0.948615	0.750017
C61	C	0.505129	0.253476	0.000020
C62	C	0.755129	0.503476	0.250020
C63	C	1.005129	0.753476	0.500020
C64	C	1.255129	1.003476	0.750020
C65	C	1.131040	0.052086	0.000047
C66	C	1.381040	0.302086	0.250047
C67	C	1.631040	0.552086	0.500047
C68	C	1.881040	0.802086	0.750047
C69	C	1.120192	-0.054057	0.000056
C70	C	1.370192	0.195943	0.250056
C71	C	1.620192	0.445943	0.500056
C72	C	1.870192	0.695943	0.750056
C73	C	1.177295	-0.299516	0.000017
C74	C	1.427295	-0.049516	0.250017
C75	C	1.677295	0.200484	0.500017
C76	C	1.927295	0.450484	0.750017
C77	C	1.100378	-0.248393	0.000021
C78	C	1.350378	0.001607	0.250021
C79	C	1.600378	0.251607	0.500021
C80	C	1.850378	0.501607	0.750021
C81	C	1.111405	-0.140254	0.000040
C82	C	1.361405	0.109746	0.250040
C83	C	1.611405	0.359746	0.500040
C84	C	1.861405	0.609746	0.750040
C85	C	1.166269	-0.407664	-0.000003
C86	C	1.416269	-0.157664	0.249997
C87	C	1.666269	0.092336	0.499997
C88	C	1.916269	0.342336	0.749997
C89	C	1.312792	0.233836	0.000029
C90	C	1.562792	0.483836	0.250029
C91	C	1.812792	0.733836	0.500029
C92	C	2.062792	0.983836	0.750029
C93	C	1.418936	0.244683	0.000026
C94	C	1.668936	0.494683	0.250026
C95	C	1.918936	0.744683	0.500026
C96	C	2.168936	0.994683	0.750026
C97	C	1.146629	0.400000	-0.000003
C98	C	1.396629	0.650000	0.249997
C99	C	1.646629	0.900000	0.499997
C100	C	1.896629	1.150000	0.749997
C101	C	1.157477	0.506142	-0.000019
C102	C	1.407477	0.756142	0.249981
C103	C	1.657477	1.006142	0.499981
C104	C	1.907477	1.256142	0.749981
N105	N	1.124483	0.240429	0.254245
N106	N	1.374483	0.490429	0.504245
N107	N	1.624483	0.740429	0.754245
N108	N	1.874483	0.990429	1.004245
N109	N	1.153192	0.211649	-0.254198
N110	N	1.403192	0.461649	-0.004198
N111	N	1.653192	0.711649	0.245802
N112	N	1.903192	0.961649	0.495802
C113	C	1.112148	0.252807	0.473358
C114	C	1.362148	0.502807	0.723358
C115	C	1.612148	0.752807	0.973358
C116	C	1.862148	1.002807	1.223358
C117	C	1.165524	0.199275	0.526696
C118	C	1.415524	0.449275	0.776696
C119	C	1.665524	0.699275	1.026696
C120	C	1.915524	0.949275	1.276696
C121	C	1.158661	0.206162	0.648618
C122	C	1.408661	0.456162	0.898618
C123	C	1.658661	0.706162	1.148618
C124	C	1.908661	0.956162	1.398618
C125	C	1.119010	0.245921	0.351425
C126	C	1.369010	0.495921	0.601425
C127	C	1.619010	0.745921	0.851425
C128	C	1.869010	0.995921	1.101425
H129	H	0.626957	0.113450	-0.000041
H130	H	0.876957	0.363450	0.249959
H131	H	1.126957	0.613450	0.499959
H132	H	1.376957	0.863450	0.749959
Cl133	Cl	0.671087	0.378950	-0.000017
Cl134	Cl	0.921087	0.628950	0.249983
Cl135	Cl	1.171087	0.878950	0.499983
Cl136	Cl	1.421087	1.128950	0.749983
Cl137	Cl	1.244430	0.120926	0.455832
Cl138	Cl	1.494430	0.370926	0.705832
Cl139	Cl	1.744430	0.620926	0.955832
Cl140	Cl	1.994430	0.870926	1.205832
H141	H	1.026246	-0.285838	0.000011
H142	H	1.276246	-0.035838	0.250011
H143	H	1.526246	0.214162	0.500011
H144	H	1.776246	0.464162	0.750011
Cl145	Cl	1.291743	-0.241705	0.000039
Cl146	Cl	1.541743	0.008295	0.250039
Cl147	Cl	1.791743	0.258295	0.500039
Cl148	Cl	2.041743	0.508295	0.750039
Cl149	Cl	1.033645	0.331551	0.544221
Cl150	Cl	1.283645	0.581551	0.794221
Cl151	Cl	1.533645	0.831551	1.044221
Cl152	Cl	1.783645	1.081551	1.294221
