data_functionalizedCrystal
_audit_creation_method	'MofGen! by Chris Wilmer'
_symmetry_space_group_name_H-M	'P1'
_symmetry_Int_Tables_number	1
_symmetry_cell_setting	triclinic
loop_
_symmetry_equiv_pos_as_xyz
  x,y,z
_cell_length_a	12.645331
_cell_length_b	21.295416
_cell_length_c	12.645323
_cell_angle_alpha	89.968481
_cell_angle_beta	90.022676
_cell_angle_gamma	89.970690
loop_
_atom_site_label
_atom_site_type_symbol
_atom_site_fract_x
_atom_site_fract_y
_atom_site_fract_z
Zn1	Zn	1.620638	0.250621	0.599397
Zn2	Zn	2.120638	0.750621	1.099397
Zn3	Zn	1.620481	0.355896	0.422117
Zn4	Zn	2.120481	0.855896	0.922117
Zn5	Zn	1.443353	0.250643	0.422142
Zn6	Zn	1.943353	0.750643	0.922142
Zn7	Zn	1.443295	0.355855	0.599332
Zn8	Zn	1.943295	0.855855	1.099332
O9	O	1.531942	0.303254	0.510747
O10	O	2.031942	0.803254	1.010747
O11	O	1.768964	0.264595	0.575897
O12	O	2.268964	0.764595	1.075897
O13	O	1.596942	0.341960	0.273773
O14	O	2.096942	0.841960	0.773773
O15	O	1.466960	0.162550	0.445693
O16	O	1.966960	0.662550	0.945693
O17	O	1.768849	0.341939	0.445650
O18	O	2.268849	0.841939	0.945650
O19	O	1.597211	0.162535	0.575922
O20	O	2.097211	0.662535	1.075922
O21	O	1.466807	0.264631	0.273791
O22	O	1.966807	0.764631	0.773791
O23	O	1.294998	0.264591	0.445629
O24	O	1.794998	0.764591	0.945629
O25	O	1.466862	0.341869	0.747688
O26	O	1.966862	0.841869	1.247688
O27	O	1.294956	0.341890	0.575811
O28	O	1.794956	0.841890	1.075811
O29	O	1.597155	0.264555	0.747736
O30	O	2.097155	0.764555	1.247736
O31	O	1.596887	0.443980	0.445587
O32	O	2.096887	0.943980	0.945587
O33	O	1.466709	0.443950	0.575786
O34	O	1.966709	0.943950	1.075786
C35	C	1.256512	0.303239	0.510716
C36	C	1.756512	0.803239	1.010716
C37	C	1.138682	0.303247	0.510728
C38	C	1.638682	0.803247	1.010728
C39	C	0.971109	0.254395	0.429283
C40	C	1.471109	0.754395	0.929283
C41	C	1.093669	0.254521	0.428924
C42	C	1.593669	0.754521	0.928924
C43	C	1.094137	0.369560	0.480201
C44	C	1.594137	0.869560	0.980201
C45	C	0.971539	0.369293	0.479645
C46	C	1.471539	0.869293	0.979645
C47	C	0.971539	0.286418	0.623016
C48	C	1.471539	0.786418	1.123016
C49	C	1.094145	0.284937	0.622392
C50	C	1.594145	0.784937	1.122392
C51	C	1.531804	0.466805	0.510700
C52	C	2.031804	0.966805	1.010700
C53	C	1.531841	0.536773	0.510716
C54	C	2.031841	1.036773	1.010716
C55	C	1.599685	0.569635	0.442993
C56	C	2.099685	1.069635	0.942993
C57	C	1.599735	0.635377	0.443021
C58	C	2.099735	1.135377	0.943021
C59	C	1.531923	0.668256	0.510762
C60	C	2.031923	1.168256	1.010762
C61	C	1.464074	0.635386	0.578498
C62	C	1.964074	1.135386	1.078498
C63	C	1.464034	0.569645	0.578475
C64	C	1.964034	1.069645	1.078475
N65	N	1.439187	0.771521	0.518840
N66	N	1.939187	1.271521	1.018840
N67	N	1.439229	0.833972	0.518856
N68	N	1.939229	1.333972	1.018856
C69	C	1.532042	0.866331	0.510837
C70	C	2.032042	1.366331	1.010837
N71	N	1.624815	0.833879	0.502780
N72	N	2.124815	1.333879	1.002780
N73	N	1.624772	0.771421	0.502759
N74	N	2.124772	1.271421	1.002759
C75	C	1.531960	0.739541	0.510795
C76	C	2.031960	1.239541	1.010795
C77	C	1.599946	0.970478	0.443141
C78	C	2.099946	1.470478	0.943141
C79	C	1.599998	1.036221	0.443177
C80	C	2.099998	1.536221	0.943177
C81	C	1.464327	1.036229	0.578648
C82	C	1.964327	1.536229	1.078648
C83	C	1.464285	0.970487	0.578618
C84	C	1.964285	1.470487	1.078618
C85	C	1.532093	0.937615	0.510859
C86	C	2.032093	1.437615	1.010859
C87	C	1.808447	0.303269	0.510778
C88	C	2.308447	0.803269	1.010778
C89	C	1.926277	0.303276	0.510792
C90	C	2.426277	0.803276	1.010792
C91	C	1.532020	0.303205	0.787252
C92	C	2.032020	0.803205	1.287252
C93	C	1.532053	0.303184	0.905083
C94	C	2.032053	0.803184	1.405083
C95	C	1.532111	1.139063	0.510835
C96	C	2.032111	1.639063	1.010835
C97	C	1.532186	1.069095	0.510920
C98	C	2.032186	1.569095	1.010920
C99	C	1.531925	0.303257	0.235317
C100	C	2.031925	0.803257	0.735317
C101	C	1.532097	0.303100	0.117488
C102	C	2.032097	0.803100	0.617488
C103	C	1.449833	0.351594	1.072617
C104	C	1.949833	0.851594	1.572617
C105	C	1.450048	0.351833	0.950057
C106	C	1.950048	0.851833	1.450057
C107	C	1.643746	0.321189	0.949599
C108	C	2.143746	0.821189	1.449599
C109	C	1.643295	0.321492	1.072197
C110	C	2.143295	0.821492	1.572197
C111	C	1.503637	0.236500	1.072293
C112	C	2.003637	0.736500	1.572293
C113	C	1.501144	0.236899	0.949687
C114	C	2.001144	0.736899	1.449687
H115	H	1.123267	0.236138	0.645412
H116	H	1.623267	0.736138	1.145412
H117	H	1.654985	0.662138	0.387873
H118	H	2.154985	1.162138	0.887873
H119	H	1.124787	0.384101	0.399039
H120	H	1.624787	0.884101	0.899039
H121	H	1.655251	1.062976	0.388031
H122	H	2.155251	1.562976	0.888031
H123	H	1.408863	0.662160	0.633654
H124	H	1.908863	1.162160	1.133654
H125	H	1.667422	0.370178	1.100798
H126	H	2.167422	0.870178	1.600798
H127	H	1.408786	0.542889	0.633624
H128	H	1.908786	1.042889	1.133624
H129	H	1.655163	0.943712	0.387971
H130	H	2.155163	1.443712	0.887971
H131	H	1.367223	0.340567	0.919957
H132	H	1.867223	0.840567	1.419957
H133	H	0.942888	0.383589	0.397603
H134	H	1.442888	0.883589	0.897603
H135	H	1.654901	0.542873	0.387822
H136	H	2.154901	1.042873	0.887822
H137	H	1.706681	0.286986	0.920470
H138	H	2.206681	0.786986	1.420470
H139	H	1.668287	0.369365	0.918901
H140	H	2.168287	0.869365	1.418901
H141	H	1.409118	1.062998	0.633809
H142	H	1.909118	1.562998	1.133809
H143	H	0.941880	0.406946	0.536423
H144	H	1.441880	0.906946	1.036423
H145	H	1.123293	0.406953	0.537704
H146	H	1.623293	0.906953	1.037704
H147	H	1.418948	0.223321	0.920590
H148	H	1.918948	0.723321	1.420590
H149	H	1.409036	0.943729	0.633760
H150	H	1.909036	1.443729	1.133760
H151	H	0.942547	0.322021	0.683747
H152	H	1.442547	0.822021	1.183747
H153	H	1.366763	0.340435	1.102092
H154	H	1.866763	0.840435	1.602092
H155	H	1.468436	0.400659	1.103426
H156	H	1.968436	0.900659	1.603426
H157	H	1.124791	0.317942	0.686371
H158	H	1.624791	0.817942	1.186371
H159	H	1.423610	0.220088	1.103201
H160	H	1.923610	0.720088	1.603201
H161	H	1.556686	0.198859	0.919073
H162	H	2.056686	0.698859	1.419073
H163	H	1.468834	0.401207	0.920733
H164	H	1.968834	0.901207	1.420733
H165	H	0.940660	0.238907	0.650777
H166	H	1.440660	0.738907	1.150777
H167	H	1.706665	0.287705	1.101882
H168	H	2.206665	0.787705	1.601882
H169	H	1.563554	0.200370	1.101314
H170	H	2.063554	0.700370	1.601314
H171	H	1.123788	0.205348	0.448060
H172	H	1.623788	0.705348	0.948060
H173	H	0.941663	0.205074	0.448214
H174	H	1.441663	0.705074	0.948214
H175	H	0.940257	0.265413	0.346610
H176	H	1.440257	0.765413	0.846610
H177	H	1.122943	0.265663	0.345762
H178	H	1.622943	0.765663	0.845762
