data_functionalizedCrystal
_audit_creation_method	'MofGen! by Chris Wilmer'
_symmetry_space_group_name_H-M	'P1'
_symmetry_Int_Tables_number	1
_symmetry_cell_setting	triclinic
loop_
_symmetry_equiv_pos_as_xyz
  x,y,z
_cell_length_a	11.169416
_cell_length_b	11.169417
_cell_length_c	17.077396
_cell_angle_alpha	89.984061
_cell_angle_beta	89.977334
_cell_angle_gamma	90.011589
loop_
_atom_site_label
_atom_site_type_symbol
_atom_site_fract_x
_atom_site_fract_y
_atom_site_fract_z
Zn1	Zn	-0.477767	1.834920	-0.443800
Zn2	Zn	-0.678479	1.834822	-0.312547
Zn3	Zn	-0.477813	1.634218	-0.312556
Zn4	Zn	-0.678411	1.634213	-0.443779
O5	O	-0.578118	1.734543	-0.378170
O6	O	-0.504401	2.002857	-0.426394
O7	O	-0.651908	1.808172	-0.202701
O8	O	-0.309857	1.660885	-0.329978
O9	O	-0.651863	2.002785	-0.329963
O10	O	-0.309824	1.808340	-0.426403
O11	O	-0.504479	1.660790	-0.202708
O12	O	-0.504414	1.466268	-0.329958
O13	O	-0.651748	1.660876	-0.553629
O14	O	-0.651792	1.466264	-0.426367
O15	O	-0.504336	1.808335	-0.553644
O16	O	-0.846420	1.808168	-0.329943
O17	O	-0.846370	1.660781	-0.426358
C18	C	-0.578101	1.422719	-0.378161
C19	C	-0.578123	1.289319	-0.378176
C20	C	-0.889942	1.734496	-0.378165
C21	C	-1.023342	1.734585	-0.378188
C22	C	-0.265075	1.734624	-0.378194
C23	C	-0.131675	1.734658	-0.378204
C24	C	-0.578029	1.734616	-0.582915
C25	C	-0.577991	1.734647	-0.670165
C26	C	-0.578135	2.047586	-0.378180
C27	C	-0.578142	2.180986	-0.378184
C28	C	-0.501227	1.811431	-0.711164
C29	C	-0.501188	1.811446	-0.793145
C30	C	-0.577918	1.734681	-0.834124
C31	C	-0.654686	1.657888	-0.793119
C32	C	-0.654719	1.657869	-0.711140
C33	C	-0.654614	1.657936	-0.963989
C34	C	-0.654583	1.657957	-1.045974
C35	C	-0.501082	1.811514	-1.045994
C36	C	-0.501115	1.811494	-0.964015
C37	C	-0.577885	1.734702	-0.923015
C38	C	-0.578119	1.734540	-0.174223
C39	C	-0.577819	1.734742	-0.086973
H40	H	-0.438748	1.873946	-0.677804
H41	H	-0.717157	1.595381	-0.826491
C42	C	-0.806388	1.506195	-0.972200
C43	C	-0.739027	1.573554	-0.918921
H44	H	-0.858514	1.454119	-0.944375
H45	H	-0.754092	1.460284	-1.004164
H46	H	-0.852257	1.558505	-1.004186
H47	H	-0.693150	1.521244	-0.886939
H48	H	-0.791330	1.619469	-0.886943
C49	C	-0.339703	1.828150	-0.871849
C50	C	-0.416749	1.895859	-0.918975
H51	H	-0.287615	1.880231	-0.844044
H52	H	-0.293804	1.775881	-0.903838
H53	H	-0.385443	1.782432	-0.835697
H54	H	-0.371009	1.941571	-0.955132
H55	H	-0.462652	1.948149	-0.886984
C56	C	-0.432830	1.879701	-1.171667
C57	C	-0.416674	1.895905	-1.091057
H58	H	-0.380715	1.931793	-1.199487
H59	H	-0.513450	1.897260	-1.185100
H60	H	-0.415262	1.799061	-1.185082
H61	H	-0.434251	1.976543	-1.077641
H62	H	-0.336036	1.878354	-1.077619
C63	C	-0.815967	1.641233	-1.138164
C64	C	-0.738904	1.573563	-1.091026
H65	H	-0.868023	1.589126	-1.165974
H66	H	-0.770246	1.686971	-1.174304
H67	H	-0.861911	1.693483	-1.106177
H68	H	-0.692954	1.521319	-1.123014
H69	H	-0.784630	1.527805	-1.054881
C70	C	-0.806476	1.506121	-0.719349
C71	C	-0.739121	1.573486	-0.666070
H72	H	-0.858590	1.454034	-0.691524
H73	H	-0.754176	1.460222	-0.751318
H74	H	-0.852358	1.558427	-0.751331
H75	H	-0.693232	1.521180	-0.634092
H76	H	-0.791428	1.619388	-0.634088
H77	H	-0.438681	1.873974	-0.826523
