data_functionalizedCrystal
_audit_creation_method	'MofGen! by Chris Wilmer'
_symmetry_space_group_name_H-M	'P1'
_symmetry_Int_Tables_number	1
_symmetry_cell_setting	triclinic
loop_
_symmetry_equiv_pos_as_xyz
  x,y,z
_cell_length_a	17.038272
_cell_length_b	12.811457
_cell_length_c	11.892113
_cell_angle_alpha	88.931388
_cell_angle_beta	94.098998
_cell_angle_gamma	87.561665
loop_
_atom_site_label
_atom_site_type_symbol
_atom_site_fract_x
_atom_site_fract_y
_atom_site_fract_z
O1	O	0.102978	1.398708	-0.049386
O2	O	0.115912	1.096257	-0.018377
O3	O	-0.004368	1.245685	-0.033706
O4	O	0.223258	1.249281	-0.034057
O5	O	-0.013270	1.232986	-0.220412
O6	O	0.107010	1.083558	-0.205083
O7	O	0.094076	1.386009	-0.236092
Zn8	Zn	0.099130	1.232767	-0.250231
Zn9	Zn	0.110858	1.249499	-0.004238
O10	O	0.214356	1.236582	-0.220763
C11	C	0.111009	1.051018	-0.107743
C12	C	0.109654	0.935137	-0.095863
C13	C	0.097387	0.703538	-0.277108
C14	C	0.096114	0.594657	-0.265951
C15	C	0.105827	0.608493	-0.062393
C16	C	0.107101	0.717374	-0.073550
C17	C	0.102882	0.764892	-0.180911
C18	C	0.104162	0.873774	-0.192067
C19	C	0.113869	0.887609	0.011490
C20	C	0.112595	0.778728	0.022647
C21	C	-0.037943	1.236065	-0.126724
C22	C	-0.124722	1.226310	-0.125723
C23	C	-0.174963	1.315877	-0.134907
C24	C	-0.256500	1.306705	-0.133956
C25	C	-0.287795	1.207965	-0.123829
C26	C	-0.237547	1.118391	-0.114641
C27	C	-0.156011	1.127564	-0.115584
C28	C	-0.533506	1.175557	-0.120491
C29	C	-0.615048	1.166390	-0.119552
C30	C	-0.633996	1.354705	-0.138865
C31	C	-0.552458	1.363870	-0.139814
C32	C	-0.502217	1.274296	-0.130620
C33	C	-0.371139	1.198587	-0.122860
C34	C	-0.418874	1.283676	-0.131581
C35	C	0.247931	1.246201	-0.127743
C36	C	0.334710	1.255957	-0.128736
C37	C	0.098979	1.431249	-0.146724
C38	C	0.100334	1.547130	-0.158597
N39	N	0.091125	1.221356	-0.418116
C40	C	0.174596	1.340315	-0.666954
C41	C	0.168994	1.332346	-0.784480
C42	C	0.074316	1.197456	-0.770695
C43	C	0.079918	1.205425	-0.653169
C44	C	0.130060	1.276855	-0.601303
C45	C	0.135666	1.284818	-0.483775
C46	C	0.040984	1.149934	-0.469993
C47	C	0.035382	1.141965	-0.587519
N48	N	0.118856	1.260918	0.163646
H49	H	0.118348	0.937575	0.089821
H50	H	-0.640525	1.085979	-0.111323
H51	H	0.205259	1.384022	-0.837929
H52	H	0.109248	0.569785	0.025016
H53	H	0.004724	1.098255	-0.416527
C54	C	0.122334	0.803340	0.222734
C55	C	0.117239	0.726490	0.140655
H56	H	0.125199	0.771090	0.295588
H57	H	0.168196	0.841609	0.214542
H58	H	0.077054	0.849430	0.213748
H59	H	0.162522	0.680404	0.149636
H60	H	0.071372	0.688204	0.148852
H61	H	0.033484	1.139311	-0.812946
C62	C	-0.015194	1.069783	-0.761547
C63	C	-0.019729	1.063446	-0.644532
H64	H	-0.049214	1.021300	-0.796738
H65	H	-0.030702	1.138511	-0.788016
H66	H	0.037409	1.053818	-0.779243
H67	H	-0.072332	1.079419	-0.626835
H68	H	-0.004226	0.994703	-0.618054
H69	H	-0.149491	1.396281	-0.143161
C70	C	0.032781	0.993961	-0.323287
C71	C	0.099521	0.926014	-0.310073
H72	H	0.029919	1.026213	-0.396139
H73	H	-0.013076	0.955680	-0.315105
H74	H	0.036247	1.046082	-0.267586
H75	H	0.096053	0.873888	-0.365769
H76	H	0.145390	0.964297	-0.318267
H77	H	-0.297404	1.379640	-0.141437
H78	H	0.093963	0.742227	-0.364525
H79	H	-0.526985	1.444274	-0.148061
C80	C	0.268299	1.339843	-0.452962
C81	C	0.190780	1.363336	-0.426763
H82	H	0.302321	1.388324	-0.417772
H83	H	0.283826	1.271110	-0.426529
H84	H	0.271324	1.344179	-0.532354
H85	H	0.187754	1.358991	-0.347371
H86	H	0.175249	1.432086	-0.453191
C87	C	-0.732096	1.460167	-0.053021
C88	C	-0.689221	1.453162	-0.148955
H89	H	-0.766184	1.520957	-0.059246
H90	H	-0.762401	1.400056	-0.046867
H91	H	-0.696776	1.464255	0.012112
H92	H	-0.724540	1.449067	-0.214088
H93	H	-0.658913	1.513288	-0.155121
C94	C	0.086647	0.591922	-0.468278
C95	C	0.090079	0.527215	-0.371693
H96	H	0.082925	0.550283	-0.533560
H97	H	0.041777	0.638582	-0.468797
H98	H	0.132920	0.630772	-0.467986
H99	H	0.043803	0.488370	-0.371981
H100	H	0.134953	0.480537	-0.371175
H101	H	-0.492609	1.102620	-0.113005
H102	H	0.215431	1.398467	-0.624723
H103	H	-0.115104	1.054629	-0.108105
C104	C	-0.354121	1.020712	-0.104633
C105	C	-0.271944	1.009852	-0.103513
H106	H	-0.375353	0.953701	-0.097773
H107	H	-0.368266	1.062315	-0.043340
H108	H	-0.374475	1.053470	-0.173558
H109	H	-0.251589	0.977101	-0.034584
H110	H	-0.257792	0.968233	-0.164812
C111	C	-0.333589	1.409757	-0.047869
C112	C	-0.384475	1.392208	-0.142714
H113	H	-0.312345	1.476758	-0.054751
H114	H	-0.361900	1.406709	0.017994
H115	H	-0.292005	1.357713	-0.042541
H116	H	-0.426063	1.444248	-0.148038
H117	H	-0.356164	1.395265	-0.208595
H118	H	-0.396628	1.118192	-0.114617
