data_functionalizedCrystal
_audit_creation_method	'MofGen! by Chris Wilmer'
_symmetry_space_group_name_H-M	'P1'
_symmetry_Int_Tables_number	1
_symmetry_cell_setting	triclinic
loop_
_symmetry_equiv_pos_as_xyz
  x,y,z
_cell_length_a	13.339070
_cell_length_b	13.930277
_cell_length_c	14.853559
_cell_angle_alpha	89.997639
_cell_angle_beta	80.369626
_cell_angle_gamma	90.007456
loop_
_atom_site_label
_atom_site_type_symbol
_atom_site_fract_x
_atom_site_fract_y
_atom_site_fract_z
O1	O	1.342907	0.079847	-0.452123
O2	O	1.048298	0.079844	-0.392779
O3	O	1.203476	0.079845	-0.293182
O4	O	1.187728	0.079847	-0.551721
O5	O	1.203455	-0.079817	-0.293174
O6	O	1.048277	-0.079818	-0.392771
O7	O	1.342885	-0.079814	-0.452115
Zn8	Zn	1.195577	-0.105166	-0.422442
Zn9	Zn	1.195606	0.105196	-0.422453
O10	O	1.187707	-0.079815	-0.551712
C11	C	1.010584	0.000013	-0.382751
C12	C	0.898242	0.000012	-0.352871
N13	N	1.195565	-0.248732	-0.422435
C14	C	0.533767	0.000028	-0.585203
C15	C	0.639318	0.000033	-0.613280
C16	C	0.704054	0.000027	-0.548180
C17	C	0.663229	0.000018	-0.454999
C18	C	0.557667	0.000022	-0.426919
C19	C	0.727954	0.000020	-0.389896
C20	C	0.687129	0.000011	-0.296714
C21	C	0.581577	0.000014	-0.268640
C22	C	0.516842	0.000019	-0.333740
C23	C	0.833516	0.000017	-0.417975
C24	C	0.857416	0.000010	-0.259691
C25	C	0.751865	0.000005	-0.231615
C26	C	1.126890	-0.701002	-0.466530
C27	C	1.264349	-0.700970	-0.378376
C28	C	1.264337	-0.600475	-0.378370
C29	C	1.195602	-0.550238	-0.422446
C30	C	1.126878	-0.600497	-0.466528
C31	C	1.333066	-0.550208	-0.334296
C32	C	1.333058	-0.449706	-0.334290
C33	C	1.264317	-0.399468	-0.378361
C34	C	1.195589	-0.449733	-0.422443
C35	C	1.126854	-0.399496	-0.466519
C36	C	1.058121	-0.449759	-0.510597
C37	C	1.058137	-0.550258	-0.510599
C38	C	1.264301	-0.298969	-0.378359
C39	C	1.126842	-0.298991	-0.466517
C40	C	1.380599	0.000019	-0.462143
C41	C	1.492941	0.000026	-0.492024
C42	C	1.202753	0.000016	-0.259412
C43	C	1.200620	0.000021	-0.158796
N44	N	1.195626	0.248762	-0.422454
C45	C	1.188430	0.000016	-0.585483
C46	C	1.190563	0.000017	-0.686098
C47	C	1.191580	0.087053	0.266628
C48	C	1.191556	-0.087017	0.266632
C49	C	1.193570	-0.087018	0.172098
C50	C	1.194586	0.000018	0.124824
C51	C	1.193590	0.087055	0.172086
C52	C	1.194556	-0.174052	0.124831
C53	C	1.196568	-0.174057	0.030291
C54	C	1.197592	-0.087020	-0.016986
C55	C	1.196597	0.000020	0.030281
C56	C	1.197614	0.087056	-0.016992
C57	C	1.196626	0.174097	0.030272
C58	C	1.194614	0.174091	0.124809
C59	C	1.199603	-0.087015	-0.111523
C60	C	1.199624	0.087058	-0.111535
H61	H	0.866745	0.000020	-0.493844
H62	H	1.002160	-0.408845	-0.546489
Cl63	Cl	0.530256	0.000035	-0.151497
H64	H	0.789998	0.000033	-0.571046
Cl65	Cl	1.040483	-0.764184	-0.521935
H66	H	0.430892	0.000016	-0.310884
H67	H	1.002178	-0.591188	-0.546486
H68	H	1.190722	-0.157877	0.305129
H69	H	1.193809	0.244955	0.163301
Cl70	Cl	0.690635	0.000048	-0.730416
Cl71	Cl	1.200843	-0.196428	-0.170936
Cl72	Cl	1.350763	-0.764122	-0.322975
Cl73	Cl	1.419480	-0.613360	-0.278896
H74	H	1.193722	-0.244912	0.163328
H75	H	1.320267	-0.258049	-0.342477
H76	H	1.070865	-0.258094	-0.502405
H77	H	1.197446	0.244961	-0.008229
Cl78	Cl	1.419458	-0.386525	-0.278876
Cl79	Cl	1.190349	0.196470	0.326042
H80	H	1.200456	0.157934	-0.150019
H81	H	0.718609	0.000006	-0.155745
Cl82	Cl	1.197806	-0.283477	-0.029118
H83	H	0.481051	0.000041	-0.638197
Cl84	Cl	0.938791	0.000010	-0.177846
