data_functionalizedCrystal
_audit_creation_method	'MofGen! by Chris Wilmer'
_symmetry_space_group_name_H-M	'P1'
_symmetry_Int_Tables_number	1
_symmetry_cell_setting	triclinic
loop_
_symmetry_equiv_pos_as_xyz
  x,y,z
_cell_length_a	19.188930
_cell_length_b	17.666332
_cell_length_c	15.944551
_cell_angle_alpha	89.992575
_cell_angle_beta	96.678241
_cell_angle_gamma	90.023234
loop_
_atom_site_label
_atom_site_type_symbol
_atom_site_fract_x
_atom_site_fract_y
_atom_site_fract_z
O1	O	0.926421	0.063193	-0.104867
O2	O	0.723146	0.063142	-0.118984
O3	O	0.830334	0.063162	0.010370
O4	O	0.819232	0.063173	-0.234221
O5	O	0.830315	-0.062735	0.010377
O6	O	0.723127	-0.062755	-0.118977
O7	O	0.926402	-0.062703	-0.104861
Cu8	Cu	0.824763	-0.074225	-0.111918
Cu9	Cu	0.824785	0.074663	-0.111926
O10	O	0.819214	-0.062724	-0.234215
C11	C	0.697124	0.000187	-0.118524
C12	C	0.619616	0.000167	-0.117151
C13	C	0.574889	0.000182	-0.193052
C14	C	0.502061	0.000190	-0.191763
C15	C	0.473965	0.000198	-0.114568
C16	C	0.518703	0.000179	-0.038658
C17	C	0.591528	0.000163	-0.039949
N18	N	0.365839	0.043074	-0.055565
N19	N	0.296657	0.043091	-0.054344
C20	C	0.254547	0.000245	-0.110673
N21	N	0.284230	-0.042610	-0.168282
N22	N	0.353418	-0.042623	-0.169507
C23	C	0.394999	0.000215	-0.113160
C24	C	0.130851	0.000268	-0.185181
C25	C	0.058023	0.000271	-0.183888
C26	C	0.074666	0.000268	-0.030781
C27	C	0.147492	0.000256	-0.032076
C28	C	0.175580	0.000260	-0.109278
N29	N	0.824752	-0.178944	-0.111912
C30	C	0.872231	-0.218545	-0.054662
C31	C	0.872235	-0.297792	-0.054658
C32	C	0.824767	-0.337436	-0.111918
C33	C	0.777280	-0.297826	-0.169173
C34	C	0.777272	-0.218580	-0.169170
N35	N	0.815883	-0.461853	-0.186275
N36	N	0.815894	-0.537133	-0.186275
C37	C	0.824785	-0.576200	-0.111930
N38	N	0.833679	-0.537143	-0.037582
N39	N	0.833671	-0.461855	-0.037583
C40	C	0.824769	-0.423365	-0.111928
C41	C	0.872271	-0.701730	-0.054671
C42	C	0.872270	-0.780979	-0.054666
C43	C	0.777318	-0.781011	-0.169188
C44	C	0.777316	-0.701764	-0.169186
C45	C	0.824796	-0.662128	-0.111928
C46	C	0.952423	0.000253	-0.105321
C47	C	1.029932	0.000278	-0.106693
C48	C	0.829864	0.000213	0.041665
C49	C	0.828482	0.000213	0.134906
N50	N	0.824801	0.179382	-0.111926
C51	C	0.819684	0.000226	-0.265510
C52	C	0.821066	0.000232	-0.358751
C53	C	0.758739	0.000205	0.349502
C54	C	0.791116	-0.061861	0.410644
C55	C	0.825983	0.000218	0.305623
C56	C	0.791151	0.062263	0.410621
C57	C	0.823563	0.000226	0.470527
C58	C	0.858378	-0.061900	0.365537
C59	C	0.858403	0.062280	0.365507
C60	C	0.890829	0.000199	0.426631
C61	C	0.827374	0.000212	0.210626
C62	C	0.822176	0.000226	0.565522
H63	H	0.465637	0.000200	-0.253572
N64	N	0.894007	-0.127801	0.340588
N65	N	0.862567	-0.174035	0.290250
H66	H	0.887726	-0.220578	0.272627
H67	H	0.910930	-0.669457	-0.008046
H68	H	0.762708	0.114739	0.430588
N69	N	0.960906	0.000193	0.468501
N70	N	1.001857	0.052996	0.456080
H71	H	1.051348	0.052991	0.485653
H72	H	0.910899	-0.330041	-0.008036
N73	N	0.894059	0.128132	0.340389
N74	N	0.871150	0.192533	0.354576
H75	H	0.896327	0.239047	0.336836
N76	N	0.045978	0.000256	0.048073
N77	N	0.007173	-0.052811	0.065876
H78	H	-0.013090	-0.052825	0.121570
N79	N	0.603567	0.000188	-0.271917
N80	N	0.563617	0.000203	-0.339681
H81	H	0.583872	0.000207	-0.395380
H82	H	0.495822	0.000196	0.024194
N83	N	0.728785	-0.178126	-0.227669
N84	N	0.750938	-0.133892	-0.279744
H85	H	0.716695	-0.105319	-0.321064
N86	N	0.728820	-0.821483	-0.227680
N87	N	0.664289	-0.812663	-0.226720
H88	H	0.630033	-0.841248	-0.268030
H89	H	0.153721	0.000259	-0.248043
N90	N	0.637211	0.000144	0.037593
N91	N	0.612121	0.000144	0.106513
H92	H	0.644385	0.000130	0.161280
N93	N	0.688718	0.000108	0.307463
N94	N	0.648015	-0.053120	0.319171
H95	H	0.598563	-0.053192	0.289481
H96	H	0.738657	-0.669519	-0.215808
H97	H	0.910890	-0.186276	-0.008038
N98	N	0.012341	0.000278	-0.261431
N99	N	0.037433	0.000279	-0.330351
H100	H	0.005171	0.000283	-0.385118
H101	H	0.183911	0.000248	0.029731
N102	N	0.728793	-0.338329	-0.227652
N103	N	0.728805	-0.409084	-0.227648
H104	H	0.694558	-0.437690	-0.268948
H105	H	0.910931	-0.813223	-0.008041
N106	N	0.755422	-0.127702	0.435736
N107	N	0.692668	-0.138778	0.407738
H108	H	0.667453	-0.185275	0.425456
