data_functionalizedCrystal
_audit_creation_method	'MofGen! by Chris Wilmer'
_symmetry_space_group_name_H-M	'P1'
_symmetry_Int_Tables_number	1
_symmetry_cell_setting	triclinic
loop_
_symmetry_equiv_pos_as_xyz
  x,y,z
_cell_length_a	19.805407
_cell_length_b	16.959454
_cell_length_c	19.805399
_cell_angle_alpha	89.977613
_cell_angle_beta	89.980427
_cell_angle_gamma	90.020075
loop_
_atom_site_label
_atom_site_type_symbol
_atom_site_fract_x
_atom_site_fract_y
_atom_site_fract_z
Zn1	Zn	1.034765	-0.314700	-0.382744
Zn2	Zn	1.034693	-0.446882	-0.269566
Zn3	Zn	0.921580	-0.314722	-0.269569
Zn4	Zn	0.921556	-0.446840	-0.382713
O5	O	0.978149	-0.380786	-0.326148
O6	O	1.129472	-0.332243	-0.367743
O7	O	1.019668	-0.429378	-0.174850
O8	O	0.936635	-0.204108	-0.284596
O9	O	1.129419	-0.429356	-0.284591
O10	O	1.019792	-0.204092	-0.367745
O11	O	0.936564	-0.332280	-0.174852
O12	O	0.826860	-0.332239	-0.284565
O13	O	0.936594	-0.429285	-0.477434
O14	O	0.826843	-0.429306	-0.367692
O15	O	1.019768	-0.332202	-0.477457
O16	O	1.019645	-0.557488	-0.284561
O17	O	0.936524	-0.557457	-0.367690
C18	C	0.802293	-0.380771	-0.326126
C19	C	0.727061	-0.380783	-0.326133
C20	C	0.691725	-0.431402	-0.369347
C21	C	0.621037	-0.431404	-0.369356
C22	C	0.585685	-0.380790	-0.326148
C23	C	0.621026	-0.330165	-0.282932
C24	C	0.691713	-0.330160	-0.282926
C25	C	0.335952	-0.330183	-0.282954
C26	C	0.265260	-0.330193	-0.282962
C27	C	0.265276	-0.431426	-0.369384
C28	C	0.335963	-0.431421	-0.369379
C29	C	0.371298	-0.380794	-0.326166
C30	C	0.447946	-0.380792	-0.326157
C31	C	0.509038	-0.380795	-0.326153
C32	C	0.978092	-0.586152	-0.326136
C33	C	0.978130	-0.674009	-0.326154
C34	C	0.934930	-1.045498	-0.369428
C35	C	1.021555	-1.045470	-0.282937
C36	C	1.021532	-0.962925	-0.282930
C37	C	0.978206	-0.921662	-0.326173
C38	C	0.934904	-0.962945	-0.369422
C39	C	1.064828	-0.921635	-0.239677
C40	C	1.064806	-0.839085	-0.239669
C41	C	1.021483	-0.797820	-0.282915
C42	C	0.978180	-0.839108	-0.326167
C43	C	0.934854	-0.797845	-0.369409
C44	C	0.891553	-0.839132	-0.412665
C45	C	0.891581	-0.921680	-0.412669
C46	C	1.021455	-0.715272	-0.282911
C47	C	0.934827	-0.715292	-0.369403
C48	C	1.154691	-0.380802	-0.326170
C49	C	1.229923	-0.380808	-0.326180
C50	C	0.978187	-0.380736	-0.502691
C51	C	0.978203	-0.380715	-0.577923
C52	C	0.978224	-0.174618	-0.326174
C53	C	0.978256	-0.086761	-0.326186
C54	C	1.021513	-0.330161	-0.613280
C55	C	1.021520	-0.330138	-0.683968
C56	C	0.978220	-0.380674	-0.719298
C57	C	0.934905	-0.431230	-0.683936
C58	C	0.934895	-0.431248	-0.613249
C59	C	0.934943	-0.431156	-0.969010
C60	C	0.934958	-0.431135	-1.039702
C61	C	1.021568	-0.330046	-1.039729
C62	C	1.021558	-0.330065	-0.969042
C63	C	0.978241	-0.380617	-0.933686
C64	C	0.978233	-0.380641	-0.857037
C65	C	0.978230	-0.380655	-0.795946
C66	C	0.978150	-0.380779	-0.150292
C67	C	0.978265	-0.380577	-0.075060
H68	H	0.364713	-0.288965	-0.247763
O69	O	1.063657	-0.281009	-0.718210
C70	C	1.101864	-0.236400	-0.671869
H71	H	1.104187	-0.268791	-0.621477
H72	H	1.077104	-0.176365	-0.664353
C73	C	1.171058	-0.185229	-0.761364
C74	C	1.173915	-0.225017	-0.699474
H75	H	1.215502	-0.178204	-0.778392
H76	H	1.145316	-0.215280	-0.792585
H77	H	1.150422	-0.135205	-0.755092
H78	H	1.194544	-0.275044	-0.705748
H79	H	1.199663	-0.194973	-0.668254
O80	O	1.063480	-0.281029	-0.578890
C81	C	1.024955	-0.229971	-0.538016
H82	H	0.973651	-0.257850	-0.527409
H83	H	1.017539	-0.171389	-0.565268
C84	C	1.125204	-0.181430	-0.483909
C85	C	1.062194	-0.215675	-0.470877
H86	H	1.148175	-0.172608	-0.442496
H87	H	1.151160	-0.215826	-0.511448
H88	H	1.119015	-0.132616	-0.506621
H89	H	1.068384	-0.264492	-0.448173
H90	H	1.036240	-0.181286	-0.443332
O91	O	1.106978	-0.961666	-0.197705
C92	C	1.174443	-0.941495	-0.212531
H93	H	1.175861	-0.881529	-0.238521
H94	H	1.197219	-0.987916	-0.247365
C95	C	1.213710	-1.011409	-0.114644
C96	C	1.215454	-0.937755	-0.146560
H97	H	1.239010	-1.009106	-0.073951
H98	H	1.168259	-1.025002	-0.104656
H99	H	1.232690	-1.050086	-0.143679
H100	H	1.196467	-0.899083	-0.117529
H101	H	1.260903	-0.924156	-0.156541
H102	H	0.899678	-1.079117	-0.404647
H103	H	0.236479	-0.288972	-0.247776
O104	O	1.063641	-0.280900	-0.934828
C105	C	1.101881	-0.236286	-0.981194
H106	H	1.074167	-0.233534	-1.031578
H107	H	1.153278	-0.265233	-0.988716
C108	C	1.145699	-0.155549	-0.891737
C109	C	1.111657	-0.152163	-0.953618
H110	H	1.151733	-0.103659	-0.874726
H111	H	1.119938	-0.185607	-0.860498
H112	H	1.188526	-0.179674	-0.898014
H113	H	1.068828	-0.128047	-0.947338
H114	H	1.137412	-0.122099	-0.984855
H115	H	1.056836	-0.288881	-1.068524
O116	O	1.063721	-1.085478	-0.240965
C117	C	1.131175	-1.065284	-0.255817
H118	H	1.132566	-1.005327	-0.281825
H119	H	1.153956	-1.111708	-0.290644
C120	C	1.170495	-1.135142	-0.157922
C121	C	1.172204	-1.061499	-0.189859
H122	H	1.195805	-1.132811	-0.117237
H123	H	1.125050	-1.148750	-0.147916
H124	H	1.189478	-1.173821	-0.186951
H125	H	1.153214	-1.022824	-0.160834
H126	H	1.217647	-1.047884	-0.199858
H127	H	0.720503	-0.472621	-0.404530
O128	O	1.106773	-0.798949	-0.197584
C129	C	1.068254	-0.751236	-0.153839
H130	H	1.014954	-0.776155	-0.149607
H131	H	1.065894	-0.688664	-0.174760
C132	C	1.166829	-0.719375	-0.088705
C133	C	1.101367	-0.749985	-0.083503
H134	H	1.187256	-0.718599	-0.045320
H135	H	1.192781	-0.751517	-0.118178
H136	H	1.164853	-0.667234	-0.106142
H137	H	1.103344	-0.802127	-0.066075
H138	H	1.075416	-0.717851	-0.054025
O139	O	0.849372	-0.799083	-0.454600
C140	C	0.781927	-0.819334	-0.439765
H141	H	0.778543	-0.842066	-0.385694
H142	H	0.764230	-0.867240	-0.476046
C143	C	0.740885	-0.718115	-0.514003
C144	C	0.736728	-0.746028	-0.447590
H145	H	0.713003	-0.672898	-0.518833
H146	H	0.786324	-0.704473	-0.524000
H147	H	0.726139	-0.758044	-0.544230
H148	H	0.751482	-0.706103	-0.417365
H149	H	0.691290	-0.759662	-0.437588
O150	O	1.063413	-0.675130	-0.240826
C151	C	1.024886	-0.627420	-0.197087
H152	H	0.971587	-0.652343	-0.192861
H153	H	1.022524	-0.564849	-0.218010
C154	C	1.123451	-0.595547	-0.131942
C155	C	1.057991	-0.626163	-0.126748
H156	H	1.143873	-0.594768	-0.088554
H157	H	1.149409	-0.627687	-0.161412
H158	H	1.121474	-0.543407	-0.149381
H159	H	1.059969	-0.678304	-0.109317
H160	H	1.032034	-0.594030	-0.097273
O161	O	0.892826	-0.480250	-1.073918
C162	C	0.854602	-0.524886	-1.027555
H163	H	0.852261	-0.492525	-0.977170
H164	H	0.879359	-0.584925	-1.020033
C165	C	0.785440	-0.576001	-1.117017
C166	C	0.782561	-0.536252	-1.055135
H167	H	0.741003	-0.583016	-1.134030
H168	H	0.811194	-0.545932	-1.148253
H169	H	0.806074	-0.626030	-1.110740
H170	H	0.761935	-0.486221	-1.061414
H171	H	0.756802	-0.566313	-1.023900
H172	H	0.899682	-0.472330	-0.940231
O173	O	0.892939	-0.480403	-0.718285
C174	C	0.931460	-0.531436	-0.759185
H175	H	0.984764	-0.536331	-0.737892
H176	H	0.933810	-0.506983	-0.812762
C177	C	0.832893	-0.607591	-0.786406
C178	C	0.898360	-0.613608	-0.760250
H179	H	0.812474	-0.658277	-0.787066
H180	H	0.806940	-0.573207	-0.758853
H181	H	0.834860	-0.587210	-0.831051
H182	H	0.896391	-0.633978	-0.715603
H183	H	0.924312	-0.647997	-0.787796
O184	O	0.586816	-0.480659	-0.411348
C185	C	0.633176	-0.525324	-0.449488
H186	H	0.683553	-0.528004	-0.421757
H187	H	0.640720	-0.496471	-0.500941
C188	C	0.543702	-0.606180	-0.493165
C189	C	0.605574	-0.609477	-0.459102
H190	H	0.526676	-0.658088	-0.499099
H191	H	0.512468	-0.576087	-0.467471
H192	H	0.549997	-0.582132	-0.536039
H193	H	0.599277	-0.633515	-0.416226
H194	H	0.636807	-0.639577	-0.484789
O195	O	0.370198	-0.480612	-0.411415
C196	C	0.323851	-0.525305	-0.449549
H197	H	0.273471	-0.492938	-0.451944
H198	H	0.316310	-0.585300	-0.424678
C199	C	0.413345	-0.576555	-0.518627
C200	C	0.351469	-0.536799	-0.521572
H201	H	0.430382	-0.583649	-0.563053
H202	H	0.444571	-0.546448	-0.492934
H203	H	0.407052	-0.626548	-0.497898
H204	H	0.357764	-0.486804	-0.542293
H205	H	0.320245	-0.566898	-0.547270
H206	H	0.899549	-0.681701	-0.404619
O207	O	0.230847	-0.480526	-0.411347
C208	C	0.160876	-0.469693	-0.402080
H209	H	0.151225	-0.408659	-0.380005
H210	H	0.140787	-0.516523	-0.365969
C211	C	0.136469	-0.552012	-0.497671
C212	C	0.124615	-0.477046	-0.470564
H213	H	0.114100	-0.556551	-0.539913
H214	H	0.183609	-0.559313	-0.503913
H215	H	0.119728	-0.591028	-0.467571
H216	H	0.141363	-0.438032	-0.500659
H217	H	0.077476	-0.469738	-0.464328
H218	H	0.720482	-0.288937	-0.247741
H219	H	0.592237	-0.288951	-0.247754
O220	O	0.892905	-0.480475	-0.578927
C221	C	0.907665	-0.559249	-0.596204
H222	H	0.961737	-0.563233	-0.615653
H223	H	0.871372	-0.579904	-0.637219
C224	C	0.833362	-0.607123	-0.509511
C225	C	0.899776	-0.612017	-0.533393
H226	H	0.828493	-0.639674	-0.470768
H227	H	0.823415	-0.554052	-0.497873
H228	H	0.803126	-0.624334	-0.543697
H229	H	0.930010	-0.594798	-0.499211
H230	H	0.909728	-0.665087	-0.545025
H231	H	0.856327	-0.955303	-0.447884
