data_functionalizedCrystal
_audit_creation_method	'MofGen! by Chris Wilmer'
_symmetry_space_group_name_H-M	'P1'
_symmetry_Int_Tables_number	1
_symmetry_cell_setting	triclinic
loop_
_symmetry_equiv_pos_as_xyz
  x,y,z
_cell_length_a	29.839131
_cell_length_b	25.639242
_cell_length_c	25.639233
_cell_angle_alpha	90.022166
_cell_angle_beta	89.980415
_cell_angle_gamma	89.963053
loop_
_atom_site_label
_atom_site_type_symbol
_atom_site_fract_x
_atom_site_fract_y
_atom_site_fract_z
Zn1	Zn	-0.178962	-0.799215	-0.295739
Zn2	Zn	-0.254076	-0.799134	-0.208302
Zn3	Zn	-0.178955	-0.711791	-0.208303
Zn4	Zn	-0.254059	-0.711732	-0.295692
O5	O	-0.216513	-0.755468	-0.252009
O6	O	-0.188935	-0.872370	-0.284160
O7	O	-0.244115	-0.787539	-0.135137
O8	O	-0.116089	-0.723447	-0.219922
O9	O	-0.244122	-0.872310	-0.219920
O10	O	-0.116094	-0.787677	-0.284161
O11	O	-0.188924	-0.723369	-0.135138
O12	O	-0.188908	-0.638618	-0.219876
O13	O	-0.244093	-0.723346	-0.368864
O14	O	-0.244087	-0.638575	-0.284081
O15	O	-0.188919	-0.787619	-0.368898
O16	O	-0.316941	-0.787482	-0.219875
O17	O	-0.316929	-0.723268	-0.284080
C18	C	-0.333236	-0.755374	-0.251983
C19	C	-0.383170	-0.755381	-0.251990
C20	C	-0.216495	-0.619626	-0.251974
C21	C	-0.216499	-0.561512	-0.251971
C22	C	-0.216505	-0.755485	-0.388382
C23	C	-0.216502	-0.755492	-0.446496
C24	C	-0.692807	-0.788965	-0.218627
C25	C	-0.880480	-0.789030	-0.218647
O26	O	-0.904740	-0.817509	-0.190260
N27	N	-0.903955	-0.755577	-0.252049
C28	C	-0.880509	-0.722108	-0.285450
O29	O	-0.904782	-0.693659	-0.313865
C30	C	-0.692837	-0.722046	-0.285432
C31	C	-0.669364	-0.755498	-0.252024
C32	C	-0.669335	-0.822415	-0.185222
C33	C	-0.622419	-0.822396	-0.185215
C34	C	-0.598976	-0.788928	-0.218613
C35	C	-0.622449	-0.755479	-0.252018
C36	C	-0.669391	-0.688580	-0.318836
C37	C	-0.622470	-0.688568	-0.318829
C38	C	-0.598998	-0.722020	-0.285422
C39	C	-0.552090	-0.721993	-0.285409
N40	N	-0.528615	-0.755446	-0.252007
C41	C	-0.552058	-0.788914	-0.218609
C42	C	-0.979039	-0.722141	-0.285457
C43	C	-1.025957	-0.722156	-0.285461
C44	C	-1.025925	-0.789079	-0.218658
C45	C	-0.979007	-0.789062	-0.218652
C46	C	-0.955565	-0.755595	-0.252055
C47	C	-0.453533	-0.788872	-0.218597
C48	C	-0.406613	-0.788849	-0.218592
C49	C	-0.406649	-0.721928	-0.285396
C50	C	-0.453564	-0.721949	-0.285400
C51	C	-0.477005	-0.755425	-0.251999
O52	O	-0.527802	-0.693533	-0.313784
O53	O	-0.527777	-0.817366	-0.190207
C54	C	-0.739723	-0.788984	-0.218633
C55	C	-0.763195	-0.755535	-0.252038
C56	C	-0.739752	-0.722067	-0.285436
C57	C	-0.810113	-0.755549	-0.252042
C58	C	-0.833556	-0.789017	-0.218644
C59	C	-0.810081	-0.822470	-0.185242
C60	C	-0.763166	-0.822451	-0.185235
C61	C	-0.763227	-0.688614	-0.318838
C62	C	-0.810143	-0.688635	-0.318841
C63	C	-0.833585	-0.722102	-0.285443
C64	C	-0.099335	-0.755577	-0.252047
C65	C	-0.049400	-0.755624	-0.252063
C66	C	-0.216531	-0.891841	-0.252045
C67	C	-0.216539	-0.949955	-0.252060
C68	C	-0.245293	-0.201135	-0.285409
C69	C	-0.245295	-0.146531	-0.285417
O70	O	-0.269755	-0.118282	-0.313817
N71	N	-0.216525	-0.119229	-0.252043
C72	C	-0.187748	-0.146535	-0.218663
O73	O	-0.163276	-0.118299	-0.190277
C74	C	-0.187743	-0.201138	-0.218658
C75	C	-0.216518	-0.228437	-0.252030
C76	C	-0.274065	-0.228434	-0.318778
C77	C	-0.274063	-0.283034	-0.318769
C78	C	-0.245288	-0.310336	-0.285390
C79	C	-0.216516	-0.283037	-0.252021
C80	C	-0.158963	-0.228443	-0.185281
C81	C	-0.158961	-0.283050	-0.185279
C82	C	-0.187736	-0.310349	-0.218651
C83	C	-0.187739	-0.364940	-0.218633
N84	N	-0.216509	-0.392241	-0.252006
C85	C	-0.245283	-0.364939	-0.285385
C86	C	-0.187759	-0.031864	-0.218677
C87	C	-0.187766	0.022738	-0.218679
C88	C	-0.245313	0.022739	-0.285434
C89	C	-0.245308	-0.031865	-0.285429
C90	C	-0.216529	-0.059166	-0.252051
C91	C	-0.245277	-0.479604	-0.285363
C92	C	-0.245273	-0.534210	-0.285350
C93	C	-0.187724	-0.534206	-0.218597
C94	C	-0.187729	-0.479605	-0.218609
C95	C	-0.216507	-0.452306	-0.251996
O96	O	-0.163290	-0.393223	-0.190249
O97	O	-0.269746	-0.393182	-0.313771
C98	C	-0.187687	-0.789002	-0.806883
C99	C	-0.187675	-0.789008	-0.861488
O100	O	-0.163229	-0.817457	-0.889744
N101	N	-0.216396	-0.755550	-0.888779
C102	C	-0.245129	-0.722079	-0.861463
O103	O	-0.269558	-0.693621	-0.889691
C104	C	-0.245139	-0.722071	-0.806860
C105	C	-0.216419	-0.755535	-0.779571
C106	C	-0.158969	-0.822463	-0.779594
C107	C	-0.158982	-0.822457	-0.724994
C108	C	-0.187714	-0.788990	-0.697682
C109	C	-0.216432	-0.755529	-0.724971
C110	C	-0.273869	-0.688598	-0.779545
C111	C	-0.273876	-0.688592	-0.724938
C112	C	-0.245156	-0.722056	-0.697650
C113	C	-0.245176	-0.722056	-0.643058
N114	N	-0.216455	-0.755514	-0.615767
C115	C	-0.187723	-0.788981	-0.643079
C116	C	-0.245106	-0.722100	-0.976134
C117	C	-0.245099	-0.722110	-1.030736
C118	C	-0.187644	-0.789039	-1.030757
C119	C	-0.187653	-0.789030	-0.976153
C120	C	-0.216384	-0.755558	-0.948843
C121	C	-0.187753	-0.788967	-0.528414
C122	C	-0.187770	-0.788959	-0.473808
C123	C	-0.245223	-0.722029	-0.473793
C124	C	-0.245208	-0.722038	-0.528393
C125	C	-0.216470	-0.755509	-0.555702
O126	O	-0.269609	-0.693620	-0.614767
O127	O	-0.163295	-0.817430	-0.614845
C128	C	-0.216488	-0.755482	-0.116167
C129	C	-0.216365	-0.755576	-0.058053
H130	H	-0.387503	-0.816089	-0.191385
H131	H	-0.135594	-0.849706	-0.702780
H132	H	-0.164350	-0.816220	-0.550642
N133	N	-0.158377	0.050611	-0.184579
N134	N	-0.132690	0.026221	-0.154779
H135	H	-0.111932	0.045905	-0.130695
H136	H	-0.268617	-0.694783	-0.451545
N137	N	-0.477465	-0.823069	-0.184475
N138	N	-0.456494	-0.852928	-0.154653
H139	H	-0.473396	-0.877077	-0.130551
N140	N	-1.049931	-0.687974	-0.319574
N141	N	-1.044727	-0.639730	-0.316051
H142	H	-1.061657	-0.615588	-0.340146
H143	H	-0.688495	-0.661337	-0.346038
N144	N	-0.303225	-0.654393	-0.697050
N145	N	-0.328862	-0.624518	-0.721426
H146	H	-0.349590	-0.600365	-0.701731
N147	N	-0.274703	0.050625	-0.319542
N148	N	-0.300389	0.026249	-0.349341
H149	H	-0.321145	0.045944	-0.373429
N150	N	-0.477552	-0.687778	-0.319514
N151	N	-0.503772	-0.654487	-0.301088
H152	H	-0.520712	-0.630356	-0.325184
H153	H	-0.959898	-0.816301	-0.191448
H154	H	-0.603311	-0.849637	-0.158013
H155	H	-0.688417	-0.849671	-0.158025
H156	H	-0.297494	-0.305256	-0.345945
N157	N	-0.158320	-0.823209	-0.948273
N158	N	-0.174133	-0.856508	-0.917808
H159	H	-0.153415	-0.880647	-0.898118
H160	H	-0.135522	-0.305276	-0.158101
N161	N	-0.303204	-0.654422	-0.807424
N162	N	-0.331829	-0.672791	-0.837895
H163	H	-0.352548	-0.648653	-0.857586
H164	H	-0.135532	-0.206226	-0.158104
N165	N	-0.274662	-0.562102	-0.319441
N166	N	-0.274658	-0.610854	-0.319431
H167	H	-0.295413	-0.630553	-0.343507
N168	N	-1.049869	-0.823268	-0.184537
N169	N	-1.044653	-0.819840	-0.136287
H170	H	-1.061564	-0.843987	-0.112192
N171	N	-0.955104	-0.687951	-0.319584
N172	N	-0.976075	-0.658087	-0.349401
H173	H	-0.959173	-0.633938	-0.373503
H174	H	-0.297497	-0.206210	-0.345962
H175	H	-0.268599	-0.694794	-0.550613
N176	N	-0.598532	-0.654381	-0.352958
N177	N	-0.619499	-0.624521	-0.382782
H178	H	-0.602595	-0.600376	-0.406885
H179	H	-0.135570	-0.849716	-0.801826
H180	H	-0.387554	-0.694677	-0.312587
N181	N	-0.158297	-0.823223	-1.058669
N182	N	-0.158294	-0.823220	-1.107422
H183	H	-0.137570	-0.847361	-1.127137
H184	H	-0.744058	-0.849691	-0.158032
H185	H	-0.829176	-0.849719	-0.158047
N186	N	-0.158324	-0.562102	-0.184516
N187	N	-0.116875	-0.556037	-0.188083
H188	H	-0.096107	-0.575741	-0.164017
N189	N	-0.274454	-0.687910	-0.948231
N190	N	-0.258652	-0.654600	-0.917758
H191	H	-0.279378	-0.630452	-0.898053
N192	N	-0.158431	-0.823150	-0.445942
N193	N	-0.132781	-0.853027	-0.470339
H194	H	-0.112060	-0.877174	-0.450661
H195	H	-0.829250	-0.661390	-0.346045
N196	N	-0.739292	-0.654424	-0.352960
N197	N	-0.760262	-0.624561	-0.382779
H198	H	-0.743359	-0.600410	-0.406878
N199	N	-0.274674	-0.451732	-0.319472
N200	N	-0.300359	-0.476121	-0.349261
H201	H	-0.321122	-0.456437	-0.373349
N202	N	-0.274445	-0.687932	-1.058600
N203	N	-0.300095	-0.658056	-1.034201
H204	H	-0.320821	-0.633914	-1.053877
N205	N	-0.274705	-0.059739	-0.319519
N206	N	-0.300396	-0.035349	-0.349315
H207	H	-0.321159	-0.055032	-0.373393
N208	N	-0.158358	-0.059741	-0.184575
N209	N	-0.132674	-0.035354	-0.154783
H210	H	-0.111908	-0.055039	-0.130699
N211	N	-0.158339	-0.451725	-0.184512
N212	N	-0.132651	-0.476111	-0.154711
H213	H	-0.111890	-0.456425	-0.130632
