data_functionalizedCrystal
_audit_creation_method	'MofGen! by Chris Wilmer'
_symmetry_space_group_name_H-M	'P1'
_symmetry_Int_Tables_number	1
_symmetry_cell_setting	triclinic
loop_
_symmetry_equiv_pos_as_xyz
  x,y,z
_cell_length_a	19.121102
_cell_length_b	19.077068
_cell_length_c	19.076919
_cell_angle_alpha	85.529249
_cell_angle_beta	90.059802
_cell_angle_gamma	89.978818
loop_
_atom_site_label
_atom_site_type_symbol
_atom_site_fract_x
_atom_site_fract_y
_atom_site_fract_z
Zn1	Zn	1.041644	-0.343147	0.456188
Zn2	Zn	1.541644	0.156853	0.956188
Zn3	Zn	1.041557	-0.456297	0.343029
Zn4	Zn	1.541557	0.043703	0.843029
Zn5	Zn	0.929514	-0.333430	0.333330
Zn6	Zn	1.429514	0.166570	0.833330
Zn7	Zn	0.919678	-0.455557	0.455451
Zn8	Zn	1.419678	0.044443	0.955451
O9	O	0.983098	-0.397108	0.397000
O10	O	1.483098	0.102892	0.897000
O11	O	1.139565	-0.362533	0.445545
O12	O	1.639565	0.137467	0.945545
O13	O	1.030774	-0.436241	0.243277
O14	O	1.530774	0.063759	0.743277
O15	O	0.948541	-0.236255	0.345877
O16	O	1.448541	0.263745	0.845877
O17	O	1.139502	-0.445664	0.362408
O18	O	1.639502	0.054336	0.862408
O19	O	1.030922	-0.243394	0.436141
O20	O	1.530922	0.256606	0.936141
O21	O	0.948457	-0.345971	0.236151
O22	O	1.448457	0.154029	0.736151
O23	O	0.830276	-0.345254	0.345162
O24	O	1.330276	0.154746	0.845162
O25	O	0.931777	-0.444403	0.554014
O26	O	1.431777	0.055597	1.054014
O27	O	0.823049	-0.434980	0.434883
O28	O	1.323049	0.065020	0.934883
O29	O	1.021384	-0.361816	0.554556
O30	O	1.521384	0.138184	1.054556
O31	O	1.021237	-0.554663	0.361693
O32	O	1.521237	-0.054663	0.861693
O33	O	0.931693	-0.554119	0.444288
O34	O	1.431693	-0.054119	0.944288
C35	C	0.801269	-0.388983	0.388891
C36	C	1.301269	0.111017	0.888891
C37	C	0.723481	-0.385524	0.385439
C38	C	1.223481	0.114476	0.885439
C39	C	0.975406	-0.579923	0.403979
C40	C	1.475406	-0.079923	0.903979
C41	C	0.972179	-0.658136	0.406991
C42	C	1.472179	-0.158136	0.906991
C43	C	1.017316	-0.695143	0.365442
C44	C	1.517316	-0.195143	0.865442
C45	C	1.014285	-0.768633	0.368280
C46	C	1.514285	-0.268633	0.868280
C47	C	0.966111	-0.805113	0.412663
C48	C	1.466111	-0.305113	0.912663
C49	C	0.920972	-0.768101	0.454217
C50	C	1.420972	-0.268101	0.954217
C51	C	0.924007	-0.694613	0.451382
C52	C	1.424007	-0.194613	0.951382
C53	C	0.952033	-1.024871	0.425750
C54	C	1.452033	-0.524871	0.925750
C55	C	0.948999	-1.098364	0.428580
C56	C	1.448999	-0.598364	0.928580
C57	C	1.042313	-1.098891	0.342643
C58	C	1.542313	-0.598891	0.842643
C59	C	1.045342	-1.025401	0.339810
C60	C	1.545342	-0.525401	0.839810
C61	C	1.000205	-0.988395	0.381366
C62	C	1.500205	-0.488395	0.881366
N63	N	0.963010	-0.880232	0.415563
N64	N	1.463010	-0.380232	0.915563
N65	N	1.003310	-0.913279	0.378470
N66	N	1.503310	-0.413279	0.878470
C67	C	0.683192	-0.430680	0.430462
C68	C	1.183192	0.069320	0.930462
C69	C	0.610101	-0.427422	0.427222
C70	C	1.110101	0.072578	0.927222
C71	C	0.577302	-0.379010	0.378954
C72	C	1.077302	0.120990	0.878954
C73	C	0.617596	-0.333849	0.333929
C74	C	1.117596	0.166151	0.833929
C75	C	0.690685	-0.337105	0.337173
C76	C	1.190685	0.162895	0.837173
C77	C	0.356807	-0.366836	0.366829
C78	C	0.856807	0.133164	0.866829
C79	C	0.283713	-0.363585	0.363587
C80	C	0.783713	0.136415	0.863587
C81	C	0.276223	-0.457157	0.456881
C82	C	0.776223	0.042843	0.956881
C83	C	0.349314	-0.460412	0.460118
C84	C	0.849314	0.039588	0.960118
C85	C	0.389602	-0.415248	0.415095
C86	C	0.889602	0.084752	0.915095
C87	C	0.502592	-0.375679	0.375640
C88	C	1.002592	0.124321	0.875640
C89	C	0.464311	-0.418576	0.418414
C90	C	0.964311	0.081424	0.918414
C91	C	1.165637	-0.405265	0.405141
C92	C	1.665637	0.094735	0.905141
C93	C	1.243424	-0.408741	0.408610
C94	C	1.743424	0.091259	0.908610
C95	C	0.975493	-0.404111	0.580530
C96	C	1.475493	0.095889	1.080530
C97	C	0.972252	-0.407095	0.658740
C98	C	1.472252	0.092905	1.158740
C99	C	0.990838	-0.213580	0.390009
C100	C	1.490838	0.286420	0.890009
C101	C	0.994137	-0.135372	0.387030
C102	C	1.494137	0.364628	0.887030
C103	C	0.990716	-0.390083	0.214183
C104	C	1.490716	0.109917	0.714183
C105	C	0.994101	-0.386907	0.135972
C106	C	1.494101	0.113093	0.635972
C107	C	1.017381	-0.365500	0.695766
C108	C	1.517381	0.134500	1.195766
C109	C	1.014327	-0.368301	0.769252
C110	C	1.514327	0.131699	1.269252
C111	C	0.966148	-0.412701	0.805710
C112	C	1.466148	0.087299	1.305710
C113	C	0.921014	-0.454297	0.768679
C114	C	1.421014	0.045703	1.268679
C115	C	0.924065	-0.451492	0.695194
C116	C	1.424065	0.048508	1.195194
C117	C	0.952018	-0.425698	1.025456
C118	C	1.452018	0.074302	1.525456
C119	C	0.948972	-0.428501	1.098946
C120	C	1.448972	0.071499	1.598946
C121	C	1.042285	-0.342504	1.099514
C122	C	1.542285	0.157496	1.599514
C123	C	1.045334	-0.339706	1.026028
C124	C	1.545334	0.160294	1.526028
C125	C	1.000198	-0.381299	0.989002
C126	C	1.500198	0.118701	1.489002
N127	N	0.963027	-0.415567	0.880825
N128	N	1.463027	0.084433	1.380825
N129	N	1.003316	-0.378429	0.913889
N130	N	1.503316	0.121571	1.413889
H131	H	1.051040	-0.798761	0.334445
H132	H	1.551040	-0.298761	0.834445
N133	N	0.905923	-0.987088	0.468202
N134	N	1.405923	-0.487088	0.968202
N135	N	0.862914	-1.019671	0.507824
N136	N	1.362914	-0.519671	1.007824
H137	H	0.830346	-0.992985	0.537808
H138	H	1.330346	-0.492985	1.037808
N139	N	1.094552	-0.988150	0.294466
N140	N	1.594552	-0.488150	0.794466
N141	N	1.134850	-1.021201	0.257371
N142	N	1.634850	-0.521201	0.757371
H143	H	1.169604	-0.994893	0.225344
H144	H	1.669604	-0.494893	0.725344
H145	H	0.881782	-0.490446	0.798369
H146	H	1.381782	0.009554	1.298369
N147	N	0.871773	-0.805374	0.499556
N148	N	1.371773	-0.305374	0.999556
N149	N	0.869069	-0.870988	0.502082
N150	N	1.369069	-0.370988	1.002082
H151	H	0.834321	-0.897312	0.534104
H152	H	1.334321	-0.397312	1.034104
H153	H	0.915274	-0.459577	0.995319
H154	H	1.415274	0.040423	1.495319
N155	N	0.899779	-1.135618	0.473917
N156	N	1.399779	-0.635618	0.973917
N157	N	0.859479	-1.102570	0.511013
N158	N	1.359479	-0.602570	1.011013
H159	H	0.824717	-1.128880	0.543029
H160	H	1.324717	-0.628880	1.043029
N161	N	0.584094	-0.284387	0.284635
N162	N	1.084094	0.215613	0.784635
N163	N	0.544170	-0.238719	0.305946
N164	N	1.044170	0.261281	0.805946
H165	H	0.520510	-0.203786	0.271131
H166	H	1.020510	0.296214	0.771131
N167	N	0.877909	-0.656798	0.493823
N168	N	1.377909	-0.156798	0.993823
N169	N	0.902337	-0.618560	0.538193
N170	N	1.402337	-0.118560	1.038193
H171	H	0.869782	-0.591852	0.568170
H172	H	1.369782	-0.091852	1.068170
H173	H	0.709891	-0.470105	0.469765
H174	H	1.209891	0.029895	0.969765
N175	N	0.899730	-0.473828	1.136189
N176	N	1.399730	0.026172	1.636189
N177	N	0.835694	-0.465929	1.124922
N178	N	1.335694	0.034071	1.624922
H179	H	0.800914	-0.497931	1.151229
H180	H	1.300914	0.002069	1.651229
N181	N	0.877957	-0.493980	0.657380
N182	N	1.377957	0.006020	1.157380
N183	N	0.834940	-0.533618	0.689939
N184	N	1.334940	-0.033618	1.189939
H185	H	0.802372	-0.563624	0.663234
H186	H	1.302372	-0.063624	1.163234
H187	H	0.376014	-0.499835	0.499421
H188	H	0.876014	0.000165	0.999421
H189	H	0.257010	-0.324155	0.324285
H190	H	0.757010	0.175845	0.824285
N191	N	1.066586	-0.320144	0.658517
N192	N	1.566586	0.179856	1.158517
N193	N	1.069304	-0.317642	0.592906
N194	N	1.569304	0.182358	1.092906
H195	H	1.104055	-0.285606	0.566598
H196	H	1.604055	0.214394	1.066598
H197	H	0.577301	-0.464193	0.463884
H198	H	1.077301	0.035807	0.963884
N199	N	0.235070	-0.503294	0.502862
N200	N	0.735070	-0.003294	1.002862
N201	N	0.193428	-0.545331	0.477933
N202	N	0.693428	-0.045331	0.977933
H203	H	0.164363	-0.577917	0.510410
H204	H	0.664363	-0.077917	1.010410
N205	N	1.066524	-0.657893	0.320095
N206	N	1.566524	-0.157893	0.820095
N207	N	1.106821	-0.690947	0.283001
N208	N	1.606821	-0.190947	0.783001
H209	H	1.141576	-0.664642	0.250974
H210	H	1.641576	-0.164642	0.750974
H211	H	0.389602	-0.330066	0.330163
H212	H	0.889602	0.169934	0.830163
H213	H	0.723488	-0.300330	0.300514
H214	H	1.223488	0.199670	0.800514
N215	N	0.497823	-0.468027	0.467706
N216	N	0.997823	0.031973	0.967706
N217	N	0.537751	-0.513688	0.446386
N218	N	1.037751	-0.013688	0.946386
H219	H	0.561426	-0.548615	0.481197
H220	H	1.061426	-0.048615	0.981197
H221	H	1.079062	-1.129029	0.308811
H222	H	1.579062	-0.629029	0.808811
H223	H	0.475878	-0.336264	0.336339
H224	H	0.975878	0.163736	0.836339
N225	N	1.060431	-0.325808	0.807062
N226	N	1.560431	0.174192	1.307062
N227	N	1.103448	-0.286173	0.774502
N228	N	1.603448	0.213827	1.274502
H229	H	1.136012	-0.256160	0.801205
H230	H	1.636012	0.243840	1.301205
N231	N	1.094559	-0.294355	0.988800
N232	N	1.594559	0.205645	1.488800
N233	N	1.134853	-0.257223	1.021869
N234	N	1.634853	0.242777	1.521869
H235	H	1.169623	-0.225196	0.995578
H236	H	1.669623	0.274804	1.495578
H237	H	1.079031	-0.308640	1.129668
H238	H	1.579031	0.191360	1.629668
