data_functionalizedCrystal
_audit_creation_method	'MofGen! by Chris Wilmer'
_symmetry_space_group_name_H-M	'P1'
_symmetry_Int_Tables_number	1
_symmetry_cell_setting	triclinic
loop_
_symmetry_equiv_pos_as_xyz
  x,y,z
_cell_length_a	19.188925
_cell_length_b	19.188930
_cell_length_c	17.666332
_cell_angle_alpha	90.011603
_cell_angle_beta	90.010303
_cell_angle_gamma	83.143665
loop_
_atom_site_label
_atom_site_type_symbol
_atom_site_fract_x
_atom_site_fract_y
_atom_site_fract_z
O1	O	0.926152	0.087151	0.062973
O2	O	0.722840	0.098889	0.062972
O3	O	0.830363	-0.008636	0.062958
O4	O	0.818629	0.194676	0.062987
O5	O	0.830344	-0.008642	-0.062939
O6	O	0.722821	0.098883	-0.062925
O7	O	0.926133	0.087145	-0.062924
Cu8	Cu	0.824476	0.093014	-0.074419
Cu9	Cu	0.824498	0.093020	0.074468
O10	O	0.818610	0.194670	-0.062909
C11	C	0.696820	0.098507	0.000023
C12	C	0.619315	0.097367	0.000022
C13	C	0.057545	0.152831	0.000032
C14	C	0.130368	0.153908	0.000037
C15	C	0.175302	0.090816	0.000026
C16	C	0.147408	0.026642	0.000031
C17	C	0.074586	0.025568	0.000034
N18	N	0.295973	0.045138	-0.042837
N19	N	0.365150	0.046163	-0.042842
C20	C	0.394712	0.094050	0.000018
N21	N	0.352481	0.140883	0.042872
N22	N	0.283297	0.139860	0.042874
C23	C	0.254267	0.091974	0.000023
C24	C	0.501561	0.159386	0.000023
C25	C	0.574385	0.160460	0.000032
C26	C	0.591425	0.033193	0.000018
C27	C	0.518601	0.032121	0.000017
C28	C	0.473673	0.095220	0.000016
C29	C	0.829974	-0.034650	0.000007
C30	C	0.828833	-0.112154	0.000001
C31	C	0.891924	-0.157079	-0.000003
C32	C	0.890852	-0.229903	0.000010
C33	C	0.826686	-0.257799	0.000010
C34	C	0.763587	-0.212864	0.000017
C35	C	0.764660	-0.140041	0.000013
N36	N	0.777632	-0.365805	-0.042835
N37	N	0.776617	-0.434983	-0.042833
C38	C	0.823448	-0.477207	0.000025
N39	N	0.871344	-0.447641	0.042871
N40	N	0.872361	-0.378456	0.042865
C41	C	0.825515	-0.336761	0.000015
C42	C	0.885381	-0.601097	0.000036
C43	C	0.884307	-0.673922	0.000053
C44	C	0.757040	-0.656880	0.000053
C45	C	0.758116	-0.584057	0.000044
C46	C	0.822289	-0.556170	0.000032
C47	C	0.952154	0.087527	0.000027
C48	C	1.029658	0.088666	0.000033
C49	C	0.819000	0.220684	0.000043
C50	C	0.820140	0.298188	0.000054
N51	N	0.824465	0.093008	-0.179139
C52	C	0.872092	0.045420	-0.218755
C53	C	0.872096	0.045416	-0.298003
C54	C	0.824480	0.093014	-0.337631
C55	C	0.776844	0.140606	-0.298005
C56	C	0.776837	0.140604	-0.218759
N57	N	0.815404	0.154821	-0.462041
N58	N	0.815415	0.154821	-0.537321
C59	C	0.824498	0.093023	-0.576395
N60	N	0.833584	0.031223	-0.537345
N61	N	0.833576	0.031223	-0.462057
C62	C	0.824482	0.093022	-0.423560
C63	C	0.872132	0.045427	-0.701940
C64	C	0.872131	0.045423	-0.781190
C65	C	0.776883	0.140619	-0.781191
C66	C	0.776880	0.140617	-0.701943
C67	C	0.824509	0.093022	-0.662323
N68	N	0.824514	0.093020	0.179187
H69	H	0.464978	0.210765	0.000023
C70	C	0.640086	-0.035384	0.000046
C71	C	0.600073	-0.091810	0.000061
C72	C	0.644879	-0.154995	0.000099
H73	H	0.668857	-0.037715	-0.043846
H74	H	0.668845	-0.037645	0.043966
H75	H	0.571326	-0.089550	-0.043855
H76	H	0.571303	-0.089503	0.043949
H77	H	0.673638	-0.157256	0.044020
H78	H	0.673648	-0.157318	-0.043793
H79	H	0.617737	-0.193287	0.000117
H80	H	0.937635	-0.578390	0.000030
C81	C	0.160520	0.223648	-0.000007
C82	C	0.105587	0.278676	-0.000025
C83	C	0.133334	0.342929	-0.000076
H84	H	0.188573	0.226820	0.043881
H85	H	0.188544	0.226739	-0.043931
H86	H	0.077575	0.275586	0.043894
H87	H	0.077530	0.275527	-0.043910
H88	H	0.161358	0.346020	-0.044000
H89	H	0.161387	0.346093	0.043812
H90	H	0.096067	0.380273	-0.000096
C91	C	0.689690	-0.535160	0.000078
C92	C	0.704363	-0.465416	0.000093
C93	C	0.641344	-0.420353	0.000139
H94	H	0.663310	-0.543512	-0.043811
H95	H	0.663372	-0.543544	0.044000
H96	H	0.730670	-0.457035	-0.043824
H97	H	0.730733	-0.457042	0.043980
H98	H	0.615026	-0.428736	0.044061
H99	H	0.614969	-0.428711	-0.043751
H100	H	0.651291	-0.373026	0.000156
H101	H	0.597088	0.212713	0.000038
H102	H	0.738111	0.179371	-0.813456
C103	C	0.488282	-0.037526	0.000165
C104	C	0.447000	-0.041864	0.064948
C105	C	0.419068	-0.106019	0.065119
H106	H	0.460172	-0.040665	-0.043685
H107	H	0.525453	-0.074968	0.000201
H108	H	0.409834	-0.004432	0.064906
H109	H	0.475095	-0.038737	0.108809
H110	H	0.456239	-0.143461	0.065154
H111	H	0.390961	-0.109152	0.021266
H112	H	0.391061	-0.108973	0.109076
H113	H	0.942230	-0.266488	0.000010
C114	C	0.961667	-0.126938	0.000028
C115	C	1.016691	-0.181875	0.000047
C116	C	1.080947	-0.154134	0.000086
H117	H	0.964823	-0.098904	-0.043864
H118	H	0.964779	-0.098896	0.043948
H119	H	1.013581	-0.209906	-0.043868
H120	H	1.013558	-0.209914	0.043936
H121	H	1.084059	-0.126092	0.044006
H122	H	1.084096	-0.126101	-0.043807
H123	H	1.118288	-0.191404	0.000106
H124	H	0.713282	-0.103462	0.000015
H125	H	0.738101	0.179371	-0.669686
H126	H	0.935686	-0.710500	0.000054
C127	C	0.687300	-0.687022	0.000092
C128	C	0.632275	-0.632086	0.000108
C129	C	0.568020	-0.659828	0.000158
H130	H	0.684129	-0.715076	-0.043796
H131	H	0.684205	-0.715044	0.044016
H132	H	0.635369	-0.604075	-0.043811
H133	H	0.635423	-0.604027	0.043993
H134	H	0.564925	-0.687851	0.044082
H135	H	0.564856	-0.687882	-0.043731
H136	H	0.530678	-0.622559	0.000176
H137	H	0.711342	-0.235581	0.000019
C138	C	0.923826	-0.006338	-0.175876
C139	C	0.965524	-0.048028	-0.227539
C140	C	1.013182	-0.095722	-0.188066
H141	H	0.952875	0.018622	-0.144942
H142	H	0.898816	-0.035382	-0.144997
H143	H	0.990533	-0.018988	-0.258406
H144	H	0.936495	-0.073003	-0.258475
H145	H	0.988172	-0.124766	-0.157186
H146	H	1.042225	-0.070756	-0.157132
H147	H	1.041475	-0.124019	-0.223112
C148	C	0.923696	-0.006331	-0.341071
C149	C	0.886643	-0.048989	-0.386577
C150	C	0.934152	-0.096671	-0.426253
H151	H	0.952696	0.018639	-0.372031
H152	H	0.952051	-0.034720	-0.306152
H153	H	0.858300	-0.020604	-0.421492
H154	H	0.857646	-0.073975	-0.355636
H155	H	0.962507	-0.125060	-0.391334
H156	H	0.963150	-0.071695	-0.457209
H157	H	0.909019	-0.125625	-0.457128
C158	C	0.725225	0.192254	-0.341164
C159	C	0.735438	0.182085	-0.419044
C160	C	0.687902	0.229655	-0.458824
H161	H	0.678621	0.184832	-0.328286
H162	H	0.732666	0.238848	-0.328203
H163	H	0.727992	0.135501	-0.431999
H164	H	0.782033	0.189512	-0.431944
H165	H	0.695343	0.276249	-0.445864
H166	H	0.641301	0.222229	-0.445940
H167	H	0.694830	0.222766	-0.511670
C168	C	0.725097	0.192356	-0.175880
C169	C	0.683406	0.234052	-0.227542
C170	C	0.635743	0.281742	-0.188067
H171	H	0.696045	0.167394	-0.144975
H172	H	0.750104	0.221397	-0.144970
H173	H	0.658401	0.205014	-0.258439
H174	H	0.712439	0.259030	-0.258448
H175	H	0.660749	0.310783	-0.157157
H176	H	0.606696	0.256773	-0.157164
H177	H	0.607454	0.310042	-0.223114
H178	H	0.910911	0.006670	-0.669680
H179	H	0.051883	-0.026685	0.000035
H180	H	0.910912	0.006666	-0.813446
H181	H	0.020968	0.204211	0.000035
H182	H	0.183999	-0.024728	0.000024
