data_functionalizedCrystal
_audit_creation_method	'MofGen! by Chris Wilmer'
_symmetry_space_group_name_H-M	'P1'
_symmetry_Int_Tables_number	1
_symmetry_cell_setting	triclinic
loop_
_symmetry_equiv_pos_as_xyz
  x,y,z
_cell_length_a	13.262522
_cell_length_b	14.519731
_cell_length_c	12.376457
_cell_angle_alpha	101.297478
_cell_angle_beta	63.170097
_cell_angle_gamma	84.074474
loop_
_atom_site_label
_atom_site_type_symbol
_atom_site_fract_x
_atom_site_fract_y
_atom_site_fract_z
O1	O	1.512407	0.019557	-0.558970
O2	O	2.012407	0.519557	-0.058970
O3	O	1.185357	0.051890	-0.458427
O4	O	1.685357	0.551890	0.041573
O5	O	1.357538	-0.098991	-0.511349
O6	O	1.857538	0.401009	-0.011349
O7	O	1.340225	0.170438	-0.506047
O8	O	1.840225	0.670438	-0.006047
O9	O	1.314508	-0.061320	-0.310111
O10	O	1.814508	0.438680	0.189889
O11	O	1.142326	0.089561	-0.257189
O12	O	1.642326	0.589561	0.242811
O13	O	1.469377	0.057228	-0.357732
O14	O	1.969377	0.557228	0.142268
Zn15	Zn	1.299020	0.079376	-0.275509
Zn16	Zn	1.799020	0.579376	0.224491
Zn17	Zn	1.355714	0.029742	-0.540649
Zn18	Zn	1.855714	0.529742	-0.040649
O19	O	1.297195	0.208109	-0.304809
O20	O	1.797195	0.708109	0.195191
C21	C	1.121985	0.072378	-0.344940
C22	C	1.621985	0.572378	0.155060
C23	C	0.997267	0.077290	-0.306598
C24	C	1.497267	0.577290	0.193402
C25	C	1.335212	-0.114470	-0.410480
C26	C	1.835212	0.385530	0.089520
C27	C	1.332780	-0.216715	-0.409732
C28	C	1.832780	0.283285	0.090268
C29	C	0.915224	0.100136	-0.178883
C30	C	1.415224	0.600136	0.321117
C31	C	0.798044	0.104744	-0.142850
C32	C	1.298044	0.604744	0.357150
C33	C	0.762894	0.086515	-0.234527
C34	C	1.262894	0.586515	0.265473
C35	C	0.844937	0.063676	-0.362244
C36	C	1.344937	0.563676	0.137756
C37	C	0.962129	0.059060	-0.398281
C38	C	1.462129	0.559060	0.101719
C39	C	0.809799	0.045440	-0.453925
C40	C	1.309799	0.545440	0.046075
C41	C	0.891842	0.022601	-0.581642
C42	C	1.391842	0.522601	-0.081642
C43	C	1.009022	0.017986	-0.617673
C44	C	1.509022	0.517986	-0.117673
C45	C	1.044172	0.036215	-0.525996
C46	C	1.544172	0.536215	-0.025996
C47	C	0.692607	0.050056	-0.417888
C48	C	1.192607	0.550056	0.082112
C49	C	0.739512	0.008981	-0.637286
C50	C	1.239512	0.508981	-0.137286
C51	C	0.856692	0.004372	-0.673319
C52	C	1.356692	0.504372	-0.173319
C53	C	1.330805	-0.299751	-0.409128
C54	C	1.830805	0.200249	0.090872
C55	C	1.328338	-0.403924	-0.408378
C56	C	1.828338	0.096076	0.091622
C57	C	1.326381	-0.486956	-0.407783
C58	C	1.826381	0.013044	0.092217
C59	C	1.323914	-0.591137	-0.407031
C60	C	1.823914	-0.091137	0.092969
C61	C	1.532749	0.036740	-0.471221
C62	C	2.032749	0.536740	0.028779
C63	C	1.657469	0.031826	-0.509571
C64	C	2.157469	0.531826	-0.009571
C65	C	1.319523	0.223587	-0.405681
C66	C	1.819523	0.723587	0.094319
C67	C	1.321956	0.325831	-0.406437
C68	C	1.821956	0.825831	0.093563
N69	N	1.260336	0.113248	-0.094561
N70	N	1.760336	0.613248	0.405439
N71	N	1.394407	-0.004138	-0.721600
N72	N	1.894407	0.495862	-0.221600
C73	C	1.484205	-0.082784	0.191615
C74	C	1.984205	0.417216	0.691615
C75	C	1.511274	-0.106492	0.064955
C76	C	2.011274	0.393508	0.564955
C77	C	1.448541	-0.051559	0.025069
C78	C	1.948541	0.448441	0.525069
C79	C	1.358736	0.027085	0.111857
C80	C	1.858736	0.527085	0.611857
C81	C	1.331670	0.050799	0.238527
C82	C	1.831670	0.550799	0.738527
C83	C	1.296007	0.082025	0.071982
C84	C	1.796007	0.582025	0.571982
C85	C	1.206201	0.160669	0.158769
C86	C	1.706201	0.660669	0.658769
C87	C	1.179140	0.184379	0.285427
C88	C	1.679140	0.684379	0.785427
C89	C	1.241872	0.129446	0.325312
C90	C	1.741872	0.629446	0.825312
C91	C	1.323072	0.058311	-0.054688
C92	C	1.823072	0.558311	0.445312
C93	C	1.170538	0.191895	-0.007776
C94	C	1.670538	0.691895	0.492224
C95	C	1.143469	0.215602	0.118884
C96	C	1.643469	0.715602	0.618884
H97	H	0.625817	0.068660	-0.313899
H98	H	1.125817	0.568660	0.186101
H99	H	0.667479	0.090271	-0.205181
H100	H	1.167479	0.590271	0.294819
H101	H	1.584393	-0.170522	-0.005703
H102	H	2.084393	0.329478	0.494297
H103	H	1.139587	0.032467	-0.555328
H104	H	1.639587	0.532467	-0.055328
H105	H	1.119457	0.236628	-0.040249
H106	H	1.619457	0.736628	0.459751
H107	H	1.535279	-0.127499	0.224098
H108	H	2.035279	0.372501	0.724098
H109	H	1.219831	0.148745	0.428449
H110	H	1.719831	0.648745	0.928449
H111	H	1.470585	-0.070865	-0.078064
H112	H	1.970585	0.429135	0.421936
H113	H	1.106024	0.248422	0.356088
H114	H	1.606024	0.748422	0.856088
H115	H	1.075822	-0.000624	-0.721669
H116	H	1.575822	0.499376	-0.221669
H117	H	1.396192	-0.005721	-0.125340
H118	H	1.896192	0.494279	0.374660
H119	H	1.070348	0.279636	0.189561
H120	H	1.570348	0.779636	0.689561
H121	H	0.710895	-0.005861	-0.711937
H122	H	1.210895	0.494139	-0.211937
H123	H	0.731255	0.123327	-0.038864
H124	H	1.231255	0.623327	0.461136
H125	H	0.943857	0.114967	-0.104254
H126	H	1.443857	0.614967	0.395746
H127	H	0.923507	-0.014224	-0.777308
H128	H	1.423507	0.485776	-0.277308
