data_functionalizedCrystal
_audit_creation_method	'MofGen! by Chris Wilmer'
_symmetry_space_group_name_H-M	'P1'
_symmetry_Int_Tables_number	1
_symmetry_cell_setting	triclinic
loop_
_symmetry_equiv_pos_as_xyz
  x,y,z
_cell_length_a	12.811438
_cell_length_b	12.837942
_cell_length_c	7.540329
_cell_angle_alpha	89.996889
_cell_angle_beta	84.565582
_cell_angle_gamma	89.411773
loop_
_atom_site_label
_atom_site_type_symbol
_atom_site_fract_x
_atom_site_fract_y
_atom_site_fract_z
O1	O	1.406644	0.139685	-0.373704
O2	O	1.102578	0.154873	-0.324806
O3	O	1.247869	-0.003653	-0.348160
O4	O	1.261353	0.298211	-0.350350
O5	O	1.247859	-0.003655	-0.053193
O6	O	1.102569	0.154871	-0.029840
O7	O	1.406634	0.139683	-0.078737
Cu8	Cu	1.254600	0.147277	-0.027356
Cu9	Cu	1.254612	0.147279	-0.376188
O10	O	1.261343	0.298209	-0.055384
C11	C	1.063384	0.154021	-0.171021
C12	C	0.946611	0.151472	-0.152242
C13	C	0.782020	0.147879	0.035002
C14	C	0.891739	0.150274	0.017366
C15	C	0.891758	0.150277	-0.304225
C16	C	0.782039	0.147882	-0.286588
C17	C	0.727175	0.146681	-0.116969
C18	C	0.617454	0.144278	-0.099335
C19	C	0.617475	0.144289	-0.420923
C20	C	0.727194	0.146684	-0.438560
C21	C	1.243308	-0.042294	-0.199945
C22	C	1.229722	-0.157430	-0.197763
C23	C	1.393052	-0.397684	-0.224066
C24	C	1.380292	-0.505865	-0.222017
C25	C	1.191442	-0.481975	-0.191629
C26	C	1.204202	-0.373794	-0.193678
C27	C	1.305011	-0.331653	-0.209894
C28	C	1.317770	-0.223470	-0.211930
C29	C	1.128921	-0.199582	-0.181555
C30	C	1.116161	-0.307763	-0.179506
C31	C	1.445828	0.140535	-0.232527
C32	C	1.562601	0.143084	-0.251317
C33	C	1.265904	0.336850	-0.203602
C34	C	1.279490	0.451986	-0.205796
N35	N	1.254600	0.147274	0.217993
N36	N	1.254620	0.147273	-0.621538
H37	H	0.936447	0.151264	-0.442320
Br38	Br	1.009429	-0.109962	-0.162290
Br39	Br	1.499782	-0.595477	-0.241263
Br40	Br	0.979356	-0.364964	-0.157522
Br41	Br	0.966170	0.151907	0.223621
Br42	Br	0.542995	0.142639	0.130858
Br43	Br	0.707557	0.146220	0.265190
H44	H	0.771879	0.147666	-0.576658
Br45	Br	0.543035	0.142697	-0.627183
H46	H	1.109368	-0.516306	-0.178445
Br47	Br	1.454579	-0.166278	-0.233919
Br48	Br	1.529858	-0.340486	-0.246018
