data_functionalizedCrystal
_audit_creation_method	'MofGen! by Chris Wilmer'
_symmetry_space_group_name_H-M	'P1'
_symmetry_Int_Tables_number	1
_symmetry_cell_setting	triclinic
loop_
_symmetry_equiv_pos_as_xyz
  x,y,z
_cell_length_a	12.811438
_cell_length_b	12.811415
_cell_length_c	15.186229
_cell_angle_alpha	84.565396
_cell_angle_beta	84.565184
_cell_angle_gamma	83.527069
loop_
_atom_site_label
_atom_site_type_symbol
_atom_site_fract_x
_atom_site_fract_y
_atom_site_fract_z
O1	O	1.393292	0.141376	-0.195775
O2	O	1.087775	0.156748	-0.172608
O3	O	1.248219	-0.003697	-0.172603
O4	O	1.232847	0.301821	-0.195781
O5	O	1.248209	-0.003699	-0.026144
O6	O	1.087764	0.156746	-0.026150
O7	O	1.393281	0.141374	-0.049317
Zn8	Zn	1.240521	0.149059	-0.014480
Zn9	Zn	1.240535	0.149062	-0.207445
O10	O	1.232837	0.301819	-0.049322
C11	C	1.048661	0.155885	-0.096187
C12	C	0.932132	0.153306	-0.086677
C13	C	0.767884	0.149669	0.006558
C14	C	0.877373	0.152093	-0.002375
C15	C	0.877393	0.152097	-0.162052
C16	C	0.767904	0.149672	-0.153120
C17	C	0.713153	0.148457	-0.068812
C18	C	0.603662	0.146025	-0.059880
C19	C	0.603684	0.146036	-0.219558
C20	C	0.713173	0.148460	-0.228490
C21	C	1.247352	-0.042806	-0.096183
C22	C	1.244773	-0.159335	-0.086673
C23	C	1.239918	-0.378293	-0.228491
C24	C	1.237494	-0.487782	-0.219560
C25	C	1.237493	-0.487806	-0.059883
C26	C	1.239917	-0.378316	-0.068813
C27	C	1.241131	-0.323563	-0.153120
C28	C	1.243562	-0.214073	-0.162050
C29	C	1.243554	-0.214097	-0.002373
C30	C	1.241130	-0.323587	0.006558
C31	C	1.432394	0.142236	-0.125740
C32	C	1.548924	0.144816	-0.135256
C33	C	1.233703	0.340928	-0.125744
C34	C	1.236283	0.457457	-0.135259
N35	N	1.240519	0.149057	0.117213
N36	N	1.240545	0.149057	-0.339138
C37	C	1.311588	0.078036	0.342934
C38	C	1.311591	0.078033	0.435124
C39	C	1.169468	0.220081	0.435134
C40	C	1.169461	0.220078	0.342947
C41	C	1.240527	0.149056	0.296849
C42	C	1.240537	0.149057	0.481226
C43	C	1.240541	0.149055	0.581182
C44	C	1.240523	0.149057	0.196887
H45	H	0.921930	0.153084	0.058999
H46	H	1.111589	0.277912	0.305422
C47	C	1.236135	-0.548049	0.032849
N48	N	1.235107	-0.593426	0.102696
H49	H	1.244546	-0.169526	0.059000
C50	C	1.389756	-0.000104	0.485815
N51	N	1.448630	-0.058964	0.523996
C52	C	0.543438	0.144694	0.032859
N53	N	0.498078	0.143697	0.102712
H54	H	0.559110	0.145052	-0.280930
C55	C	0.773412	0.149792	-0.321223
N56	N	0.818784	0.150789	-0.391072
C57	C	1.091298	0.298198	0.485851
N58	N	1.032419	0.357038	0.524050
H59	H	0.921989	0.153096	-0.230692
C60	C	0.707657	0.148324	0.099296
N61	N	0.662295	0.147312	0.169149
C62	C	1.244894	-0.153846	-0.254788
N63	N	1.245892	-0.108486	-0.324641
C64	C	1.241259	-0.318063	-0.321228
N65	N	1.242268	-0.272700	-0.391080
H66	H	1.236502	-0.532338	-0.280935
H67	H	1.240138	-0.368181	0.075198
H68	H	1.369453	0.020204	0.305404
