data_functionalizedCrystal
_audit_creation_method	'MofGen! by Chris Wilmer'
_symmetry_space_group_name_H-M	'P1'
_symmetry_Int_Tables_number	1
_symmetry_cell_setting	triclinic
loop_
_symmetry_equiv_pos_as_xyz
  x,y,z
_cell_length_a	19.121102
_cell_length_b	19.120786
_cell_length_c	11.169409
_cell_angle_alpha	87.520717
_cell_angle_beta	87.537729
_cell_angle_gamma	89.915559
loop_
_atom_site_label
_atom_site_type_symbol
_atom_site_fract_x
_atom_site_fract_y
_atom_site_fract_z
Zn1	Zn	1.059892	-0.324859	-0.732072
Zn2	Zn	1.054794	-0.442123	-0.522444
Zn3	Zn	0.942646	-0.319891	-0.523221
Zn4	Zn	0.937621	-0.437058	-0.714915
O5	O	0.998738	-0.380983	-0.623163
O6	O	1.157322	-0.344613	-0.711119
O7	O	1.039887	-0.425949	-0.354592
O8	O	0.962436	-0.222440	-0.558431
O9	O	1.153576	-0.430767	-0.557106
O10	O	1.048576	-0.226090	-0.711873
O11	O	0.957492	-0.336146	-0.355163
O12	O	0.843874	-0.331234	-0.541794
O13	O	0.953871	-0.422134	-0.885146
O14	O	0.840182	-0.417316	-0.682632
O15	O	1.043704	-0.339702	-0.897751
O16	O	1.035014	-0.539561	-0.540470
O17	O	0.948927	-0.535839	-0.681878
C18	C	0.816590	-0.373187	-0.610436
C19	C	0.738666	-0.369869	-0.605019
C20	C	0.700150	-0.413196	-0.675674
C21	C	0.626932	-0.410069	-0.670591
C22	C	0.592231	-0.363618	-0.594844
C23	C	0.630752	-0.320286	-0.524186
C24	C	0.703969	-0.323410	-0.529277
C25	C	0.371259	-0.351937	-0.575817
C26	C	0.298037	-0.348817	-0.570729
C27	C	0.294222	-0.438600	-0.717136
C28	C	0.367440	-0.441722	-0.722215
C29	C	0.405955	-0.398388	-0.651561
C30	C	0.517390	-0.360422	-0.589644
C31	C	0.480794	-0.401581	-0.656769
C32	C	0.990891	-0.563140	-0.609255
C33	C	0.987598	-0.641070	-0.603350
C34	C	1.030867	-0.679521	-0.680525
C35	C	1.027770	-0.752744	-0.674979
C36	C	0.981408	-0.787516	-0.592250
C37	C	0.938135	-0.749061	-0.515072
C38	C	0.941228	-0.675838	-0.520625
C39	C	0.969821	-1.008509	-0.571489
C40	C	0.966732	-1.081737	-0.565939
C41	C	1.056367	-1.085416	-0.725848
C42	C	1.059459	-1.012192	-0.731389
C43	C	1.016184	-0.973742	-0.654215
C44	C	0.978243	-0.862363	-0.586576
C45	C	1.019346	-0.898897	-0.659895
C46	C	1.181598	-0.388809	-0.635940
C47	C	1.259521	-0.392144	-0.641385
C48	C	0.998795	-0.380907	-0.936215
C49	C	0.998820	-0.380875	-1.069619
C50	C	1.006635	-0.198115	-0.637152
C51	C	1.010000	-0.120187	-0.643114
C52	C	0.998724	-0.381009	-0.311335
C53	C	0.998844	-0.380849	-0.177956
H54	H	0.728398	-0.451024	-0.737351
F55	F	0.593819	-0.270845	-0.443579
F56	F	0.517727	-0.451015	-0.737383
F57	F	0.404366	-0.491163	-0.802832
F58	F	1.068682	-0.861888	-0.747944
F59	F	0.895175	-0.634916	-0.438486
F60	F	0.253227	-0.484717	-0.792323
H61	H	0.402609	-0.316656	-0.518277
F62	F	0.744960	-0.277294	-0.454078
H63	H	0.940496	-0.890683	-0.519216
F64	F	0.261107	-0.299380	-0.490098
F65	F	1.108804	-0.975190	-0.819440
F66	F	0.917387	-1.118742	-0.477881
H67	H	1.068623	-0.651214	-0.747886
F68	F	0.585944	-0.456183	-0.745793
H69	H	0.489129	-0.322603	-0.527968
H70	H	1.063009	-0.784048	-0.737814
H71	H	0.900383	-0.777378	-0.447718
H72	H	1.091598	-1.116729	-0.788679
F73	F	0.923758	-0.967597	-0.489361
