data_functionalizedCrystal
_audit_creation_method	'MofGen! by Chris Wilmer'
_symmetry_space_group_name_H-M	'P1'
_symmetry_Int_Tables_number	1
_symmetry_cell_setting	triclinic
loop_
_symmetry_equiv_pos_as_xyz
  x,y,z
_cell_length_a	14.044220
_cell_length_b	14.044190
_cell_length_c	12.376457
_cell_angle_alpha	102.316217
_cell_angle_beta	77.668079
_cell_angle_gamma	93.190328
loop_
_atom_site_label
_atom_site_type_symbol
_atom_site_fract_x
_atom_site_fract_y
_atom_site_fract_z
O1	O	1.293917	0.213435	-0.093904
O2	O	1.017250	0.205125	-0.093932
O3	O	1.151424	0.070947	-0.093896
O4	O	1.159744	0.347612	-0.093940
O5	O	1.117889	0.104443	0.094107
O6	O	0.983716	0.238620	0.094071
O7	O	1.260383	0.246931	0.094099
Zn8	Zn	1.116725	0.248093	0.123935
Zn9	Zn	1.160908	0.203962	-0.123768
O10	O	1.126210	0.381108	0.094063
C11	C	0.964862	0.218236	0.000066
C12	C	0.858721	0.207390	0.000057
C13	C	0.664378	0.187568	0.000082
C14	C	0.613251	0.264481	0.000075
C15	C	0.505112	0.253452	0.000089
C16	C	0.772527	0.198596	0.000068
C17	C	1.131019	0.052074	0.000108
C18	C	1.120170	-0.054068	0.000117
C19	C	1.177278	-0.299533	0.000078
C20	C	1.100361	-0.248408	0.000079
C21	C	1.111386	-0.140267	0.000100
C22	C	1.166255	-0.407684	0.000057
C23	C	1.312772	0.233819	0.000098
C24	C	1.418914	0.244664	0.000100
C25	C	1.146614	0.399981	0.000056
C26	C	1.157464	0.506121	0.000040
N27	N	1.086578	0.278212	0.292985
N28	N	1.191062	0.173836	-0.292818
C29	C	1.261041	0.103902	0.648016
C30	C	1.282135	0.082821	0.529682
C31	C	1.233248	0.131667	0.470502
C32	C	1.163262	0.201597	0.529668
C33	C	1.142171	0.222686	0.648014
C34	C	1.114378	0.250451	0.470499
C35	C	1.044392	0.320381	0.529665
C36	C	1.023304	0.341465	0.647999
C37	C	1.072192	0.292620	0.707179
C38	C	1.135469	0.229362	0.352153
C39	C	1.016599	0.348146	0.352151
C40	C	0.995505	0.369227	0.470485
H41	H	0.650695	0.338612	0.000058
H42	H	0.626936	0.113443	0.000100
Br43	Br	1.300825	-0.237123	0.000106
Br44	Br	0.976804	-0.310814	0.000061
H45	H	1.192451	0.172425	0.303991
H46	H	1.250426	0.114500	0.374149
Br47	Br	1.377113	-0.012076	0.449387
Br48	Br	1.327394	0.037630	0.728331
H49	H	1.055015	0.309780	0.803537
Br50	Br	0.928340	0.436385	0.728299
H51	H	0.938521	0.426166	0.518672
Br52	Br	0.950254	0.414448	0.271844
