data_functionalizedCrystal
_audit_creation_method	'MofGen! by Chris Wilmer'
_symmetry_space_group_name_H-M	'P1'
_symmetry_Int_Tables_number	1
_symmetry_cell_setting	triclinic
loop_
_symmetry_equiv_pos_as_xyz
  x,y,z
_cell_length_a	15.995300
_cell_length_b	15.995350
_cell_length_c	9.130307
_cell_angle_alpha	89.998938
_cell_angle_beta	89.996894
_cell_angle_gamma	83.482091
loop_
_atom_site_label
_atom_site_type_symbol
_atom_site_fract_x
_atom_site_fract_y
_atom_site_fract_z
O1	O	1.111008	0.107725	-0.121846
O2	O	0.867227	0.121096	-0.121836
O3	O	0.995782	-0.007479	-0.121840
O4	O	0.982454	0.236299	-0.121842
O5	O	0.995778	-0.007480	0.121759
O6	O	0.867223	0.121095	0.121763
O7	O	1.111004	0.107723	0.121753
Cu8	Cu	0.989113	0.114409	0.144001
Cu9	Cu	0.989118	0.114410	-0.144083
O10	O	0.982450	0.236298	0.121757
C11	C	0.836030	0.120550	-0.000035
C12	C	0.743077	0.118915	-0.000032
C13	C	0.572894	0.115896	-0.000043
C14	C	0.525428	0.207443	-0.000041
C15	C	0.428740	0.205773	-0.000597
C16	C	0.405337	0.112924	-0.000052
C17	C	0.446473	0.067504	-0.138885
C18	C	0.543106	0.069821	-0.138997
C19	C	0.543380	0.068464	0.138030
C20	C	0.446436	0.068472	0.139851
C21	C	0.310642	0.111239	-0.000063
C22	C	0.667590	0.117577	-0.000043
C23	C	0.995229	-0.038674	-0.000043
C24	C	0.993577	-0.131624	-0.000051
C25	C	0.987644	-0.469370	-0.000046
C26	C	0.896090	-0.421920	-0.000589
C27	C	0.897743	-0.325230	-0.000040
C28	C	0.990587	-0.301810	-0.000049
C29	C	1.035742	-0.342897	0.139053
C30	C	1.033442	-0.439532	0.139170
C31	C	1.035338	-0.439889	-0.137848
C32	C	1.035317	-0.342944	-0.139686
C33	C	0.992255	-0.207113	-0.000047
C34	C	0.985979	-0.564068	-0.000039
C35	C	1.142202	0.108269	-0.000051
C36	C	1.235154	0.109904	-0.000064
C37	C	0.983003	0.267493	-0.000043
C38	C	0.984655	0.360443	-0.000044
N39	N	0.989116	0.114407	0.346623
N40	N	0.989122	0.114405	-0.346706
C41	C	1.102997	0.000587	0.346610
C42	C	1.159943	-0.056320	0.423270
C43	C	1.159952	-0.056321	0.576604
C44	C	1.103006	0.000591	0.653280
C45	C	1.046060	0.057498	0.576620
C46	C	1.046059	0.057494	0.423284
C47	C	0.932176	0.171313	0.576634
C48	C	0.932170	0.171319	0.423300
C49	C	0.875231	0.228224	0.653311
C50	C	0.818287	0.285138	0.576651
C51	C	0.818282	0.285136	0.423308
C52	C	0.875224	0.228227	0.346640
H53	H	0.545039	0.243686	-0.099449
H54	H	0.400275	0.241462	0.098901
N55	N	0.391846	0.252836	-0.133196
H56	H	0.438402	0.274745	-0.191518
H57	H	0.362033	0.213625	-0.196237
H58	H	1.000512	-0.457828	0.243158
N59	N	0.850415	-0.288300	0.132275
H60	H	0.790241	-0.301640	0.128003
H61	H	0.878070	-0.313271	0.224230
H62	H	0.561427	0.102556	-0.243170
N63	N	1.221368	-0.117698	0.659298
H64	H	1.257442	-0.153752	0.587464
H65	H	1.258377	-0.085617	0.722903
N66	N	1.124756	-0.481963	-0.139090
H67	H	1.155090	-0.462778	-0.227850
H68	H	1.154549	-0.466246	-0.047293
N69	N	0.756852	0.346514	0.340639
H70	H	0.766483	0.405947	0.367322
H71	H	0.765514	0.337811	0.231892
H72	H	1.103003	0.000589	0.221758
H73	H	0.563879	0.098604	0.243291
N74	N	1.221341	-0.117721	0.340572
H75	H	1.212694	-0.109093	0.231803
H76	H	1.280744	-0.108036	0.367345
H77	H	1.103009	0.000580	0.778133
H78	H	0.418089	0.098644	-0.242593
N79	N	0.549920	0.256187	0.131801
H80	H	0.592024	0.219403	0.192810
H81	H	0.575850	0.307602	0.098174
H82	H	0.419094	0.101640	0.242561
N83	N	0.426068	-0.021176	0.151577
H84	H	0.389758	-0.034308	0.065972
H85	H	0.479989	-0.060710	0.150653
H86	H	0.575379	0.002597	-0.144929
N87	N	1.125005	-0.322622	-0.150832
H88	H	1.125512	-0.259638	-0.157037
H89	H	1.157442	-0.344800	-0.061401
N90	N	0.875233	0.228225	0.818691
H91	H	0.919950	0.183542	0.855623
H92	H	0.887376	0.285155	0.855495
H93	H	0.771922	0.331467	0.639090
H94	H	0.432373	-0.000719	-0.143657
N95	N	0.875222	0.228230	0.181260
H96	H	0.919936	0.183543	0.144325
H97	H	0.818307	0.216044	0.144454
H98	H	0.575161	0.000967	0.139366
H99	H	1.005407	-0.460423	-0.243280
N100	N	1.122478	-0.482261	0.147560
H101	H	1.129249	-0.518139	0.238746
H102	H	1.134742	-0.518927	0.058334
H103	H	0.862247	-0.296801	-0.099754
H104	H	0.859658	-0.441508	0.098611
N105	N	0.847608	-0.446456	-0.132710
H106	H	0.877434	-0.431453	-0.224931
H107	H	0.843877	-0.509054	-0.130653
N108	N	1.126099	-0.324216	0.145858
H109	H	1.127844	-0.261346	0.150279
H110	H	1.153860	-0.351284	0.236110
N111	N	0.994211	-0.305291	0.276188
H112	H	0.946155	-0.261651	0.248526
H113	H	0.971984	-0.351148	0.335818
H114	H	1.002302	-0.315689	-0.242591
