data_functionalizedCrystal
_audit_creation_method	'MofGen! by Chris Wilmer'
_symmetry_space_group_name_H-M	'P1'
_symmetry_Int_Tables_number	1
_symmetry_cell_setting	triclinic
loop_
_symmetry_equiv_pos_as_xyz
  x,y,z
_cell_length_a	14.908520
_cell_length_b	12.759401
_cell_length_c	14.908308
_cell_angle_alpha	93.279723
_cell_angle_beta	96.360765
_cell_angle_gamma	93.322137
loop_
_atom_site_label
_atom_site_type_symbol
_atom_site_fract_x
_atom_site_fract_y
_atom_site_fract_z
Zn1	Zn	-0.389838	1.544174	-0.532530
Zn2	Zn	0.110162	2.044174	-0.032530
Zn3	Zn	-0.532484	1.544055	-0.389900
Zn4	Zn	-0.032484	2.044055	0.110100
Zn5	Zn	-0.381145	1.379242	-0.381192
Zn6	Zn	0.118855	1.879242	0.118808
Zn7	Zn	-0.541161	1.357688	-0.541214
Zn8	Zn	-0.041161	1.857688	-0.041214
O9	O	-0.461157	1.456290	-0.461209
O10	O	0.038843	1.956290	0.038791
O11	O	-0.408767	1.691178	-0.513620
O12	O	0.091233	2.191178	-0.013620
O13	O	-0.505138	1.531163	-0.262084
O14	O	-0.005138	2.031163	0.237916
O15	O	-0.255633	1.410191	-0.393988
O16	O	0.244367	1.910191	0.106012
O17	O	-0.513568	1.691090	-0.408831
O18	O	-0.013568	2.191090	0.091169
O19	O	-0.262020	1.531366	-0.505176
O20	O	0.237980	2.031366	-0.005176
O21	O	-0.393950	1.410075	-0.255686
O22	O	0.106050	1.910075	0.244314
O23	O	-0.402364	1.229363	-0.402409
O24	O	0.097636	1.729363	0.097591
O25	O	-0.528357	1.373455	-0.666722
O26	O	-0.028357	1.873455	-0.166722
O27	O	-0.519927	1.213527	-0.519976
O28	O	-0.019927	1.713527	-0.019976
O29	O	-0.417181	1.510466	-0.660343
O30	O	0.082819	2.010466	-0.160343
O31	O	-0.660300	1.510262	-0.417251
O32	O	-0.160300	2.010262	0.082749
O33	O	-0.666675	1.373339	-0.528420
O34	O	-0.166675	1.873339	-0.028420
C35	C	-0.461145	1.183324	-0.461190
C36	C	0.038855	1.683324	0.038810
C37	C	-0.461163	1.066546	-0.461205
C38	C	0.038837	1.566546	0.038795
C39	C	-0.522461	1.003466	-0.522336
C40	C	-0.022461	1.503466	-0.022336
C41	C	-0.522465	0.893740	-0.522354
C42	C	-0.022465	1.393740	-0.022354
C43	C	-0.399871	0.910185	-0.400102
C44	C	0.100129	1.410185	0.099898
C45	C	-0.399863	1.019908	-0.400089
C46	C	0.100137	1.519908	0.099911
C47	C	-0.696331	1.439476	-0.474743
C48	C	-0.196331	1.939476	0.025257
C49	C	-0.796941	1.432377	-0.480563
C50	C	-0.296941	1.932377	0.019437
C51	C	-0.979305	1.561747	-0.375832
C52	C	-0.479305	2.061747	0.124168
C53	C	-1.073837	1.555081	-0.381298
C54	C	-0.573837	2.055081	0.118702
C55	C	-1.080540	1.412384	-0.496964
C56	C	-0.580540	1.912384	0.003036
C57	C	-0.986008	1.419050	-0.491498
C58	C	-0.486008	1.919050	0.008502
C59	C	-0.935393	1.493733	-0.430929
C60	C	-0.435393	1.993733	0.069071
C61	C	-0.840859	1.500394	-0.425460
C62	C	-0.340859	2.000394	0.074540
C63	C	-0.847564	1.357703	-0.541130
C64	C	-0.347564	1.857703	-0.041130
C65	C	-0.942096	1.351037	-0.546595
C66	C	-0.442096	1.851037	-0.046595
C67	C	-0.225065	1.473196	-0.447642
C68	C	0.274935	1.973196	0.052358
C69	C	-0.124457	1.480401	-0.441860
C70	C	0.375543	1.980401	0.058140
C71	C	-0.474707	1.439569	-0.697293
C72	C	0.025293	1.939569	-0.197293
C73	C	-0.480481	1.432444	-0.797897
C74	C	0.019519	1.932444	-0.297897
C75	C	-0.461170	1.730321	-0.461228
C76	C	0.038830	2.230321	0.038772
C77	C	-0.461175	1.847096	-0.461236
C78	C	0.038825	2.347096	0.038764
C79	C	-0.375543	1.561723	-0.980301
C80	C	0.124457	2.061723	-0.480301
C81	C	-0.380966	1.555032	-1.074828
C82	C	0.119034	2.055032	-0.574828
C83	C	-0.496743	1.412366	-1.081480
C84	C	0.003257	1.912366	-0.581480
C85	C	-0.491321	1.419057	-0.986953
C86	C	0.008679	1.919057	-0.486953
C87	C	-0.430720	1.493739	-0.936367
C88	C	0.069280	1.993739	-0.436367
C89	C	-0.425303	1.500435	-0.841838
C90	C	0.074697	2.000435	-0.341838
C91	C	-0.541075	1.357765	-0.848491
C92	C	-0.041075	1.857765	-0.348491
C93	C	-0.546498	1.351074	-0.943018
C94	C	-0.046498	1.851074	-0.443018
C95	C	-0.447594	1.473010	-0.226040
C96	C	0.052406	1.973010	0.273960
C97	C	-0.441565	1.480357	-0.125421
C98	C	0.058435	1.980357	0.374579
H99	H	-0.349964	0.872199	-0.350342
H100	H	0.150036	1.372199	0.149658
H101	H	-0.811801	1.302318	-0.585991
H102	H	-0.311801	1.802318	-0.085991
Br103	Br	-0.615976	1.265510	-0.788862
Br104	Br	-0.115976	1.765510	-0.288862
H105	H	-0.983319	1.290235	-0.595911
H106	H	-0.483319	1.790235	-0.095911
Br107	Br	-0.293315	1.663087	-0.911646
Br108	Br	0.206685	2.163087	-0.411646
Br109	Br	-0.605651	1.066756	-0.605281
Br110	Br	-0.105651	1.566756	-0.105281
Br111	Br	-1.149246	1.311054	-0.579172
Br112	Br	-0.649246	1.811054	-0.079172
Br113	Br	-0.605655	0.808135	-0.605326
Br114	Br	-0.105655	1.308135	-0.105326
H115	H	-0.336033	1.610388	-1.110596
H116	H	0.163967	2.110388	-0.610596
Br117	Br	-0.316658	1.105525	-0.317127
Br118	Br	0.183342	1.605525	0.182873
H119	H	-0.546081	1.351564	-1.122683
H120	H	-0.046081	1.851564	-0.622683
Br121	Br	-0.343064	1.601792	-0.773187
Br122	Br	0.156936	2.101792	-0.273187
Br123	Br	-0.910608	1.663080	-0.293618
Br124	Br	-0.410608	2.163080	0.206382
Br125	Br	-0.772168	1.601741	-0.343255
Br126	Br	-0.272168	2.101741	0.156745
Br127	Br	-1.133429	1.647394	-0.306525
Br128	Br	-0.633429	2.147394	0.193475
H129	H	-0.595835	1.290268	-0.984218
H130	H	-0.095835	1.790268	-0.484218
