data_functionalizedCrystal
_audit_creation_method	'MofGen! by Chris Wilmer'
_symmetry_space_group_name_H-M	'P1'
_symmetry_Int_Tables_number	1
_symmetry_cell_setting	triclinic
loop_
_symmetry_equiv_pos_as_xyz
  x,y,z
_cell_length_a	19.077367
_cell_length_b	19.077263
_cell_length_c	19.076919
_cell_angle_alpha	89.924196
_cell_angle_beta	94.478002
_cell_angle_gamma	89.904527
loop_
_atom_site_label
_atom_site_type_symbol
_atom_site_fract_x
_atom_site_fract_y
_atom_site_fract_z
Zn1	Zn	-1.072266	-0.251019	0.344962
Zn2	Zn	-1.081663	-0.363417	0.222397
Zn3	Zn	-0.959122	-0.251036	0.231812
Zn4	Zn	-0.959504	-0.373192	0.344555
O5	O	-1.018139	-0.309666	0.285932
O6	O	-1.171988	-0.261831	0.324933
O7	O	-1.069181	-0.344426	0.125169
O8	O	-0.970038	-0.152873	0.250932
O9	O	-1.178892	-0.344409	0.234886
O10	O	-1.053164	-0.152860	0.334062
O11	O	-0.979150	-0.261860	0.132086
O12	O	-0.860697	-0.271339	0.250538
O13	O	-0.970690	-0.361070	0.443086
O14	O	-0.860978	-0.361086	0.333370
O15	O	-1.053535	-0.271310	0.443385
O16	O	-1.069551	-0.462876	0.234492
O17	O	-0.979802	-0.470057	0.324240
C18	C	-0.835304	-0.317276	0.292932
C19	C	-0.757087	-0.320549	0.295942
C20	C	-1.025756	-0.491918	0.278315
C21	C	-1.029079	-0.569885	0.275077
C22	C	-1.011107	-0.317278	0.469483
C23	C	-1.008110	-0.320522	0.547702
C24	C	-0.720168	-0.275295	0.254307
C25	C	-0.646674	-0.278376	0.257136
C26	C	-0.610102	-0.326708	0.301603
C27	C	-0.647026	-0.371967	0.343240
C28	C	-0.720518	-0.368888	0.340407
C29	C	-0.390322	-0.340936	0.314687
C30	C	-0.316825	-0.344010	0.317518
C31	C	-0.316478	-0.250420	0.231413
C32	C	-0.389971	-0.247343	0.228588
C33	C	-0.426890	-0.292603	0.270221
N34	N	-0.534979	-0.329858	0.304497
N35	N	-0.502011	-0.289457	0.267324
C36	C	-0.201688	-0.302024	0.278898
C37	C	-0.279905	-0.298756	0.275884
C38	C	-1.010510	-0.126702	0.293593
C39	C	-1.007259	-0.048734	0.296858
C40	C	-0.983883	0.389740	0.320267
C41	C	-0.986946	0.316481	0.317193
C42	C	-1.035209	0.283599	0.268932
C43	C	-1.080406	0.323979	0.223738
C44	C	-1.077339	0.397236	0.226809
C45	C	-1.049390	0.064904	0.254734
C46	C	-1.052455	-0.008359	0.251668
C47	C	-0.958994	-0.015852	0.345122
C48	C	-0.955934	0.057408	0.348192
C49	C	-1.001128	0.097781	0.302995
N50	N	-1.038343	0.208716	0.265791
N51	N	-0.997991	0.172662	0.306134
C52	C	-1.025182	-0.302032	0.103095
C53	C	-1.028306	-0.298585	0.024879
C54	C	-1.049834	-0.275315	0.584606
C55	C	-1.047009	-0.278360	0.658101
C56	C	-1.002465	-0.326617	0.694691
C57	C	-0.960737	-0.371826	0.657782
C58	C	-0.963558	-0.368777	0.584288
C59	C	-0.989399	-0.340745	0.914477
C60	C	-0.986583	-0.343792	0.987975
C61	C	-1.072855	-0.250325	0.988290
C62	C	-1.075675	-0.247283	0.914794
C63	C	-1.033944	-0.292489	0.877892
N64	N	-0.999579	-0.329732	0.769815
N65	N	-1.036827	-0.289370	0.802770
H66	H	-0.749939	-0.235933	0.218103
H67	H	-1.106828	-0.213519	1.018344
H68	H	-0.287049	-0.383367	0.353734
H69	H	-0.944586	0.416508	0.359568
H70	H	-0.916634	0.084179	0.387489
H71	H	-0.929575	-0.405582	0.554242
H72	H	-1.080987	-0.241549	0.688145
H73	H	-0.750577	-0.405739	0.374311
H74	H	-0.950137	0.283611	0.353985
H75	H	-0.950308	-0.383090	1.017765
H76	H	-0.955430	-0.377565	0.884439
H77	H	-0.616618	-0.241530	0.223228
H78	H	-1.086109	-0.236021	0.554820
H79	H	-1.119700	0.297200	0.184441
H80	H	-1.111950	-0.207989	0.885008
H81	H	-0.924466	-0.411115	0.687579
H82	H	-0.419744	-0.207990	0.192372
H83	H	-0.286411	-0.213571	0.197517
H84	H	-0.420372	-0.377791	0.348589
H85	H	-0.922198	-0.048732	0.381918
H86	H	-0.617243	-0.411323	0.379443
H87	H	-1.091760	-0.035130	0.212369
H88	H	-1.086190	0.097771	0.217935
H89	H	-1.114141	0.430109	0.190011
