data_functionalizedCrystal
_audit_creation_method	'MofGen! by Chris Wilmer'
_symmetry_space_group_name_H-M	'P1'
_symmetry_Int_Tables_number	1
_symmetry_cell_setting	triclinic
loop_
_symmetry_equiv_pos_as_xyz
  x,y,z
_cell_length_a	19.188933
_cell_length_b	19.288865
_cell_length_c	18.366186
_cell_angle_alpha	90.011479
_cell_angle_beta	89.992367
_cell_angle_gamma	96.859092
loop_
_atom_site_label
_atom_site_type_symbol
_atom_site_fract_x
_atom_site_fract_y
_atom_site_fract_z
O1	O	0.926142	-0.086724	-0.060534
O2	O	1.176142	0.163276	0.189466
O3	O	1.426142	0.413276	0.439466
O4	O	1.676142	0.663276	0.689466
O5	O	0.722830	-0.098396	-0.060542
O6	O	0.972830	0.151604	0.189458
O7	O	1.222830	0.401604	0.439458
O8	O	1.472830	0.651604	0.689458
O9	O	0.830361	0.008570	-0.060523
O10	O	1.080361	0.258570	0.189477
O11	O	1.330361	0.508570	0.439477
O12	O	1.580361	0.758570	0.689477
O13	O	0.818611	-0.193690	-0.060552
O14	O	1.068611	0.056310	0.189448
O15	O	1.318611	0.306310	0.439448
O16	O	1.568611	0.556310	0.689448
O17	O	0.830342	0.008575	0.060576
O18	O	1.080342	0.258575	0.310576
O19	O	1.330342	0.508575	0.560576
O20	O	1.580342	0.758575	0.810576
O21	O	0.722812	-0.098391	0.060558
O22	O	0.972812	0.151609	0.310558
O23	O	1.222812	0.401609	0.560558
O24	O	1.472812	0.651609	0.810558
O25	O	0.926124	-0.086719	0.060566
O26	O	1.176124	0.163281	0.310566
O27	O	1.426124	0.413281	0.560566
O28	O	1.676124	0.663281	0.810566
Zn29	Zn	0.824465	-0.092554	0.079789
Zn30	Zn	1.074465	0.157446	0.329789
Zn31	Zn	1.324465	0.407446	0.579789
Zn32	Zn	1.574465	0.657446	0.829789
Zn33	Zn	0.824489	-0.092561	-0.079765
Zn34	Zn	1.074489	0.157439	0.170235
Zn35	Zn	1.324489	0.407439	0.420235
Zn36	Zn	1.574489	0.657439	0.670235
O37	O	0.818593	-0.193685	0.060547
O38	O	1.068593	0.056315	0.310547
O39	O	1.318593	0.306315	0.560547
O40	O	1.568593	0.556315	0.810547
C41	C	0.696810	-0.098015	0.000007
C42	C	0.946810	0.151985	0.250007
C43	C	1.196810	0.401985	0.500007
C44	C	1.446810	0.651985	0.750007
C45	C	0.619305	-0.096880	0.000005
C46	C	0.869305	0.153120	0.250005
C47	C	1.119305	0.403120	0.500005
C48	C	1.369305	0.653120	0.750005
C49	C	0.066061	-0.088780	-0.065997
C50	C	0.316061	0.161220	0.184003
C51	C	0.566061	0.411220	0.434003
C52	C	0.816061	0.661220	0.684003
C53	C	0.138885	-0.089842	-0.066000
C54	C	0.388885	0.160158	0.184000
C55	C	0.638885	0.410158	0.434000
C56	C	0.888885	0.660158	0.684000
C57	C	0.175292	-0.090374	0.000011
C58	C	0.425292	0.159626	0.250011
C59	C	0.675292	0.409626	0.500011
C60	C	0.925292	0.659626	0.750011
C61	C	0.138871	-0.089825	0.066029
C62	C	0.388871	0.160175	0.316029
C63	C	0.638871	0.410175	0.566029
C64	C	0.888871	0.660175	0.816029
C65	C	0.066049	-0.088756	0.066031
C66	C	0.316049	0.161244	0.316031
C67	C	0.566049	0.411244	0.566031
C68	C	0.816049	0.661244	0.816031
N69	N	0.284301	-0.131576	0.049140
N70	N	0.534301	0.118424	0.299140
N71	N	0.784301	0.368424	0.549140
N72	N	1.034301	0.618424	0.799140
N73	N	0.353479	-0.132594	0.049134
N74	N	0.603479	0.117406	0.299134
N75	N	0.853479	0.367406	0.549134
N76	N	1.103479	0.617406	0.799134
C77	C	0.394700	-0.093595	0.000011
C78	C	0.644700	0.156405	0.250011
C79	C	0.894700	0.406405	0.500011
C80	C	1.144700	0.656405	0.750011
N81	N	0.364130	-0.053549	-0.049117
N82	N	0.614130	0.196451	0.200883
N83	N	0.864130	0.446451	0.450883
N84	N	1.114130	0.696451	0.700883
N85	N	0.294945	-0.052535	-0.049113
N86	N	0.544945	0.197465	0.200887
N87	N	0.794945	0.447465	0.450887
N88	N	1.044945	0.697465	0.700887
C89	C	0.254255	-0.091534	0.000017
C90	C	0.504255	0.158466	0.250017
C91	C	0.754255	0.408466	0.500017
C92	C	1.004255	0.658466	0.750017
C93	C	0.510077	-0.095291	-0.066006
C94	C	0.760077	0.154709	0.183994
C95	C	1.010077	0.404709	0.433994
C96	C	1.260077	0.654709	0.683994
C97	C	0.582903	-0.096350	-0.066007
C98	C	0.832903	0.153650	0.183993
C99	C	1.082903	0.403650	0.433993
C100	C	1.332903	0.653650	0.683993
C101	C	0.582887	-0.096339	0.066025
C102	C	0.832887	0.153661	0.316025
C103	C	1.082887	0.403661	0.566025
C104	C	1.332887	0.653661	0.816025
C105	C	0.510063	-0.095274	0.066023
C106	C	0.760063	0.154726	0.316023
C107	C	1.010063	0.404726	0.566023
C108	C	1.260063	0.654726	0.816023
C109	C	0.473662	-0.094754	0.000006
C110	C	0.723662	0.155246	0.250006
C111	C	0.973662	0.405246	0.500006
C112	C	1.223662	0.655246	0.750006
C113	C	0.829973	0.034449	0.000029
C114	C	1.079973	0.284449	0.250029
C115	C	1.329973	0.534449	0.500029
C116	C	1.579973	0.784449	0.750029
C117	C	0.828839	0.111552	0.000035
C118	C	1.078839	0.361552	0.250035
C119	C	1.328839	0.611552	0.500035
C120	C	1.578839	0.861552	0.750035
C121	C	0.952144	-0.087100	0.000015
C122	C	1.202144	0.162900	0.250015
C123	C	1.452144	0.412900	0.500015
C124	C	1.702144	0.662900	0.750015
C125	C	1.029648	-0.088235	0.000013
C126	C	1.279648	0.161765	0.250013
C127	C	1.529648	0.411765	0.500013
C128	C	1.779648	0.661765	0.750013
C129	C	0.818980	-0.219564	-0.000006
C130	C	1.068980	0.030436	0.249994
C131	C	1.318980	0.280436	0.499994
C132	C	1.568980	0.530436	0.749994
C133	C	0.820115	-0.296668	-0.000018
C134	C	1.070115	-0.046668	0.249982
C135	C	1.320115	0.203332	0.499982
C136	C	1.570115	0.453332	0.749982
N137	N	0.824453	-0.092549	0.188680
N138	N	1.074453	0.157451	0.438680
N139	N	1.324453	0.407451	0.688680
N140	N	1.574453	0.657451	0.938680
C141	C	0.891933	0.156244	0.000041
C142	C	1.141933	0.406244	0.250041
C143	C	1.391933	0.656244	0.500041
C144	C	1.641933	0.906244	0.750041
C145	C	0.890867	0.228691	0.000030
C146	C	1.140867	0.478691	0.250030
C147	C	1.390867	0.728691	0.500030
C148	C	1.640867	0.978691	0.750030
C149	C	0.826703	0.256443	0.000027
C150	C	1.076703	0.506443	0.250027
C151	C	1.326703	0.756443	0.500027
C152	C	1.576703	1.006443	0.750027
C153	C	0.763600	0.211742	0.000017
C154	C	1.013600	0.461742	0.250017
C155	C	1.263600	0.711742	0.500017
C156	C	1.513600	0.961742	0.750017
C157	C	0.764668	0.139297	0.000021
C158	C	1.014668	0.389297	0.250021
C159	C	1.264668	0.639297	0.500021
C160	C	1.514668	0.889297	0.750021
C161	C	0.776256	0.364737	0.042443
C162	C	1.026256	0.614737	0.292443
C163	C	1.276256	0.864737	0.542443
C164	C	1.526256	1.114737	0.792443
C165	C	0.775190	0.437181	0.042443
C166	C	1.025190	0.687181	0.292443
C167	C	1.275190	0.937181	0.542443
C168	C	1.525190	1.187181	0.792443
C169	C	0.823406	0.479889	0.000010
C170	C	1.073406	0.729889	0.250010
C171	C	1.323406	0.979889	0.500010
C172	C	1.573406	1.229889	0.750010
C173	C	0.872699	0.450145	-0.042414
C174	C	1.122699	0.700145	0.207586
C175	C	1.372699	0.950145	0.457586
C176	C	1.622699	1.200145	0.707586
C177	C	0.873767	0.377700	-0.042409
C178	C	1.123767	0.627700	0.207591
C179	C	1.373767	0.877700	0.457591
C180	C	1.623767	1.127700	0.707591
C181	C	0.825537	0.334998	0.000022
C182	C	1.075537	0.584998	0.250022
C183	C	1.325537	0.834998	0.500022
C184	C	1.575537	1.084998	0.750022
C185	C	0.885348	0.603137	0.000003
C186	C	1.135348	0.853137	0.250003
C187	C	1.385348	1.103137	0.500003
C188	C	1.635348	1.353137	0.750003
C189	C	0.884279	0.675585	-0.000013
C190	C	1.134279	0.925585	0.249987
C191	C	1.384279	1.175585	0.499987
C192	C	1.634279	1.425585	0.749987
C193	C	0.757011	0.658635	-0.000019
C194	C	1.007011	0.908635	0.249981
C195	C	1.257011	1.158635	0.499981
C196	C	1.507011	1.408635	0.749981
C197	C	0.758082	0.586188	-0.000010
C198	C	1.008082	0.836188	0.249990
C199	C	1.258082	1.086188	0.499990
C200	C	1.508082	1.336188	0.749990
C201	C	0.822252	0.558444	0.000004
C202	C	1.072252	0.808444	0.250004
C203	C	1.322252	1.058444	0.500004
C204	C	1.572252	1.308444	0.750004
N205	N	0.824506	-0.092561	-0.188656
N206	N	1.074506	0.157439	0.061344
N207	N	1.324506	0.407439	0.311344
N208	N	1.574506	0.657439	0.561344
C209	C	0.872084	-0.045208	0.226789
C210	C	1.122084	0.204792	0.476789
C211	C	1.372084	0.454792	0.726789
C212	C	1.622084	0.704792	0.976789
C213	C	0.872088	-0.045205	0.303016
C214	C	1.122088	0.204795	0.553016
C215	C	1.372088	0.454795	0.803016
C216	C	1.622088	0.704795	1.053016
C217	C	0.824469	-0.092555	0.341133
C218	C	1.074469	0.157445	0.591133
C219	C	1.324469	0.407445	0.841133
C220	C	1.574469	0.657445	1.091133
C221	C	0.776830	-0.139900	0.303015
C222	C	1.026830	0.110100	0.553015
C223	C	1.276830	0.360100	0.803015
C224	C	1.526830	0.610100	1.053015
C225	C	0.776822	-0.139897	0.226789
C226	C	1.026822	0.110103	0.476789
C227	C	1.276822	0.360103	0.726789
C228	C	1.526822	0.610103	0.976789
C229	C	0.815122	-0.155842	0.461884
C230	C	1.065122	0.094158	0.711884
C231	C	1.315122	0.344158	0.961884
C232	C	1.565122	0.594158	1.211884
C233	C	0.815135	-0.155846	0.538109
C234	C	1.065135	0.094154	0.788109
C235	C	1.315135	0.344154	1.038109
C236	C	1.565135	0.594154	1.288109
C237	C	0.824489	-0.092563	0.576240
C238	C	1.074489	0.157437	0.826240
C239	C	1.324489	0.407437	1.076240
C240	C	1.574489	0.657437	1.326240
C241	C	0.833845	-0.029275	0.538138
C242	C	1.083845	0.220725	0.788138
C243	C	1.333845	0.470725	1.038138
C244	C	1.583845	0.720725	1.288138
C245	C	0.833837	-0.029272	0.461911
C246	C	1.083837	0.220728	0.711911
C247	C	1.333837	0.470728	0.961911
C248	C	1.583837	0.720728	1.211911
C249	C	0.824472	-0.092563	0.423787
C250	C	1.074472	0.157437	0.673787
C251	C	1.324472	0.407437	0.923787
C252	C	1.574472	0.657437	1.173787
C253	C	0.872126	-0.045215	0.697004
C254	C	1.122126	0.204785	0.947004
C255	C	1.372126	0.454785	1.197004
C256	C	1.622126	0.704785	1.447004
C257	C	0.872126	-0.045211	0.773233
C258	C	1.122126	0.204789	1.023233
C259	C	1.372126	0.454789	1.273233
C260	C	1.622126	0.704789	1.523233
C261	C	0.776871	-0.139912	0.773230
C262	C	1.026871	0.110088	1.023230
C263	C	1.276871	0.360088	1.273230
C264	C	1.526871	0.610088	1.523230
C265	C	0.776868	-0.139910	0.697002
C266	C	1.026868	0.110090	0.947002
C267	C	1.276868	0.360090	1.197002
C268	C	1.526868	0.610090	1.447002
C269	C	0.824500	-0.092562	0.658894
C270	C	1.074500	0.157438	0.908894
C271	C	1.324500	0.407438	1.158894
C272	C	1.574500	0.657438	1.408894
H273	H	0.036402	-0.088315	0.119786
H274	H	0.286402	0.161685	0.369786
H275	H	0.536402	0.411685	0.619786
H276	H	0.786402	0.661685	0.869786
H277	H	0.168518	-0.090257	0.119776
H278	H	0.418518	0.159743	0.369776
H279	H	0.668518	0.409743	0.619776
H280	H	0.918518	0.659743	0.869776
F281	F	0.843805	0.038080	0.578714
F282	F	1.093805	0.288080	0.828714
F283	F	1.343805	0.538080	1.078714
F284	F	1.593805	0.788080	1.328714
H285	H	0.713288	0.102909	0.000016
H286	H	0.963288	0.352909	0.250016
H287	H	1.213288	0.602909	0.500016
H288	H	1.463288	0.852909	0.750016
F289	F	0.926223	0.346046	-0.087562
F290	F	1.176223	0.596046	0.162438
F291	F	1.426223	0.846046	0.412438
F292	F	1.676223	1.096046	0.662438
H293	H	0.910866	-0.006653	0.195763
H294	H	1.160866	0.243347	0.445763
H295	H	1.410866	0.493347	0.695763
H296	H	1.660866	0.743347	0.945763
H297	H	0.910910	-0.006656	0.804262
H298	H	1.160910	0.243344	1.054262
H299	H	1.410910	0.493344	1.304262
H300	H	1.660910	0.743344	1.554262
H301	H	0.480416	-0.094833	0.119776
H302	H	0.730416	0.155167	0.369776
H303	H	0.980416	0.405167	0.619776
H304	H	1.230416	0.655167	0.869776
H305	H	0.944185	0.133659	0.000050
H306	H	1.194185	0.383659	0.250050
H307	H	1.444185	0.633659	0.500050
H308	H	1.694185	0.883659	0.750050
F309	F	0.177645	-0.090423	-0.136260
F310	F	0.427645	0.159577	0.113740
F311	F	0.677645	0.409577	0.363740
F312	F	0.927645	0.659577	0.613740
F313	F	0.951437	0.723149	-0.000012
F314	F	1.201437	0.973149	0.249988
F315	F	1.451437	1.223149	0.499988
F316	F	1.701437	1.473149	0.749988
H317	H	0.942247	0.265085	0.000032
H318	H	1.192247	0.515085	0.250032
H319	H	1.442247	0.765085	0.500032
H320	H	1.692247	1.015085	0.750032
F321	F	0.471335	-0.094733	-0.136267
F322	F	0.721335	0.155267	0.113733
F323	F	0.971335	0.405267	0.363733
F324	F	1.221335	0.655267	0.613733
H325	H	0.612550	-0.096788	-0.119762
H326	H	0.862550	0.153212	0.130238
H327	H	1.112550	0.403212	0.380238
H328	H	1.362550	0.653212	0.630238
H329	H	0.911960	0.484917	-0.076967
H330	H	1.161960	0.734917	0.173033
H331	H	1.411960	0.984917	0.423033
H332	H	1.661960	1.234917	0.673033
F333	F	0.621631	-0.096896	0.136280
F334	F	0.871631	0.153104	0.386280
F335	F	1.121631	0.403104	0.636280
F336	F	1.371631	0.653104	0.886280
H337	H	0.910909	-0.006659	0.665975
H338	H	1.160909	0.243341	0.915975
H339	H	1.410909	0.493341	1.165975
H340	H	1.660909	0.743341	1.415975
H341	H	0.704768	0.681230	-0.000025
H342	H	0.954768	0.931230	0.249975
H343	H	1.204768	1.181230	0.499975
H344	H	1.454768	1.431230	0.749975
H345	H	0.937600	0.580546	0.000011
H346	H	1.187600	0.830546	0.250011
H347	H	1.437600	1.080546	0.500011
H348	H	1.687600	1.330546	0.750011
F349	F	0.726177	-0.190300	0.656441
F350	F	0.976177	0.059700	0.906441
F351	F	1.226177	0.309700	1.156441
F352	F	1.476177	0.559700	1.406441
F353	F	0.922785	0.005185	0.343581
F354	F	1.172785	0.255185	0.593581
F355	F	1.422785	0.505185	0.843581
F356	F	1.672785	0.755185	1.093581
F357	F	0.726187	-0.190301	0.813793
F358	F	0.976187	0.059699	1.063793
F359	F	1.226187	0.309699	1.313793
F360	F	1.476187	0.559699	1.563793
F361	F	0.690928	0.538623	-0.000014
F362	F	0.940928	0.788623	0.249986
F363	F	1.190928	1.038623	0.499986
F364	F	1.440928	1.288623	0.749986
F365	F	0.843788	0.038082	0.421362
F366	F	1.093788	0.288082	0.671362
F367	F	1.343788	0.538082	0.921362
F368	F	1.593788	0.788082	1.171362
F369	F	0.805182	-0.223202	0.578653
F370	F	1.055182	0.026798	0.828653
F371	F	1.305182	0.276798	1.078653
F372	F	1.555182	0.526798	1.328653
F373	F	0.805217	-0.223201	0.421309
F374	F	1.055217	0.026799	0.671309
F375	F	1.305217	0.276799	0.921309
F376	F	1.555217	0.526799	1.171309
F377	F	0.722732	0.468831	0.087597
F378	F	0.972732	0.718831	0.337597
F379	F	1.222732	0.968831	0.587597
F380	F	1.472732	1.218831	0.837597
F381	F	0.724936	0.319290	0.087611
F382	F	0.974936	0.569290	0.337611
F383	F	1.224936	0.819290	0.587611
F384	F	1.474936	1.069290	0.837611
H385	H	0.711357	0.234343	0.000013
H386	H	0.961357	0.484343	0.250013
H387	H	1.211357	0.734343	0.500013
H388	H	1.461357	0.984343	0.750013
F389	F	0.726126	-0.190286	0.186229
F390	F	0.976126	0.059714	0.436229
F391	F	1.226126	0.309714	0.686229
F392	F	1.476126	0.559714	0.936229
F393	F	0.027325	-0.088222	-0.136260
F394	F	0.277325	0.161778	0.113740
F395	F	0.527325	0.411778	0.363740
F396	F	0.777325	0.661778	0.613740
F397	F	0.726148	-0.190291	0.343581
F398	F	0.976148	0.059709	0.593581
F399	F	1.226148	0.309709	0.843581
F400	F	1.476148	0.559709	1.093581
