data_functionalizedCrystal
_audit_creation_method	'MofGen! by Chris Wilmer'
_symmetry_space_group_name_H-M	'P1'
_symmetry_Int_Tables_number	1
_symmetry_cell_setting	triclinic
loop_
_symmetry_equiv_pos_as_xyz
  x,y,z
_cell_length_a	34.408637
_cell_length_b	34.407814
_cell_length_c	34.404193
_cell_angle_alpha	60.004510
_cell_angle_beta	60.009006
_cell_angle_gamma	59.994604
loop_
_atom_site_label
_atom_site_type_symbol
_atom_site_fract_x
_atom_site_fract_y
_atom_site_fract_z
O1	O	0.053973	-0.567860	0.474801
O2	O	0.020377	-0.442124	0.382567
O3	O	0.100004	-0.521670	0.382483
O4	O	-0.025653	-0.488314	0.474886
O5	O	0.126426	-0.495253	0.408816
O6	O	0.046800	-0.415707	0.408900
O7	O	0.080396	-0.541443	0.501134
Zn8	Zn	0.067793	-0.474381	0.459198
Zn9	Zn	0.032980	-0.509186	0.424503
O10	O	0.000769	-0.461897	0.501219
N11	N	0.091552	-0.450631	0.482879
N12	N	0.009225	-0.532940	0.400823
C13	C	0.142848	-0.268847	0.534081
C14	C	0.142979	-0.399386	0.664559
C15	C	0.142862	-0.399365	0.534081
C16	C	0.273409	-0.399338	0.533986
C17	C	0.157225	-0.311914	0.548422
C18	C	0.157300	-0.385019	0.621491
C19	C	0.230339	-0.384991	0.548370
C20	C	0.157235	-0.385007	0.548422
C21	C	0.124548	-0.214028	0.515827
C22	C	0.124571	-0.417639	0.515827
C23	C	0.175526	-0.366733	0.566676
C24	C	0.353121	-0.385580	0.491988
C25	C	0.402952	-0.402180	0.475348
C26	C	0.402981	-0.482812	0.506096
C27	C	0.353151	-0.466211	0.522737
C28	C	0.136544	-0.189099	0.466839
C29	C	0.119905	-0.139265	0.450247
C30	C	0.079280	-0.139291	0.531632
C31	C	0.095918	-0.189125	0.548224
C32	C	0.075577	-0.405615	0.527900
C33	C	0.058953	-0.422228	0.511301
C34	C	0.140315	-0.462889	0.470566
C35	C	0.156941	-0.446276	0.487159
C36	C	0.075772	-0.405653	0.744326
C37	C	0.059206	-0.422280	0.794159
C38	C	0.140607	-0.462951	0.794094
C39	C	0.157172	-0.446325	0.744260
C40	C	0.124753	-0.417674	0.719377
C41	C	0.328223	-0.417595	0.515681
C42	C	-0.172390	-0.583988	0.349141
C43	C	-0.041751	-0.584138	0.218783
C44	C	-0.041941	-0.584130	0.349402
C45	C	-0.041957	-0.714607	0.349338
C46	C	-0.129326	-0.598388	0.334853
C47	C	-0.056165	-0.598473	0.261852
C48	C	-0.056282	-0.671535	0.334962
C49	C	-0.056272	-0.598469	0.334999
C50	C	-0.227205	-0.565659	0.367327
C51	C	-0.023703	-0.565882	0.367734
C52	C	-0.074511	-0.616717	0.316667
C53	C	-0.055754	-0.794298	0.391257
C54	C	-0.039181	-0.844132	0.407888
C55	C	0.041447	-0.844215	0.377269
C56	C	0.024873	-0.794381	0.360637
C57	C	-0.252183	-0.577666	0.416302
C58	C	-0.302014	-0.561001	0.432833
C59	C	-0.301886	-0.520329	0.351410
C60	C	-0.252055	-0.536994	0.334880
C61	C	-0.035709	-0.516892	0.355682
C62	C	-0.019129	-0.500308	0.372353
C63	C	0.021465	-0.581700	0.413115
C64	C	0.004884	-0.598286	0.396450
C65	C	-0.035389	-0.516907	0.139026
C66	C	-0.018707	-0.500324	0.089193
C67	C	0.021949	-0.581721	0.089240
C68	C	0.005268	-0.598303	0.139074
C69	C	-0.023402	-0.565894	0.163965
C70	C	-0.023728	-0.769425	0.367633
N71	N	0.427173	-0.450553	0.482630
O72	O	0.589997	-0.458460	0.365361
O73	O	0.590185	-0.550997	0.490963
O74	O	0.590104	-0.550786	0.411309
O75	O	0.590077	-0.458671	0.445016
O76	O	0.510940	-0.524462	0.437777
O77	O	0.511020	-0.524674	0.517432
O78	O	0.510832	-0.432136	0.391830
Zn79	Zn	0.498357	-0.474225	0.458833
Zn80	Zn	0.602660	-0.508908	0.423960
O81	O	0.510913	-0.432348	0.471484
N82	N	0.673844	-0.532580	0.400158
N83	N	0.091520	-0.115070	0.482873
O84	O	-0.025663	0.047841	0.474857
O85	O	0.099940	0.047877	0.382299
O86	O	0.020247	0.047844	0.382560
O87	O	0.054030	0.047874	0.474596
O88	O	0.046674	-0.031326	0.408942
O89	O	0.126367	-0.031293	0.408680
O90	O	0.000764	-0.031329	0.501238
Zn91	Zn	0.067761	-0.043881	0.459148
Zn92	Zn	0.032943	0.060429	0.424389
O93	O	0.080457	-0.031296	0.500977
N94	N	0.009178	0.131618	0.400665
N95	N	0.091852	-0.450680	0.818332
O96	O	0.083862	-0.567845	0.981235
O97	O	-0.008657	-0.442198	0.981276
O98	O	-0.008441	-0.521875	0.981252
O99	O	0.083646	-0.488168	0.981258
O100	O	0.017919	-0.495468	0.902085
O101	O	0.017703	-0.415791	0.902109
O102	O	0.110222	-0.541438	0.902067
Zn103	Zn	0.068148	-0.474422	0.889518
Zn104	Zn	0.033417	-0.509214	0.993825
O105	O	0.110006	-0.461761	0.902091
N106	N	0.009712	-0.532961	1.065011
C107	C	0.030439	-0.413071	0.383027
C108	C	0.129046	-0.511580	0.382922
C109	C	0.070334	-0.570496	0.500675
C110	C	-0.028274	-0.471987	0.500780
C111	C	0.550625	-0.550579	0.520021
C112	C	0.550527	-0.550317	0.421379
C113	C	0.550389	-0.432554	0.362773
C114	C	0.550491	-0.432816	0.461414
C115	C	0.128944	0.008394	0.382712
C116	C	0.030287	0.008256	0.383068
C117	C	-0.028273	0.008252	0.500793
C118	C	0.070417	0.008292	0.500470
C119	C	-0.008218	-0.413165	0.941698
C120	C	-0.007945	-0.511830	0.941653
C121	C	0.109783	-0.570471	0.941646
C122	C	0.109516	-0.471800	0.941673
H123	H	0.019320	-0.412483	0.814467
O124	O	-0.042859	-0.370096	0.941627
C125	C	-0.055660	-0.349029	0.900635
H126	H	-0.025093	-0.364771	0.871970
H127	H	-0.088705	-0.356308	0.909906
C128	C	-0.103840	-0.275583	0.917264
C129	C	-0.066295	-0.294915	0.882055
H130	H	-0.110402	-0.242203	0.905804
H131	H	-0.095217	-0.289776	0.944882
H132	H	-0.131373	-0.281653	0.924986
H133	H	-0.038761	-0.288849	0.874338
H134	H	-0.074913	-0.280719	0.854435
H135	H	0.023260	-0.376951	0.354059
O136	O	0.144454	-0.613521	0.941694
C137	C	0.157239	-0.634602	0.982698
H138	H	0.147593	-0.605739	0.996379
H139	H	0.137268	-0.660580	1.011403
C140	C	0.223059	-0.696979	0.953427
C141	C	0.211215	-0.661528	0.970228
H142	H	0.256354	-0.713590	0.945737
H143	H	0.214445	-0.682778	0.925803
H144	H	0.206413	-0.718623	0.977351
H145	H	0.227857	-0.639882	0.946302
H146	H	0.219834	-0.675726	0.997849
H147	H	0.015032	-0.638195	0.159378
H148	H	-0.036863	-0.519031	0.941619
O149	O	0.550502	-0.398248	0.469928
C150	C	0.550423	-0.357153	0.429070
H151	H	0.565382	-0.367537	0.396339
H152	H	0.512427	-0.331289	0.432953
C153	C	0.563083	-0.320422	0.463612
C154	C	0.581460	-0.333176	0.423410
H155	H	0.582226	-0.305630	0.460120
H156	H	0.563135	-0.348107	0.491139
H157	H	0.531420	-0.298870	0.466842
H158	H	0.613120	-0.354731	0.420183
H159	H	0.581414	-0.305493	0.395882
O160	O	0.550772	-0.585251	0.563035
C161	C	0.591785	-0.596266	0.571543
H162	H	0.620405	-0.585702	0.536196
H163	H	0.582522	-0.575878	0.594551
C164	C	0.575286	-0.663086	0.640920
C165	C	0.610439	-0.650115	0.597505
H166	H	0.586792	-0.696301	0.656937
H167	H	0.547654	-0.655664	0.635189
H168	H	0.567570	-0.646091	0.660088
H169	H	0.618149	-0.667104	0.578337
H170	H	0.638073	-0.657541	0.603234
O171	O	0.021649	0.008327	0.348532
C172	C	0.026915	0.049325	0.308382
H173	H	0.021767	0.077993	0.319761
H174	H	0.064071	0.040062	0.281398
C175	C	-0.004247	0.032687	0.271631
C176	C	-0.010574	0.067899	0.285607
H177	H	-0.027370	0.044143	0.257580
H178	H	-0.007793	0.005065	0.298680
H179	H	0.026718	0.024971	0.249146
H180	H	-0.041536	0.075610	0.308095
H181	H	-0.007034	0.095523	0.258561
O182	O	0.171905	0.008692	0.348003
C183	C	0.201521	0.008785	0.365087
H184	H	0.178632	0.023614	0.395756
H185	H	0.225747	-0.029143	0.378129
C186	C	0.260181	0.021877	0.287035
C187	C	0.232068	0.040094	0.324701
H188	H	0.279026	0.041188	0.262122
H189	H	0.240230	0.021812	0.275525
H190	H	0.280365	-0.009730	0.297909
H191	H	0.211881	0.071698	0.313827
H192	H	0.252017	0.040165	0.336208
O193	O	0.044113	-0.377727	0.555672
C194	C	0.015265	-0.335938	0.530538
H195	H	0.034478	-0.329000	0.490666
H196	H	-0.019744	-0.340474	0.541168
C197	C	-0.018509	-0.302059	0.591555
C198	C	0.005091	-0.293535	0.542583
H199	H	-0.024787	-0.275903	0.598986
H200	H	0.000925	-0.330213	0.608489
H201	H	-0.047680	-0.305840	0.600408
H202	H	0.034264	-0.289760	0.533733
H203	H	-0.014339	-0.265379	0.525648
O204	O	0.079134	0.008271	0.534925
C205	C	0.125920	0.008296	0.517561
H206	H	0.148422	-0.006684	0.486998
H207	H	0.125208	0.046281	0.504285
C208	C	0.119955	-0.004356	0.595348
C209	C	0.147593	-0.022758	0.557814
H210	H	0.133324	-0.023510	0.620178
H211	H	0.088434	-0.004371	0.607047
H212	H	0.119364	0.027297	0.584279
H213	H	0.148179	-0.054408	0.568882
H214	H	0.179116	-0.022749	0.546118
H215	H	0.550329	-0.403500	0.326702
H216	H	0.138447	-0.464586	0.941669
O217	O	0.044214	-0.377842	0.720231
C218	C	-0.002570	-0.370786	0.752939
H219	H	-0.002445	-0.400839	0.788451
H220	H	-0.016847	-0.335290	0.758250
C221	C	-0.034712	-0.333523	0.689906
C222	C	-0.034559	-0.370436	0.733521
H223	H	-0.054445	-0.333305	0.677928
H224	H	-0.003192	-0.338275	0.667870
H225	H	-0.046608	-0.303947	0.694338
H226	H	-0.022657	-0.400012	0.729088
H227	H	-0.066077	-0.365689	0.755557
O228	O	0.172163	-0.490791	0.818192
C229	C	0.218948	-0.497826	0.785486
H230	H	0.218826	-0.492246	0.749971
H231	H	0.233223	-0.471301	0.780181
C232	C	0.251086	-0.555733	0.848519
C233	C	0.250937	-0.548884	0.804901
H234	H	0.270820	-0.587227	0.860496
H235	H	0.219566	-0.550992	0.870555
H236	H	0.262981	-0.533626	0.844093
H237	H	0.239037	-0.570987	0.809329
H238	H	0.282456	-0.553629	0.782867
H239	H	-0.064344	0.008241	0.529850
H240	H	0.165136	-0.518689	0.353905
O241	O	-0.071309	-0.463598	0.535442
C242	C	-0.071332	-0.504535	0.576459
H243	H	-0.043164	-0.537202	0.565961
H244	H	-0.063017	-0.500710	0.602315
C245	C	-0.155241	-0.470170	0.613410
C246	C	-0.120646	-0.510293	0.600516
H247	H	-0.185660	-0.473721	0.628251
H248	H	-0.155225	-0.442590	0.585778
H249	H	-0.148305	-0.466987	0.634955
H250	H	-0.127579	-0.513472	0.578967
H251	H	-0.120664	-0.537874	0.628145
O252	O	0.078816	-0.613587	0.535253
C253	C	0.046166	-0.634742	0.548074
H254	H	0.013194	-0.605916	0.538547
H255	H	0.063406	-0.660661	0.528029
C256	C	0.072247	-0.697180	0.613728
C257	C	0.031749	-0.661775	0.602031
H258	H	0.063356	-0.713858	0.647010
H259	H	0.094246	-0.682930	0.605089
H260	H	0.086610	-0.718775	0.597020
H261	H	0.017391	-0.640179	0.618734
H262	H	0.009748	-0.676023	0.610674
H263	H	0.197059	-0.456117	0.723950
H264	H	0.019058	-0.412426	0.521121
O265	O	0.550455	-0.584798	0.412783
C266	C	0.509434	-0.568424	0.401612
H267	H	0.480771	-0.538882	0.416999
H268	H	0.518655	-0.554051	0.361304
C269	C	0.526092	-0.646143	0.404172
C270	C	0.490886	-0.609862	0.423075
H271	H	0.514652	-0.671704	0.417410
H272	H	0.553730	-0.657174	0.411697
H273	H	0.533773	-0.634159	0.370583
H274	H	0.483210	-0.621844	0.456663
H275	H	0.463247	-0.598834	0.415556
O276	O	0.171784	-0.490638	0.442651
C277	C	0.200569	-0.465462	0.400856
H278	H	0.181310	-0.425595	0.393944
H279	H	0.235591	-0.476064	0.405359
C280	C	0.234374	-0.526458	0.366941
C281	C	0.210718	-0.477493	0.358450
H282	H	0.240637	-0.533881	0.340784
H283	H	0.214982	-0.543421	0.395101
H284	H	0.263556	-0.535288	0.370695
H285	H	0.181534	-0.468666	0.354702
H286	H	0.230105	-0.460529	0.330289
O287	O	0.204519	-0.457894	0.475462
C288	C	0.212253	-0.437101	0.496268
H289	H	0.179549	-0.405119	0.503805
H290	H	0.218929	-0.464370	0.531015
C291	C	0.296026	-0.460037	0.452619
C292	C	0.255860	-0.420753	0.461872
H293	H	0.322927	-0.449954	0.431403
H294	H	0.290817	-0.474047	0.438602
H295	H	0.301584	-0.482757	0.481578
H296	H	0.250300	-0.398037	0.432914
H297	H	0.261070	-0.406739	0.475883
O298	O	0.328992	-0.497323	0.545674
C299	C	0.341162	-0.520662	0.515177
H300	H	0.354826	-0.497961	0.476600
H301	H	0.370108	-0.556619	0.523189
C302	C	0.280116	-0.556129	0.570534
C303	C	0.296894	-0.528246	0.523152
H304	H	0.252810	-0.560810	0.575454
H305	H	0.271917	-0.540407	0.591081
H306	H	0.304242	-0.586090	0.577204
H307	H	0.272770	-0.498284	0.516484
H308	H	0.305087	-0.543963	0.502604
O309	O	0.427249	-0.530033	0.512974
C310	C	0.456096	-0.547300	0.540060
H311	H	0.463557	-0.516534	0.536149
H312	H	0.436922	-0.564475	0.579115
C313	C	0.494266	-0.622310	0.526974
C314	C	0.503434	-0.584522	0.522168
H315	H	0.523465	-0.645272	0.515939
H316	H	0.474830	-0.610678	0.508727
H317	H	0.478287	-0.636617	0.559520
H318	H	0.519407	-0.570212	0.489621
H319	H	0.522874	-0.596153	0.540408
O320	O	0.427068	-0.371013	0.452321
C321	C	0.394381	-0.324544	0.449671
H322	H	0.358851	-0.322609	0.452963
H323	H	0.389109	-0.315243	0.479856
C324	C	0.457431	-0.291340	0.397512
C325	C	0.413794	-0.288962	0.401551
H326	H	0.469406	-0.269390	0.367830
H327	H	0.479453	-0.322647	0.399298
H328	H	0.453032	-0.283589	0.422668
H329	H	0.418195	-0.296718	0.376398
H330	H	0.391773	-0.257655	0.399759
H331	H	0.332825	-0.345993	0.486242
H332	H	0.129672	-0.118967	0.410356
O333	O	0.164282	-0.213267	0.435349
C334	C	0.139090	-0.201083	0.406559
H335	H	0.099229	-0.187399	0.425827
H336	H	0.149667	-0.172145	0.371548
C337	C	0.200090	-0.262155	0.372711
C338	C	0.151131	-0.245352	0.396378
H339	H	0.207519	-0.289462	0.366429
H340	H	0.217064	-0.270363	0.392106
H341	H	0.208898	-0.238037	0.343538
H342	H	0.142326	-0.269468	0.425553
H343	H	0.134156	-0.237150	0.376988
O344	O	0.051460	-0.115172	0.563167
C345	C	0.044458	-0.147863	0.609964
H346	H	0.050030	-0.183386	0.609874
H347	H	0.071003	-0.153156	0.624212
C348	C	-0.013423	-0.084803	0.642067
C349	C	-0.006582	-0.128433	0.641957
H350	H	-0.044905	-0.072818	0.661803
H351	H	-0.008704	-0.062779	0.610539
H352	H	0.008702	-0.089220	0.653940
H353	H	-0.028702	-0.124015	0.630080
H354	H	-0.011306	-0.150457	0.673484
H355	H	0.086148	-0.209418	0.588113
H356	H	-0.028474	-0.460433	0.068892
H357	H	0.045284	-0.608113	0.068976
O358	O	-0.063173	-0.485404	0.163180
C359	C	-0.038009	-0.456617	0.151046
H360	H	0.001858	-0.475896	0.137411
H361	H	-0.048566	-0.421610	0.122088
C362	C	-0.099083	-0.422741	0.212073
C363	C	-0.050116	-0.446421	0.195331
H364	H	-0.106552	-0.416449	0.239389
H365	H	-0.116037	-0.442133	0.220247
H366	H	-0.107874	-0.393571	0.187937
H367	H	-0.041327	-0.475593	0.219464
H368	H	-0.033161	-0.427033	0.187162
O369	O	-0.063494	-0.485350	0.327814
C370	C	-0.070529	-0.438554	0.320749
H371	H	-0.065008	-0.438649	0.350828
H372	H	-0.043966	-0.424309	0.285280
C373	C	-0.128334	-0.406435	0.283368
C374	C	-0.121557	-0.406551	0.320314
H375	H	-0.159810	-0.386694	0.283097
H376	H	-0.123594	-0.437963	0.288126
H377	H	-0.106195	-0.394566	0.253814
H378	H	-0.143691	-0.418427	0.349867
H379	H	-0.126302	-0.375025	0.315560
H380	H	-0.028907	-0.460416	0.362542
O381	O	0.049308	-0.613161	0.440939
C382	C	0.093620	-0.606030	0.418367
H383	H	0.100526	-0.587960	0.378408
H384	H	0.093156	-0.582517	0.433084
C385	C	0.124839	-0.676606	0.476888
C386	C	0.133323	-0.654416	0.427808
H387	H	0.149329	-0.706452	0.482713
H388	H	0.094984	-0.681410	0.492097
H389	H	0.124451	-0.657008	0.489146
H390	H	0.133704	-0.674012	0.415552
H391	H	0.163178	-0.649617	0.412598
H392	H	0.014660	-0.638178	0.406265
H393	H	0.081021	-0.864532	0.371574
O394	O	0.056047	-0.770295	0.337717
C395	C	0.102497	-0.803013	0.335103
H396	H	0.100556	-0.838521	0.364536
H397	H	0.121560	-0.808332	0.298994
C398	C	0.132495	-0.739990	0.305115
C399	C	0.130110	-0.783601	0.341268
H400	H	0.149528	-0.728015	0.308916
H401	H	0.101200	-0.717946	0.306874
H402	H	0.148379	-0.744428	0.275027
H403	H	0.114221	-0.779160	0.371354
H404	H	0.161402	-0.805643	0.339514
H405	H	-0.065262	-0.864385	0.427124
H406	H	-0.095331	-0.773979	0.396956
H407	H	-0.231954	-0.601008	0.442726
O408	O	-0.325953	-0.492475	0.319827
C409	C	-0.293220	-0.485469	0.273054
H410	H	-0.257714	-0.491074	0.273208
H411	H	-0.287908	-0.511993	0.258769
C412	C	-0.356209	-0.427531	0.240860
C413	C	-0.312601	-0.434411	0.241049
H414	H	-0.368164	-0.396037	0.221117
H415	H	-0.378262	-0.432253	0.272372
H416	H	-0.351776	-0.449638	0.228957
H417	H	-0.317035	-0.412309	0.252957
H418	H	-0.290549	-0.429685	0.209538
H419	H	-0.231721	-0.527215	0.295000
H420	H	-0.322352	-0.570775	0.472713
