data_functionalizedCrystal
_audit_creation_method	'MofGen! by Chris Wilmer'
_symmetry_space_group_name_H-M	'P1'
_symmetry_Int_Tables_number	1
_symmetry_cell_setting	triclinic
loop_
_symmetry_equiv_pos_as_xyz
  x,y,z
_cell_length_a	15.995350
_cell_length_b	11.792241
_cell_length_c	15.072220
_cell_angle_alpha	89.997499
_cell_angle_beta	90.007060
_cell_angle_gamma	96.157105
loop_
_atom_site_label
_atom_site_type_symbol
_atom_site_fract_x
_atom_site_fract_y
_atom_site_fract_z
O1	O	0.114768	-1.505954	0.073692
O2	O	0.126595	-1.175515	0.073712
O3	O	-0.001165	-1.349767	0.073700
O4	O	0.242528	-1.331702	0.073703
O5	O	-0.001180	-1.349747	-0.073865
O6	O	0.126581	-1.175494	-0.073853
O7	O	0.114753	-1.505934	-0.073873
Zn8	Zn	0.120665	-1.340710	-0.097292
Zn9	Zn	0.120684	-1.340738	0.097131
O10	O	0.242514	-1.331681	-0.073862
C11	C	-0.032370	-1.349010	-0.000080
C12	C	-0.125331	-1.346771	-0.000075
C13	C	0.125845	-1.133220	-0.000068
C14	C	0.123621	-1.007224	-0.000060
C15	C	0.115504	-1.548229	-0.000092
C16	C	0.117727	-1.674224	-0.000094
C17	C	-0.463115	-1.338730	-0.000078
C18	C	-0.416244	-1.214630	0.000261
C19	C	-0.319544	-1.216870	-0.000072
C20	C	-0.295536	-1.342718	-0.000076
C21	C	-0.336344	-1.403917	-0.084345
C22	C	-0.432994	-1.400799	-0.084416
C23	C	-0.433324	-1.403387	0.083394
C24	C	-0.336379	-1.403357	0.084507
C25	C	-0.200829	-1.344979	-0.000078
C26	C	-0.557823	-1.336473	-0.000082
C27	C	0.273719	-1.332438	-0.000079
C28	C	0.366680	-1.334677	-0.000079
N29	N	0.120651	-1.340700	-0.229981
C30	C	0.119532	-0.776546	-0.000086
C31	C	0.121804	-0.904913	-0.000072
N32	N	0.120691	-1.340757	0.229820
C33	C	0.120678	-1.340737	0.410817
C34	C	0.052455	-1.434153	0.448452
C35	C	0.052201	-1.433903	0.551278
C36	C	0.120664	-1.340720	0.589021
C37	C	0.101180	-1.222250	0.551677
C38	C	0.100697	-1.222808	0.448819
C39	C	0.208584	-1.364723	0.448741
C40	C	0.208005	-1.367404	0.551605
C41	C	0.120659	-1.340702	0.689735
C42	C	0.120682	-1.340747	0.310104
H43	H	-0.434995	-1.165037	0.060692
H44	H	-0.451504	-1.356156	-0.147405
C45	C	-0.281431	-1.151869	0.081529
C46	C	-0.231581	-1.213752	0.150432
C47	C	-0.193475	-1.148740	0.232033
C48	C	-0.205220	-1.021845	0.244732
C49	C	-0.255072	-0.959955	0.175827
C50	C	-0.293178	-1.024967	0.094226
H51	H	-0.222885	-1.307693	0.141033
H52	H	-0.156571	-1.194555	0.283041
H53	H	-0.177012	-0.973719	0.305139
H54	H	-0.263768	-0.866014	0.185226
H55	H	-0.330082	-0.979151	0.043218
C56	C	-0.316683	-1.528815	-0.088587
C57	C	-0.224794	-1.556217	-0.093167
C58	C	-0.205126	-1.681113	-0.097405
C59	C	-0.277347	-1.778607	-0.097062
C60	C	-0.369243	-1.751208	-0.092482
C61	C	-0.388911	-1.626313	-0.088245
H62	H	-0.171326	-1.484043	-0.093421
H63	H	-0.137099	-1.701394	-0.100795
H64	H	-0.262788	-1.871062	-0.100199
H65	H	-0.422710	-1.823382	-0.092229
H66	H	-0.456938	-1.606031	-0.084854
H67	H	-0.291905	-1.168423	-0.060577
C68	C	-0.461306	-1.348590	0.169683
C69	C	-0.555457	-1.342760	0.188017
C70	C	-0.583438	-1.287950	0.274301
C71	C	-0.517267	-1.238970	0.342251
C72	C	-0.423110	-1.244799	0.323918
C73	C	-0.395129	-1.299608	0.237634
H74	H	-0.604446	-1.379019	0.137715
H75	H	-0.653140	-1.283635	0.287871
H76	H	-0.537981	-1.198396	0.406123
H77	H	-0.374121	-1.208539	0.374220
H78	H	-0.325427	-1.303923	0.224064
C79	C	0.165201	-1.126021	0.415177
C80	C	0.216986	-1.048468	0.481906
C81	C	0.281466	-0.951657	0.448268
C82	C	0.294161	-0.932399	0.347901
C83	C	0.242375	-1.009955	0.281165
C84	C	0.177895	-1.106766	0.314803
H85	H	0.207589	-1.062722	0.556209
H86	H	0.319802	-0.894246	0.497670
H87	H	0.341894	-0.860734	0.323000
H88	H	0.251772	-0.995701	0.206862
H89	H	0.139559	-1.164177	0.265401
H90	H	-0.436068	-1.165241	-0.059828
H91	H	0.063934	-1.522509	0.423724
C92	C	-0.476012	-1.523876	-0.089605
C93	C	-0.459404	-1.599779	-0.169456
C94	C	-0.502419	-1.722851	-0.174654
C95	C	-0.562041	-1.770021	-0.100001
C96	C	-0.578652	-1.694117	-0.020143
C97	C	-0.535637	-1.571045	-0.014945
H98	H	-0.415266	-1.564862	-0.224725
H99	H	-0.490123	-1.779040	-0.233770
H100	H	-0.593884	-1.861126	-0.103848
H101	H	-0.622790	-1.729034	0.035125
H102	H	-0.547933	-1.514856	0.044171
H103	H	-0.464669	-1.494885	0.083957
H104	H	-0.308162	-1.361394	-0.147052
C105	C	0.014072	-1.194298	0.416391
C106	C	-0.065937	-1.271467	0.442531
C107	C	-0.152566	-1.242960	0.410109
C108	C	-0.159186	-1.137284	0.351546
C109	C	-0.079175	-1.060109	0.325403
C110	C	0.007454	-1.088616	0.357825
H111	H	-0.061039	-1.349700	0.485885
H112	H	-0.211796	-1.300091	0.429462
H113	H	-0.223314	-1.116182	0.327545
H114	H	-0.084073	-0.981876	0.282049
H115	H	0.066684	-1.031485	0.338472
H116	H	-0.309327	-1.358613	0.146847
H117	H	0.227210	-1.449277	0.422808
H118	H	-0.320600	-1.495132	0.089592
C119	C	0.067967	-1.552858	0.585397
C120	C	0.080877	-1.648745	0.519050
C121	C	0.096646	-1.767703	0.553163
C122	C	0.099505	-1.790775	0.653623
C123	C	0.086595	-1.694885	0.719976
C124	C	0.070826	-1.575926	0.685863
H125	H	0.078760	-1.631668	0.444678
H126	H	0.106203	-1.838687	0.504044
H127	H	0.111179	-1.878835	0.678876
H128	H	0.088712	-1.711961	0.794348
H129	H	0.061270	-1.504943	0.734982
H130	H	-0.012402	-1.419033	0.422594
H131	H	-0.013026	-1.418557	0.575875
H132	H	0.149530	-1.151050	0.576124
C133	C	0.015536	-1.193025	0.586454
C134	C	-0.036784	-1.276443	0.648688
C135	C	-0.122431	-1.247225	0.683463
C136	C	-0.155756	-1.134590	0.656004
C137	C	-0.103435	-1.051164	0.593767
C138	C	-0.017788	-1.080382	0.558992
H139	H	-0.012116	-1.359829	0.669018
H140	H	-0.161162	-1.308983	0.729535
H141	H	-0.219156	-1.112961	0.681746
H142	H	-0.128103	-0.967778	0.573437
H143	H	0.020943	-1.018624	0.512920
H144	H	0.222781	-1.454556	0.576013
H145	H	0.261183	-1.303785	0.577300
H146	H	0.259359	-1.296604	0.424398
