data_functionalizedCrystal
_audit_creation_method	'MofGen! by Chris Wilmer'
_symmetry_space_group_name_H-M	'P1'
_symmetry_Int_Tables_number	1
_symmetry_cell_setting	triclinic
loop_
_symmetry_equiv_pos_as_xyz
  x,y,z
_cell_length_a	10.489741
_cell_length_b	10.654550
_cell_length_c	9.730223
_cell_angle_alpha	90.004253
_cell_angle_beta	90.000594
_cell_angle_gamma	84.512052
loop_
_atom_site_label
_atom_site_type_symbol
_atom_site_fract_x
_atom_site_fract_y
_atom_site_fract_z
O1	O	-1.693966	-0.177192	-0.114205
O2	O	-1.193966	0.322808	0.385795
O3	O	-1.322762	-0.193824	-0.114226
O4	O	-0.822762	0.306176	0.385774
O5	O	-1.516899	-0.002773	-0.114206
O6	O	-1.016899	0.497227	0.385794
O7	O	-1.499829	-0.368243	-0.114224
O8	O	-0.999829	0.131757	0.385776
O9	O	-1.516886	-0.002767	0.114374
O10	O	-1.016886	0.497233	0.614374
O11	O	-1.322750	-0.193819	0.114354
O12	O	-0.822750	0.306181	0.614354
O13	O	-1.693953	-0.177186	0.114375
O14	O	-1.193953	0.322814	0.614375
Zn15	Zn	-1.508349	-0.185502	0.150657
Zn16	Zn	-1.008349	0.314498	0.650657
Zn17	Zn	-1.508366	-0.185509	-0.150507
Zn18	Zn	-1.008366	0.314491	0.349493
O19	O	-1.499817	-0.368238	0.114356
O20	O	-0.999817	0.131762	0.614356
C21	C	-1.515639	0.044029	0.000083
C22	C	-1.015639	0.544029	0.500083
C23	C	-1.511889	0.183474	0.000081
C24	C	-1.011889	0.683474	0.500081
C25	C	-1.275225	-0.192565	0.000061
C26	C	-0.775225	0.307435	0.500061
C27	C	-1.133597	-0.188807	0.000053
C28	C	-0.633597	0.311193	0.500053
C29	C	-1.741491	-0.178445	0.000085
C30	C	-1.241491	0.321555	0.500085
C31	C	-1.883118	-0.182204	0.000084
C32	C	-1.383118	0.317796	0.500084
C33	C	-1.065516	-0.067246	0.000072
C34	C	-0.565516	0.432754	0.500072
C35	C	-0.973367	-0.124673	-0.112629
C36	C	-0.473367	0.375327	0.387371
C37	C	-0.973389	-0.124697	0.112733
C38	C	-0.473389	0.375303	0.612733
C39	C	-1.043314	-0.246283	-0.112741
C40	C	-0.543314	0.253717	0.387259
C41	C	-1.043345	-0.246290	0.112722
C42	C	-0.543345	0.253710	0.612722
C43	C	-0.951224	-0.303805	-0.000008
C44	C	-0.451224	0.196195	0.499992
C45	C	-1.501076	-0.415039	0.000063
C46	C	-1.001076	0.084961	0.500063
C47	C	-1.504826	-0.554484	0.000057
C48	C	-1.004826	-0.054484	0.500057
N49	N	-1.508347	-0.185496	0.356193
N50	N	-1.008347	0.314504	0.856193
C51	C	-1.626194	0.262906	0.000087
C52	C	-1.126194	0.762906	0.500087
C53	C	-1.622663	0.393928	0.000070
C54	C	-1.122663	0.893928	0.500070
C55	C	-1.390513	0.366074	0.000047
C56	C	-0.890513	0.866074	0.500047
C57	C	-1.394045	0.235054	0.000054
C58	C	-0.894045	0.735054	0.500054
N59	N	-1.508378	-0.185504	-0.356044
N60	N	-1.008378	0.314496	0.143956
C61	C	-1.594341	-0.100935	0.428128
C62	C	-1.094341	0.399065	0.928128
C63	C	-1.594353	-0.100935	0.572011
C64	C	-1.094353	0.399065	1.072011
C65	C	-1.422376	-0.270070	0.572012
C66	C	-0.922376	0.229930	1.072012
C67	C	-1.422358	-0.270062	0.428131
C68	C	-0.922358	0.229938	0.928131
H69	H	-1.115254	0.032684	-0.000064
H70	H	-0.615254	0.532684	0.499936
Br71	Br	-1.305682	-0.384836	0.669647
Br72	Br	-0.805682	0.115164	1.169647
H73	H	-1.294568	0.408087	0.000027
H74	H	-0.794568	0.908087	0.500027
Br75	Br	-1.305635	-0.384822	0.330494
Br76	Br	-0.805635	0.115178	0.830494
H77	H	-0.942383	-0.073240	-0.207907
H78	H	-0.442383	0.426760	0.292093
Br79	Br	-1.786124	0.192907	0.000125
Br80	Br	-1.286124	0.692907	0.500125
Br81	Br	-1.711038	0.013835	0.330502
Br82	Br	-1.211038	0.513835	0.830502
Br83	Br	-1.094653	-0.331951	-0.271730
Br84	Br	-0.594653	0.168049	0.228270
Br85	Br	-1.238906	0.127243	0.000027
Br86	Br	-0.738906	0.627243	0.500027
H87	H	-1.074361	-0.297681	0.208004
H88	H	-0.574361	0.202319	0.708004
Br89	Br	-1.711057	0.013837	0.669634
Br90	Br	-1.211057	0.513837	1.169634
Br91	Br	-1.777798	0.501725	0.000070
Br92	Br	-1.277798	1.001725	0.500070
Br93	Br	-0.921788	-0.038933	0.271542
Br94	Br	-0.421788	0.461067	0.771542
H95	H	-0.901752	-0.403841	-0.000074
H96	H	-0.401752	0.096159	0.499926
