data_functionalizedCrystal
_audit_creation_method	'MofGen! by Chris Wilmer'
_symmetry_space_group_name_H-M	'P1'
_symmetry_Int_Tables_number	1
_symmetry_cell_setting	triclinic
loop_
_symmetry_equiv_pos_as_xyz
  x,y,z
_cell_length_a	17.699083
_cell_length_b	10.489741
_cell_length_c	16.176319
_cell_angle_alpha	89.993511
_cell_angle_beta	89.998611
_cell_angle_gamma	83.911094
loop_
_atom_site_label
_atom_site_type_symbol
_atom_site_fract_x
_atom_site_fract_y
_atom_site_fract_z
O1	O	1.005134	0.161296	-0.068630
O2	O	1.505134	0.661296	0.431370
O3	O	0.784893	0.182281	-0.068657
O4	O	1.284893	0.682281	0.431343
O5	O	0.900025	-0.013903	-0.068638
O6	O	1.400025	0.486097	0.431362
O7	O	0.890002	0.357479	-0.068649
O8	O	1.390002	0.857479	0.431351
O9	O	0.900009	-0.013915	0.068855
O10	O	1.400009	0.486085	0.568855
O11	O	0.784877	0.182268	0.068836
O12	O	1.284877	0.682268	0.568836
O13	O	1.005118	0.161283	0.068863
O14	O	1.505118	0.661283	0.568863
Cu15	Cu	0.894996	0.171775	0.081404
Cu16	Cu	1.394996	0.671775	0.581404
Cu17	Cu	0.895015	0.171789	-0.081198
Cu18	Cu	1.395015	0.671789	0.418802
O19	O	0.889986	0.357467	0.068844
O20	O	1.389986	0.857467	0.568844
C21	C	0.756683	0.181523	0.000086
C22	C	1.256683	0.681523	0.500086
C23	C	0.672650	0.179267	0.000076
C24	C	1.172650	0.679267	0.500076
C25	C	0.624782	0.294422	0.000073
C26	C	1.124782	0.794422	0.500073
C27	C	0.545825	0.292295	0.000083
C28	C	1.045825	0.792295	0.500083
C29	C	0.514737	0.175011	0.000091
C30	C	1.014737	0.675011	0.500091
C31	C	0.562611	0.059847	0.000097
C32	C	1.062611	0.559847	0.500097
C33	C	0.641567	0.061975	0.000092
C34	C	1.141567	0.561975	0.500092
C35	C	0.244192	0.051260	0.000118
C36	C	0.744192	0.551260	0.500118
C37	C	0.165230	0.049140	0.000120
C38	C	0.665230	0.549140	0.500120
C39	C	0.148450	0.281580	0.000109
C40	C	0.648450	0.781580	0.500109
C41	C	0.227406	0.283709	0.000104
C42	C	0.727406	0.783709	0.500104
C43	C	0.275273	0.168545	0.000114
C44	C	0.775273	0.668545	0.500114
C45	C	0.360887	0.170853	0.000104
C46	C	0.860887	0.670853	0.500104
C47	C	0.429124	0.172702	0.000096
C48	C	0.929124	0.672702	0.500096
C49	C	0.899260	-0.061427	0.000108
C50	C	1.399260	0.438573	0.500108
C51	C	0.896995	-0.203014	0.000106
C52	C	1.396995	0.296986	0.500106
C53	C	0.823740	-0.269793	0.000091
C54	C	1.323740	0.230207	0.500091
C55	C	0.858337	-0.362565	0.067887
C56	C	1.358337	0.137435	0.567887
C57	C	0.858370	-0.362527	-0.067671
C58	C	1.358370	0.137473	0.432329
C59	C	0.931622	-0.293921	0.067958
C60	C	1.431622	0.206079	0.567958
C61	C	0.931645	-0.293874	-0.067661
C62	C	1.431645	0.206126	0.432339
C63	C	0.966296	-0.386619	0.000151
C64	C	1.466296	0.113381	0.500151
C65	C	1.033328	0.162042	0.000118
C66	C	1.533328	0.662042	0.500118
C67	C	1.117361	0.164297	0.000123
C68	C	1.617361	0.664297	0.500123
C69	C	0.890751	0.404991	0.000096
C70	C	1.390751	0.904991	0.500096
C71	C	0.893016	0.546578	0.000093
C72	C	1.393016	1.046578	0.500093
N73	N	0.894988	0.171764	0.195769
N74	N	1.394988	0.671764	0.695769
N75	N	0.895029	0.171790	-0.195563
N76	N	1.395029	0.671790	0.304437
C77	C	0.945984	0.084929	0.239042
C78	C	1.445984	0.584929	0.739042
C79	C	0.945988	0.084928	0.325589
C80	C	1.445988	0.584928	0.825589
C81	C	0.894999	0.171768	0.368862
C82	C	1.394999	0.671768	0.868862
C83	C	0.843997	0.258607	0.325583
C84	C	1.343997	0.758607	0.825583
C85	C	0.843990	0.258601	0.239037
C86	C	1.343990	0.758601	0.739037
C87	C	0.844023	0.258631	0.674611
C88	C	1.344023	0.758631	1.174611
C89	C	0.844036	0.258632	0.761163
C90	C	1.344036	0.758632	1.261163
C91	C	0.946021	0.084957	0.761162
C92	C	1.446021	0.584957	1.261162
C93	C	0.946014	0.084951	0.674617
C94	C	1.446014	0.584951	1.174617
C95	C	0.895010	0.171785	0.631346
C96	C	1.395010	0.671785	1.131346
C97	C	0.895006	0.171784	0.537502
C98	C	1.395006	0.671784	1.037502
C99	C	0.895006	0.171776	0.462704
C100	C	1.395006	0.671776	0.962704
H101	H	0.650088	0.389929	0.000065
H102	H	1.150088	0.889929	0.500065
O103	O	0.968499	-0.257329	-0.136052
O104	O	1.468499	0.242671	0.363948
C105	C	0.961041	-0.129252	-0.260035
C106	C	1.461041	0.370748	0.239965
C107	C	0.919229	-0.170514	-0.182597
C108	C	1.419229	0.329486	0.317403
H109	H	0.921219	-0.059077	-0.297697
H110	H	1.421219	0.440923	0.202303
H111	H	1.012980	-0.080978	-0.240545
H112	H	1.512980	0.419022	0.259455
H113	H	0.979868	-0.217241	-0.299223
H114	H	1.479868	0.282759	0.200777
H115	H	0.900352	-0.082591	-0.143375
H116	H	1.400352	0.417409	0.356625
H117	H	0.867324	-0.218833	-0.202144
H118	H	1.367324	0.281167	0.297856
O119	O	0.794456	0.343107	0.632713
O120	O	1.294456	0.843107	1.132713
C121	C	0.693270	0.515327	0.641854
C122	C	1.193270	1.015327	1.141854
C123	C	0.749378	0.419742	0.689411
C124	C	1.249378	0.919742	1.189411
H125	H	0.656798	0.577294	0.687674
H126	H	1.156798	1.077294	1.187674
H127	H	0.726244	0.579065	0.601346
H128	H	1.226244	1.079065	1.101346
H129	H	0.655191	0.460313	0.601327
H130	H	1.155191	0.960313	1.101327
H131	H	0.787469	0.474652	0.729984
H132	H	1.287469	0.974652	1.229984
H133	H	0.716356	0.356005	0.729867
H134	H	1.216356	0.856005	1.229867
H135	H	0.827372	-0.392910	-0.124992
H136	H	1.327372	0.107090	0.375008
H137	H	0.987509	0.014219	0.203815
H138	H	1.487509	0.514219	0.703815
H139	H	0.802477	0.329310	0.360821
H140	H	1.302477	0.829310	0.860821
O141	O	0.794427	0.343079	0.197128
O142	O	1.294427	0.843079	0.697128
C143	C	0.693237	0.515296	0.206256
C144	C	1.193237	1.015296	0.706256
C145	C	0.749343	0.419717	0.253820
C146	C	1.249343	0.919717	0.753820
H147	H	0.656762	0.577265	0.252071
H148	H	1.156762	1.077265	0.752071
H149	H	0.726214	0.579033	0.165748
H150	H	1.226214	1.079033	0.665748
H151	H	0.655163	0.460277	0.165727
H152	H	1.155163	0.960277	0.665727
H153	H	0.787431	0.474632	0.294394
H154	H	1.287431	0.974632	0.794394
H155	H	0.716319	0.355982	0.294276
H156	H	1.216319	0.855982	0.794276
O157	O	0.968632	-0.257706	0.136329
O158	O	1.468632	0.242294	0.636329
C159	C	1.074407	-0.156244	0.189720
C160	C	1.574407	0.343756	0.689720
C161	C	1.032563	-0.197164	0.112223
C162	C	1.532563	0.302836	0.612223
H163	H	1.126112	-0.107312	0.170259
H164	H	1.626112	0.392688	0.670259
H165	H	1.034506	-0.086735	0.227751
H166	H	1.534506	0.413265	0.727751
H167	H	1.093609	-0.244488	0.228532
H168	H	1.593609	0.255512	0.728532
H169	H	1.013357	-0.108997	0.073348
H170	H	1.513357	0.391003	0.573348
H171	H	1.072491	-0.266718	0.074254
H172	H	1.572491	0.233282	0.574254
O173	O	0.135119	-0.064876	0.000023
O174	O	0.635119	0.435124	0.500023
C175	C	0.125262	-0.264168	-0.071212
C176	C	0.625262	0.235832	0.428788
C177	C	0.159427	-0.135114	-0.071194
C178	C	0.659427	0.364886	0.428806
H179	H	0.144888	-0.320981	-0.128794
H180	H	0.644888	0.179019	0.371206
H181	H	0.144942	-0.321149	-0.013705
H182	H	0.644942	0.178851	0.486295
H183	H	0.060609	-0.245871	-0.071174
H184	H	0.560609	0.254129	0.428826
H185	H	0.224081	-0.153295	-0.071262
H186	H	0.724081	0.346705	0.428738
H187	H	0.139687	-0.078174	-0.128696
H188	H	0.639687	0.421826	0.371304
O189	O	0.687959	-0.050005	0.000054
O190	O	1.187959	0.449995	0.500054
C191	C	0.696275	-0.280786	0.000112
C192	C	1.196275	0.219214	0.500112
C193	C	0.643650	-0.154061	0.000132
C194	C	1.143650	0.345939	0.500132
H195	H	0.660473	-0.364949	0.000193
H196	H	1.160473	0.135051	0.500193
H197	H	0.733644	-0.285684	-0.057444
H198	H	1.233644	0.214316	0.442556
H199	H	0.733677	-0.285535	0.057638
H200	H	1.233677	0.214465	0.557638
H201	H	0.606201	-0.149228	-0.057354
H202	H	1.106201	0.350772	0.442646
H203	H	0.606333	-0.149216	0.057726
H204	H	1.106333	0.350784	0.557726
O205	O	0.995607	0.000543	0.367495
O206	O	1.495607	0.500543	0.867495
C207	C	1.096755	-0.171744	0.358362
C208	C	1.596755	0.328256	0.858362
C209	C	1.040608	-0.076229	0.310801
C210	C	1.540608	0.423771	0.810801
H211	H	1.133142	-0.233856	0.312545
H212	H	1.633142	0.266144	0.812545
H213	H	1.134910	-0.116800	0.398843
H214	H	1.634910	0.383200	0.898843
H215	H	1.063736	-0.235348	0.398917
H216	H	1.563736	0.264652	0.898917
H217	H	1.073565	-0.012601	0.270201
H218	H	1.573565	0.487399	0.770201
H219	H	1.002454	-0.131252	0.270372
H220	H	1.502454	0.368748	0.770372
H221	H	1.026580	-0.437163	0.000196
H222	H	1.526580	0.062837	0.500196
H223	H	0.987537	0.014242	0.639387
H224	H	1.487537	0.514242	1.139387
H225	H	0.506854	0.386067	0.000080
H226	H	1.006854	0.886067	0.500080
H227	H	0.252713	0.379213	0.000094
H228	H	0.752713	0.879213	0.500094
H229	H	0.109467	0.375352	0.000105
H230	H	0.609467	0.875352	0.500105
H231	H	0.283156	-0.042514	0.000127
H232	H	0.783156	0.457486	0.500127
H233	H	0.987549	0.014248	0.796403
H234	H	1.487549	0.514248	1.296403
H235	H	0.537293	-0.035648	0.000115
H236	H	1.037293	0.464352	0.500115
H237	H	0.763510	-0.219023	0.000152
H238	H	1.263510	0.280977	0.500152
H239	H	0.827334	-0.393005	0.125195
H240	H	1.327334	0.106995	0.625195
H241	H	0.802511	0.329350	0.796394
H242	H	1.302511	0.829350	1.296394
