data_functionalizedCrystal
_audit_creation_method	'MofGen! by Chris Wilmer'
_symmetry_space_group_name_H-M	'P1'
_symmetry_Int_Tables_number	1
_symmetry_cell_setting	triclinic
loop_
_symmetry_equiv_pos_as_xyz
  x,y,z
_cell_length_a	9.798715
_cell_length_b	10.723024
_cell_length_c	10.723024
_cell_angle_alpha	95.532131
_cell_angle_beta	90.001978
_cell_angle_gamma	89.996609
loop_
_atom_site_label
_atom_site_type_symbol
_atom_site_fract_x
_atom_site_fract_y
_atom_site_fract_z
O1	O	0.113478	-1.657187	0.175024
O2	O	0.113483	-1.294035	0.191778
O3	O	0.113475	-1.483988	0.001825
O4	O	0.113486	-1.467234	0.364977
O5	O	-0.113507	-1.483974	0.001824
O6	O	-0.113499	-1.294021	0.191777
O7	O	-0.113504	-1.657173	0.175024
Zn8	Zn	-0.149540	-1.475595	0.183401
Zn9	Zn	0.149519	-1.475613	0.183401
O10	O	-0.113496	-1.467220	0.364977
C11	C	-0.000008	-1.247528	0.190558
C12	C	-0.000006	-1.108974	0.186911
N13	N	-0.353640	-1.475591	0.183399
C14	C	-0.000014	-1.482762	-0.044675
C15	C	-0.000009	-1.479114	-0.183229
C16	C	-0.421420	-1.555347	0.103292
C17	C	-0.578582	-1.555367	0.103288
N18	N	0.353619	-1.475627	0.183393
C19	C	-0.000010	-1.703680	0.176243
C20	C	-0.000003	-1.842234	0.179891
C21	C	-0.000002	-1.033991	0.293198
C22	C	-0.000001	-0.890788	0.289431
C23	C	-0.000009	-1.585401	-0.258212
C24	C	-0.000004	-1.581634	-0.401415
C25	C	-0.000004	-1.468447	0.411477
C26	C	0.000000	-1.472094	0.550031
H27	H	-0.363100	-1.623611	0.034707
F28	F	-0.000013	-1.700570	-0.485629
H29	H	0.000001	-1.385328	-0.225051
F30	F	0.000014	-0.806574	0.408367
F31	F	-0.000003	-1.088649	0.415788
F32	F	-0.000019	-1.054316	0.064321
F33	F	-0.654766	-1.644626	0.013647
F34	F	-0.000010	-1.353153	-0.365762
H35	H	0.000002	-0.906659	0.088896
F36	F	-0.000002	-1.707991	-0.203554
F37	F	-0.570207	-1.386376	0.273048
F38	F	-0.429865	-1.386351	0.273035
