data_functionalizedCrystal
_audit_creation_method	'MofGen! by Chris Wilmer'
_symmetry_space_group_name_H-M	'P1'
_symmetry_Int_Tables_number	1
_symmetry_cell_setting	triclinic
loop_
_symmetry_equiv_pos_as_xyz
  x,y,z
_cell_length_a	17.699077
_cell_length_b	14.519731
_cell_length_c	16.176319
_cell_angle_alpha	89.992219
_cell_angle_beta	89.993140
_cell_angle_gamma	83.484715
loop_
_atom_site_label
_atom_site_type_symbol
_atom_site_fract_x
_atom_site_fract_y
_atom_site_fract_z
O1	O	1.004423	0.116597	-0.068737
O2	O	0.784088	0.131776	-0.068742
O3	O	0.900089	-0.010076	-0.068732
O4	O	0.888422	0.258448	-0.068747
O5	O	0.900073	-0.010085	0.068761
O6	O	0.784072	0.131767	0.068751
O7	O	1.004407	0.116588	0.068756
Cu8	Cu	0.894238	0.124177	0.081308
Cu9	Cu	0.894257	0.124187	-0.081294
O10	O	0.888406	0.258439	0.068746
C11	C	0.755881	0.131228	0.000004
C12	C	0.671858	0.129599	0.000003
C13	C	0.632380	0.128827	0.074951
C14	C	0.553433	0.127282	0.074952
C15	C	0.513965	0.126516	0.000004
C16	C	0.553449	0.127285	-0.074950
C17	C	0.632395	0.128824	-0.074950
C18	C	0.235068	0.121079	-0.074951
C19	C	0.156116	0.119543	-0.074946
C20	C	0.156105	0.119537	0.074951
C21	C	0.235052	0.121076	0.074951
C22	C	0.274529	0.121840	-0.000002
C23	C	0.360133	0.123514	-0.000003
C24	C	0.428362	0.124849	0.000003
C25	C	0.899534	-0.044437	0.000015
C26	C	0.897896	-0.146811	0.000015
C27	C	0.896565	-0.229949	0.000013
C28	C	0.894902	-0.334251	0.000007
C29	C	0.893582	-0.417384	0.000002
C30	C	0.891919	-0.521692	-0.000003
C31	C	1.032613	0.117136	0.000008
C32	C	1.116636	0.118764	0.000004
C33	C	0.888961	0.292801	-0.000003
C34	C	0.890599	0.395174	-0.000008
N35	N	0.894230	0.124168	0.195673
N36	N	0.894271	0.124188	-0.195659
C37	C	0.945611	0.061382	0.238942
C38	C	0.945615	0.061381	0.325489
C39	C	0.894241	0.124172	0.368766
C40	C	0.842855	0.186961	0.325491
C41	C	0.842848	0.186957	0.238946
C42	C	0.842881	0.186978	0.674519
C43	C	0.842893	0.186979	0.761071
C44	C	0.945648	0.061403	0.761062
C45	C	0.945641	0.061399	0.674517
C46	C	0.894252	0.124184	0.631250
C47	C	0.894248	0.124183	0.537406
C48	C	0.894248	0.124178	0.462608
H49	H	0.267182	0.121704	0.135982
C50	C	0.510011	0.126429	0.157400
C51	C	0.512372	0.206687	0.219227
C52	C	0.468954	0.205830	0.301680
C53	C	0.423174	0.124715	0.322306
C54	C	0.420811	0.044450	0.260477
C55	C	0.464230	0.045308	0.178024
H56	H	0.546263	0.266739	0.203961
H57	H	0.470703	0.265247	0.347450
H58	H	0.391033	0.124080	0.383342
H59	H	0.386921	-0.015602	0.275744
H60	H	0.462480	-0.014110	0.132254
C61	C	0.786341	0.256033	0.373091
C62	C	0.786381	0.256089	0.468288
C63	C	0.729868	0.325166	0.515885
C64	C	0.673315	0.394186	0.468286
C65	C	0.673274	0.394133	0.373084
C66	C	0.729787	0.325056	0.325487
H67	H	0.828246	0.204994	0.503529
H68	H	0.729899	0.325205	0.586360
H69	H	0.631481	0.445321	0.503520
H70	H	0.631408	0.445228	0.337843
H71	H	0.729756	0.325017	0.255011
H72	H	0.123953	0.118910	0.135982
H73	H	0.664538	0.129455	-0.135981
H74	H	0.987489	0.010276	0.796300
H75	H	0.801055	0.238113	0.796306
C76	C	1.002151	-0.007672	0.626912
C77	C	0.972473	-0.078155	0.567432
C78	C	1.028982	-0.147230	0.519827
C79	C	1.115168	-0.145823	0.531703
C80	C	1.144851	-0.075337	0.591186
C81	C	1.088342	-0.006262	0.638790
H82	H	0.908669	-0.079199	0.558638
H83	H	1.007008	-0.199408	0.475794
H84	H	1.156999	-0.196956	0.496463
H85	H	1.208655	-0.074293	0.599980
H86	H	1.110315	0.045916	0.682824
H87	H	0.801008	0.238082	0.203717
H88	H	0.664508	0.129458	0.135983
H89	H	0.123983	0.118919	-0.135981
H90	H	0.267201	0.121699	-0.135983
H91	H	0.801040	0.238102	0.639298
C92	C	0.510037	0.126444	-0.157396
C93	C	0.423198	0.124759	-0.157400
C94	C	0.379787	0.123922	-0.239848
C95	C	0.423215	0.124770	-0.322291
C96	C	0.510059	0.126456	-0.322289
C97	C	0.553469	0.127293	-0.239841
H98	H	0.391046	0.124131	-0.096368
H99	H	0.315500	0.122674	-0.239849
H100	H	0.391080	0.124150	-0.383323
H101	H	0.542211	0.127084	-0.383321
H102	H	0.617757	0.128540	-0.239841
H103	H	0.987452	0.010256	0.360718
C104	C	1.002124	-0.007690	0.191341
C105	C	1.058638	-0.076757	0.238941
C106	C	1.115151	-0.145834	0.191344
C107	C	1.115150	-0.145843	0.096147
C108	C	1.058634	-0.076773	0.048542
C109	C	1.002121	-0.007697	0.096139
H110	H	1.058641	-0.076752	0.309416
H111	H	1.156988	-0.196964	0.226584
H112	H	1.156985	-0.196978	0.060913
H113	H	1.058632	-0.076778	-0.021933
H114	H	0.960284	0.043433	0.060899
