data_functionalizedCrystal
_audit_creation_method	'MofGen! by Chris Wilmer'
_symmetry_space_group_name_H-M	'P1'
_symmetry_Int_Tables_number	1
_symmetry_cell_setting	triclinic
loop_
_symmetry_equiv_pos_as_xyz
  x,y,z
_cell_length_a	21.295418
_cell_length_b	21.295416
_cell_length_c	21.295411
_cell_angle_alpha	90.019171
_cell_angle_beta	89.956262
_cell_angle_gamma	89.953856
loop_
_atom_site_label
_atom_site_type_symbol
_atom_site_fract_x
_atom_site_fract_y
_atom_site_fract_z
Zn1	Zn	0.962357	0.250415	-0.356244
Zn2	Zn	1.212357	0.500415	-0.106244
Zn3	Zn	1.462357	0.750415	0.143756
Zn4	Zn	1.712357	1.000415	0.393756
Zn5	Zn	0.962259	0.355667	-0.250974
Zn6	Zn	1.212259	0.605667	-0.000974
Zn7	Zn	1.462259	0.855667	0.249026
Zn8	Zn	1.712259	1.105667	0.499026
Zn9	Zn	0.857080	0.250445	-0.250954
Zn10	Zn	1.107080	0.500445	-0.000954
Zn11	Zn	1.357080	0.750445	0.249046
Zn12	Zn	1.607080	1.000445	0.499046
Zn13	Zn	0.857049	0.355680	-0.356171
Zn14	Zn	1.107049	0.605680	-0.106171
Zn15	Zn	1.357049	0.855680	0.143829
Zn16	Zn	1.607049	1.105680	0.393829
O17	O	0.909686	0.303052	-0.303586
O18	O	1.159686	0.553052	-0.053586
O19	O	1.409686	0.803052	0.196414
O20	O	1.659686	1.053052	0.446414
O21	O	1.050433	0.264360	-0.342319
O22	O	1.300433	0.514360	-0.092319
O23	O	1.550433	0.764360	0.157681
O24	O	1.800433	1.014360	0.407681
O25	O	0.948279	0.341716	-0.162882
O26	O	1.198279	0.591716	0.087118
O27	O	1.448279	0.841716	0.337118
O28	O	1.698279	1.091716	0.587118
O29	O	0.871098	0.162351	-0.264944
O30	O	1.121098	0.412351	-0.014944
O31	O	1.371098	0.662351	0.235056
O32	O	1.621098	0.912351	0.485056
O33	O	1.050362	0.341688	-0.264978
O34	O	1.300362	0.591688	-0.014978
O35	O	1.550362	0.841688	0.235022
O36	O	1.800362	1.091688	0.485022
O37	O	0.948445	0.162330	-0.342300
O38	O	1.198445	0.412330	-0.092300
O39	O	1.448445	0.662330	0.157700
O40	O	1.698445	0.912330	0.407700
O41	O	0.871004	0.264410	-0.162867
O42	O	1.121004	0.514410	0.087133
O43	O	1.371004	0.764410	0.337133
O44	O	1.621004	1.014410	0.587133
O45	O	0.768986	0.264422	-0.264872
O46	O	1.018986	0.514422	-0.014872
O47	O	1.268986	0.764422	0.235128
O48	O	1.518986	1.014422	0.485128
O49	O	0.871047	0.341709	-0.444270
O50	O	1.121047	0.591709	-0.194270
O51	O	1.371047	0.841709	0.055730
O52	O	1.621047	1.091709	0.305730
O53	O	0.768964	0.341738	-0.342174
O54	O	1.018964	0.591738	-0.092174
O55	O	1.268964	0.841738	0.157826
O56	O	1.518964	1.091738	0.407826
O57	O	0.948415	0.264372	-0.444324
O58	O	1.198415	0.514372	-0.194324
O59	O	1.448415	0.764372	0.055676
O60	O	1.698415	1.014372	0.305676
O61	O	0.948250	0.443758	-0.264906
O62	O	1.198250	0.693758	-0.014906
O63	O	1.448250	0.943758	0.235094
O64	O	1.698250	1.193758	0.485094
O65	O	0.870952	0.443767	-0.342194
O66	O	1.120952	0.693767	-0.092194
O67	O	1.370952	0.943767	0.157806
O68	O	1.620952	1.193767	0.407806
C69	C	0.746135	0.303085	-0.303513
C70	C	0.996135	0.553085	-0.053513
C71	C	1.246135	0.803085	0.196487
C72	C	1.496135	1.053085	0.446487
C73	C	0.676166	0.303114	-0.303497
C74	C	0.926166	0.553114	-0.053497
C75	C	1.176166	0.803114	0.196503
C76	C	1.426166	1.053114	0.446503
C77	C	0.909604	0.466603	-0.303558
C78	C	1.159604	0.716603	-0.053558
C79	C	1.409604	0.966603	0.196442
C80	C	1.659604	1.216603	0.446442
C81	C	0.909627	0.536571	-0.303567
C82	C	1.159627	0.786571	-0.053567
C83	C	1.409627	1.036571	0.196433
C84	C	1.659627	1.286571	0.446433
C85	C	0.909739	0.303038	-0.467776
C86	C	1.159739	0.553038	-0.217776
C87	C	1.409739	0.803038	0.032224
C88	C	1.659739	1.053038	0.282224
C89	C	0.909761	0.303033	-0.537744
C90	C	1.159761	0.553033	-0.287744
C91	C	1.409761	0.803033	-0.037744
C92	C	1.659761	1.053033	0.212256
C93	C	0.643305	0.343426	-0.343689
C94	C	0.893305	0.593426	-0.093689
C95	C	1.143305	0.843426	0.156311
C96	C	1.393305	1.093426	0.406311
C97	C	0.577562	0.343410	-0.343717
C98	C	0.827562	0.593410	-0.093717
C99	C	1.077562	0.843410	0.156283
C100	C	1.327562	1.093410	0.406283
C101	C	0.544684	0.303090	-0.303543
C102	C	0.794684	0.553090	-0.053543
C103	C	1.044684	0.803090	0.196457
C104	C	1.294684	1.053090	0.446457
C105	C	0.577554	0.262770	-0.263349
C106	C	0.827554	0.512770	-0.013349
C107	C	1.077554	0.762770	0.236651
C108	C	1.327554	1.012770	0.486651
C109	C	0.643295	0.262783	-0.263326
C110	C	0.893295	0.512783	-0.013326
C111	C	1.143295	0.762783	0.236674
C112	C	1.393295	1.012783	0.486674
N113	N	0.441408	0.298163	-0.248485
N114	N	0.691408	0.548163	0.001515
N115	N	0.941408	0.798163	0.251515
N116	N	1.191408	1.048163	0.501515
N117	N	0.378957	0.298155	-0.248508
N118	N	0.628957	0.548155	0.001492
N119	N	0.878957	0.798155	0.251492
N120	N	1.128957	1.048155	0.501492
C121	C	0.346609	0.303050	-0.303609
C122	C	0.596609	0.553050	-0.053609
C123	C	0.846609	0.803050	0.196391
C124	C	1.096609	1.053050	0.446391
N125	N	0.379073	0.307965	-0.358688
N126	N	0.629073	0.557965	-0.108688
N127	N	0.879073	0.807965	0.141312
N128	N	1.129073	1.057965	0.391312
N129	N	0.441530	0.307976	-0.358664
N130	N	0.691530	0.557976	-0.108664
N131	N	0.941530	0.807976	0.141336
N132	N	1.191530	1.057976	0.391336
C133	C	0.473399	0.303072	-0.303563
C134	C	0.723399	0.553072	-0.053563
C135	C	0.973399	0.803072	0.196437
C136	C	1.223399	1.053072	0.446437
C137	C	0.242462	0.343346	-0.343835
C138	C	0.492462	0.593346	-0.093835
C139	C	0.742462	0.843346	0.156165
C140	C	0.992462	1.093346	0.406165
C141	C	0.176718	0.343326	-0.343864
C142	C	0.426718	0.593326	-0.093864
C143	C	0.676718	0.843326	0.156136
C144	C	0.926718	1.093326	0.406136
C145	C	0.176711	0.262690	-0.263490
C146	C	0.426711	0.512690	-0.013490
C147	C	0.676711	0.762690	0.236510
C148	C	0.926711	1.012690	0.486510
C149	C	0.242454	0.262707	-0.263467
C150	C	0.492454	0.512707	-0.013467
C151	C	0.742454	0.762707	0.236533
C152	C	0.992454	1.012707	0.486533
C153	C	0.275325	0.303038	-0.303638
C154	C	0.525325	0.553038	-0.053638
C155	C	0.775325	0.803038	0.196362
C156	C	1.025325	1.053038	0.446362
C157	C	1.073877	0.303019	-0.303659
C158	C	1.323877	0.553019	-0.053659
C159	C	1.573877	0.803019	0.196341
C160	C	1.823877	1.053019	0.446341
C161	C	1.143845	0.303005	-0.303690
C162	C	1.393845	0.553005	-0.053690
C163	C	1.643845	0.803005	0.196310
C164	C	1.893845	1.053005	0.446310
C165	C	0.949911	0.569412	-0.263366
C166	C	1.199911	0.819412	-0.013366
C167	C	1.449911	1.069412	0.236634
C168	C	1.699911	1.319412	0.486634
C169	C	0.949941	0.635155	-0.263383
C170	C	1.199941	0.885155	-0.013383
C171	C	1.449941	1.135155	0.236617
C172	C	1.699941	1.385155	0.486617
C173	C	0.909675	0.668054	-0.303595
C174	C	1.159675	0.918054	-0.053595
C175	C	1.409675	1.168054	0.196405
C176	C	1.659675	1.418054	0.446405
C177	C	0.869388	0.635205	-0.343803
C178	C	1.119388	0.885205	-0.093803
C179	C	1.369388	1.135205	0.156197
C180	C	1.619388	1.385205	0.406197
C181	C	0.869363	0.569464	-0.343790
C182	C	1.119363	0.819464	-0.093790
C183	C	1.369363	1.069464	0.156210
C184	C	1.619363	1.319464	0.406210
N185	N	0.854608	0.771336	-0.308374
N186	N	1.104608	1.021336	-0.058374
N187	N	1.354608	1.271336	0.191626
N188	N	1.604608	1.521336	0.441626
N189	N	0.854633	0.833787	-0.308383
N190	N	1.104633	1.083787	-0.058383
N191	N	1.354633	1.333787	0.191617
N192	N	1.604633	1.583787	0.441617
C193	C	0.909746	0.866129	-0.303639
C194	C	1.159746	1.116129	-0.053639
C195	C	1.409746	1.366129	0.196361
C196	C	1.659746	1.616129	0.446361
N197	N	0.964835	0.833659	-0.298874
N198	N	1.214835	1.083659	-0.048874
N199	N	1.464835	1.333659	0.201126
N200	N	1.714835	1.583659	0.451126
N201	N	0.964809	0.771202	-0.298861
N202	N	1.214809	1.021202	-0.048861
N203	N	1.464809	1.271202	0.201139
N204	N	1.714809	1.521202	0.451139
C205	C	0.909697	0.739339	-0.303614
C206	C	1.159697	0.989339	-0.053614
C207	C	1.409697	1.239339	0.196386
C208	C	1.659697	1.489339	0.446386
C209	C	0.950066	0.970255	-0.263455
C210	C	1.200066	1.220255	-0.013455
C211	C	1.450066	1.470255	0.236545
C212	C	1.700066	1.720255	0.486545
C213	C	0.950097	1.035999	-0.263476
C214	C	1.200097	1.285999	-0.013476
C215	C	1.450097	1.535999	0.236524
C216	C	1.700097	1.785999	0.486524
C217	C	0.869538	1.036048	-0.343893
C218	C	1.119538	1.286048	-0.093893
C219	C	1.369538	1.536048	0.156107
C220	C	1.619538	1.786048	0.406107
C221	C	0.869513	0.970305	-0.343875
C222	C	1.119513	1.220305	-0.093875
C223	C	1.369513	1.470305	0.156125
C224	C	1.619513	1.720305	0.406125
C225	C	0.909776	0.937413	-0.303652
C226	C	1.159776	1.187413	-0.053652
C227	C	1.409776	1.437413	0.196348
C228	C	1.659776	1.687413	0.446348
C229	C	0.909787	1.138861	-0.303639
C230	C	1.159787	1.388861	-0.053639
C231	C	1.409787	1.638861	0.196361
C232	C	1.659787	1.888861	0.446361
C233	C	0.909831	1.068893	-0.303689
C234	C	1.159831	1.318893	-0.053689
C235	C	1.409831	1.568893	0.196311
C236	C	1.659831	1.818893	0.446311
C237	C	0.950045	0.262761	-0.570640
C238	C	1.200045	0.512761	-0.320640
C239	C	1.450045	0.762761	-0.070640
C240	C	1.700045	1.012761	0.179360
C241	C	0.950044	0.262734	-0.636383
C242	C	1.200044	0.512734	-0.386383
C243	C	1.450044	0.762734	-0.136383
C244	C	1.700044	1.012734	0.113617
C245	C	0.909766	0.302989	-0.669227
C246	C	1.159766	0.552989	-0.419227
C247	C	1.409766	0.802989	-0.169227
C248	C	1.659766	1.052989	0.080773
C249	C	0.869474	0.343263	-0.636323
C250	C	1.119474	0.593263	-0.386323
C251	C	1.369474	0.843263	-0.136323
C252	C	1.619474	1.093263	0.113677
C253	C	0.869471	0.343285	-0.570582
C254	C	1.119471	0.593285	-0.320582
C255	C	1.369471	0.843285	-0.070582
C256	C	1.619471	1.093285	0.179418
N257	N	0.904909	0.358058	-0.772443
N258	N	1.154909	0.608058	-0.522443
N259	N	1.404909	0.858058	-0.272443
N260	N	1.654909	1.108058	-0.022443
N261	N	0.904915	0.358036	-0.834895
N262	N	1.154915	0.608036	-0.584895
N263	N	1.404915	0.858036	-0.334895
N264	N	1.654915	1.108036	-0.084895
C265	C	0.909770	0.302926	-0.867302
C266	C	1.159770	0.552926	-0.617302
C267	C	1.409770	0.802926	-0.367302
C268	C	1.659770	1.052926	-0.117302
N269	N	0.914630	0.247837	-0.834898
N270	N	1.164630	0.497837	-0.584898
N271	N	1.414630	0.747837	-0.334898
N272	N	1.664630	0.997837	-0.084898
N273	N	0.914627	0.247860	-0.772441
N274	N	1.164627	0.497860	-0.522441
N275	N	1.414627	0.747860	-0.272441
N276	N	1.664627	0.997860	-0.022441
C277	C	0.909764	0.302970	-0.740512
C278	C	1.159764	0.552970	-0.490512
C279	C	1.409764	0.802970	-0.240512
C280	C	1.659764	1.052970	0.009488
C281	C	0.950055	0.262621	-0.971483
C282	C	1.200055	0.512621	-0.721483
C283	C	1.450055	0.762621	-0.471483
C284	C	1.700055	1.012621	-0.221483
C285	C	0.950050	0.262593	-1.037227
C286	C	1.200050	0.512593	-0.787227
C287	C	1.450050	0.762593	-0.537227
C288	C	1.700050	1.012593	-0.287227
C289	C	0.869483	0.343128	-1.037166
C290	C	1.119483	0.593128	-0.787166
C291	C	1.369483	0.843128	-0.537166
C292	C	1.619483	1.093128	-0.287166
C293	C	0.869485	0.343151	-0.971424
C294	C	1.119485	0.593151	-0.721424
C295	C	1.369485	0.843151	-0.471424
C296	C	1.619485	1.093151	-0.221424
C297	C	0.909774	0.302898	-0.938586
C298	C	1.159774	0.552898	-0.688586
C299	C	1.409774	0.802898	-0.438586
C300	C	1.659774	1.052898	-0.188586
C301	C	0.909670	0.303019	-0.140034
C302	C	1.159670	0.553019	0.109966
C303	C	1.409670	0.803019	0.359966
C304	C	1.659670	1.053019	0.609966
C305	C	0.909770	0.302848	-0.070067
C306	C	1.159770	0.552848	0.179933
C307	C	1.409770	0.802848	0.429933
C308	C	1.659770	1.052848	0.679933
H309	H	0.670065	0.376266	-0.376400
H310	H	0.920065	0.626266	-0.126400
H311	H	1.170065	0.876266	0.123600
H312	H	1.420065	1.126266	0.373600
H313	H	0.836707	0.943564	-0.376607
H314	H	1.086707	1.193564	-0.126607
H315	H	1.336707	1.443564	0.123393
H316	H	1.586707	1.693564	0.373393
H317	H	0.982851	0.229984	-0.543908
H318	H	1.232851	0.479984	-0.293908
H319	H	1.482851	0.729984	-0.043908
H320	H	1.732851	0.979984	0.206092
F321	F	0.277449	0.386267	-0.386591
F322	F	0.527449	0.636267	-0.136591
F323	F	0.777449	0.886267	0.113409
F324	F	1.027449	1.136267	0.363409
F325	F	0.826610	0.385966	-1.072117
F326	F	1.076610	0.635966	-0.822117
F327	F	1.326610	0.885966	-0.572117
F328	F	1.576610	1.135966	-0.322117
H329	H	0.836604	0.661996	-0.376545
H330	H	1.086604	0.911996	-0.126545
H331	H	1.336604	1.161996	0.123455
H332	H	1.586604	1.411996	0.373455
F333	F	0.542581	0.386317	-0.386496
F334	F	0.792581	0.636317	-0.136496
F335	F	1.042581	0.886317	0.113504
F336	F	1.292581	1.136317	0.363504
F337	F	0.542562	0.219856	-0.220595
F338	F	0.792562	0.469856	0.029405
F339	F	1.042562	0.719856	0.279405
F340	F	1.292562	0.969856	0.529405
H341	H	0.982858	0.229842	-0.944745
H342	H	1.232858	0.479842	-0.694745
H343	H	1.482858	0.729842	-0.444745
H344	H	1.732858	0.979842	-0.194745
F345	F	0.992911	0.219860	-0.671400
F346	F	1.242911	0.469860	-0.421400
F347	F	1.492911	0.719860	-0.171400
F348	F	1.742911	0.969860	0.078600
F349	F	0.992935	0.219735	-1.072237
F350	F	1.242935	0.469735	-0.822237
F351	F	1.492935	0.719735	-0.572237
F352	F	1.742935	0.969735	-0.322237
F353	F	0.678270	0.219875	-0.220548
F354	F	0.928270	0.469875	0.029452
F355	F	1.178270	0.719875	0.279452
F356	F	1.428270	0.969875	0.529452
H357	H	0.836677	0.376038	-0.663069
H358	H	1.086677	0.626038	-0.413069
H359	H	1.336677	0.876038	-0.163069
H360	H	1.586677	1.126038	0.086931
H361	H	0.982905	1.062737	-0.230741
H362	H	1.232905	1.312737	0.019259
H363	H	1.482905	1.562737	0.269259
H364	H	1.732905	1.812737	0.519259
H365	H	0.836755	1.062833	-0.376636
H366	H	1.086755	1.312833	-0.126636
H367	H	1.336755	1.562833	0.123364
H368	H	1.586755	1.812833	0.373364
H369	H	0.982748	0.661899	-0.230647
H370	H	1.232748	0.911899	0.019353
H371	H	1.482748	1.161899	0.269353
H372	H	1.732748	1.411899	0.519353
H373	H	0.836685	0.375948	-0.944640
H374	H	1.086685	0.625948	-0.694640
H375	H	1.336685	0.875948	-0.444640
H376	H	1.586685	1.125948	-0.194640
F377	F	0.826593	0.386149	-0.535571
F378	F	1.076593	0.636149	-0.285571
F379	F	1.326593	0.886149	-0.035571
F380	F	1.576593	1.136149	0.214429
F381	F	0.141745	0.386231	-0.386647
F382	F	0.391745	0.636231	-0.136647
F383	F	0.641745	0.886231	0.113353
F384	F	0.891745	1.136231	0.363353
H385	H	0.149942	0.229857	-0.230783
H386	H	0.399942	0.479857	0.019217
H387	H	0.649942	0.729857	0.269217
H388	H	0.899942	0.979857	0.519217
H389	H	0.269210	0.229884	-0.230736
H390	H	0.519210	0.479884	0.019264
H391	H	0.769210	0.729884	0.269264
H392	H	1.019210	0.979884	0.519264
F393	F	0.826485	0.534511	-0.386579
F394	F	1.076485	0.784511	-0.136579
F395	F	1.326485	1.034511	0.113421
F396	F	1.576485	1.284511	0.363421
F397	F	0.992770	0.534410	-0.220565
F398	F	1.242770	0.784410	0.029435
F399	F	1.492770	1.034410	0.279435
F400	F	1.742770	1.284410	0.529435
H401	H	0.982853	0.943473	-0.230705
H402	H	1.232853	1.193473	0.019295
H403	H	1.482853	1.443473	0.269295
H404	H	1.732853	1.693473	0.519295
