data_functionalizedCrystal
_audit_creation_method	'MofGen! by Chris Wilmer'
_symmetry_space_group_name_H-M	'P1'
_symmetry_Int_Tables_number	1
_symmetry_cell_setting	triclinic
loop_
_symmetry_equiv_pos_as_xyz
  x,y,z
_cell_length_a	16.959455
_cell_length_b	16.959454
_cell_length_c	16.959447
_cell_angle_alpha	90.021714
_cell_angle_beta	89.976354
_cell_angle_gamma	90.004016
loop_
_atom_site_label
_atom_site_type_symbol
_atom_site_fract_x
_atom_site_fract_y
_atom_site_fract_z
Zn1	Zn	-1.208489	-0.314771	0.447153
Zn2	Zn	-1.208455	-0.446964	0.314994
Zn3	Zn	-1.076317	-0.314792	0.314969
Zn4	Zn	-1.076326	-0.446900	0.447111
O5	O	-1.142397	-0.380857	0.381057
O6	O	-1.319095	-0.332325	0.429649
O7	O	-1.190909	-0.429466	0.204380
O8	O	-1.093860	-0.204178	0.332510
O9	O	-1.319071	-0.429446	0.332553
O10	O	-1.190966	-0.204163	0.429625
O11	O	-1.093828	-0.332360	0.204361
O12	O	-0.965707	-0.332298	0.332470
O13	O	-1.093875	-0.429338	0.557727
O14	O	-0.965714	-0.429358	0.429554
O15	O	-1.190975	-0.332263	0.557758
O16	O	-1.190918	-0.557566	0.332513
O17	O	-1.093843	-0.557520	0.429579
C18	C	-0.937030	-0.380824	0.381005
C19	C	-0.849174	-0.380829	0.381002
C20	C	-0.477675	-0.431354	0.330435
C21	C	-0.477722	-0.330378	0.431699
C22	C	-0.560268	-0.330368	0.431684
C23	C	-0.601521	-0.380853	0.381045
C24	C	-0.560228	-0.431347	0.330420
C25	C	-0.601566	-0.279880	0.482314
C26	C	-0.684117	-0.279868	0.482302
C27	C	-0.725372	-0.330349	0.431658
C28	C	-0.684074	-0.380846	0.381031
C29	C	-0.725328	-0.431330	0.330391
C30	C	-0.684032	-0.481823	0.279759
C31	C	-0.601483	-0.481829	0.279776
C32	C	-0.807921	-0.330344	0.431641
C33	C	-0.807881	-0.431323	0.330377
C34	C	-1.142399	-0.586223	0.381061
C35	C	-1.142472	-0.674080	0.381090
C36	C	-1.142430	-0.380791	0.587225
C37	C	-1.142444	-0.380764	0.675081
C38	C	-0.348565	-0.380882	0.381094
C39	C	-0.436422	-0.380870	0.381074
C40	C	-1.142416	-0.174689	0.381069
C41	C	-1.142424	-0.086832	0.381075
C42	C	-1.193027	0.284654	0.431651
C43	C	-1.091910	0.284633	0.330525
C44	C	-1.091898	0.202087	0.330522
C45	C	-1.142452	0.160821	0.381084
C46	C	-1.193018	0.202100	0.431648
C47	C	-1.041339	0.160802	0.279952
C48	C	-1.041326	0.078251	0.279947
C49	C	-1.091877	0.036983	0.330513
C50	C	-1.142444	0.078267	0.381081
C51	C	-1.192998	0.037001	0.431642
C52	C	-1.243562	0.078284	0.482215
C53	C	-1.243569	0.160832	0.482215
C54	C	-1.091870	-0.045565	0.330513
C55	C	-1.192990	-0.045553	0.431639
C56	C	-1.142409	-0.380865	0.175690
C57	C	-1.142549	-0.380670	0.087834
C58	C	-1.091983	-0.431222	1.046544
C59	C	-1.193093	-0.330138	1.046571
C60	C	-1.193072	-0.330155	0.964025
C61	C	-1.142507	-0.380707	0.922735
C62	C	-1.091962	-0.431242	0.963990
C63	C	-1.243622	-0.279626	0.922763
C64	C	-1.243603	-0.279641	0.840212
C65	C	-1.193033	-0.330190	0.798920
C66	C	-1.142486	-0.380727	0.840181
C67	C	-1.091920	-0.431279	0.798891
C68	C	-1.041368	-0.481812	0.840150
C69	C	-1.041391	-0.481791	0.922699
C70	C	-1.193009	-0.330211	0.716372
C71	C	-1.091899	-0.431299	0.716337
H72	H	-0.717631	-0.522932	0.238533
H73	H	-1.234266	-0.288985	1.080194
O74	O	-1.298130	-0.225075	0.967293
H75	H	-1.289633	-0.233534	1.031625
O76	O	-1.247565	0.329178	0.486189
H77	H	-1.282714	0.286612	0.521346
O78	O	-1.298120	-0.225138	0.795712
H79	H	-1.333282	-0.189981	0.838293
O80	O	-1.298081	0.033768	0.536753
H81	H	-1.338283	-0.003864	0.501383
O82	O	-1.247528	-0.275720	0.671866
H83	H	-1.233984	-0.213675	0.687710
H84	H	-1.000183	0.194404	0.238782
H85	H	-1.234152	-0.079146	0.472820
H86	H	-0.444048	-0.472462	0.289209
H87	H	-1.000237	-0.522935	0.956299
O88	O	-1.037342	-0.485806	0.671802
H89	H	-1.002194	-0.520935	0.714362
H90	H	-1.050704	-0.079174	0.289335
H91	H	-1.284737	0.194450	0.523388
O92	O	-0.556945	-0.536288	0.225172
H93	H	-0.492614	-0.527816	0.233697
O94	O	-1.037386	0.329136	0.275989
H95	H	-1.045885	0.393473	0.284488
O96	O	-0.433227	-0.275934	0.486316
H97	H	-0.475810	-0.240825	0.521520
O98	O	-0.852376	-0.485773	0.275756
H99	H	-0.809791	-0.520885	0.240558
O100	O	-0.986786	0.033725	0.225412
H101	H	-0.951631	0.076290	0.190258
H102	H	-1.050822	-0.472363	1.080141
O103	O	-0.557069	-0.225427	0.536920
H104	H	-0.519477	-0.260856	0.577075
O105	O	-0.728652	-0.225397	0.536898
H106	H	-0.712846	-0.239021	0.598917
O107	O	-0.852465	-0.275889	0.486240
H108	H	-0.809910	-0.240783	0.521452
O109	O	-0.986820	-0.536331	0.795618
H110	H	-1.022180	-0.576562	0.758004
