data_functionalizedCrystal
_audit_creation_method	'MofGen! by Chris Wilmer'
_symmetry_space_group_name_H-M	'P1'
_symmetry_Int_Tables_number	1
_symmetry_cell_setting	triclinic
loop_
_symmetry_equiv_pos_as_xyz
  x,y,z
_cell_length_a	15.944551
_cell_length_b	8.559649
_cell_length_c	7.088929
_cell_angle_alpha	84.655815
_cell_angle_beta	96.208625
_cell_angle_gamma	76.638701
loop_
_atom_site_label
_atom_site_type_symbol
_atom_site_fract_x
_atom_site_fract_y
_atom_site_fract_z
O1	O	-1.091555	-0.222480	0.158783
O2	O	-0.845363	-0.247892	0.158830
O3	O	-0.990149	-0.002586	0.158800
O4	O	-0.946769	-0.467786	0.158813
O5	O	-1.009502	0.030271	-0.159179
O6	O	-0.864717	-0.215035	-0.159149
O7	O	-1.110909	-0.189623	-0.159196
Cu8	Cu	-0.989580	-0.199329	-0.188207
Cu9	Cu	-0.966692	-0.238186	0.187841
O10	O	-0.966123	-0.434929	-0.159166
C11	C	-0.823813	-0.230409	-0.000154
C12	C	-0.730770	-0.227249	-0.000136
C13	C	-1.003113	0.073372	-0.000186
C14	C	-1.012897	0.250750	-0.000177
C15	C	-1.132458	-0.207106	-0.000208
C16	C	-1.225500	-0.210268	-0.000214
C17	C	-0.526217	-0.067636	-0.000177
C18	C	-0.450871	-0.157953	0.156606
C19	C	-0.560415	-0.221526	-0.000158
C20	C	-0.469972	-0.125596	-0.156897
C21	C	-0.395861	-0.215986	-0.000189
C22	C	-0.486286	-0.311899	0.156754
C23	C	-0.505404	-0.279505	-0.156890
C24	C	-0.430066	-0.369938	-0.000069
C25	C	-0.655211	-0.224714	-0.000139
C26	C	-0.301065	-0.212812	-0.000194
C27	C	-0.953158	-0.510887	-0.000176
C28	C	-0.943373	-0.688267	-0.000172
N29	N	-1.005684	-0.171998	-0.452698
N30	N	-0.950594	-0.265504	0.452332
H31	H	-0.567780	0.060059	0.000014
Br32	Br	-0.361035	-0.583034	0.000070
Br33	Br	-0.831681	0.172582	-0.000162
Br34	Br	-0.855432	-0.427019	-0.411571
Br35	Br	-0.499136	-0.443159	0.377917
Br36	Br	-1.100863	-0.010502	-0.588802
H37	H	-0.529406	-0.330843	-0.289441
Br38	Br	-1.124597	0.389913	-0.000233
H39	H	-0.426894	-0.106561	0.289151
Br40	Br	-0.456943	0.005758	-0.377811
