data_functionalizedCrystal
_audit_creation_method	'MofGen! by Chris Wilmer'
_symmetry_space_group_name_H-M	'P1'
_symmetry_Int_Tables_number	1
_symmetry_cell_setting	triclinic
loop_
_symmetry_equiv_pos_as_xyz
  x,y,z
_cell_length_a	16.109318
_cell_length_b	27.732048
_cell_length_c	14.586319
_cell_angle_alpha	89.991275
_cell_angle_beta	90.000075
_cell_angle_gamma	83.055609
loop_
_atom_site_label
_atom_site_type_symbol
_atom_site_fract_x
_atom_site_fract_y
_atom_site_fract_z
O1	O	1.102352	0.062170	-0.076174
O2	O	0.860196	0.069893	-0.076194
O3	O	0.988795	-0.004333	-0.076166
O4	O	0.973753	0.136397	-0.076202
O5	O	0.988786	-0.004335	0.076315
O6	O	0.860188	0.069892	0.076287
O7	O	1.102343	0.062169	0.076307
Cu8	Cu	0.981265	0.066030	0.090219
Cu9	Cu	0.981275	0.066032	-0.090107
O10	O	0.973745	0.136395	0.076279
C11	C	0.829221	0.069578	0.000044
C12	C	0.736938	0.068636	0.000037
C13	C	0.437907	0.065593	-0.083063
C14	C	0.524618	0.066475	-0.083069
C15	C	0.524627	0.066467	0.083174
C16	C	0.437919	0.065582	0.083179
C17	C	0.394561	0.065147	0.000058
C18	C	0.567979	0.066915	0.000047
C19	C	0.661994	0.067871	0.000041
C20	C	0.300540	0.064190	0.000063
C21	C	0.988475	-0.022342	0.000077
C22	C	0.987524	-0.076001	0.000084
C23	C	1.057532	-0.414521	0.000043
C24	C	1.054004	-0.616195	0.000030
O25	O	1.118022	-0.647181	-0.000005
N26	N	0.977751	-0.635641	0.000024
C27	C	0.902374	-0.604664	0.000016
O28	O	0.837434	-0.625832	0.000002
C29	C	0.905902	-0.402991	0.000023
C30	C	0.982161	-0.383548	0.000038
C31	C	1.133784	-0.395078	0.000057
C32	C	1.134665	-0.344662	0.000065
C33	C	1.059294	-0.313689	0.000059
C34	C	0.983042	-0.333133	0.000046
C35	C	0.830526	-0.372015	0.000008
C36	C	0.831415	-0.321594	0.000007
C37	C	0.907673	-0.302152	0.000022
C38	C	0.908551	-0.251744	0.000049
N39	N	0.984805	-0.232299	0.000054
C40	C	1.060176	-0.263271	0.000059
C41	C	0.900526	-0.710546	0.000015
C42	C	0.899644	-0.760964	0.000015
C43	C	1.051275	-0.772492	0.000027
C44	C	1.052157	-0.722073	0.000033
C45	C	0.976780	-0.691101	0.000020
C46	C	1.062021	-0.157394	0.000078
C47	C	1.062895	-0.106974	0.000090
C48	C	0.911265	-0.095451	0.000073
C49	C	0.910390	-0.145867	0.000066
C50	C	0.985775	-0.176838	0.000065
O51	O	0.844569	-0.220730	0.000073
O52	O	1.125106	-0.242095	0.000053
C53	C	1.056651	-0.464936	0.000035
C54	C	0.980398	-0.484380	0.000021
C55	C	0.905027	-0.453407	0.000016
C56	C	0.979516	-0.534798	0.000021
C57	C	1.054887	-0.565770	0.000026
C58	C	1.131141	-0.546325	0.000032
C59	C	1.132022	-0.495909	0.000040
C60	C	0.828773	-0.472853	0.000010
C61	C	0.827899	-0.523269	0.000003
C62	C	0.903270	-0.554241	0.000008
C63	C	1.133318	0.062484	0.000066
C64	C	1.225601	0.063426	0.000067
N65	N	0.981263	0.066029	0.217051
C66	C	0.974065	0.154404	0.000034
C67	C	0.975015	0.208063	0.000020
N68	N	0.981283	0.066029	-0.216939
C69	C	1.038225	0.033173	0.452070
C70	C	1.038228	0.033171	0.548051
C71	C	0.924315	0.098887	0.548036
C72	C	0.924309	0.098886	0.452056
C73	C	0.981269	0.066029	0.404076
C74	C	0.981277	0.066029	0.596037
C75	C	0.981279	0.066028	0.700104
C76	C	0.981266	0.066029	0.300002
H77	H	0.559939	0.066822	0.150848
F78	F	1.098845	-0.001798	0.401009
F79	F	1.098846	-0.001800	0.599127
F80	F	0.748548	-0.439895	0.000002
F81	F	0.863699	0.133855	0.599106
H82	H	0.402608	0.065238	-0.150746
F83	F	1.142254	-0.190349	0.000076
F84	F	1.214012	-0.428034	0.000062
F85	F	1.215831	-0.323976	0.000061
H86	H	0.839142	-0.685333	0.000004
F87	F	0.863682	0.133856	0.400973
H88	H	0.402625	0.065218	0.150870
F89	F	0.570747	0.066948	-0.171538
F90	F	0.829228	-0.166560	0.000067
F91	F	0.746728	-0.543955	-0.000007
H92	H	1.124997	-0.091147	0.000104
H93	H	1.194120	-0.480084	0.000052
F94	F	1.133321	-0.701385	0.000049
H95	H	0.768428	-0.387836	-0.000009
H96	H	1.112646	-0.797718	0.000031
H97	H	0.770032	-0.296379	-0.000004
F98	F	0.818479	-0.781651	0.000016
H99	H	0.849900	-0.070224	0.000072
F100	F	1.211357	-0.579297	0.000042
