data_functionalizedCrystal
_audit_creation_method	'MofGen! by Chris Wilmer'
_symmetry_space_group_name_H-M	'P1'
_symmetry_Int_Tables_number	1
_symmetry_cell_setting	triclinic
loop_
_symmetry_equiv_pos_as_xyz
  x,y,z
_cell_length_a	17.699083
_cell_length_b	23.532357
_cell_length_c	16.776229
_cell_angle_alpha	90.008950
_cell_angle_beta	89.999727
_cell_angle_gamma	83.055654
loop_
_atom_site_label
_atom_site_type_symbol
_atom_site_fract_x
_atom_site_fract_y
_atom_site_fract_z
O1	O	1.003695	0.072019	0.066186
O2	O	0.783267	0.081389	0.066214
O3	O	0.900147	-0.006210	0.066183
O4	O	0.886814	0.159619	0.066217
O5	O	0.900134	-0.006211	-0.066394
O6	O	0.783253	0.081389	-0.066363
O7	O	1.003682	0.072019	-0.066390
Zn8	Zn	0.893465	0.076704	-0.087426
Zn9	Zn	0.893483	0.076704	0.087249
O10	O	0.886801	0.159618	-0.066359
C11	C	0.755065	0.081053	-0.000071
C12	C	0.671052	0.080046	-0.000062
C13	C	0.622158	0.131465	-0.000051
C14	C	0.543220	0.130515	-0.000062
C15	C	0.513177	0.078146	-0.000077
C16	C	0.562077	0.026723	-0.000090
C17	C	0.641014	0.027673	-0.000085
C18	C	0.243735	0.022889	-0.000110
C19	C	0.164792	0.021942	-0.000113
C20	C	0.145940	0.125731	-0.000087
C21	C	0.224877	0.126681	-0.000082
C22	C	0.273770	0.075259	-0.000099
C23	C	0.359364	0.076289	-0.000089
C24	C	0.427585	0.077115	-0.000081
C25	C	0.899807	-0.027428	-0.000108
C26	C	0.898805	-0.090650	-0.000115
C27	C	0.892517	-0.482679	0.072196
C28	C	0.891564	-0.542081	0.072201
O29	O	0.891051	-0.572799	0.133661
N30	N	0.891084	-0.571794	-0.000066
C31	C	0.891549	-0.542100	-0.072342
O32	O	0.891053	-0.572828	-0.133809
C33	C	0.892497	-0.482699	-0.072345
C34	C	0.892985	-0.452990	-0.000074
C35	C	0.893004	-0.452970	0.144461
C36	C	0.893958	-0.393572	0.144456
C37	C	0.894426	-0.363883	0.072186
C38	C	0.893939	-0.393592	-0.000079
C39	C	0.892957	-0.453006	-0.144620
C40	C	0.893905	-0.393600	-0.144618
C41	C	0.894392	-0.363891	-0.072347
C42	C	0.895362	-0.304505	-0.072354
N43	N	0.895842	-0.274792	-0.000088
C44	C	0.895374	-0.304481	0.072182
C45	C	0.889558	-0.666848	-0.072328
C46	C	0.888616	-0.726249	-0.072325
C47	C	0.888628	-0.726225	0.072217
C48	C	0.889576	-0.666824	0.072214
C49	C	0.890038	-0.637135	-0.000062
C50	C	0.897379	-0.179741	0.072166
C51	C	0.898337	-0.120339	0.072155
C52	C	0.898320	-0.120367	-0.072387
C53	C	0.897366	-0.179765	-0.072376
C54	C	0.896893	-0.209451	-0.000093
O55	O	0.895872	-0.273749	-0.133784
O56	O	0.895860	-0.273746	0.133640
C57	C	1.031883	0.072355	-0.000104
C58	C	1.115896	0.073362	-0.000108
C59	C	0.887141	0.180836	-0.000067
C60	C	0.888144	0.244058	-0.000054
N61	N	0.893459	0.076703	-0.206637
C62	C	0.939091	0.111203	-0.248349
C63	C	0.939099	0.111201	-0.331801
C64	C	0.893471	0.076702	-0.373540
C65	C	0.847838	0.042198	-0.331822
C66	C	0.847834	0.042197	-0.248371
C67	C	0.847853	0.042198	-0.668369
C68	C	0.847859	0.042203	-0.751826
C69	C	0.939118	0.111202	-0.751799
C70	C	0.939115	0.111202	-0.668349
C71	C	0.893484	0.076696	-0.626638
C72	C	0.893477	0.076698	-0.536150
C73	C	0.893474	0.076702	-0.464027
N74	N	0.893495	0.076700	0.206461
H75	H	0.646612	0.174111	-0.000038
H76	H	0.249333	0.169326	-0.000066
C77	C	0.092150	0.182298	-0.000079
N78	N	0.051637	0.224902	-0.000072
C79	C	0.890078	-0.634197	-0.151842
N80	N	0.890469	-0.609607	-0.211732
C81	C	0.894415	-0.360947	-0.224129
N82	N	0.894803	-0.336354	-0.284016
C83	C	0.694798	-0.028892	-0.000094
N84	N	0.735307	-0.071499	-0.000103
C85	C	0.797645	0.004249	-0.377738
N86	N	0.759835	-0.024332	-0.412320
H87	H	0.896976	-0.203956	-0.131225
C88	C	0.989320	0.149155	-0.797688
N89	N	1.027130	0.177740	-0.832251
C90	C	0.898827	-0.087697	-0.151881
N91	N	0.899201	-0.063087	-0.211756
C92	C	0.989287	0.149156	-0.202444
N93	N	1.027098	0.177741	-0.167871
H94	H	0.810676	0.014104	-0.214411
H95	H	0.140335	-0.020706	-0.000126
H96	H	0.976267	0.139297	-0.634369
C97	C	0.489439	0.187081	-0.000064
N98	N	0.448931	0.229688	-0.000072
H99	H	0.810701	0.014107	-0.785807
C100	C	0.989268	0.149177	-0.377681
N101	N	1.027046	0.177789	-0.412237
C102	C	0.297508	-0.033678	-0.000124
N103	N	0.338012	-0.076287	-0.000133
C104	C	0.896872	-0.212388	0.151681
N105	N	0.896498	-0.236978	0.211572
C106	C	0.797652	0.004246	-0.622499
N107	N	0.759836	-0.024340	-0.587946
C108	C	0.529028	-0.030885	-0.000108
N109	N	0.504136	-0.074276	-0.000119
C110	C	0.894486	-0.360899	0.223961
N111	N	0.894880	-0.336293	0.283848
C112	C	0.898871	-0.087662	0.151662
N113	N	0.899270	-0.063052	0.211545
H114	H	0.892620	-0.477136	0.203316
H115	H	0.889972	-0.642638	0.131063
H116	H	0.888245	-0.750408	0.131064
H117	H	0.888230	-0.750434	-0.131176
H118	H	0.892562	-0.477185	-0.203471
