data_functionalizedCrystal
_audit_creation_method	'MofGen! by Chris Wilmer'
_symmetry_space_group_name_H-M	'P1'
_symmetry_Int_Tables_number	1
_symmetry_cell_setting	triclinic
loop_
_symmetry_equiv_pos_as_xyz
  x,y,z
_cell_length_a	13.635800
_cell_length_b	27.923496
_cell_length_c	11.102300
_cell_angle_alpha	84.492664
_cell_angle_beta	108.605850
_cell_angle_gamma	81.036054
loop_
_atom_site_label
_atom_site_type_symbol
_atom_site_fract_x
_atom_site_fract_y
_atom_site_fract_z
V1	V	2.031714	-0.067125	0.397060
O2	O	2.036437	0.003226	0.388675
O3	O	1.996463	-0.133098	0.395139
O4	O	2.020474	-0.066093	0.569869
O5	O	2.012260	-0.064244	0.212736
V6	V	2.273280	-0.058711	0.374917
O7	O	2.162771	-0.085584	0.445633
O8	O	2.367322	-0.040252	0.326344
O9	O	2.196927	0.007262	0.376837
O10	O	2.327255	-0.129062	0.383302
O11	O	2.351432	-0.061592	0.559241
O12	O	2.172916	-0.059743	0.202108
V13	V	2.531714	-0.067125	0.397060
O14	O	2.536437	0.003226	0.388675
O15	O	2.496463	-0.133098	0.395139
O16	O	2.520474	-0.066093	0.569869
O17	O	2.512260	-0.064244	0.212736
V18	V	2.773280	-0.058711	0.374917
O19	O	2.662771	-0.085584	0.445633
O20	O	2.867322	-0.040252	0.326344
O21	O	2.696927	0.007262	0.376837
O22	O	2.827255	-0.129062	0.383302
O23	O	2.851432	-0.061592	0.559241
O24	O	2.672916	-0.059743	0.202108
C25	C	1.915856	-0.149181	0.389081
C26	C	1.927765	-0.203115	0.388662
C27	C	2.092873	-0.540043	0.392578
C28	C	2.137698	-0.742752	0.391065
O29	O	2.221001	-0.771068	0.396343
N30	N	2.052180	-0.765627	0.384499
C31	C	1.955449	-0.737821	0.378320
O32	O	1.883742	-0.761930	0.372714
C33	C	1.910627	-0.535114	0.379841
C34	C	1.996150	-0.512241	0.386395
C35	C	2.178388	-0.517170	0.399132
C36	C	2.167180	-0.466495	0.399503
C37	C	2.070457	-0.438693	0.393320
C38	C	1.984941	-0.461566	0.386766
C39	C	1.813901	-0.507310	0.373671
C40	C	1.802703	-0.456631	0.374055
C41	C	1.888226	-0.433758	0.380609
C42	C	1.877010	-0.383090	0.380954
N43	N	1.962529	-0.360215	0.387520
C44	C	2.059252	-0.388017	0.393703
C45	C	1.978987	-0.844246	0.377519
C46	C	1.990192	-0.894922	0.377136
C47	C	2.172441	-0.899849	0.389884
C48	C	2.161233	-0.849171	0.390257
C49	C	2.064506	-0.821371	0.384084
C50	C	2.035707	-0.281596	0.394480
C51	C	2.024488	-0.230917	0.394845
C52	C	1.842242	-0.225994	0.382104
C53	C	1.853457	-0.276669	0.381732
C54	C	1.950199	-0.304469	0.387925
O55	O	1.793744	-0.354745	0.375693
O56	O	2.130953	-0.363901	0.399336
C57	C	2.104081	-0.590717	0.392207
C58	C	2.018566	-0.613590	0.385653
C59	C	1.921843	-0.585789	0.379470
C60	C	2.029771	-0.664267	0.385270
C61	C	2.126494	-0.692069	0.391453
C62	C	2.212013	-0.669194	0.398019
C63	C	2.200805	-0.618519	0.398390
C64	C	1.836324	-0.608664	0.372904
C65	C	1.847539	-0.659338	0.372532
C66	C	1.944263	-0.687140	0.378715
C67	C	1.946484	-0.063708	0.611964
C68	C	1.977863	-0.063300	0.753241
C69	C	2.109204	0.023343	0.382892
C70	C	2.086915	0.077276	0.383319
C71	C	2.078577	-0.062129	0.160006
C72	C	2.036817	-0.062534	0.018728
C73	C	2.415856	-0.149181	0.389081
C74	C	2.427765	-0.203115	0.388662
C75	C	2.446484	-0.063708	0.611964
C76	C	2.477863	-0.063300	0.753241
C77	C	2.083742	-0.065532	0.826116
C78	C	2.113220	-0.065147	0.958860
C79	C	1.930928	-0.060301	0.945842
C80	C	1.901451	-0.060683	0.813099
C81	C	2.609204	0.023343	0.382892
C82	C	2.586915	0.077276	0.383319
C83	C	2.578577	-0.062129	0.160006
C84	C	2.536817	-0.062534	0.018728
C85	C	2.524488	-0.230917	0.394845
C86	C	2.535696	-0.281595	0.394472
C87	C	2.450177	-0.304469	0.387906
C88	C	2.353447	-0.276664	0.381726
C89	C	2.342242	-0.225988	0.382109
C90	C	2.662686	0.105077	0.377139
C91	C	2.641750	0.155755	0.377519
C92	C	2.545046	0.178630	0.384088
C93	C	2.469269	0.150825	0.390264
C94	C	2.490203	0.100149	0.389875
C95	C	2.583742	-0.065532	0.826116
C96	C	2.613220	-0.065147	0.958860
C97	C	2.430928	-0.060301	0.945842
C98	C	2.401451	-0.060683	0.813099
H99	H	2.094134	-0.212296	0.400177
N100	N	2.364979	0.175501	0.397371
H101	H	2.320146	0.150202	0.401232
H102	H	2.327147	0.201133	0.318609
N103	N	2.261209	-0.301339	0.374611
H104	H	2.280555	-0.326971	0.453358
H105	H	2.243095	-0.317510	0.294902
H106	H	2.315228	-0.058862	0.753759
H107	H	2.459315	-0.345734	0.387595
N108	N	1.698369	-0.426647	0.367384
H109	H	1.704238	-0.391072	0.368615
H110	H	1.679312	-0.439138	0.443747
N111	N	2.616744	-0.206256	0.401942
H112	H	2.634927	-0.190052	0.481594
H113	H	2.597342	-0.180654	0.323127
N114	N	2.237905	-0.196008	0.375420
H115	H	2.210421	-0.170165	0.296085
H116	H	2.248024	-0.179613	0.454552
H117	H	2.699434	-0.066964	1.018190
N118	N	1.874654	-0.814260	0.370841
H119	H	1.884702	-0.797833	0.449919
H120	H	1.822234	-0.836472	0.366574
N121	N	2.766993	0.080412	0.370057
H122	H	2.811804	0.105720	0.366195
H123	H	2.754048	0.064205	0.290408
H124	H	2.703464	0.178387	0.372491
N125	N	1.787248	-0.058279	0.734481
H126	H	1.761329	-0.028113	0.666416
H127	H	1.743393	-0.056586	0.792630
H128	H	2.270447	-0.599901	0.403725
H129	H	2.614465	-0.304227	0.399501
H130	H	1.920546	-0.913540	0.371783
H131	H	2.368722	-0.058171	0.994595
N132	N	1.721652	-0.531966	0.366627
H133	H	1.741014	-0.557588	0.445399
H134	H	1.703481	-0.548147	0.286937
N135	N	2.408472	0.070169	0.396560
H136	H	2.438699	0.044324	0.475891
H137	H	2.387940	0.053775	0.317425
N138	N	2.522480	0.233287	0.384529
H139	H	2.458194	0.249244	0.307924
H140	H	2.585218	0.247383	0.379670
N141	N	2.140045	-0.311576	0.401162
H142	H	2.192509	-0.289390	0.405368
H143	H	2.129898	-0.328002	0.322076
N144	N	2.666151	-0.068344	0.761552
H145	H	2.631414	-0.068247	0.666400
H146	H	2.720742	-0.099549	0.800298
H147	H	2.236825	-0.447877	0.404848
N148	N	2.227421	-0.067560	1.037461
H149	H	2.234504	-0.066920	1.130637
H150	H	2.252441	-0.038471	1.004394
N151	N	2.253483	-0.824508	0.397344
H152	H	2.271669	-0.808303	0.476996
H153	H	2.234069	-0.798904	0.318528
N154	N	2.282720	-0.547151	0.405806
H155	H	2.335182	-0.524964	0.410016
H156	H	2.272571	-0.563574	0.326714
H157	H	2.251196	-0.922493	0.394905
H158	H	1.783820	-0.295294	0.376405
H159	H	2.290768	-0.691838	0.403041
N160	N	1.737921	-0.196004	0.375435
H161	H	1.743808	-0.160430	0.376673
H162	H	1.718867	-0.208493	0.451802
N163	N	1.755287	-0.684005	0.365451
H164	H	1.692318	-0.658698	0.361593
H165	H	1.774739	-0.709629	0.444230
H166	H	1.757561	-0.586032	0.367870
H167	H	2.145963	-0.067663	0.777384
H168	H	1.868722	-0.058171	0.994595
