data_functionalizedCrystal
_audit_creation_method	'MofGen! by Chris Wilmer'
_symmetry_space_group_name_H-M	'P1'
_symmetry_Int_Tables_number	1
_symmetry_cell_setting	triclinic
loop_
_symmetry_equiv_pos_as_xyz
  x,y,z
_cell_length_a	8.597340
_cell_length_b	10.489716
_cell_length_c	7.681481
_cell_angle_alpha	84.203772
_cell_angle_beta	103.474906
_cell_angle_gamma	84.931820
loop_
_atom_site_label
_atom_site_type_symbol
_atom_site_fract_x
_atom_site_fract_y
_atom_site_fract_z
O1	O	2.101853	0.176392	0.172477
O2	O	1.638024	0.196715	0.102104
O3	O	1.880512	0.000876	0.138888
O4	O	1.859364	0.372231	0.135692
O5	O	1.910358	-0.023283	0.436274
O6	O	1.667869	0.172556	0.399489
O7	O	2.131699	0.152233	0.469862
Zn8	Zn	1.904523	0.158559	0.481892
Zn9	Zn	1.865200	0.190389	0.090074
O10	O	1.889210	0.348072	0.433078
C11	C	1.593553	0.183799	0.241785
C12	C	1.416581	0.181290	0.214934
C13	C	1.893846	-0.058724	0.287334
C14	C	1.889090	-0.200318	0.286597
C15	C	2.037794	-0.299093	0.309174
C16	C	1.944501	-0.363961	0.150631
C17	C	1.973892	-0.387744	0.443824
C18	C	1.795847	-0.263312	0.127941
C19	C	1.825274	-0.287100	0.421270
C20	C	1.731868	-0.351915	0.262674
C21	C	2.176169	0.165149	0.330177
C22	C	2.353140	0.167659	0.357017
C23	C	1.875877	0.407672	0.284628
C24	C	1.880631	0.549267	0.285353
N25	N	1.931371	0.136834	0.749299
N26	N	1.838364	0.212103	-0.177331
H27	H	1.434218	0.157898	0.499209
O28	O	1.706412	-0.199043	-0.031570
C29	C	1.805492	-0.127451	-0.116472
H30	H	1.936154	-0.171780	-0.063905
H31	H	1.793566	-0.023486	-0.085635
C32	C	1.592849	-0.075361	-0.386447
C33	C	1.753328	-0.129813	-0.321893
H34	H	1.560669	-0.076812	-0.513160
H35	H	1.526093	-0.123589	-0.329245
H36	H	1.582931	0.011272	-0.360732
H37	H	1.763240	-0.216449	-0.347588
H38	H	1.820085	-0.081599	-0.379105
H39	H	2.026331	0.060011	0.838910
H40	H	1.335495	0.191043	0.072732
O41	O	1.577384	-0.379835	0.238841
C42	C	1.484042	-0.315518	0.072260
H43	H	1.565965	-0.292792	-0.021241
H44	H	1.418244	-0.221894	0.095344
C45	C	1.259682	-0.430342	0.100258
C46	C	1.360299	-0.402440	-0.014587
H47	H	1.183346	-0.483955	0.046689
H48	H	1.322565	-0.473670	0.212490
H49	H	1.204866	-0.352314	0.119485
H50	H	1.415128	-0.480465	-0.033794
H51	H	1.297422	-0.359126	-0.126825
H52	H	2.167124	-0.275361	0.328650
H53	H	1.994833	-0.397850	0.036194
O54	O	2.063852	-0.452240	0.602926
C55	C	2.187061	-0.537324	0.569790
H56	H	2.212202	-0.502326	0.434721
H57	H	2.147516	-0.638127	0.565939
C58	C	2.310229	-0.584359	0.887147
C59	C	2.341117	-0.541367	0.721259
H60	H	2.405257	-0.586859	0.980582
H61	H	2.227218	-0.527040	0.909473
H62	H	2.277272	-0.668358	0.883912
H63	H	2.374054	-0.457364	0.724488
H64	H	2.424138	-0.598672	0.698937
H65	H	1.743422	0.288931	0.733070
H66	H	1.774996	-0.253189	0.535719
