data_functionalizedCrystal
_audit_creation_method	'MofGen! by Chris Wilmer'
_symmetry_space_group_name_H-M	'P1'
_symmetry_Int_Tables_number	1
_symmetry_cell_setting	triclinic
loop_
_symmetry_equiv_pos_as_xyz
  x,y,z
_cell_length_a	15.995350
_cell_length_b	10.540539
_cell_length_c	15.072220
_cell_angle_alpha	89.992755
_cell_angle_beta	90.000308
_cell_angle_gamma	95.991067
loop_
_atom_site_label
_atom_site_type_symbol
_atom_site_fract_x
_atom_site_fract_y
_atom_site_fract_z
O1	O	1.111963	-0.163627	0.073703
O2	O	0.868308	-0.183831	0.073721
O3	O	0.995694	0.011054	0.073710
O4	O	0.984577	-0.358512	0.073713
O5	O	0.995686	0.011078	-0.073855
O6	O	0.868300	-0.183808	-0.073844
O7	O	1.111954	-0.163603	-0.073862
Zn8	Zn	0.990125	-0.173702	-0.097282
Zn9	Zn	0.990137	-0.173733	0.097141
O10	O	0.984568	-0.358488	-0.073852
C11	C	0.837104	-0.182984	-0.000059
C12	C	0.744139	-0.180480	-0.000053
N13	N	0.990124	-0.173680	-0.229971
C14	C	0.994856	0.058357	-0.000070
C15	C	0.992362	0.199271	-0.000065
C16	C	0.406337	-0.171487	-0.000071
C17	C	0.452942	-0.032693	-0.000401
C18	C	0.549647	-0.035198	-0.000063
C19	C	0.573925	-0.175948	-0.000062
C20	C	0.533252	-0.244419	0.084202
C21	C	0.436595	-0.240932	0.084266
C22	C	0.436264	-0.243773	-0.083543
C23	C	0.533209	-0.243740	-0.084651
C24	C	0.668637	-0.178476	-0.000054
C25	C	0.311625	-0.168962	-0.000073
C26	C	1.143158	-0.164450	-0.000080
C27	C	1.236123	-0.166954	-0.000081
C28	C	0.985406	-0.405792	-0.000069
C29	C	0.987900	-0.546705	-0.000068
C30	C	0.896778	0.381384	0.000273
C31	C	0.899307	0.234801	-0.000060
C32	C	1.037139	0.261558	-0.084336
C33	C	1.033963	0.408059	-0.084406
C34	C	1.035865	0.408576	0.083403
C35	C	1.036723	0.261606	0.084517
C36	C	0.990137	-0.173723	-0.589173
C37	C	1.058524	-0.069792	-0.551544
C38	C	1.058342	-0.069408	-0.448718
C39	C	0.990131	-0.173701	-0.410969
C40	C	0.902601	-0.144775	-0.448305
C41	C	0.903006	-0.144041	-0.551163
C42	C	1.008495	-0.306887	-0.551250
C43	C	1.010473	-0.305994	-0.448386
C44	C	0.990122	-0.173692	-0.310255
C45	C	0.990141	-0.173730	-0.689886
N46	N	0.990145	-0.173744	0.229830
H47	H	0.434084	0.022796	-0.060830
H48	H	0.886169	-0.048765	-0.422553
H49	H	0.549188	-0.346378	-0.089740
H50	H	0.433021	0.022521	0.059694
H51	H	1.103078	0.456726	0.083964
N52	N	0.995945	0.204570	-0.167403
H53	H	0.948286	0.138423	-0.150639
H54	H	0.973300	0.274101	-0.203522
H55	H	0.577184	0.018968	0.060446
N56	N	0.852642	0.177714	0.079961
H57	H	0.892134	0.132110	0.117883
H58	H	0.830248	0.247834	0.115694
H59	H	0.417992	-0.191020	0.147255
N60	N	0.568988	-0.177538	-0.167229
H61	H	0.556555	-0.085545	-0.166697
H62	H	0.631808	-0.181243	-0.168847
H63	H	1.123780	-0.086738	-0.576278
H64	H	1.046880	0.028470	-0.577402
N65	N	0.408711	-0.183662	-0.168153
H66	H	0.345366	-0.187463	-0.169343
H67	H	0.433790	-0.091752	-0.170884
H68	H	0.860023	0.409469	0.060704
N69	N	1.091289	-0.343724	-0.585603
H70	H	1.117737	-0.274455	-0.626103
H71	H	1.130127	-0.354961	-0.534008
H72	H	1.074867	-0.327944	-0.423983
H73	H	0.850547	-0.216861	-0.576056
N74	N	0.848274	0.420730	-0.079318
H75	H	0.885069	0.484934	-0.115595
H76	H	0.830477	0.343253	-0.116877
H77	H	0.863820	0.192567	-0.060564
H78	H	1.100886	0.456947	-0.088234
N79	N	0.948852	-0.413248	-0.414354
H80	H	0.906686	-0.377440	-0.374021
H81	H	0.918548	-0.458200	-0.466105
N82	N	0.990118	0.444825	-0.167840
H83	H	0.931147	0.400036	-0.169259
H84	H	0.987679	0.540177	-0.168674
N85	N	0.394677	-0.375905	0.089297
H86	H	0.439012	-0.437403	0.091471
H87	H	0.358838	-0.386112	0.144517
H88	H	1.104567	0.238316	0.089600
H89	H	1.105475	0.240143	-0.087474
H90	H	1.005752	0.439705	0.147274
N91	N	0.395009	-0.379323	-0.084304
H92	H	0.357116	-0.393893	-0.030871
H93	H	0.360660	-0.394475	-0.140245
N94	N	0.552787	-0.381387	0.088369
H95	H	0.588275	-0.400415	0.035548
H96	H	0.584522	-0.395463	0.144848
N97	N	0.993376	0.206776	0.167094
H98	H	0.996315	0.111554	0.168778
H99	H	1.022205	0.247317	0.221232
H100	H	0.561345	-0.196881	0.146912
H101	H	1.123381	-0.086633	-0.423474
N102	N	1.042697	0.061489	-0.416125
H103	H	1.035887	0.119164	-0.468575
H104	H	0.989831	0.054702	-0.379036
N105	N	0.881750	-0.015398	-0.582962
H106	H	0.872206	0.040300	-0.530164
H107	H	0.929769	0.026310	-0.619745
N108	N	0.833516	-0.242355	-0.415911
H109	H	0.845099	-0.330084	-0.436345
H110	H	0.831379	-0.240359	-0.348962
N111	N	0.586881	0.036084	-0.080075
H112	H	0.540477	0.069422	-0.115883
H113	H	0.627798	0.109895	-0.059884
N114	N	0.942451	-0.409342	-0.583479
H115	H	0.900836	-0.369765	-0.622453
H116	H	0.970258	-0.474884	-0.618628
