data_functionalizedCrystal
_audit_creation_method	'MofGen! by Chris Wilmer'
_symmetry_space_group_name_H-M	'P1'
_symmetry_Int_Tables_number	1
_symmetry_cell_setting	triclinic
loop_
_symmetry_equiv_pos_as_xyz
  x,y,z
_cell_length_a	10.489741
_cell_length_b	10.489741
_cell_length_c	8.965430
_cell_angle_alpha	89.999293
_cell_angle_beta	89.998843
_cell_angle_gamma	95.460826
loop_
_atom_site_label
_atom_site_type_symbol
_atom_site_fract_x
_atom_site_fract_y
_atom_site_fract_z
O1	O	1.694053	-0.179958	-0.123946
O2	O	1.322858	-0.196851	-0.123969
O3	O	1.516902	-0.002807	-0.123948
O4	O	1.500009	-0.374003	-0.123967
O5	O	1.516886	-0.002820	0.124130
O6	O	1.322841	-0.196864	0.124110
O7	O	1.694037	-0.179971	0.124133
Cu8	Cu	1.508438	-0.188419	0.146773
Cu9	Cu	1.508457	-0.188404	-0.146609
O10	O	1.499993	-0.374016	0.124112
C11	C	1.275318	-0.195582	0.000067
C12	C	1.133688	-0.191765	0.000059
C13	C	1.065548	-0.068300	0.000079
C14	C	0.973430	-0.126617	-0.122237
C15	C	0.973447	-0.126659	0.122349
C16	C	1.043435	-0.250133	-0.122358
C17	C	1.043462	-0.250158	0.122338
C18	C	0.951371	-0.308564	-0.000007
C19	C	1.515618	0.044718	0.000090
C20	C	1.511801	0.186348	0.000087
C21	C	1.741577	-0.181241	0.000093
C22	C	1.883206	-0.185058	0.000092
C23	C	1.501277	-0.421541	0.000070
C24	C	1.505094	-0.563170	0.000063
N25	N	1.508433	-0.188429	0.353122
C26	C	1.388336	0.254488	0.000069
C27	C	1.446652	0.346604	0.122388
C28	C	1.446697	0.346591	-0.122198
C29	C	1.570167	0.276599	0.122508
C30	C	1.570195	0.276576	-0.122189
C31	C	1.628600	0.368665	0.000161
N32	N	1.508471	-0.188384	-0.352958
C33	C	1.418666	-0.278138	0.450418
C34	C	1.534163	-0.303949	0.549838
C35	C	1.392986	-0.162629	0.549830
C36	C	1.623988	-0.214298	0.450352
C37	C	1.482735	-0.072927	0.450336
C38	C	1.598314	-0.098690	0.549711
H39	H	0.901947	-0.410168	-0.000079
O40	O	1.384354	0.383770	-0.245459
C41	C	1.382652	0.518006	-0.244477
H42	H	1.394959	0.554917	-0.125256
H43	H	1.464252	0.563423	-0.316564
C44	C	1.238825	0.508090	-0.453502
C45	C	1.253929	0.553424	-0.307071
H46	H	1.159426	0.529940	-0.492119
H47	H	1.239974	0.417653	-0.454169
H48	H	1.306833	0.545942	-0.513557
H49	H	1.185931	0.515560	-0.247015
H50	H	1.252765	0.643856	-0.306395
H51	H	1.342824	-0.354072	0.406821
O52	O	1.632549	0.239684	0.245865
C53	C	1.740220	0.177907	0.202228
H54	H	1.725242	0.138939	0.084186
H55	H	1.829216	0.249280	0.205177
C56	C	1.776247	0.114513	0.455015
C57	C	1.757845	0.066642	0.310038
H58	H	1.787123	0.045883	0.521520
H59	H	1.703710	0.156137	0.484416
H60	H	1.850408	0.173990	0.457452
H61	H	1.683676	0.007179	0.307600
H62	H	1.830370	0.025005	0.280639
O63	O	1.740517	-0.240654	0.398676
C64	C	1.767582	-0.362051	0.450620
H65	H	1.709279	-0.387349	0.555612
H66	H	1.741353	-0.436980	0.360876
C67	C	1.982945	-0.328201	0.357814
C68	C	1.911344	-0.359267	0.486774
H69	H	2.071625	-0.326487	0.380109
H70	H	1.964710	-0.246415	0.322812
H71	H	1.961073	-0.390646	0.283040
H72	H	1.933205	-0.296814	0.561539
H73	H	1.929586	-0.441043	0.521789
O74	O	1.124645	0.052858	0.000136
C75	C	1.087479	0.118410	0.127900
H76	H	0.991675	0.071685	0.170100
H77	H	1.163064	0.113845	0.218619
C78	C	1.191863	0.316692	0.036077
C79	C	1.074189	0.259309	0.087901
H80	H	1.183671	0.403606	0.011408
H81	H	1.216907	0.272528	-0.049998
H82	H	1.254838	0.312874	0.111685
H83	H	1.011220	0.263113	0.012287
H84	H	1.049134	0.303477	0.173963
H85	H	1.555925	-0.401606	0.593543
H86	H	1.674327	-0.022803	0.593034
O87	O	1.456509	0.043490	0.398210
C88	C	1.334636	0.070307	0.448837
H89	H	1.274955	-0.023179	0.476798
H90	H	1.345729	0.132919	0.552834
C91	C	1.340444	0.256128	0.291542
C92	C	1.267139	0.141306	0.325873
H93	H	1.298809	0.299929	0.215697
H94	H	1.422554	0.238064	0.257438
H95	H	1.349683	0.308289	0.378217
H96	H	1.257915	0.089141	0.239205
H97	H	1.185025	0.159363	0.359960
H98	H	1.295338	-0.140828	0.593530
H99	H	0.942422	-0.074371	-0.225643
H100	H	0.942463	-0.074402	0.225758
H101	H	1.074502	-0.302361	0.225749
H102	H	1.286824	0.204837	0.000185
H103	H	1.074270	-0.302327	-0.225883
H104	H	1.394404	0.377610	0.225794
H105	H	1.730204	0.418089	0.000235
H106	H	1.622398	0.245537	-0.225600
