data_functionalizedCrystal
_audit_creation_method	'MofGen! by Chris Wilmer'
_symmetry_space_group_name_H-M	'P1'
_symmetry_Int_Tables_number	1
_symmetry_cell_setting	triclinic
loop_
_symmetry_equiv_pos_as_xyz
  x,y,z
_cell_length_a	16.625548
_cell_length_b	16.120484
_cell_length_c	16.625539
_cell_angle_alpha	92.870299
_cell_angle_beta	89.982945
_cell_angle_gamma	92.926626
loop_
_atom_site_label
_atom_site_type_symbol
_atom_site_fract_x
_atom_site_fract_y
_atom_site_fract_z
Zn1	Zn	1.216358	-0.331898	-0.472168
Zn2	Zn	1.466358	-0.081898	-0.222168
Zn3	Zn	1.716358	0.168102	0.027832
Zn4	Zn	1.966358	0.418102	0.277832
Zn5	Zn	1.209425	-0.471318	-0.344164
Zn6	Zn	1.459425	-0.221318	-0.094164
Zn7	Zn	1.709425	0.028682	0.155836
Zn8	Zn	1.959425	0.278682	0.405836
Zn9	Zn	1.081527	-0.331926	-0.337349
Zn10	Zn	1.331527	-0.081926	-0.087349
Zn11	Zn	1.581527	0.168074	0.162651
Zn12	Zn	1.831527	0.418074	0.412651
Zn13	Zn	1.074648	-0.471275	-0.478952
Zn14	Zn	1.324648	-0.221275	-0.228952
Zn15	Zn	1.574648	0.028725	0.021048
Zn16	Zn	1.824648	0.278725	0.271048
O17	O	1.145490	-0.401604	-0.408158
O18	O	1.395490	-0.151604	-0.158158
O19	O	1.645490	0.098396	0.091842
O20	O	1.895490	0.348396	0.341842
O21	O	1.328271	-0.350399	-0.455200
O22	O	1.578271	-0.100399	-0.205200
O23	O	1.828271	0.149601	0.044800
O24	O	2.078271	0.399601	0.294800
O25	O	1.192436	-0.452857	-0.230429
O26	O	1.442436	-0.202857	0.019571
O27	O	1.692436	0.047143	0.269571
O28	O	1.942436	0.297143	0.519571
O29	O	1.105193	-0.215256	-0.349542
O30	O	1.355193	0.034744	-0.099542
O31	O	1.605193	0.284744	0.150458
O32	O	1.855193	0.534744	0.400458
O33	O	1.323177	-0.452831	-0.361157
O34	O	1.573177	-0.202831	-0.111157
O35	O	1.823177	0.047169	0.138843
O36	O	2.073177	0.297169	0.388843
O37	O	1.204253	-0.215236	-0.448592
O38	O	1.454253	0.034764	-0.198592
O39	O	1.704253	0.284764	0.051408
O40	O	1.954253	0.534764	0.301408
O41	O	1.098470	-0.350446	-0.225423
O42	O	1.348470	-0.100446	0.024577
O43	O	1.598470	0.149554	0.274577
O44	O	1.848470	0.399554	0.524577
O45	O	0.967782	-0.350404	-0.356121
O46	O	1.217782	-0.100404	-0.106121
O47	O	1.467782	0.149596	0.143879
O48	O	1.717782	0.399596	0.393879
O49	O	1.093469	-0.452757	-0.590883
O50	O	1.343469	-0.202757	-0.340883
O51	O	1.593469	0.047243	-0.090883
O52	O	1.843469	0.297243	0.159117
O53	O	0.962728	-0.452783	-0.460156
O54	O	1.212728	-0.202783	-0.210156
O55	O	1.462728	0.047217	0.039844
O56	O	1.712728	0.297217	0.289844
O57	O	1.197583	-0.350357	-0.585899
O58	O	1.447583	-0.100357	-0.335899
O59	O	1.697583	0.149643	-0.085899
O60	O	1.947583	0.399643	0.164101
O61	O	1.185766	-0.587979	-0.367736
O62	O	1.435766	-0.337979	-0.117736
O63	O	1.685766	-0.087979	0.132264
O64	O	1.935766	0.162021	0.382264
O65	O	1.086746	-0.587947	-0.466764
O66	O	1.336746	-0.337947	-0.216764
O67	O	1.586746	-0.087947	0.033236
O68	O	1.836746	0.162053	0.283236
C69	C	0.935999	-0.401592	-0.408135
C70	C	1.185999	-0.151592	-0.158135
C71	C	1.435999	0.098408	0.091865
C72	C	1.685999	0.348408	0.341865
C73	C	0.846377	-0.401607	-0.408146
C74	C	1.096377	-0.151607	-0.158146
C75	C	1.346377	0.098393	0.091854
C76	C	1.596377	0.348393	0.341854
C77	C	0.518202	-0.401613	-0.408180
C78	C	0.768202	-0.151613	-0.158180
C79	C	1.018202	0.098387	0.091820
C80	C	1.268202	0.348387	0.341820
C81	C	0.609510	-0.401609	-0.408168
C82	C	0.859510	-0.151609	-0.158168
C83	C	1.109510	0.098391	0.091832
C84	C	1.359510	0.348391	0.341832
C85	C	0.682287	-0.401611	-0.408162
C86	C	0.932287	-0.151611	-0.158162
C87	C	1.182287	0.098389	0.091838
C88	C	1.432287	0.348389	0.341838
C89	C	0.773601	-0.401606	-0.408151
C90	C	1.023601	-0.151606	-0.158151
C91	C	1.273601	0.098394	0.091849
C92	C	1.523601	0.348394	0.341849
C93	C	1.134779	-0.618213	-0.418743
C94	C	1.384779	-0.368213	-0.168743
C95	C	1.634779	-0.118213	0.081257
C96	C	1.884779	0.131787	0.331257
C97	C	1.130271	-0.710879	-0.423298
C98	C	1.380271	-0.460879	-0.173298
C99	C	1.630271	-0.210879	0.076702
C100	C	1.880271	0.039121	0.326702
C101	C	1.122045	-0.880541	-0.431631
C102	C	1.372045	-0.630541	-0.181631
C103	C	1.622045	-0.380541	0.068369
C104	C	1.872045	-0.130541	0.318369
C105	C	1.169079	-0.921827	-0.384699
C106	C	1.419079	-0.671827	-0.134699
C107	C	1.669079	-0.421827	0.115301
C108	C	1.919079	-0.171827	0.365301
C109	C	1.164502	-1.016233	-0.389335
C110	C	1.414502	-0.766233	-0.139335
C111	C	1.664502	-0.516233	0.110665
C112	C	1.914502	-0.266233	0.360665
C113	C	1.126621	-0.786127	-0.426996
C114	C	1.376621	-0.536127	-0.176996
C115	C	1.626621	-0.286127	0.073004
C116	C	1.876621	-0.036127	0.323004
C117	C	1.355798	-0.401617	-0.408182
C118	C	1.605798	-0.151617	-0.158182
C119	C	1.855798	0.098383	0.091818
C120	C	2.105798	0.348383	0.341818
C121	C	1.445419	-0.401622	-0.408192
C122	C	1.695419	-0.151622	-0.158192
C123	C	1.945419	0.098378	0.091808
C124	C	2.195419	0.348378	0.341808
C125	C	1.145532	-0.401549	-0.618465
C126	C	1.395532	-0.151549	-0.368465
C127	C	1.645532	0.098451	-0.118465
C128	C	1.895532	0.348451	0.131535
C129	C	1.145550	-0.401526	-0.708085
C130	C	1.395550	-0.151526	-0.458085
C131	C	1.645550	0.098474	-0.208085
C132	C	1.895550	0.348474	0.041915
C133	C	1.156264	-0.184150	-0.397550
C134	C	1.406264	0.065850	-0.147550
C135	C	1.656264	0.315850	0.102450
C136	C	1.906264	0.565850	0.352450
C137	C	1.160855	-0.091484	-0.393029
C138	C	1.410855	0.158516	-0.143029
C139	C	1.660855	0.408516	0.106971
C140	C	1.910855	0.658516	0.356971
C141	C	1.145564	-0.401507	-0.780866
C142	C	1.395564	-0.151507	-0.530866
C143	C	1.645564	0.098493	-0.280866
C144	C	1.895564	0.348493	-0.030866
C145	C	1.145584	-0.401476	-0.872173
C146	C	1.395584	-0.151476	-0.622173
C147	C	1.645584	0.098524	-0.372173
C148	C	1.895584	0.348524	-0.122173
C149	C	1.145605	-0.401447	-0.944948
C150	C	1.395605	-0.151447	-0.694948
C151	C	1.645605	0.098553	-0.444948
C152	C	1.895605	0.348553	-0.194948
C153	C	1.145626	-0.401417	-1.036261
C154	C	1.395626	-0.151417	-0.786261
C155	C	1.645626	0.098583	-0.536261
C156	C	1.895626	0.348583	-0.286261
C157	C	1.145497	-0.401599	-0.198667
C158	C	1.395497	-0.151599	0.051333
C159	C	1.645497	0.098401	0.301333
C160	C	1.895497	0.348401	0.551333
C161	C	1.145647	-0.401388	-0.109036
C162	C	1.395647	-0.151388	0.140964
C163	C	1.645647	0.098612	0.390964
C164	C	1.895647	0.348612	0.640964
H165	H	1.078343	-0.916094	-0.475289
H166	H	1.328343	-0.666094	-0.225289
H167	H	1.578343	-0.416094	0.024711
H168	H	1.828343	-0.166094	0.274711
H169	H	1.212783	-0.886271	-0.341036
H170	H	1.462783	-0.636271	-0.091036
H171	H	1.712783	-0.386271	0.158964
H172	H	1.962783	-0.136271	0.408964
