data_functionalizedCrystal
_audit_creation_method	'MofGen! by Chris Wilmer'
_symmetry_space_group_name_H-M	'P1'
_symmetry_Int_Tables_number	1
_symmetry_cell_setting	triclinic
loop_
_symmetry_equiv_pos_as_xyz
  x,y,z
_cell_length_a	17.699083
_cell_length_b	17.699083
_cell_length_c	16.176319
_cell_angle_alpha	89.992304
_cell_angle_beta	89.998611
_cell_angle_gamma	83.283015
loop_
_atom_site_label
_atom_site_type_symbol
_atom_site_fract_x
_atom_site_fract_y
_atom_site_fract_z
O1	O	1.004079	0.095713	-0.068632
O2	O	0.783700	0.108166	-0.068660
O3	O	0.900116	-0.008250	-0.068638
O4	O	0.887663	0.212129	-0.068654
O5	O	0.900100	-0.008257	0.068855
O6	O	0.783684	0.108158	0.068834
O7	O	1.004063	0.095706	0.068861
Cu8	Cu	0.893872	0.101931	0.081401
Cu9	Cu	0.893891	0.101940	-0.081200
O10	O	0.887647	0.212121	0.068839
C11	C	0.755495	0.107716	0.000084
C12	C	0.671477	0.106377	0.000073
C13	C	0.899662	-0.036451	0.000109
C14	C	0.898323	-0.120469	0.000109
C15	C	0.622856	0.174710	0.000069
C16	C	0.543913	0.173448	0.000079
C17	C	0.513592	0.103852	0.000089
C18	C	0.562219	0.035513	0.000096
C19	C	0.641161	0.036776	0.000091
C20	C	0.243856	0.030418	0.000117
C21	C	0.164908	0.029160	0.000120
C22	C	0.146608	0.167090	0.000105
C23	C	0.225550	0.168353	0.000100
C24	C	0.274170	0.100015	0.000112
C25	C	0.359769	0.101384	0.000102
C26	C	0.427995	0.102481	0.000093
C27	C	0.966656	-0.169090	0.000119
C28	C	0.965394	-0.248033	0.000111
C29	C	0.895798	-0.278354	0.000100
C30	C	0.827459	-0.229727	0.000088
C31	C	0.828722	-0.150785	0.000089
C32	C	0.822364	-0.548090	0.000080
C33	C	0.821106	-0.627038	0.000081
C34	C	0.959036	-0.645338	0.000102
C35	C	0.960299	-0.566396	0.000104
C36	C	0.891961	-0.517776	0.000087
C37	C	0.893330	-0.432177	0.000094
C38	C	0.894427	-0.363951	0.000099
C39	C	1.032268	0.096156	0.000116
C40	C	1.116286	0.097494	0.000121
C41	C	0.888102	0.240322	0.000091
C42	C	0.889440	0.324340	0.000085
N43	N	0.893864	0.101925	0.195767
N44	N	0.893905	0.101941	-0.195565
C45	C	0.945429	0.050397	0.239040
C46	C	0.945432	0.050396	0.325588
C47	C	0.893875	0.101927	0.368859
C48	C	0.842305	0.153457	0.325579
C49	C	0.842299	0.153454	0.239034
C50	C	0.842331	0.153472	0.674608
C51	C	0.842344	0.153473	0.761159
C52	C	0.945465	0.050414	0.761161
C53	C	0.945458	0.050410	0.674616
C54	C	0.893886	0.101937	0.631344
C55	C	0.893882	0.101937	0.537499
C56	C	0.893883	0.101932	0.462702
H57	H	0.504328	0.229092	0.000075
C58	C	0.234240	0.286316	-0.070592
C59	C	0.258871	0.244859	0.000088
H60	H	0.254805	0.333551	-0.070593
H61	H	0.250942	0.258190	-0.118528
H62	H	0.180265	0.295333	-0.070580
H63	H	0.312845	0.235837	0.000074
H64	H	0.242173	0.272991	0.048037
H65	H	0.140225	-0.027517	0.000128
C66	C	0.588244	-0.100702	0.000112
C67	C	0.528894	-0.040990	0.000106
H68	H	0.567670	-0.147933	0.000121
H69	H	0.618652	-0.097338	-0.047832
H70	H	0.618654	-0.097338	0.048062
H71	H	0.498487	-0.044351	-0.047847
H72	H	0.498473	-0.044356	0.048056
C73	C	0.017468	0.226411	0.000117
C74	C	0.093162	0.242211	0.000104
H75	H	-0.015524	0.272788	0.000119
H76	H	0.008290	0.197874	-0.047822
H77	H	0.008301	0.197867	0.048072
H78	H	0.102330	0.270751	-0.047855
H79	H	0.102343	0.270760	0.048048
C80	C	1.047386	-0.051455	0.316897
C81	C	1.002125	-0.006233	0.373154
H82	H	1.082392	-0.086411	0.346264
H83	H	1.015938	-0.078651	0.283156
H84	H	1.074534	-0.019969	0.283126
H85	H	0.974973	-0.037719	0.406921
H86	H	1.033577	0.020965	0.406909
H87	H	0.647537	0.231384	0.000060
H88	H	0.800323	0.195413	0.360816
H89	H	0.987444	0.008451	0.639387
H90	H	0.283434	-0.025228	0.000127
H91	H	0.680748	-0.018868	0.000095
H92	H	0.766718	-0.508512	0.000067
C93	C	0.764276	-0.342611	0.000086
C94	C	0.750956	-0.263053	0.000079
H95	H	0.717044	-0.363182	0.000087
H96	H	0.792405	-0.359300	-0.047855
H97	H	0.792402	-0.359305	0.048039
H98	H	0.722835	-0.246359	-0.047879
H99	H	0.722815	-0.246357	0.048024
H100	H	1.021038	-0.287618	0.000121
C101	C	0.797646	0.284555	0.647961
C102	C	0.785651	0.210119	0.627054
H103	H	0.762655	0.319528	0.618597
H104	H	0.790276	0.291920	0.705691
H105	H	0.848141	0.292699	0.633759
H106	H	0.735157	0.201973	0.641261
H107	H	0.793014	0.202750	0.569311
C108	C	1.102871	-0.195117	0.000125
C109	C	1.043160	-0.135765	0.000125
H110	H	1.150102	-0.174543	0.000121
H111	H	1.099508	-0.225529	0.048070
H112	H	1.099505	-0.225522	-0.047824
H113	H	1.046523	-0.105363	0.048078
H114	H	1.046526	-0.105340	-0.047824
H115	H	1.016971	-0.541714	0.000117
H116	H	0.764429	-0.651721	0.000074
H117	H	0.800309	0.195412	0.203801
H118	H	0.987456	0.008455	0.796403
H119	H	0.987416	0.008438	0.203814
C120	C	1.095509	-0.655497	0.000128
C121	C	1.034158	-0.698783	0.000111
H122	H	1.141884	-0.688492	0.000140
H123	H	1.093139	-0.624321	-0.047815
H124	H	1.093118	-0.624331	0.048080
H125	H	1.036546	-0.729945	-0.047844
H126	H	1.036529	-0.729972	0.048059
C127	C	0.750133	-0.051385	-0.070604
C128	C	0.753608	-0.097337	0.000079
H129	H	0.703756	-0.018393	-0.070615
H130	H	0.791758	-0.022033	-0.070591
H131	H	0.752515	-0.082566	-0.118544
H132	H	0.751231	-0.066156	0.048019
H133	H	0.711972	-0.126691	0.000073
C134	C	0.711236	0.198066	0.787830
C135	C	0.785662	0.210112	0.808728
H136	H	0.676247	0.233029	0.817202
H137	H	0.703852	0.205444	0.730101
H138	H	0.703133	0.147558	0.802027
H139	H	0.793767	0.260619	0.794525
H140	H	0.793049	0.202741	0.866469
