data_functionalizedCrystal
_audit_creation_method	'MofGen! by Chris Wilmer'
_symmetry_space_group_name_H-M	'P1'
_symmetry_Int_Tables_number	1
_symmetry_cell_setting	triclinic
loop_
_symmetry_equiv_pos_as_xyz
  x,y,z
_cell_length_a	10.489741
_cell_length_b	10.489741
_cell_length_c	9.565339
_cell_angle_alpha	89.998731
_cell_angle_beta	89.994177
_cell_angle_gamma	95.460826
loop_
_atom_site_label
_atom_site_type_symbol
_atom_site_fract_x
_atom_site_fract_y
_atom_site_fract_z
O1	O	1.694054	-0.179957	-0.116324
O2	O	1.322858	-0.196850	-0.116313
O3	O	1.516902	-0.002806	-0.116310
O4	O	1.500009	-0.374002	-0.116327
O5	O	1.516886	-0.002821	0.116210
O6	O	1.322841	-0.196865	0.116207
O7	O	1.694037	-0.179972	0.116196
Zn8	Zn	1.508436	-0.188421	0.153119
Zn9	Zn	1.508458	-0.188401	-0.153236
O10	O	1.499993	-0.374017	0.116194
C11	C	1.275318	-0.195582	-0.000051
C12	C	1.133688	-0.191765	-0.000047
C13	C	1.741577	-0.181241	-0.000069
C14	C	1.883206	-0.185058	-0.000083
C15	C	1.515618	0.044718	-0.000051
C16	C	1.511801	0.186348	-0.000054
C17	C	1.501277	-0.421541	-0.000069
C18	C	1.505094	-0.563170	-0.000076
C19	C	1.951346	-0.308523	-0.000073
C20	C	2.043481	-0.250192	-0.114710
C21	C	2.043431	-0.250177	0.114536
C22	C	1.973476	-0.126676	-0.114814
C23	C	1.973416	-0.126679	0.114535
C24	C	2.065524	-0.068258	-0.000130
N25	N	1.508431	-0.188434	0.362199
C26	C	1.388336	0.254488	-0.000060
C27	C	1.446651	0.346603	0.114583
C28	C	1.446697	0.346592	-0.114664
C29	C	1.570167	0.276597	0.114684
C30	C	1.570195	0.276577	-0.114666
C31	C	1.628600	0.368665	0.000005
N32	N	1.508474	-0.188379	-0.362315
C33	C	1.419439	-0.278873	0.546570
C34	C	1.392583	-0.163729	0.453350
C35	C	1.535229	-0.303568	0.453349
C36	C	1.481560	-0.073176	0.546516
C37	C	1.624258	-0.213091	0.546523
C38	C	1.597450	-0.097864	0.453345
H39	H	1.901698	-0.410035	-0.000194
Br40	Br	1.797943	0.451046	0.000096
H41	H	1.394404	0.377608	0.211508
H42	H	1.394448	0.377562	-0.211594
Br43	Br	1.657159	0.225210	0.276405
Br44	Br	1.443627	0.089189	0.614430
H45	H	1.344111	-0.355289	0.587503
H46	H	1.942361	-0.074489	0.211464
Br47	Br	1.657209	0.224841	-0.276224
Br48	Br	2.095059	-0.337293	0.276072
H49	H	2.074509	-0.302428	-0.211630
Br50	Br	1.229356	-0.128911	0.385129
Br51	Br	1.722926	0.029779	0.385550
Br52	Br	1.219144	0.171734	0.000124
Br53	Br	1.572980	-0.465889	0.385131
Br54	Br	1.922117	-0.039657	-0.276535
Br55	Br	2.147902	0.101086	-0.000213
Br56	Br	1.787442	-0.247964	0.614796
