data_functionalizedCrystal
_audit_creation_method	'MofGen! by Chris Wilmer'
_symmetry_space_group_name_H-M	'P1'
_symmetry_Int_Tables_number	1
_symmetry_cell_setting	triclinic
loop_
_symmetry_equiv_pos_as_xyz
  x,y,z
_cell_length_a	14.044220
_cell_length_b	14.044220
_cell_length_c	12.503552
_cell_angle_alpha	93.855848
_cell_angle_beta	86.158090
_cell_angle_gamma	93.188878
loop_
_atom_site_label
_atom_site_type_symbol
_atom_site_fract_x
_atom_site_fract_y
_atom_site_fract_z
O1	O	-1.272128	-0.235220	-0.089212
O2	O	-1.022128	0.014780	0.160788
O3	O	-0.772128	0.264780	0.410788
O4	O	-0.522128	0.514780	0.660788
O5	O	-0.995455	-0.226916	-0.089239
O6	O	-0.745455	0.023084	0.160761
O7	O	-0.495455	0.273084	0.410761
O8	O	-0.245455	0.523084	0.660761
O9	O	-1.129639	-0.092732	-0.089215
O10	O	-0.879639	0.157268	0.160785
O11	O	-0.629639	0.407268	0.410785
O12	O	-0.379639	0.657268	0.660785
O13	O	-1.137944	-0.369405	-0.089236
O14	O	-0.887944	-0.119405	0.160764
O15	O	-0.637944	0.130595	0.410764
O16	O	-0.387944	0.380595	0.660764
O17	O	-1.139719	-0.082608	0.089429
O18	O	-0.889719	0.167392	0.339429
O19	O	-0.639719	0.417392	0.589429
O20	O	-0.389719	0.667392	0.839429
O21	O	-1.005534	-0.216792	0.089405
O22	O	-0.755534	0.033208	0.339405
O23	O	-0.505534	0.283208	0.589405
O24	O	-0.255534	0.533208	0.839405
O25	O	-1.282207	-0.225097	0.089432
O26	O	-1.032207	0.024903	0.339432
O27	O	-0.782207	0.274903	0.589432
O28	O	-0.532207	0.524903	0.839432
Cu29	Cu	-1.144791	-0.220020	0.105730
Cu30	Cu	-0.894791	0.029980	0.355730
Cu31	Cu	-0.644791	0.279980	0.605730
Cu32	Cu	-0.394791	0.529980	0.855730
Cu33	Cu	-1.132871	-0.231993	-0.105537
Cu34	Cu	-0.882871	0.018007	0.144463
Cu35	Cu	-0.632871	0.268007	0.394463
Cu36	Cu	-0.382871	0.518007	0.644463
O37	O	-1.148023	-0.359281	0.089408
O38	O	-0.898023	-0.109281	0.339408
O39	O	-0.648023	0.140719	0.589408
O40	O	-0.398023	0.390719	0.839408
C41	C	-0.964873	-0.218219	0.000080
C42	C	-0.714873	0.031781	0.250080
C43	C	-0.464873	0.281781	0.500080
C44	C	-0.214873	0.531781	0.750080
C45	C	-0.858729	-0.207375	0.000070
C46	C	-0.608729	0.042625	0.250070
C47	C	-0.358729	0.292625	0.500070
C48	C	-0.108729	0.542625	0.750070
C49	C	-1.131043	-0.052048	0.000107
C50	C	-0.881043	0.197952	0.250107
C51	C	-0.631043	0.447952	0.500107
C52	C	-0.381043	0.697952	0.750107
C53	C	-1.120199	0.054095	0.000107
C54	C	-0.870199	0.304095	0.250107
C55	C	-0.620199	0.554095	0.500107
C56	C	-0.370199	0.804095	0.750107
N57	N	-1.124487	-0.240407	-0.254132
N58	N	-0.874487	0.009593	-0.004132
N59	N	-0.624487	0.259593	0.245868
N60	N	-0.374487	0.509593	0.495868
C61	C	-1.312790	-0.233794	0.000111
C62	C	-1.062790	0.016206	0.250111
C63	C	-0.812790	0.266206	0.500111
C64	C	-0.562790	0.516206	0.750111
C65	C	-1.418932	-0.244638	0.000114
C66	C	-1.168932	0.005362	0.250114
C67	C	-0.918932	0.255362	0.500114
C68	C	-0.668932	0.505362	0.750114
C69	C	-0.664393	-0.187547	0.000092
C70	C	-0.414393	0.062453	0.250092
C71	C	-0.164393	0.312453	0.500092
C72	C	0.085607	0.562453	0.750092
C73	C	-0.613263	-0.264462	0.000091
C74	C	-0.363263	-0.014462	0.250091
C75	C	-0.113263	0.235538	0.500091
C76	C	0.136737	0.485538	0.750091
C77	C	-0.505127	-0.253429	0.000104
C78	C	-0.255127	-0.003429	0.250104
C79	C	-0.005127	0.246571	0.500104
C80	C	0.244873	0.496571	0.750104
C81	C	-0.772538	-0.198578	0.000080
C82	C	-0.522538	0.051422	0.250080
C83	C	-0.272538	0.301422	0.500080
C84	C	-0.022538	0.551422	0.750080
C85	C	-1.146619	-0.399965	0.000084
C86	C	-0.896619	-0.149965	0.250084
C87	C	-0.646619	0.100035	0.500084
C88	C	-0.396619	0.350035	0.750084
C89	C	-1.157463	-0.506108	0.000077
C90	C	-0.907463	-0.256108	0.250077
C91	C	-0.657463	-0.006108	0.500077
C92	C	-0.407463	0.243892	0.750077
C93	C	-1.100371	0.248431	0.000090
C94	C	-0.850371	0.498431	0.250090
C95	C	-0.600371	0.748431	0.500090
C96	C	-0.350371	0.998431	0.750090
C97	C	-1.177286	0.299561	0.000094
C98	C	-0.927286	0.549561	0.250094
C99	C	-0.677286	0.799561	0.500094
C100	C	-0.427286	1.049561	0.750094
C101	C	-1.166254	0.407697	0.000084
C102	C	-0.916254	0.657697	0.250084
C103	C	-0.666254	0.907697	0.500084
C104	C	-0.416254	1.157697	0.750084
C105	C	-1.111402	0.140286	0.000099
C106	C	-0.861402	0.390286	0.250099
C107	C	-0.611402	0.640286	0.500099
C108	C	-0.361402	0.890286	0.750099
C109	C	-1.165519	-0.199227	-0.526557
C110	C	-0.915519	0.050773	-0.276557
C111	C	-0.665519	0.300773	-0.026557
C112	C	-0.415519	0.550773	0.223443
C113	C	-1.112153	-0.252776	-0.473243
C114	C	-0.862153	-0.002776	-0.223243
C115	C	-0.612153	0.247224	0.026757
C116	C	-0.362153	0.497224	0.276757
C117	C	-1.119018	-0.245892	-0.351318
C118	C	-0.869018	0.004108	-0.101318
C119	C	-0.619018	0.254108	0.148682
C120	C	-0.369018	0.504108	0.398682
C121	C	-1.158656	-0.206110	-0.648493
C122	C	-0.908656	0.043890	-0.398493
C123	C	-0.658656	0.293890	-0.148493
C124	C	-0.408656	0.543890	0.101507
N125	N	-1.153182	-0.211599	0.254325
N126	N	-0.903182	0.038401	0.504325
N127	N	-0.653182	0.288401	0.754325
N128	N	-0.403182	0.538401	1.004325
H129	H	-0.650702	-0.338596	0.000081
H130	H	-0.400702	-0.088596	0.250081
H131	H	-0.150702	0.161404	0.500081
H132	H	0.099298	0.411404	0.750081
O133	O	-1.002180	0.298022	0.000092
O134	O	-0.752180	0.548022	0.250092
O135	O	-0.502180	0.798022	0.500092
O136	O	-0.252180	1.048022	0.750092
H137	H	-0.958738	0.272894	-0.072722
H138	H	-0.708738	0.522894	0.177278
H139	H	-0.458738	0.772894	0.427278
H140	H	-0.208738	1.022894	0.677278
O141	O	-1.044787	-0.320339	-0.534061
O142	O	-0.794787	-0.070339	-0.284061
O143	O	-0.544787	0.179661	-0.034061
O144	O	-0.294787	0.429661	0.215939
H145	H	-1.049883	-0.315203	-0.621670
H146	H	-0.799883	-0.065203	-0.371670
H147	H	-0.549883	0.184797	-0.121670
H148	H	-0.299883	0.434797	0.128330
H149	H	-1.251416	0.262118	0.000029
H150	H	-1.001416	0.512118	0.250029
H151	H	-0.751416	0.762118	0.500029
H152	H	-0.501416	1.012118	0.750029
O153	O	-0.614805	-0.089354	0.000103
O154	O	-0.364805	0.160646	0.250103
O155	O	-0.114805	0.410646	0.500103
O156	O	0.135195	0.660646	0.750103
H157	H	-0.668939	-0.034706	0.000107
H158	H	-0.418939	0.215294	0.250107
H159	H	-0.168939	0.465294	0.500107
H160	H	0.081061	0.715294	0.750107
H161	H	-1.216358	-0.148215	-0.480638
H162	H	-0.966358	0.101785	-0.230638
H163	H	-0.716358	0.351785	0.019362
H164	H	-0.466358	0.601785	0.269362
