data_functionalizedCrystal
_audit_creation_method	'MofGen! by Chris Wilmer'
_symmetry_space_group_name_H-M	'P1'
_symmetry_Int_Tables_number	1
_symmetry_cell_setting	triclinic
loop_
_symmetry_equiv_pos_as_xyz
  x,y,z
_cell_length_a	14.560438
_cell_length_b	21.606444
_cell_length_c	14.560438
_cell_angle_alpha	120.007638
_cell_angle_beta	89.998036
_cell_angle_gamma	60.004423
loop_
_atom_site_label
_atom_site_type_symbol
_atom_site_fract_x
_atom_site_fract_y
_atom_site_fract_z
Zr1	Zr	0.884758	0.677519	0.120678
O2	O	0.738112	0.806646	0.267359
O3	O	0.929712	0.548390	0.075690
O4	O	0.929712	0.677518	0.267324
O5	O	0.738112	0.677519	-0.075413
O6	O	1.080850	0.677520	0.267322
O7	O	0.738112	0.677518	0.075726
O8	O	1.080850	0.446533	-0.075476
O9	O	0.738113	0.908506	0.267384
O10	O	1.061678	0.601504	0.056529
O11	O	0.948885	0.601504	-0.056262
O12	O	0.948886	0.753536	0.169361
O13	O	0.836093	0.753536	0.056570
Zr14	Zr	1.125807	0.677524	-0.120374
Zr15	Zr	1.125806	0.677522	0.120674
Zr16	Zr	0.884759	0.677521	-0.120370
Zr17	Zr	0.884759	0.839974	0.120719
Zr18	Zr	1.125805	0.515069	-0.120414
O19	O	1.080853	0.806653	-0.075386
O20	O	1.080852	0.806650	0.267354
O21	O	0.738113	0.806649	-0.075381
O22	O	1.272452	0.548397	-0.267055
O23	O	1.272451	0.548394	0.075685
O24	O	0.929713	0.548393	-0.267049
O25	O	1.272452	0.677524	0.075717
O26	O	1.080852	0.677525	-0.267020
O27	O	0.929714	0.677523	-0.267017
O28	O	1.272453	0.677525	-0.075422
O29	O	0.929714	0.908508	0.267381
O30	O	1.080850	0.446534	-0.267077
O31	O	1.272451	0.446536	-0.267080
O32	O	1.272451	0.446535	-0.075479
O33	O	0.738114	0.908508	0.075783
O34	O	0.929715	0.908510	0.075780
O35	O	1.061678	0.601506	-0.169057
O36	O	1.174471	0.601507	-0.056266
O37	O	1.061679	0.753539	0.056566
O38	O	0.948887	0.753538	-0.056225
C39	C	1.005281	0.474315	0.000102
C40	C	1.005280	0.405348	0.000084
C41	C	0.922013	0.429081	0.083373
C42	C	0.922016	0.364292	0.083396
C43	C	1.005282	0.275770	0.000126
C44	C	1.088557	0.252037	-0.083167
C45	C	1.088558	0.316826	-0.083185
C46	C	1.088557	-0.009249	-0.083097
C47	C	1.088547	-0.074038	-0.083074
C48	C	0.922015	0.038217	0.083485
C49	C	0.922016	0.103005	0.083467
C50	C	1.005294	0.079267	0.000178
C51	C	1.005291	0.149520	0.000155
C52	C	1.005281	0.205518	0.000143
C53	C	0.703768	0.677518	0.000157
C54	C	0.601437	0.677517	0.000159
C55	C	0.612234	0.598159	-0.058739
C56	C	0.516079	0.598163	-0.058749
C57	C	0.398332	0.756890	0.059044
C58	C	0.494486	0.756885	0.059047
C59	C	0.719185	0.518791	-0.117627
C60	C	0.729987	0.439427	-0.176528
C61	C	0.633832	0.439431	-0.176538
C62	C	0.526875	0.518800	-0.117648
C63	C	1.306797	0.677525	0.000147
C64	C	1.409128	0.677526	0.000146
C65	C	1.005281	0.677519	0.301667
C66	C	1.005281	0.677518	0.403998
C67	C	1.005284	0.880728	0.000202
C68	C	1.005284	0.949695	0.000220
C69	C	0.922012	0.677524	0.548236
C70	C	0.922015	0.677518	0.452080
C71	C	1.088556	0.677515	0.452071
C72	C	1.088557	0.677515	0.548221
C73	C	0.838735	0.677533	0.596320
C74	C	0.755461	0.677534	0.548252
C75	C	0.755464	0.677528	0.452096
C76	C	0.838740	0.677521	0.404007
C77	C	1.005282	0.677524	0.698637
C78	C	1.005279	0.677523	0.596305
C79	C	1.306795	0.474318	0.000097
C80	C	1.409126	0.405353	0.000078
C81	C	1.005281	0.474317	-0.301413
C82	C	1.005281	0.405352	-0.403762
C83	C	1.306796	0.474321	-0.301418
C84	C	1.409127	0.405356	-0.403768
C85	C	0.703769	0.880722	0.301722
C86	C	0.601438	0.949686	0.404072
C87	C	0.703770	0.880725	0.000207
C88	C	0.601439	0.949690	0.000226
C89	C	1.005283	0.880725	0.301717
C90	C	1.005283	0.949691	0.404066
C91	C	1.398304	0.372965	0.058957
C92	C	1.494446	0.308174	0.058962
C93	C	1.601407	0.275767	0.000081
C94	C	1.612226	0.308162	-0.058800
C95	C	1.516086	0.372956	-0.058798
C96	C	1.064158	0.372966	-0.510714
C97	C	1.064153	0.308175	-0.606890
C98	C	1.005278	0.275766	-0.596113
C99	C	0.946394	0.308158	-0.489149
C100	C	0.946393	0.372952	-0.392975
C101	C	1.516069	0.372970	-0.392957
C102	C	1.612229	0.308180	-0.489117
C103	C	1.601444	0.275772	-0.596087
C104	C	1.494491	0.308165	-0.606896
C105	C	1.398333	0.372959	-0.510737
C106	C	0.494495	0.982080	0.393261
C107	C	0.398335	1.046891	0.489421
C108	C	0.409120	1.079302	0.596391
C109	C	0.516074	1.046905	0.607200
C110	C	0.612231	0.982100	0.511041
C111	C	0.612260	0.982085	-0.058643
C112	C	0.516119	1.046894	-0.058621
C113	C	0.409157	1.079303	0.000264
C114	C	0.398338	1.046905	0.059140
C115	C	0.494478	0.982102	0.059124
C116	C	1.064170	0.982079	0.393252
C117	C	1.064192	1.046871	0.489410
C118	C	1.005320	1.079278	0.596381
C119	C	0.946432	1.046883	0.607193
C120	C	0.946417	0.982088	0.511036
H121	H	0.854212	0.383624	0.151218
H122	H	0.699345	0.955702	-0.106601
Br123	Br	0.396379	0.518803	-0.117675
H124	H	0.642633	0.374809	-0.224507
H125	H	0.524950	1.073261	-0.106570
H126	H	1.485614	0.281806	0.106909
Br127	Br	0.849684	0.518781	-0.117607
Br128	Br	1.757397	0.264169	-0.138709
H129	H	1.699307	0.281812	-0.480296
Br130	Br	1.253154	0.416933	0.138881
H131	H	0.898500	1.073279	0.694301
Br132	Br	0.838750	0.677498	0.273497
Br133	Br	1.144076	0.416931	-0.525372
H134	H	0.311259	1.073257	0.480598
Br135	Br	1.201566	0.677507	0.386811
H136	H	1.311260	0.399319	-0.519555
H137	H	0.854210	0.057539	0.151306
H138	H	0.311237	1.073302	0.107082
Br139	Br	1.144075	0.264227	-0.752039
Br140	Br	1.731873	0.187830	0.000089
H141	H	0.311243	0.821507	0.106993
H142	H	0.817076	0.374809	-0.224483
Br143	Br	0.866485	0.416893	-0.247830
Br144	Br	0.866480	0.938147	0.525732
Br145	Br	0.479837	0.864586	0.138973
Br146	Br	1.005291	0.187829	-0.726648
Br147	Br	1.201568	0.131900	-0.196174
Br148	Br	1.530793	0.416899	-0.138720
Br149	Br	0.479828	0.938106	0.248100
Br150	Br	0.838722	0.677549	0.726823
Br151	Br	0.479772	0.938141	0.139020
H152	H	0.330813	1.132070	0.674680
H153	H	1.679751	0.223013	-0.674376
Br154	Br	1.005351	1.167217	0.726870
H155	H	0.854197	0.501158	0.151170
H156	H	0.854208	0.175083	0.151271
Br157	Br	0.642459	0.677528	0.613500
Br158	Br	1.479873	0.264175	-0.752078
H159	H	1.156367	-0.028588	-0.150915
Br160	Br	1.144077	0.938114	0.248090
Br161	Br	0.530691	1.090898	0.752382
Br162	Br	0.866497	0.264164	-0.474542
H163	H	0.687665	0.677520	0.412954
Br164	Br	1.201558	-0.194180	-0.196094
Br165	Br	1.201570	0.677507	0.613454
Br166	Br	1.530737	0.416942	-0.247796
Br167	Br	0.757364	0.938140	0.525734
H168	H	0.330883	1.132070	0.000267
H169	H	1.112144	1.073240	0.480585
H170	H	1.156362	0.297496	-0.151007
