data_functionalizedCrystal
_audit_creation_method	'MofGen! by Chris Wilmer'
_symmetry_space_group_name_H-M	'P1'
_symmetry_Int_Tables_number	1
_symmetry_cell_setting	triclinic
loop_
_symmetry_equiv_pos_as_xyz
  x,y,z
_cell_length_a	25.639242
_cell_length_b	18.050589
_cell_length_c	18.050582
_cell_angle_alpha	90.018712
_cell_angle_beta	89.975426
_cell_angle_gamma	89.969774
loop_
_atom_site_label
_atom_site_type_symbol
_atom_site_fract_x
_atom_site_fract_y
_atom_site_fract_z
Zn1	Zn	0.799252	0.295790	-0.420110
Zn2	Zn	0.799178	0.419975	-0.295929
Zn3	Zn	0.711825	0.295793	-0.295915
Zn4	Zn	0.711779	0.419933	-0.420059
O5	O	0.755509	0.357873	-0.358003
O6	O	0.872407	0.312279	-0.403664
O7	O	0.787578	0.403521	-0.192003
O8	O	0.723472	0.191868	-0.312404
O9	O	0.872353	0.403518	-0.312430
O10	O	0.787704	0.191866	-0.403650
O11	O	0.723400	0.312285	-0.191992
O12	O	0.638653	0.312245	-0.312355
O13	O	0.723395	0.403446	-0.523990
O14	O	0.638620	0.403450	-0.403564
O15	O	0.787661	0.312239	-0.524028
O16	O	0.787534	0.523894	-0.312380
O17	O	0.723323	0.523863	-0.403578
C18	C	0.619666	0.357844	-0.357953
C19	C	0.561552	0.357849	-0.357949
C20	C	0.201180	0.405443	-0.405450
C21	C	0.146576	0.405447	-0.405462
O22	O	0.118332	0.445877	-0.445807
N23	N	0.119269	0.357893	-0.358052
C24	C	0.146570	0.310327	-0.310632
O25	O	0.118329	0.269878	-0.270307
C26	C	0.201173	0.310319	-0.310624
C27	C	0.228477	0.357881	-0.358033
C28	C	0.228484	0.453000	-0.452855
C29	C	0.283085	0.452997	-0.452842
C30	C	0.310382	0.405435	-0.405425
C31	C	0.283078	0.357877	-0.358020
C32	C	0.228473	0.262749	-0.263209
C33	C	0.283080	0.262745	-0.263206
C34	C	0.310384	0.310307	-0.310614
C35	C	0.364975	0.310312	-0.310589
N36	N	0.392281	0.357866	-0.357999
C37	C	0.364985	0.405427	-0.405417
C38	C	0.031899	0.310345	-0.310652
C39	C	-0.022703	0.310356	-0.310655
C40	C	-0.022693	0.405476	-0.405486
C41	C	0.031910	0.405468	-0.405479
C42	C	0.059206	0.357899	-0.358062
C43	C	0.479650	0.405416	-0.405386
C44	C	0.534255	0.405410	-0.405367
C45	C	0.534240	0.310288	-0.310538
C46	C	0.479640	0.310297	-0.310555
C47	C	0.452346	0.357863	-0.357984
O48	O	0.393253	0.269901	-0.270267
O49	O	0.393232	0.445862	-0.445742
C50	C	0.755430	0.550825	-0.357992
C51	C	0.755444	0.633371	-0.358011
C52	C	0.720545	0.832832	-0.407588
C53	C	0.707799	0.882265	-0.339818
C54	C	0.755484	0.784501	-0.358022
C55	C	0.768244	0.882149	-0.425800
C56	C	0.755521	0.930486	-0.358037
C57	C	0.742713	0.832847	-0.290216
C58	C	0.803180	0.832727	-0.376243
C59	C	0.790452	0.882138	-0.308427
C60	C	0.755461	0.700403	-0.358013
C61	C	0.755543	1.014583	-0.358038
C62	C	0.891881	0.357903	-0.358054
C63	C	0.949996	0.357916	-0.358076
C64	C	0.755531	0.357838	-0.551709
C65	C	0.755541	0.357822	-0.634255
C66	C	0.755582	1.164167	-0.358032
C67	C	0.755562	1.081621	-0.358047
C68	C	0.720626	0.407340	-0.883060
C69	C	0.707860	0.339601	-0.833664
C70	C	0.755585	0.357713	-0.931375
C71	C	0.768304	0.425502	-0.833689
C72	C	0.755562	0.357771	-0.785390
C73	C	0.742795	0.289938	-0.883067
C74	C	0.803261	0.375885	-0.883096
C75	C	0.790513	0.308099	-0.833722
C76	C	0.755597	0.357681	-1.015474
C77	C	0.755550	0.357795	-0.701293
C78	C	0.755516	0.357854	-0.165051
C79	C	0.755608	0.357660	-0.082506
H80	H	0.206265	0.491731	-0.491473
N81	N	-0.052150	0.259064	-0.259516
H82	H	-0.074827	0.289199	-0.225052
H83	H	-0.026534	0.228948	-0.229527
N84	N	0.563704	0.456715	-0.456498
H85	H	0.538123	0.486843	-0.486539
H86	H	0.586385	0.426533	-0.490914
H87	H	0.305301	0.224003	-0.224597
H88	H	0.305311	0.491725	-0.491449
H89	H	0.457434	0.444148	-0.444010
N90	N	0.654391	0.911088	-0.319412
H91	H	0.654886	0.967036	-0.319097
H92	H	0.644523	0.892329	-0.268599
H93	H	0.731888	0.811280	-0.232887
N94	N	0.450187	0.259008	-0.259414
H95	H	0.475767	0.228881	-0.229371
H96	H	0.427558	0.224680	-0.289708
N97	N	0.563687	0.258993	-0.259395
H98	H	0.602420	0.266209	-0.266588
H99	H	0.554166	0.205971	-0.271050
N100	N	0.654444	0.319272	-0.804892
H101	H	0.656960	0.272698	-0.774101
H102	H	0.630137	0.310531	-0.848028
H103	H	0.820014	0.903652	-0.266468
H104	H	0.054138	0.444197	-0.444084
H105	H	0.779072	0.482807	-0.812001
N106	N	0.856573	0.803882	-0.396676
H107	H	0.866167	0.821783	-0.447905
H108	H	0.856206	0.747938	-0.395995
H109	H	0.779021	0.903806	-0.483113
N110	N	-0.052140	0.456777	-0.456632
H111	H	-0.090873	0.449559	-0.449441
H112	H	-0.042573	0.445289	-0.509690
H113	H	0.206251	0.224021	-0.224602
N114	N	0.061331	0.259041	-0.259493
H115	H	0.083963	0.289169	-0.225020
H116	H	0.083978	0.224666	-0.289774
N117	N	0.728469	0.214009	-0.911667
H118	H	0.728550	0.214461	-0.967619
H119	H	0.692573	0.200240	-0.893194
H120	H	0.691049	0.449231	-0.904724
N121	N	0.829666	0.252485	-0.805208
H122	H	0.819984	0.201346	-0.823269
H123	H	0.829646	0.253174	-0.749261
H124	H	0.843578	0.391255	-0.904825
H125	H	0.690959	0.811181	-0.449445
