data_functionalizedCrystal
_audit_creation_method	'MofGen! by Chris Wilmer'
_symmetry_space_group_name_H-M	'P1'
_symmetry_Int_Tables_number	1
_symmetry_cell_setting	triclinic
loop_
_symmetry_equiv_pos_as_xyz
  x,y,z
_cell_length_a	8.634740
_cell_length_b	14.044190
_cell_length_c	7.088929
_cell_angle_alpha	83.202929
_cell_angle_beta	97.174675
_cell_angle_gamma	96.881042
loop_
_atom_site_label
_atom_site_type_symbol
_atom_site_fract_x
_atom_site_fract_y
_atom_site_fract_z
O1	O	2.074444	0.321385	-0.159057
O2	O	1.621882	0.295140	-0.159054
O3	O	1.841368	0.169655	-0.159018
O4	O	1.854958	0.446870	-0.159093
O5	O	1.870694	0.152840	0.158962
O6	O	1.651208	0.278326	0.158926
O7	O	2.103770	0.304571	0.158923
Cu8	Cu	1.880167	0.289913	0.187959
Cu9	Cu	1.845485	0.309798	-0.188090
O10	O	1.884284	0.430056	0.158887
C11	C	1.578277	0.280788	-0.000063
C12	C	1.404655	0.263061	-0.000060
C13	C	1.850083	0.125390	-0.000022
C14	C	1.832341	0.018542	-0.000005
C15	C	1.925736	-0.223210	-0.000081
C16	C	1.799922	-0.177072	-0.000067
C17	C	1.817964	-0.068222	-0.000033
C18	C	1.907696	-0.332070	-0.000115
C19	C	2.147375	0.318923	-0.000072
C20	C	2.320996	0.336651	-0.000088
C21	C	1.875569	0.474321	-0.000113
C22	C	1.893309	0.581169	-0.000142
N23	N	1.904571	0.275927	0.452451
N24	N	1.821092	0.323777	-0.452582
H25	H	1.382201	0.413215	-0.000091
C26	C	1.636108	-0.234142	-0.000067
H27	H	1.645311	-0.300876	-0.000071
H28	H	1.570744	-0.212508	-0.110941
H29	H	1.591221	-0.224263	0.110847
H30	H	1.343439	0.186494	-0.000094
H31	H	2.046989	-0.180963	-0.000062
H32	H	1.734576	0.373362	0.465758
H33	H	1.991106	0.226347	0.534121
