data_functionalizedCrystal
_audit_creation_method	'MofGen! by Chris Wilmer'
_symmetry_space_group_name_H-M	'P1'
_symmetry_Int_Tables_number	1
_symmetry_cell_setting	triclinic
loop_
_symmetry_equiv_pos_as_xyz
  x,y,z
_cell_length_a	27.731988
_cell_length_b	16.992695
_cell_length_c	15.455313
_cell_angle_alpha	87.152573
_cell_angle_beta	92.652844
_cell_angle_gamma	86.643296
loop_
_atom_site_label
_atom_site_type_symbol
_atom_site_fract_x
_atom_site_fract_y
_atom_site_fract_z
O1	O	-0.646951	-0.089581	-0.072018
O2	O	-0.506769	-0.103808	-0.072045
O3	O	-0.576298	0.017441	-0.072025
O4	O	-0.577422	-0.210830	-0.072038
O5	O	-0.572320	0.010536	0.072236
O6	O	-0.502792	-0.110713	0.072216
O7	O	-0.642973	-0.096486	0.072243
Cu8	Cu	-0.572519	-0.104230	0.085402
Cu9	Cu	-0.577223	-0.096064	-0.085204
O10	O	-0.573445	-0.217735	0.072223
C11	C	-0.486760	-0.106969	0.000082
C12	C	-0.433066	-0.106091	0.000072
C13	C	-0.097939	-0.104329	0.078749
C14	C	0.103864	-0.100993	0.078762
O15	O	0.131801	-0.103729	0.145640
N16	N	0.126929	-0.096815	0.000126
C17	C	0.099540	-0.093465	-0.078519
O18	O	0.123788	-0.089826	-0.145404
C19	C	-0.102263	-0.096795	-0.078532
C20	C	-0.125324	-0.100982	0.000110
C21	C	-0.121001	-0.108514	0.157383
C22	C	-0.171449	-0.109352	0.157379
C23	C	-0.198834	-0.106005	0.078740
C24	C	-0.175772	-0.101820	0.000105
C25	C	-0.129651	-0.093440	-0.157176
C26	C	-0.180105	-0.094271	-0.157172
C27	C	-0.203167	-0.098457	-0.078531
C28	C	-0.253605	-0.099311	-0.078538
N29	N	-0.276670	-0.103489	0.000098
C30	C	-0.249285	-0.106836	0.078737
C31	C	0.205489	-0.091719	-0.078507
C32	C	0.255940	-0.090887	-0.078504
C33	C	0.260261	-0.098414	0.078777
C34	C	0.209810	-0.099251	0.078774
C35	C	0.182425	-0.095897	0.000129
C36	C	-0.355228	-0.108597	0.078723
C37	C	-0.405681	-0.109438	0.078712
C38	C	-0.409997	-0.101907	-0.078569
C39	C	-0.359549	-0.101070	-0.078559
C40	C	-0.332166	-0.104413	0.000094
O41	O	-0.281572	-0.096568	-0.145380
O42	O	-0.273543	-0.110457	0.145612
C43	C	-0.047491	-0.103491	0.078753
C44	C	-0.024429	-0.099305	0.000118
C45	C	-0.051815	-0.095958	-0.078521
C46	C	0.026021	-0.098474	0.000121
C47	C	0.053407	-0.101821	0.078760
C48	C	0.030342	-0.106000	0.157396
C49	C	-0.020106	-0.106838	0.157392
C50	C	-0.028750	-0.091780	-0.157157
C51	C	0.021698	-0.090943	-0.157147
C52	C	0.049084	-0.094290	-0.078508
C53	C	-0.572863	0.043183	0.000105
C54	C	-0.568549	0.130173	0.000104
C55	C	0.337018	-0.093333	0.000118
C56	C	0.283325	-0.094235	0.000135
C57	C	-0.576879	-0.243477	0.000091
C58	C	-0.581193	-0.330467	0.000086
N59	N	-0.569215	-0.109973	0.205396
C60	C	-0.610173	0.180932	0.000113
C61	C	-0.606117	0.262669	0.000104
C62	C	-0.560436	0.293644	0.000093
C63	C	-0.518810	0.242879	0.000081
C64	C	-0.522867	0.161145	0.000084
C65	C	-0.543623	0.537033	0.000077
C66	C	-0.539570	0.618774	0.000077
C67	C	-0.626877	0.638558	0.000099
C68	C	-0.630930	0.556821	0.000107
C69	C	-0.589303	0.506063	0.000091
N70	N	-0.556289	0.377192	0.000086
N71	N	-0.593451	0.422518	0.000091
N72	N	-0.580531	-0.090314	-0.205198
C73	C	-0.598765	-0.058481	0.250799
C74	C	-0.596270	-0.062832	0.341606
C75	C	-0.564228	-0.118678	0.387009
C76	C	-0.534675	-0.170173	0.341600
C77	C	-0.537167	-0.165818	0.250794
C78	C	-0.553470	-0.137454	0.658587
C79	C	-0.550981	-0.141807	0.749399
C80	C	-0.612576	-0.034464	0.749399
C81	C	-0.615067	-0.030117	0.658592
C82	C	-0.585513	-0.081609	0.613191
N83	N	-0.561679	-0.123128	0.479828
N84	N	-0.588060	-0.077155	0.520373
H85	H	-0.332939	-0.111326	0.142770
N86	N	-0.633316	0.001761	0.201822
H87	H	-0.656899	-0.026128	0.164132
H88	H	-0.651623	0.033712	0.244414
N89	N	0.059888	-0.109604	0.242211
H90	H	0.050477	-0.062222	0.276068
H91	H	0.053585	-0.159501	0.277045
N92	N	-0.500116	-0.230413	0.390561
H93	H	-0.465911	-0.221023	0.374769
H94	H	-0.503062	-0.225334	0.454961
H95	H	-0.424455	-0.112850	0.142754
N96	N	-0.671774	0.693300	0.000102
H97	H	-0.690090	0.680844	0.053584
H98	H	-0.662238	0.749758	0.000064
N99	N	0.175962	-0.088110	-0.163342
H100	H	0.156977	-0.136888	-0.166857
H101	H	0.152918	-0.039655	-0.166809
N102	N	-0.505293	-0.221351	0.201820
H103	H	-0.484617	-0.257391	0.244360
H104	H	-0.526159	-0.253980	0.164130
N105	N	-0.628148	-0.007300	0.390574
H106	H	-0.621707	-0.018529	0.454988
H107	H	-0.620860	0.048996	0.374711
H108	H	-0.481616	0.268106	0.000066
N109	N	-0.649628	0.030116	0.609623
H110	H	-0.667969	0.062078	0.652165
H111	H	-0.630828	0.066357	0.571957
H112	H	-0.509728	0.495716	0.000065
N113	N	-0.644451	0.021071	0.798366
H114	H	-0.638012	0.009841	0.862780
H115	H	-0.637159	0.077366	0.782504
N116	N	-0.477973	0.106394	0.000069
H117	H	-0.448419	0.138418	0.000063
H118	H	-0.476279	0.069492	0.053548
H119	H	-0.340771	-0.097674	-0.142595
H120	H	-0.524887	-0.187287	0.786362
H121	H	-0.640011	0.303994	0.000113
N122	N	0.289804	-0.102026	0.163596
H123	H	0.325302	-0.101942	0.151660
H124	H	0.280350	-0.054645	0.197419
N125	N	-0.521592	-0.192985	0.609626
H126	H	-0.500917	-0.229023	0.652170
H127	H	-0.542455	-0.225616	0.571934
H128	H	-0.190221	-0.112757	0.221417
H129	H	-0.098709	-0.111238	0.221424
H130	H	0.191036	-0.102661	0.142810
N131	N	-0.044976	-0.111356	0.242212
H132	H	-0.019966	-0.113349	0.292023
H133	H	-0.067858	-0.063265	0.245648
H134	H	-0.051042	-0.089052	-0.221196
N135	N	0.280812	-0.086384	-0.163324
H136	H	0.255803	-0.084388	-0.213137
H137	H	0.299605	-0.037272	-0.166746
H138	H	-0.110883	-0.090030	-0.221214
N139	N	-0.209642	-0.090648	-0.241998
H140	H	-0.187374	-0.087869	-0.291810
H141	H	-0.228624	-0.139432	-0.245436
H142	H	-0.432304	-0.099185	-0.142595
N143	N	0.046570	-0.086421	-0.241971
H144	H	0.069452	-0.134502	-0.245493
H145	H	0.021532	-0.084397	-0.291736
H146	H	-0.647370	0.155718	0.000128
H147	H	-0.502369	0.643990	0.000082
N148	N	-0.680199	0.523412	0.000124
H149	H	-0.705953	0.567971	0.000129
H150	H	-0.685259	0.492485	-0.053352
