data_functionalizedCrystal
_audit_creation_method	'MofGen! by Chris Wilmer'
_symmetry_space_group_name_H-M	'P1'
_symmetry_Int_Tables_number	1
_symmetry_cell_setting	triclinic
loop_
_symmetry_equiv_pos_as_xyz
  x,y,z
_cell_length_a	14.044220
_cell_length_b	14.044220
_cell_length_c	13.101039
_cell_angle_alpha	86.332523
_cell_angle_beta	86.340132
_cell_angle_gamma	86.811122
loop_
_atom_site_label
_atom_site_type_symbol
_atom_site_fract_x
_atom_site_fract_y
_atom_site_fract_z
O1	O	1.281968	-0.225348	-0.085109
O2	O	1.531968	0.024652	0.164891
O3	O	1.781968	0.274652	0.414891
O4	O	2.031968	0.524652	0.664891
O5	O	1.005298	-0.217041	-0.085135
O6	O	1.255298	0.032959	0.164865
O7	O	1.505298	0.282959	0.414865
O8	O	1.755298	0.532959	0.664865
O9	O	1.139480	-0.082860	-0.085112
O10	O	1.389480	0.167140	0.164888
O11	O	1.639480	0.417140	0.414888
O12	O	1.889480	0.667140	0.664888
O13	O	1.147787	-0.359530	-0.085132
O14	O	1.397787	-0.109530	0.164868
O15	O	1.647787	0.140470	0.414868
O16	O	1.897787	0.390470	0.664868
O17	O	1.129854	-0.092504	0.085316
O18	O	1.379854	0.157496	0.335316
O19	O	1.629854	0.407496	0.585316
O20	O	1.879854	0.657496	0.835316
O21	O	0.995673	-0.226686	0.085293
O22	O	1.245673	0.023314	0.335293
O23	O	1.495673	0.273314	0.585293
O24	O	1.745673	0.523314	0.835293
O25	O	1.272343	-0.234993	0.085319
O26	O	1.522343	0.015007	0.335319
O27	O	1.772343	0.265007	0.585319
O28	O	2.022343	0.515007	0.835319
Zn29	Zn	1.132479	-0.232371	0.112365
Zn30	Zn	1.382479	0.017629	0.362365
Zn31	Zn	1.632479	0.267629	0.612365
Zn32	Zn	1.882479	0.517629	0.862365
Zn33	Zn	1.145162	-0.219663	-0.112181
Zn34	Zn	1.395162	0.030337	0.137819
Zn35	Zn	1.645162	0.280337	0.387819
Zn36	Zn	1.895162	0.530337	0.637819
O37	O	1.138161	-0.369175	0.085296
O38	O	1.388161	-0.119175	0.335296
O39	O	1.638161	0.130825	0.585296
O40	O	1.888161	0.380825	0.835296
C41	C	0.964864	-0.218228	0.000076
C42	C	1.214864	0.031772	0.250076
C43	C	1.464864	0.281772	0.500076
C44	C	1.714864	0.531772	0.750076
C45	C	0.858722	-0.207383	0.000066
C46	C	1.108722	0.042617	0.250066
C47	C	1.358722	0.292617	0.500066
C48	C	1.608722	0.542617	0.750066
C49	C	0.664383	-0.187558	0.000088
C50	C	0.914383	0.062442	0.250088
C51	C	1.164383	0.312442	0.500088
C52	C	1.414383	0.562442	0.750088
C53	C	0.613253	-0.264472	0.000087
C54	C	0.863253	-0.014472	0.250087
C55	C	1.113253	0.235528	0.500087
C56	C	1.363253	0.485528	0.750087
C57	C	0.505116	-0.253441	0.000099
C58	C	0.755116	-0.003441	0.250099
C59	C	1.005116	0.246559	0.500099
C60	C	1.255116	0.496559	0.750099
C61	C	0.772529	-0.198587	0.000076
C62	C	1.022529	0.051413	0.250076
C63	C	1.272529	0.301413	0.500076
C64	C	1.522529	0.551413	0.750076
C65	C	1.131031	-0.052060	0.000102
C66	C	1.381031	0.197940	0.250102
C67	C	1.631031	0.447940	0.500102
C68	C	1.881031	0.697940	0.750102
C69	C	1.120187	0.054083	0.000102
C70	C	1.370187	0.304083	0.250102
C71	C	1.620187	0.554083	0.500102
C72	C	1.870187	0.804083	0.750102
C73	C	1.312777	-0.233806	0.000106
C74	C	1.562777	0.016194	0.250106
C75	C	1.812777	0.266194	0.500106
C76	C	2.062777	0.516194	0.750106
C77	C	1.418920	-0.244651	0.000109
C78	C	1.668920	0.005349	0.250109
C79	C	1.918920	0.255349	0.500109
C80	C	2.168920	0.505349	0.750109
C81	C	1.146610	-0.399974	0.000080
C82	C	1.396610	-0.149974	0.250080
C83	C	1.646610	0.100026	0.500080
C84	C	1.896610	0.350026	0.750080
C85	C	1.157455	-0.506116	0.000073
C86	C	1.407455	-0.256116	0.250073
C87	C	1.657455	-0.006116	0.500073
C88	C	1.907455	0.243884	0.750073
N89	N	1.123831	-0.241043	0.265612
N90	N	1.373831	0.008957	0.515612
N91	N	1.623831	0.258957	0.765612
N92	N	1.873831	0.508957	1.015612
C93	C	1.100362	0.248421	0.000086
C94	C	1.350362	0.498421	0.250086
C95	C	1.600362	0.748421	0.500086
C96	C	1.850362	0.998421	0.750086
C97	C	1.177276	0.299551	0.000090
C98	C	1.427276	0.549551	0.250090
C99	C	1.677276	0.799551	0.500090
C100	C	1.927276	1.049551	0.750090
C101	C	1.166245	0.407688	0.000080
C102	C	1.416245	0.657688	0.250080
C103	C	1.666245	0.907688	0.500080
C104	C	1.916245	1.157688	0.750080
C105	C	1.111391	0.140275	0.000095
C106	C	1.361391	0.390275	0.250095
C107	C	1.611391	0.640275	0.500095
C108	C	1.861391	0.890275	0.750095
N109	N	1.153817	-0.210984	-0.265428
N110	N	1.403817	0.039016	-0.015428
N111	N	1.653817	0.289016	0.234572
N112	N	1.903817	0.539016	0.484572
C113	C	1.112065	-0.252851	0.474653
C114	C	1.362065	-0.002851	0.724653
C115	C	1.612065	0.247149	0.974653
C116	C	1.862065	0.497149	1.224653
C117	C	1.165580	-0.199179	0.525538
C118	C	1.415580	0.050821	0.775538
C119	C	1.665580	0.300821	1.025538
C120	C	1.915580	0.550821	1.275538
C121	C	1.159034	-0.205749	0.641855
C122	C	1.409034	0.044251	0.891855
C123	C	1.659034	0.294251	1.141855
C124	C	1.909034	0.544251	1.391855
C125	C	1.118610	-0.246282	0.358325
C126	C	1.368610	0.003718	0.608325
C127	C	1.618610	0.253718	0.858325
C128	C	1.868610	0.503718	1.108325
H129	H	0.626945	-0.113431	0.000099
H130	H	0.876945	0.136569	0.250099
H131	H	1.126945	0.386569	0.500099
H132	H	1.376945	0.636569	0.750099
C133	C	0.595537	-0.433535	0.000064
C134	C	0.845537	-0.183535	0.250064
C135	C	1.095537	0.066465	0.500064
C136	C	1.345537	0.316465	0.750064
C137	C	0.663787	-0.364552	0.000066
C138	C	0.913787	-0.114552	0.250066
C139	C	1.163787	0.135448	0.500066
C140	C	1.413787	0.385448	0.750066
H141	H	0.626740	-0.495316	0.000055
H142	H	0.876740	-0.245316	0.250055
H143	H	1.126740	0.004684	0.500055
H144	H	1.376740	0.254684	0.750055
H145	H	0.560145	-0.422674	-0.059358
H146	H	0.810145	-0.172674	0.190642
H147	H	1.060145	0.077326	0.440642
H148	H	1.310145	0.327326	0.690642
H149	H	0.553451	-0.429406	0.059507
H150	H	0.803451	-0.179406	0.309507
H151	H	1.053451	0.070594	0.559507
H152	H	1.303451	0.320594	0.809507
H153	H	0.705869	-0.368675	-0.059381
H154	H	0.955869	-0.118675	0.190619
H155	H	1.205869	0.131325	0.440619
H156	H	1.455869	0.381325	0.690619
H157	H	0.699195	-0.375417	0.059494
H158	H	0.949195	-0.125417	0.309494
H159	H	1.199195	0.124583	0.559494
H160	H	1.449195	0.374583	0.809494
H161	H	1.251413	0.262115	0.000028
H162	H	1.501413	0.512115	0.250028
H163	H	1.751413	0.762115	0.500028
H164	H	2.001413	1.012115	0.750028
H165	H	1.026235	0.285859	0.000076
H166	H	1.276235	0.535859	0.250076
H167	H	1.526235	0.785859	0.500076
H168	H	1.776235	1.035859	0.750076
H169	H	1.216314	-0.148295	0.481744
H170	H	1.466314	0.101705	0.731744
H171	H	1.716314	0.351705	0.981744
H172	H	1.966314	0.601705	1.231744
H173	H	1.061336	-0.303733	0.518442
H174	H	1.311336	-0.053733	0.768442
H175	H	1.561336	0.196267	1.018442
H176	H	1.811336	0.446267	1.268442
