data_functionalizedCrystal
_audit_creation_method	'MofGen! by Chris Wilmer'
_symmetry_space_group_name_H-M	'P1'
_symmetry_Int_Tables_number	1
_symmetry_cell_setting	triclinic
loop_
_symmetry_equiv_pos_as_xyz
  x,y,z
_cell_length_a	14.908571
_cell_length_b	14.909351
_cell_length_c	19.076919
_cell_angle_alpha	95.699232
_cell_angle_beta	89.119671
_cell_angle_gamma	83.622639
loop_
_atom_site_label
_atom_site_type_symbol
_atom_site_fract_x
_atom_site_fract_y
_atom_site_fract_z
Zn1	Zn	1.381182	-0.463728	-0.480925
Zn2	Zn	1.881182	0.036272	0.019075
Zn3	Zn	1.395200	-0.609701	-0.370443
Zn4	Zn	1.895200	-0.109701	0.129557
Zn5	Zn	1.235902	-0.448928	-0.356048
Zn6	Zn	1.735902	0.051072	0.143952
Zn7	Zn	1.238514	-0.606286	-0.480903
Zn8	Zn	1.738514	-0.106286	0.019097
O9	O	1.312699	-0.532161	-0.422080
O10	O	1.812699	-0.032161	0.077920
O11	O	1.509416	-0.490715	-0.472302
O12	O	2.009416	0.009285	0.027698
O13	O	1.378842	-0.583610	-0.270044
O14	O	1.878842	-0.083610	0.229956
O15	O	1.248213	-0.323946	-0.366598
O16	O	1.748213	0.176054	0.133402
O17	O	1.519715	-0.597961	-0.391132
O18	O	2.019715	-0.097961	0.108868
O19	O	1.354950	-0.334820	-0.458344
O20	O	1.854950	0.165180	0.041656
O21	O	1.261806	-0.465490	-0.259468
O22	O	1.761806	0.034510	0.240532
O23	O	1.109874	-0.462178	-0.366577
O24	O	1.609874	0.037822	0.133423
O25	O	1.252666	-0.592140	-0.579396
O26	O	1.752666	-0.092140	-0.079396
O27	O	1.111794	-0.577788	-0.458308
O28	O	1.611794	-0.077788	0.041692
O29	O	1.357484	-0.487404	-0.579411
O30	O	1.857484	0.012596	-0.079411
O31	O	1.381376	-0.736193	-0.391111
O32	O	1.881376	-0.236193	0.108889
O33	O	1.266259	-0.733684	-0.472266
O34	O	1.766259	-0.233684	0.027734
C35	C	1.078066	-0.518007	-0.410879
C36	C	1.578066	-0.018007	0.089121
C37	C	0.977690	-0.511975	-0.406104
C38	C	1.477690	-0.011975	0.093896
C39	C	0.791134	-0.621199	-0.492540
C40	C	1.291134	-0.121199	0.007460
C41	C	0.696822	-0.615534	-0.488057
C42	C	1.196822	-0.115534	0.011943
C43	C	0.694749	-0.494976	-0.392659
C44	C	1.194749	0.005024	0.107341
C45	C	0.789062	-0.500641	-0.397142
C46	C	1.289062	-0.000641	0.102858
C47	C	0.837251	-0.563755	-0.447084
C48	C	1.337251	-0.063755	0.052916
C49	C	0.931566	-0.569424	-0.451563
C50	C	1.431566	-0.069424	0.048437
C51	C	0.929492	-0.448863	-0.356169
C52	C	1.429492	0.051137	0.143831
C53	C	0.835179	-0.443198	-0.351685
C54	C	1.335179	0.056802	0.148315
C55	C	1.325646	-0.767856	-0.433265
C56	C	1.825646	-0.267856	0.066735
C57	C	1.331266	-0.868694	-0.438077
C58	C	1.831266	-0.368694	0.061923
C59	C	1.394697	-1.016406	-0.492652
C60	C	1.894697	-0.516406	0.007348
C61	C	1.389423	-0.921661	-0.488134
C62	C	1.889423	-0.421661	0.011866
C63	C	1.278381	-0.910479	-0.392534
C64	C	1.778381	-0.410479	0.107466
C65	C	1.283655	-1.005224	-0.397051
C66	C	1.783655	-0.505224	0.102949
C67	C	1.341814	-1.058185	-0.447113
C68	C	1.841814	-0.558185	0.052887
C69	C	1.347083	-1.152932	-0.451633
C70	C	1.847083	-0.652932	0.048367
C71	C	1.236047	-1.141748	-0.356030
C72	C	1.736047	-0.641748	0.143970
C73	C	1.230772	-1.047002	-0.351513
C74	C	1.730772	-0.547002	0.148487
C75	C	1.548249	-0.546370	-0.433325
C76	C	2.048249	-0.046370	0.066675
C77	C	1.648626	-0.552426	-0.438117
C78	C	2.148626	-0.052426	0.061883
C79	C	1.303803	-0.541042	-0.605655
C80	C	1.803803	-0.041042	-0.105655
C81	C	1.300011	-0.544826	-0.683883
C82	C	1.800011	-0.044826	-0.183883
C83	C	1.299727	-0.295547	-0.410868
C84	C	1.799727	0.204453	0.089132
C85	C	1.294198	-0.194716	-0.406090
C86	C	1.794198	0.305284	0.093910
C87	C	1.352800	-0.492076	-0.720645
C88	C	1.852800	0.007924	-0.220645
C89	C	1.349226	-0.495628	-0.794148
C90	C	1.849226	0.004372	-0.294148
C91	C	1.292868	-0.551935	-0.830889
C92	C	1.792868	-0.051935	-0.330889
C93	C	1.240073	-0.604688	-0.794123
C94	C	1.740073	-0.104688	-0.294123
C95	C	1.243643	-0.601130	-0.720620
C96	C	1.743643	-0.101130	-0.220620
C97	C	1.276337	-0.568417	-1.050717
C98	C	1.776337	-0.068417	-0.550717
C99	C	1.272773	-0.571973	-1.124225
C100	C	1.772773	-0.071973	-0.624225
C101	C	1.381926	-0.462911	-1.124245
C102	C	1.881926	0.037089	-0.624245
C103	C	1.385494	-0.459363	-1.050742
C104	C	1.885494	0.040637	-0.550742
C105	C	1.332696	-0.512112	-1.013981
C106	C	1.832696	-0.012112	-0.513981
N107	N	1.289216	-0.555570	-0.906022
N108	N	1.789216	-0.055570	-0.406022
N109	N	1.336344	-0.508472	-0.938849
N110	N	1.836344	-0.008472	-0.438849
C111	C	1.321610	-0.523252	-0.239218
C112	C	1.821610	-0.023252	0.260782
C113	C	1.325562	-0.519222	-0.160986
C114	C	1.825562	-0.019222	0.339014
H115	H	0.655497	-0.443586	-0.352003
H116	H	1.155497	0.056414	0.147997
N117	N	1.446457	-0.876607	-0.537258
N118	N	1.946457	-0.376607	-0.037258
H119	H	1.405954	-0.836677	-0.566223
H120	H	1.905954	-0.336677	-0.066223
H121	H	1.487529	-0.838465	-0.508762
H122	H	1.987529	-0.338465	-0.008762
N123	N	1.179290	-0.665413	-0.833760
N124	N	1.679290	-0.165413	-0.333760
H125	H	1.197484	-0.730458	-0.824712
H126	H	1.697484	-0.230458	-0.324712
H127	H	1.114633	-0.646734	-0.817204
H128	H	1.614633	-0.146734	-0.317204
N129	N	1.179006	-1.186802	-0.306903
N130	N	1.679006	-0.686802	0.193097
H131	H	1.113028	-1.166994	-0.313929
H132	H	1.613028	-0.666994	0.186071
H133	H	1.191241	-1.254849	-0.317383
H134	H	1.691241	-0.754849	0.182617
N135	N	1.211949	-0.632673	-1.163850
N136	N	1.711949	-0.132673	-0.663850
H137	H	1.217696	-0.626914	-1.215991
H138	H	1.717696	-0.126914	-0.715991
H139	H	1.230147	-0.697697	-1.154753
H140	H	1.730147	-0.197697	-0.654753
H141	H	0.795930	-0.391810	-0.311026
H142	H	1.295930	0.108190	0.188974
N143	N	0.979220	-0.386895	-0.307132
N144	N	1.479220	0.113105	0.192868
H145	H	1.021948	-0.424466	-0.278075
H146	H	1.521948	0.075534	0.221925
H147	H	1.014607	-0.348654	-0.335697
H148	H	1.514607	0.151346	0.164303
N149	N	1.413593	-0.431350	-0.681020
N150	N	1.913593	0.068650	-0.181020
H151	H	1.446491	-0.398472	-0.715464
H152	H	1.946491	0.101528	-0.215464
H153	H	1.376014	-0.385675	-0.646776
H154	H	1.876014	0.114325	-0.146776
N155	N	0.983546	-0.637497	-0.505422
N156	N	1.483546	-0.137497	-0.005422
H157	H	0.940016	-0.673026	-0.533539
H158	H	1.440016	-0.173026	-0.033539
H159	H	1.019078	-0.604563	-0.538148
H160	H	1.519078	-0.104563	-0.038148
N161	N	1.457413	-1.073528	-0.546651
N162	N	1.957413	-0.573528	-0.046651
H163	H	1.521558	-1.060356	-0.538060
H164	H	2.021558	-0.560356	-0.038060
H165	H	1.452655	-1.139867	-0.542579
H166	H	1.952655	-0.639867	-0.042579
N167	N	0.843118	-0.689276	-0.546394
N168	N	1.343118	-0.189276	-0.046394
H169	H	0.799591	-0.724812	-0.574509
H170	H	1.299591	-0.224812	-0.074509
H171	H	0.878650	-0.656346	-0.579123
H172	H	1.378650	-0.156346	-0.079123
H173	H	0.659276	-0.662308	-0.525074
H174	H	1.159276	-0.162308	-0.025074
H175	H	1.392215	-0.452676	-0.824076
H176	H	1.892215	0.047324	-0.324076
H177	H	1.200647	-0.644075	-0.690689
H178	H	1.700647	-0.144075	-0.190689
N179	N	1.219362	-0.625276	-1.011071
N180	N	1.719362	-0.125276	-0.511071
H181	H	1.183111	-0.661477	-1.045501
H182	H	1.683111	-0.161477	-0.545501
H183	H	1.259871	-0.668008	-0.984303
H184	H	1.759871	-0.168008	-0.484303
N185	N	1.446282	-0.398618	-1.011131
N186	N	1.946282	0.101382	-0.511131
H187	H	1.428073	-0.333580	-1.020189
H188	H	1.928073	0.166420	-0.520189
H189	H	1.440520	-0.404433	-0.959001
H190	H	1.940520	0.095567	-0.459001
N191	N	1.409803	-1.210046	-0.505635
N192	N	1.909803	-0.710046	-0.005635
H193	H	1.473946	-1.196873	-0.497039
H194	H	1.973946	-0.696873	0.002961
H195	H	1.405047	-1.276387	-0.501570
H196	H	1.905047	-0.776387	-0.001570
H197	H	1.183423	-1.003871	-0.310752
H198	H	1.683423	-0.503871	0.189248
H199	H	1.231036	-0.867346	-0.351770
H200	H	1.731036	-0.367346	0.148230
H201	H	1.424910	-0.419965	-1.154183
H202	H	1.924910	0.080035	-0.654183
