data_functionalizedCrystal
_audit_creation_method	'MofGen! by Chris Wilmer'
_symmetry_space_group_name_H-M	'P1'
_symmetry_Int_Tables_number	1
_symmetry_cell_setting	triclinic
loop_
_symmetry_equiv_pos_as_xyz
  x,y,z
_cell_length_a	29.839134
_cell_length_b	21.395361
_cell_length_c	29.839125
_cell_angle_alpha	89.980954
_cell_angle_beta	90.021980
_cell_angle_gamma	89.974432
loop_
_atom_site_label
_atom_site_type_symbol
_atom_site_fract_x
_atom_site_fract_y
_atom_site_fract_z
Zn1	Zn	0.686753	0.249612	0.254121
Zn2	Zn	1.020086	0.582946	0.587454
Zn3	Zn	1.353420	0.916279	0.920788
Zn4	Zn	0.686699	0.354368	0.178989
Zn5	Zn	1.020033	0.687701	0.512322
Zn6	Zn	1.353366	1.021034	0.845656
Zn7	Zn	0.611636	0.249598	0.178990
Zn8	Zn	0.944969	0.582932	0.512324
Zn9	Zn	1.278303	0.916265	0.845657
Zn10	Zn	0.611598	0.354347	0.254077
Zn11	Zn	0.944931	0.687680	0.587411
Zn12	Zn	1.278264	1.021013	0.920744
O13	O	0.649171	0.301981	0.216544
O14	O	0.982505	0.635315	0.549878
O15	O	1.315838	0.968648	0.883211
O16	O	0.749613	0.263523	0.244172
O17	O	1.082946	0.596856	0.577505
O18	O	1.416280	0.930189	0.910839
O19	O	0.676735	0.340473	0.116122
O20	O	1.010069	0.673806	0.449455
O21	O	1.343402	1.007139	0.782789
O22	O	0.621639	0.161922	0.188975
O23	O	0.954972	0.495256	0.522309
O24	O	1.288305	0.828589	0.855642
O25	O	0.749573	0.340486	0.188973
O26	O	1.082907	0.673819	0.522306
O27	O	1.416240	1.007153	0.855640
O28	O	0.676827	0.161933	0.244173
O29	O	1.010160	0.495266	0.577507
O30	O	1.343494	0.828599	0.910840
O31	O	0.621587	0.263499	0.116123
O32	O	0.954920	0.596833	0.449456
O33	O	1.288253	0.930166	0.782790
O34	O	0.548764	0.263479	0.188933
O35	O	0.882097	0.596812	0.522267
O36	O	1.215430	0.930146	0.855600
O37	O	0.621574	0.340450	0.316950
O38	O	0.954907	0.673784	0.650284
O39	O	1.288240	1.007117	0.983617
O40	O	0.548736	0.340437	0.244099
O41	O	0.882069	0.673770	0.577433
O42	O	1.215402	1.007104	0.910766
O43	O	0.676790	0.263502	0.316982
O44	O	1.010123	0.596836	0.650316
O45	O	1.343457	0.930169	0.983649
O46	O	0.676698	0.442043	0.188931
O47	O	1.010032	0.775376	0.522264
O48	O	1.343365	1.108709	0.855598
O49	O	0.621522	0.442027	0.244098
O50	O	0.954855	0.775361	0.577431
O51	O	1.288188	1.108694	0.910765
C52	C	0.532449	0.301955	0.216512
C53	C	0.865782	0.635288	0.549845
C54	C	1.199116	0.968621	0.883179
C55	C	0.482514	0.301958	0.216509
C56	C	0.815848	0.635292	0.549842
C57	C	1.149181	0.968625	0.883175
C58	C	0.649112	0.464769	0.216519
C59	C	0.982445	0.798102	0.549853
C60	C	1.315779	1.131436	0.883186
C61	C	0.649128	0.534410	0.216524
C62	C	0.982461	0.867743	0.549857
C63	C	1.315795	1.201077	0.883190
C64	C	0.649184	0.301976	0.333723
C65	C	0.982517	0.635309	0.667056
C66	C	1.315850	0.968642	1.000389
C67	C	0.649189	0.301973	0.383657
C68	C	0.982522	0.635307	0.716991
C69	C	1.315855	0.968640	1.050324
C70	C	0.172866	0.342112	0.245234
C71	C	0.506199	0.675446	0.578568
C72	C	0.839533	1.008779	0.911901
C73	C	-0.014807	0.342130	0.245254
C74	C	0.318526	0.675463	0.578588
C75	C	0.651860	1.008797	0.911921
O76	O	-0.039076	0.376241	0.269658
O77	O	0.294257	0.709574	0.602992
O78	O	0.627590	1.042908	0.936325
N79	N	-0.038271	0.302004	0.216578
N80	N	0.295063	0.635338	0.549912
N81	N	0.628396	0.968671	0.883245
C82	C	-0.014813	0.261868	0.187897
C83	C	0.318520	0.595201	0.521231
C84	C	0.651854	0.928535	0.854564
O85	O	-0.039076	0.227734	0.163510
O86	O	0.294257	0.561068	0.496844
O87	O	0.627590	0.894401	0.830177
C88	C	0.172859	0.261848	0.187880
C89	C	0.506193	0.595181	0.521213
C90	C	0.839526	0.928514	0.854547
C91	C	0.196320	0.301981	0.216555
C92	C	0.529654	0.635314	0.549888
C93	C	0.862987	0.968647	0.883221
C94	C	0.196327	0.382242	0.273907
C95	C	0.529660	0.715575	0.607240
C96	C	0.862994	1.048908	0.940574
C97	C	0.243242	0.382239	0.273900
C98	C	0.576576	0.715573	0.607233
C99	C	0.909909	1.048906	0.940567
C100	C	0.266697	0.342108	0.245220
C101	C	0.600030	0.675441	0.578554
C102	C	0.933363	1.008774	0.911887
C103	C	0.243236	0.301978	0.216548
C104	C	0.576569	0.635312	0.549881
C105	C	0.909902	0.968645	0.883214
C106	C	0.196316	0.221709	0.159202
C107	C	0.529649	0.555042	0.492535
C108	C	0.862983	0.888376	0.825868
C109	C	0.243237	0.221706	0.159201
C110	C	0.576570	0.555040	0.492534
C111	C	0.909904	0.888373	0.825867
C112	C	0.266698	0.261839	0.187875
C113	C	0.600031	0.595173	0.521209
C114	C	0.933365	0.928506	0.854542
C115	C	0.313606	0.261844	0.187861
C116	C	0.646939	0.595178	0.521194
C117	C	0.980272	0.928511	0.854528
N118	N	0.337069	0.301970	0.216537
N119	N	0.670402	0.635304	0.549870
N120	N	1.003736	0.968637	0.883204
C121	C	0.313615	0.342102	0.245217
C122	C	0.646948	0.675435	0.578550
C123	C	0.980281	1.008769	0.911883
C124	C	-0.113344	0.261882	0.187908
C125	C	0.219990	0.595216	0.521241
C126	C	0.553323	0.928549	0.854575
C127	C	-0.160261	0.261888	0.187912
C128	C	0.173072	0.595222	0.521245
C129	C	0.506405	0.928555	0.854578
C130	C	-0.160252	0.342150	0.245269
C131	C	0.173081	0.675483	0.578602
C132	C	0.506414	1.008816	0.911936
C133	C	-0.113334	0.342147	0.245263
C134	C	0.220000	0.675480	0.578596
C135	C	0.553333	1.008813	0.911930
C136	C	-0.089880	0.302008	0.216584
C137	C	0.243453	0.635342	0.549917
C138	C	0.576787	0.968675	0.883251
C139	C	0.412141	0.342094	0.245199
C140	C	0.745474	0.675428	0.578533
C141	C	1.078807	1.008761	0.911866
C142	C	0.459060	0.342090	0.245188
C143	C	0.792393	0.675423	0.578522
C144	C	1.125727	1.008757	0.911855
C145	C	0.459047	0.261827	0.187833
C146	C	0.792380	0.595160	0.521166
C147	C	1.125714	0.928493	0.854499
C148	C	0.412131	0.261833	0.187842
C149	C	0.745465	0.595166	0.521175
C150	C	1.078798	0.928499	0.854508
C151	C	0.388679	0.301969	0.216529
C152	C	0.722013	0.635302	0.549862
C153	C	1.055346	0.968635	0.883195
O154	O	0.337904	0.227746	0.163473
O155	O	0.671237	0.561080	0.496806
O156	O	1.004570	0.894413	0.830140
O157	O	0.337886	0.376221	0.269607
O158	O	0.671219	0.709554	0.602940
O159	O	1.004553	1.042887	0.936274
C160	C	0.125950	0.342115	0.245241
C161	C	0.459284	0.675448	0.578575
C162	C	0.792617	1.008782	0.911908
C163	C	0.102489	0.301986	0.216569
C164	C	0.435823	0.635319	0.549902
C165	C	0.769156	0.968652	0.883235
C166	C	0.125944	0.261854	0.187889
C167	C	0.459277	0.595187	0.521222
C168	C	0.792610	0.928521	0.854556
C169	C	0.055572	0.301991	0.216572
C170	C	0.388905	0.635325	0.549906
C171	C	0.722238	0.968658	0.883239
C172	C	0.032117	0.342123	0.245252
C173	C	0.365451	0.675456	0.578585
C174	C	0.698784	1.008790	0.911919
C175	C	0.055581	0.382249	0.273928
C176	C	0.388914	0.715582	0.607261
C177	C	0.722247	1.048916	0.940595
C178	C	0.102496	0.382247	0.273921
C179	C	0.435829	0.715580	0.607254
C180	C	0.769163	1.048913	0.940588
C181	C	0.102480	0.221728	0.159213
C182	C	0.435814	0.555061	0.492546
C183	C	0.769147	0.888395	0.825880
C184	C	0.055565	0.221734	0.159222
C185	C	0.388898	0.555068	0.492555
C186	C	0.722231	0.888401	0.825889
C187	C	0.032110	0.261866	0.187902
C188	C	0.365444	0.595199	0.521235
C189	C	0.698777	0.928533	0.854568
C190	C	0.766350	0.302008	0.216577
C191	C	1.099683	0.635342	0.549911
C192	C	1.433016	0.968675	0.883244
C193	C	0.816284	0.302020	0.216591
C194	C	1.149618	0.635353	0.549925
C195	C	1.482951	0.968687	0.883258
C196	C	0.649243	0.138558	0.216579
C197	C	0.982577	0.471891	0.549913
C198	C	1.315910	0.805225	0.883246
C199	C	0.649274	0.068917	0.216594
C200	C	0.982607	0.402250	0.549928
C201	C	1.315940	0.735583	0.883261
C202	C	0.677884	0.567110	0.187828
C203	C	1.011217	0.900444	0.521161
C204	C	1.344551	1.233777	0.854494
C205	C	0.677905	0.632546	0.187838
C206	C	1.011238	0.965879	0.521171
C207	C	1.344571	1.299213	0.854504
C208	C	0.649162	0.665278	0.216539
C209	C	0.982495	0.998612	0.549872
C210	C	1.315828	1.331945	0.883206
C211	C	0.620404	0.632570	0.245241
C212	C	0.953737	0.965903	0.578574
C213	C	1.287070	1.299237	0.911908
C214	C	0.620387	0.567136	0.245233
C215	C	0.953720	0.900469	0.578566
C216	C	1.287053	1.233803	0.911900
C217	C	0.608710	0.768989	0.220053
C218	C	0.942044	1.102322	0.553386
C219	C	1.275377	1.435655	0.886720
C220	C	0.608726	0.834422	0.220057
C221	C	0.942060	1.167755	0.553391
C222	C	1.275393	1.501088	0.886724
C223	C	0.649214	0.867099	0.216566
C224	C	0.982547	1.200432	0.549899
C225	C	1.315881	1.533766	0.883232
C226	C	0.689687	0.834336	0.213060
C227	C	1.023020	1.167669	0.546393
C228	C	1.356353	1.501002	0.879726
C229	C	0.689670	0.768901	0.213052
C230	C	1.023003	1.102235	0.546385
C231	C	1.356336	1.435568	0.879719
C232	C	0.649177	0.736231	0.216551
C233	C	0.982510	1.069564	0.549884
C234	C	1.315844	1.402897	0.883218
C235	C	0.677995	0.970752	0.187879
C236	C	1.011328	1.304085	0.521212
C237	C	1.344662	1.637419	0.854545
C238	C	0.678017	1.036189	0.187892
C239	C	1.011350	1.369522	0.521225
C240	C	1.344683	1.702855	0.854559
C241	C	0.620512	1.036212	0.245293
C242	C	0.953845	1.369545	0.578626
C243	C	1.287178	1.702878	0.911959
C244	C	0.620494	0.970776	0.245282
C245	C	0.953827	1.304110	0.578615
C246	C	1.287161	1.637443	0.911949
C247	C	0.649235	0.938050	0.216573
C248	C	0.982568	1.271384	0.549906
C249	C	1.315902	1.604717	0.883239
C250	C	0.649185	0.301942	0.099822
C251	C	0.982519	0.635275	0.433155
C252	C	1.315852	0.968608	0.766489
C253	C	0.649267	0.301768	0.049888
C254	C	0.982600	0.635101	0.383221
C255	C	1.315934	0.968434	0.716554
C256	C	0.677970	0.261802	0.693320
C257	C	1.011304	0.595135	1.026654
C258	C	1.344637	0.928468	1.359987
C259	C	0.677992	0.261748	0.880994
C260	C	1.011326	0.595081	1.214327
C261	C	1.344659	0.928415	1.547660
O262	O	0.702430	0.227652	0.905275
O263	O	1.035763	0.560985	1.238608
O264	O	1.369097	0.894319	1.571942
N265	N	0.649248	0.301805	0.904443
N266	N	0.982582	0.635139	1.237776
N267	N	1.315915	0.968472	1.571109
C268	C	0.620495	0.341876	0.880970
C269	C	0.953828	0.675209	1.214304
C270	C	1.287161	1.008543	1.547637
O271	O	0.596043	0.375941	0.905222
O272	O	0.929376	0.709275	1.238555
O273	O	1.262710	1.042608	1.571888
C274	C	0.620470	0.341926	0.693298
C275	C	0.953804	0.675259	1.026632
C276	C	1.287137	1.008592	1.359965
C277	C	0.649220	0.301870	0.669852
C278	C	0.982553	0.635204	1.003185
C279	C	1.315886	0.968537	1.336518
C280	C	0.706717	0.221749	0.669874
C281	C	1.040050	0.555082	1.003207
C282	C	1.373383	0.888416	1.336540
C283	C	0.706713	0.221765	0.622958
C284	C	1.040046	0.555098	0.956292
C285	C	1.373379	0.888432	1.289625
C286	C	0.677962	0.261834	0.599489
C287	C	1.011295	0.595167	0.932823
C288	C	1.344629	0.928501	1.266156
C289	C	0.649215	0.301887	0.622936
C290	C	0.982549	0.635220	0.956269
C291	C	1.315882	0.968553	1.289603
C292	C	0.591715	0.381993	0.669827
C293	C	0.925048	0.715326	1.003160
C294	C	1.258381	1.048659	1.336494
C295	C	0.591710	0.382001	0.622906
C296	C	0.925044	0.715334	0.956239
C297	C	1.258377	1.048667	1.289573
C298	C	0.620459	0.341945	0.599459
C299	C	0.953793	0.675278	0.932793
C300	C	1.287126	1.008612	1.266126
C301	C	0.620461	0.341972	0.552552
C302	C	0.953794	0.675305	0.885885
C303	C	1.287127	1.008638	1.219218
N304	N	0.649205	0.301914	0.529103
N305	N	0.982538	0.635248	0.862436
N306	N	1.315871	0.968581	1.195769
C307	C	0.677955	0.261845	0.552572
C308	C	1.011289	0.595179	0.885905
C309	C	1.344622	0.928512	1.219238
C310	C	0.620510	0.341848	0.979501
C311	C	0.953843	0.675181	1.312834
C312	C	1.287177	1.008515	1.646168
C313	C	0.620516	0.341836	1.026419
C314	C	0.953850	0.675170	1.359752
C315	C	1.287183	1.008503	1.693086
C316	C	0.678014	0.261707	1.026439
C317	C	1.011347	0.595041	1.359772
C318	C	1.344681	0.928374	1.693105
C319	C	0.678009	0.261723	0.979520
C320	C	1.011343	0.595056	1.312853
C321	C	1.344676	0.928389	1.646187
C322	C	0.649254	0.301791	0.956052
C323	C	0.982587	0.635124	1.289385
C324	C	1.315921	0.968457	1.622719
C325	C	0.677945	0.261883	0.454046
C326	C	1.011278	0.595216	0.787379
C327	C	1.344611	0.928549	1.120712
C328	C	0.677939	0.261904	0.407126
C329	C	1.011273	0.595238	0.740459
C330	C	1.344606	0.928571	1.073793
C331	C	0.620441	0.342031	0.407110
C332	C	0.953774	0.675364	0.740444
C333	C	1.287107	1.008697	1.073777
C334	C	0.620447	0.342012	0.454026
C335	C	0.953781	0.675345	0.787359
C336	C	1.287114	1.008678	1.120693
C337	C	0.649201	0.301933	0.477492
C338	C	0.982534	0.635266	0.810826
C339	C	1.315868	0.968599	1.144159
O340	O	0.596032	0.376045	0.528241
O341	O	0.929366	0.709378	0.861575
O342	O	1.262699	1.042711	1.194908
O343	O	0.702396	0.227775	0.528312
O344	O	1.035729	0.561109	0.861646
O345	O	1.369063	0.894442	1.194979
C346	C	0.677974	0.261785	0.740236
C347	C	1.011308	0.595119	1.073569
C348	C	1.344641	0.928452	1.406903
C349	C	0.649228	0.301838	0.763683
C350	C	0.982561	0.635171	1.097016
C351	C	1.315894	0.968505	1.430349
C352	C	0.620477	0.341907	0.740214
C353	C	0.953810	0.675240	1.073547
C354	C	1.287144	1.008574	1.406880
C355	C	0.649234	0.301826	0.810600
C356	C	0.982568	0.635160	1.143934
C357	C	1.315901	0.968493	1.477267
C358	C	0.677985	0.261758	0.834069
C359	C	1.011318	0.595091	1.167403
C360	C	1.344652	0.928424	1.500736
C361	C	0.706729	0.221700	0.810620
C362	C	1.040062	0.555034	1.143954
C363	C	1.373396	0.888367	1.477287
C364	C	0.706725	0.221717	0.763705
C365	C	1.040058	0.555050	1.097038
C366	C	1.373392	0.888383	1.430371
C367	C	0.591733	0.381964	0.763663
C368	C	0.925066	0.715297	1.096996
C369	C	1.258400	1.048631	1.430329
C370	C	0.591740	0.381945	0.810578
C371	C	0.925073	0.715279	1.143912
C372	C	1.258407	1.048612	1.477245
C373	C	0.620491	0.341876	0.834047
C374	C	0.953824	0.675210	1.167380
C375	C	1.287157	1.008543	1.500714
H376	H	0.478160	0.374773	0.268539
H377	H	0.811493	0.708107	0.601872
H378	H	1.144827	1.041440	0.935206
H379	H	0.568289	0.414623	0.603801
H380	H	0.901622	0.747956	0.937134
H381	H	1.234956	1.081289	1.270467
H382	H	0.597076	0.944150	0.268647
H383	H	0.930409	1.277483	0.601980
H384	H	1.263743	1.610817	0.935314
H385	H	0.730122	0.189147	0.603872
H386	H	1.063456	0.522480	0.937206
H387	H	1.396789	0.855813	1.270539
H388	H	-0.179360	0.229214	0.164557
H389	H	0.153974	0.562547	0.497891
H390	H	0.487307	0.895881	0.831224
H391	H	0.722656	0.860940	0.210216
H392	H	1.055989	1.194273	0.543550
H393	H	1.389322	1.527607	0.876883
H394	H	0.393028	0.229154	0.164492
H395	H	0.726362	0.562488	0.497825
H396	H	1.059695	0.895821	0.831158
H397	H	0.701399	0.944106	0.164503
H398	H	1.034733	1.277439	0.497837
H399	H	1.368066	1.610772	0.831170
H400	H	0.568321	0.414595	0.744559
H401	H	0.901654	0.747928	1.077893
H402	H	1.234988	1.081261	1.411226
H403	H	0.177235	0.414922	0.297264
H404	H	0.510569	0.748255	0.630597
H405	H	0.843902	1.081589	0.963930
H406	H	0.575771	0.861093	0.222908
H407	H	0.909104	1.194426	0.556241
H408	H	1.242438	1.527759	0.889574
H409	H	0.575738	0.742389	0.222898
H410	H	0.909071	1.075722	0.556231
H411	H	1.242404	1.409056	0.889565
H412	H	0.597110	1.062862	0.268664
H413	H	0.930444	1.396195	0.601997
H414	H	1.263777	1.729528	0.935331
H415	H	0.730135	0.189099	0.744619
H416	H	1.063469	0.522432	1.077952
H417	H	1.396802	0.855766	1.411285
H418	H	0.597042	0.374634	0.473117
H419	H	0.930375	0.707967	0.806450
H420	H	1.263708	1.041301	1.139784
H421	H	0.393051	0.374775	0.268560
H422	H	0.726385	0.708108	0.601893
H423	H	1.059718	1.041442	0.935227
H424	H	-0.094252	0.229197	0.164552
H425	H	0.239081	0.562530	0.497885
H426	H	0.572415	0.895863	0.831218
H427	H	0.701419	0.229105	0.960433
H428	H	1.034752	0.562438	1.293766
H429	H	1.368085	0.895772	1.627100
H430	H	0.701436	1.062812	0.164525
H431	H	1.034769	1.396145	0.497858
H432	H	1.368103	1.729479	0.831192
H433	H	0.701288	0.540467	0.164452
H434	H	1.034621	0.873800	0.497785
H435	H	1.367954	1.207134	0.831119
H436	H	0.597002	0.659225	0.268611
H437	H	0.930335	0.992558	0.601944
H438	H	1.263668	1.325892	0.935277
H439	H	0.262330	0.189016	0.135849
H440	H	0.595664	0.522350	0.469182
H441	H	0.928997	0.855683	0.802516
H442	H	0.596970	0.540511	0.268602
H443	H	0.930303	0.873844	0.601935
H444	H	1.263636	1.207177	0.935268
H445	H	0.701352	0.229286	0.388038
H446	H	1.034685	0.562619	0.721371
H447	H	1.368019	0.895952	1.054705
H448	H	0.701323	0.659176	0.164470
H449	H	1.034656	0.992509	0.497803
H450	H	1.367990	1.325842	0.831137
H451	H	0.262340	0.414919	0.297251
H452	H	0.595674	0.748252	0.630584
H453	H	0.929007	1.081585	0.963917
H454	H	0.597034	0.374656	0.387994
H455	H	0.930367	0.707989	0.721327
H456	H	1.263701	1.041322	1.054660
H457	H	0.730129	0.189117	0.688977
H458	H	1.063462	0.522450	1.022310
H459	H	1.396796	0.855783	1.355644
H460	H	0.701357	0.229245	0.473147
H461	H	1.034691	0.562578	0.806480
H462	H	1.368024	0.895911	1.139813
H463	H	0.730140	0.189077	0.829737
H464	H	1.063474	0.522410	1.163070
H465	H	1.396807	0.855744	1.496403
H466	H	0.036467	0.189054	0.135868
H467	H	0.369800	0.522387	0.469201
H468	H	0.703133	0.855720	0.802534
H469	H	0.701424	0.229082	1.045555
H470	H	1.034757	0.562416	1.378888
H471	H	1.368091	0.895749	1.712222
H472	H	-0.094235	0.374826	0.268613
H473	H	0.239099	0.708159	0.601946
H474	H	0.572432	1.041492	0.935280
H475	H	0.568330	0.414569	0.829665
H476	H	0.901663	0.747902	1.162998
H477	H	1.234996	1.081236	1.496331
H478	H	0.597111	0.374460	1.045505
H479	H	0.930444	0.707794	1.378839
H480	H	1.263778	1.041127	1.712172
H481	H	0.036476	0.414927	0.297279
H482	H	0.369809	0.748261	0.630612
H483	H	0.703143	1.081594	0.963945
H484	H	0.568304	0.414610	0.688909
H485	H	0.901637	0.747943	1.022242
H486	H	1.234970	1.081277	1.355576
H487	H	-0.179357	0.374826	0.268621
H488	H	0.153976	0.708160	0.601955
H489	H	0.487310	1.041493	0.935288
H490	H	0.177222	0.189030	0.135851
H491	H	0.510555	0.522363	0.469184
H492	H	0.843889	0.855697	0.802517
H493	H	0.597094	0.374480	0.960398
H494	H	0.930428	0.707813	1.293731
H495	H	1.263761	1.041147	1.627064
H496	H	0.478152	0.229154	0.164481
H497	H	0.811485	0.562488	0.497814
H498	H	1.144819	0.895821	0.831148
H499	H	0.121594	0.414927	0.297271
H500	H	0.454927	0.748260	0.630604
H501	H	0.788261	1.081593	0.963938
H502	H	0.121572	0.189047	0.135858
H503	H	0.454905	0.522380	0.469192
H504	H	0.788239	0.855714	0.802525
H505	H	0.722624	0.742227	0.210199
H506	H	1.055957	1.075560	0.543532
H507	H	1.389290	1.408894	0.876865
