data_functionalizedCrystal
_audit_creation_method	'MofGen! by Chris Wilmer'
_symmetry_space_group_name_H-M	'P1'
_symmetry_Int_Tables_number	1
_symmetry_cell_setting	triclinic
loop_
_symmetry_equiv_pos_as_xyz
  x,y,z
_cell_length_a	19.188930
_cell_length_b	19.288864
_cell_length_c	18.366186
_cell_angle_alpha	90.023340
_cell_angle_beta	89.979752
_cell_angle_gamma	96.859491
loop_
_atom_site_label
_atom_site_type_symbol
_atom_site_fract_x
_atom_site_fract_y
_atom_site_fract_z
O1	O	-0.926141	0.086713	0.060818
O2	O	-0.592807	0.420047	0.394152
O3	O	-0.259474	0.753380	0.727485
O4	O	-0.722828	0.098387	0.060773
O5	O	-0.389495	0.431720	0.394106
O6	O	-0.056162	0.765054	0.727440
O7	O	-0.830359	-0.008580	0.060752
O8	O	-0.497026	0.324754	0.394085
O9	O	-0.163693	0.658087	0.727419
O10	O	-0.818610	0.193680	0.060839
O11	O	-0.485276	0.527013	0.394173
O12	O	-0.151943	0.860347	0.727506
O13	O	-0.830345	-0.008576	-0.060347
O14	O	-0.497012	0.324757	0.272986
O15	O	-0.163679	0.658091	0.606319
O16	O	-0.722815	0.098391	-0.060326
O17	O	-0.389481	0.431724	0.273007
O18	O	-0.056148	0.765057	0.606340
O19	O	-0.926127	0.086717	-0.060281
O20	O	-0.592793	0.420050	0.273052
O21	O	-0.259460	0.753384	0.606386
Zn22	Zn	-0.824468	0.092554	-0.079531
Zn23	Zn	-0.491135	0.425888	0.253803
Zn24	Zn	-0.157802	0.759221	0.587136
Zn25	Zn	-0.824487	0.092549	0.080023
Zn26	Zn	-0.491153	0.425883	0.413356
Zn27	Zn	-0.157820	0.759216	0.746689
O28	O	-0.818596	0.193684	-0.060260
O29	O	-0.485263	0.527017	0.273073
O30	O	-0.151929	0.860350	0.606407
C31	C	-0.696811	0.098011	0.000217
C32	C	-0.363477	0.431344	0.333550
C33	C	-0.030144	0.764677	0.666883
C34	C	-0.619306	0.096876	0.000197
C35	C	-0.285973	0.430209	0.333531
C36	C	0.047361	0.763543	0.666864
C37	C	-0.829974	-0.034454	0.000192
C38	C	-0.496641	0.298879	0.333526
C39	C	-0.163308	0.632212	0.666859
C40	C	-0.828839	-0.111558	0.000162
C41	C	-0.495506	0.221775	0.333495
C42	C	-0.162173	0.555109	0.666829
C43	C	-0.952145	0.087093	0.000277
C44	C	-0.618811	0.420427	0.333610
C45	C	-0.285478	0.753760	0.666943
C46	C	-1.029649	0.088228	0.000301
C47	C	-0.696316	0.421561	0.333635
C48	C	-0.362982	0.754895	0.666968
C49	C	-0.574377	0.159640	0.000236
C50	C	-0.241044	0.492974	0.333569
C51	C	0.092289	0.826307	0.666902
C52	C	-0.501554	0.158574	0.000243
C53	C	-0.168220	0.491908	0.333577
C54	C	0.165113	0.825241	0.666910
C55	C	-0.473662	0.094740	0.000227
C56	C	-0.140329	0.428073	0.333560
C57	C	0.193005	0.761407	0.666894
C58	C	-0.518600	0.031967	0.000184
C59	C	-0.185267	0.365301	0.333518
C60	C	0.148066	0.698634	0.666851
C61	C	-0.591423	0.033035	0.000169
C62	C	-0.258089	0.366369	0.333503
C63	C	0.075244	0.699702	0.666836
N64	N	-0.365690	0.045945	0.041451
N65	N	-0.032357	0.379279	0.374784
N66	N	0.300977	0.712612	0.708117
N67	N	-0.296512	0.044935	0.041466
N68	N	0.036822	0.378269	0.374800
N69	N	0.370155	0.711602	0.708133
C70	C	-0.254254	0.091519	0.000270
C71	C	0.079080	0.424852	0.333603
C72	C	0.412413	0.758185	0.666937
N73	N	-0.283786	0.139161	-0.040933
N74	N	0.049547	0.472494	0.292400
N75	N	0.382881	0.805828	0.625733
N76	N	-0.352971	0.140173	-0.040946
N77	N	-0.019637	0.473507	0.292388
N78	N	0.313696	0.806840	0.625721
C79	C	-0.394700	0.093575	0.000243
C80	C	-0.061366	0.426908	0.333576
C81	C	0.271967	0.760242	0.666909
C82	C	-0.130361	0.153132	0.000316
C83	C	0.202973	0.486465	0.333649
C84	C	0.536306	0.819798	0.666982
C85	C	-0.057536	0.152063	0.000319
C86	C	0.275798	0.485396	0.333652
C87	C	0.609131	0.818729	0.666985
C88	C	-0.074584	0.025454	0.000267
C89	C	0.258749	0.358787	0.333600
C90	C	0.592082	0.692121	0.666934
C91	C	-0.147407	0.026525	0.000257
C92	C	0.185926	0.359858	0.333590
C93	C	0.519259	0.693191	0.666923
C94	C	-0.175291	0.090365	0.000285
C95	C	0.158043	0.423699	0.333618
C96	C	0.491376	0.757032	0.666951
C97	C	-0.818981	0.219558	0.000301
C98	C	-0.485648	0.552892	0.333635
C99	C	-0.152314	0.886225	0.666968
C100	C	-0.820116	0.296662	0.000336
C101	C	-0.486782	0.629995	0.333670
C102	C	-0.153449	0.963329	0.667003
N103	N	-0.824461	0.092557	-0.188422
N104	N	-0.491128	0.425891	0.144911
N105	N	-0.157794	0.759224	0.478245
C106	C	-0.757022	0.341354	0.000308
C107	C	-0.423688	0.674687	0.333641
C108	C	-0.090355	1.008020	0.666974
C109	C	-0.758088	0.413801	0.000291
C110	C	-0.424754	0.747134	0.333625
C111	C	-0.091421	1.080467	0.666958
C112	C	-0.822252	0.441553	0.000289
C113	C	-0.488918	0.774886	0.333623
C114	C	-0.155585	1.108220	0.666956
C115	C	-0.885354	0.396852	0.000322
C116	C	-0.552021	0.730185	0.333655
C117	C	-0.218688	1.063518	0.666989
C118	C	-0.884286	0.324406	0.000346
C119	C	-0.550953	0.657739	0.333679
C120	C	-0.217620	0.991073	0.667012
C121	C	-0.872687	0.549808	-0.042165
C122	C	-0.539353	0.883141	0.291169
C123	C	-0.206020	1.216475	0.624502
C124	C	-0.873752	0.622253	-0.042193
C125	C	-0.540419	0.955586	0.291141
C126	C	-0.207085	1.288919	0.624474
C127	C	-0.825548	0.664999	0.000220
C128	C	-0.492215	0.998332	0.333553
C129	C	-0.158882	1.331666	0.666887
C130	C	-0.776268	0.635293	0.042651
C131	C	-0.442934	0.968627	0.375984
C132	C	-0.109601	1.301960	0.709318
C133	C	-0.775200	0.562848	0.042675
C134	C	-0.441866	0.896181	0.376008
C135	C	-0.108533	1.229514	0.709341
C136	C	-0.823417	0.520107	0.000264
C137	C	-0.490084	0.853440	0.333598
C138	C	-0.156750	1.186774	0.666931
C139	C	-0.763606	0.788246	0.000175
C140	C	-0.430273	1.121580	0.333508
C141	C	-0.096939	1.454913	0.666841
C142	C	-0.764675	0.860695	0.000163
C143	C	-0.431341	1.194028	0.333496
C144	C	-0.098008	1.527361	0.666830
C145	C	-0.891943	0.843744	0.000186
C146	C	-0.558610	1.177077	0.333520
C147	C	-0.225276	1.510411	0.666853
C148	C	-0.890872	0.771297	0.000205
C149	C	-0.557539	1.104631	0.333539
C150	C	-0.224206	1.437964	0.666872
C151	C	-0.826702	0.743553	0.000196
C152	C	-0.493369	1.076887	0.333529
C153	C	-0.160035	1.410220	0.666863
C154	C	-0.866711	0.134558	-0.772942
C155	C	-0.533377	0.467892	-0.439609
C156	C	-0.200044	0.801225	-0.106276
C157	C	-0.866703	0.134565	-0.696715
C158	C	-0.533370	0.467898	-0.363381
C159	C	-0.200037	0.801232	-0.030048
C160	C	-0.824493	0.092542	-0.658633
C161	C	-0.491160	0.425875	-0.325300
C162	C	-0.157827	0.759208	0.008033
C163	C	-0.782274	0.050522	-0.696786
C164	C	-0.448940	0.383855	-0.363453
C165	C	-0.115607	0.717189	-0.030120
C166	C	-0.782277	0.050522	-0.773013
C167	C	-0.448944	0.383855	-0.439679
C168	C	-0.115610	0.717188	-0.106346
C169	C	-0.822757	0.029917	-0.537895
C170	C	-0.489424	0.363251	-0.204562
C171	C	-0.156091	0.696584	0.128771
C172	C	-0.822759	0.029916	-0.461671
C173	C	-0.489426	0.363249	-0.128337
C174	C	-0.156093	0.696583	0.204996
C175	C	-0.824479	0.092544	-0.423526
C176	C	-0.491146	0.425877	-0.090192
C177	C	-0.157813	0.759210	0.243141
C178	C	-0.826212	0.155173	-0.461615
C179	C	-0.492879	0.488507	-0.128282
C180	C	-0.159546	0.821840	0.205051
C181	C	-0.826216	0.155173	-0.537842
C182	C	-0.492882	0.488506	-0.204508
C183	C	-0.159549	0.821839	0.128825
C184	C	-0.824485	0.092538	-0.575979
C185	C	-0.491151	0.425871	-0.242645
C186	C	-0.157818	0.759205	0.090688
C187	C	-0.866685	0.134572	-0.302727
C188	C	-0.533351	0.467905	0.030606
C189	C	-0.200018	0.801238	0.363939
C190	C	-0.866672	0.134580	-0.226498
C191	C	-0.533339	0.467913	0.106835
C192	C	-0.200006	0.801247	0.440169
C193	C	-0.782247	0.050531	-0.226571
C194	C	-0.448914	0.383864	0.106762
C195	C	-0.115580	0.717197	0.440096
C196	C	-0.782255	0.050529	-0.302799
C197	C	-0.448922	0.383862	0.030535
C198	C	-0.115588	0.717195	0.363868
C199	C	-0.824478	0.092548	-0.340872
C200	C	-0.491144	0.425881	-0.007539
C201	C	-0.157811	0.759215	0.325794
N202	N	-0.824500	0.092541	0.188914
N203	N	-0.491166	0.425874	0.522247
N204	N	-0.157833	0.759208	0.855581
H205	H	-0.597075	0.211624	0.000260
H206	H	-0.263742	0.544958	0.333593
H207	H	0.069592	0.878291	0.666926
N208	N	-0.828072	0.222728	-0.420486
N209	N	-0.494739	0.556061	-0.087153
N210	N	-0.161405	0.889394	0.246180
H211	H	-0.827804	0.213228	-0.366418
H212	H	-0.494470	0.546561	-0.033084
H213	H	-0.161137	0.879895	0.300249
H214	H	-0.785565	0.256375	-0.433817
H215	H	-0.452232	0.589709	-0.100484
H216	H	-0.118899	0.923042	0.232849
H217	H	-0.827625	0.206168	-0.568851
H218	H	-0.494291	0.539501	-0.235518
H219	H	-0.160958	0.872835	0.097815
H220	H	-0.747886	0.016311	-0.333856
H221	H	-0.414552	0.349644	-0.000522
H222	H	-0.081219	0.682977	0.332811
N223	N	-0.488520	-0.036882	0.000174
N224	N	-0.155186	0.296451	0.333507
N225	N	0.178147	0.629785	0.666841
H226	H	-0.528036	-0.076483	0.000148
H227	H	-0.194702	0.256850	0.333481
H228	H	0.138631	0.590184	0.666814
H229	H	-0.458650	-0.040081	-0.044712
H230	H	-0.125317	0.293252	0.288621
H231	H	0.208016	0.626585	0.621954
H232	H	-0.937597	0.419452	0.000334
H233	H	-0.604264	0.752785	0.333667
H234	H	-0.270930	1.086119	0.667000
H235	H	-0.901062	0.168790	-0.333728
H236	H	-0.567728	0.502123	-0.000395
H237	H	-0.234395	0.835456	0.332938
N238	N	-0.724278	0.681387	0.088407
N239	N	-0.390944	1.014721	0.421741
N240	N	-0.057611	1.348054	0.755074
H241	H	-0.674963	0.675318	0.072565
H242	H	-0.341630	1.008651	0.405898
H243	H	-0.008296	1.341984	0.739231
H244	H	-0.732497	0.731767	0.081941
H245	H	-0.399163	1.065100	0.415274
H246	H	-0.065830	1.398433	0.748608
H247	H	-0.464966	0.209686	0.000273
H248	H	-0.131632	0.543020	0.333606
H249	H	0.201701	0.876353	0.666939
H250	H	-0.901090	0.168775	-0.803937
H251	H	-0.567757	0.502108	-0.470604
H252	H	-0.234424	0.835442	-0.137270
N253	N	-0.160436	0.221987	0.000336
N254	N	0.172897	0.555320	0.333669
N255	N	0.506231	0.888653	0.667002
H256	H	-0.190250	0.225252	-0.044559
H257	H	0.143084	0.558585	0.288775
H258	H	0.476417	0.891918	0.622108
H259	H	-0.190256	0.225211	0.045254
H260	H	0.143078	0.558544	0.378588
H261	H	0.476411	0.891878	0.711921
H262	H	-0.183989	-0.024585	0.000229
H263	H	0.149344	0.308748	0.333563
H264	H	0.482677	0.642081	0.666896
N265	N	-0.912206	0.179900	-0.185358
N266	N	-0.578873	0.513234	0.147976
N267	N	-0.245539	0.846567	0.481309
H268	H	-0.946467	0.149570	-0.153728
H269	H	-0.613134	0.482903	0.179606
H270	H	-0.279800	0.816236	0.512939
H271	H	-0.881655	0.213973	-0.153774
H272	H	-0.548321	0.547306	0.179560
H273	H	-0.214988	0.880640	0.512893
N274	N	-0.694398	0.758315	0.000168
N275	N	-0.361065	1.091649	0.333502
N276	N	-0.027732	1.424982	0.666835
H277	H	-0.654588	0.797624	0.000154
H278	H	-0.321255	1.130957	0.333487
H279	H	0.012078	1.464290	0.666821
H280	H	-0.691190	0.728653	0.045069
H281	H	-0.357856	1.061987	0.378402
H282	H	-0.024523	1.395320	0.711735
H283	H	-0.051876	-0.026521	0.000299
H284	H	0.281458	0.306812	0.333632
H285	H	0.614791	0.640146	0.666966
H286	H	-0.735074	0.538664	0.077225
H287	H	-0.401741	0.871998	0.410558
H288	H	-0.068408	1.205331	0.743891
N289	N	-0.639885	-0.034665	0.000139
N290	N	-0.306551	0.298668	0.333472
N291	N	0.026782	0.632002	0.666806
H292	H	-0.690248	-0.024302	0.000136
H293	H	-0.356915	0.309032	0.333469
H294	H	-0.023582	0.642365	0.666802
H295	H	-0.630857	-0.062494	-0.044763
H296	H	-0.297524	0.270839	0.288570
H297	H	0.035809	0.604172	0.621903
H298	H	-0.935667	0.288017	0.000370
H299	H	-0.602334	0.621351	0.333703
H300	H	-0.269000	0.954684	0.667036
H301	H	-0.020955	0.203175	0.000346
H302	H	0.312379	0.536509	0.333679
H303	H	0.645712	0.869842	0.667013
N304	N	-0.687812	0.311429	0.000291
N305	N	-0.354479	0.644763	0.333624
N306	N	-0.021146	0.978096	0.666957
H307	H	-0.648004	0.350739	0.000268
H308	H	-0.314670	0.684072	0.333601
H309	H	0.018663	1.017406	0.666934
H310	H	-0.684594	0.281769	0.045190
H311	H	-0.351261	0.615102	0.378524
H312	H	-0.017927	0.948435	0.711857
N313	N	-0.820891	-0.037637	-0.420603
N314	N	-0.487558	0.295697	-0.087270
N315	N	-0.154225	0.629030	0.246063
H316	H	-0.776872	-0.058708	-0.433900
H317	H	-0.443539	0.274625	-0.100567
H318	H	-0.110206	0.607959	0.232766
H319	H	-0.821182	-0.028092	-0.366538
H320	H	-0.487849	0.305242	-0.033205
H321	H	-0.154515	0.638575	0.300129
H322	H	-0.821350	-0.021084	-0.568947
H323	H	-0.488017	0.312249	-0.235613
H324	H	-0.154684	0.645582	0.097720
H325	H	-0.747874	0.016319	-0.195566
H326	H	-0.414541	0.349652	0.137767
H327	H	-0.081208	0.682985	0.471101
H328	H	-0.706707	0.450196	0.000266
H329	H	-0.373374	0.783529	0.333600
H330	H	-0.040041	1.116862	0.666933
N331	N	-0.736749	0.005194	-0.655718
N332	N	-0.403415	0.338528	-0.322385
N333	N	-0.070082	0.671861	0.010948
H334	H	-0.743155	0.011567	-0.601641
H335	H	-0.409821	0.344900	-0.268307
H336	H	-0.076488	0.678233	0.065026
H337	H	-0.750706	-0.045356	-0.669063
H338	H	-0.417373	0.287977	-0.335729
H339	H	-0.084039	0.621310	-0.002396
N340	N	-0.912231	0.179886	-0.655561
N341	N	-0.578898	0.513219	-0.322228
N342	N	-0.245564	0.846553	0.011105
H343	H	-0.938978	0.206505	-0.691247
H344	H	-0.605645	0.539839	-0.357914
H345	H	-0.272311	0.873172	-0.024581
H346	H	-0.946452	0.149510	-0.623934
H347	H	-0.613119	0.482844	-0.290601
H348	H	-0.279786	0.816177	0.042732
N349	N	-0.696620	0.908902	0.000139
N350	N	-0.363287	1.242235	0.333472
N351	N	-0.029953	1.575569	0.666805
H352	H	-0.655809	0.880330	0.000135
H353	H	-0.322476	1.213663	0.333468
H354	H	0.010857	1.546997	0.666802
H355	H	-0.694289	0.939302	-0.044763
H356	H	-0.360956	1.272635	0.288571
H357	H	-0.027623	1.605968	0.621904
H358	H	-0.944187	0.866339	0.000238
H359	H	-0.610853	1.199672	0.333571
H360	H	-0.277520	1.533006	0.666904
N361	N	-0.958924	0.723089	0.000229
N362	N	-0.625591	1.056422	0.333562
N363	N	-0.292258	1.389755	0.666896
H364	H	-0.999735	0.751660	0.000224
H365	H	-0.666402	1.084994	0.333557
H366	H	-0.333069	1.418327	0.666890
H367	H	-0.961245	0.692633	-0.044655
H368	H	-0.627912	1.025966	0.288678
H369	H	-0.294578	1.359300	0.622012
N370	N	-0.926900	0.654283	-0.087964
N371	N	-0.593567	0.987616	0.245370
N372	N	-0.260233	1.320949	0.578703
H373	H	-0.975840	0.635145	-0.072106
H374	H	-0.642506	0.968478	0.261227
H375	H	-0.309173	1.301812	0.594560
H376	H	-0.920201	0.706659	-0.081534
H377	H	-0.586868	1.039992	0.251799
H378	H	-0.253535	1.373325	0.585133
N379	N	-0.924685	0.503705	-0.087908
N380	N	-0.591351	0.837039	0.245426
N381	N	-0.258018	1.170372	0.578759
H382	H	-0.956061	0.533515	-0.114794
H383	H	-0.622727	0.866849	0.218539
H384	H	-0.289394	1.200182	0.551872
H385	H	-0.898545	0.477044	-0.124141
H386	H	-0.565212	0.810377	0.209192
H387	H	-0.231879	1.143710	0.542525
N388	N	-0.736755	0.005194	-0.814159
N389	N	-0.403422	0.338527	-0.480825
N390	N	-0.070089	0.671861	-0.147492
H391	H	-0.710014	-0.021429	-0.778471
H392	H	-0.376681	0.311904	-0.445137
H393	H	-0.043347	0.645238	-0.111804
H394	H	-0.767314	-0.028837	-0.845781
H395	H	-0.433981	0.304496	-0.512447
H396	H	-0.100647	0.637830	-0.179114
