data_functionalizedCrystal
_audit_creation_method	'MofGen! by Chris Wilmer'
_symmetry_space_group_name_H-M	'P1'
_symmetry_Int_Tables_number	1
_symmetry_cell_setting	triclinic
loop_
_symmetry_equiv_pos_as_xyz
  x,y,z
_cell_length_a	23.532407
_cell_length_b	15.625950
_cell_length_c	14.185569
_cell_angle_alpha	120.545593
_cell_angle_beta	76.924933
_cell_angle_gamma	83.582877
loop_
_atom_site_label
_atom_site_type_symbol
_atom_site_fract_x
_atom_site_fract_y
_atom_site_fract_z
O1	O	0.014754	1.290518	0.385860
O2	O	0.039811	1.002143	0.280991
O3	O	-0.056106	1.155031	0.336608
O4	O	0.110671	1.137630	0.330243
O5	O	-0.084438	1.200196	0.519872
O6	O	0.011479	1.047308	0.464255
O7	O	-0.013578	1.335682	0.569124
Cu8	Cu	-0.003637	1.195619	0.533423
Cu9	Cu	0.029869	1.142207	0.316692
O10	O	0.082339	1.182794	0.513507
C11	C	0.027316	0.987839	0.359209
C12	C	0.032288	0.877928	0.319240
C13	C	-0.028527	0.639415	0.687139
C14	C	-0.023836	0.536122	0.649530
C15	C	0.007048	0.486937	0.449762
C16	C	0.002362	0.590227	0.487353
C17	C	-0.015426	0.666459	0.606043
C18	C	0.015464	0.617271	0.406258
C19	C	0.010775	0.720553	0.443847
C20	C	-0.007014	0.796791	0.562532
C21	C	-0.020115	0.769741	0.643633
C22	C	0.033248	0.541038	0.287568
C23	C	0.046349	0.568082	0.206473
C24	C	0.041665	0.671365	0.244061
C25	C	0.023875	0.747603	0.362746
C26	C	0.054765	0.698414	0.162961
C27	C	0.050077	0.801696	0.200550
C28	C	0.019187	0.850884	0.400336
C29	C	-0.091466	1.177171	0.428082
C30	C	-0.154615	1.175842	0.427606
C31	C	-0.557995	1.257948	0.457410
C32	C	-0.617330	1.256709	0.456952
O33	O	-0.658042	1.332827	0.484595
N34	N	-0.635211	1.165821	0.423900
C35	C	-0.593753	1.076162	0.391293
O36	O	-0.614410	0.998740	0.363137
C37	C	-0.534418	1.077400	0.391744
C38	C	-0.516542	1.168298	0.424809
C39	C	-0.540118	1.348838	0.490471
C40	C	-0.480788	1.350077	0.490931
C41	C	-0.439335	1.260427	0.458330
C42	C	-0.457212	1.169537	0.425269
C43	C	-0.492960	0.987741	0.359130
C44	C	-0.433622	0.988987	0.359582
C45	C	-0.415746	1.079884	0.392647
C46	C	-0.356430	1.081125	0.393128
N47	N	-0.338548	1.172014	0.426180
C48	C	-0.380001	1.261665	0.458781
C49	C	-0.718359	1.073569	0.390347
C50	C	-0.777694	1.072331	0.389904
C51	C	-0.801266	1.252878	0.455561
C52	C	-0.741932	1.254117	0.456011
C53	C	-0.700478	1.164457	0.423399
C54	C	-0.255403	1.264260	0.459745
C55	C	-0.196067	1.265493	0.460207
C56	C	-0.172499	1.084945	0.394545
C57	C	-0.231830	1.083713	0.394089
C58	C	-0.273281	1.173378	0.426688
O59	O	-0.315684	1.005047	0.365495
O60	O	-0.359332	1.339070	0.486918
C61	C	0.117699	1.160653	0.422031
C62	C	0.180849	1.161981	0.422499
C63	C	-0.001083	1.349986	0.490904
C64	C	-0.006054	1.459895	0.530865
N65	N	-0.027204	1.233193	0.685863
N66	N	0.053432	1.104640	0.164255
C67	C	0.122647	0.994246	0.966590
C68	C	0.104799	1.022715	1.081968
C69	C	0.019891	1.158125	1.131187
C70	C	0.037730	1.129664	1.015810
C71	C	0.089109	1.047725	0.933520
C72	C	0.004193	1.183142	0.982740
C73	C	0.022033	1.154687	0.867374
C74	C	0.073411	1.072753	0.785078
C75	C	0.106949	1.019269	0.818154
C76	C	-0.047184	1.265086	1.065034
C77	C	-0.080721	1.318564	1.031964
C78	C	-0.062884	1.290104	0.916595
C79	C	-0.011506	1.208170	0.834299
C80	C	-0.096423	1.343588	0.883520
C81	C	-0.078582	1.315132	0.768154
C82	C	0.006334	1.179715	0.718933
H83	H	-0.043004	0.701487	0.783787
O84	O	-0.580304	1.435963	0.522023
C85	C	-0.558300	1.467781	0.447178
H86	H	-0.506974	1.435195	0.406514
H87	H	-0.570344	1.555666	0.498581
H88	H	-0.579787	1.438212	0.375920
O89	O	-0.036466	0.509711	0.728201
C90	C	0.015268	0.439779	0.708198
H91	H	0.046028	0.399054	0.614416
H92	H	0.000797	0.380191	0.725006
H93	H	0.040811	0.483541	0.768994
H94	H	-0.246390	1.009705	0.367195
O95	O	-0.064554	1.292575	1.177046
C96	C	-0.076910	1.208213	1.181480
H97	H	-0.088131	1.153363	1.101025
H98	H	-0.117107	1.237388	1.262345
H99	H	-0.035484	1.165673	1.184656
O100	O	0.090828	1.045184	0.673038
C101	C	0.149777	1.055234	0.641596
H102	H	0.159501	1.112478	0.722918
H103	H	0.153389	1.084405	0.581931
H104	H	0.184110	0.976950	0.594516
O105	O	-0.463426	1.438393	0.523220
C106	C	-0.444476	1.467907	0.620346
H107	H	-0.465925	1.432661	0.667930
H108	H	-0.459161	1.555614	0.681236
H109	H	-0.393021	1.439312	0.590413
H110	H	0.148783	0.952539	0.751145
O111	O	0.062916	0.827901	0.121728
C112	C	0.123395	0.776002	0.047503
H113	H	0.150551	0.753826	0.092639
H114	H	0.144082	0.828853	0.025496
H115	H	0.124459	0.703362	-0.035646
H116	H	-0.010832	0.880888	0.593136
O117	O	-0.130687	1.398029	1.111907
C118	C	-0.173228	1.361811	1.159520
H119	H	-0.164508	1.275165	1.096380
H120	H	-0.220951	1.402971	1.175682
H121	H	-0.168625	1.378009	1.244999
H122	H	0.021529	0.424856	0.353124
O123	O	-0.724660	1.342485	0.488102
C124	C	-0.773982	1.421348	0.516808
H125	H	-0.807455	1.385443	0.472169
H126	H	-0.756860	1.471730	0.486688
H127	H	-0.797514	1.470642	0.614776
O128	O	0.172489	0.914534	0.886559
C129	C	0.155653	0.837317	0.797732
H130	H	0.105429	0.844675	0.832065
H131	H	0.183436	0.758066	0.767734
H132	H	0.164480	0.846770	0.721572
H133	H	0.060830	0.506002	0.109835
H134	H	0.004711	0.912956	0.496984
H135	H	-0.105892	1.358681	0.741230
O136	O	0.072141	0.624296	0.047675
C137	C	0.125707	0.551377	0.015702
H138	H	0.150439	0.588288	0.080734
H139	H	0.156183	0.524523	-0.074506
H140	H	0.113815	0.482357	0.015021
O141	O	-0.132142	0.997941	0.362861
C142	C	-0.075947	1.018543	0.370383
H143	H	-0.072615	1.087750	0.363974
H144	H	-0.037634	0.948258	0.296380
H145	H	-0.072148	1.036278	0.456875
H146	H	-0.138252	1.410310	0.950537
O147	O	0.137429	0.970615	1.113882
C148	C	0.186608	0.892210	1.016513
H149	H	0.176026	0.871047	0.933958
H150	H	0.194499	0.821275	1.021075
H151	H	0.229068	0.920904	1.015771
O152	O	-0.029964	1.237834	1.211120
C153	C	-0.021757	1.328795	1.218491
H154	H	0.028741	1.321021	1.186796
H155	H	-0.042791	1.397262	1.312440
H156	H	-0.044586	1.341658	1.162201
O157	O	-0.178702	1.353771	0.492137
C158	C	-0.185704	1.385004	0.417097
H159	H	-0.184852	1.315492	0.331423
H160	H	-0.147104	1.418919	0.400431
H161	H	-0.230816	1.445856	0.458756
O162	O	-0.037497	0.843790	0.758950
C163	C	-0.095682	0.845187	0.814807
H164	H	-0.120264	0.810565	0.749007
H165	H	-0.122533	0.928189	0.886260
H166	H	-0.091298	0.797938	0.854320
H167	H	-0.289146	1.337273	0.486287
O168	O	0.037889	0.440656	0.250887
C169	C	0.097864	0.380954	0.179274
H170	H	0.120840	0.422220	0.141204
H171	H	0.097344	0.302415	0.105966
H172	H	0.123906	0.369950	0.232742
H173	H	-0.684611	1.000555	0.363798
H174	H	-0.835028	1.325876	0.482102
H175	H	-0.792245	0.998318	0.362998
H176	H	-0.507502	0.913721	0.332198
O177	O	-0.393386	0.901789	0.327733
C178	C	-0.386021	0.823191	0.212724
H179	H	-0.427558	0.840169	0.190087
H180	H	-0.380571	0.745824	0.204017
H181	H	-0.343980	0.820024	0.151072
H182	H	0.048168	1.112985	0.651924
