data_functionalizedCrystal
_audit_creation_method	'MofGen! by Chris Wilmer'
_symmetry_space_group_name_H-M	'P1'
_symmetry_Int_Tables_number	1
_symmetry_cell_setting	triclinic
loop_
_symmetry_equiv_pos_as_xyz
  x,y,z
_cell_length_a	13.033286
_cell_length_b	16.959453
_cell_length_c	13.032268
_cell_angle_alpha	82.853932
_cell_angle_beta	74.836591
_cell_angle_gamma	82.850348
loop_
_atom_site_label
_atom_site_type_symbol
_atom_site_fract_x
_atom_site_fract_y
_atom_site_fract_z
Zn1	Zn	1.547442	-0.500992	0.393879
Zn2	Zn	1.569890	-0.618282	0.216277
Zn3	Zn	1.392394	-0.471260	0.238890
Zn4	Zn	1.369805	-0.618251	0.416431
O5	O	1.469882	-0.552196	0.316370
O6	O	1.699044	-0.529007	0.351418
O7	O	1.565193	-0.586350	0.070649
O8	O	1.413020	-0.364601	0.259475
O9	O	1.715537	-0.615179	0.220935
O10	O	1.526933	-0.386445	0.373345
O11	O	1.434787	-0.478333	0.087262
O12	O	1.240772	-0.478303	0.281343
O13	O	1.374520	-0.615127	0.562068
O14	O	1.224176	-0.586297	0.411782
O15	O	1.505030	-0.528977	0.545499
O16	O	1.543289	-0.728881	0.242803
O17	O	1.396287	-0.728858	0.389855
C18	C	1.193938	-0.529071	0.351464
C19	C	1.075884	-0.519199	0.366503
C20	C	1.031425	-0.557351	0.308547
C21	C	0.909410	-0.547149	0.324089
C22	C	1.469799	-0.757552	0.316342
C23	C	1.469856	-0.845415	0.316353
C24	C	1.529268	-1.228228	0.375779
C25	C	1.410774	-1.205599	0.257080
C26	C	1.410737	-1.123048	0.257061
C27	C	1.469966	-1.093083	0.316403
C28	C	1.529231	-1.145670	0.375764
C29	C	1.351465	-1.070455	0.197710
C30	C	1.351426	-0.987899	0.197689
C31	C	1.410661	-0.957933	0.257025
C32	C	1.469929	-1.010525	0.316388
C33	C	1.529158	-0.980560	0.375729
C34	C	1.588432	-1.033151	0.435086
C35	C	1.588466	-1.115704	0.435100
C36	C	1.410627	-0.875380	0.257012
C37	C	1.529121	-0.898002	0.375714
C38	C	1.746905	-0.575413	0.281139
C39	C	1.864955	-0.585306	0.266125
C40	C	1.434751	-0.575365	0.593399
C41	C	1.419780	-0.585237	0.711453
C42	C	1.469992	-0.346043	0.316417
C43	C	1.470039	-0.258193	0.316437
C44	C	1.504938	-0.529066	0.040410
C45	C	1.520115	-0.518988	-0.077669
C46	C	1.477679	-0.547014	0.755886
C47	C	1.462208	-0.557217	0.877901
H48	H	1.023616	-0.478985	0.427630
O49	O	1.389256	-0.605173	0.940242
C50	C	1.286816	-0.576800	0.926664
H51	H	1.285332	-0.510672	0.896797
H52	H	1.267128	-0.611511	0.865887
C53	C	1.205340	-0.669464	1.070961
C54	C	1.203514	-0.588243	1.034286
H55	H	1.153954	-0.676526	1.137346
H56	H	1.274356	-0.688582	1.080107
H57	H	1.188936	-0.698381	1.020304
H58	H	1.219931	-0.559329	1.084936
H59	H	1.134499	-0.569120	1.025152
H60	H	1.581137	-0.478702	0.870047
H61	H	1.577356	-0.873611	0.424033
H62	H	1.538699	-0.506732	0.703598
O63	O	1.347125	-0.633395	0.773849
C64	C	1.399487	-0.694826	0.830328
H65	H	1.487352	-0.703933	0.786195
H66	H	1.392575	-0.677673	0.913891
C67	C	1.239412	-0.761613	0.892960
C68	C	1.347327	-0.772803	0.838751
H69	H	1.207236	-0.809712	0.898161
H70	H	1.204133	-0.720224	0.854913
H71	H	1.233667	-0.747316	0.962591
H72	H	1.353070	-0.787089	0.769117
H73	H	1.382606	-0.814196	0.876787
H74	H	1.303241	-1.094859	0.149400
H75	H	1.577531	-1.271051	0.424102
H76	H	1.083692	-0.597571	0.247427
H77	H	0.857146	-0.506932	0.385221
O78	O	1.353173	-1.234801	0.199594
C79	C	1.276866	-1.281856	0.268750
H80	H	1.304048	-1.304040	0.344521
H81	H	1.196662	-1.244456	0.290352
C82	C	1.231753	-1.326565	0.119691
C83	C	1.265142	-1.353817	0.212752
H84	H	1.224516	-1.370952	0.085149
H85	H	1.283159	-1.294860	0.073099
H86	H	1.164919	-1.295398	0.137707
H87	H	1.331980	-1.384975	0.194734
H88	H	1.213747	-1.385529	0.259340
H89	H	0.917217	-0.625533	0.205005
H90	H	1.636651	-1.008744	0.483408
O91	O	1.645859	-1.166827	0.492896
C92	C	1.576646	-1.215259	0.569125
H93	H	1.492165	-1.183945	0.586244
H94	H	1.577193	-1.274782	0.536752
C95	C	1.718184	-1.268516	0.651976
C96	C	1.614424	-1.230053	0.673008
H97	H	1.741489	-1.277646	0.716054
H98	H	1.764816	-1.235890	0.600616
H99	H	1.718626	-1.318115	0.624995
H100	H	1.613986	-1.180452	0.699974
H101	H	1.567793	-1.262672	0.724374
H102	H	1.303162	-0.945084	0.149356
H103	H	1.362361	-0.832564	0.208690
