data_functionalizedCrystal
_audit_creation_method	'MofGen! by Chris Wilmer'
_symmetry_space_group_name_H-M	'P1'
_symmetry_Int_Tables_number	1
_symmetry_cell_setting	triclinic
loop_
_symmetry_equiv_pos_as_xyz
  x,y,z
_cell_length_a	13.032831
_cell_length_b	10.686685
_cell_length_c	10.686551
_cell_angle_alpha	89.638883
_cell_angle_beta	77.928676
_cell_angle_gamma	79.058223
loop_
_atom_site_label
_atom_site_type_symbol
_atom_site_fract_x
_atom_site_fract_y
_atom_site_fract_z
Zn1	Zn	1.706643	-0.685426	-1.027433
Zn2	Zn	1.708624	-0.911585	-0.834108
Zn3	Zn	1.515870	-0.674694	-0.786413
Zn4	Zn	1.543044	-0.872055	-1.016668
O5	O	1.618545	-0.785940	-0.916156
O6	O	1.856041	-0.736462	-1.026253
O7	O	1.672512	-0.892214	-0.650511
O8	O	1.528975	-0.498874	-0.802929
O9	O	1.857496	-0.902620	-0.884219
O10	O	1.669135	-0.506758	-0.980005
O11	O	1.530896	-0.718171	-0.615470
O12	O	1.370339	-0.679840	-0.792491
O13	O	1.575289	-0.835246	-1.195366
O14	O	1.390304	-0.824839	-0.961659
O15	O	1.695484	-0.698131	-1.203275
O16	O	1.698861	-1.083586	-0.873781
O17	O	1.577210	-1.054543	-1.007907
C18	C	1.341653	-0.746886	-0.870732
C19	C	1.223201	-0.730207	-0.851333
C20	C	1.641230	-1.115024	-0.944884
C21	C	1.651035	-1.255819	-0.957232
C22	C	1.638197	-0.763476	-1.246570
C23	C	1.646571	-0.753903	-1.387373
C24	C	1.180299	-0.794645	-0.926280
C25	C	1.057873	-0.777408	-0.906232
C26	C	1.896519	-0.825148	-0.961757
C27	C	2.014975	-0.841856	-0.981190
C28	C	1.595802	-0.455574	-0.887348
C29	C	1.586111	-0.314791	-0.875072
C30	C	1.599025	-0.808234	-0.587029
C31	C	1.590833	-0.817480	-0.446230
H32	H	1.003971	-0.709469	-0.827223
H33	H	1.169296	-0.662273	-0.772330
H34	H	1.234204	-0.862570	-1.005292
O35	O	1.711307	-0.680384	-1.455743
C36	C	1.817531	-0.725189	-1.443315
H37	H	1.827737	-0.829583	-1.416569
H38	H	1.836201	-0.666363	-1.365264
C39	C	1.882022	-0.584357	-1.604153
C40	C	1.894559	-0.712580	-1.571313
H41	H	1.929538	-0.576575	-1.683105
H42	H	1.810457	-0.554167	-1.612523
H43	H	1.897579	-0.535350	-1.539100
H44	H	1.878989	-0.761581	-1.636357
H45	H	1.966124	-0.742778	-1.562957
O46	O	1.079375	-0.922737	-1.075524
C47	C	1.143648	-0.854175	-1.161667
H48	H	1.150927	-0.763460	-1.111451
H49	H	1.105468	-0.828031	-1.247398
C50	C	1.246657	-1.048556	-1.269467
C51	C	1.255605	-0.937144	-1.207787
H52	H	1.315716	-1.099735	-1.297921
H53	H	1.203353	-1.094748	-1.211434
H54	H	1.214836	-1.026753	-1.340901
H55	H	1.287412	-0.958947	-1.136345
H56	H	1.298917	-0.890957	-1.265809
H57	H	1.714122	-1.313043	-1.037010
H58	H	1.523026	-1.257563	-0.795280
O59	O	1.526404	-0.891247	-1.377733
C60	C	1.588221	-0.986772	-1.318318
H61	H	1.664753	-0.954813	-1.307986
H62	H	1.609383	-1.078867	-1.379335
C63	C	1.429779	-1.049137	-1.197639
C64	C	1.523773	-1.009880	-1.184939
H65	H	1.390024	-1.063397	-1.115367
H66	H	1.388131	-0.984784	-1.237671
H67	H	1.447428	-1.125879	-1.248491
H68	H	1.506122	-0.933132	-1.134102
H69	H	1.565416	-1.074221	-1.144895
