data_functionalizedCrystal
_audit_creation_method	'MofGen! by Chris Wilmer'
_symmetry_space_group_name_H-M	'P1'
_symmetry_Int_Tables_number	1
_symmetry_cell_setting	triclinic
loop_
_symmetry_equiv_pos_as_xyz
  x,y,z
_cell_length_a	17.699077
_cell_length_b	10.723023
_cell_length_c	16.176319
_cell_angle_alpha	89.994236
_cell_angle_beta	89.993140
_cell_angle_gamma	83.874062
loop_
_atom_site_label
_atom_site_type_symbol
_atom_site_fract_x
_atom_site_fract_y
_atom_site_fract_z
O1	O	1.005076	0.157762	-0.068734
O2	O	1.505076	0.657762	0.431266
O3	O	0.784827	0.178299	-0.068738
O4	O	1.284827	0.678299	0.431262
O5	O	0.900032	-0.013633	-0.068732
O6	O	1.400032	0.486367	0.431268
O7	O	0.889871	0.349694	-0.068739
O8	O	1.389871	0.849694	0.431261
O9	O	0.900016	-0.013645	0.068761
O10	O	1.400016	0.486355	0.568761
O11	O	0.784811	0.178287	0.068756
O12	O	1.284811	0.678287	0.568756
O13	O	1.005060	0.157750	0.068759
O14	O	1.505060	0.657750	0.568759
Cu15	Cu	0.894934	0.168017	0.081312
Cu16	Cu	1.394934	0.668017	0.581312
Cu17	Cu	0.894953	0.168032	-0.081290
Cu18	Cu	1.394953	0.668032	0.418710
O19	O	0.889855	0.349682	0.068754
O20	O	1.389855	0.849682	0.568754
C21	C	0.756617	0.177559	0.000008
C22	C	1.256617	0.677559	0.500008
C23	C	0.672585	0.175355	0.000007
C24	C	1.172585	0.675355	0.500007
C25	C	0.633102	0.174310	0.074955
C26	C	1.133102	0.674310	0.574955
C27	C	0.554147	0.172219	0.074956
C28	C	1.054147	0.672219	0.574956
C29	C	0.514674	0.171182	0.000008
C30	C	1.014674	0.671182	0.500008
C31	C	0.554163	0.172224	-0.074946
C32	C	1.054163	0.672224	0.425054
C33	C	0.633118	0.174306	-0.074946
C34	C	1.133118	0.674306	0.425054
C35	C	0.235747	0.163827	-0.074948
C36	C	0.735747	0.663827	0.425052
C37	C	0.156786	0.161748	-0.074942
C38	C	0.656786	0.661748	0.425058
C39	C	0.156775	0.161740	0.074955
C40	C	0.656775	0.661740	0.574955
C41	C	0.235730	0.163822	0.074955
C42	C	0.735730	0.663822	0.574955
C43	C	0.275212	0.164856	0.000001
C44	C	0.775212	0.664856	0.500001
C45	C	0.360825	0.167121	0.000001
C46	C	0.860825	0.667121	0.500001
C47	C	0.429062	0.168927	0.000007
C48	C	0.929062	0.668927	0.500007
C49	C	0.899285	-0.060126	0.000013
C50	C	1.399285	0.439874	0.500013
C51	C	0.897073	-0.198642	0.000011
C52	C	1.397073	0.301358	0.500011
C53	C	0.896095	-0.260385	-0.071216
C54	C	1.396095	0.239615	0.428784
C55	C	0.893809	-0.403549	-0.071220
C56	C	1.393809	0.096451	0.428780
C57	C	1.033270	0.158490	0.000011
C58	C	1.533270	0.658490	0.500011
C59	C	1.117302	0.160694	0.000008
C60	C	1.617302	0.660694	0.500008
C61	C	0.890602	0.396175	0.000006
C62	C	1.390602	0.896175	0.500006
C63	C	0.892814	0.534691	0.000004
C64	C	1.392814	1.034691	0.500004
N65	N	0.894926	0.168006	0.195677
N66	N	1.394926	0.668006	0.695677
N67	N	0.894967	0.168033	-0.195655
N68	N	1.394967	0.668033	0.304345
C69	C	0.945955	0.083053	0.238944
C70	C	1.445955	0.583053	0.738944
C71	C	0.945959	0.083052	0.325491
C72	C	1.445959	0.583052	0.825491
C73	C	0.894937	0.168011	0.368770
C74	C	1.394937	0.668011	0.868770
C75	C	0.843903	0.252968	0.325497
C76	C	1.343903	0.752968	0.825497
C77	C	0.843896	0.252962	0.238951
C78	C	1.343896	0.752962	0.738951
C79	C	0.843929	0.252991	0.674525
C80	C	1.343929	0.752991	1.174525
C81	C	0.843941	0.252993	0.761077
C82	C	1.343941	0.752993	1.261077
C83	C	0.945992	0.083081	0.761064
C84	C	1.445992	0.583081	1.261064
C85	C	0.945985	0.083076	0.674519
C86	C	1.445985	0.583076	1.174519
C87	C	0.894948	0.168028	0.631254
C88	C	1.394948	0.668028	1.131254
C89	C	0.894944	0.168026	0.537410
C90	C	1.394944	0.668026	1.037410
C91	C	0.894945	0.168019	0.462612
C92	C	1.394945	0.668019	0.962612
H93	H	0.665234	0.175164	0.135987
H94	H	1.165234	0.675164	0.635987
Cl95	Cl	0.892517	-0.485521	-0.165374
Cl96	Cl	1.392517	0.014479	0.334626
Cl97	Cl	0.682754	0.175614	-0.169171
Cl98	Cl	1.182754	0.675614	0.330829
Cl99	Cl	0.779740	0.359761	0.184560
Cl100	Cl	1.279740	0.859761	0.684560
H101	H	0.987510	0.013876	0.360718
H102	H	1.487510	0.513876	0.860718
Cl103	Cl	0.897434	-0.178373	-0.165364
Cl104	Cl	1.397434	0.321627	0.334636
H105	H	0.893659	-0.412220	0.060987
H106	H	1.393659	0.087780	0.560987
Cl107	Cl	1.010151	-0.023723	0.815459
Cl108	Cl	1.510151	0.476277	1.315459
Cl109	Cl	0.779794	0.359804	0.815484
Cl110	Cl	1.279794	0.859804	1.315484
Cl111	Cl	0.779774	0.359790	0.620140
Cl112	Cl	1.279774	0.859790	1.120140
H113	H	0.987506	0.013876	0.203711
H114	H	1.487506	0.513876	0.703711
H115	H	0.522005	0.171347	0.135987
H116	H	1.022005	0.671347	0.635987
Cl117	Cl	0.895746	-0.280656	0.094159
Cl118	Cl	1.395746	0.219344	0.594159
H119	H	0.987534	0.013899	0.639284
H120	H	1.487534	0.513899	1.139284
Cl121	Cl	0.285371	0.165130	-0.169175
Cl122	Cl	0.785371	0.665130	0.330825
H123	H	0.802356	0.322139	0.360740
H124	H	1.302356	0.822139	0.860740
H125	H	0.267864	0.164672	0.135986
H126	H	0.767864	0.664672	0.635986
H127	H	0.124620	0.160892	0.135986
H128	H	0.624620	0.660892	0.635986
H129	H	0.124650	0.160903	-0.135978
H130	H	0.624650	0.660903	0.364022
Cl131	Cl	0.504544	0.170874	-0.169168
Cl132	Cl	1.004544	0.670874	0.330832
