data_functionalizedCrystal
_audit_creation_method	'MofGen! by Chris Wilmer'
_symmetry_space_group_name_H-M	'P1'
_symmetry_Int_Tables_number	1
_symmetry_cell_setting	triclinic
loop_
_symmetry_equiv_pos_as_xyz
  x,y,z
_cell_length_a	10.654549
_cell_length_b	10.654545
_cell_length_c	13.448316
_cell_angle_alpha	89.995767
_cell_angle_beta	89.992232
_cell_angle_gamma	84.486172
loop_
_atom_site_label
_atom_site_type_symbol
_atom_site_fract_x
_atom_site_fract_y
_atom_site_fract_z
O1	O	1.667843	0.176431	-0.082710
O2	O	1.302365	0.193231	-0.082707
O3	O	1.493506	0.002092	-0.082708
O4	O	1.476702	0.367570	-0.082709
O5	O	1.493482	0.002080	0.082676
O6	O	1.302341	0.193219	0.082677
O7	O	1.667819	0.176419	0.082673
Cu8	Cu	1.485078	0.184818	0.097776
Cu9	Cu	1.485106	0.184832	-0.097809
O10	O	1.476678	0.367558	0.082675
C11	C	1.255555	0.191990	-0.000014
C12	C	1.116112	0.188296	-0.000013
C13	C	0.826129	0.409919	-0.000042
C14	C	0.877666	0.525937	-0.000038
C15	C	1.008684	0.529413	-0.000025
C16	C	1.088169	0.416857	-0.000019
C17	C	1.036632	0.300839	-0.000022
C18	C	0.905609	0.297376	-0.000032
C19	C	1.064575	0.072277	-0.000017
C20	C	0.933557	0.068799	-0.000023
C21	C	1.144060	-0.040278	-0.000010
C22	C	1.092523	-0.156300	-0.000007
C23	C	0.961496	-0.159771	-0.000019
C24	C	0.882019	-0.047220	-0.000026
C25	C	1.492260	-0.044712	-0.000018
C26	C	1.488568	-0.184155	-0.000024
C27	C	1.488609	-0.184151	-0.180330
C28	C	1.486900	-0.249658	-0.270483
C29	C	1.483431	-0.380677	-0.270484
C30	C	1.481667	-0.446191	-0.180323
C31	C	1.483376	-0.380683	-0.090170
C32	C	1.486849	-0.249662	-0.090179
C33	C	1.483326	-0.380687	0.090134
C34	C	1.486804	-0.249669	0.090138
C35	C	1.481562	-0.446201	0.180296
C36	C	1.483280	-0.380694	0.270451
C37	C	1.486751	-0.249668	0.270448
C38	C	1.488513	-0.184162	0.180290
C39	C	1.714629	0.177660	-0.000021
C40	C	1.854072	0.181354	-0.000029
C41	C	1.477924	0.414362	-0.000018
C42	C	1.481617	0.553805	-0.000018
N43	N	1.485067	0.184807	0.235340
N44	N	1.485127	0.184833	-0.235374
C45	C	1.569731	0.100206	0.287380
C46	C	1.569739	0.100205	0.391483
C47	C	1.485087	0.184812	0.443545
C48	C	1.400414	0.269417	0.391498
C49	C	1.400401	0.269411	0.287397
C50	C	1.400449	0.269426	0.608478
C51	C	1.400463	0.269434	0.712587
C52	C	1.569786	0.100220	0.712565
C53	C	1.569773	0.100214	0.608464
C54	C	1.485102	0.184821	0.556424
H55	H	0.812935	0.617577	-0.000047
H56	H	1.478827	-0.552872	-0.180332
O57	O	1.488230	-0.186149	0.358086
C58	C	1.378765	-0.204866	0.412902
H59	H	1.340059	-0.295570	0.387264
H60	H	1.403029	-0.212334	0.495381
H61	H	1.304691	-0.121832	0.400389
O62	O	1.652038	0.018204	0.442149
C63	C	1.730113	0.086203	0.502328
H64	H	1.680937	0.184012	0.517918
H65	H	1.749535	0.033974	0.575536
H66	H	1.823000	0.095606	0.462193
H67	H	1.331530	0.338329	0.754970
H68	H	1.481836	-0.434045	0.343853
H69	H	1.638709	0.031327	0.566075
H70	H	1.478730	-0.552882	0.180289
H71	H	0.719445	0.407100	-0.000035
H72	H	1.331496	0.338318	0.566111
H73	H	1.331458	0.338300	0.245027
H74	H	1.482027	-0.434012	-0.343894
H75	H	1.638729	0.031330	0.754942
H76	H	1.331483	0.338302	0.433892
O77	O	0.754768	-0.050751	-0.000172
C78	C	0.718686	-0.114561	-0.085845
H79	H	0.802357	-0.179293	-0.114391
H80	H	0.637891	-0.173063	-0.066593
H81	H	0.686633	-0.042927	-0.145825
O82	O	1.169910	-0.265506	0.000041
C83	C	1.296600	-0.237559	0.000017
H84	H	1.302474	-0.138868	0.031323
H85	H	1.355313	-0.309224	0.048036
H86	H	1.334458	-0.241989	-0.079325
O87	O	1.491714	-0.056870	0.180414
C88	C	1.384260	0.000176	0.229830
H89	H	1.346048	-0.070902	0.282473
H90	H	1.410982	0.084848	0.274147
H91	H	1.308863	0.032711	0.172831
O92	O	1.491822	-0.056861	-0.180203
C93	C	1.384374	0.000196	-0.130785
H94	H	1.346150	-0.070880	-0.078147
H95	H	1.411108	0.084858	-0.086462
H96	H	1.308981	0.032747	-0.187783
O97	O	1.058606	0.642187	-0.000154
C98	C	1.018151	0.710855	-0.085827
H99	H	0.927002	0.675849	-0.114392
H100	H	1.000888	0.815285	-0.066567
H101	H	1.093848	0.696961	-0.145796
O102	O	1.652009	0.017897	0.236966
C103	C	1.726756	-0.056754	0.305227
H104	H	1.675262	-0.058646	0.379443
H105	H	1.745043	-0.156878	0.275157
H106	H	1.820404	-0.015104	0.316277
H107	H	0.919544	-0.254247	-0.000028
O108	O	1.488474	-0.185852	-0.357994
C109	C	1.381902	-0.096796	-0.363423
H110	H	1.346178	-0.072751	-0.285157
H111	H	1.408799	-0.007648	-0.401564
H112	H	1.304554	-0.137975	-0.407938
O113	O	1.215412	0.420457	0.000029
C114	C	1.243856	0.546992	-0.000004
H115	H	1.160433	0.609709	0.031301
H116	H	1.330650	0.556259	0.048013
H117	H	1.263486	0.577328	-0.079348
H118	H	1.250741	-0.037440	-0.000005
