data_functionalizedCrystal
_audit_creation_method	'MofGen! by Chris Wilmer'
_symmetry_space_group_name_H-M	'P1'
_symmetry_Int_Tables_number	1
_symmetry_cell_setting	triclinic
loop_
_symmetry_equiv_pos_as_xyz
  x,y,z
_cell_length_a	16.120297
_cell_length_b	14.908780
_cell_length_c	14.908520
_cell_angle_alpha	83.210051
_cell_angle_beta	95.992230
_cell_angle_gamma	90.590436
loop_
_atom_site_label
_atom_site_type_symbol
_atom_site_fract_x
_atom_site_fract_y
_atom_site_fract_z
Zn1	Zn	-0.559163	-1.330486	-0.313238
Zn2	Zn	-0.427349	-1.329320	-0.456938
Zn3	Zn	-0.412146	-1.187673	-0.313420
Zn4	Zn	-0.559092	-1.170350	-0.473275
O5	O	-0.489438	-1.254457	-0.389218
O6	O	-0.548069	-1.456628	-0.325386
O7	O	-0.308670	-1.317292	-0.431139
O8	O	-0.425316	-1.214355	-0.186358
O9	O	-0.451226	-1.455771	-0.430962
O10	O	-0.533328	-1.319279	-0.186224
O11	O	-0.297501	-1.213225	-0.325697
O12	O	-0.425247	-1.059079	-0.341539
O13	O	-0.675764	-1.184831	-0.458806
O14	O	-0.533208	-1.046351	-0.458983
O15	O	-0.675815	-1.302481	-0.341228
O16	O	-0.451158	-1.300495	-0.586143
O17	O	-0.547949	-1.183700	-0.598146
C18	C	-0.477571	-1.019967	-0.402054
C19	C	-0.472515	-0.919649	-0.407569
C20	C	-0.564028	-0.732011	-0.308164
C21	C	-0.559280	-0.637754	-0.313342
C22	C	-0.458267	-0.636874	-0.423098
C23	C	-0.463015	-0.731132	-0.417920
C24	C	-0.515898	-0.778697	-0.360452
C25	C	-0.520650	-0.872956	-0.355279
C26	C	-0.419633	-0.872076	-0.465030
C27	C	-0.414885	-0.777818	-0.470208
C28	C	-0.706884	-1.241854	-0.401819
C29	C	-0.799547	-1.236483	-0.407189
C30	C	-0.969201	-1.226645	-0.416975
C31	C	-1.010522	-1.282464	-0.361179
C32	C	-1.104923	-1.276990	-0.366624
C33	C	-0.874791	-1.232117	-0.411531
C34	C	-0.272836	-1.267068	-0.376597
C35	C	-0.180170	-1.272629	-0.370962
C36	C	-0.501215	-1.240115	-0.625084
C37	C	-0.506285	-1.234060	-0.725985
C38	C	-0.501345	-0.489863	-0.376324
C39	C	-0.506402	-0.590182	-0.370809
C40	C	-0.415116	-1.344413	-0.903029
C41	C	-0.419878	-1.338728	-0.997835
C42	C	-0.520574	-1.217007	-1.010404
C43	C	-0.515812	-1.222693	-0.915598
C44	C	-0.463081	-1.286397	-0.861914
C45	C	-0.458315	-1.292078	-0.767107
C46	C	-0.559015	-1.170362	-0.779678
C47	C	-0.563777	-1.164677	-0.874483
C48	C	-0.477634	-1.268880	-0.152430
C49	C	-0.472604	-1.275025	-0.051525
H50	H	-0.563711	-0.911683	-0.308486
C51	C	-0.962544	-1.352586	-0.291126
C52	C	-0.968883	-1.350845	-0.188994
C53	C	-0.920902	-1.420967	-0.118947
C54	C	-0.866583	-1.492830	-0.151032
C55	C	-0.860243	-1.494574	-0.253168
C56	C	-0.908223	-1.424452	-0.323215
H57	H	-1.009095	-1.297645	-0.165239
H58	H	-0.925597	-1.419676	-0.043339
H59	H	-0.831066	-1.544739	-0.099179
H60	H	-0.820031	-1.547774	-0.276923
H61	H	-0.903529	-1.425744	-0.398823
C62	C	-0.622196	-0.784336	-0.244950
C63	C	-0.585877	-0.855544	-0.167970
C64	C	-0.644045	-0.907866	-0.104753
C65	C	-0.738534	-0.888980	-0.118517
C66	C	-0.774858	-0.817768	-0.195501
C67	C	-0.716690	-0.765447	-0.258718
H68	H	-0.515926	-0.869527	-0.157778
H69	H	-0.617155	-0.960581	-0.047765
H70	H	-0.781594	-0.927711	-0.071720
H71	H	-0.844809	-0.803785	-0.205693
H72	H	-0.743580	-0.712731	-0.315706
C73	C	-0.366689	-0.923432	-0.522555
C74	C	-0.308526	-0.871107	-0.585770
C75	C	-0.255588	-0.922462	-0.643298
C76	C	-0.260812	-1.026141	-0.637612
C77	C	-0.318977	-1.078472	-0.574394
C78	C	-0.371915	-1.027117	-0.516866
H79	H	-0.304657	-0.794352	-0.589981
H80	H	-0.212531	-0.883723	-0.690096
H81	H	-0.221624	-1.064157	-0.680198
H82	H	-0.322846	-1.155226	-0.570183
H83	H	-0.414972	-1.065856	-0.470068
H84	H	-0.371827	-0.739078	-0.516994
C85	C	-0.400099	-0.584539	-0.486304
C86	C	-0.329474	-0.525908	-0.446621
C87	C	-0.271306	-0.473570	-0.509826
C88	C	-0.283762	-0.479863	-0.612716
C89	C	-0.354390	-0.538496	-0.652405
C90	C	-0.412558	-0.590834	-0.589199
H91	H	-0.320251	-0.521248	-0.370451
H92	H	-0.219023	-0.430166	-0.480445
H93	H	-0.240702	-0.441119	-0.659504
H94	H	-0.363613	-0.543156	-0.728574
H95	H	-0.464841	-0.634238	-0.618580
H96	H	-0.598069	-1.123119	-0.746191
C97	C	-1.017182	-1.156552	-0.487046
C98	C	-0.969409	-1.091895	-0.551700
C99	C	-1.017403	-1.021812	-0.621778
C100	C	-1.113171	-1.016385	-0.627201
C101	C	-1.160950	-1.081043	-0.562544
C102	C	-1.112956	-1.151127	-0.492466
H103	H	-0.898511	-1.095911	-0.547688
H104	H	-0.982033	-0.973947	-0.669642
H105	H	-1.148699	-0.964505	-0.679077
H106	H	-1.231848	-1.077028	-0.566557
H107	H	-1.148325	-1.198991	-0.444603
H108	H	-0.415377	-1.343947	-0.723397
C109	C	-0.612226	-0.586398	-0.255828
C110	C	-0.676327	-0.515429	-0.302620
C111	C	-0.729275	-0.464074	-0.245102
C112	C	-0.718122	-0.483686	-0.140791
C113	C	-0.654018	-0.554658	-0.093993
C114	C	-0.601070	-0.606014	-0.151512
H115	H	-0.684586	-0.500908	-0.379842
H116	H	-0.776729	-0.411536	-0.279745
H117	H	-0.757318	-0.445670	-0.098213
H118	H	-0.645760	-0.569180	-0.016772
H119	H	-0.553616	-0.658552	-0.116868
H120	H	-0.372174	-1.396278	-0.859318
C121	C	-0.367114	-1.402544	-1.043063
C122	C	-0.309114	-1.472613	-0.984008
C123	C	-0.256349	-1.536433	-1.029235
C124	C	-0.261583	-1.530184	-1.133517
C125	C	-0.319585	-1.460112	-1.192578
C126	C	-0.372351	-1.396292	-1.147351
H127	H	-0.305237	-1.477242	-0.906807
H128	H	-0.213412	-1.588305	-0.985514
H129	H	-0.222523	-1.577428	-1.166998
H130	H	-0.323462	-1.455483	-1.269780
H131	H	-0.415288	-1.344420	-1.191072
H132	H	-0.563511	-1.165147	-1.054130
H133	H	-0.606711	-1.112812	-0.918206
