data_functionalizedCrystal
_audit_creation_method	'MofGen! by Chris Wilmer'
_symmetry_space_group_name_H-M	'P1'
_symmetry_Int_Tables_number	1
_symmetry_cell_setting	triclinic
loop_
_symmetry_equiv_pos_as_xyz
  x,y,z
_cell_length_a	21.295417
_cell_length_b	19.077241
_cell_length_c	19.076919
_cell_angle_alpha	90.113904
_cell_angle_beta	92.266620
_cell_angle_gamma	87.677787
loop_
_atom_site_label
_atom_site_type_symbol
_atom_site_fract_x
_atom_site_fract_y
_atom_site_fract_z
Zn1	Zn	-0.228522	-1.058264	-0.440543
Zn2	Zn	0.271478	-0.558264	0.059457
Zn3	Zn	-0.329403	-1.062893	-0.323027
Zn4	Zn	0.170597	-0.562893	0.176973
Zn5	Zn	-0.228191	-0.945480	-0.318321
Zn6	Zn	0.271809	-0.445480	0.181679
Zn7	Zn	-0.337799	-0.940711	-0.435761
Zn8	Zn	0.162201	-0.440711	0.064239
O9	O	-0.280979	-1.001837	-0.379413
O10	O	0.219021	-0.501837	0.120587
O11	O	-0.238529	-1.157212	-0.428925
O12	O	0.261471	-0.657212	0.071075
O13	O	-0.312324	-1.051251	-0.224072
O14	O	0.187676	-0.551251	0.275928
O15	O	-0.140144	-0.960500	-0.334565
O16	O	0.359856	-0.460500	0.165435
O17	O	-0.312646	-1.160613	-0.342586
O18	O	0.187354	-0.660613	0.157414
O19	O	-0.140388	-1.043362	-0.424362
O20	O	0.359612	-0.543362	0.075638
O21	O	-0.237964	-0.964988	-0.220615
O22	O	0.262036	-0.464988	0.279385
O23	O	-0.246106	-0.846513	-0.329929
O24	O	0.253894	-0.346513	0.170071
O25	O	-0.326956	-0.952372	-0.534726
O26	O	0.173044	-0.452372	-0.034726
O27	O	-0.326635	-0.843010	-0.416212
O28	O	0.173365	-0.343010	0.083788
O29	O	-0.246671	-1.038738	-0.538239
O30	O	0.253329	-0.538738	-0.038239
O31	O	-0.418607	-1.046626	-0.337950
O32	O	0.081393	-0.546626	0.162050
O33	O	-0.424776	-0.956860	-0.420775
O34	O	0.075224	-0.456860	0.079225
C35	C	-0.287246	-0.819265	-0.372041
C36	C	0.212754	-0.319265	0.127959
C37	C	-0.289942	-0.741159	-0.368904
C38	C	0.210058	-0.241159	0.131096
C39	C	-0.252687	-0.702692	-0.412451
C40	C	0.247313	-0.202692	0.087549
C41	C	-0.255218	-0.629303	-0.409497
C42	C	0.244782	-0.129303	0.090503
C43	C	-0.295007	-0.594383	-0.363000
C44	C	0.204993	-0.094383	0.137000
C45	C	-0.332264	-0.632855	-0.319448
C46	C	0.167736	-0.132855	0.180552
C47	C	-0.329730	-0.706242	-0.322399
C48	C	0.170270	-0.206242	0.177601
C49	C	-0.306715	-0.375088	-0.349345
C50	C	0.193285	0.124912	0.150655
C51	C	-0.309248	-0.301696	-0.346399
C52	C	0.190752	0.198304	0.153601
C53	C	-0.232201	-0.298149	-0.436447
C54	C	0.267799	0.201851	0.063553
C55	C	-0.229673	-0.371538	-0.439397
C56	C	0.270327	0.128462	0.060603
C57	C	-0.266927	-0.410004	-0.395843
C58	C	0.233073	0.089996	0.104157
N59	N	-0.297597	-0.519368	-0.359981
N60	N	0.202403	-0.019368	0.140019
N61	N	-0.264334	-0.485017	-0.398858
N62	N	0.235666	0.014983	0.101142
C63	C	-0.444532	-1.001747	-0.379370
C64	C	0.055468	-0.501747	0.120630
C65	C	-0.514500	-1.001771	-0.379378
C66	C	-0.014500	-0.501771	0.120622
C67	C	-0.544134	-1.048551	-0.336298
C68	C	-0.044134	-0.548551	0.163702
C69	C	-0.609876	-1.048583	-0.336316
C70	C	-0.109876	-0.548583	0.163684
C71	C	-0.645981	-1.001824	-0.379405
C72	C	-0.145981	-0.501824	0.120595
C73	C	-0.616340	-0.955041	-0.422493
C74	C	-0.116340	-0.455041	0.077507
C75	C	-0.550599	-0.955014	-0.422480
C76	C	-0.050599	-0.455014	0.077520
N77	N	-0.751561	-0.940136	-0.382279
N78	N	-0.251561	-0.440136	0.117721
N79	N	-0.814012	-0.940163	-0.382288
N80	N	-0.314012	-0.440163	0.117712
C81	C	-0.844055	-1.001901	-0.379448
C82	C	-0.344055	-0.501901	0.120552
N83	N	-0.809287	-1.063612	-0.376586
N84	N	-0.309287	-0.563612	0.123414
N85	N	-0.746830	-1.063584	-0.376574
N86	N	-0.246830	-0.563584	0.123426
C87	C	-0.717266	-1.001847	-0.379424
C88	C	-0.217266	-0.501847	0.120576
C89	C	-0.944973	-1.048719	-0.336385
C90	C	-0.444973	-0.548719	0.163615
C91	C	-1.010717	-1.048752	-0.336407
C92	C	-0.510717	-0.548752	0.163593
C93	C	-1.017180	-0.955204	-0.422580
C94	C	-0.517180	-0.455204	0.077420
C95	C	-0.951438	-0.955177	-0.422562
C96	C	-0.451438	-0.455177	0.077438
C97	C	-0.915338	-1.001933	-0.379460
C98	C	-0.415338	-0.501933	0.120540
C99	C	-0.116787	-1.001947	-0.379472
C100	C	0.383213	-0.501947	0.120528
C101	C	-0.046818	-1.001993	-0.379497
C102	C	0.453182	-0.501993	0.120503
C103	C	-0.287787	-0.994507	-0.562691
C104	C	0.212213	-0.494507	-0.062691
C105	C	-0.290688	-0.991383	-0.640794
C106	C	0.209312	-0.491383	-0.140794
C107	C	-0.274684	-0.185123	-0.386808
C108	C	0.225316	0.314877	0.113192
C109	C	-0.271993	-0.263229	-0.389946
C110	C	0.228007	0.236771	0.110054
C111	C	-0.250253	-1.034879	-0.679317
C112	C	0.249747	-0.534879	-0.179317
C113	C	-0.252977	-1.031935	-0.752702
C114	C	0.247023	-0.531935	-0.252702
C115	C	-0.296140	-0.985499	-0.787563
C116	C	0.203860	-0.485499	-0.287563
C117	C	-0.336577	-0.941998	-0.749035
C118	C	0.163423	-0.441998	-0.249035
C119	C	-0.333849	-0.944938	-0.675651
C120	C	0.166151	-0.444938	-0.175651
C121	C	-0.308776	-0.971879	-1.006841
C122	C	0.191224	-0.471879	-0.506841
C123	C	-0.311502	-0.968943	-1.080230
C124	C	0.188498	-0.468943	-0.580230
C125	C	-0.227901	-1.058880	-1.083892
C126	C	0.272099	-0.558880	-0.583892
C127	C	-0.225180	-1.061820	-1.010506
C128	C	0.274820	-0.561820	-0.510506
C129	C	-0.265615	-1.018316	-0.971985
C130	C	0.234385	-0.518316	-0.471985
N131	N	-0.298927	-0.982490	-0.862574
N132	N	0.201073	-0.482490	-0.362574
N133	N	-0.262825	-1.021322	-0.896974
N134	N	0.237175	-0.521322	-0.396974
C135	C	-0.274150	-1.009179	-0.196849
C136	C	0.225850	-0.509179	0.303151
C137	C	-0.271067	-1.012439	-0.118753
C138	C	0.228933	-0.512439	0.381247
H139	H	-0.220288	-0.731118	-0.450316
H140	H	0.279712	-0.231118	0.049684
H141	H	-0.366770	-0.909512	-0.644286
H142	H	0.133230	-0.409512	-0.144286
O143	O	-0.219007	-0.592043	-0.451870
O144	O	0.280993	-0.092043	0.048130
C145	C	-0.183336	-0.638601	-0.493532
C146	C	0.316664	-0.138601	0.006468
H147	H	-0.207409	-0.690807	-0.498015
H148	H	0.292591	-0.190807	0.001985
H149	H	-0.179487	-0.615194	-0.548057
H150	H	0.320513	-0.115194	-0.048057
H151	H	-0.134269	-0.647451	-0.468215
H152	H	0.365731	-0.147451	0.031785
O153	O	-0.342812	-0.412485	-0.306972
O154	O	0.157188	0.087515	0.193028
C155	C	-0.303765	-0.456767	-0.263377
C156	C	0.196235	0.043233	0.236623
H157	H	-0.254786	-0.434842	-0.258247
H158	H	0.245214	0.065158	0.241753
H159	H	-0.324422	-0.459745	-0.209289
H160	H	0.175578	0.040255	0.290711
H161	H	-0.300512	-0.511522	-0.287343
H162	H	0.199488	-0.011522	0.212657
O163	O	-0.190960	-0.405348	-0.484576
O164	O	0.309040	0.094652	0.015424
C165	C	-0.158629	-0.355658	-0.522390
C166	C	0.341371	0.144342	-0.022390
H167	H	-0.157151	-0.304489	-0.491513
H168	H	0.342849	0.195511	0.008487
H169	H	-0.108590	-0.376580	-0.530835
H170	H	0.391410	0.123420	-0.030835
H171	H	-0.184001	-0.345723	-0.575398
H172	H	0.315999	0.154277	-0.075398
O173	O	-0.183323	-1.106977	-0.976601
O174	O	0.316677	-0.606977	-0.476601
C175	C	-0.216006	-1.154030	-0.935941
C176	C	0.283994	-0.654030	-0.435941
H177	H	-0.266254	-1.157493	-0.958216
H178	H	0.233746	-0.657493	-0.458216
H179	H	-0.191325	-1.208144	-0.937276
H180	H	0.308675	-0.708144	-0.437276
H181	H	-0.216868	-1.134504	-0.879455
H182	H	0.283132	-0.634504	-0.379455
O183	O	-0.909837	-1.094172	-0.294622
O184	O	-0.409837	-0.594172	0.205378
C185	C	-0.871693	-1.137919	-0.336488
C186	C	-0.371693	-0.637919	0.163512
H187	H	-0.864670	-1.110958	-0.388712
H188	H	-0.364670	-0.610958	0.111288
H189	H	-0.824082	-1.148485	-0.308242
H190	H	-0.324082	-0.648485	0.191758
H191	H	-0.895480	-1.189687	-0.346361
H192	H	-0.395480	-0.689687	0.153639
O193	O	-1.039405	-1.094320	-0.294599
O194	O	-0.539405	-0.594320	0.205401
C195	C	-1.021413	-1.163702	-0.312875
C196	C	-0.521413	-0.663702	0.187125
H197	H	-0.974633	-1.163987	-0.339954
H198	H	-0.474633	-0.663987	0.160046
H199	H	-1.016153	-1.197291	-0.263472
H200	H	-0.516153	-0.697291	0.236528
H201	H	-1.058903	-1.185931	-0.349975
H202	H	-0.558903	-0.685931	0.150025
O203	O	-0.196102	-0.260704	-0.478780
O204	O	0.303898	0.239296	0.021220
C205	C	-0.235152	-0.216446	-0.522397
C206	C	0.264848	0.283554	-0.022397
H207	H	-0.282280	-0.206421	-0.497075
H208	H	0.217720	0.293579	0.002925
H209	H	-0.211657	-0.164474	-0.529792
H210	H	0.288343	0.335526	-0.029792
H211	H	-0.243097	-0.242653	-0.575593
H212	H	0.256903	0.257347	-0.075593
O213	O	-0.347915	-0.267884	-0.301167
O214	O	0.152085	0.232116	0.198833
C215	C	-0.380266	-0.317570	-0.263370
C216	C	0.119734	0.182430	0.236630
H217	H	-0.352583	-0.369989	-0.263087
H218	H	0.147417	0.130011	0.236913
H219	H	-0.385580	-0.298561	-0.207142
H220	H	0.114420	0.201439	0.292858
H221	H	-0.428794	-0.324338	-0.289315
H222	H	0.071206	0.175662	0.210685
O223	O	-1.052217	-0.909852	-0.464542
O224	O	-0.552217	-0.409852	0.035458
C225	C	-1.038172	-0.922334	-0.535200
C226	C	-0.538172	-0.422334	-0.035200
H227	H	-1.018256	-0.978317	-0.541055
H228	H	-0.518256	-0.478317	-0.041055
H229	H	-1.082893	-0.914882	-0.569676
H230	H	-0.582893	-0.414882	-0.069676
H231	H	-1.002011	-0.883896	-0.552005
H232	H	-0.502011	-0.383896	-0.052005
O233	O	-0.638707	-1.094080	-0.294558
O234	O	-0.138707	-0.594080	0.205442
C235	C	-0.676634	-1.137839	-0.336419
C236	C	-0.176634	-0.637839	0.163581
H237	H	-0.658703	-1.139946	-0.391933
H238	H	-0.158703	-0.639946	0.108067
H239	H	-0.674561	-1.192943	-0.313209
H240	H	-0.174561	-0.692943	0.186791
H241	H	-0.727305	-1.116015	-0.337965
H242	H	-0.227305	-0.616015	0.162035
O243	O	-0.521780	-0.909665	-0.464405
O244	O	-0.021780	-0.409665	0.035595
C245	C	-0.483999	-0.947804	-0.511413
C246	C	0.016001	-0.447804	-0.011413
H247	H	-0.502023	-1.002977	-0.518038
H248	H	-0.002023	-0.502977	-0.018038
H249	H	-0.486132	-0.920183	-0.564441
H250	H	0.013868	-0.420183	-0.064441
H251	H	-0.433293	-0.951090	-0.489774
H252	H	0.066707	-0.451090	0.010226
O253	O	-0.922619	-0.909826	-0.464483
O254	O	-0.422619	-0.409826	0.035517
C255	C	-0.884841	-0.947962	-0.511495
C256	C	-0.384841	-0.447962	-0.011495
H257	H	-0.902865	-1.003136	-0.518121
H258	H	-0.402865	-0.503136	-0.018121
H259	H	-0.886977	-0.920339	-0.564522
H260	H	-0.386977	-0.420339	-0.064522
H261	H	-0.834133	-0.951248	-0.489859
H262	H	-0.334133	-0.451248	0.010141
O263	O	-0.208268	-1.080007	-0.645565
O264	O	0.291732	-0.580007	-0.145565
C265	C	-0.173174	-1.117777	-0.695307
C266	C	0.326826	-0.617777	-0.195307
H267	H	-0.173928	-1.086899	-0.746454
H268	H	0.326072	-0.586899	-0.246454
H269	H	-0.122531	-1.126155	-0.674427
H270	H	0.377469	-0.626155	-0.174427
H271	H	-0.194684	-1.170818	-0.705262
H272	H	0.305316	-0.670818	-0.205262
H273	H	-0.341710	-0.936466	-0.975485
H274	H	0.158290	-0.436466	-0.475485
H275	H	-0.220052	-1.067356	-0.784064
H276	H	0.279948	-0.567356	-0.284064
O277	O	-0.188684	-1.101233	-1.121285
O278	O	0.311316	-0.601233	-0.621285
C279	C	-0.199357	-1.171979	-1.106167
C280	C	0.300643	-0.671979	-0.606167
H281	H	-0.248776	-1.176304	-1.086121
H282	H	0.251224	-0.676304	-0.586121
H283	H	-0.194533	-1.204765	-1.155833
H284	H	0.305467	-0.704765	-0.655833
H285	H	-0.163395	-1.192074	-1.064325
H286	H	0.336605	-0.692074	-0.564325
O287	O	-0.353450	-0.923768	-1.113984
O288	O	0.146550	-0.423768	-0.613984
C289	C	-0.388565	-0.886013	-1.064249
C290	C	0.111435	-0.386013	-0.564249
H291	H	-0.360921	-0.885689	-1.011849
H292	H	0.139079	-0.385689	-0.511849
H293	H	-0.397966	-0.829796	-1.083216
H294	H	0.102034	-0.329796	-0.583216
H295	H	-0.435202	-0.912024	-1.057465
H296	H	0.064798	-0.412024	-0.557465
O297	O	-0.378569	-0.896987	-0.782933
O298	O	0.121431	-0.396987	-0.282933
C299	C	-0.419423	-0.935265	-0.826996
C300	C	0.080577	-0.435265	-0.326996
H301	H	-0.420591	-0.991492	-0.807117
H302	H	0.079409	-0.491492	-0.307117
H303	H	-0.468771	-0.909782	-0.826783
H304	H	0.031229	-0.409782	-0.326783
H305	H	-0.401944	-0.935472	-0.882718
H306	H	0.098056	-0.435472	-0.382718
O307	O	-0.370901	-0.598824	-0.274342
O308	O	0.129099	-0.098824	0.225658
C309	C	-0.365140	-0.525802	-0.281063
C310	C	0.134860	-0.025802	0.218937
H311	H	-0.346961	-0.513627	-0.334931
H312	H	0.153039	-0.013627	0.165069
H313	H	-0.413069	-0.498086	-0.275077
H314	H	0.086931	0.001914	0.224923
H315	H	-0.330733	-0.506646	-0.238617
H316	H	0.169267	-0.006646	0.261383
O317	O	-0.651342	-0.909522	-0.464311
O318	O	-0.151342	-0.409522	0.035689
C319	C	-0.637186	-0.840108	-0.446058
C320	C	-0.137186	-0.340108	0.053942
H321	H	-0.588512	-0.839734	-0.418978
H322	H	-0.088512	-0.339734	0.081022
H323	H	-0.637909	-0.806531	-0.495472
H324	H	-0.137909	-0.306531	0.004528
H325	H	-0.673690	-0.817927	-0.408966
H326	H	-0.173690	-0.317927	0.091034
O327	O	-0.365984	-0.743504	-0.280074
O328	O	0.134016	-0.243504	0.219926
C329	C	-0.401637	-0.696948	-0.238390
C330	C	0.098363	-0.196948	0.261610
H331	H	-0.406732	-0.643488	-0.265063
H332	H	0.093268	-0.143488	0.234937
H333	H	-0.450210	-0.718434	-0.231644
H334	H	0.049790	-0.218434	0.268356
H335	H	-0.376800	-0.691276	-0.184757
H336	H	0.123200	-0.191276	0.315243
O337	O	-0.509162	-1.094042	-0.294419
O338	O	-0.009162	-0.594042	0.205581
C339	C	-0.549421	-1.135328	-0.256387
C340	C	-0.049421	-0.635328	0.243613
H341	H	-0.597257	-1.136600	-0.285276
H342	H	-0.097257	-0.636600	0.214724
H343	H	-0.528208	-1.190991	-0.251172
H344	H	-0.028208	-0.690991	0.248828
H345	H	-0.555353	-1.111778	-0.201962
H346	H	-0.055353	-0.611778	0.298038
