data_functionalizedCrystal
_audit_creation_method	'MofGen! by Chris Wilmer'
_symmetry_space_group_name_H-M	'P1'
_symmetry_Int_Tables_number	1
_symmetry_cell_setting	triclinic
loop_
_symmetry_equiv_pos_as_xyz
  x,y,z
_cell_length_a	16.109301
_cell_length_b	9.198806
_cell_length_c	16.109301
_cell_angle_alpha	89.995129
_cell_angle_beta	96.538519
_cell_angle_gamma	90.001239
loop_
_atom_site_label
_atom_site_type_symbol
_atom_site_fract_x
_atom_site_fract_y
_atom_site_fract_z
O1	O	1.103131	0.120805	-0.106866
O2	O	0.861069	0.120829	-0.120165
O3	O	0.988750	0.120802	0.007516
O4	O	0.975451	0.120832	-0.234546
O5	O	0.988740	-0.120984	0.007517
O6	O	0.861059	-0.120956	-0.120164
O7	O	1.103121	-0.120980	-0.106865
Cu8	Cu	0.982089	-0.143045	-0.113514
Cu9	Cu	0.982101	0.142894	-0.113515
O10	O	0.975441	-0.120953	-0.234545
C11	C	0.830090	-0.000061	-0.119626
C12	C	0.737794	-0.000052	-0.118011
N13	N	0.982087	-0.344159	-0.113513
C14	C	0.515522	-0.000060	-0.190018
C15	C	0.428801	-0.000069	-0.188494
C16	C	0.448676	-0.000083	-0.037006
C17	C	0.535394	-0.000084	-0.038530
C18	C	0.568815	-0.000065	-0.115039
C19	C	0.395376	-0.000073	-0.111990
C20	C	0.301350	-0.000084	-0.110337
C21	C	0.662847	-0.000057	-0.116693
C22	C	1.030143	-0.416355	-0.161298
C23	C	1.030156	-0.583768	-0.161297
C24	C	1.134101	-0.000087	-0.107404
C25	C	1.226397	-0.000086	-0.109019
C26	C	0.988206	-0.000092	0.038491
C27	C	0.986591	-0.000094	0.130786
N28	N	0.982110	0.344008	-0.113510
C29	C	0.975984	-0.000056	-0.265521
C30	C	0.977600	-0.000045	-0.357816
C31	C	1.058599	-0.000078	0.353059
C32	C	1.057075	-0.000065	0.439779
C33	C	0.905586	-0.000056	0.419905
C34	C	0.907111	-0.000058	0.333186
C35	C	0.983620	-0.000076	0.299766
C36	C	0.980571	-0.000062	0.473205
C37	C	0.978918	-0.000049	0.567231
C38	C	0.985273	-0.000086	0.205734
H39	H	0.542730	-0.000056	-0.252317
Br40	Br	1.162431	-0.000103	0.307705
H41	H	0.940961	-0.593914	-0.072601
Br42	Br	1.158837	-0.000059	0.512103
H43	H	1.071280	-0.354225	-0.202206
Br44	Br	1.098727	-0.687240	-0.229496
H45	H	0.940956	-0.406289	-0.072599
Br46	Br	0.356477	-0.000070	-0.290256
H47	H	0.421454	-0.000107	0.025285
H48	H	0.843295	-0.000045	0.447127
Br49	Br	0.805346	-0.000036	0.260853
H50	H	0.578788	-0.000092	0.022530
