data_functionalizedCrystal
_audit_creation_method	'MofGen! by Chris Wilmer'
_symmetry_space_group_name_H-M	'P1'
_symmetry_Int_Tables_number	1
_symmetry_cell_setting	triclinic
loop_
_symmetry_equiv_pos_as_xyz
  x,y,z
_cell_length_a	12.759395
_cell_length_b	15.297327
_cell_length_c	12.759387
_cell_angle_alpha	99.642643
_cell_angle_beta	89.982006
_cell_angle_gamma	99.706188
loop_
_atom_site_label
_atom_site_type_symbol
_atom_site_fract_x
_atom_site_fract_y
_atom_site_fract_z
Zn1	Zn	1.533794	-0.359119	-0.666293
Zn2	Zn	1.503244	-0.510004	-0.520998
Zn3	Zn	1.358087	-0.359163	-0.490642
Zn4	Zn	1.327653	-0.509937	-0.696627
O5	O	1.430695	-0.434556	-0.593640
O6	O	1.676760	-0.379145	-0.647029
O7	O	1.483941	-0.490042	-0.369959
O8	O	1.406917	-0.232912	-0.488543
O9	O	1.654316	-0.489999	-0.540281
O10	O	1.536007	-0.232880	-0.617593
O11	O	1.377294	-0.379219	-0.347657
O12	O	1.207031	-0.379154	-0.517957
O13	O	1.355047	-0.489884	-0.839615
O14	O	1.184672	-0.489926	-0.669293
O15	O	1.506497	-0.379079	-0.817329
O16	O	1.454430	-0.636241	-0.569694
O17	O	1.325424	-0.636191	-0.698728
C18	C	1.157731	-0.434538	-0.593623
C19	C	1.040951	-0.434552	-0.593646
C20	C	1.064266	-0.319306	-0.705057
C21	C	1.021060	-0.261693	-0.760773
C22	C	0.911335	-0.261709	-0.760789
C23	C	0.844813	-0.319342	-0.705080
C24	C	0.888018	-0.376954	-0.649364
C25	C	0.997747	-0.376934	-0.649357
C26	C	0.864705	-0.492195	-0.537949
C27	C	0.974429	-0.492185	-0.537937
C28	C	0.798183	-0.549827	-0.482240
C29	C	0.841387	-0.607445	-0.426529
C30	C	0.951119	-0.607428	-0.426516
C31	C	1.017635	-0.549797	-0.482221
C32	C	1.383338	-0.668950	-0.640820
C33	C	1.363175	-0.769224	-0.661039
C34	C	1.575237	-1.051860	-0.449490
C35	C	1.594181	-0.957647	-0.430488
C36	C	1.536431	-0.910537	-0.488124
C37	C	1.459734	-0.957649	-0.564766
C38	C	1.440783	-1.051871	-0.583764
C39	C	1.401977	-0.910548	-0.622398
C40	C	1.325280	-0.957660	-0.699039
C41	C	1.306332	-1.051873	-0.718034
C42	C	1.364082	-1.098983	-0.660398
C43	C	1.420929	-0.816325	-0.603400
C44	C	1.286474	-0.816336	-0.737673
C45	C	1.267530	-0.910549	-0.756675
C46	C	1.704724	-0.434575	-0.593657
C47	C	1.821499	-0.434582	-0.593665
C48	C	1.430785	-0.434469	-0.867656
C49	C	1.430823	-0.434432	-0.984425
C50	C	1.478265	-0.199247	-0.546299
C51	C	1.498536	-0.098972	-0.526125
C52	C	1.588608	-0.318987	-1.180649
C53	C	1.667443	-0.261314	-1.114188
C54	C	1.667408	-0.261344	-1.004472
C55	C	1.588530	-0.319055	-0.961217
C56	C	1.509694	-0.376728	-1.027679
C57	C	1.509737	-0.376690	-1.137396
C58	C	1.351988	-0.492105	-1.050887
C59	C	1.352017	-0.492072	-1.160602
C60	C	1.273110	-0.549817	-1.007632
C61	C	1.194268	-0.607487	-1.074094
C62	C	1.194306	-0.607454	-1.183815
C63	C	1.273182	-0.549745	-1.227064
C64	C	1.430679	-0.434578	-0.320677
C65	C	1.430895	-0.434360	-0.203857
H66	H	0.787218	-0.654361	-0.381171
O67	O	1.184804	-0.961364	-0.839333
H68	H	1.105982	-0.943345	-0.817616
H69	H	1.348664	-1.175699	-0.675868
O70	O	1.556852	-0.808921	-0.467644
H71	H	1.641091	-0.784005	-0.483926
H72	H	1.075235	-0.214769	-0.806127
H73	H	0.876159	-0.214791	-0.806151
H74	H	1.273215	-0.549707	-1.316398
O75	O	1.676898	-0.906840	-0.347829
H76	H	1.680365	-0.833412	-0.344292
H77	H	0.986290	-0.654340	-0.381141
H78	H	1.622242	-1.090226	-0.402565
H79	H	1.106981	-0.549772	-0.482210
O80	O	0.726467	-0.319355	-0.705083
H81	H	0.707600	-0.269612	-0.753184
O82	O	1.223605	-1.102692	-0.800689
H83	H	1.186637	-1.054108	-0.837583
O84	O	1.224183	-0.765539	-0.799851
H85	H	1.250254	-0.692109	-0.773775
H86	H	1.483376	-0.777975	-0.540998
H87	H	1.153611	-0.319283	-0.705043
O88	O	1.109268	-0.669654	-1.255496
H89	H	1.112956	-0.740467	-1.248679
H90	H	0.708840	-0.549834	-0.482254
O91	O	1.588639	-0.318953	-1.298985
H92	H	1.656732	-0.269139	-1.317898
H93	H	1.731604	-0.214383	-0.950358
O94	O	1.752494	-0.199043	-1.160832
H95	H	1.739265	-0.208693	-1.248286
O96	O	1.588491	-0.319103	-0.842884
H97	H	1.581002	-0.251069	-0.800255
O98	O	1.273063	-0.549860	-0.889298
H99	H	1.265565	-0.481825	-0.846678
H100	H	1.130056	-0.654475	-1.038867
