data_functionalizedCrystal
_audit_creation_method	'MofGen! by Chris Wilmer'
_symmetry_space_group_name_H-M	'P1'
_symmetry_Int_Tables_number	1
_symmetry_cell_setting	triclinic
loop_
_symmetry_equiv_pos_as_xyz
  x,y,z
_cell_length_a	16.109301
_cell_length_b	19.188930
_cell_length_c	15.186229
_cell_angle_alpha	89.991143
_cell_angle_beta	89.999362
_cell_angle_gamma	83.303131
loop_
_atom_site_label
_atom_site_type_symbol
_atom_site_fract_x
_atom_site_fract_y
_atom_site_fract_z
O1	O	1.102833	0.089744	-0.073183
O2	O	1.602833	0.589744	0.426817
O3	O	0.860734	0.100912	-0.073198
O4	O	1.360734	0.600912	0.426802
O5	O	0.988770	-0.006311	-0.073173
O6	O	1.488770	0.493689	0.426827
O7	O	0.974797	0.196967	-0.073208
O8	O	1.474797	0.696967	0.426792
O9	O	0.988762	-0.006313	0.073284
O10	O	1.488762	0.493687	0.573284
O11	O	0.860726	0.100911	0.073259
O12	O	1.360726	0.600911	0.573259
O13	O	1.102825	0.089742	0.073274
O14	O	1.602825	0.589742	0.573274
Zn15	Zn	0.981774	0.095326	0.096520
Zn16	Zn	1.481774	0.595326	0.596520
Zn17	Zn	0.981785	0.095328	-0.096444
Zn18	Zn	1.481785	0.595328	0.403556
O19	O	0.974789	0.196966	0.073249
O20	O	1.474789	0.696966	0.573249
C21	C	0.829757	0.100459	0.000029
C22	C	1.329757	0.600459	0.500029
C23	C	0.737466	0.099103	0.000024
C24	C	1.237466	0.599103	0.500024
C25	C	0.514993	0.159573	0.000023
C26	C	1.014993	0.659573	0.500023
C27	C	0.428277	0.158294	0.000029
C28	C	0.928277	0.658294	0.500029
C29	C	0.448573	0.031076	0.000048
C30	C	0.948573	0.531076	0.500048
C31	C	0.535287	0.032357	0.000048
C32	C	1.035287	0.532357	0.500048
C33	C	0.568495	0.096608	0.000031
C34	C	1.068495	0.596608	0.500031
C35	C	0.395064	0.094047	0.000037
C36	C	0.895064	0.594047	0.500037
C37	C	0.301043	0.092659	0.000043
C38	C	0.801043	0.592659	0.500043
C39	C	0.662522	0.097996	0.000027
C40	C	1.162522	0.597996	0.500027
C41	C	0.988313	-0.032324	0.000058
C42	C	1.488313	0.467676	0.500058
C43	C	0.986955	-0.109832	0.000066
C44	C	1.486955	0.390168	0.500066
C45	C	1.062082	-0.154580	0.000075
C46	C	1.562082	0.345420	0.500075
C47	C	1.060806	-0.227407	0.000060
C48	C	1.560806	0.272593	0.500060
C49	C	0.984399	-0.255482	0.000055
C50	C	1.484399	0.244518	0.500055
C51	C	0.909261	-0.210724	0.000041
C52	C	1.409261	0.289276	0.500041
C53	C	0.910540	-0.137899	0.000046
C54	C	1.410540	0.362101	0.500046
N55	N	0.925991	-0.363624	0.049893
N56	N	1.425991	0.136376	0.549893
N57	N	0.924782	-0.432805	0.049890
N58	N	1.424782	0.067195	0.549890
C59	C	0.980543	-0.474900	0.000037
C60	C	1.480543	0.025100	0.500037
N61	N	1.037571	-0.445200	-0.049802
N62	N	1.537571	0.054800	0.450198
N63	N	1.038783	-0.376013	-0.049795
N64	N	1.538783	0.123987	0.450205
C65	C	0.983004	-0.334448	0.000049
C66	C	1.483004	0.165552	0.500049
C67	C	1.054292	-0.598616	0.000029
C68	C	1.554292	-0.098616	0.500029
C69	C	1.053012	-0.671443	0.000010
C70	C	1.553012	-0.171443	0.500010
C71	C	0.901465	-0.654759	-0.000001
C72	C	1.401465	-0.154759	0.499999
C73	C	0.902747	-0.581933	0.000010
C74	C	1.402747	-0.081933	0.500010
C75	C	0.979162	-0.553866	0.000029
C76	C	1.479162	-0.053866	0.500029
C77	C	1.133802	0.090196	0.000045
C78	C	1.633802	0.590196	0.500045
C79	C	1.226093	0.091552	0.000045
C80	C	1.726093	0.591552	0.500045
C81	C	0.975246	0.222979	0.000016
C82	C	1.475246	0.722979	0.500016
C83	C	0.976604	0.300486	0.000003
C84	C	1.476604	0.800486	0.500003
N85	N	0.981772	0.095325	0.228213
N86	N	1.481772	0.595325	0.728213
N87	N	0.981793	0.095325	-0.228137
N88	N	1.481793	0.595325	0.271863
C89	C	1.038486	0.047862	0.453947
C90	C	1.538486	0.547862	0.953947
C91	C	1.038488	0.047860	0.546136
C92	C	1.538488	0.547860	1.046136
C93	C	0.925074	0.142790	0.546123
C94	C	1.425074	0.642790	1.046123
C95	C	0.925068	0.142787	0.453935
C96	C	1.425068	0.642787	0.953935
C97	C	0.981779	0.095324	0.407849
C98	C	1.481779	0.595324	0.907849
C99	C	0.981787	0.095325	0.592227
C100	C	1.481787	0.595325	1.092227
C101	C	0.981790	0.095323	0.692183
C102	C	1.481790	0.595323	1.192183
C103	C	0.981775	0.095325	0.307887
C104	C	1.481775	0.595325	0.807887
H105	H	0.384719	0.209567	0.000024
H106	H	0.884719	0.709567	0.500024
H107	H	0.878902	0.181434	0.583655
H108	H	1.378902	0.681434	1.083655
O109	O	0.870014	0.188831	0.409014
O110	O	1.370014	0.688831	0.909014
C111	C	0.819785	0.230926	0.266983
C112	C	1.319785	0.730926	0.766983
C113	C	0.882161	0.178738	0.317746
C114	C	1.382161	0.678738	0.817746
H115	H	0.829596	0.222794	0.193185
H116	H	1.329596	0.722794	0.693185
H117	H	0.753211	0.221816	0.285047
H118	H	1.253211	0.721816	0.785047
H119	H	0.830409	0.286845	0.285146
H120	H	1.330409	0.786845	0.785146
H121	H	0.871614	0.122800	0.299611
H122	H	1.371614	0.622800	0.799611
H123	H	0.948714	0.187909	0.299678
H124	H	1.448714	0.687909	0.799678
O125	O	0.547114	0.222044	0.000054
O126	O	1.047114	0.722044	0.500054
C127	C	0.517826	0.348091	-0.000010
C128	C	1.017826	0.848091	0.499990
C129	C	0.481343	0.277390	-0.000028
C130	C	0.981343	0.777390	0.499972
H131	H	0.464668	0.392857	-0.000095
H132	H	0.964668	0.892857	0.499905
H133	H	0.557886	0.351916	0.061296
H134	H	1.057886	0.851916	0.561296
H135	H	0.557945	0.351838	-0.061289
H136	H	1.057945	0.851838	0.438711
H137	H	0.441186	0.273596	0.061209
H138	H	0.941186	0.773596	0.561209
H139	H	0.441331	0.273596	-0.061374
H140	H	0.941331	0.773596	0.438626
H141	H	1.124306	-0.131733	0.000087
H142	H	1.624306	0.368267	0.500087
O143	O	0.416272	-0.031315	-0.000100
O144	O	0.916272	0.468685	0.499900
C145	C	0.330108	-0.106568	-0.075945
C146	C	0.830108	0.393432	0.424055
C147	C	0.366646	-0.035892	-0.075894
C148	C	0.866646	0.464108	0.424106
H149	H	0.289964	-0.110285	-0.137208
H150	H	0.789964	0.389715	0.362792
H151	H	0.383211	-0.151381	-0.075994
H152	H	0.883211	0.348619	0.424006
H153	H	0.290050	-0.110341	-0.014626
H154	H	0.790050	0.389659	0.485374
H155	H	0.406694	-0.032051	-0.137202
H156	H	0.906694	0.467949	0.362798
H157	H	0.313504	0.008887	-0.075798
H158	H	0.813504	0.508887	0.424202
O159	O	0.587147	-0.028877	0.000016
O160	O	1.087147	0.471123	0.500016
C161	C	0.598134	-0.155194	0.000088
C162	C	1.098134	0.344806	0.500088
C163	C	0.539309	-0.085904	0.000099
C164	C	1.039309	0.414096	0.500099
H165	H	0.559481	-0.201319	0.000174
H166	H	1.059481	0.298681	0.500174
H167	H	0.639226	-0.157820	-0.061217
H168	H	1.139226	0.342180	0.438783
H169	H	0.639253	-0.157735	0.061368
H170	H	1.139253	0.342265	0.561368
H171	H	0.498138	-0.083317	-0.061139
H172	H	0.998138	0.416683	0.438861
H173	H	0.498274	-0.083307	0.061445
H174	H	0.998274	0.416693	0.561445
O175	O	0.835091	-0.238076	-0.000080
O176	O	1.335091	0.261924	0.499920
C177	C	0.745685	-0.310572	-0.075994
C178	C	1.245685	0.189428	0.424006
C179	C	0.829722	-0.279658	-0.075950
C180	C	1.329722	0.220342	0.424050
H181	H	0.741309	-0.344186	-0.137338
H182	H	1.241309	0.155814	0.362662
H183	H	0.741279	-0.344304	-0.014745
H184	H	1.241279	0.155696	0.485255
H185	H	0.692220	-0.266065	-0.075957
H186	H	1.192220	0.233935	0.424043
H187	H	0.883235	-0.324120	-0.076019
H188	H	1.383235	0.175880	0.423981
H189	H	0.834055	-0.245907	-0.137194
H190	H	1.334055	0.254093	0.362806
H191	H	1.084662	0.009214	0.416426
H192	H	1.584662	0.509214	0.916426
H193	H	1.084664	0.009211	0.583666
H194	H	1.584664	0.509211	1.083666
H195	H	1.121986	-0.263848	0.000064
H196	H	1.621986	0.236152	0.500064
H197	H	0.849360	-0.101464	0.000039
H198	H	1.349360	0.398536	0.500039
H199	H	1.116514	-0.575763	0.000041
H200	H	1.616514	-0.075763	0.500041
O201	O	1.126051	-0.714843	-0.000100
O202	O	1.626051	-0.214843	0.499900
C203	C	1.255174	-0.751394	-0.075983
C204	C	1.755174	-0.251394	0.424017
C205	C	1.172496	-0.702193	-0.075958
C206	C	1.672496	-0.202193	0.424042
H207	H	1.292740	-0.741194	-0.137316
H208	H	1.792740	-0.241194	0.362684
H209	H	1.292838	-0.741192	-0.014724
H210	H	1.792838	-0.241192	0.485276
H211	H	1.241119	-0.808261	-0.075952
H212	H	1.741119	-0.308261	0.424048
H213	H	1.186476	-0.645309	-0.076020
H214	H	1.686476	-0.145309	0.423980
H215	H	1.134856	-0.712456	-0.137212
H216	H	1.634856	-0.212456	0.362788
O217	O	0.827315	-0.682138	0.000028
O218	O	1.327315	-0.182138	0.500028
C219	C	0.758181	-0.786935	-0.000051
C220	C	1.258181	-0.286935	0.499949
C221	C	0.842217	-0.756018	-0.000057
C222	C	1.342217	-0.256018	0.499943
H223	H	0.770200	-0.846670	-0.000139
H224	H	1.270200	-0.346670	0.499861
H225	H	0.721047	-0.768566	0.061252
H226	H	1.221047	-0.268566	0.561252
H227	H	0.721076	-0.768448	-0.061332
H228	H	1.221076	-0.268448	0.438668
H229	H	0.879390	-0.774490	0.061182
H230	H	1.379390	-0.274490	0.561182
H231	H	0.879287	-0.774383	-0.061401
H232	H	1.379287	-0.274383	0.438599
H233	H	0.841570	-0.545497	0.000008
H234	H	1.341570	-0.045497	0.500008
