data_functionalizedCrystal
_audit_creation_method	'MofGen! by Chris Wilmer'
_symmetry_space_group_name_H-M	'P1'
_symmetry_Int_Tables_number	1
_symmetry_cell_setting	triclinic
loop_
_symmetry_equiv_pos_as_xyz
  x,y,z
_cell_length_a	17.699083
_cell_length_b	16.176319
_cell_length_c	17.699083
_cell_angle_alpha	90.007696
_cell_angle_beta	96.716985
_cell_angle_gamma	89.998611
loop_
_atom_site_label
_atom_site_type_symbol
_atom_site_fract_x
_atom_site_fract_y
_atom_site_fract_z
O1	O	-1.004079	0.068632	0.095713
O2	O	-0.504079	0.568632	0.595713
O3	O	-0.783700	0.068660	0.108166
O4	O	-0.283700	0.568660	0.608166
O5	O	-0.900116	0.068638	-0.008250
O6	O	-0.400116	0.568638	0.491750
O7	O	-0.887663	0.068654	0.212129
O8	O	-0.387663	0.568654	0.712129
O9	O	-0.900100	-0.068855	-0.008257
O10	O	-0.400100	0.431145	0.491743
O11	O	-0.783684	-0.068834	0.108158
O12	O	-0.283684	0.431166	0.608158
O13	O	-1.004063	-0.068861	0.095706
O14	O	-0.504063	0.431139	0.595706
Cu15	Cu	-0.893872	-0.081401	0.101931
Cu16	Cu	-0.393872	0.418599	0.601931
Cu17	Cu	-0.893891	0.081200	0.101940
Cu18	Cu	-0.393891	0.581200	0.601940
O19	O	-0.887647	-0.068839	0.212121
O20	O	-0.387647	0.431161	0.712121
C21	C	-0.755495	-0.000084	0.107716
C22	C	-0.255495	0.499916	0.607716
C23	C	-0.671477	-0.000073	0.106377
C24	C	-0.171477	0.499927	0.606377
N25	N	-0.893864	-0.195767	0.101925
N26	N	-0.393864	0.304233	0.601925
C27	C	-0.899662	-0.000109	-0.036451
C28	C	-0.399662	0.499891	0.463549
C29	C	-0.898323	-0.000109	-0.120469
C30	C	-0.398323	0.499891	0.379531
C31	C	-1.032268	-0.000116	0.096156
C32	C	-0.532268	0.499884	0.596156
C33	C	-1.116286	-0.000121	0.097494
C34	C	-0.616286	0.499879	0.597494
C35	C	-0.622856	-0.000069	0.174710
C36	C	-0.122856	0.499931	0.674710
C37	C	-0.543913	-0.000079	0.173448
C38	C	-0.043913	0.499921	0.673448
C39	C	-0.513592	-0.000089	0.103852
C40	C	-0.013592	0.499911	0.603852
C41	C	-0.562219	-0.000096	0.035513
C42	C	-0.062219	0.499904	0.535513
C43	C	-0.641161	-0.000091	0.036776
C44	C	-0.141161	0.499909	0.536776
C45	C	-0.243856	-0.000117	0.030418
C46	C	0.256144	0.499883	0.530418
C47	C	-0.164908	-0.000120	0.029160
C48	C	0.335092	0.499880	0.529160
C49	C	-0.146608	-0.000105	0.167090
C50	C	0.353392	0.499895	0.667090
C51	C	-0.225550	-0.000100	0.168353
C52	C	0.274450	0.499900	0.668353
C53	C	-0.274170	-0.000112	0.100015
C54	C	0.225830	0.499888	0.600015
C55	C	-0.359769	-0.000102	0.101384
C56	C	0.140231	0.499898	0.601384
C57	C	-0.427995	-0.000093	0.102481
C58	C	0.072005	0.499907	0.602481
C59	C	-0.945429	-0.239040	0.050397
C60	C	-0.445429	0.260960	0.550397
C61	C	-0.945432	-0.325588	0.050396
C62	C	-0.445432	0.174412	0.550396
C63	C	-0.893875	-0.368859	0.101927
C64	C	-0.393875	0.131141	0.601927
C65	C	-0.842305	-0.325579	0.153457
C66	C	-0.342305	0.174421	0.653457
C67	C	-0.842299	-0.239034	0.153454
C68	C	-0.342299	0.260966	0.653454
C69	C	-0.842331	-0.674608	0.153472
C70	C	-0.342331	-0.174608	0.653472
C71	C	-0.842344	-0.761159	0.153473
C72	C	-0.342344	-0.261159	0.653473
C73	C	-0.945465	-0.761161	0.050414
C74	C	-0.445465	-0.261161	0.550414
C75	C	-0.945458	-0.674616	0.050410
C76	C	-0.445458	-0.174616	0.550410
C77	C	-0.893886	-0.631344	0.101937
C78	C	-0.393886	-0.131344	0.601937
C79	C	-0.893882	-0.537499	0.101937
C80	C	-0.393882	-0.037499	0.601937
C81	C	-0.893883	-0.462702	0.101932
C82	C	-0.393883	0.037298	0.601932
N83	N	-0.893905	0.195565	0.101941
N84	N	-0.393905	0.695565	0.601941
C85	C	-0.966656	-0.000119	-0.169090
C86	C	-0.466656	0.499881	0.330910
C87	C	-0.965394	-0.000111	-0.248033
C88	C	-0.465394	0.499889	0.251967
C89	C	-0.895798	-0.000100	-0.278354
C90	C	-0.395798	0.499900	0.221646
C91	C	-0.827459	-0.000088	-0.229727
C92	C	-0.327459	0.499912	0.270273
C93	C	-0.828722	-0.000089	-0.150785
C94	C	-0.328722	0.499911	0.349215
C95	C	-0.822364	-0.000080	-0.548090
C96	C	-0.322364	0.499920	-0.048090
C97	C	-0.821106	-0.000081	-0.627038
C98	C	-0.321106	0.499919	-0.127038
C99	C	-0.959036	-0.000102	-0.645338
C100	C	-0.459036	0.499898	-0.145338
C101	C	-0.960299	-0.000104	-0.566396
C102	C	-0.460299	0.499896	-0.066396
C103	C	-0.891961	-0.000087	-0.517776
C104	C	-0.391961	0.499913	-0.017776
C105	C	-0.893330	-0.000094	-0.432177
C106	C	-0.393330	0.499906	0.067823
C107	C	-0.894427	-0.000099	-0.363951
C108	C	-0.394427	0.499901	0.136049
C109	C	-0.888102	-0.000091	0.240322
C110	C	-0.388102	0.499909	0.740322
C111	C	-0.889440	-0.000085	0.324340
C112	C	-0.389440	0.499915	0.824340
H113	H	-0.504328	-0.000075	0.229092
H114	H	-0.004328	0.499925	0.729092
C115	C	-0.106696	0.070590	0.284272
C116	C	0.393304	0.570590	0.784272
C117	C	-0.093161	-0.000099	0.242210
C118	C	0.406839	0.499901	0.742210
H119	H	-0.073698	0.070597	0.330644
H120	H	0.426302	0.570597	0.830644
H121	H	-0.158044	0.070590	0.294981
H122	H	0.341956	0.570590	0.794981
H123	H	-0.097513	0.118526	0.255719
H124	H	0.402487	0.618526	0.755719
H125	H	-0.102350	-0.048035	0.270761
H126	H	0.397650	0.451965	0.770761
H127	H	-0.041801	-0.000107	0.231504
H128	H	0.458199	0.499893	0.731504
H129	H	-0.766718	-0.000067	-0.508512
H130	H	-0.266718	0.499933	-0.008512
C131	C	-0.757927	-0.000071	-0.739926
C132	C	-0.257927	0.499929	-0.239926
C133	C	-0.744600	-0.000063	-0.660369
C134	C	-0.244600	0.499937	-0.160369
H135	H	-0.710698	-0.000065	-0.760502
H136	H	-0.210698	0.499935	-0.260502
H137	H	-0.786064	0.047866	-0.756613
H138	H	-0.286064	0.547866	-0.256613
H139	H	-0.786049	-0.048029	-0.756617
H140	H	-0.286049	0.451971	-0.256617
H141	H	-0.716484	0.047898	-0.643677
H142	H	-0.216484	0.547898	-0.143677
H143	H	-0.716452	-0.048004	-0.643675
H144	H	-0.216452	0.451996	-0.143675
H145	H	-0.800357	-0.796390	0.195437
H146	H	-0.300357	-0.296390	0.695437
H147	H	-0.770792	-0.000073	-0.254420
H148	H	-0.270792	0.499927	0.245580
H149	H	-0.773078	-0.000081	-0.111198
H150	H	-0.273078	0.499919	0.388802
H151	H	-0.987416	-0.203814	0.008438
H152	H	-0.487416	0.296186	0.508438
C153	C	-0.303693	0.070609	0.249798
C154	C	0.196307	0.570609	0.749798
C155	C	-0.258871	-0.000079	0.244859
C156	C	0.241129	0.499921	0.744859
H157	H	-0.324257	0.070624	0.297033
H158	H	0.175743	0.570624	0.797033
H159	H	-0.343948	0.070599	0.209289
H160	H	0.156052	0.570599	0.709289
H161	H	-0.273266	0.118545	0.246432
H162	H	0.226734	0.618545	0.746432
H163	H	-0.289300	-0.048016	0.248218
H164	H	0.210700	0.451984	0.748218
H165	H	-0.218611	-0.000077	0.285378
H166	H	0.281389	0.499923	0.785378
C167	C	-0.740405	-0.683311	0.255349
C168	C	-0.240405	-0.183311	0.755349
C169	C	-0.785650	-0.627050	0.210116
C170	C	-0.285650	-0.127050	0.710116
H171	H	-0.705415	-0.653947	0.290323
H172	H	-0.205415	-0.153947	0.790323
H173	H	-0.713247	-0.717075	0.223878
H174	H	-0.213247	-0.217075	0.723878
H175	H	-0.771871	-0.717058	0.282532
H176	H	-0.271871	-0.217058	0.782532
H177	H	-0.754185	-0.593307	0.182928
H178	H	-0.254185	-0.093307	0.682928
H179	H	-0.812810	-0.593272	0.241590
H180	H	-0.312810	-0.093272	0.741590
C181	C	-0.190924	-0.000153	-0.107063
C182	C	0.309076	0.499847	0.392937
C183	C	-0.131579	-0.000139	-0.047346
C184	C	0.368421	0.499861	0.452654
H185	H	-0.170345	-0.000169	-0.154291
H186	H	0.329655	0.499831	0.345709
H187	H	-0.221332	0.047792	-0.103708
H188	H	0.278668	0.547792	0.396292
H189	H	-0.221334	-0.048102	-0.103696
H190	H	0.278666	0.451898	0.396304
H191	H	-0.101171	0.047814	-0.050711
H192	H	0.398829	0.547814	0.449289
H193	H	-0.101157	-0.048089	-0.050703
H194	H	0.398843	0.451911	0.449297
H195	H	-0.800323	-0.360816	0.195413
H196	H	-0.300323	0.139184	0.695413
H197	H	-0.800309	-0.203801	0.195412
H198	H	-0.300309	0.296199	0.695412
H199	H	-0.647537	-0.000060	0.231384
H200	H	-0.147537	0.499940	0.731384
H201	H	-0.283434	-0.000127	-0.025228
H202	H	0.216566	0.499873	0.474772
C203	C	-1.076572	-0.787800	0.005799
C204	C	-0.576572	-0.287800	0.505799
C205	C	-1.002148	-0.808727	-0.006237
C206	C	-0.502148	-0.308727	0.493763
H207	H	-1.111564	-0.817168	-0.029171
H208	H	-0.611564	-0.317168	0.470829
H209	H	-1.083940	-0.730071	-0.001575
H210	H	-0.583940	-0.230071	0.498425
H211	H	-1.084687	-0.801983	0.056304
H212	H	-0.584687	-0.301983	0.556304
H213	H	-0.994031	-0.794538	-0.056740
H214	H	-0.494031	-0.294538	0.443260
H215	H	-0.994777	-0.866470	0.001131
H216	H	-0.494777	-0.366470	0.501131
C217	C	-1.084616	0.070552	-0.160375
C218	C	-0.584616	0.570552	0.339625
C219	C	-1.043159	-0.000126	-0.135762
C220	C	-0.543159	0.499874	0.364238
H221	H	-1.131844	0.070551	-0.139797
H222	H	-0.631844	0.570551	0.360203
H223	H	-1.093642	0.070545	-0.214342
H224	H	-0.593642	0.570545	0.285658
H225	H	-1.056481	0.118495	-0.143666
H226	H	-0.556481	0.618495	0.356334
H227	H	-1.071292	-0.048069	-0.152476
H228	H	-0.571292	0.451931	0.347524
H229	H	-1.034135	-0.000127	-0.081784
H230	H	-0.534135	0.499873	0.418216
H231	H	-1.014680	-0.000111	-0.684934
H232	H	-0.514680	0.499889	-0.184934
H233	H	-0.537526	-0.000116	-0.021154
H234	H	-0.037526	0.499884	0.478846
H235	H	-0.680748	-0.000095	-0.018868
H236	H	-0.180748	0.499905	0.481132
C237	C	-1.047386	-0.316897	-0.051455
C238	C	-0.547386	0.183103	0.448545
C239	C	-1.002125	-0.373154	-0.006233
C240	C	-0.502125	0.126846	0.493767
H241	H	-1.082392	-0.346264	-0.086411
H242	H	-0.582392	0.153736	0.413589
H243	H	-1.015938	-0.283156	-0.078651
H244	H	-0.515938	0.216844	0.421349
H245	H	-1.074534	-0.283126	-0.019969
H246	H	-0.574534	0.216874	0.480031
H247	H	-0.974973	-0.406921	-0.037719
H248	H	-0.474973	0.093079	0.462281
H249	H	-1.033577	-0.406909	0.020965
H250	H	-0.533577	0.093091	0.520965
C251	C	-0.990068	-0.648163	-0.080697
C252	C	-0.490068	-0.148163	0.419303
C253	C	-1.002128	-0.627133	-0.006302
C254	C	-0.502128	-0.127133	0.493698
H255	H	-1.025050	-0.618870	-0.115729
H256	H	-0.525050	-0.118870	0.384271
H257	H	-0.997409	-0.705908	-0.087996
H258	H	-0.497409	-0.205908	0.412004
H259	H	-0.939570	-0.633961	-0.088821
H260	H	-0.439570	-0.133961	0.411179
H261	H	-1.052625	-0.641341	0.001825
H262	H	-0.552625	-0.141341	0.501825
H263	H	-0.994794	-0.569375	0.001001
H264	H	-0.494794	-0.069375	0.501001
C265	C	-1.024706	-0.000100	-0.377171
C266	C	-0.524706	0.499900	0.122829
C267	C	-1.040508	-0.000115	-0.301478
C268	C	-0.540508	0.499885	0.198522
H269	H	-1.071081	-0.000095	-0.410165
H270	H	-0.571081	0.499905	0.089835
H271	H	-0.996164	-0.048040	-0.386356
H272	H	-0.496164	0.451960	0.113644
H273	H	-0.996165	0.047854	-0.386329
H274	H	-0.496165	0.547854	0.113671
H275	H	-1.069044	-0.048073	-0.292319
H276	H	-0.569044	0.451927	0.207681
H277	H	-1.069062	0.047829	-0.292290
H278	H	-0.569062	0.547829	0.207710
C279	C	-1.078259	0.070566	-0.557679
C280	C	-0.578259	0.570566	-0.057679
C281	C	-1.036801	-0.000112	-0.533067
C282	C	-0.536801	0.499888	-0.033067
H283	H	-1.125487	0.070564	-0.537100
H284	H	-0.625487	0.570564	-0.037100
H285	H	-1.087287	0.070558	-0.611646
H286	H	-0.587287	0.570558	-0.111646
H287	H	-1.050124	0.118509	-0.540971
H288	H	-0.550124	0.618509	-0.040971
H289	H	-1.064934	-0.048056	-0.549780
H290	H	-0.564934	0.451944	-0.049780
H291	H	-1.027775	-0.000112	-0.479089
H292	H	-0.527775	0.499888	0.020911
