data_functionalizedCrystal
_audit_creation_method	'MofGen! by Chris Wilmer'
_symmetry_space_group_name_H-M	'P1'
_symmetry_Int_Tables_number	1
_symmetry_cell_setting	triclinic
loop_
_symmetry_equiv_pos_as_xyz
  x,y,z
_cell_length_a	12.759395
_cell_length_b	18.101397
_cell_length_c	18.101389
_cell_angle_alpha	89.978953
_cell_angle_beta	89.984463
_cell_angle_gamma	90.020311
loop_
_atom_site_label
_atom_site_type_symbol
_atom_site_fract_x
_atom_site_fract_y
_atom_site_fract_z
Zn1	Zn	1.606186	-0.294910	-0.418652
Zn2	Zn	1.606071	-0.418736	-0.294804
Zn3	Zn	1.430496	-0.294913	-0.294832
Zn4	Zn	1.430459	-0.418714	-0.418612
O5	O	1.518303	-0.356818	-0.356725
O6	O	1.753192	-0.311344	-0.402228
O7	O	1.582748	-0.402321	-0.191175
O8	O	1.453866	-0.191279	-0.311285
O9	O	1.753107	-0.402318	-0.311238
O10	O	1.582944	-0.191278	-0.402255
O11	O	1.453754	-0.311348	-0.191195
O12	O	1.283470	-0.311327	-0.311246
O13	O	1.453802	-0.402281	-0.522250
O14	O	1.283443	-0.402283	-0.402187
O15	O	1.582908	-0.311323	-0.522279
O16	O	1.582712	-0.522366	-0.311200
O17	O	1.453691	-0.522350	-0.402161
C18	C	1.245336	-0.356804	-0.356716
C19	C	1.128559	-0.356815	-0.356729
C20	C	1.128628	-0.262237	-0.451630
C21	C	1.073801	-0.214957	-0.499087
C22	C	0.964080	-0.214970	-0.499096
C23	C	0.909182	-0.262267	-0.451642
C24	C	0.964008	-0.309547	-0.404186
C25	C	1.073732	-0.309530	-0.404183
C26	C	0.963940	-0.404120	-0.309282
C27	C	1.073661	-0.404112	-0.309276
C28	C	0.909042	-0.451417	-0.261828
C29	C	0.963868	-0.498702	-0.214374
C30	C	1.073597	-0.498687	-0.214368
C31	C	1.128488	-0.451392	-0.261819
C32	C	1.518213	-0.549229	-0.356689
C33	C	1.518271	-0.631543	-0.356698
C34	C	1.518405	-0.930634	-0.356766
C35	C	1.599355	-0.899288	-0.299383
C36	C	1.599636	-0.813669	-0.299531
C37	C	1.518339	-0.782251	-0.356732
C38	C	1.548352	-0.813272	-0.434791
C39	C	1.548978	-0.898916	-0.434479
C40	C	1.407225	-0.899139	-0.336766
C41	C	1.407774	-0.813489	-0.335023
C42	C	1.518299	-0.698392	-0.356717
C43	C	1.518447	-1.014493	-0.356786
C44	C	1.792336	-0.356834	-0.356734
C45	C	1.909113	-0.356840	-0.356739
C46	C	1.518364	-0.356800	-0.549887
C47	C	1.518390	-0.356792	-0.632201
C48	C	1.518422	-0.163656	-0.356777
C49	C	1.518473	-0.081342	-0.356799
C50	C	1.518451	-0.356653	-0.931292
C51	C	1.436941	-0.413699	-0.899949
C52	C	1.437162	-0.413964	-0.814330
C53	C	1.518420	-0.356722	-0.782910
C54	C	1.629118	-0.377906	-0.814002
C55	C	1.628663	-0.378280	-0.899647
C56	C	1.490225	-0.278295	-0.899723
C57	C	1.487762	-0.278748	-0.814072
C58	C	1.518409	-0.356759	-0.699050
C59	C	1.518469	-0.356617	-1.015152
C60	C	1.518303	-0.356783	-0.164314
C61	C	1.518481	-0.356583	-0.082001
H62	H	0.919440	-0.176466	-0.537735
H63	H	1.681261	-0.920758	-0.312463
Cl64	Cl	1.461892	-0.930932	-0.502733
H65	H	1.217829	-0.451372	-0.261815
Cl66	Cl	1.372824	-0.782192	-0.246334
Cl67	Cl	1.570725	-0.931148	-0.209750
H68	H	1.355075	-0.400707	-0.793307
H69	H	1.217969	-0.262218	-0.451624
H70	H	1.691454	-0.338534	-0.920383
H71	H	1.354608	-0.400578	-0.920544
Cl72	Cl	1.725406	-0.315773	-0.782585
Cl73	Cl	1.309640	-0.780485	-0.394827
Cl74	Cl	1.361981	-0.254084	-0.782706
H75	H	1.455393	-0.471426	-0.921470
Cl76	Cl	1.142820	-0.155500	-0.558739
Cl77	Cl	1.674449	-0.929678	-0.460634
H78	H	1.346911	-0.919412	-0.378560
H79	H	1.580859	-0.792698	-0.241651
Cl80	Cl	1.460099	-0.781860	-0.502579
Cl81	Cl	1.465995	-0.503627	-0.782694
Cl82	Cl	1.672419	-0.780074	-0.461394
Cl83	Cl	0.771245	-0.262272	-0.451646
H84	H	1.118230	-0.537186	-0.175720
H85	H	0.919162	-0.537204	-0.175738
Cl86	Cl	1.365068	-0.932566	-0.250408
H87	H	1.653457	-0.434577	-0.792555
H88	H	1.652589	-0.435561	-0.919625
H89	H	1.542797	-0.233989	-0.792684
Cl90	Cl	1.726785	-0.781950	-0.319967
Cl91	Cl	1.367760	-0.248498	-0.933060
Cl92	Cl	1.581883	-0.212674	-0.931020
H93	H	0.819701	-0.451422	-0.261837
