data_functionalizedCrystal
_audit_creation_method	'MofGen! by Chris Wilmer'
_symmetry_space_group_name_H-M	'P1'
_symmetry_Int_Tables_number	1
_symmetry_cell_setting	triclinic
loop_
_symmetry_equiv_pos_as_xyz
  x,y,z
_cell_length_a	19.077105
_cell_length_b	12.827892
_cell_length_c	19.076919
_cell_angle_alpha	92.275345
_cell_angle_beta	90.076224
_cell_angle_gamma	87.711895
loop_
_atom_site_label
_atom_site_type_symbol
_atom_site_fract_x
_atom_site_fract_y
_atom_site_fract_z
Zn1	Zn	1.058323	-0.505562	-0.440439
Zn2	Zn	1.558323	-0.005562	0.059561
Zn3	Zn	1.062981	-0.673587	-0.322939
Zn4	Zn	1.562981	-0.173587	0.177061
Zn5	Zn	0.945540	-0.491563	-0.318232
Zn6	Zn	1.445540	0.008437	0.181768
Zn7	Zn	0.940803	-0.672957	-0.435692
Zn8	Zn	1.440803	-0.172957	0.064308
O9	O	1.001912	-0.585917	-0.379325
O10	O	1.501912	-0.085917	0.120675
O11	O	1.157274	-0.533973	-0.428809
O12	O	1.657274	-0.033973	0.071191
O13	O	1.051334	-0.643846	-0.223983
O14	O	1.551334	-0.143846	0.276017
O15	O	0.960534	-0.347187	-0.334459
O16	O	1.460534	0.152813	0.165541
O17	O	1.160695	-0.657421	-0.342483
O18	O	1.660695	-0.157421	0.157517
O19	O	1.043396	-0.357472	-0.424245
O20	O	1.543396	0.142528	0.075755
O21	O	0.965050	-0.510114	-0.220525
O22	O	1.465050	-0.010114	0.279475
O23	O	0.846579	-0.509503	-0.329856
O24	O	1.346579	-0.009503	0.170144
O25	O	0.952460	-0.656346	-0.534653
O26	O	1.452460	-0.156346	-0.034653
O27	O	0.843099	-0.642772	-0.416154
O28	O	1.343099	-0.142772	0.083846
O29	O	1.038802	-0.533362	-0.538141
O30	O	1.538802	-0.033362	-0.038141
O31	O	1.046740	-0.819736	-0.337879
O32	O	1.546740	-0.319736	0.162121
O33	O	0.956976	-0.819273	-0.420718
O34	O	1.456976	-0.319273	0.079282
C35	C	0.819342	-0.574551	-0.371979
C36	C	1.319342	-0.074551	0.128021
C37	C	0.741237	-0.569714	-0.368853
C38	C	1.241237	-0.069714	0.131147
C39	C	1.001868	-0.857424	-0.379311
C40	C	1.501868	-0.357424	0.120689
C41	C	1.001913	-0.973581	-0.379330
C42	C	1.501913	-0.473581	0.120670
C43	C	0.702753	-0.636925	-0.412245
C44	C	1.202753	-0.136925	0.087755
C45	C	0.629365	-0.632367	-0.409311
C46	C	1.129365	-0.132367	0.090689
C47	C	0.594463	-0.560602	-0.362982
C48	C	1.094463	-0.060602	0.137018
C49	C	0.632953	-0.493385	-0.319589
C50	C	1.132953	0.006615	0.180411
C51	C	0.706339	-0.497938	-0.322527
C52	C	1.206339	0.002062	0.177473
C53	C	0.375174	-0.539528	-0.349388
C54	C	0.875174	-0.039528	0.150612
C55	C	0.301782	-0.534981	-0.346452
C56	C	0.801782	-0.034981	0.153548
C57	C	0.298199	-0.673963	-0.436176
C58	C	0.798199	-0.173963	0.063824
C59	C	0.371587	-0.678514	-0.439106
C60	C	0.871587	-0.178514	0.060894
C61	C	0.410071	-0.611293	-0.395716
C62	C	0.910071	-0.111293	0.104284
N63	N	0.519449	-0.555944	-0.359980
N64	N	1.019449	-0.055944	0.140020
N65	N	0.485083	-0.615947	-0.398722
N66	N	0.985083	-0.115947	0.101278
C67	C	1.042895	-1.030372	-0.423797
C68	C	1.542895	-0.530372	0.076203
C69	C	1.042942	-1.150427	-0.423818
C70	C	1.542942	-0.650427	0.076182
C71	C	1.185194	-0.597329	-0.386701
C72	C	1.685194	-0.097329	0.113299
C73	C	1.263298	-0.602192	-0.389843
C74	C	1.763298	-0.102192	0.110157
C75	C	0.994583	-0.596346	-0.562606
C76	C	1.494583	-0.096346	-0.062606
C77	C	0.991460	-0.600790	-0.640709
C78	C	1.491460	-0.100790	-0.140709
C79	C	1.001974	-0.313353	-0.379356
C80	C	1.501974	0.186647	0.120644
C81	C	1.002000	-0.197202	-0.379370
C82	C	1.502000	0.302798	0.120630
C83	C	1.034945	-0.538849	-0.679219
C84	C	1.534945	-0.038849	-0.179219
C85	C	1.032002	-0.543020	-0.752605
C86	C	1.532002	-0.043020	-0.252605
C87	C	0.985578	-0.609138	-0.787480
C88	C	1.485578	-0.109138	-0.287480
C89	C	0.942089	-0.671081	-0.748965
C90	C	1.442089	-0.171081	-0.248965
C91	C	0.945029	-0.666904	-0.675580
C92	C	1.445029	-0.166904	-0.175580
C93	C	0.971962	-0.628492	-1.006762
C94	C	1.471962	-0.128492	-0.506762
C95	C	0.969027	-0.632667	-1.080152
C96	C	1.469027	-0.132667	-0.580152
C97	C	1.058939	-0.504604	-1.083788
C98	C	1.558939	-0.004604	-0.583788
C99	C	1.061878	-0.500437	-1.010401
C100	C	1.561878	-0.000437	-0.510401
C101	C	1.018386	-0.562376	-0.971892
C102	C	1.518386	-0.062376	-0.471892
N103	N	0.982570	-0.613406	-0.862492
N104	N	1.482570	-0.113406	-0.362492
N105	N	1.021391	-0.558103	-0.896881
N106	N	1.521391	-0.058103	-0.396881
C107	C	1.009252	-0.575456	-0.196759
C108	C	1.509252	-0.075456	0.303241
C109	C	1.012511	-0.570726	-0.118662
C110	C	1.512511	-0.070726	0.381338
H111	H	0.731165	-0.695367	-0.449969
H112	H	1.231165	-0.195367	0.050031
O113	O	0.595321	-0.415976	-0.269615
O114	O	1.095321	0.084024	0.230385
H115	H	0.611612	-0.431508	-0.215013
H116	H	1.111612	0.068492	0.284987
H117	H	1.094347	-0.454176	-1.115149
H118	H	1.594347	0.045824	-0.615149
H119	H	0.737673	-0.443203	-0.287197
H120	H	1.237673	0.056797	0.212803
H121	H	0.909612	-0.717331	-0.644226
H122	H	1.409612	-0.217331	-0.144226
O123	O	1.111948	-0.429120	-0.972788
O124	O	1.611948	0.070880	-0.472788
H125	H	1.149028	-0.476222	-0.940795
H126	H	1.649028	0.023778	-0.440795
O127	O	0.256691	-0.746513	-0.482934
O128	O	0.756691	-0.246513	0.017066
H129	H	0.293290	-0.797204	-0.515625
H130	H	0.793290	-0.297204	-0.015625
H131	H	0.904287	-0.724912	-0.777365
H132	H	1.404287	-0.224912	-0.277365
H133	H	0.931220	-0.686511	-1.108545
H134	H	1.431220	-0.186511	-0.608545
O135	O	0.587860	-0.705049	-0.455976
O136	O	1.087860	-0.205049	0.044024
H137	H	0.624460	-0.755795	-0.488629
H138	H	1.124460	-0.255795	0.011371
O139	O	0.955480	-1.026900	-0.328924
O140	O	1.455480	-0.526900	0.171076
H141	H	0.925449	-0.967037	-0.296351
H142	H	1.425449	-0.467037	0.203649
H143	H	1.077944	-0.990117	-0.461853
H144	H	1.577944	-0.490117	0.038147
H145	H	0.936558	-0.678943	-0.975417
H146	H	1.436558	-0.178943	-0.475417
H147	H	1.078031	-1.199247	-0.461885
H148	H	1.578031	-0.699247	0.038115
O149	O	0.955521	-1.132556	-0.328933
O150	O	1.455521	-0.632556	0.171067
H151	H	0.918492	-1.082425	-0.358934
H152	H	1.418492	-0.582425	0.141066
O153	O	1.085017	-0.467536	-0.641605
O154	O	1.585017	0.032464	-0.141605
H155	H	1.114754	-0.425159	-0.680715
H156	H	1.614754	0.074841	-0.180715
O157	O	0.409232	-0.755908	-0.489082
O158	O	0.909232	-0.255908	0.010918
H159	H	0.370141	-0.801872	-0.518768
H160	H	0.870141	-0.301872	-0.018768
H161	H	0.406499	-0.484799	-0.314051
H162	H	0.906499	0.015201	0.185949
O163	O	1.078906	-0.476220	-0.794144
O164	O	1.578906	0.023780	-0.294144
H165	H	1.111689	-0.429555	-0.757565
H166	H	1.611689	0.070445	-0.257565
H167	H	0.273368	-0.476530	-0.308730
H168	H	0.773368	0.023470	0.191270
