data_functionalizedCrystal
_audit_creation_method	'MofGen! by Chris Wilmer'
_symmetry_space_group_name_H-M	'P1'
_symmetry_Int_Tables_number	1
_symmetry_cell_setting	triclinic
loop_
_symmetry_equiv_pos_as_xyz
  x,y,z
_cell_length_a	14.519709
_cell_length_b	12.996460
_cell_length_c	11.026607
_cell_angle_alpha	90.002303
_cell_angle_beta	83.866919
_cell_angle_gamma	90.000602
loop_
_atom_site_label
_atom_site_type_symbol
_atom_site_fract_x
_atom_site_fract_y
_atom_site_fract_z
O1	O	1.250088	0.085427	-0.159123
O2	O	1.750088	0.585427	0.340877
O3	O	0.984699	0.085458	-0.177863
O4	O	1.484699	0.585458	0.322137
O5	O	1.095398	0.085441	0.008208
O6	O	1.595398	0.585441	0.508208
O7	O	1.139388	0.085444	-0.345194
O8	O	1.639388	0.585444	0.154806
O9	O	1.095382	-0.085693	0.008197
O10	O	1.595382	0.414307	0.508197
O11	O	0.984682	-0.085676	-0.177874
O12	O	1.484682	0.414324	0.322126
O13	O	1.250071	-0.085707	-0.159134
O14	O	1.750071	0.414293	0.340866
Cu15	Cu	1.117375	-0.101317	-0.168505
Cu16	Cu	1.617375	0.398683	0.331495
Cu17	Cu	1.117395	0.101068	-0.168492
Cu18	Cu	1.617395	0.601068	0.331508
O19	O	1.139372	-0.085690	-0.345205
O20	O	1.639372	0.414310	0.154795
C21	C	0.950187	-0.000105	-0.176995
C22	C	1.450187	0.499895	0.323005
C23	C	0.847374	-0.000093	-0.174378
C24	C	1.347374	0.499907	0.325622
N25	N	1.117368	-0.243664	-0.168513
N26	N	1.617368	0.256336	0.331487
C27	C	0.470891	-0.000140	-0.164743
C28	C	0.970891	0.499860	0.335257
C29	C	0.575640	-0.000127	-0.167419
C30	C	1.075640	0.499873	0.332581
C31	C	0.659129	-0.000116	-0.169560
C32	C	1.159129	0.499884	0.330440
C33	C	0.763885	-0.000104	-0.172237
C34	C	1.263885	0.499896	0.327763
C35	C	1.117373	-0.336770	-0.168516
C36	C	1.617373	0.163230	0.331484
C37	C	1.117380	-0.453575	-0.168508
C38	C	1.617380	0.046425	0.331492
C39	C	1.117389	-0.546674	-0.168495
C40	C	1.617389	-0.046674	0.331505
C41	C	1.117398	-0.663486	-0.168488
C42	C	1.617398	-0.163486	0.331512
C43	C	1.284583	-0.000142	-0.160002
C44	C	1.784583	0.499858	0.339998
C45	C	1.387396	-0.000147	-0.162619
C46	C	1.887396	0.499853	0.337381
C47	C	1.087274	-0.000123	0.053431
C48	C	1.587274	0.499877	0.553431
C49	C	1.063082	-0.000117	0.188197
C50	C	1.563082	0.499883	0.688197
N51	N	1.117408	0.243415	-0.168474
N52	N	1.617408	0.743415	0.331526
C53	C	1.147496	-0.000123	-0.390428
C54	C	1.647496	0.499877	0.109572
C55	C	1.171688	-0.000123	-0.525194
C56	C	1.671688	0.499877	-0.025194
C57	C	1.129881	-0.000123	0.261858
C58	C	1.629881	0.499877	0.761858
C59	C	1.104879	-0.000117	0.401146
C60	C	1.604879	0.499883	0.901146
H61	H	1.029175	-0.000101	0.441197
H62	H	1.529175	0.499899	0.941197
H63	H	1.205581	-0.000138	0.221802
H64	H	1.705581	0.499862	0.721802
C65	C	1.317865	-0.088113	0.459936
C66	C	1.817865	0.411887	0.959936
C67	C	1.273889	-0.000137	0.420756
C68	C	1.773889	0.499863	0.920756
H69	H	1.380960	-0.088116	0.426572
H70	H	1.880960	0.411884	0.926572
H71	H	1.288010	-0.147776	0.433359
H72	H	1.788010	0.352224	0.933359
H73	H	1.314462	-0.088101	0.546449
H74	H	1.814462	0.411899	1.046449
H75	H	1.277287	-0.000153	0.334242
H76	H	1.777287	0.499847	0.834242
H77	H	1.303753	0.059542	0.447325
H78	H	1.803753	0.559542	0.947325
C79	C	0.916913	0.087880	0.203083
C80	C	1.416913	0.587880	0.703083
C81	C	0.960887	-0.000099	0.242259
C82	C	1.460887	0.499901	0.742259
H83	H	0.853822	0.087893	0.236464
H84	H	1.353822	0.587893	0.736464
H85	H	0.920307	0.087867	0.116582
H86	H	1.420307	0.587867	0.616582
H87	H	0.946780	0.147548	0.229656
H88	H	1.446780	0.647548	0.729656
H89	H	0.931024	-0.059767	0.215678
H90	H	1.431024	0.440233	0.715678
H91	H	0.957487	-0.000096	0.328779
H92	H	1.457487	0.499904	0.828779
