data_functionalizedCrystal
_audit_creation_method	'MofGen! by Chris Wilmer'
_symmetry_space_group_name_H-M	'P1'
_symmetry_Int_Tables_number	1
_symmetry_cell_setting	triclinic
loop_
_symmetry_equiv_pos_as_xyz
  x,y,z
_cell_length_a	14.908979
_cell_length_b	13.897448
_cell_length_c	14.908308
_cell_angle_alpha	86.732812
_cell_angle_beta	83.628929
_cell_angle_gamma	93.319350
loop_
_atom_site_label
_atom_site_type_symbol
_atom_site_fract_x
_atom_site_fract_y
_atom_site_fract_z
Zn1	Zn	1.354255	-0.327024	0.432038
Zn2	Zn	1.687589	0.006309	0.765372
Zn3	Zn	2.020922	0.339642	1.098705
Zn4	Zn	1.362900	-0.478470	0.280686
Zn5	Zn	1.696233	-0.145136	0.614019
Zn6	Zn	2.029566	0.188197	0.947353
Zn7	Zn	1.211629	-0.327071	0.289418
Zn8	Zn	1.544962	0.006263	0.622751
Zn9	Zn	1.878295	0.339596	0.956084
Zn10	Zn	1.202871	-0.498163	0.440718
Zn11	Zn	1.536205	-0.164830	0.774051
Zn12	Zn	1.869538	0.168504	1.107384
O13	O	1.282914	-0.407682	0.360715
O14	O	1.616247	-0.074349	0.694048
O15	O	1.949580	0.258985	1.027382
O16	O	1.482064	-0.338853	0.404675
O17	O	1.815398	-0.005519	0.738008
O18	O	2.148731	0.327814	1.071341
O19	O	1.350116	-0.450164	0.155183
O20	O	1.683449	-0.116830	0.488516
O21	O	2.016782	0.216503	0.821850
O22	O	1.230596	-0.192081	0.308359
O23	O	1.563929	0.141252	0.641692
O24	O	1.897262	0.474585	0.975025
O25	O	1.488415	-0.450119	0.293477
O26	O	1.821749	-0.116786	0.626810
O27	O	2.155082	0.216548	0.960143
O28	O	1.335383	-0.192047	0.413141
O29	O	1.668716	0.141286	0.746475
O30	O	2.002050	0.474619	1.079808
O31	O	1.238978	-0.338931	0.161598
O32	O	1.572311	-0.005598	0.494932
O33	O	1.905644	0.327735	0.828265
O34	O	1.083805	-0.358028	0.316775
O35	O	1.417138	-0.024694	0.650108
O36	O	1.750471	0.308639	0.983441
O37	O	1.215670	-0.483684	0.566228
O38	O	1.549003	-0.150350	0.899561
O39	O	1.882337	0.182983	1.232894
O40	O	1.077371	-0.483729	0.427934
O41	O	1.410704	-0.150395	0.761267
O42	O	1.744037	0.182938	1.094601
O43	O	1.326891	-0.357949	0.559851
O44	O	1.660225	-0.024615	0.893184
O45	O	1.993558	0.308718	1.226518
O46	O	1.341624	-0.616065	0.301893
O47	O	1.674957	-0.282732	0.635226
O48	O	2.008291	0.050602	0.968559
O49	O	1.224052	-0.630534	0.419467
O50	O	1.557385	-0.297201	0.752801
O51	O	1.890719	0.036133	1.086134
C52	C	1.047745	-0.423021	0.374244
C53	C	1.381079	-0.089687	0.707578
C54	C	1.714412	0.243646	1.040911
C55	C	0.947138	-0.429607	0.380054
C56	C	1.280472	-0.096274	0.713387
C57	C	1.613805	0.237059	1.046720
C58	C	0.802017	-0.504424	0.446012
C59	C	1.135350	-0.171090	0.779345
C60	C	1.468684	0.162243	1.112679
C61	C	0.896546	-0.498236	0.440562
C62	C	1.229879	-0.164903	0.773895
C63	C	1.563213	0.168431	1.107228
C64	C	0.903195	-0.367164	0.324990
C65	C	1.236529	-0.033831	0.658323
C66	C	1.569862	0.299503	0.991657
C67	C	0.808666	-0.373352	0.330441
C68	C	1.142000	-0.040018	0.663774
C69	C	1.475333	0.293315	0.997107
C70	C	0.758080	-0.441983	0.390955
C71	C	1.091414	-0.108650	0.724288
C72	C	1.424747	0.224684	1.057621
C73	C	0.663549	-0.448166	0.396409
C74	C	0.996883	-0.114832	0.729743
C75	C	1.330216	0.218501	1.063076
C76	C	0.670200	-0.317099	0.280834
C77	C	1.003534	0.016234	0.614167
C78	C	1.336867	0.349568	0.947500
C79	C	0.764729	-0.310911	0.275383
C80	C	1.098063	0.022422	0.608717
C81	C	1.431396	0.355756	0.942050
C82	C	1.282849	-0.658299	0.360693
C83	C	1.616183	-0.324966	0.694026
C84	C	1.949516	0.008368	1.027359
C85	C	1.282903	-0.765510	0.360709
C86	C	1.616236	-0.432177	0.694042
C87	C	1.949569	-0.098844	1.027375
C88	C	1.282994	-0.961803	0.360760
C89	C	1.616328	-0.628470	0.694093
C90	C	1.949661	-0.295136	1.027426
C91	C	1.282941	-0.852572	0.360734
C92	C	1.616274	-0.519239	0.694068
C93	C	1.949607	-0.185906	1.027401
C94	C	1.519000	-0.392284	0.347133
C95	C	1.852334	-0.058950	0.680467
C96	C	2.185667	0.274383	1.013800
C97	C	1.619606	-0.385722	0.341346
C98	C	1.952940	-0.052389	0.674679
C99	C	2.286273	0.280945	1.008012
C100	C	1.269340	-0.423008	0.596799
C101	C	1.602673	-0.089675	0.930133
C102	C	1.936006	0.243659	1.263466
C103	C	1.263555	-0.429539	0.697404
C104	C	1.596888	-0.096206	1.030738
C105	C	1.930222	0.237128	1.364071
C106	C	1.283002	-0.156086	0.360756
C107	C	1.616335	0.177247	0.694089
C108	C	1.949669	0.510581	1.027423
C109	C	1.283040	-0.048871	0.360773
C110	C	1.616373	0.284463	0.694107
C111	C	1.949706	0.617796	1.027440
C112	C	1.296487	-0.392343	0.125546
C113	C	1.629820	-0.059009	0.458879
C114	C	1.963154	0.274324	0.792213
C115	C	1.302447	-0.385528	0.024931
C116	C	1.635780	-0.052195	0.358265
C117	C	1.969114	0.281138	0.691598
C118	C	1.368498	-0.310861	0.879814
C119	C	1.701831	0.022472	1.213147
C120	C	2.035164	0.355805	1.546481
C121	C	1.363065	-0.316994	0.974341
C122	C	1.696399	0.016339	1.307675
C123	C	2.029732	0.349673	1.641008
C124	C	1.247255	-0.447932	0.980988
C125	C	1.580588	-0.114599	1.314322
C126	C	1.913921	0.218734	1.647655
C127	C	1.252687	-0.441799	0.886461
C128	C	1.586020	-0.108466	1.219794
C129	C	1.919353	0.224867	1.553128
C130	C	1.313311	-0.373263	0.835877
C131	C	1.646645	-0.039929	1.169210
C132	C	1.979978	0.293404	1.502544
C133	C	1.318747	-0.367135	0.741348
C134	C	1.652081	-0.033801	1.074681
C135	C	1.985414	0.299532	1.408014
C136	C	1.202933	-0.498068	0.747997
C137	C	1.536266	-0.164735	1.081330
C138	C	1.869599	0.168599	1.414663
C139	C	1.197500	-0.504201	0.842524
C140	C	1.530834	-0.170867	1.175857
C141	C	1.864167	0.162466	1.509191
H142	H	0.622363	-0.504045	0.445686
H143	H	0.955696	-0.170712	0.779020
H144	H	1.289030	0.162621	1.112353
H145	H	0.760828	-0.560298	0.495293
H146	H	1.094162	-0.226965	0.828626
H147	H	1.427495	0.106369	1.161959
F148	F	1.182733	-0.520862	1.034838
F149	F	1.516067	-0.187529	1.368172
F150	F	1.849400	0.145805	1.701505
H151	H	0.805930	-0.255036	0.226112
H152	H	1.139263	0.078297	0.559445
H153	H	1.472596	0.411631	0.892779
F154	F	0.943303	-0.564696	0.499159
F155	F	1.276637	-0.231363	0.832493
F156	F	1.609970	0.101971	1.165826
F157	F	0.957047	-0.294133	0.260587
F158	F	1.290381	0.039200	0.593920
F159	F	1.623714	0.372533	0.927254
H160	H	1.417865	-0.255060	0.838627
H161	H	1.751198	0.078273	1.171961
H162	H	2.084532	0.411606	1.505294
F163	F	0.623433	-0.250638	0.222237
F164	F	0.956767	0.082696	0.555570
F165	F	1.290100	0.416029	0.888903
F166	F	1.383271	-0.294195	0.687514
F167	F	1.716604	0.039138	1.020847
F168	F	2.049938	0.372471	1.354180
F169	F	1.132982	-0.577137	0.896369
F170	F	1.466315	-0.243804	1.229702
F171	F	1.799648	0.089530	1.563035
H172	H	1.157998	-0.548882	0.712213
H173	H	1.491331	-0.215549	1.045547
H174	H	1.824665	0.117785	1.378880
H175	H	1.408002	-0.266178	1.010111
H176	H	1.741335	0.067155	1.343444
H177	H	2.074668	0.400489	1.676778
