data_functionalizedCrystal
_audit_creation_method	'MofGen! by Chris Wilmer'
_symmetry_space_group_name_H-M	'P1'
_symmetry_Int_Tables_number	1
_symmetry_cell_setting	triclinic
loop_
_symmetry_equiv_pos_as_xyz
  x,y,z
_cell_length_a	18.215407
_cell_length_b	19.076808
_cell_length_c	18.215399
_cell_angle_alpha	92.328322
_cell_angle_beta	90.017368
_cell_angle_gamma	92.320961
loop_
_atom_site_label
_atom_site_type_symbol
_atom_site_fract_x
_atom_site_fract_y
_atom_site_fract_z
Zn1	Zn	1.113296	-0.280271	0.404282
Zn2	Zn	1.108258	-0.397979	0.276266
Zn3	Zn	0.990227	-0.280288	0.281234
Zn4	Zn	0.985250	-0.397934	0.399298
O5	O	1.049258	-0.339118	0.340270
O6	O	1.215611	-0.295898	0.387307
O7	O	1.092576	-0.382393	0.173940
O8	O	1.010744	-0.181790	0.301721
O9	O	1.211910	-0.382377	0.293255
O10	O	1.101161	-0.181777	0.392124
O11	O	1.005859	-0.295926	0.177590
O12	O	0.886583	-0.295882	0.296889
O13	O	1.002261	-0.382300	0.502945
O14	O	0.882927	-0.382316	0.383630
O15	O	1.096335	-0.295854	0.506606
O16	O	1.087750	-0.496470	0.288422
O17	O	0.997376	-0.496436	0.378813
C18	C	0.858052	-0.339097	0.340258
C19	C	0.776253	-0.339104	0.340270
C20	C	0.589981	-0.294167	0.389314
C21	C	0.513122	-0.294173	0.389316
C22	C	0.509285	-0.384089	0.291239
C23	C	0.586143	-0.384079	0.291234
C24	C	0.626489	-0.339119	0.340275
C25	C	0.472772	-0.339135	0.340283
C26	C	0.389438	-0.339142	0.340285
C27	C	0.709828	-0.339111	0.340272
C28	C	1.041496	-0.521992	0.332554
C29	C	1.038243	-0.600226	0.329277
C30	C	1.083755	-0.636914	0.374844
C31	C	1.080695	-0.710423	0.371767
C32	C	1.032127	-0.747243	0.323118
C33	C	0.986610	-0.710551	0.277550
C34	C	0.989666	-0.637043	0.280631
C35	C	1.017938	-0.967096	0.308854
C36	C	1.014887	-1.040609	0.305774
C37	C	1.108972	-1.040476	0.399992
C38	C	1.112027	-0.966967	0.403067
C39	C	1.066507	-0.930280	0.357501
N40	N	1.029000	-0.822382	0.319970
N41	N	1.069631	-0.855143	0.360653
C42	C	1.241210	-0.339141	0.340283
C43	C	1.323008	-0.339150	0.340288
C44	C	1.049305	-0.339070	0.532225
C45	C	1.049325	-0.339049	0.614025
C46	C	1.057070	-0.155531	0.348033
C47	C	1.060399	-0.077296	0.351341
C48	C	1.049256	-0.339116	0.149064
C49	C	1.049387	-0.338938	0.067273
C50	C	1.098328	-0.293994	0.804129
C51	C	1.098338	-0.293974	0.880988
C52	C	1.000378	-0.383995	0.877164
C53	C	1.000365	-0.384011	0.800306
C54	C	1.049344	-0.339012	0.763790
C55	C	1.049367	-0.338975	0.917508
C56	C	1.049377	-0.338953	1.000843
C57	C	1.049334	-0.339033	0.680450
H58	H	1.123308	-0.606939	0.414455
H59	H	1.138208	-0.257351	0.774400
C60	C	1.164848	-0.926951	0.455766
C61	C	1.213805	-0.884751	0.415903
C62	C	1.262481	-0.847884	0.464421
H63	H	1.137955	-0.898220	0.489023
H64	H	1.191562	-0.959304	0.482455
H65	H	1.187094	-0.852402	0.389226
H66	H	1.240714	-0.913465	0.382648
H67	H	1.289195	-0.880237	0.491110
H68	H	1.235582	-0.819158	0.497676
H69	H	1.295708	-0.819253	0.437381
C70	C	0.633821	-0.245468	0.442637
C71	C	0.676261	-0.285371	0.488068
C72	C	0.716646	-0.240532	0.537205
H73	H	0.665153	-0.214749	0.415916
H74	H	0.601091	-0.218709	0.471885
H75	H	0.708987	-0.312119	0.458824
H76	H	0.644948	-0.316088	0.514806
H77	H	0.683916	-0.213773	0.566453
H78	H	0.747973	-0.209816	0.510478
H79	H	0.745440	-0.267600	0.568040
C80	C	1.151485	-0.244983	0.924693
C81	C	1.138432	-0.175347	0.908921
C82	C	1.187385	-0.130194	0.949159
H83	H	1.144531	-0.251316	0.975713
H84	H	1.200505	-0.255251	0.911654
H85	H	1.089423	-0.165082	0.921965
H86	H	1.145391	-0.168991	0.857909
H87	H	1.236405	-0.140462	0.936120
H88	H	1.180427	-0.136534	1.000177
H89	H	1.178539	-0.082942	0.938459
H90	H	1.146030	-1.070354	0.437090
C91	C	0.465610	-0.432935	0.237922
C92	C	0.514036	-0.472287	0.194962
C93	C	0.473832	-0.517287	0.145833
H94	H	0.434337	-0.463702	0.264647
H95	H	0.436769	-0.405994	0.207000
H96	H	0.542865	-0.499226	0.225880
H97	H	0.545310	-0.441538	0.168221
H98	H	0.444990	-0.490346	0.114911
H99	H	0.442560	-0.548050	0.172564
H100	H	0.506683	-0.543988	0.116674
C101	C	0.947288	-0.432826	0.916945
C102	C	0.957796	-0.423192	0.992888
C103	C	0.908910	-0.468172	1.029556
H104	H	0.898246	-0.422569	0.904866
H105	H	0.956053	-0.480137	0.902390
H106	H	0.949026	-0.375892	1.007438
H107	H	1.006829	-0.433455	1.004989
H108	H	0.917675	-0.515483	1.015000
H109	H	0.859870	-0.457910	1.017470
H110	H	0.916038	-0.461646	1.081086
H111	H	0.947061	-0.740536	0.237942
C112	C	0.473521	-0.245457	0.442680
C113	C	0.491577	-0.260885	0.514816
C114	C	0.455103	-0.216025	0.563996
H115	H	0.488085	-0.198125	0.434085
H116	H	0.421962	-0.251904	0.435710
H117	H	0.543125	-0.254431	0.521783
H118	H	0.477011	-0.308208	0.523434
H119	H	0.403544	-0.222473	0.557027
H120	H	0.469670	-0.168697	0.555395
H121	H	0.467343	-0.226491	0.612946
H122	H	0.960472	-0.420670	0.767461
H123	H	0.615868	-0.420685	0.251297
H124	H	0.975333	-1.070586	0.266158
C125	C	1.130209	-0.750128	0.421259
C126	C	1.173420	-0.702149	0.464499
C127	C	1.219055	-0.738699	0.510090
H128	H	1.100942	-0.778814	0.452170
H129	H	1.161133	-0.778775	0.391937
H130	H	1.142500	-0.673514	0.493818
H131	H	1.202702	-0.673462	0.433608
H132	H	1.249979	-0.767346	0.480769
H133	H	1.189782	-0.767384	0.540996
H134	H	1.248383	-0.706152	0.539429
H135	H	0.980876	-0.937231	0.271751
C136	C	0.940218	-0.597334	0.231074
C137	C	0.897042	-0.645311	0.187797
C138	C	0.851483	-0.608759	0.142132
H139	H	0.909264	-0.568667	0.260322
H140	H	0.969560	-0.568669	0.200194
H141	H	0.867702	-0.673965	0.218673
H142	H	0.927976	-0.673980	0.158535
H143	H	0.880825	-0.580093	0.111253
H144	H	0.820534	-0.580093	0.171386
H145	H	0.822187	-0.641306	0.112759
