data_functionalizedCrystal
_audit_creation_method	'MofGen! by Chris Wilmer'
_symmetry_space_group_name_H-M	'P1'
_symmetry_Int_Tables_number	1
_symmetry_cell_setting	triclinic
loop_
_symmetry_equiv_pos_as_xyz
  x,y,z
_cell_length_a	18.215407
_cell_length_b	18.101395
_cell_length_c	18.215399
_cell_angle_alpha	89.973154
_cell_angle_beta	89.980650
_cell_angle_gamma	90.031552
loop_
_atom_site_label
_atom_site_type_symbol
_atom_site_fract_x
_atom_site_fract_y
_atom_site_fract_z
Zn1	Zn	1.125037	-0.294825	-0.416124
Zn2	Zn	1.458370	0.038508	-0.082790
Zn3	Zn	1.791703	0.371841	0.250543
Zn4	Zn	1.124933	-0.418673	-0.293061
Zn5	Zn	1.458266	-0.085339	0.040273
Zn6	Zn	1.791599	0.247994	0.373606
Zn7	Zn	1.001970	-0.294850	-0.293071
Zn8	Zn	1.335304	0.038483	0.040262
Zn9	Zn	1.668637	0.371816	0.373596
Zn10	Zn	1.001922	-0.418630	-0.416086
Zn11	Zn	1.335255	-0.085297	-0.082752
Zn12	Zn	1.668588	0.248036	0.250581
O13	O	1.063465	-0.356745	-0.354585
O14	O	1.396799	-0.023411	-0.021252
O15	O	1.730132	0.309922	0.312081
O16	O	1.228007	-0.311261	-0.399811
O17	O	1.561340	0.022072	-0.066477
O18	O	1.894674	0.355406	0.266856
O19	O	1.108598	-0.402275	-0.190078
O20	O	1.441932	-0.068942	0.143256
O21	O	1.775265	0.264391	0.476589
O22	O	1.018359	-0.191214	-0.309415
O23	O	1.351692	0.142119	0.023919
O24	O	1.685026	0.475452	0.357252
O25	O	1.227931	-0.402251	-0.309397
O26	O	1.561264	-0.068918	0.023937
O27	O	1.894597	0.264416	0.357270
O28	O	1.108775	-0.191196	-0.399821
O29	O	1.442109	0.142138	-0.066487
O30	O	1.775442	0.475471	0.266846
O31	O	1.018258	-0.311304	-0.190085
O32	O	1.351592	0.022029	0.143248
O33	O	1.684925	0.355363	0.476581
O34	O	0.898980	-0.311263	-0.309378
O35	O	1.232313	0.022070	0.023956
O36	O	1.565646	0.355404	0.357289
O37	O	1.018276	-0.402179	-0.519075
O38	O	1.351610	-0.068846	-0.185742
O39	O	1.684943	0.264487	0.147592
O40	O	0.898944	-0.402204	-0.399756
O41	O	1.232277	-0.068870	-0.066422
O42	O	1.565611	0.264463	0.266911
O43	O	1.108728	-0.311220	-0.519103
O44	O	1.442062	0.022113	-0.185770
O45	O	1.775395	0.355446	0.147564
O46	O	1.108551	-0.522300	-0.309360
O47	O	1.441885	-0.188967	0.023974
O48	O	1.775218	0.144367	0.357307
O49	O	1.018176	-0.522269	-0.399746
O50	O	1.351509	-0.188936	-0.066412
O51	O	1.684842	0.144398	0.266921
C52	C	0.872259	-0.356732	-0.354564
C53	C	1.205592	-0.023399	-0.021231
C54	C	1.538926	0.309935	0.312103
C55	C	0.790460	-0.356744	-0.354572
C56	C	1.123794	-0.023411	-0.021239
C57	C	1.457127	0.309922	0.312094
C58	C	0.602267	-0.404172	-0.401573
C59	C	0.935600	-0.070838	-0.068240
C60	C	1.268934	0.262495	0.265093
C61	C	0.525408	-0.404174	-0.401583
C62	C	0.858742	-0.070841	-0.068249
C63	C	1.192075	0.262493	0.265084
C64	C	0.525416	-0.309331	-0.307613
C65	C	0.858749	0.024002	0.025720
C66	C	1.192082	0.357336	0.359054
C67	C	0.602273	-0.309326	-0.307608
C68	C	0.935606	0.024008	0.025725
C69	C	1.268940	0.357341	0.359059
C70	C	0.640697	-0.356750	-0.354587
C71	C	0.974030	-0.023417	-0.021254
C72	C	1.307363	0.309917	0.312079
C73	C	0.486981	-0.356758	-0.354601
C74	C	0.820314	-0.023425	-0.021268
C75	C	1.153647	0.309909	0.312065
C76	C	0.403647	-0.356760	-0.354611
C77	C	0.736980	-0.023427	-0.021278
C78	C	1.070314	0.309907	0.312056
C79	C	0.724036	-0.356747	-0.354579
C80	C	1.057369	-0.023414	-0.021245
C81	C	1.390702	0.309919	0.312088
C82	C	1.063367	-0.549155	-0.354564
C83	C	1.396700	-0.215822	-0.021230
C84	C	1.730034	0.117511	0.312103
C85	C	1.063392	-0.631469	-0.354579
C86	C	1.396725	-0.298136	-0.021246
C87	C	1.730059	0.035197	0.312088
C88	C	1.063554	-0.930560	-0.354619
C89	C	1.396887	-0.597227	-0.021285
C90	C	1.730220	-0.263894	0.312048
C91	C	1.006824	-0.899246	-0.411628
C92	C	1.340157	-0.565913	-0.078295
C93	C	1.673490	-0.232580	0.255039
C94	C	1.006554	-0.813629	-0.411450
C95	C	1.339887	-0.480295	-0.078116
C96	C	1.673221	-0.146962	0.255217
C97	C	1.063473	-0.782178	-0.354600
C98	C	1.396807	-0.448844	-0.021266
C99	C	1.730140	-0.115511	0.312067
C100	C	1.042476	-0.813329	-0.277038
C101	C	1.375810	-0.479995	0.056295
C102	C	1.709143	-0.146662	0.389628
C103	C	1.042111	-0.898974	-0.277380
C104	C	1.375444	-0.565641	0.055954
C105	C	1.708777	-0.232307	0.389287
C106	C	1.141405	-0.898904	-0.374487
C107	C	1.474738	-0.565570	-0.041154
C108	C	1.808072	-0.232237	0.292179
C109	C	1.140947	-0.813252	-0.376188
C110	C	1.474281	-0.479919	-0.042855
C111	C	1.807614	-0.146586	0.290478
C112	C	1.063429	-0.698318	-0.354584
C113	C	1.396763	-0.364985	-0.021251
C114	C	1.730096	-0.031652	0.312083
C115	C	1.063596	-1.014420	-0.354629
C116	C	1.396929	-0.681086	-0.021296
C117	C	1.730262	-0.347753	0.312038
C118	C	1.255418	-0.356758	-0.354607
C119	C	1.588752	-0.023425	-0.021273
C120	C	1.922085	0.309909	0.312060
C121	C	1.337217	-0.356764	-0.354616
C122	C	1.670550	-0.023430	-0.021283
C123	C	2.003884	0.309903	0.312051
C124	C	1.063509	-0.356692	-0.546538
C125	C	1.396842	-0.023359	-0.213205
C126	C	1.730175	0.309974	0.120128
C127	C	1.063527	-0.356670	-0.628337
C128	C	1.396860	-0.023337	-0.295004
C129	C	1.730194	0.309997	0.038330
C130	C	1.063584	-0.163583	-0.354623
C131	C	1.396918	0.169751	-0.021290
C132	C	1.730251	0.503084	0.312044
C133	C	1.063635	-0.081269	-0.354639
C134	C	1.396968	0.252065	-0.021306
C135	C	1.730302	0.585398	0.312028
C136	C	1.110653	-0.309244	-0.893411
C137	C	1.443986	0.024090	-0.560077
C138	C	1.777319	0.357423	-0.226744
C139	C	1.110644	-0.309264	-0.816552
C140	C	1.443977	0.024070	-0.483218
C141	C	1.777310	0.357403	-0.149885
C142	C	1.016461	-0.403989	-0.816512
C143	C	1.349795	-0.070655	-0.483179
C144	C	1.683128	0.262678	-0.149846
C145	C	1.016474	-0.403972	-0.893370
C146	C	1.349808	-0.070639	-0.560036
C147	C	1.683141	0.262695	-0.226703
C148	C	1.063569	-0.356595	-0.931817
C149	C	1.396902	-0.023262	-0.598484
C150	C	1.730235	0.310072	-0.265150
C151	C	1.063547	-0.356632	-0.778101
C152	C	1.396880	-0.023299	-0.444767
C153	C	1.730214	0.310035	-0.111434
C154	C	1.063537	-0.356654	-0.694767
C155	C	1.396871	-0.023321	-0.361434
C156	C	1.730204	0.310013	-0.028100
C157	C	1.063580	-0.356574	-1.015156
C158	C	1.396913	-0.023241	-0.681823
C159	C	1.730246	0.310093	-0.348489
C160	C	1.063465	-0.356744	-0.163379
C161	C	1.396798	-0.023410	0.169954
C162	C	1.730131	0.309923	0.503288
C163	C	1.063589	-0.356557	-0.081580
C164	C	1.396922	-0.023224	0.251753
C165	C	1.730256	0.310109	0.585086
H166	H	1.019691	-0.792565	-0.468960
H167	H	1.353024	-0.459231	-0.135627
H168	H	1.686357	-0.125898	0.197706
H169	H	1.148985	-0.270706	-0.785285
H170	H	1.482318	0.062627	-0.451952
H171	H	1.815652	0.395961	-0.118618
H172	H	0.494122	-0.442788	-0.439845
H173	H	0.827455	-0.109455	-0.106511
H174	H	1.160789	0.223878	0.226822
C175	C	1.095501	-0.926963	-0.218033
C176	C	1.428834	-0.593630	0.115301
C177	C	1.762168	-0.260297	0.448634
N178	N	1.135710	-0.948042	-0.173329
N179	N	1.469043	-0.614708	0.160004
N180	N	1.802376	-0.281375	0.493338
C181	C	0.483143	-0.257171	-0.255935
C182	C	0.816476	0.076162	0.077398
C183	C	1.149809	0.409496	0.410732
N184	N	0.451303	-0.217884	-0.217008
N185	N	0.784637	0.115449	0.116325
N186	N	1.117970	0.448782	0.449659
H187	H	0.633563	-0.270705	-0.269346
H188	H	0.966897	0.062629	0.063987
H189	H	1.300230	0.395962	0.397320
H190	H	1.183671	-0.919153	-0.332965
H191	H	1.517004	-0.585819	0.000368
H192	H	1.850338	-0.252486	0.333701
C193	C	1.162357	-0.785712	-0.453286
C194	C	1.495691	-0.452379	-0.119953
C195	C	1.829024	-0.119045	0.213380
N196	N	1.178487	-0.764955	-0.511352
N197	N	1.511820	-0.431621	-0.178019
N198	N	1.845153	-0.098288	0.155314
H199	H	0.986170	-0.791944	-0.259906
H200	H	1.319503	-0.458611	0.073427
H201	H	1.652837	-0.125277	0.406761
C202	C	1.024389	-0.927012	-0.489575
C203	C	1.357722	-0.593678	-0.156242
C204	C	1.691055	-0.260345	0.177091
N205	N	1.037619	-0.947931	-0.548287
N206	N	1.370952	-0.614598	-0.214954
N207	N	1.704285	-0.281265	0.118380
H208	H	0.949469	-0.920833	-0.398633
H209	H	1.282802	-0.587500	-0.065299
H210	H	1.616136	-0.254167	0.268034
H211	H	1.149000	-0.270666	-0.924712
H212	H	1.482333	0.062667	-0.591379
H213	H	1.815666	0.396001	-0.258045
H214	H	0.948849	-0.793206	-0.398289
H215	H	1.282182	-0.459872	-0.064955
H216	H	1.615515	-0.126539	0.268378
C217	C	0.965228	-0.926053	-0.254647
C218	C	1.298561	-0.592720	0.078686
C219	C	1.631894	-0.259387	0.412020
N220	N	0.907316	-0.946446	-0.237527
N221	N	1.240650	-0.613112	0.095807
N222	N	1.573983	-0.279779	0.429140
C223	C	0.964674	-0.456064	-0.935619
C224	C	1.298008	-0.122731	-0.602286
C225	C	1.631341	0.210603	-0.268952
N226	N	0.925661	-0.495299	-0.967441
N227	N	1.258995	-0.161965	-0.634108
N228	N	1.592328	0.171368	-0.300775
C229	C	0.964653	-0.456093	-0.774213
C230	C	1.297986	-0.122760	-0.440880
C231	C	1.631320	0.210573	-0.107547
N232	N	0.925627	-0.495337	-0.742354
N233	N	1.258960	-0.162004	-0.409021
N234	N	1.592294	0.171330	-0.075688
H235	H	0.633549	-0.442786	-0.439829
H236	H	0.966883	-0.109453	-0.106495
H237	H	1.300216	0.223881	0.226838
H238	H	1.082496	-0.792958	-0.233404
H239	H	1.415829	-0.459624	0.099930
H240	H	1.749162	-0.126291	0.433263
H241	H	1.160548	-0.920452	-0.430081
H242	H	1.493882	-0.587118	-0.096748
H243	H	1.827215	-0.253785	0.236586
C244	C	1.201070	-0.784327	-0.324180
C245	C	1.534404	-0.450994	0.009154
C246	C	1.867737	-0.117661	0.342487
N247	N	1.246353	-0.762543	-0.285000
N248	N	1.579686	-0.429209	0.048333
N249	N	1.913020	-0.095876	0.381667
