data_functionalizedCrystal
_audit_creation_method	'MofGen! by Chris Wilmer'
_symmetry_space_group_name_H-M	'P1'
_symmetry_Int_Tables_number	1
_symmetry_cell_setting	triclinic
loop_
_symmetry_equiv_pos_as_xyz
  x,y,z
_cell_length_a	11.169417
_cell_length_b	16.120484
_cell_length_c	11.169409
_cell_angle_alpha	92.860730
_cell_angle_beta	89.980487
_cell_angle_gamma	92.926623
loop_
_atom_site_label
_atom_site_type_symbol
_atom_site_fract_x
_atom_site_fract_y
_atom_site_fract_z
Zn1	Zn	1.810616	-0.331810	-0.702695
Zn2	Zn	2.310616	0.168190	-0.202695
Zn3	Zn	1.800274	-0.471253	-0.512166
Zn4	Zn	2.300274	0.028747	-0.012166
Zn5	Zn	1.609898	-0.331862	-0.502034
Zn6	Zn	2.109898	0.168138	-0.002034
Zn7	Zn	1.599683	-0.471186	-0.712807
Zn8	Zn	2.099683	0.028814	-0.212807
O9	O	1.705118	-0.401528	-0.607425
O10	O	2.205118	0.098472	-0.107425
O11	O	1.977194	-0.350314	-0.677429
O12	O	2.477194	0.149686	-0.177429
O13	O	1.774968	-0.452812	-0.342876
O14	O	2.274968	0.047188	0.157124
O15	O	1.645127	-0.215190	-0.520180
O16	O	2.145127	0.284810	-0.020180
O17	O	1.969595	-0.452762	-0.537448
O18	O	2.469595	0.047238	-0.037448
O19	O	1.792594	-0.215152	-0.667605
O20	O	2.292594	0.284848	-0.167605
O21	O	1.635099	-0.350402	-0.335432
O22	O	2.135099	0.149598	0.164568
O23	O	1.440594	-0.350337	-0.529985
O24	O	1.940594	0.149663	-0.029985
O25	O	1.627717	-0.452648	-0.879412
O26	O	2.127717	0.047352	-0.379412
O27	O	1.433089	-0.452698	-0.684839
O28	O	1.933089	0.047302	-0.184839
O29	O	1.782689	-0.350249	-0.871982
O30	O	2.282689	0.149751	-0.371982
O31	O	1.765062	-0.587909	-0.547253
O32	O	2.265062	-0.087909	-0.047253
O33	O	1.617689	-0.587860	-0.694664
O34	O	2.117689	-0.087860	-0.194664
C35	C	1.393294	-0.401517	-0.607411
C36	C	1.893294	0.098483	-0.107411
C37	C	1.259893	-0.401532	-0.607435
C38	C	1.759893	0.098468	-0.107435
C39	C	1.689177	-0.618135	-0.623181
C40	C	2.189177	-0.118135	-0.123181
C41	C	1.682468	-0.710800	-0.629962
C42	C	2.182468	-0.210800	-0.129962
C43	C	1.670225	-0.880461	-0.642366
C44	C	2.170225	-0.380461	-0.142366
C45	C	1.740227	-0.921754	-0.572504
C46	C	2.240227	-0.421754	-0.072504
C47	C	1.733415	-1.016159	-0.579406
C48	C	2.233415	-0.516159	-0.079406
C49	C	1.677035	-0.786047	-0.635466
C50	C	2.177035	-0.286047	-0.135466
C51	C	2.018160	-0.401540	-0.607441
C52	C	2.518160	0.098460	-0.107441
C53	C	2.151559	-0.401545	-0.607447
C54	C	2.651559	0.098455	-0.107447
C55	C	1.705217	-0.401435	-0.920461
C56	C	2.205217	0.098565	-0.420461
C57	C	1.705259	-0.401396	-1.053858
C58	C	2.205259	0.098604	-0.553858
C59	C	1.721154	-0.184075	-0.591634
C60	C	2.221154	0.315925	-0.091634
C61	C	1.727987	-0.091410	-0.584905
C62	C	2.227987	0.408590	-0.084905
C63	C	1.705093	-0.401560	-0.295603
C64	C	2.205093	0.098440	0.204397
C65	C	1.705301	-0.401364	-0.162189
C66	C	2.205301	0.098636	0.337811
H67	H	1.805272	-0.886207	-0.507509
H68	H	2.305272	-0.386207	-0.007509
O69	O	1.592650	-0.922989	-0.719790
O70	O	2.092650	-0.422989	-0.219790
C71	C	1.603049	-1.009145	-0.709533
C72	C	2.103049	-0.509145	-0.209533
H73	H	1.641581	-1.020958	-0.617796
H74	H	2.141581	-0.520958	-0.117796
H75	H	1.665175	-1.033777	-0.782548
H76	H	2.165175	-0.533777	-0.282548
C77	C	1.431110	-1.039514	-0.836296
C78	C	1.931110	-0.539514	-0.336296
C79	C	1.478426	-1.054024	-0.723618
C80	C	1.978426	-0.554024	-0.223618
H81	H	1.354239	-1.067199	-0.844989
H82	H	1.854239	-0.567199	-0.344989
H83	H	1.424105	-0.981470	-0.843210
H84	H	1.924105	-0.481470	-0.343210
H85	H	1.482893	-1.060041	-0.897128
H86	H	1.982893	-0.560041	-0.397128
H87	H	1.426651	-1.033488	-0.662788
H88	H	1.926651	-0.533488	-0.162788
H89	H	1.485419	-1.112066	-0.716694
H90	H	1.985419	-0.612066	-0.216694
