data_functionalizedCrystal
_audit_creation_method	'MofGen! by Chris Wilmer'
_symmetry_space_group_name_H-M	'P1'
_symmetry_Int_Tables_number	1
_symmetry_cell_setting	triclinic
loop_
_symmetry_equiv_pos_as_xyz
  x,y,z
_cell_length_a	14.853569
_cell_length_b	15.995350
_cell_length_c	15.072220
_cell_angle_alpha	89.994173
_cell_angle_beta	89.997087
_cell_angle_gamma	83.563970
loop_
_atom_site_label
_atom_site_type_symbol
_atom_site_fract_x
_atom_site_fract_y
_atom_site_fract_z
O1	O	1.196217	0.109328	-0.073737
O2	O	0.933740	0.122349	-0.073748
O3	O	1.072153	-0.006041	-0.073741
O4	O	1.057803	0.237717	-0.073744
O5	O	1.072141	-0.006053	0.073824
O6	O	0.933728	0.122337	0.073818
O7	O	1.196205	0.109316	0.073828
Zn8	Zn	1.064964	0.115824	0.097252
Zn9	Zn	1.064980	0.115840	-0.097172
O10	O	1.057791	0.237705	0.073822
C11	C	0.900146	0.121752	0.000034
C12	C	0.800065	0.119984	0.000030
C13	C	0.763792	0.042888	0.000027
C14	C	0.742297	0.195418	0.000036
C15	C	0.648265	0.193759	0.000037
C16	C	0.611992	0.116663	0.000034
C17	C	0.669752	0.041226	0.000031
C18	C	0.590499	0.269195	0.000049
C19	C	0.496461	0.267538	0.000051
C20	C	0.460186	0.190441	0.000043
C21	C	0.517952	0.115001	0.000038
C22	C	0.481679	0.037905	0.000036
C23	C	0.539443	-0.037536	0.000025
C24	C	0.633477	-0.035871	0.000022
C25	C	0.366152	0.188777	0.000045
C26	C	0.387639	0.036244	0.000039
C27	C	1.071554	-0.037243	0.000039
C28	C	1.069775	-0.130195	0.000034
C29	C	1.063388	-0.467950	0.000037
C30	C	0.964813	-0.420631	-0.000298
C31	C	0.966591	-0.323939	0.000035
C32	C	1.066556	-0.300386	0.000035
C33	C	1.115170	-0.341413	0.084303
C34	C	1.112694	-0.438052	0.084373
C35	C	1.114744	-0.438394	-0.083436
C36	C	1.114721	-0.341449	-0.084550
C37	C	1.068352	-0.205686	0.000037
C38	C	1.061595	-0.562650	0.000041
C39	C	1.229798	0.109912	0.000045
C40	C	1.329880	0.111681	0.000043
C41	C	1.058390	0.268907	0.000039
C42	C	1.060169	0.361859	0.000038
N43	N	1.064960	0.115813	0.229941
N44	N	1.064991	0.115845	-0.229860
C45	C	1.064970	0.115824	0.410938
C46	C	1.139050	0.047149	0.448583
C47	C	1.139319	0.047332	0.551408
C48	C	1.064981	0.115834	0.589142
C49	C	1.085137	0.203330	0.551797
C50	C	1.085663	0.202921	0.448939
C51	C	0.970513	0.097790	0.448854
C52	C	0.971152	0.095812	0.551718
C53	C	1.064985	0.115844	0.689856
C54	C	1.064968	0.115819	0.310225
H55	H	0.810827	-0.018534	0.000015
Br56	Br	0.902899	-0.276628	-0.100646
H57	H	1.079178	-0.314236	-0.146888
H58	H	0.319125	0.250200	0.000062
H59	H	1.187423	-0.470070	-0.084002
Br60	Br	0.997573	0.290597	0.592523
Br61	Br	0.945626	-0.011460	0.592424
Br62	Br	1.198620	0.230338	0.594724
H63	H	1.127317	-0.018092	0.423838
Br64	Br	0.899146	-0.451582	-0.101021
H65	H	1.082520	-0.458966	-0.147306
H66	H	0.925583	-0.440276	0.059793
H67	H	1.127374	-0.017693	0.576659
H68	H	0.620039	0.331962	0.000057
H69	H	1.154538	0.218745	0.424944
H70	H	0.358114	-0.026538	0.000033
Br71	Br	0.490204	-0.142162	0.000034
H72	H	0.951047	0.035326	0.422920
H73	H	1.208757	0.058546	0.422720
H74	H	1.077234	-0.456400	0.147364
H75	H	1.209424	0.058903	0.576012
H76	H	1.033590	0.255460	0.424035
Br77	Br	1.233314	-0.491665	0.090757
H78	H	0.913472	0.142559	0.577401
Br79	Br	0.902448	-0.277570	0.100880
Br80	Br	0.878637	0.181254	0.408278
H81	H	0.680517	-0.097291	0.000015
H82	H	1.188612	-0.327202	0.087436
H83	H	1.081396	-0.313076	0.147011
H84	H	0.771836	0.258186	0.000044
H85	H	0.449437	0.328967	0.000059
H86	H	1.187620	-0.326001	-0.089637
