data_functionalizedCrystal
_audit_creation_method	'MofGen! by Chris Wilmer'
_symmetry_space_group_name_H-M	'P1'
_symmetry_Int_Tables_number	1
_symmetry_cell_setting	triclinic
loop_
_symmetry_equiv_pos_as_xyz
  x,y,z
_cell_length_a	12.837943
_cell_length_b	9.016244
_cell_length_c	12.811415
_cell_angle_alpha	95.433080
_cell_angle_beta	89.411917
_cell_angle_gamma	90.006412
loop_
_atom_site_label
_atom_site_type_symbol
_atom_site_fract_x
_atom_site_fract_y
_atom_site_fract_z
O1	O	1.376638	0.160025	0.272973
O2	O	1.074774	0.158220	0.259488
O3	O	1.233299	0.138666	0.114198
O4	O	1.218113	0.179578	0.418263
O5	O	1.233276	-0.108014	0.114199
O6	O	1.074751	-0.088461	0.259490
O7	O	1.376615	-0.086656	0.272974
Cu8	Cu	1.225681	-0.110082	0.266232
Cu9	Cu	1.225709	0.181646	0.266230
O10	O	1.218090	-0.067103	0.418264
C11	C	1.036123	0.034268	0.254934
C12	C	0.920987	0.032444	0.241348
N13	N	1.225669	-0.315268	0.266233
C14	C	0.680734	0.054399	0.404677
C15	C	0.572553	0.052684	0.391917
C16	C	0.596442	0.027291	0.203067
C17	C	0.704623	0.029005	0.215828
C18	C	0.746765	0.042562	0.316636
C19	C	0.854948	0.044286	0.329395
C20	C	0.878834	0.018882	0.140547
C21	C	0.770653	0.017168	0.127786
C22	C	1.140611	-0.539883	0.343644
C23	C	1.140797	-0.367946	0.343980
C24	C	1.333985	-0.372934	0.300988
C25	C	1.333520	-0.544803	0.301549
C26	C	1.203490	-0.564927	0.153887
C27	C	1.200999	-0.392907	0.154375
C28	C	1.415267	0.037299	0.277529
C29	C	1.530403	0.039133	0.291115
N30	N	1.225728	0.386831	0.266222
C31	C	1.232436	0.010057	0.075009
C32	C	1.229887	-0.005645	-0.041763
C33	C	1.225102	0.233811	-0.261184
C34	C	1.222706	0.219064	-0.370902
C35	C	1.222692	-0.049883	-0.370920
C36	C	1.225088	-0.035137	-0.261202
C37	C	1.226294	0.106715	-0.206337
C38	C	1.228697	0.121460	-0.096617
C39	C	1.228676	-0.147486	-0.096637
C40	C	1.226280	-0.162232	-0.206356
C41	C	1.218953	0.061511	0.457453
C42	C	1.221503	0.077222	0.574226
H43	H	0.715047	0.065439	0.486759
N44	N	1.359031	-0.305197	0.403100
N45	N	1.373124	-0.384478	0.476641
H46	H	1.390807	-0.336643	0.548762
H47	H	1.155041	-0.315614	0.427117
N48	N	1.357994	-0.581192	0.404747
N49	N	1.300982	-0.535506	0.480728
H50	H	1.318265	-0.561195	0.553616
N51	N	1.225039	-0.307111	-0.262418
N52	N	1.222895	-0.320261	-0.360380
H53	H	1.222020	-0.422585	-0.399975
N54	N	0.553397	0.013417	0.100096
N55	N	0.573469	-0.098880	0.038298
H56	H	0.543068	-0.108682	-0.034426
H57	H	1.221701	-0.165371	-0.415610
H58	H	0.932609	0.009254	0.068857
N59	N	1.101050	-0.346196	0.121583
N60	N	1.093229	-0.281104	0.040101
H61	H	1.022640	-0.248109	0.016941
H62	H	1.154667	-0.571955	0.426301
H63	H	1.398850	-0.339356	0.246552
N64	N	0.505090	0.064788	0.481837
N65	N	0.408502	0.063257	0.470434
H66	H	0.360853	0.071803	0.533943
H67	H	1.126203	-0.612507	0.123153
N68	N	1.226355	0.378710	-0.205151
N69	N	1.225304	0.492180	-0.254135
H70	H	1.226192	0.594519	-0.214565
N71	N	1.229871	-0.277323	-0.040613
N72	N	1.156583	-0.368691	-0.050499
H73	H	1.157429	-0.460388	-0.010932
H74	H	1.398861	-0.593598	0.247961
H75	H	1.258925	-0.358160	0.093225
H76	H	1.265556	-0.613350	0.096144
H77	H	1.060300	-0.328801	0.321676
H78	H	1.059860	-0.584247	0.321547
N79	N	0.897981	0.058143	0.432371
N80	N	0.839008	0.068708	0.510970
H81	H	0.869396	0.078491	0.583700
H82	H	0.736326	0.006113	0.045711
H83	H	1.229683	0.236962	-0.051948
H84	H	1.221732	0.322559	-0.415554
