data_functionalizedCrystal
_audit_creation_method	'MofGen! by Chris Wilmer'
_symmetry_space_group_name_H-M	'P1'
_symmetry_Int_Tables_number	1
_symmetry_cell_setting	triclinic
loop_
_symmetry_equiv_pos_as_xyz
  x,y,z
_cell_length_a	16.109302
_cell_length_b	8.559649
_cell_length_c	14.586319
_cell_angle_alpha	89.997976
_cell_angle_beta	89.994552
_cell_angle_gamma	76.620223
loop_
_atom_site_label
_atom_site_type_symbol
_atom_site_fract_x
_atom_site_fract_y
_atom_site_fract_z
O1	O	1.090045	0.205395	-0.076277
O2	O	0.846355	0.230954	-0.076269
O3	O	0.989669	-0.014439	-0.076272
O4	O	0.946730	0.450787	-0.076273
O5	O	0.989660	-0.014442	0.076208
O6	O	0.846346	0.230950	0.076212
O7	O	1.090036	0.205391	0.076204
Cu8	Cu	0.968190	0.218170	0.090131
Cu9	Cu	0.968201	0.218175	-0.090195
O10	O	0.946722	0.450784	0.076208
C11	C	0.815441	0.229917	-0.000027
C12	C	0.723344	0.226812	-0.000025
C13	C	0.992919	-0.073972	-0.000034
C14	C	1.002605	-0.251357	-0.000039
C15	C	0.511456	0.219631	0.083084
C16	C	0.424923	0.216697	0.083080
C17	C	0.424942	0.216709	-0.083163
C18	C	0.511475	0.219632	-0.083158
C19	C	0.554728	0.221101	-0.000033
C20	C	0.381662	0.215244	-0.000040
C21	C	0.287839	0.212063	-0.000044
C22	C	0.648558	0.224280	-0.000028
C23	C	1.120949	0.206428	-0.000039
C24	C	1.213047	0.209533	-0.000048
C25	C	0.943472	0.510317	-0.000033
C26	C	0.933786	0.687702	-0.000033
N27	N	0.968189	0.218166	0.216963
N28	N	0.968209	0.218166	-0.217027
C29	C	1.031665	0.109543	0.451967
C30	C	1.031668	0.109539	0.547949
C31	C	0.904727	0.326795	0.547961
C32	C	0.904721	0.326790	0.451982
C33	C	0.968195	0.218166	0.403987
C34	C	0.968203	0.218167	0.595948
C35	C	0.968206	0.218163	0.700015
C36	C	0.968192	0.218166	0.299914
H37	H	0.546670	0.220827	0.150770
Br38	Br	1.117806	-0.037891	0.613063
Br39	Br	1.113167	-0.390583	-0.000026
H40	H	0.867457	-0.228767	-0.000028
Br41	Br	0.366242	0.214667	-0.195971
Br42	Br	0.818572	0.474204	0.386858
Br43	Br	0.570211	0.221607	-0.195967
Br44	Br	0.366198	0.214700	0.195886
H45	H	0.853049	0.415236	0.587048
H46	H	1.083349	0.021092	0.412893
