data_functionalizedCrystal
_audit_creation_method	'MofGen! by Chris Wilmer'
_symmetry_space_group_name_H-M	'P1'
_symmetry_Int_Tables_number	1
_symmetry_cell_setting	triclinic
loop_
_symmetry_equiv_pos_as_xyz
  x,y,z
_cell_length_a	15.537862
_cell_length_b	16.109301
_cell_length_c	15.186229
_cell_angle_alpha	89.998295
_cell_angle_beta	90.003020
_cell_angle_gamma	114.637042
loop_
_atom_site_label
_atom_site_type_symbol
_atom_site_fract_x
_atom_site_fract_y
_atom_site_fract_z
O1	O	1.250062	0.270150	0.073172
O2	O	0.975759	0.174122	0.073187
O3	O	1.120446	0.345440	0.073170
O4	O	1.105375	0.098832	0.073189
O5	O	1.120429	0.345427	-0.073287
O6	O	0.975742	0.174110	-0.073270
O7	O	1.250045	0.270137	-0.073285
Zn8	Zn	1.112891	0.222122	-0.096531
Zn9	Zn	1.112913	0.222138	0.096433
O10	O	1.105358	0.098820	-0.073268
C11	C	0.940650	0.164069	-0.000040
C12	C	0.836062	0.134141	-0.000034
N13	N	1.112883	0.222113	-0.228223
C14	C	1.119827	0.376224	-0.000059
C15	C	1.117997	0.467968	-0.000060
C16	C	0.677396	0.012830	-0.000021
C17	C	0.775674	0.040961	-0.000026
C18	C	0.798189	0.199227	-0.000042
C19	C	0.699911	0.171109	-0.000042
C20	C	0.639522	0.077909	-0.000030
C21	C	0.662036	0.236188	-0.000051
C22	C	0.563767	0.208072	-0.000046
C23	C	0.503372	0.114877	-0.000032
C24	C	0.541252	0.049793	-0.000025
C25	C	0.722427	0.329387	-0.000056
C26	C	0.684552	0.394467	-0.000065
C27	C	0.586281	0.366351	-0.000066
C28	C	0.525886	0.273156	-0.000052
C29	C	0.548401	0.431435	-0.000073
C30	C	0.450131	0.403319	-0.000067
C31	C	0.427617	0.245040	-0.000047
C32	C	1.285154	0.280191	-0.000056
C33	C	1.389742	0.310119	-0.000056
C34	C	1.105977	0.068035	-0.000037
C35	C	1.107808	-0.023708	-0.000030
C36	C	1.199595	0.714850	-0.000050
C37	C	1.197868	0.801049	-0.000043
C38	C	1.026203	0.729401	-0.000037
C39	C	1.027931	0.643204	-0.000038
C40	C	1.114630	0.635931	-0.000049
C41	C	1.111175	0.808328	-0.000041
C42	C	1.109301	0.901789	-0.000033
C43	C	1.116503	0.542464	-0.000056
C44	C	1.170022	0.188918	-0.453945
C45	C	1.170033	0.188927	-0.546135
C46	C	1.055787	0.255356	-0.546146
C47	C	1.055783	0.255352	-0.453958
C48	C	1.112899	0.222128	-0.407860
C49	C	1.112913	0.222141	-0.592238
C50	C	1.112924	0.222151	-0.692194
C51	C	1.112889	0.222119	-0.307898
N52	N	1.112929	0.222155	0.228126
H53	H	0.423355	0.091986	-0.000024
H54	H	0.597583	0.507318	-0.000073
O55	O	1.283752	0.707666	0.000066
C56	C	1.289900	0.659967	0.075928
H57	H	1.215637	0.615950	0.101214
H58	H	1.331591	0.710864	0.129043
C59	C	1.431824	0.652633	0.021831
C60	C	1.340613	0.598565	0.052883
H61	H	1.463110	0.614760	0.007618
H62	H	1.427685	0.684772	-0.029278
H63	H	1.466554	0.695045	0.066099
H64	H	1.305881	0.556163	0.008611
H65	H	1.344748	0.566417	0.103984
H66	H	1.009265	0.282400	-0.416434
O67	O	1.225421	0.156649	-0.409029
C68	C	1.213187	0.163784	-0.317778
H69	H	1.141838	0.165983	-0.305192
H70	H	1.272288	0.228961	-0.291612
C71	C	1.303999	0.077865	-0.285907
C72	C	1.216364	0.080558	-0.270448
H73	H	1.305963	0.026530	-0.256711
H74	H	1.312245	0.073060	-0.347385
H75	H	1.353241	0.132183	-0.264102
H76	H	1.167125	0.026246	-0.292263
H77	H	1.208110	0.085352	-0.208973
H78	H	0.419294	0.456313	-0.000074
H79	H	1.009284	0.282404	-0.583690
H80	H	1.267056	0.865304	-0.000042
O81	O	0.941905	0.736306	0.000007
C82	C	0.867283	0.648164	-0.000012
H83	H	0.893680	0.597221	0.027715
H84	H	0.841068	0.627981	-0.070274
C85	C	0.753100	0.710528	0.023373
C86	C	0.785520	0.647961	0.057434
H87	H	0.702663	0.710402	0.058805
H88	H	0.803374	0.769912	0.023383
H89	H	0.731262	0.693701	-0.035178
H90	H	0.807368	0.664794	0.115980
H91	H	0.735247	0.588579	0.057436
H92	H	0.958737	0.578942	-0.000034
H93	H	0.378444	0.169147	-0.000050
H94	H	0.628223	-0.063063	-0.000024
O95	O	0.482619	-0.040752	0.000138
C96	C	0.499804	-0.082029	0.075980
H97	H	0.533418	-0.027993	0.128991
H98	H	0.549816	-0.115064	0.058830
C99	C	0.364324	-0.221856	0.045275
C100	C	0.405603	-0.155488	0.110386
H101	H	0.306218	-0.267172	0.066497
H102	H	0.352748	-0.194049	-0.005823
H103	H	0.406010	-0.249375	0.030989
H104	H	0.363922	-0.127963	0.124663
H105	H	0.417170	-0.183293	0.161488
O106	O	0.812515	-0.022225	0.000127
C107	C	0.868719	-0.010675	0.075961
H108	H	0.845498	0.025760	0.128980
H109	H	0.946215	0.031898	0.058803
C110	C	0.885312	-0.149538	0.045238
C111	C	0.856788	-0.104794	0.110359
H112	H	0.877957	-0.207593	0.066455
H113	H	0.847450	-0.157318	-0.005855
H114	H	0.949891	-0.114050	0.030945
H115	H	0.792207	-0.140276	0.124643
H116	H	0.894639	-0.097022	0.161455
H117	H	1.216550	0.161886	-0.583654
H118	H	0.802443	0.352276	-0.000043
O119	O	0.856988	0.289720	-0.000094
C120	C	0.951845	0.300584	-0.000072
H121	H	0.955590	0.236406	-0.027787
H122	H	0.980274	0.312327	0.070189
C123	C	1.007404	0.462104	-0.023483
C124	C	1.012004	0.383283	-0.057530
H125	H	1.044514	0.513119	-0.058922
H126	H	0.943497	0.454786	-0.023495
H127	H	1.031092	0.471878	0.035067
H128	H	0.988304	0.373503	-0.116075
H129	H	1.075908	0.390600	-0.057529
H130	H	0.733734	0.470350	-0.000071
