data_functionalizedCrystal
_audit_creation_method	'MofGen! by Chris Wilmer'
_symmetry_space_group_name_H-M	'P1'
_symmetry_Int_Tables_number	1
_symmetry_cell_setting	triclinic
loop_
_symmetry_equiv_pos_as_xyz
  x,y,z
_cell_length_a	14.519709
_cell_length_b	14.519709
_cell_length_c	17.766277
_cell_angle_alpha	90.000159
_cell_angle_beta	89.996257
_cell_angle_gamma	96.319856
loop_
_atom_site_label
_atom_site_type_symbol
_atom_site_fract_x
_atom_site_fract_y
_atom_site_fract_z
O1	O	1.223874	-0.120893	-0.062486
O2	O	1.723874	0.379107	0.437514
O3	O	0.955397	-0.135129	-0.062507
O4	O	1.455397	0.364871	0.437493
O5	O	1.096754	0.006228	-0.062503
O6	O	1.596754	0.506228	0.437497
O7	O	1.082517	-0.262249	-0.062490
O8	O	1.582517	0.237751	0.437510
O9	O	1.096729	0.006235	0.062686
O10	O	1.596729	0.506235	0.562686
O11	O	0.955372	-0.135122	0.062681
O12	O	1.455372	0.364878	0.562681
O13	O	1.223849	-0.120885	0.062703
O14	O	1.723849	0.379115	0.562703
Cu15	Cu	1.089608	-0.128003	0.074123
Cu16	Cu	1.589608	0.371997	0.574123
Cu17	Cu	1.089638	-0.128012	-0.073927
Cu18	Cu	1.589638	0.371988	0.426073
O19	O	1.082492	-0.262242	0.062698
O20	O	1.582492	0.237758	0.562698
C21	C	0.921025	-0.134462	0.000084
C22	C	1.421025	0.365538	0.500084
C23	C	0.818643	-0.132474	0.000075
C24	C	1.318643	0.367526	0.500075
C25	C	0.443748	-0.125154	0.000109
C26	C	0.943748	0.374846	0.500109
C27	C	0.548056	-0.127187	0.000099
C28	C	1.048056	0.372813	0.500099
C29	C	0.631192	-0.128814	0.000091
C30	C	1.131192	0.371186	0.500091
C31	C	0.735507	-0.130847	0.000083
C32	C	1.235507	0.369153	0.500083
C33	C	1.083168	-0.296605	0.000106
C34	C	1.583168	0.203395	0.500106
C35	C	1.085156	-0.398987	0.000111
C36	C	1.585156	0.101013	0.500111
C37	C	1.092476	-0.773883	0.000082
C38	C	1.592476	-0.273883	0.500082
C39	C	1.090443	-0.669575	0.000090
C40	C	1.590443	-0.169575	0.500090
C41	C	1.088816	-0.586438	0.000097
C42	C	1.588816	-0.086438	0.500097
C43	C	1.086783	-0.482123	0.000104
C44	C	1.586783	0.017877	0.500104
C45	C	1.258221	-0.121553	0.000110
C46	C	1.758221	0.378447	0.500110
C47	C	1.360602	-0.123541	0.000114
C48	C	1.860602	0.376459	0.500114
C49	C	1.096078	0.040591	0.000088
C50	C	1.596078	0.540591	0.500088
C51	C	1.094090	0.142972	0.000078
C52	C	1.594090	0.642972	0.500078
N53	N	1.089594	-0.127996	0.178253
N54	N	1.589594	0.372004	0.678253
N55	N	1.089659	-0.128011	-0.178057
N56	N	1.589659	0.371989	0.321943
C57	C	1.152207	-0.065434	0.217642
C58	C	1.652207	0.434566	0.717642
C59	C	1.152213	-0.065430	0.296444
C60	C	1.652213	0.434570	0.796444
C61	C	1.089614	-0.128004	0.335854
C62	C	1.589614	0.371996	0.835854
C63	C	1.026989	-0.190570	0.296455
C64	C	1.526989	0.309430	0.796455
C65	C	1.026979	-0.190567	0.217655
C66	C	1.526979	0.309433	0.717655
C67	C	1.077669	-0.211975	0.460695
C68	C	1.577669	0.288025	0.960695
C69	C	1.077685	-0.211980	0.539494
C70	C	1.577685	0.288020	1.039494
C71	C	1.089638	-0.128015	0.578900
C72	C	1.589638	0.371985	1.078900
C73	C	1.101595	-0.044042	0.539498
C74	C	1.601595	0.455958	1.039498
C75	C	1.101586	-0.044038	0.460697
C76	C	1.601586	0.455962	0.960697
C77	C	1.089617	-0.128014	0.421299
C78	C	1.589617	0.371986	0.921299
C79	C	1.152261	-0.065443	0.703735
C80	C	1.652261	0.434557	1.203735
C81	C	1.152260	-0.065438	0.782538
C82	C	1.652260	0.434562	1.282538
C83	C	1.027040	-0.190586	0.782548
C84	C	1.527040	0.309414	1.282548
C85	C	1.027037	-0.190584	0.703746
C86	C	1.527037	0.309416	1.203746
C87	C	1.089652	-0.128013	0.664344
C88	C	1.589652	0.371987	1.164344
H89	H	1.203190	-0.014484	0.185563
H90	H	1.703190	0.485516	0.685563
H91	H	1.203243	-0.014492	0.671653
H92	H	1.703243	0.485508	1.171653
Br93	Br	1.237233	0.019482	0.835999
Br94	Br	1.737233	0.519482	1.335999
Br95	Br	0.942061	-0.275496	0.650284
Br96	Br	1.442061	0.224504	1.150284
Br97	Br	1.117830	0.069919	0.592967
Br98	Br	1.617830	0.569919	1.092967
H99	H	1.067919	-0.280353	0.428617
H100	H	1.567919	0.219647	0.928617
Br101	Br	1.237194	0.019484	0.349910
Br102	Br	1.737194	0.519484	0.849910
Br103	Br	1.117803	0.069919	0.407225
Br104	Br	1.617803	0.569919	0.907225
Br105	Br	0.942074	-0.275498	0.836026
Br106	Br	1.442074	0.224502	1.336026
Br107	Br	1.061468	-0.325941	0.592960
Br108	Br	1.561468	0.174059	1.092960
H109	H	0.976018	-0.241517	0.328547
H110	H	1.476018	0.258483	0.828547
H111	H	0.975991	-0.241513	0.185584
H112	H	1.475991	0.258487	0.685584
