data_functionalizedCrystal
_audit_creation_method	'MofGen! by Chris Wilmer'
_symmetry_space_group_name_H-M	'P1'
_symmetry_Int_Tables_number	1
_symmetry_cell_setting	triclinic
loop_
_symmetry_equiv_pos_as_xyz
  x,y,z
_cell_length_a	9.065215
_cell_length_b	9.065215
_cell_length_c	13.448316
_cell_angle_alpha	89.994392
_cell_angle_beta	89.993808
_cell_angle_gamma	85.014697
loop_
_atom_site_label
_atom_site_type_symbol
_atom_site_fract_x
_atom_site_fract_y
_atom_site_fract_z
O1	O	1.960406	0.216340	-0.082678
O2	O	1.531121	0.234091	-0.082682
O3	O	1.754639	0.010573	-0.082676
O4	O	1.736888	0.439858	-0.082685
O5	O	1.754610	0.010559	0.082708
O6	O	1.531092	0.234077	0.082701
O7	O	1.960378	0.216326	0.082706
Cu8	Cu	1.745732	0.225200	0.097804
Cu9	Cu	1.745766	0.225217	-0.097781
O10	O	1.736859	0.439844	0.082699
C11	C	1.476120	0.232379	0.000009
C12	C	1.312277	0.227281	0.000007
C13	C	1.752920	-0.044421	0.000015
C14	C	1.747822	-0.208264	0.000012
C15	C	2.015379	0.218038	0.000012
C16	C	2.179222	0.223136	0.000007
C17	C	1.738579	0.494838	0.000006
C18	C	1.743677	0.658681	0.000003
N19	N	1.745719	0.225187	0.235369
N20	N	1.745791	0.225218	-0.235345
C21	C	1.844725	0.126255	0.287412
C22	C	1.844734	0.126254	0.391515
C23	C	1.745744	0.225194	0.443573
C24	C	1.646727	0.324130	0.391523
C25	C	1.646712	0.324123	0.287421
C26	C	1.646768	0.324141	0.608503
C27	C	1.646785	0.324150	0.712611
C28	C	1.844790	0.126272	0.712597
C29	C	1.844775	0.126265	0.608495
C30	C	1.745760	0.225204	0.556452
H31	H	1.925340	0.045694	0.245033
H32	H	1.925350	0.045695	0.433888
H33	H	1.566135	0.404703	0.566133
N34	N	1.540013	0.430839	0.768774
H35	H	1.597272	0.496963	0.811949
H36	H	1.477293	0.493415	0.719956
N37	N	1.539954	0.430834	0.447674
H38	H	1.597213	0.496959	0.490848
H39	H	1.477251	0.493406	0.398846
N40	N	1.539921	0.430820	0.231284
H41	H	1.477213	0.493501	0.280057
H42	H	1.597262	0.496840	0.188073
N43	N	1.951549	0.019564	0.552343
H44	H	2.014275	-0.043114	0.601107
H45	H	1.894186	-0.046457	0.509165
N46	N	1.951591	0.019559	0.768721
H47	H	1.936579	0.034569	0.842568
H48	H	1.933161	-0.085360	0.750535
