data_functionalizedCrystal
_audit_creation_method	'MofGen! by Chris Wilmer'
_symmetry_space_group_name_H-M	'P1'
_symmetry_Int_Tables_number	1
_symmetry_cell_setting	triclinic
loop_
_symmetry_equiv_pos_as_xyz
  x,y,z
_cell_length_a	10.686220
_cell_length_b	10.686285
_cell_length_c	12.759393
_cell_angle_alpha	85.602987
_cell_angle_beta	94.348342
_cell_angle_gamma	90.345594
loop_
_atom_site_label
_atom_site_type_symbol
_atom_site_fract_x
_atom_site_fract_y
_atom_site_fract_z
Zn1	Zn	1.956181	-0.352031	-0.446833
Zn2	Zn	1.972173	-0.561842	-0.256759
Zn3	Zn	1.746406	-0.368205	-0.283515
Zn4	Zn	1.762506	-0.577853	-0.444746
O5	O	1.859316	-0.464983	-0.357963
O6	O	2.133840	-0.366393	-0.411295
O7	O	1.942179	-0.536224	-0.113286
O8	O	1.760803	-0.190515	-0.317250
O9	O	2.145589	-0.520540	-0.271649
O10	O	1.914923	-0.178631	-0.437239
O11	O	1.776309	-0.393960	-0.132943
O12	O	1.573004	-0.409485	-0.315226
O13	O	1.788243	-0.547829	-0.592046
O14	O	1.584833	-0.563513	-0.433683
O15	O	1.930535	-0.381918	-0.593579
O16	O	1.957790	-0.739511	-0.269625
O17	O	1.803749	-0.751274	-0.407739
C18	C	1.533404	-0.489993	-0.377132
C19	C	1.393979	-0.500722	-0.385355
C20	C	1.884286	-0.790906	-0.335573
C21	C	1.895083	-0.930329	-0.326023
C22	C	2.186502	-0.439876	-0.338720
C23	C	2.325929	-0.429177	-0.330520
C24	C	1.859401	-0.464855	-0.631999
C25	C	1.859437	-0.464801	-0.748777
C26	C	1.834283	-0.137784	-0.380462
C27	C	1.823616	0.001649	-0.390049
C28	C	1.933534	-0.378398	-0.804440
C29	C	1.933551	-0.378342	-0.914166
C30	C	1.785372	-0.551103	-0.912558
C31	C	1.785349	-0.551152	-0.802834
C32	C	1.859297	-0.465014	-0.084995
C33	C	1.859477	-0.464696	0.031772
H34	H	1.345576	-0.570185	-0.438591
H35	H	1.374338	-0.359718	-0.277273
C36	C	1.731108	-0.933941	-0.473049
C37	C	1.760765	-0.963546	-0.573267
C38	C	1.675565	-0.904239	-0.649752
H39	H	1.735839	-0.845658	-0.468826
H40	H	1.648459	-0.961933	-0.461181
H41	H	1.843393	-0.935547	-0.585131
H42	H	1.756026	-1.051818	-0.577524
H43	H	1.592916	-0.932231	-0.637885
H44	H	1.680303	-0.815959	-0.645520
H45	H	1.695668	-0.924327	-0.717758
C46	C	1.987698	-0.995122	-0.243313
C47	C	1.980410	-1.125163	-0.250001
C48	C	2.065738	-1.184888	-0.173852
H49	H	1.967891	-0.975354	-0.175158
H50	H	2.070342	-0.967205	-0.255291
H51	H	1.897785	-1.153070	-0.238015
H52	H	2.000230	-1.144968	-0.318139
H53	H	2.148381	-1.156970	-0.185831
H54	H	2.045923	-1.165110	-0.105702
H55	H	2.060813	-1.273125	-0.178386
H56	H	1.993885	-0.307982	-0.959482
H57	H	1.993857	-0.308081	-0.760430
C58	C	1.705078	-0.644801	-0.971435
C59	C	1.720982	-0.626290	-1.079437
C60	C	1.647049	-0.712596	-1.133703
H61	H	1.619342	-0.632998	-0.959792
H62	H	1.729894	-0.727713	-0.946634
H63	H	1.696160	-0.543398	-1.104229
H64	H	1.806702	-0.638103	-1.091112
H65	H	1.671864	-0.795508	-1.108902
H66	H	1.561318	-0.700786	-1.122051
H67	H	1.657838	-0.700056	-1.206987
C68	C	1.704862	-0.645110	-0.742575
C69	C	1.640018	-0.720752	-0.813393
C70	C	1.565876	-0.807323	-0.757919
H71	H	1.646428	-0.601482	-0.706275
H72	H	1.756999	-0.696174	-0.693213
H73	H	1.587885	-0.669696	-0.862736
H74	H	1.698421	-0.764409	-0.849695
H75	H	1.618012	-0.858387	-0.708557
H76	H	1.507449	-0.763684	-0.721622
H77	H	1.521879	-0.858664	-0.805960
