data_functionalizedCrystal
_audit_creation_method	'MofGen! by Chris Wilmer'
_symmetry_space_group_name_H-M	'P1'
_symmetry_Int_Tables_number	1
_symmetry_cell_setting	triclinic
loop_
_symmetry_equiv_pos_as_xyz
  x,y,z
_cell_length_a	19.288864
_cell_length_b	10.868271
_cell_length_c	19.288865
_cell_angle_alpha	90.010362
_cell_angle_beta	83.136245
_cell_angle_gamma	90.018163
loop_
_atom_site_label
_atom_site_type_symbol
_atom_site_fract_x
_atom_site_fract_y
_atom_site_fract_z
O1	O	0.921348	0.102731	0.086648
O2	O	1.171348	0.352731	0.336648
O3	O	1.421348	0.602731	0.586648
O4	O	1.671348	0.852731	0.836648
O5	O	0.719087	0.102649	0.098337
O6	O	0.969087	0.352649	0.348337
O7	O	1.219087	0.602649	0.598337
O8	O	1.469087	0.852649	0.848337
O9	O	0.826062	0.102668	-0.008638
O10	O	1.076062	0.352668	0.241362
O11	O	1.326062	0.602668	0.491362
O12	O	1.576062	0.852668	0.741362
O13	O	0.814373	0.102712	0.193623
O14	O	1.064373	0.352712	0.443623
O15	O	1.314373	0.602712	0.693623
O16	O	1.564373	0.852712	0.943623
O17	O	0.826053	-0.101977	-0.008642
O18	O	1.076053	0.148023	0.241358
O19	O	1.326053	0.398023	0.491358
O20	O	1.576053	0.648023	0.741358
O21	O	0.719079	-0.101996	0.098333
O22	O	0.969079	0.148004	0.348333
O23	O	1.219079	0.398004	0.598333
O24	O	1.469079	0.648004	0.848333
O25	O	0.921339	-0.101914	0.086644
O26	O	1.171339	0.148086	0.336644
O27	O	1.421339	0.398086	0.586644
O28	O	1.671339	0.648086	0.836644
Zn29	Zn	0.820208	-0.134447	0.092488
Zn30	Zn	1.070208	0.115553	0.342488
Zn31	Zn	1.320208	0.365553	0.592488
Zn32	Zn	1.570208	0.615553	0.842488
Zn33	Zn	0.820219	0.135181	0.092493
Zn34	Zn	1.070219	0.385181	0.342493
Zn35	Zn	1.320219	0.635181	0.592493
Zn36	Zn	1.570219	0.885181	0.842493
O37	O	0.814365	-0.101933	0.193619
O38	O	1.064365	0.148067	0.443619
O39	O	1.314365	0.398067	0.693619
O40	O	1.564365	0.648067	0.943619
C41	C	0.693207	0.000315	0.097959
C42	C	0.943207	0.250315	0.347959
C43	C	1.193207	0.500315	0.597959
C44	C	1.443207	0.750315	0.847959
C45	C	0.616103	0.000283	0.096830
C46	C	0.866103	0.250283	0.346830
C47	C	1.116103	0.500283	0.596830
C48	C	1.366103	0.750283	0.846830
C49	C	0.571407	0.000316	0.159598
C50	C	0.821407	0.250316	0.409598
C51	C	1.071407	0.500316	0.659598
C52	C	1.321407	0.750316	0.909598
C53	C	0.498960	0.000329	0.158537
C54	C	0.748960	0.250329	0.408537
C55	C	0.998960	0.500329	0.658537
C56	C	1.248960	0.750329	0.908537
C57	C	0.471212	0.000334	0.094705
C58	C	0.721212	0.250334	0.344705
C59	C	0.971212	0.500334	0.594705
C60	C	1.221212	0.750334	0.844705
C61	C	0.515918	0.000294	0.031929
C62	C	0.765918	0.250294	0.281929
C63	C	1.015918	0.500294	0.531929
C64	C	1.265918	0.750294	0.781929
C65	C	0.588364	0.000269	0.032991
C66	C	0.838364	0.250269	0.282991
C67	C	1.088364	0.500269	0.532991
C68	C	1.338364	0.750269	0.782991
C69	C	0.362953	0.072061	0.044527
C70	C	0.612953	0.322061	0.294527
C71	C	0.862953	0.572061	0.544527
C72	C	1.112953	0.822061	0.794527
C73	C	0.290509	0.072094	0.043467
C74	C	0.540509	0.322094	0.293467
C75	C	0.790509	0.572094	0.543467
C76	C	1.040509	0.822094	0.793467
C77	C	0.247767	0.000408	0.091425
C78	C	0.497767	0.250408	0.341425
C79	C	0.747767	0.500408	0.591425
C80	C	0.997767	0.750408	0.841425
C81	C	0.277476	-0.071295	0.140455
C82	C	0.527476	0.178705	0.390455
C83	C	0.777476	0.428705	0.640455
C84	C	1.027476	0.678705	0.890455
C85	C	0.349922	-0.071321	0.141517
C86	C	0.599922	0.178679	0.391517
C87	C	0.849922	0.428679	0.641517
C88	C	1.099922	0.678679	0.891517
C89	C	0.392658	0.000361	0.093546
C90	C	0.642658	0.250361	0.343546
C91	C	0.892658	0.500361	0.593546
C92	C	1.142658	0.750361	0.843546
C93	C	0.124514	0.000454	0.153047
C94	C	0.374514	0.250454	0.403047
C95	C	0.624514	0.500454	0.653047
C96	C	0.874514	0.750454	0.903047
C97	C	0.052066	0.000460	0.151984
C98	C	0.302066	0.250460	0.401984
C99	C	0.552066	0.500460	0.651984
C100	C	0.802066	0.750460	0.901984
C101	C	0.069026	0.000437	0.025374
C102	C	0.319026	0.250437	0.275374
C103	C	0.569026	0.500437	0.525374
C104	C	0.819026	0.750437	0.775374
C105	C	0.141473	0.000419	0.026439
C106	C	0.391473	0.250419	0.276439
C107	C	0.641473	0.500419	0.526439
C108	C	0.891473	0.750419	0.776439
C109	C	0.169212	0.000433	0.090278
C110	C	0.419212	0.250433	0.340278
C111	C	0.669212	0.500433	0.590278
C112	C	0.919212	0.750433	0.840278
N113	N	0.820205	-0.318461	0.092484
N114	N	1.070205	-0.068461	0.342484
N115	N	1.320205	0.181539	0.592484
N116	N	1.570205	0.431539	0.842484
C117	C	0.820216	-0.569467	0.092492
C118	C	1.070216	-0.319467	0.342492
C119	C	1.320216	-0.069467	0.592492
C120	C	1.570216	0.180533	0.842492
C121	C	0.820207	-0.429789	0.092489
C122	C	1.070207	-0.179789	0.342489
C123	C	1.320207	0.070211	0.592489
C124	C	1.570207	0.320211	0.842489
C125	C	0.947220	0.000422	0.087022
C126	C	1.197220	0.250422	0.337022
C127	C	1.447220	0.500422	0.587022
C128	C	1.697220	0.750422	0.837022
C129	C	1.024324	0.000463	0.088151
C130	C	1.274324	0.250463	0.338151
C131	C	1.524324	0.500463	0.588151
C132	C	1.774324	0.750463	0.838151
C133	C	0.825682	0.000342	-0.034516
C134	C	1.075682	0.250342	0.215484
C135	C	1.325682	0.500342	0.465484
C136	C	1.575682	0.750342	0.715484
C137	C	0.824553	0.000330	-0.111620
C138	C	1.074553	0.250330	0.138380
C139	C	1.324553	0.500330	0.388380
C140	C	1.574553	0.750330	0.638380
N141	N	0.820227	0.319196	0.092492
N142	N	1.070227	0.569196	0.342492
N143	N	1.320227	0.819196	0.592492
N144	N	1.570227	1.069196	0.842492
C145	C	0.887321	0.000350	-0.156316
C146	C	1.137321	0.250350	0.093684
C147	C	1.387321	0.500350	0.343684
C148	C	1.637321	0.750350	0.593684
C149	C	0.886260	0.000369	-0.228763
C150	C	1.136260	0.250369	0.021237
C151	C	1.386260	0.500369	0.271237
C152	C	1.636260	0.750369	0.521237
C153	C	0.822428	0.000344	-0.256511
C154	C	1.072428	0.250344	-0.006511
C155	C	1.322428	0.500344	0.243489
C156	C	1.572428	0.750344	0.493489
C157	C	0.759652	0.000331	-0.211805
C158	C	1.009652	0.250331	0.038195
C159	C	1.259652	0.500331	0.288195
C160	C	1.509652	0.750331	0.538195
C161	C	0.760714	0.000324	-0.139359
C162	C	1.010714	0.250324	0.110641
C163	C	1.260714	0.500324	0.360641
C164	C	1.510714	0.750324	0.610641
C165	C	0.772245	-0.071359	-0.364800
C166	C	1.022245	0.178641	-0.114800
C167	C	1.272245	0.428641	0.135200
C168	C	1.522245	0.678641	0.385200
C169	C	0.771185	-0.071360	-0.437244
C170	C	1.021185	0.178640	-0.187244
C171	C	1.271185	0.428640	0.062756
C172	C	1.521185	0.678640	0.312756
C173	C	0.819148	0.000370	-0.479956
C174	C	1.069148	0.250370	-0.229956
C175	C	1.319148	0.500370	0.020044
C176	C	1.569148	0.750370	0.270044
C177	C	0.868183	0.072085	-0.450217
C178	C	1.118183	0.322085	-0.200217
C179	C	1.368183	0.572085	0.049783
C180	C	1.618183	0.822085	0.299783
C181	C	0.869245	0.072078	-0.377771
C182	C	1.119245	0.322078	-0.127771
C183	C	1.369245	0.572078	0.122229
C184	C	1.619245	0.822078	0.372229
C185	C	0.821269	0.000352	-0.335065
C186	C	1.071269	0.250352	-0.085065
C187	C	1.321269	0.500352	0.164935
C188	C	1.571269	0.750352	0.414935
C189	C	0.880770	0.000412	-0.603209
C190	C	1.130770	0.250412	-0.353209
C191	C	1.380770	0.500412	-0.103209
C192	C	1.630770	0.750412	0.146791
C193	C	0.879707	0.000438	-0.675657
C194	C	1.129707	0.250438	-0.425657
C195	C	1.379707	0.500438	-0.175657
C196	C	1.629707	0.750438	0.074343
C197	C	0.753097	0.000388	-0.658697
C198	C	1.003097	0.250388	-0.408697
C199	C	1.253097	0.500388	-0.158697
C200	C	1.503097	0.750388	0.091303
C201	C	0.754162	0.000374	-0.586250
C202	C	1.004162	0.250374	-0.336250
C203	C	1.254162	0.500374	-0.086250
C204	C	1.504162	0.750374	0.163750
C205	C	0.818000	0.000380	-0.558511
C206	C	1.068000	0.250380	-0.308511
C207	C	1.318000	0.500380	-0.058511
C208	C	1.568000	0.750380	0.191489
C209	C	0.814745	0.000396	0.219497
C210	C	1.064745	0.250396	0.469497
C211	C	1.314745	0.500396	0.719497
C212	C	1.564745	0.750396	0.969497
C213	C	0.815874	0.000415	0.296601
C214	C	1.065874	0.250415	0.546601
C215	C	1.315874	0.500415	0.796601
C216	C	1.565874	0.750415	1.046601
H217	H	0.015674	0.000479	0.203099
H218	H	0.265674	0.250479	0.453099
H219	H	0.515674	0.500479	0.703099
H220	H	0.765674	0.750479	0.953099
F221	F	0.635935	0.000233	-0.033818
F222	F	0.885935	0.250233	0.216182
F223	F	1.135935	0.500233	0.466182
F224	F	1.385935	0.750233	0.716182
H225	H	0.937375	0.000390	-0.265162
H226	H	1.187375	0.250390	-0.015162
H227	H	1.437375	0.500390	0.234838
H228	H	1.687375	0.750390	0.484838
F229	F	0.258895	0.148418	-0.008708
F230	F	0.508895	0.398418	0.241292
F231	F	0.758895	0.648418	0.491292
F232	F	1.008895	0.898418	0.741292
F233	F	0.948712	0.000412	-0.573684
F234	F	1.198712	0.250412	-0.323684
F235	F	1.448712	0.500412	-0.073684
F236	F	1.698712	0.750412	0.176316
F237	F	0.451382	0.000361	0.225346
F238	F	0.701382	0.250361	0.475346
F239	F	0.951382	0.500361	0.725346
F240	F	1.201382	0.750361	0.975346
H241	H	0.177866	0.000399	-0.024674
H242	H	0.427866	0.250399	0.225326
H243	H	0.677866	0.500399	0.475326
H244	H	0.927866	0.750399	0.725326
F245	F	0.691717	0.000312	-0.241336
F246	F	0.941717	0.250312	0.008664
F247	F	1.191717	0.500312	0.258664
F248	F	1.441717	0.750312	0.508664
F249	F	0.486386	0.000294	-0.036006
F250	F	0.736386	0.250294	0.213994
F251	F	0.986386	0.500294	0.463994
F252	F	1.236386	0.750294	0.713994
H253	H	0.733186	-0.129777	-0.330028
H254	H	0.983186	0.120223	-0.080028
H255	H	1.233186	0.370223	0.169972
H256	H	1.483186	0.620223	0.419972
H257	H	0.374108	-0.129708	0.181437
H258	H	0.624108	0.120292	0.431437
H259	H	0.874108	0.370292	0.681437
H260	H	1.124108	0.620292	0.931437
H261	H	0.397749	0.130444	0.005472
H262	H	0.647749	0.380444	0.255472
H263	H	0.897749	0.630444	0.505472
H264	H	1.147749	0.880444	0.755472
H265	H	0.939303	0.000359	-0.133736
H266	H	1.189303	0.250359	0.116264
H267	H	1.439303	0.500359	0.366264
H268	H	1.689303	0.750359	0.616264
H269	H	0.909169	0.130474	-0.353560
H270	H	1.159169	0.380474	-0.103560
H271	H	1.409169	0.630474	0.146440
H272	H	1.659169	0.880474	0.396440
H273	H	0.701123	0.000374	-0.681288
H274	H	0.951123	0.250374	-0.431288
H275	H	1.201123	0.500374	-0.181288
H276	H	1.451123	0.750374	0.068712
H277	H	0.709599	0.000308	-0.102967
H278	H	0.959599	0.250308	0.147033
H279	H	1.209599	0.500308	0.397033
H280	H	1.459599	0.750308	0.647033
H281	H	0.046435	0.000518	-0.026600
H282	H	0.296435	0.250518	0.223400
H283	H	0.546435	0.500518	0.473400
H284	H	0.796435	0.750518	0.723400
H285	H	0.593987	0.000330	0.211580
H286	H	0.843987	0.250330	0.461580
H287	H	1.093987	0.500330	0.711580
H288	H	1.343987	0.750330	0.961580
F289	F	0.946517	0.000467	-0.723227
F290	F	1.196517	0.250467	-0.473227
F291	F	1.446517	0.500467	-0.223227
F292	F	1.696517	0.750467	0.026773
H293	H	0.242677	-0.129670	0.179506
H294	H	0.492677	0.120330	0.429506
H295	H	0.742677	0.370330	0.679506
H296	H	0.992677	0.620330	0.929506
F297	F	0.154039	0.000460	0.220989
F298	F	0.404039	0.250460	0.470989
F299	F	0.654039	0.500460	0.720989
F300	F	0.904039	0.750460	0.970989
H301	H	0.907238	0.130495	-0.484992
H302	H	1.157238	0.380495	-0.234992
H303	H	1.407238	0.630495	0.015008
H304	H	1.657238	0.880495	0.265008
H305	H	0.703049	0.000351	-0.549857
H306	H	0.953049	0.250351	-0.299857
H307	H	1.203049	0.500351	-0.049857
H308	H	1.453049	0.750351	0.200143
H309	H	0.731256	-0.129748	-0.461452
H310	H	0.981256	0.120252	-0.211452
H311	H	1.231256	0.370252	0.038548
H312	H	1.481256	0.620252	0.288548
