data_functionalizedCrystal
_audit_creation_method	'MofGen! by Chris Wilmer'
_symmetry_space_group_name_H-M	'P1'
_symmetry_Int_Tables_number	1
_symmetry_cell_setting	triclinic
loop_
_symmetry_equiv_pos_as_xyz
  x,y,z
_cell_length_a	21.295418
_cell_length_b	18.050589
_cell_length_c	18.050582
_cell_angle_alpha	89.981795
_cell_angle_beta	89.965893
_cell_angle_gamma	90.044036
loop_
_atom_site_label
_atom_site_type_symbol
_atom_site_fract_x
_atom_site_fract_y
_atom_site_fract_z
Zn1	Zn	0.962306	-0.295393	-0.420315
Zn2	Zn	1.212306	-0.045393	-0.170315
Zn3	Zn	1.462306	0.204607	0.079685
Zn4	Zn	1.712306	0.454607	0.329685
Zn5	Zn	0.962230	-0.419576	-0.296135
Zn6	Zn	1.212230	-0.169576	-0.046135
Zn7	Zn	1.462230	0.080424	0.203865
Zn8	Zn	1.712230	0.330424	0.453865
Zn9	Zn	0.857047	-0.295439	-0.296098
Zn10	Zn	1.107047	-0.045439	-0.046098
Zn11	Zn	1.357047	0.204561	0.203902
Zn12	Zn	1.607047	0.454561	0.453902
Zn13	Zn	0.857003	-0.419580	-0.420242
Zn14	Zn	1.107003	-0.169580	-0.170242
Zn15	Zn	1.357003	0.080420	0.079758
Zn16	Zn	1.607003	0.330420	0.329758
O17	O	0.909646	-0.357497	-0.358197
O18	O	1.159646	-0.107497	-0.108197
O19	O	1.409646	0.142503	0.141803
O20	O	1.659646	0.392503	0.391803
O21	O	1.050385	-0.311846	-0.403889
O22	O	1.300385	-0.061846	-0.153889
O23	O	1.550385	0.188154	0.096111
O24	O	1.800385	0.438154	0.346111
O25	O	0.948264	-0.403127	-0.192205
O26	O	1.198264	-0.153127	0.057795
O27	O	1.448264	0.096873	0.307795
O28	O	1.698264	0.346873	0.557795
O29	O	0.871060	-0.191508	-0.312591
O30	O	1.121060	0.058492	-0.062591
O31	O	1.371060	0.308492	0.187409
O32	O	1.621060	0.558492	0.437409
O33	O	1.050330	-0.403083	-0.312654
O34	O	1.300330	-0.153083	-0.062654
O35	O	1.550330	0.096917	0.187346
O36	O	1.800330	0.346917	0.437346
O37	O	0.948393	-0.191475	-0.403853
O38	O	1.198393	0.058525	-0.153853
O39	O	1.448393	0.308525	0.096147
O40	O	1.698393	0.558525	0.346147
O41	O	0.870986	-0.311924	-0.192178
O42	O	1.120986	-0.061924	0.057822
O43	O	1.370986	0.188076	0.307822
O44	O	1.620986	0.438076	0.557822
O45	O	0.768952	-0.311927	-0.312520
O46	O	1.018952	-0.061927	-0.062520
O47	O	1.268952	0.188073	0.187480
O48	O	1.518952	0.438073	0.437480
O49	O	0.870985	-0.403089	-0.524176
O50	O	1.120985	-0.153089	-0.274176
O51	O	1.370985	0.096911	-0.024176
O52	O	1.620985	0.346911	0.225824
O53	O	0.768919	-0.403133	-0.403727
O54	O	1.018919	-0.153133	-0.153727
O55	O	1.268919	0.096867	0.096273
O56	O	1.518919	0.346867	0.346273
O57	O	0.948350	-0.311849	-0.524230
O58	O	1.198350	-0.061849	-0.274230
O59	O	1.448350	0.188151	-0.024230
O60	O	1.698350	0.438151	0.225770
O61	O	0.948221	-0.523502	-0.312582
O62	O	1.198221	-0.273502	-0.062582
O63	O	1.448221	-0.023502	0.187418
O64	O	1.698221	0.226498	0.437418
O65	O	0.870911	-0.523504	-0.403763
O66	O	1.120911	-0.273504	-0.153763
O67	O	1.370911	-0.023504	0.096237
O68	O	1.620911	0.226496	0.346237
C69	C	0.909570	-0.550449	-0.358185
C70	C	1.159570	-0.300449	-0.108185
C71	C	1.409570	-0.050449	0.141815
C72	C	1.659570	0.199551	0.391815
C73	C	0.909596	-0.632995	-0.358205
C74	C	1.159596	-0.382995	-0.108205
C75	C	1.409596	-0.132995	0.141795
C76	C	1.659596	0.117005	0.391795
C77	C	0.746095	-0.357536	-0.358112
C78	C	0.996095	-0.107536	-0.108112
C79	C	1.246095	0.142464	0.141888
C80	C	1.496095	0.392464	0.391888
C81	C	0.676127	-0.357571	-0.358093
C82	C	0.926127	-0.107571	-0.108093
C83	C	1.176127	0.142429	0.141907
C84	C	1.426127	0.392429	0.391907
C85	C	0.867596	-0.832474	-0.407771
C86	C	1.117596	-0.582474	-0.157771
C87	C	1.367596	-0.332474	0.092229
C88	C	1.617596	-0.082474	0.342229
C89	C	0.852255	-0.881913	-0.339998
C90	C	1.102255	-0.631913	-0.089998
C91	C	1.352255	-0.381913	0.160002
C92	C	1.602255	-0.131913	0.410002
C93	C	0.909657	-0.784125	-0.358214
C94	C	1.159657	-0.534125	-0.108214
C95	C	1.409657	-0.284125	0.141786
C96	C	1.659657	-0.034125	0.391786
C97	C	0.925029	-0.881768	-0.425995
C98	C	1.175029	-0.631768	-0.175995
C99	C	1.425029	-0.381768	0.074005
C100	C	1.675029	-0.131768	0.324005
C101	C	0.909716	-0.930111	-0.358230
C102	C	1.159716	-0.680111	-0.108230
C103	C	1.409716	-0.430111	0.141770
C104	C	1.659716	-0.180111	0.391770
C105	C	0.894287	-0.832477	-0.290405
C106	C	1.144287	-0.582477	-0.040405
C107	C	1.394287	-0.332477	0.209595
C108	C	1.644287	-0.082477	0.459595
C109	C	0.967087	-0.832328	-0.376448
C110	C	1.217087	-0.582328	-0.126448
C111	C	1.467087	-0.332328	0.123552
C112	C	1.717087	-0.082328	0.373552
C113	C	0.951768	-0.881745	-0.308628
C114	C	1.201768	-0.631745	-0.058628
C115	C	1.451768	-0.381745	0.191372
C116	C	1.701768	-0.131745	0.441372
C117	C	0.909622	-0.700027	-0.358206
C118	C	1.159622	-0.450027	-0.108206
C119	C	1.409622	-0.200027	0.141794
C120	C	1.659622	0.049973	0.391794
C121	C	0.909751	-1.014207	-0.358230
C122	C	1.159751	-0.764207	-0.108230
C123	C	1.409751	-0.514207	0.141770
C124	C	1.659751	-0.264207	0.391770
C125	C	0.643260	-0.405125	-0.405514
C126	C	0.893260	-0.155125	-0.155514
C127	C	1.143260	0.094875	0.094486
C128	C	1.393260	0.344875	0.344486
C129	C	0.577517	-0.405106	-0.405547
C130	C	0.827517	-0.155106	-0.155547
C131	C	1.077517	0.094894	0.094453
C132	C	1.327517	0.344894	0.344453
C133	C	0.544644	-0.357542	-0.358146
C134	C	0.794644	-0.107542	-0.108146
C135	C	1.044644	0.142458	0.141854
C136	C	1.294644	0.392458	0.391854
C137	C	0.577519	-0.309979	-0.310722
C138	C	0.827519	-0.059979	-0.060722
C139	C	1.077519	0.190021	0.189278
C140	C	1.327519	0.440021	0.439278
C141	C	0.643260	-0.309993	-0.310695
C142	C	0.893260	-0.059993	-0.060695
C143	C	1.143260	0.190007	0.189305
C144	C	1.393260	0.440007	0.439305
N145	N	0.441377	-0.351735	-0.293191
N146	N	0.691377	-0.101735	-0.043191
N147	N	0.941377	0.148265	0.206809
N148	N	1.191377	0.398265	0.456809
N149	N	0.378926	-0.351726	-0.293218
N150	N	0.628926	-0.101726	-0.043218
N151	N	0.878926	0.148274	0.206782
N152	N	1.128926	0.398274	0.456782
C153	C	0.346570	-0.357495	-0.358225
C154	C	0.596570	-0.107495	-0.108225
C155	C	0.846570	0.142505	0.141775
C156	C	1.096570	0.392505	0.391775
N157	N	0.379024	-0.363288	-0.423205
N158	N	0.629024	-0.113288	-0.173205
N159	N	0.879024	0.136712	0.076795
N160	N	1.129024	0.386712	0.326795
N161	N	0.441481	-0.363301	-0.423177
N162	N	0.691481	-0.113301	-0.173177
N163	N	0.941481	0.136699	0.076823
N164	N	1.191481	0.386699	0.326823
C165	C	0.473359	-0.357521	-0.358170
C166	C	0.723359	-0.107521	-0.108170
C167	C	0.973359	0.142479	0.141830
C168	C	1.223359	0.392479	0.391830
C169	C	0.242417	-0.405031	-0.405686
C170	C	0.492417	-0.155031	-0.155686
C171	C	0.742417	0.094969	0.094314
C172	C	0.992417	0.344969	0.344314
C173	C	0.176673	-0.405008	-0.405721
C174	C	0.426673	-0.155008	-0.155721
C175	C	0.676673	0.094992	0.094279
C176	C	0.926673	0.344992	0.344279
C177	C	0.176677	-0.309884	-0.310889
C178	C	0.426677	-0.059884	-0.060889
C179	C	0.676677	0.190116	0.189111
C180	C	0.926677	0.440116	0.439111
C181	C	0.242419	-0.309904	-0.310861
C182	C	0.492419	-0.059904	-0.060861
C183	C	0.742419	0.190096	0.189139
C184	C	0.992419	0.440096	0.439139
C185	C	0.275285	-0.357481	-0.358259
C186	C	0.525285	-0.107481	-0.108259
C187	C	0.775285	0.142519	0.141741
C188	C	1.025285	0.392519	0.391741
C189	C	1.073837	-0.357459	-0.358284
C190	C	1.323837	-0.107459	-0.108284
C191	C	1.573837	0.142541	0.141716
C192	C	1.823837	0.392541	0.391716
C193	C	1.143805	-0.357442	-0.358320
C194	C	1.393805	-0.107442	-0.108320
C195	C	1.643805	0.142558	0.141680
C196	C	1.893805	0.392558	0.391680
C197	C	0.909671	-0.357464	-0.551903
C198	C	1.159671	-0.107464	-0.301903
C199	C	1.409671	0.142536	-0.051903
C200	C	1.659671	0.392536	0.198097
C201	C	0.909682	-0.357450	-0.634449
C202	C	1.159682	-0.107450	-0.384449
C203	C	1.409682	0.142550	-0.134449
C204	C	1.659682	0.392550	0.115551
C205	C	0.909740	-0.163792	-0.358226
C206	C	1.159740	0.086208	-0.108226
C207	C	1.409740	0.336208	0.141774
C208	C	1.659740	0.586208	0.391774
C209	C	0.909780	-0.081246	-0.358238
C210	C	1.159780	0.168754	-0.108238
C211	C	1.409780	0.418754	0.141762
C212	C	1.659780	0.668754	0.391762
C213	C	0.867642	-0.406999	-0.833870
C214	C	1.117642	-0.156999	-0.583870
C215	C	1.367642	0.093001	-0.333870
C216	C	1.617642	0.343001	-0.083870
C217	C	0.925074	-0.425133	-0.883286
C218	C	1.175074	-0.175133	-0.633286
C219	C	1.425074	0.074867	-0.383286
C220	C	1.675074	0.324867	-0.133286
C221	C	0.909713	-0.357394	-0.785579
C222	C	1.159713	-0.107394	-0.535579
C223	C	1.409713	0.142606	-0.285579
C224	C	1.659713	0.392606	-0.035579
C225	C	0.852313	-0.339238	-0.883246
C226	C	1.102313	-0.089238	-0.633246
C227	C	1.352313	0.160762	-0.383246
C228	C	1.602313	0.410762	-0.133246
C229	C	0.909738	-0.357340	-0.931565
C230	C	1.159738	-0.107340	-0.681565
C231	C	1.409738	0.142660	-0.431565
C232	C	1.659738	0.392660	-0.181565
C233	C	0.967174	-0.375564	-0.833908
C234	C	1.217174	-0.125564	-0.583908
C235	C	1.467174	0.124436	-0.333908
C236	C	1.717174	0.374436	-0.083908
C237	C	0.894375	-0.289637	-0.833863
C238	C	1.144375	-0.039637	-0.583863
C239	C	1.394375	0.210363	-0.333863
C240	C	1.644375	0.460363	-0.083863
C241	C	0.951846	-0.307746	-0.883256
C242	C	1.201846	-0.057746	-0.633256
C243	C	1.451846	0.192254	-0.383256
C244	C	1.701846	0.442254	-0.133256
C245	C	0.909697	-0.357426	-0.701481
C246	C	1.159697	-0.107426	-0.451481
C247	C	1.409697	0.142574	-0.201481
C248	C	1.659697	0.392574	0.048519
C249	C	0.909759	-0.357307	-1.015661
C250	C	1.159759	-0.107307	-0.765661
C251	C	1.409759	0.142693	-0.515661
C252	C	1.659759	0.392693	-0.265661
C253	C	0.909658	-0.357476	-0.165245
C254	C	1.159658	-0.107476	0.084755
C255	C	1.409658	0.142524	0.334755
C256	C	1.659658	0.392524	0.584755
C257	C	0.909770	-0.357281	-0.082700
C258	C	1.159770	-0.107281	0.167300
C259	C	1.409770	0.142719	0.417300
C260	C	1.659770	0.392719	0.667300
H261	H	0.803716	-0.903709	-0.324590
H262	H	1.053716	-0.653709	-0.074590
H263	H	1.303716	-0.403709	0.175410
H264	H	1.553716	-0.153709	0.425410
H265	H	0.832098	-0.449003	-0.812187
H266	H	1.082098	-0.199003	-0.562187
H267	H	1.332098	0.050997	-0.312187
H268	H	1.582098	0.300997	-0.062187
H269	H	0.803760	-0.323905	-0.904919
H270	H	1.053760	-0.073905	-0.654919
H271	H	1.303760	0.176095	-0.404919
H272	H	1.553760	0.426095	-0.154919
H273	H	1.015615	-0.810534	-0.391889
H274	H	1.265615	-0.560534	-0.141889
H275	H	1.515615	-0.310534	0.108111
H276	H	1.765615	-0.060534	0.358111
H277	H	0.550750	-0.271251	-0.272129
H278	H	0.800750	-0.021251	-0.022129
H279	H	1.050750	0.228749	0.227871
H280	H	1.300750	0.478749	0.477871
O281	O	0.942279	-0.500998	-0.912054
O282	O	1.192279	-0.250998	-0.662054
O283	O	1.442279	-0.000998	-0.412054
O284	O	1.692279	0.249002	-0.162054
H285	H	0.907280	-0.542099	-0.892282
H286	H	1.157280	-0.292099	-0.642282
H287	H	1.407280	-0.042099	-0.392282
H288	H	1.657280	0.207901	-0.142282
O289	O	0.877017	-0.803927	-0.214461
O290	O	1.127017	-0.553927	0.035539
O291	O	1.377017	-0.303927	0.285539
O292	O	1.627017	-0.053927	0.535539
H293	H	0.877103	-0.742439	-0.215059
H294	H	1.127103	-0.492439	0.034941
H295	H	1.377103	-0.242439	0.284941
H296	H	1.627103	0.007561	0.534941
O297	O	0.877136	-0.213799	-0.805066
O298	O	1.127136	0.036201	-0.555066
O299	O	1.377136	0.286201	-0.305066
O300	O	1.627136	0.536201	-0.055066
H301	H	0.868104	-0.176109	-0.852468
H302	H	1.118104	0.073891	-0.602468
H303	H	1.368104	0.323891	-0.352468
H304	H	1.618104	0.573891	-0.102468
H305	H	0.670015	-0.443865	-0.444110
H306	H	0.920015	-0.193865	-0.194110
H307	H	1.170015	0.056135	0.055890
H308	H	1.420015	0.306135	0.305890
H309	H	1.015741	-0.390962	-0.812325
H310	H	1.265741	-0.140962	-0.562325
H311	H	1.515741	0.109038	-0.312325
H312	H	1.765741	0.359038	-0.062325
H313	H	0.149914	-0.443730	-0.444341
H314	H	0.399914	-0.193730	-0.194341
H315	H	0.649914	0.056270	0.055659
H316	H	0.899914	0.306270	0.305659
O317	O	0.141232	-0.258587	-0.259755
O318	O	0.391232	-0.008587	-0.009755
O319	O	0.641232	0.241413	0.240245
O320	O	0.891232	0.491413	0.490245
H321	H	0.089995	-0.266569	-0.267734
H322	H	0.339995	-0.016569	-0.017734
H323	H	0.589995	0.233431	0.232266
H324	H	0.839995	0.483431	0.482266
H325	H	0.938006	-0.903420	-0.483311
H326	H	1.188006	-0.653420	-0.233311
H327	H	1.438006	-0.403420	0.016689
H328	H	1.688006	-0.153420	0.266689
O329	O	0.998922	-0.910229	-0.253068
O330	O	1.248922	-0.660229	-0.003068
O331	O	1.498922	-0.410229	0.246932
O332	O	1.748922	-0.160229	0.496932
H333	H	0.986039	-0.890380	-0.196889
H334	H	1.236039	-0.640380	0.053111
H335	H	1.486039	-0.390380	0.303111
H336	H	1.736039	-0.140380	0.553111
H337	H	0.670020	-0.271267	-0.272079
H338	H	0.920020	-0.021267	-0.022079
H339	H	1.170020	0.228733	0.227921
H340	H	1.420020	0.478733	0.477921
O341	O	0.542055	-0.456427	-0.456667
O342	O	0.792055	-0.206427	-0.206667
O343	O	1.042055	0.043573	0.043333
O344	O	1.292055	0.293573	0.293333
H345	H	0.575954	-0.489524	-0.489608
H346	H	0.825954	-0.239524	-0.239608
H347	H	1.075954	0.010476	0.010392
H348	H	1.325954	0.260476	0.260392
O349	O	0.820415	-0.803801	-0.463204
O350	O	1.070415	-0.553801	-0.213204
O351	O	1.320415	-0.303801	0.036796
O352	O	1.570415	-0.053801	0.286796
H353	H	0.772804	-0.823661	-0.447892
H354	H	1.022804	-0.573661	-0.197892
H355	H	1.272804	-0.323661	0.052108
H356	H	1.522804	-0.073661	0.302108
O357	O	0.277873	-0.456333	-0.456814
O358	O	0.527873	-0.206333	-0.206814
O359	O	0.777873	0.043667	0.043186
O360	O	1.027873	0.293667	0.293186
H361	H	0.243971	-0.489389	-0.489806
H362	H	0.493971	-0.239389	-0.239806
H363	H	0.743971	0.010611	0.010194
H364	H	0.993971	0.260611	0.260194
H365	H	0.269180	-0.271184	-0.272242
H366	H	0.519180	-0.021184	-0.022242
H367	H	0.769180	0.228816	0.227758
H368	H	1.019180	0.478816	0.477758
H369	H	0.987475	-0.265774	-0.904804
H370	H	1.237475	-0.015774	-0.654804
H371	H	1.487475	0.234226	-0.404804
H372	H	1.737475	0.484226	-0.154804
