data_functionalizedCrystal
_audit_creation_method	'MofGen! by Chris Wilmer'
_symmetry_space_group_name_H-M	'P1'
_symmetry_Int_Tables_number	1
_symmetry_cell_setting	triclinic
loop_
_symmetry_equiv_pos_as_xyz
  x,y,z
_cell_length_a	13.033293
_cell_length_b	18.101397
_cell_length_c	13.033109
_cell_angle_alpha	97.149218
_cell_angle_beta	74.800007
_cell_angle_gamma	97.189579
loop_
_atom_site_label
_atom_site_type_symbol
_atom_site_fract_x
_atom_site_fract_y
_atom_site_fract_z
Zn1	Zn	1.700266	-0.214578	-0.807151
Zn2	Zn	2.200266	0.285422	-0.307151
Zn3	Zn	1.677586	-0.324484	-0.629510
Zn4	Zn	2.177586	0.175516	-0.129510
Zn5	Zn	1.500070	-0.214592	-0.606954
Zn6	Zn	2.000070	0.285408	-0.106954
Zn7	Zn	1.522583	-0.352318	-0.784480
Zn8	Zn	2.022583	0.147682	-0.284480
O9	O	1.600126	-0.276493	-0.707024
O10	O	2.100126	0.223507	-0.207024
O11	O	1.845909	-0.217503	-0.802515
O12	O	2.345909	0.282497	-0.302515
O13	O	1.635125	-0.298263	-0.477879
O14	O	2.135125	0.201737	0.022121
O15	O	1.526696	-0.110955	-0.633559
O16	O	2.026696	0.389045	-0.133559
O17	O	1.829247	-0.298250	-0.672002
O18	O	2.329247	0.201750	-0.172002
O19	O	1.673779	-0.110945	-0.780643
O20	O	2.173779	0.389055	-0.280643
O21	O	1.504704	-0.217526	-0.461307
O22	O	2.004704	0.282474	0.038693
O23	O	1.354404	-0.244516	-0.611575
O24	O	1.854404	0.255484	-0.111575
O25	O	1.565066	-0.345689	-0.936126
O26	O	2.065066	0.154311	-0.436126
O27	O	1.370945	-0.345702	-0.742003
O28	O	1.870945	0.154298	-0.242003
O29	O	1.695609	-0.244492	-0.952783
O30	O	2.195609	0.255508	-0.452783
O31	O	1.656955	-0.431811	-0.650019
O32	O	2.156955	0.068189	-0.150019
O33	O	1.543075	-0.452260	-0.763874
O34	O	2.043075	0.047740	-0.263874
C35	C	1.324131	-0.298131	-0.671882
C36	C	1.824131	0.201869	-0.171882
C37	C	1.206062	-0.307408	-0.656873
C38	C	1.706062	0.192592	-0.156873
C39	C	1.161680	-0.271670	-0.714857
C40	C	1.661680	0.228330	-0.214857
C41	C	1.039650	-0.281257	-0.699346
C42	C	1.539650	0.218743	-0.199346
C43	C	1.600029	-0.468906	-0.706961
C44	C	2.100029	0.031094	-0.206961
C45	C	1.600089	-0.551217	-0.706982
C46	C	2.100089	-0.051217	-0.206982
C47	C	1.600237	-0.850305	-0.707096
C48	C	2.100237	-0.350305	-0.207096
C49	C	1.671630	-0.806083	-0.635212
C50	C	2.171630	-0.306083	-0.135212
C51	C	1.671941	-0.720459	-0.635461
C52	C	2.171941	-0.220459	-0.135461
C53	C	1.600163	-0.701924	-0.707038
C54	C	2.100163	-0.201924	-0.207038
C55	C	1.644731	-0.739342	-0.822857
C56	C	2.144731	-0.239342	-0.322857
C57	C	1.645307	-0.824902	-0.822489
C58	C	2.145307	-0.324902	-0.322489
C59	C	1.484181	-0.825381	-0.664102
C60	C	1.984181	-0.325381	-0.164102
C61	C	1.484418	-0.739491	-0.661674
C62	C	1.984418	-0.239491	-0.161674
C63	C	1.600121	-0.618066	-0.707012
C64	C	2.100121	-0.118066	-0.207012
C65	C	1.600283	-0.934163	-0.707130
C66	C	2.100283	-0.434163	-0.207130
C67	C	1.877199	-0.254770	-0.742304
C68	C	2.377199	0.245230	-0.242304
C69	C	1.995271	-0.245513	-0.757338
C70	C	2.495271	0.254487	-0.257338
C71	C	1.635379	-0.298194	-0.984073
C72	C	2.135379	0.201806	-0.484073
C73	C	1.650402	-0.307442	-1.102134
C74	C	2.150402	0.192558	-0.602134
C75	C	1.600256	-0.083327	-0.707114
C76	C	2.100256	0.416673	-0.207114
C77	C	1.600311	-0.001012	-0.707152
C78	C	2.100311	0.498988	-0.207152
C79	C	1.592570	-0.271617	-1.146570
C80	C	2.092570	0.228383	-0.646570
C81	C	1.608095	-0.281175	-1.268593
C82	C	2.108095	0.218825	-0.768593
C83	C	1.565072	-0.254818	-0.431061
C84	C	2.065072	0.245182	0.068939
C85	C	1.550255	-0.245345	-0.313026
C86	C	2.050255	0.254655	0.186974
H87	H	1.047611	-0.207812	-0.818462
H88	H	1.547611	0.292188	-0.318462
H89	H	1.427212	-0.727511	-0.709050
H90	H	1.927212	-0.227511	-0.209050
Cl91	Cl	1.456032	-0.187084	-1.232300
Cl92	Cl	1.956032	0.312916	-0.732300
Cl93	Cl	1.804223	-0.680951	-0.681134
Cl94	Cl	2.304223	-0.180951	-0.181134
Cl95	Cl	0.958844	-0.339455	-0.604960
Cl96	Cl	1.458844	0.160545	-0.104960
Cl97	Cl	1.242488	-0.213467	-0.809230
Cl98	Cl	1.742488	0.286533	-0.309230
Cl99	Cl	1.744587	-0.365725	-1.182862
Cl100	Cl	2.244587	0.134275	-0.682862
H101	H	1.153716	-0.345101	-0.595746
H102	H	1.653716	0.154899	-0.095746
H103	H	1.642411	-0.694468	-0.550031
H104	H	2.142411	-0.194468	-0.050031
Cl105	Cl	1.626353	-0.830134	-0.502972
Cl106	Cl	2.126353	-0.330134	-0.002972
H107	H	1.756827	-0.822527	-0.664513
H108	H	2.256827	-0.322527	-0.164513
H109	H	1.730562	-0.840283	-0.857247
H110	H	2.230562	-0.340283	-0.357247
H111	H	1.594938	-0.728463	-0.878471
H112	H	2.094938	-0.228463	-0.378471
Cl113	Cl	1.569690	-0.871503	-0.909175
Cl114	Cl	2.069690	-0.371503	-0.409175
H115	H	1.669104	-0.318924	-1.320883
H116	H	2.169104	0.181076	-0.820883
H117	H	1.729118	-0.713401	-0.857908
H118	H	2.229118	-0.213401	-0.357908
H119	H	1.446383	-0.842907	-0.580366
H120	H	1.946383	-0.342907	-0.080366
H121	H	1.430812	-0.855139	-0.716284
H122	H	1.930812	-0.355139	-0.216284
H123	H	1.531560	-0.233875	-1.094277
H124	H	2.031560	0.266125	-0.594277
H125	H	1.451071	-0.714558	-0.576371
H126	H	1.951071	-0.214558	-0.076371
