data_functionalizedCrystal
_audit_creation_method	'MofGen! by Chris Wilmer'
_symmetry_space_group_name_H-M	'P1'
_symmetry_Int_Tables_number	1
_symmetry_cell_setting	triclinic
loop_
_symmetry_equiv_pos_as_xyz
  x,y,z
_cell_length_a	10.723022
_cell_length_b	10.723023
_cell_length_c	18.366186
_cell_angle_alpha	89.994813
_cell_angle_beta	89.991271
_cell_angle_gamma	84.467387
loop_
_atom_site_label
_atom_site_type_symbol
_atom_site_fract_x
_atom_site_fract_y
_atom_site_fract_z
O1	O	1.657197	0.175020	-0.060543
O2	O	1.294045	0.191775	-0.060546
O3	O	1.483998	0.001821	-0.060541
O4	O	1.467244	0.364974	-0.060547
O5	O	1.483965	0.001811	0.060558
O6	O	1.294012	0.191765	0.060554
O7	O	1.657165	0.175010	0.060556
Zn8	Zn	1.475583	0.183386	0.079782
Zn9	Zn	1.475626	0.183399	-0.079772
O10	O	1.467211	0.364964	0.060552
C11	C	1.247529	0.190551	0.000004
C12	C	1.108974	0.186904	0.000003
C13	C	0.890796	0.289421	-0.000000
C14	C	1.033998	0.293192	0.000001
C15	C	1.482763	-0.044683	0.000008
C16	C	1.479115	-0.183238	0.000005
C17	C	1.477506	-0.244998	-0.062729
C18	C	1.473737	-0.388201	-0.062733
C19	C	1.703681	0.176234	0.000005
C20	C	1.842235	0.179881	0.000001
C21	C	1.468446	0.411469	0.000001
C22	C	1.472094	0.550023	-0.000001
N23	N	1.475563	0.183377	0.188673
N24	N	1.475656	0.183399	-0.188663
C25	C	1.559702	0.099307	0.226776
C26	C	1.559710	0.099302	0.303003
C27	C	1.475591	0.183387	0.341126
C28	C	1.391435	0.267463	0.303015
C29	C	1.391421	0.267458	0.226788
C30	C	1.460213	0.296900	0.461884
C31	C	1.460236	0.296907	0.538109
C32	C	1.475626	0.183403	0.576234
C33	C	1.491020	0.069888	0.538123
C34	C	1.491006	0.069882	0.461897
C35	C	1.475596	0.183402	0.423781
C36	C	1.559779	0.099321	0.696991
C37	C	1.559778	0.099314	0.773220
C38	C	1.391509	0.267486	0.773230
C39	C	1.391504	0.267482	0.697002
C40	C	1.475645	0.183401	0.658887
H41	H	1.067171	0.093113	-0.000015
H42	H	1.478914	-0.191856	-0.116435
H43	H	0.826353	0.380409	-0.000006
H44	H	1.075810	0.386980	0.000004
H45	H	1.477694	-0.236378	0.053711
H46	H	1.628291	0.030847	0.804243
C47	C	0.929274	0.056954	0.000000
H48	H	0.880238	-0.012260	-0.000005
H49	H	0.980629	0.053629	0.042228
H50	H	0.980639	0.053645	-0.042237
H51	H	1.472359	-0.441315	-0.116442
C52	C	1.652241	0.006808	0.184853
H53	H	1.702345	-0.043270	0.218468
H54	H	1.704562	0.052166	0.155102
H55	H	1.606895	-0.045559	0.155133
C56	C	1.652269	0.006824	0.344925
H57	H	1.702382	-0.043247	0.311307
H58	H	1.606949	-0.045533	0.374674
H59	H	1.704599	0.052209	0.374647
H60	H	1.473484	-0.396873	0.053711
C61	C	1.507940	-0.054974	0.580049
H62	H	1.505727	-0.038719	0.630905
H63	H	1.586259	-0.098761	0.567553
H64	H	1.442250	-0.104463	0.567566
H65	H	1.503537	-0.022546	0.430871
C66	C	1.652316	0.006825	0.655061
H67	H	1.702416	-0.043260	0.688674
H68	H	1.704640	0.052186	0.625315
H69	H	1.606970	-0.045536	0.625336
H70	H	1.323012	0.335945	0.804269
H71	H	1.322994	0.335945	0.665977
H72	H	1.447709	0.389338	0.569133
H73	H	1.447659	0.389335	0.430850
H74	H	1.322941	0.335925	0.334058
C75	C	1.298873	0.359947	0.184874
H76	H	1.248777	0.410032	0.218493
H77	H	1.246544	0.314583	0.155145
H78	H	1.344211	0.412309	0.155132
