data_functionalizedCrystal
_audit_creation_method	'MofGen! by Chris Wilmer'
_symmetry_space_group_name_H-M	'P1'
_symmetry_Int_Tables_number	1
_symmetry_cell_setting	triclinic
loop_
_symmetry_equiv_pos_as_xyz
  x,y,z
_cell_length_a	10.686220
_cell_length_b	12.759400
_cell_length_c	12.759387
_cell_angle_alpha	89.937904
_cell_angle_beta	94.330840
_cell_angle_gamma	94.396325
loop_
_atom_site_label
_atom_site_type_symbol
_atom_site_fract_x
_atom_site_fract_y
_atom_site_fract_z
Zn1	Zn	1.929329	-0.294570	-0.470981
Zn2	Zn	1.929124	-0.470396	-0.295314
Zn3	Zn	1.718243	-0.308210	-0.308777
Zn4	Zn	1.718308	-0.483695	-0.484396
O5	O	1.823751	-0.389218	-0.389867
O6	O	2.105870	-0.306619	-0.436429
O7	O	1.901038	-0.449024	-0.150086
O8	O	1.746303	-0.159376	-0.330314
O9	O	2.105719	-0.435797	-0.307367
O10	O	1.901387	-0.149355	-0.449484
O11	O	1.746104	-0.329867	-0.159977
O12	O	1.541684	-0.342763	-0.343322
O13	O	1.746413	-0.458465	-0.629630
O14	O	1.541731	-0.471691	-0.472348
O15	O	1.901450	-0.319515	-0.619774
O16	O	1.901100	-0.619185	-0.320375
O17	O	1.746214	-0.628956	-0.459293
C18	C	1.495925	-0.410151	-0.410753
C19	C	1.355680	-0.419132	-0.419712
C20	C	1.823676	-0.662190	-0.389850
C21	C	1.823760	-0.778961	-0.389870
C22	C	1.904498	-0.828695	-0.317604
C23	C	1.904576	-0.938414	-0.317632
C24	C	1.743165	-0.948657	-0.462194
C25	C	1.743095	-0.838939	-0.462171
C26	C	1.985163	-0.768716	-0.245303
C27	C	2.065907	-0.818450	-0.173031
C28	C	2.065985	-0.928169	-0.173058
C29	C	1.985318	-0.988155	-0.245358
C30	C	2.152857	-0.368203	-0.368900
C31	C	2.293102	-0.359248	-0.359965
C32	C	1.823961	-0.388952	-0.663887
C33	C	1.824051	-0.388839	-0.780658
C34	C	1.823861	-0.115177	-0.389905
C35	C	1.823907	0.001602	-0.389921
C36	C	1.823614	-0.389402	-0.116908
C37	C	1.823769	-0.389203	-0.000122
C38	C	1.742734	-0.327417	0.159242
C39	C	1.742590	-0.327601	0.049509
C40	C	1.905089	-0.450633	0.059986
C41	C	1.905226	-0.450453	0.169717
C42	C	1.661559	-0.265803	0.208867
C43	C	1.580237	-0.204374	0.148766
C44	C	1.580092	-0.204559	0.039033
C45	C	1.661270	-0.266172	-0.010599
H46	H	1.346818	-0.301109	-0.301958
Cl47	Cl	1.272746	-0.508914	-0.509268
H48	H	1.514139	-0.154218	0.189184
Cl49	Cl	1.985424	-0.630762	-0.245535
Cl50	Cl	1.641759	-1.024068	-0.553076
Cl51	Cl	2.007449	-0.527677	0.245276
H52	H	2.131591	-0.769603	-0.114172
H53	H	2.131739	-0.968658	-0.114217
Cl54	Cl	2.007137	-0.528080	-0.002410
H55	H	1.985398	-1.077494	-0.245382
Cl56	Cl	1.641595	-0.776412	-0.553023
H57	H	1.661670	-0.265643	0.298216
H58	H	1.513868	-0.154549	-0.009898
H59	H	1.661142	-0.266320	-0.099952
