data_functionalizedCrystal
_audit_creation_method	'MofGen! by Chris Wilmer'
_symmetry_space_group_name_H-M	'P1'
_symmetry_Int_Tables_number	1
_symmetry_cell_setting	triclinic
loop_
_symmetry_equiv_pos_as_xyz
  x,y,z
_cell_length_a	17.077404
_cell_length_b	29.839131
_cell_length_c	17.077396
_cell_angle_alpha	89.967252
_cell_angle_beta	89.982756
_cell_angle_gamma	90.041645
loop_
_atom_site_label
_atom_site_type_symbol
_atom_site_fract_x
_atom_site_fract_y
_atom_site_fract_z
Zn1	Zn	1.199936	-0.178847	-0.443824
Zn2	Zn	1.199806	-0.253979	-0.312550
Zn3	Zn	1.068673	-0.178864	-0.312572
Zn4	Zn	1.068593	-0.253951	-0.443774
O5	O	1.134252	-0.216410	-0.378180
O6	O	1.309766	-0.188818	-0.426422
O7	O	1.182390	-0.244033	-0.202706
O8	O	1.086173	-0.115994	-0.330013
O9	O	1.309670	-0.244017	-0.329976
O10	O	1.182612	-0.115982	-0.426443
O11	O	1.086047	-0.188847	-0.202722
O12	O	0.958816	-0.188820	-0.329964
O13	O	1.086037	-0.243970	-0.553627
O14	O	0.958757	-0.243986	-0.426358
O15	O	1.182534	-0.188791	-0.553664
O16	O	1.182312	-0.316842	-0.329927
O17	O	1.085911	-0.316822	-0.426336
C18	C	0.930304	-0.216402	-0.378158
C19	C	0.843054	-0.216409	-0.378168
C20	C	0.802054	-0.245178	-0.428279
C21	C	0.720074	-0.245179	-0.428292
C22	C	0.679095	-0.216413	-0.378188
C23	C	0.720101	-0.187642	-0.328074
C24	C	0.802080	-0.187639	-0.328066
C25	C	0.549231	-0.187650	-0.328093
C26	C	0.467246	-0.187654	-0.328100
C27	C	0.467225	-0.245190	-0.428319
C28	C	0.549204	-0.245188	-0.428311
C29	C	0.590204	-0.216416	-0.378196
C30	C	1.134110	-0.333133	-0.378141
C31	C	1.134122	-0.383067	-0.378151
C32	C	1.184539	-0.692708	-0.328053
C33	C	1.184636	-0.880381	-0.328083
O34	O	1.227391	-0.904645	-0.285459
N35	N	1.134415	-0.903852	-0.378239
C36	C	1.084169	-0.880402	-0.428394
O37	O	1.041461	-0.904671	-0.471061
C38	C	1.084077	-0.692729	-0.428367
C39	C	1.134296	-0.669261	-0.378203
C40	C	1.234755	-0.669240	-0.277893
C41	C	1.234727	-0.622325	-0.277883
C42	C	1.184484	-0.598878	-0.328033
C43	C	1.134268	-0.622346	-0.378193
C44	C	1.033836	-0.669280	-0.478526
C45	C	1.033818	-0.622359	-0.478516
C46	C	1.084038	-0.598891	-0.428352
C47	C	1.083997	-0.551983	-0.428332
N48	N	1.134219	-0.528513	-0.378177
C49	C	1.184462	-0.551960	-0.328027
C50	C	1.084220	-0.978932	-0.428404
C51	C	1.084242	-1.025850	-0.428410
C52	C	1.184710	-1.025827	-0.328100
C53	C	1.184684	-0.978908	-0.328090
C54	C	1.134442	-0.955462	-0.378248
C55	C	1.184399	-0.453434	-0.328009
C56	C	1.184365	-0.406514	-0.328001
C57	C	1.083900	-0.406542	-0.428314
C58	C	1.083931	-0.453457	-0.428319
C59	C	1.134187	-0.476902	-0.378164
O60	O	1.041271	-0.527691	-0.470941
O61	O	1.227176	-0.527682	-0.285378
C62	C	1.184567	-0.739624	-0.328063
C63	C	1.134351	-0.763092	-0.378223
C64	C	1.084108	-0.739645	-0.428373
C65	C	1.134373	-0.810010	-0.378229
C66	C	1.184617	-0.833457	-0.328079
C67	C	1.234838	-0.809987	-0.277923
C68	C	1.234811	-0.763071	-0.277913
C69	C	1.033887	-0.763116	-0.478529
C70	C	1.033918	-0.810031	-0.478534
C71	C	1.084161	-0.833478	-0.428384
C72	C	1.338996	-0.216419	-0.378202
C73	C	1.426246	-0.216422	-0.378212
C74	C	1.134292	-0.216375	-0.582924
C75	C	1.134308	-0.216360	-0.670174
C76	C	1.134416	-0.099232	-0.378236
C77	C	1.134486	-0.049297	-0.378260
C78	C	1.084158	-0.187621	-0.711172
C79	C	1.084171	-0.187611	-0.793153
C80	C	1.134339	-0.216338	-0.834134
C81	C	1.184491	-0.245080	-0.793130
C82	C	1.184474	-0.245093	-0.711151
C83	C	1.184525	-0.245052	-0.964000
C84	C	1.184544	-0.245040	-1.045985
C85	C	1.084222	-0.187571	-1.046002
C86	C	1.084205	-0.187583	-0.964023
C87	C	1.134359	-0.216325	-0.923025
C88	C	1.134258	-0.216412	-0.174232
C89	C	1.134393	-0.216301	-0.086983
H90	H	1.225259	-0.387408	-0.287148
H91	H	0.835413	-0.268603	-0.469077
C92	C	0.674977	-0.276828	-0.483411
C93	C	0.618564	-0.312076	-0.449286
C94	C	0.573470	-0.343728	-0.504409
C95	C	0.584788	-0.340133	-0.593656
C96	C	0.641204	-0.304884	-0.627785
C97	C	0.686298	-0.273232	-0.572663
H98	H	0.610183	-0.314738	-0.383216
H99	H	0.531707	-0.369821	-0.479143
H100	H	0.551406	-0.363563	-0.634461
H101	H	0.649585	-0.302221	-0.693856
H102	H	0.728061	-0.247139	-0.597929
H103	H	0.433839	-0.268616	-0.469126
C104	C	0.847182	-0.155993	-0.272941
C105	C	0.903496	-0.175411	-0.211245
C106	C	0.948596	-0.143762	-0.156122
C107	C	0.937381	-0.092696	-0.162694
C108	C	0.881064	-0.073276	-0.224392
C109	C	0.835964	-0.104924	-0.279516
H110	H	0.911800	-0.213215	-0.206378
H111	H	0.990286	-0.158138	-0.110449
H112	H	0.970767	-0.069268	-0.121888
H113	H	0.872760	-0.035471	-0.229259
H114	H	0.794275	-0.090548	-0.325189
H115	H	0.433883	-0.164225	-0.287311
C116	C	1.239985	-1.051623	-0.272938
C117	C	1.206031	-1.083924	-0.211285
C118	C	1.261307	-1.109723	-0.156131
C119	C	1.350537	-1.103221	-0.162630
C120	C	1.384494	-1.070918	-0.224285
C121	C	1.329218	-1.045119	-0.279439
H122	H	1.139974	-1.088739	-0.206471
H123	H	1.236169	-1.133636	-0.110489
H124	H	1.391455	-1.122318	-0.121802
H125	H	1.450551	-1.066103	-0.229098
H126	H	1.354357	-1.021207	-0.325081
C127	C	1.029009	-0.155997	-0.838254
C128	C	1.063089	-0.120723	-0.894640
C129	C	1.007924	-0.089108	-0.939743
C130	C	0.918679	-0.092767	-0.928460
C131	C	0.884595	-0.128042	-0.872072
C132	C	0.939759	-0.159657	-0.826969
H133	H	1.129157	-0.118013	-0.902994
H134	H	1.033156	-0.062995	-0.981485
H135	H	0.877843	-0.069364	-0.961848
H136	H	0.818526	-0.130752	-0.863717
H137	H	0.914527	-0.185770	-0.785226
H138	H	1.043357	-0.164189	-0.930658
C139	C	1.239676	-0.479219	-0.272834
C140	C	1.233311	-0.472801	-0.183592
C141	C	1.288581	-0.498586	-0.128413
C142	C	1.350216	-0.530789	-0.162476
C143	C	1.356584	-0.537209	-0.251722
C144	C	1.301313	-0.511424	-0.306901
H145	H	1.187682	-0.448961	-0.158372
H146	H	1.283867	-0.493833	-0.062347
H147	H	1.391131	-0.549877	-0.121629
H148	H	1.402212	-0.561049	-0.276942
H149	H	1.306027	-0.516176	-0.372968
C150	C	0.978671	-0.835842	-0.533720
C151	C	0.889435	-0.829445	-0.527241
C152	C	0.834196	-0.855254	-0.582431
C153	C	0.868193	-0.887460	-0.644102
C154	C	0.957434	-0.893859	-0.650584
C155	C	1.012673	-0.868050	-0.595393
H156	H	0.864263	-0.805602	-0.481586
H157	H	0.768133	-0.850517	-0.577632
H158	H	0.827302	-0.906565	-0.684957
H159	H	0.982605	-0.917701	-0.696238
H160	H	1.078736	-0.872787	-0.600192
C161	C	0.594336	-0.156001	-0.272971
C162	C	0.583127	-0.104935	-0.279542
C163	C	0.628235	-0.073288	-0.224422
C164	C	0.684551	-0.092708	-0.162730
C165	C	0.695763	-0.143777	-0.156156
C166	C	0.650655	-0.175424	-0.211277
H167	H	0.541436	-0.090557	-0.325213
H168	H	0.619935	-0.035483	-0.229288
H169	H	0.717942	-0.069281	-0.121926
H170	H	0.737454	-0.158155	-0.110486
H171	H	0.658955	-0.213229	-0.206410
C172	C	1.028994	-1.051662	-0.483586
C173	C	0.973733	-1.025864	-0.538750
C174	C	0.918487	-1.051674	-0.593932
C175	C	0.918502	-1.103282	-0.593949
C176	C	0.973764	-1.129083	-0.538783
C177	C	1.029010	-1.103273	-0.483601
H178	H	0.973721	-0.987658	-0.538739
H179	H	0.877578	-1.032575	-0.634769
H180	H	0.877605	-1.122388	-0.634798
H181	H	0.973777	-1.167288	-0.538794
H182	H	1.069919	-1.122372	-0.442764
H183	H	1.225334	-0.268473	-0.826503
H184	H	0.686729	-0.164218	-0.287283
C185	C	1.290028	-0.695026	-0.222720
C186	C	1.283665	-0.688603	-0.133479
C187	C	1.338937	-0.714384	-0.078297
C188	C	1.400572	-0.746589	-0.112355
C189	C	1.406937	-0.753014	-0.201601
C190	C	1.351665	-0.727233	-0.256783
H191	H	1.238037	-0.664761	-0.108263
H192	H	1.334225	-0.709628	-0.012231
H193	H	1.441488	-0.765674	-0.071506
H194	H	1.452565	-0.776856	-0.226817
H195	H	1.356377	-0.731989	-0.322849
H196	H	1.043310	-0.164226	-0.677811
H197	H	1.225317	-0.268492	-0.677772
C198	C	0.978546	-0.596568	-0.533689
C199	C	0.889318	-0.603077	-0.527203
C200	C	0.834044	-0.577287	-0.582372
C201	C	0.868000	-0.544988	-0.644027
C202	C	0.957233	-0.538478	-0.650516
C203	C	1.012507	-0.564268	-0.595347
H204	H	0.864177	-0.626988	-0.481560
H205	H	0.767988	-0.582107	-0.577569
H206	H	0.827083	-0.525897	-0.684867
H207	H	0.982374	-0.514567	-0.696159
H208	H	1.078563	-0.559448	-0.600150
C209	C	0.978596	-0.695085	-0.533715
C210	C	0.889360	-0.688680	-0.527238
C211	C	0.834117	-0.714483	-0.582434
C212	C	0.868110	-0.746690	-0.644106
C213	C	0.957350	-0.753096	-0.650585
C214	C	1.012592	-0.727293	-0.595390
H215	H	0.864193	-0.664837	-0.481583
H216	H	0.768056	-0.709741	-0.577637
H217	H	0.827215	-0.765791	-0.684965
H218	H	0.982517	-0.776939	-0.696241
H219	H	1.078654	-0.732035	-0.600187
H220	H	1.043386	-0.164168	-1.079386
C221	C	1.239930	-0.953095	-0.272914
C222	C	1.233584	-0.959585	-0.183673
C223	C	1.288835	-0.933775	-0.128496
C224	C	1.350432	-0.901474	-0.162560
C225	C	1.356780	-0.894983	-0.251806
C226	C	1.301530	-0.920793	-0.306983
H227	H	1.187984	-0.983497	-0.158452
H228	H	1.284134	-0.938580	-0.062430
H229	H	1.391331	-0.882368	-0.121715
H230	H	1.402381	-0.871071	-0.277027
H231	H	1.306230	-0.915988	-0.373049
C232	C	1.028637	-0.380743	-0.483478
C233	C	0.967019	-0.348533	-0.449402
C234	C	0.911761	-0.322732	-0.504571
C235	C	0.918121	-0.329141	-0.593815
C236	C	0.979742	-0.361352	-0.627895
C237	C	1.035000	-0.387153	-0.572727
H238	H	0.962308	-0.343788	-0.383334
H239	H	0.866145	-0.298888	-0.479342
H240	H	0.877216	-0.310041	-0.634655
H241	H	0.984453	-0.366097	-0.693964
H242	H	1.080616	-0.410997	-0.597955
H243	H	1.225373	-0.268453	-0.930622
C244	C	1.239691	-0.276652	-1.091084
C245	C	1.233160	-0.327724	-1.079792
C246	C	1.288291	-0.359341	-1.124900
C247	C	1.349954	-0.339887	-1.181299
C248	C	1.356488	-0.288813	-1.192593
C249	C	1.301356	-0.257195	-1.147486
H250	H	1.187511	-0.342127	-1.038040
H251	H	1.283454	-0.397150	-1.116539
H252	H	1.390766	-0.363292	-1.214690
H253	H	1.402137	-0.274410	-1.234346
H254	H	1.306193	-0.219387	-1.155847
H255	H	0.582567	-0.268613	-0.469105
H256	H	1.043305	-0.959845	-0.469250
H257	H	1.043041	-0.472566	-0.469170
H258	H	1.275622	-0.603220	-0.237037
H259	H	1.275704	-0.743967	-0.237065
H260	H	0.992973	-0.744029	-0.519368
H261	H	1.275746	-0.829085	-0.237087
