data_functionalizedCrystal
_audit_creation_method	'MofGen! by Chris Wilmer'
_symmetry_space_group_name_H-M	'P1'
_symmetry_Int_Tables_number	1
_symmetry_cell_setting	triclinic
loop_
_symmetry_equiv_pos_as_xyz
  x,y,z
_cell_length_a	19.188930
_cell_length_b	14.519709
_cell_length_c	12.996460
_cell_angle_alpha	90.007090
_cell_angle_beta	90.019467
_cell_angle_gamma	83.412462
loop_
_atom_site_label
_atom_site_type_symbol
_atom_site_fract_x
_atom_site_fract_y
_atom_site_fract_z
O1	O	-0.926556	-0.115137	-0.085900
O2	O	-0.723300	-0.130636	-0.085830
O3	O	-0.830317	0.011385	-0.085857
O4	O	-0.819539	-0.257159	-0.085872
O5	O	-0.830306	0.011393	0.085276
O6	O	-0.723288	-0.130629	0.085304
O7	O	-0.926545	-0.115129	0.085234
Cu8	Cu	-0.824915	-0.122878	0.100895
Cu9	Cu	-0.824929	-0.122887	-0.101491
O10	O	-0.819527	-0.257151	0.085262
C11	C	-0.697281	-0.130131	-0.000254
C12	C	-0.619771	-0.128624	-0.000227
C13	C	-0.829809	0.045746	-0.000290
C14	C	-0.828304	0.148118	-0.000289
C15	C	-0.952563	-0.115635	-0.000344
C16	C	-1.030073	-0.117142	-0.000378
C17	C	-0.575144	-0.211957	-0.000247
C18	C	-0.502315	-0.210542	-0.000259
C19	C	-0.474117	-0.125788	-0.000270
C20	C	-0.518754	-0.042444	-0.000243
C21	C	-0.591581	-0.043861	-0.000222
N22	N	-0.365910	-0.061007	-0.058552
N23	N	-0.296727	-0.059666	-0.058575
C24	C	-0.254693	-0.121511	-0.000332
N25	N	-0.284455	-0.184762	0.057920
N26	N	-0.353645	-0.186106	0.057938
C27	C	-0.395149	-0.124241	-0.000292
C28	C	-0.131096	-0.203315	-0.000364
C29	C	-0.058266	-0.201896	-0.000369
C30	C	-0.074706	-0.033796	-0.000364
C31	C	-0.147535	-0.035217	-0.000348
C32	C	-0.175725	-0.119980	-0.000353
C33	C	-0.820035	-0.291511	-0.000308
C34	C	-0.821541	-0.393883	-0.000316
N35	N	-0.824911	-0.122871	0.243242
C36	C	-0.822762	0.522979	-0.000314
C37	C	-0.824301	0.418681	-0.000307
C38	C	-0.825533	0.335552	-0.000300
C39	C	-0.827072	0.231247	-0.000295
N40	N	-0.824938	-0.122887	-0.243838
C41	C	-0.824928	-0.122888	0.663056
C42	C	-0.824921	-0.122887	0.546251
C43	C	-0.824920	-0.122880	0.453153
C44	C	-0.824913	-0.122877	0.336340
H45	H	-0.598091	-0.280978	-0.000253
C46	C	-0.184000	0.107612	-0.088322
C47	C	-0.196595	0.056387	-0.000342
H48	H	-0.214291	0.164165	-0.088316
H49	H	-0.136598	0.120584	-0.088326
H50	H	-0.192582	0.072832	-0.147989
H51	H	-0.188008	0.091165	0.059326
H52	H	-0.244008	0.043417	-0.000328
H53	H	-0.465973	-0.278404	-0.000273
C54	C	-0.414413	0.034367	-0.000293
C55	C	-0.487761	0.050720	-0.000261
H56	H	-0.395282	0.091886	-0.000307
H57	H	-0.399082	0.000076	0.059377
H58	H	-0.399132	0.000062	-0.059980
H59	H	-0.503043	0.085020	0.059431
H60	H	-0.503099	0.085026	-0.059937
H61	H	-0.051748	0.035213	-0.000437
C62	C	-0.683047	0.052053	-0.088171
C63	C	-0.640642	0.047744	-0.000208
H64	H	-0.713339	0.108605	-0.088159
H65	H	-0.654314	0.049115	-0.147843
H66	H	-0.710257	0.001367	-0.088155
H67	H	-0.613428	0.098427	-0.000228
H68	H	-0.669379	0.050691	0.059480
H69	H	-0.154049	-0.272334	-0.000353
C70	C	0.033198	-0.297828	0.087572
C71	C	-0.009207	-0.293504	-0.000392
H72	H	0.063482	-0.354386	0.087557
H73	H	0.060409	-0.247154	0.087566
H74	H	0.004458	-0.294892	0.147250
H75	H	0.019532	-0.296433	-0.060071
H76	H	-0.036421	-0.344192	-0.000396
