data_functionalizedCrystal
_audit_creation_method	'MofGen! by Chris Wilmer'
_symmetry_space_group_name_H-M	'P1'
_symmetry_Int_Tables_number	1
_symmetry_cell_setting	triclinic
loop_
_symmetry_equiv_pos_as_xyz
  x,y,z
_cell_length_a	17.000383
_cell_length_b	15.500215
_cell_length_c	13.339070
_cell_angle_alpha	92.270203
_cell_angle_beta	95.614799
_cell_angle_gamma	93.374105
loop_
_atom_site_label
_atom_site_type_symbol
_atom_site_fract_x
_atom_site_fract_y
_atom_site_fract_z
O1	O	1.068147	0.072004	0.039592
O2	O	1.568147	0.572004	0.539592
O3	O	0.844366	0.071992	0.075596
O4	O	1.344366	0.571992	0.575596
O5	O	0.930573	0.071994	-0.087386
O6	O	1.430573	0.571994	0.412614
O7	O	0.981939	0.072002	0.202573
O8	O	1.481939	0.572002	0.702573
O9	O	0.922271	-0.071896	-0.095041
O10	O	1.422271	0.428104	0.404959
O11	O	0.836063	-0.071898	0.067941
O12	O	1.336063	0.428102	0.567941
O13	O	1.059844	-0.071886	0.031936
O14	O	1.559844	0.428114	0.531936
Cu15	Cu	0.947196	-0.085030	0.049240
Cu16	Cu	1.447196	0.414970	0.549240
Cu17	Cu	0.957014	0.085136	0.058293
Cu18	Cu	1.457014	0.585136	0.558293
O19	O	0.973637	-0.071888	0.194918
O20	O	1.473637	0.428112	0.694918
C21	C	0.810988	0.000046	0.073703
C22	C	1.310988	0.500046	0.573703
C23	C	0.723899	0.000041	0.079452
C24	C	1.223899	0.500041	0.579452
N25	N	0.940295	-0.204716	0.042871
N26	N	1.440295	0.295284	0.542871
C27	C	0.231883	0.000075	0.116583
C28	C	0.731883	0.500075	0.616583
C29	C	0.313711	0.000074	0.111173
C30	C	0.813711	0.500074	0.611173
C31	C	0.343966	0.000065	0.017258
C32	C	0.843966	0.500065	0.517258
C33	C	0.292387	0.000065	-0.071251
C34	C	0.792387	0.500065	0.428749
C35	C	0.210561	0.000072	-0.065839
C36	C	0.710561	0.500072	0.434161
C37	C	0.590495	0.000049	-0.003645
C38	C	1.090495	0.500049	0.496355
C39	C	0.672327	0.000039	-0.009050
C40	C	1.172327	0.500039	0.490950
C41	C	0.693646	0.000049	0.173374
C42	C	1.193646	0.500049	0.673374
C43	C	0.611817	0.000051	0.178777
C44	C	1.111817	0.500051	0.678777
C45	C	0.560246	0.000056	0.090269
C46	C	1.060246	0.500056	0.590269
C47	C	0.427607	0.000061	0.011725
C48	C	0.927607	0.500061	0.511725
C49	C	0.476607	0.000066	0.095803
C50	C	0.976607	0.500066	0.595803
C51	C	0.998324	-0.249985	0.096463
C52	C	1.498324	0.250015	0.596463
C53	C	0.993114	-0.340558	0.091640
C54	C	1.493114	0.159442	0.591640
C55	C	0.929872	-0.385861	0.033229
C56	C	1.429872	0.114139	0.533229
C57	C	0.871841	-0.340586	-0.020370
C58	C	1.371841	0.159414	0.479630
C59	C	0.877054	-0.250014	-0.015551
C60	C	1.377054	0.249986	0.484449
C61	C	0.911101	-0.659331	0.015873
C62	C	1.411101	-0.159331	0.515873
C63	C	0.905891	-0.749909	0.011061
C64	C	1.405891	-0.249909	0.511061
C65	C	1.027166	-0.749875	0.123069
C66	C	1.527166	-0.249875	0.623069
C67	C	1.032371	-0.659301	0.127888
C68	C	1.532371	-0.159301	0.627888
C69	C	0.974341	-0.614034	0.074285
C70	C	1.474341	-0.114034	0.574285
C71	C	0.924544	-0.478442	0.028299
C72	C	1.424544	0.021558	0.528299
C73	C	0.979673	-0.521455	0.079209
C74	C	1.479673	-0.021455	0.579209
C75	C	1.093222	0.000062	0.033830
C76	C	1.593222	0.500062	0.533830
C77	C	1.180312	0.000072	0.028081
C78	C	1.680312	0.500072	0.528081
C79	C	0.917745	0.000050	-0.128131
C80	C	1.417745	0.500050	0.371869
C81	C	0.891882	0.000052	-0.238132
C82	C	1.391882	0.500052	0.261868
N83	N	0.963919	0.204822	0.064653
N84	N	1.463919	0.704822	0.564653
C85	C	1.092980	0.000062	-0.620810
C86	C	1.592980	0.500062	-0.120810
C87	C	1.117282	0.000055	-0.517459
C88	C	1.617282	0.500055	-0.017459
C89	C	1.060934	0.000055	-0.447623
C90	C	1.560934	0.500055	0.052377
C91	C	0.980281	0.000061	-0.481147
C92	C	1.480281	0.500061	0.018853
C93	C	0.955976	0.000061	-0.584508
C94	C	1.455976	0.500061	-0.084508
C95	C	0.923930	0.000053	-0.411320
C96	C	1.423930	0.500053	0.088680
C97	C	0.843276	0.000059	-0.444844
C98	C	1.343276	0.500059	0.055156
C99	C	0.818976	0.000060	-0.548196
C100	C	1.318976	0.500060	-0.048196
C101	C	0.875324	0.000060	-0.618033
C102	C	1.375324	0.500060	-0.118033
C103	C	0.948234	0.000053	-0.307959
C104	C	1.448234	0.500053	0.192041
C105	C	0.811230	0.000052	-0.271657
C106	C	1.311230	0.500052	0.228343
C107	C	0.786928	0.000059	-0.375008
C108	C	1.286928	0.500059	0.124992
C109	C	0.986465	0.000058	0.235663
C110	C	1.486465	0.500058	0.735663
C111	C	1.012328	0.000062	0.345665
C112	C	1.512328	0.500062	0.845665
H113	H	0.207257	0.000075	0.193059
H114	H	0.707257	0.500075	0.693059
H115	H	0.587191	0.000061	0.255253
H116	H	1.087191	0.500061	0.755253
Cl117	Cl	0.145727	0.000070	-0.177104
Cl118	Cl	0.645727	0.500070	0.322896
H119	H	1.083871	-0.622422	0.175449
H120	H	1.583871	-0.122422	0.675449
Cl121	Cl	0.717582	0.000055	-0.590339
Cl122	Cl	1.217582	0.500055	-0.090339
H123	H	1.138849	0.000055	-0.677679
H124	H	1.638849	0.500055	-0.177679
H125	H	0.855541	0.000069	-0.702191
H126	H	1.355541	0.500069	-0.202191
H127	H	0.548515	0.000051	-0.075715
H128	H	1.048515	0.500051	0.424285
H129	H	0.452249	0.000051	-0.064740
H130	H	0.952249	0.500051	0.435260
H131	H	0.721259	0.000063	-0.402318
H132	H	1.221259	0.500063	0.097682
Cl133	Cl	1.077831	-0.193042	0.169899
Cl134	Cl	1.577831	0.306958	0.669899
Cl135	Cl	1.100113	-0.806788	0.190449
Cl136	Cl	1.600113	-0.306788	0.690449
H137	H	0.317027	0.000063	-0.147718
H138	H	0.817027	0.500063	0.352282
Cl139	Cl	0.758481	0.000050	0.284635
Cl140	Cl	1.258481	0.500050	0.784635
H141	H	0.451971	0.000077	0.172268
H142	H	0.951971	0.500077	0.672268
H143	H	1.040368	-0.377412	0.135278
H144	H	1.540368	0.122588	0.635278
H145	H	0.765346	0.000047	-0.214795
H146	H	1.265346	0.500047	0.285205
H147	H	0.355699	0.000083	0.183241
H148	H	0.855699	0.500083	0.683241
H149	H	0.854387	-0.786792	-0.036504
H150	H	1.354387	-0.286792	0.463496
Cl151	Cl	0.710359	0.000029	-0.127123
Cl152	Cl	1.210359	0.500029	0.372877
Cl153	Cl	0.838126	-0.602435	-0.051472
Cl154	Cl	1.338126	-0.102435	0.448528
Cl155	Cl	0.792337	-0.397539	-0.093803
Cl156	Cl	1.292337	0.102461	0.406197
H157	H	1.031166	-0.484565	0.126763
H158	H	1.531166	0.015435	0.626763
Cl159	Cl	0.804106	-0.193104	-0.082938
Cl160	Cl	1.304106	0.306896	0.417062
H161	H	0.873052	-0.515338	-0.019258
H162	H	1.373052	-0.015338	0.480742
Cl163	Cl	1.049623	0.000046	-0.265827
Cl164	Cl	1.549623	0.500046	0.234173
H165	H	1.080726	0.000049	-0.363471
H166	H	1.580726	0.500049	0.136529
H167	H	1.182950	0.000049	-0.490172
H168	H	1.682950	0.500049	0.009828
