data_functionalizedCrystal
_audit_creation_method	'MofGen! by Chris Wilmer'
_symmetry_space_group_name_H-M	'P1'
_symmetry_Int_Tables_number	1
_symmetry_cell_setting	triclinic
loop_
_symmetry_equiv_pos_as_xyz
  x,y,z
_cell_length_a	14.908941
_cell_length_b	14.908326
_cell_length_c	14.908308
_cell_angle_alpha	90.223626
_cell_angle_beta	83.630660
_cell_angle_gamma	96.801528
loop_
_atom_site_label
_atom_site_type_symbol
_atom_site_fract_x
_atom_site_fract_y
_atom_site_fract_z
Zn1	Zn	-1.337517	0.305936	-0.415368
Zn2	Zn	-1.338413	0.447591	-0.256277
Zn3	Zn	-1.194889	0.305973	-0.272741
Zn4	Zn	-1.177378	0.466005	-0.415297
O5	O	-1.262049	0.381376	-0.339921
O6	O	-1.464720	0.317004	-0.387404
O7	O	-1.327077	0.421114	-0.132220
O8	O	-1.220762	0.179711	-0.298581
O9	O	-1.465378	0.421078	-0.270520
O10	O	-1.325550	0.179684	-0.403368
O11	O	-1.221631	0.317068	-0.144316
O12	O	-1.065481	0.334924	-0.298512
O13	O	-1.190917	0.452462	-0.541547
O14	O	-1.052616	0.452498	-0.403247
O15	O	-1.308571	0.334860	-0.541600
O16	O	-1.310098	0.576290	-0.270451
O17	O	-1.191786	0.589819	-0.387283
C18	C	-1.026097	0.395714	-0.352659
C19	C	-0.925154	0.401871	-0.358129
C20	C	-0.748814	0.290847	-0.259516
C21	C	-0.653969	0.296629	-0.264652
C22	C	-0.640616	0.419220	-0.373532
C23	C	-0.735461	0.413439	-0.368396
C24	C	-0.789557	0.349249	-0.311387
C25	C	-0.884404	0.343463	-0.306256
C26	C	-0.871050	0.466059	-0.415131
C27	C	-0.776205	0.471840	-0.420267
C28	C	-1.249162	0.615791	-0.327091
C29	C	-1.243731	0.716072	-0.321628
C30	C	-0.498923	0.366973	-0.327127
C31	C	-0.599867	0.360812	-0.321660
C32	C	-1.342545	0.904344	-0.420607
C33	C	-1.337444	0.998566	-0.415477
C34	C	-1.228425	0.998742	-0.306244
C35	C	-1.233525	0.904519	-0.311374
C36	C	-1.290588	0.857323	-0.368556
C37	C	-1.295693	0.763099	-0.373681
C38	C	-1.186669	0.763276	-0.264453
C39	C	-1.181569	0.857499	-0.259323
C40	C	-1.247691	0.395711	-0.575222
C41	C	-1.241572	0.401819	-0.675493
C42	C	-1.274973	1.146047	-0.352814
C43	C	-1.280387	1.045769	-0.358296
C44	C	-1.352586	0.290818	-0.863970
C45	C	-1.346840	0.296554	-0.958184
C46	C	-1.224331	0.419023	-0.958136
C47	C	-1.230077	0.413287	-0.863922
C48	C	-1.294207	0.349183	-0.816843
C49	C	-1.299957	0.343452	-0.722627
C50	C	-1.177444	0.465916	-0.722581
C51	C	-1.171698	0.471652	-0.816795
C52	C	-1.276407	0.367029	-0.105536
C53	C	-1.282716	0.360655	-0.005270
H54	H	-0.596556	0.471488	-0.419938
H55	H	-1.379748	1.036848	-0.457867
C56	C	-0.609155	0.232378	-0.207595
N57	N	-0.575401	0.183981	-0.164617
C58	C	-1.358462	0.711185	-0.436583
N59	N	-1.405740	0.672086	-0.483965
C60	C	-1.129514	0.711546	-0.207193
N61	N	-1.086467	0.672582	-0.164065
H62	H	-1.119483	0.523842	-0.855140
H63	H	-0.732147	0.524104	-0.466679
H64	H	-0.904233	0.513609	-0.457373
C65	C	-1.405316	0.852426	-0.483505
N66	N	-1.452596	0.813323	-0.530882
C67	C	-1.153771	0.489510	-1.009942
N68	N	-1.100620	0.542597	-1.048965
H69	H	-1.181963	1.037185	-0.259693
H70	H	-1.129910	0.513443	-0.684200
C71	C	-0.808321	0.220235	-0.196810
N72	N	-0.853141	0.167049	-0.149578
C73	C	-1.118863	0.909418	-0.196366
N74	N	-1.071657	0.948520	-0.148922
H75	H	-1.352177	0.291256	-0.684296
H76	H	-1.404808	0.238626	-0.825637
C77	C	-0.943908	0.272856	-0.243543
N78	N	-0.988724	0.219675	-0.196302
H79	H	-1.394376	0.249025	-0.996552
