data_functionalizedCrystal
_audit_creation_method	'MofGen! by Chris Wilmer'
_symmetry_space_group_name_H-M	'P1'
_symmetry_Int_Tables_number	1
_symmetry_cell_setting	triclinic
loop_
_symmetry_equiv_pos_as_xyz
  x,y,z
_cell_length_a	14.044220
_cell_length_b	14.044220
_cell_length_c	12.503552
_cell_angle_alpha	93.855848
_cell_angle_beta	86.158090
_cell_angle_gamma	93.188878
loop_
_atom_site_label
_atom_site_type_symbol
_atom_site_fract_x
_atom_site_fract_y
_atom_site_fract_z
O1	O	-1.272128	-0.235220	-0.089212
O2	O	-0.772128	0.264780	0.410788
O3	O	-0.995455	-0.226916	-0.089239
O4	O	-0.495455	0.273084	0.410761
O5	O	-1.129639	-0.092732	-0.089215
O6	O	-0.629639	0.407268	0.410785
O7	O	-1.137944	-0.369405	-0.089236
O8	O	-0.637944	0.130595	0.410764
O9	O	-1.139719	-0.082608	0.089429
O10	O	-0.639719	0.417392	0.589429
O11	O	-1.005534	-0.216792	0.089405
O12	O	-0.505534	0.283208	0.589405
O13	O	-1.282207	-0.225097	0.089432
O14	O	-0.782207	0.274903	0.589432
Cu15	Cu	-1.144791	-0.220020	0.105730
Cu16	Cu	-0.644791	0.279980	0.605730
Cu17	Cu	-1.132871	-0.231993	-0.105537
Cu18	Cu	-0.632871	0.268007	0.394463
O19	O	-1.148023	-0.359281	0.089408
O20	O	-0.648023	0.140719	0.589408
C21	C	-0.964873	-0.218219	0.000080
C22	C	-0.464873	0.281781	0.500080
C23	C	-0.858729	-0.207375	0.000070
C24	C	-0.358729	0.292625	0.500070
C25	C	-1.131043	-0.052048	0.000107
C26	C	-0.631043	0.447952	0.500107
C27	C	-1.120199	0.054095	0.000107
C28	C	-0.620199	0.554095	0.500107
N29	N	-1.124487	-0.240407	-0.254132
N30	N	-0.624487	0.259593	0.245868
C31	C	-1.312790	-0.233794	0.000111
C32	C	-0.812790	0.266206	0.500111
C33	C	-1.418932	-0.244638	0.000114
C34	C	-0.918932	0.255362	0.500114
C35	C	-0.664393	-0.187547	0.000092
C36	C	-0.164393	0.312453	0.500092
C37	C	-0.613263	-0.264462	0.000091
C38	C	-0.113263	0.235538	0.500091
C39	C	-0.505127	-0.253429	0.000104
C40	C	-0.005127	0.246571	0.500104
C41	C	-0.772538	-0.198578	0.000080
C42	C	-0.272538	0.301422	0.500080
C43	C	-1.146619	-0.399965	0.000084
C44	C	-0.646619	0.100035	0.500084
C45	C	-1.157463	-0.506108	0.000077
C46	C	-0.657463	-0.006108	0.500077
C47	C	-1.100371	0.248431	0.000090
C48	C	-0.600371	0.748431	0.500090
C49	C	-1.177286	0.299561	0.000094
C50	C	-0.677286	0.799561	0.500094
C51	C	-1.166254	0.407697	0.000084
C52	C	-0.666254	0.907697	0.500084
C53	C	-1.111402	0.140286	0.000099
C54	C	-0.611402	0.640286	0.500099
C55	C	-1.165519	-0.199227	-0.526557
C56	C	-0.665519	0.300773	-0.026557
C57	C	-1.112153	-0.252776	-0.473243
C58	C	-0.612153	0.247224	0.026757
C59	C	-1.119018	-0.245892	-0.351318
C60	C	-0.619018	0.254108	0.148682
C61	C	-1.158656	-0.206110	-0.648493
C62	C	-0.658656	0.293890	-0.148493
N63	N	-1.153182	-0.211599	0.254325
N64	N	-0.653182	0.288401	0.754325
H65	H	-0.650702	-0.338596	0.000081
H66	H	-0.150702	0.161404	0.500081
O67	O	-1.002180	0.298022	0.000092
O68	O	-0.502180	0.798022	0.500092
H69	H	-0.958738	0.272894	-0.072722
H70	H	-0.458738	0.772894	0.427278
O71	O	-1.044787	-0.320339	-0.534061
O72	O	-0.544787	0.179661	-0.034061
H73	H	-1.049883	-0.315203	-0.621670
H74	H	-0.549883	0.184797	-0.121670
H75	H	-1.251416	0.262118	0.000029
H76	H	-0.751416	0.762118	0.500029
O77	O	-0.614805	-0.089354	0.000103
O78	O	-0.114805	0.410646	0.500103
H79	H	-0.668939	-0.034706	0.000107
H80	H	-0.168939	0.465294	0.500107
H81	H	-1.216358	-0.148215	-0.480638
H82	H	-0.716358	0.351785	0.019362
