data_functionalizedCrystal
_audit_creation_method	'MofGen! by Chris Wilmer'
_symmetry_space_group_name_H-M	'P1'
_symmetry_Int_Tables_number	1
_symmetry_cell_setting	triclinic
loop_
_symmetry_equiv_pos_as_xyz
  x,y,z
_cell_length_a	12.759387
_cell_length_b	18.215407
_cell_length_c	18.215405
_cell_angle_alpha	89.974667
_cell_angle_beta	89.963393
_cell_angle_gamma	90.021604
loop_
_atom_site_label
_atom_site_type_symbol
_atom_site_fract_x
_atom_site_fract_y
_atom_site_fract_z
Zn1	Zn	-0.594031	-1.125085	-0.292939
Zn2	Zn	-0.418333	-1.124989	-0.416023
Zn3	Zn	-0.418360	-1.002014	-0.292976
Zn4	Zn	-0.593964	-1.001983	-0.415969
O5	O	-0.506172	-1.063518	-0.354477
O6	O	-0.570741	-1.228056	-0.309274
O7	O	-0.271315	-1.108649	-0.399739
O8	O	-0.441703	-1.018392	-0.189987
O9	O	-0.441656	-1.227986	-0.399703
O10	O	-0.570768	-1.108812	-0.189960
O11	O	-0.271336	-1.018299	-0.309337
O12	O	-0.441638	-0.899025	-0.309284
O13	O	-0.740994	-1.018340	-0.399611
O14	O	-0.570653	-0.899003	-0.399647
O15	O	-0.741044	-1.108782	-0.309221
O16	O	-0.441591	-1.108620	-0.519000
O17	O	-0.570627	-1.018248	-0.518961
C18	C	-0.506122	-1.063440	-0.545683
C19	C	-0.506135	-1.063474	-0.627482
C20	C	-0.506142	-0.872312	-0.354464
C21	C	-0.506154	-0.790513	-0.354477
C22	C	-0.780206	-1.063569	-0.354406
C23	C	-0.896983	-1.063590	-0.354376
C24	C	-1.116477	-1.157814	-0.260201
C25	C	-1.061641	-1.204894	-0.213153
C26	C	-0.951919	-1.204873	-0.213178
C27	C	-0.897031	-1.157769	-0.260256
C28	C	-0.951868	-1.110690	-0.307304
C29	C	-1.061592	-1.110714	-0.307273
C30	C	-0.951819	-1.016511	-0.401423
C31	C	-1.061541	-1.016527	-0.401396
C32	C	-0.896931	-0.969408	-0.448502
C33	C	-0.951768	-0.922324	-0.495546
C34	C	-1.061496	-0.922346	-0.495519
C35	C	-1.116377	-0.969448	-0.448443
C36	C	-0.233205	-1.063510	-0.354495
C37	C	-0.116429	-1.063631	-0.354318
C38	C	-0.506203	-1.255471	-0.354490
C39	C	-0.506216	-1.337270	-0.354496
C40	C	-0.573248	-0.602326	-0.401603
C41	C	-0.573261	-0.525468	-0.401605
C42	C	-0.439119	-0.525461	-0.307365
C43	C	-0.439112	-0.602319	-0.307359
C44	C	-0.506175	-0.640749	-0.354482
C45	C	-0.506195	-0.487033	-0.354490
C46	C	-0.506209	-0.403699	-0.354492
C47	C	-0.506163	-0.724088	-0.354479
C48	C	-0.439070	-1.110641	-0.815672
C49	C	-0.439095	-1.110674	-0.892531
C50	C	-0.573350	-1.016488	-0.892530
C51	C	-0.573329	-1.016460	-0.815672
C52	C	-0.506183	-1.063535	-0.777246
C53	C	-0.506229	-1.063597	-0.930962
C54	C	-0.506257	-1.063632	-1.014295
C55	C	-0.506156	-1.063501	-0.693907
C56	C	-0.506246	-1.063616	-0.162524
C57	C	-0.506277	-1.063658	-0.080725
H58	H	-1.106343	-1.243246	-0.174825
O59	O	-0.638268	-0.488063	-0.447415
C60	C	-0.652156	-0.401289	-0.546821
C61	C	-0.578414	-0.443590	-0.494975
H62	H	-0.603792	-0.365335	-0.585296
H63	H	-0.707168	-0.365289	-0.513121
H64	H	-0.700107	-0.441976	-0.580463
H65	H	-0.530394	-0.402957	-0.461321
H66	H	-0.523470	-0.479602	-0.528717
O67	O	-0.638716	-0.970837	-0.929827
C68	C	-0.817382	-0.935018	-0.953238
C69	C	-0.743476	-0.986778	-0.910969
H70	H	-0.902094	-0.947877	-0.937995
H71	H	-0.805958	-0.943131	-1.014780
H72	H	-0.798792	-0.875683	-0.938194
H73	H	-0.762020	-1.046132	-0.925951
H74	H	-0.754914	-0.978601	-0.849437
O75	O	-0.374102	-0.639680	-0.261507
C76	C	-0.360217	-0.726525	-0.162163
C77	C	-0.433952	-0.684246	-0.214032
H78	H	-0.408574	-0.762578	-0.123776
H79	H	-0.312298	-0.685890	-0.128434
H80	H	-0.305174	-0.762446	-0.195921
H81	H	-0.489058	-0.648323	-0.180331
H82	H	-0.481797	-0.724920	-0.247763
H83	H	-0.384397	-1.148974	-0.784387
H84	H	-0.384447	-1.149034	-0.923815
H85	H	-0.384517	-0.494162	-0.269000
H86	H	-0.627986	-0.978100	-0.784383
H87	H	-0.907272	-1.243210	-0.174869
O88	O	-1.223060	-1.157950	-0.260241
C89	C	-1.380522	-1.228534	-0.279069
C90	C	-1.259818	-1.228476	-0.279067
H91	H	-1.410277	-1.285552	-0.294274
H92	H	-1.410343	-1.186838	-0.320807
H93	H	-1.410307	-1.213260	-0.222070
H94	H	-1.229944	-1.243769	-0.336036
H95	H	-1.230068	-1.270157	-0.237291
O96	O	-0.898329	-0.876679	-0.541310
C97	C	-0.774449	-0.866723	-0.640726
C98	C	-0.834892	-0.918496	-0.588934
H99	H	-0.723162	-0.900512	-0.679253
H100	H	-0.723007	-0.828269	-0.606988
H101	H	-0.832497	-0.833054	-0.674316
H102	H	-0.776919	-0.952213	-0.555333
H103	H	-0.886349	-0.956902	-0.622715
O104	O	-1.114598	-0.876543	-0.541247
C105	C	-1.102956	-0.783161	-0.634641
C106	C	-1.042693	-0.834983	-0.582880
H107	H	-1.044847	-0.749557	-0.668326
H108	H	-1.154303	-0.744656	-0.600875
H109	H	-1.154344	-0.816950	-0.673080
H110	H	-0.991248	-0.801253	-0.544431
H111	H	-0.991412	-0.873490	-0.616692
H112	H	-0.807690	-1.157763	-0.260278
H113	H	-1.205718	-0.969466	-0.448412
O114	O	-0.638497	-0.639545	-0.447394
C115	C	-0.771512	-0.631435	-0.540892
C116	C	-0.697684	-0.589197	-0.489060
H117	H	-0.819368	-0.590748	-0.574604
H118	H	-0.826599	-0.667427	-0.507180
H119	H	-0.723163	-0.667409	-0.579302
H120	H	-0.745948	-0.553184	-0.450640
H121	H	-0.642594	-0.553252	-0.522819
H122	H	-0.807590	-0.969397	-0.448521
