data_functionalizedCrystal
_audit_creation_method	'MofGen! by Chris Wilmer'
_symmetry_space_group_name_H-M	'P1'
_symmetry_Int_Tables_number	1
_symmetry_cell_setting	triclinic
loop_
_symmetry_equiv_pos_as_xyz
  x,y,z
_cell_length_a	10.686220
_cell_length_b	17.640280
_cell_length_c	10.685880
_cell_angle_alpha	82.229567
_cell_angle_beta	89.641569
_cell_angle_gamma	83.981976
loop_
_atom_site_label
_atom_site_type_symbol
_atom_site_fract_x
_atom_site_fract_y
_atom_site_fract_z
Zn1	Zn	2.043182	-0.239353	-0.479763
Zn2	Zn	2.062296	-0.358586	-0.228859
Zn3	Zn	1.817774	-0.240915	-0.285546
Zn4	Zn	1.874489	-0.378075	-0.447904
O5	O	1.949435	-0.304232	-0.360518
O6	O	2.218649	-0.246359	-0.436089
O7	O	2.014124	-0.335474	-0.063427
O8	O	1.815940	-0.133407	-0.348367
O9	O	2.232692	-0.333959	-0.251751
O10	O	1.981546	-0.132259	-0.491057
O11	O	1.834475	-0.249022	-0.105075
O12	O	1.652366	-0.267920	-0.317474
O13	O	1.912602	-0.367176	-0.625082
O14	O	1.694033	-0.368691	-0.436758
O15	O	2.036540	-0.265257	-0.648489
O16	O	2.069117	-0.468472	-0.220859
O17	O	1.931136	-0.482791	-0.381790
C18	C	1.628360	-0.320591	-0.379811
C19	C	1.491011	-0.327609	-0.388087
C20	C	2.008391	-0.503453	-0.291741
C21	C	2.033730	-0.588677	-0.262352
C22	C	1.757489	-0.906377	-0.584199
C23	C	1.781298	-0.986455	-0.556545
C24	C	1.925090	-0.971482	-0.389121
C25	C	1.901299	-0.891400	-0.416765
C26	C	1.817496	-0.858854	-0.514305
C27	C	1.961305	-0.843877	-0.346871
C28	C	1.937510	-0.763803	-0.374509
C29	C	1.853709	-0.731251	-0.472042
C30	C	1.793701	-0.778780	-0.541944
C31	C	2.045101	-0.876425	-0.249326
C32	C	2.105107	-0.828902	-0.179431
C33	C	2.081320	-0.748826	-0.207075
C34	C	1.997518	-0.716274	-0.304608
C35	C	2.141327	-0.701297	-0.137174
C36	C	2.117532	-0.621223	-0.164812
C37	C	1.973723	-0.636199	-0.332247
C38	C	2.271764	-0.287810	-0.341151
C39	C	2.409121	-0.280812	-0.332897
C40	C	1.978765	-0.318216	-0.682884
C41	C	1.991264	-0.324175	-0.820257
C42	C	1.890285	-0.104233	-0.429589
C43	C	1.865079	-0.019005	-0.459023
C44	C	1.920274	-0.290244	-0.039421
C45	C	1.907951	-0.284057	0.097891
H46	H	1.444087	-0.235380	-0.279314
H47	H	2.064475	-0.941627	-0.226829
H48	H	1.456041	-0.373049	-0.441665
O49	O	1.892433	-0.604662	-0.427148
C50	C	1.936388	-0.628154	-0.541993
H51	H	2.001383	-0.683966	-0.521679
H52	H	1.990297	-0.581624	-0.595405
C53	C	1.743953	-0.572726	-0.647684
C54	C	1.823773	-0.641280	-0.622734
H55	H	1.674489	-0.580820	-0.697492
H56	H	1.714341	-0.556896	-0.570312
H57	H	1.788892	-0.533958	-0.692188
H58	H	1.778838	-0.680043	-0.578217
H59	H	1.853375	-0.657117	-0.700100
O60	O	2.222872	-0.732831	-0.042502
C61	C	2.342666	-0.708126	-0.068996
H62	H	2.332251	-0.651912	-0.136426
H63	H	2.403397	-0.753809	-0.114525
C64	C	2.418344	-0.764408	0.137474
C65	C	2.405552	-0.695361	0.054663
H66	H	2.457139	-0.756537	0.213751
H67	H	2.337639	-0.781055	0.155322
H68	H	2.468951	-0.802470	0.099518
H69	H	2.354934	-0.657303	0.092613
H70	H	2.486251	-0.678707	0.036824
O71	O	1.830564	-0.653457	-0.498670
C72	C	1.780174	-0.623206	-0.391330
H73	H	1.808585	-0.665178	-0.302956
H74	H	1.673187	-0.614161	-0.399672
C75	C	1.796381	-0.494128	-0.490730
C76	C	1.831285	-0.545677	-0.382187
H77	H	1.827903	-0.446303	-0.485092
H78	H	1.830326	-0.514508	-0.563049
H79	H	1.707226	-0.486600	-0.497670
H80	H	1.920438	-0.553211	-0.375257
H81	H	1.797356	-0.525296	-0.309866
H82	H	2.173335	-0.855412	-0.100011
O83	O	2.175622	-0.575022	-0.096815
C84	C	2.084307	-0.528853	-0.037155
H85	H	1.993472	-0.557664	-0.026935
H86	H	2.065453	-0.470042	-0.096576
C87	C	2.244296	-0.483557	0.081924
C88	C	2.132734	-0.518948	0.094486
H89	H	2.274168	-0.477444	0.163124
H90	H	2.305818	-0.514660	0.041726
H91	H	2.228568	-0.434552	0.032401
H92	H	2.148466	-0.567955	0.143994
H93	H	2.071216	-0.487853	0.134695
O94	O	1.811544	-0.237650	-0.860140
C95	C	1.820084	-0.241841	-0.727722
H96	H	1.921304	-0.261344	-0.695800
H97	H	1.755564	-0.284839	-0.681387
C98	C	1.655518	-0.138036	-0.727996
C99	C	1.779841	-0.161984	-0.688790
H100	H	1.630689	-0.088777	-0.703979
H101	H	1.649760	-0.135214	-0.817208
H102	H	1.601766	-0.173874	-0.689380
H103	H	1.833592	-0.126151	-0.727419
H104	H	1.785607	-0.164798	-0.599584
H105	H	2.072164	-0.363085	-0.855278
O106	O	2.006482	-1.003226	-0.294438
C107	C	2.014582	-1.084093	-0.284997
H108	H	1.985975	-1.101246	-0.379004
H109	H	1.948903	-1.107017	-0.207738
C110	C	2.185928	-1.097222	-0.136597
C111	C	2.150804	-1.118290	-0.252063
H112	H	2.269954	-1.118318	-0.116276
H113	H	2.180469	-1.042741	-0.142954
H114	H	2.131186	-1.116327	-0.072229
H115	H	2.205536	-1.099177	-0.316431
H116	H	2.156276	-1.172769	-0.245716
H117	H	1.725470	-0.752280	-0.621379
H118	H	1.732443	-1.025147	-0.613483
H119	H	1.689259	-0.879877	-0.663635
