data_functionalizedCrystal
_audit_creation_method	'MofGen! by Chris Wilmer'
_symmetry_space_group_name_H-M	'P1'
_symmetry_Int_Tables_number	1
_symmetry_cell_setting	triclinic
loop_
_symmetry_equiv_pos_as_xyz
  x,y,z
_cell_length_a	25.639239
_cell_length_b	19.121246
_cell_length_c	19.120904
_cell_angle_alpha	90.125749
_cell_angle_beta	92.410104
_cell_angle_gamma	87.528032
loop_
_atom_site_label
_atom_site_type_symbol
_atom_site_fract_x
_atom_site_fract_y
_atom_site_fract_z
Zn1	Zn	-0.188790	-1.054808	-0.442205
Zn2	Zn	0.144544	-0.721474	-0.108871
Zn3	Zn	0.477877	-0.388141	0.224462
Zn4	Zn	-0.272346	-1.059701	-0.324962
Zn5	Zn	0.060988	-0.726368	0.008371
Zn6	Zn	0.394321	-0.393034	0.341704
Zn7	Zn	-0.188478	-0.942574	-0.319972
Zn8	Zn	0.144855	-0.609241	0.013362
Zn9	Zn	0.478189	-0.275908	0.346695
Zn10	Zn	-0.279751	-0.937508	-0.437146
Zn11	Zn	0.053582	-0.604174	-0.103812
Zn12	Zn	0.386915	-0.270841	0.229521
O13	O	-0.232341	-0.998648	-0.381071
O14	O	0.100992	-0.665314	-0.047738
O15	O	0.434325	-0.331981	0.285596
O16	O	-0.196905	-1.153565	-0.430858
O17	O	0.136429	-0.820232	-0.097524
O18	O	0.469762	-0.486899	0.235809
O19	O	-0.257991	-1.048332	-0.226196
O20	O	0.075343	-0.714999	0.107137
O21	O	0.408676	-0.381666	0.440471
O22	O	-0.115353	-0.957535	-0.336215
O23	O	0.217980	-0.624202	-0.002882
O24	O	0.551314	-0.290868	0.330452
O25	O	-0.258293	-1.157160	-0.344720
O26	O	0.075040	-0.823827	-0.011387
O27	O	0.408374	-0.490494	0.321946
O28	O	-0.115582	-1.039992	-0.426019
O29	O	0.217751	-0.706659	-0.092685
O30	O	0.551085	-0.373326	0.240648
O31	O	-0.196374	-0.962280	-0.222530
O32	O	0.136960	-0.628947	0.110804
O33	O	0.470293	-0.295613	0.444137
O34	O	-0.203555	-0.843794	-0.331309
O35	O	0.129779	-0.510461	0.002024
O36	O	0.463112	-0.177127	0.335357
O37	O	-0.270915	-0.948899	-0.535921
O38	O	0.062418	-0.615566	-0.202587
O39	O	0.395752	-0.282233	0.130746
O40	O	-0.270613	-0.840071	-0.417397
O41	O	0.062721	-0.506738	-0.084063
O42	O	0.396054	-0.173405	0.249270
O43	O	-0.204086	-1.035079	-0.539638
O44	O	0.129248	-0.701746	-0.206304
O45	O	0.462581	-0.368413	0.127029
O46	O	-0.346495	-1.043419	-0.339815
O47	O	-0.013161	-0.710086	-0.006482
O48	O	0.320172	-0.376752	0.326852
O49	O	-0.351936	-0.953644	-0.422236
O50	O	-0.018602	-0.620311	-0.088902
O51	O	0.314731	-0.286977	0.244431
C52	C	-0.237854	-0.816494	-0.373263
C53	C	0.095480	-0.483161	-0.039930
C54	C	0.428813	-0.149828	0.293404
C55	C	-0.240225	-0.738567	-0.369939
C56	C	0.093108	-0.405234	-0.036606
C57	C	0.426441	-0.071901	0.296727
C58	C	-0.209433	-0.700083	-0.413293
C59	C	0.123900	-0.366750	-0.079960
C60	C	0.457234	-0.033417	0.253373
C61	C	-0.211659	-0.626863	-0.410164
C62	C	0.121675	-0.293530	-0.076831
C63	C	0.455008	0.039804	0.256502
C64	C	-0.244679	-0.592128	-0.363684
C65	C	0.088654	-0.258795	-0.030351
C66	C	0.421987	0.074538	0.302982
C67	C	-0.275473	-0.630618	-0.320325
C68	C	0.057861	-0.297284	0.013008
C69	C	0.391194	0.036049	0.346341
C70	C	-0.273244	-0.703837	-0.323451
C71	C	0.060089	-0.370503	0.009882
C72	C	0.393423	-0.037170	0.343215
C73	C	-0.253002	-0.371148	-0.351996
C74	C	0.080331	-0.037815	-0.018662
C75	C	0.413665	0.295519	0.314671
C76	C	-0.255229	-0.297924	-0.348874
C77	C	0.078104	0.035410	-0.015541
C78	C	0.411437	0.368743	0.317792
C79	C	-0.191414	-0.294174	-0.438713
C80	C	0.141919	0.039159	-0.105379
C81	C	0.475252	0.372493	0.227954
C82	C	-0.189191	-0.367394	-0.441838
C83	C	0.144142	-0.034061	-0.108504
C84	C	0.477476	0.299272	0.224829
C85	C	-0.219982	-0.405878	-0.398476
C86	C	0.113351	-0.072544	-0.065143
C87	C	0.446684	0.260789	0.268190
C88	C	-0.246956	-0.517285	-0.360486
C89	C	0.086377	-0.183952	-0.027153
C90	C	0.419711	0.149381	0.306180
C91	C	-0.217702	-0.480719	-0.401671
C92	C	0.115631	-0.147386	-0.068338
C93	C	0.448964	0.185947	0.264996
C94	C	-0.368186	-0.998531	-0.381034
C95	C	-0.034853	-0.665198	-0.047701
C96	C	0.298480	-0.331864	0.285633
C97	C	-0.426300	-0.998544	-0.381044
C98	C	-0.092967	-0.665211	-0.047711
C99	C	0.240366	-0.331878	0.285622
C100	C	-0.783814	-1.045507	-0.338236
C101	C	-0.450481	-0.712174	-0.004903
C102	C	-0.117148	-0.378841	0.328431
C103	C	-0.838418	-1.045534	-0.338247
C104	C	-0.505085	-0.712201	-0.004913
C105	C	-0.171751	-0.378867	0.328420
O106	O	-0.864235	-1.085343	-0.301809
O107	O	-0.530902	-0.752009	0.031524
O108	O	-0.197568	-0.418676	0.364858
N109	N	-0.868578	-0.998769	-0.381123
N110	N	-0.535245	-0.665436	-0.047789
N111	N	-0.201911	-0.332102	0.285544
C112	C	-0.844132	-0.951979	-0.423997
C113	C	-0.510798	-0.618646	-0.090663
C114	C	-0.177465	-0.285312	0.242670
O115	O	-0.874799	-0.912204	-0.460468
O116	O	-0.541466	-0.578871	-0.127134
O117	O	-0.208133	-0.245538	0.206199
C118	C	-0.789529	-0.951956	-0.423989
C119	C	-0.456196	-0.618623	-0.090656
C120	C	-0.122862	-0.285289	0.242677
C121	C	-0.759371	-0.998719	-0.381105
C122	C	-0.426038	-0.665386	-0.047772
C123	C	-0.092705	-0.332053	0.285562
C124	C	-0.753657	-1.092267	-0.295356
C125	C	-0.420324	-0.758934	0.037978
C126	C	-0.086990	-0.425601	0.371311
C127	C	-0.699057	-1.092239	-0.295344
C128	C	-0.365724	-0.758906	0.037989
C129	C	-0.032390	-0.425573	0.371322
C130	C	-0.674614	-1.045452	-0.338213
C131	C	-0.341281	-0.712118	-0.004880
C132	C	-0.007948	-0.378785	0.328453
C133	C	-0.704771	-0.998692	-0.381094
C134	C	-0.371438	-0.665358	-0.047760
C135	C	-0.038105	-0.332025	0.285573
C136	C	-0.765084	-0.905170	-0.466866
C137	C	-0.431750	-0.571837	-0.133533
C138	C	-0.098417	-0.238503	0.199801
C139	C	-0.710477	-0.905151	-0.466856
C140	C	-0.377143	-0.571818	-0.133522
C141	C	-0.043810	-0.238485	0.199811
C142	C	-0.680319	-0.951915	-0.423971
C143	C	-0.346986	-0.618581	-0.090638
C144	C	-0.013653	-0.285248	0.242695
C145	C	-0.625729	-0.951876	-0.423951
C146	C	-0.292395	-0.618542	-0.090618
C147	C	0.040938	-0.285209	0.242716
N148	N	-0.595569	-0.998641	-0.381075
N149	N	-0.262235	-0.665307	-0.047742
N150	N	0.071098	-0.331974	0.285592
C151	C	-0.620011	-1.045429	-0.338206
C152	C	-0.286678	-0.712095	-0.004873
C153	C	0.046655	-0.378762	0.328461
C154	C	-0.958801	-0.952031	-0.424010
C155	C	-0.625468	-0.618698	-0.090676
C156	C	-0.292134	-0.285365	0.242657
C157	C	-1.013403	-0.952050	-0.424014
C158	C	-0.680070	-0.618717	-0.090680
C159	C	-0.346736	-0.285383	0.242653
C160	C	-1.007685	-1.045606	-0.338265
C161	C	-0.674352	-0.712273	-0.004931
C162	C	-0.341019	-0.378940	0.328402
C163	C	-0.953083	-1.045584	-0.338257
C164	C	-0.619749	-0.712250	-0.004924
C165	C	-0.286416	-0.378917	0.328409
C166	C	-0.928641	-0.998796	-0.381133
C167	C	-0.595308	-0.665463	-0.047800
C168	C	-0.261974	-0.332130	0.285533
C169	C	-0.505348	-1.045366	-0.338185
C170	C	-0.172014	-0.712033	-0.004852
C171	C	0.161319	-0.378700	0.328482
C172	C	-0.450743	-1.045332	-0.338175
C173	C	-0.117410	-0.711999	-0.004842
C174	C	0.215924	-0.378666	0.328491
C175	C	-0.456465	-0.951779	-0.423927
C176	C	-0.123132	-0.618446	-0.090594
C177	C	0.210201	-0.285112	0.242740
C178	C	-0.511065	-0.951810	-0.423934
C179	C	-0.177732	-0.618477	-0.090601
C180	C	0.155602	-0.285143	0.242732
C181	C	-0.535505	-0.998610	-0.381061
C182	C	-0.202171	-0.665276	-0.047728
C183	C	0.131162	-0.331943	0.285606
O184	O	-0.599876	-0.912089	-0.460372
O185	O	-0.266543	-0.578756	-0.127039
O186	O	0.066791	-0.245423	0.206294
O187	O	-0.589338	-1.085203	-0.301748
O188	O	-0.256004	-0.751869	0.031585
O189	O	0.077329	-0.418536	0.364919
C190	C	-0.095966	-0.998783	-0.381125
C191	C	0.237368	-0.665450	-0.047791
C192	C	0.570701	-0.332116	0.285542
C193	C	-0.037850	-0.998841	-0.381147
C194	C	0.295483	-0.665508	-0.047814
C195	C	0.628816	-0.332174	0.285519
C196	C	-0.238361	-0.990878	-0.563928
C197	C	0.094972	-0.657545	-0.230594
C198	C	0.428305	-0.324212	0.102739
C199	C	-0.240927	-0.987567	-0.641850
C200	C	0.092407	-0.654234	-0.308517
C201	C	0.425740	-0.320901	0.024816
C202	C	-0.226805	-0.181513	-0.388904
C203	C	0.106529	0.151821	-0.055571
C204	C	0.439862	0.485154	0.277762
C205	C	-0.224437	-0.259439	-0.392229
C206	C	0.108896	0.073894	-0.058895
C207	C	0.442229	0.407227	0.274438
C208	C	-0.207339	-1.030879	-0.680395
C209	C	0.125994	-0.697546	-0.347061
C210	C	0.459328	-0.364212	-0.013728
C211	C	-0.209748	-1.027759	-0.753611
C212	C	0.123586	-0.694426	-0.420278
C213	C	0.456919	-0.361093	-0.086944
C214	C	-0.245747	-0.981332	-0.788282
C215	C	0.087587	-0.647998	-0.454948
C216	C	0.420920	-0.314665	-0.121615
C217	C	-0.279336	-0.938015	-0.749732
C218	C	0.053998	-0.604682	-0.416398
C219	C	0.387331	-0.271349	-0.083065
C220	C	-0.276924	-0.941132	-0.676517
C221	C	0.056409	-0.607798	-0.343183
C222	C	0.389742	-0.274465	-0.009850
C223	C	-0.254766	-0.969674	-1.009246
C224	C	0.078567	-0.636341	-0.675913
C225	C	0.411900	-0.303007	-0.342580
C226	C	-0.257177	-0.966562	-1.082467
C227	C	0.076157	-0.633229	-0.749133
C228	C	0.409490	-0.299896	-0.415800
C229	C	-0.187588	-1.056306	-1.086341
C230	C	0.145746	-0.722973	-0.753007
C231	C	0.479079	-0.389639	-0.419674
C232	C	-0.185181	-1.059421	-1.013124
C233	C	0.148152	-0.726088	-0.679791
C234	C	0.481485	-0.392755	-0.346458
C235	C	-0.218768	-1.016103	-0.974581
C236	C	0.114565	-0.682769	-0.641248
C237	C	0.447898	-0.349436	-0.307914
C238	C	-0.248211	-0.978143	-0.863120
C239	C	0.085123	-0.644810	-0.529787
C240	C	0.418456	-0.311477	-0.196454
C241	C	-0.216301	-1.019288	-0.899743
C242	C	0.117032	-0.685954	-0.566410
C243	C	0.450365	-0.352621	-0.233077
C244	C	-0.226306	-1.006427	-0.198928
C245	C	0.107028	-0.673094	0.134406
C246	C	0.440361	-0.339761	0.467739
C247	C	-0.223589	-1.009874	-0.121011
C248	C	0.109744	-0.676541	0.212322
C249	C	0.443078	-0.343207	0.545656
H250	H	-0.162304	-0.395670	-0.479689
H251	H	0.171029	-0.062337	-0.146356
H252	H	0.504363	0.270996	0.186977
H253	H	-0.308645	-0.900210	-0.777966
H254	H	0.024688	-0.566877	-0.444633
H255	H	0.358021	-0.233544	-0.111300
F256	F	-0.290513	-0.923570	-0.968235
F257	F	0.042820	-0.590237	-0.634902
F258	F	0.376153	-0.256903	-0.301568
F259	F	-0.295491	-0.917142	-1.119364
F260	F	0.037842	-0.583809	-0.786031
F261	F	0.371175	-0.250476	-0.452697
F262	F	-0.543162	-0.902027	-0.469563
F263	F	-0.209829	-0.568694	-0.136229
F264	F	0.123505	-0.235361	0.197104
F265	F	-0.151843	-1.102404	-1.127366
F266	F	0.181490	-0.769071	-0.794033
F267	F	0.514823	-0.435737	-0.460700
F268	F	-0.178886	-0.585908	-0.456310
F269	F	0.154447	-0.252575	-0.122976
F270	F	0.487780	0.080758	0.210357
F271	F	-0.174290	-0.737044	-0.462768
F272	F	0.159043	-0.403711	-0.129434
F273	F	0.492376	-0.070377	0.203899
F274	F	-0.430442	-0.901988	-0.469551
F275	F	-0.097109	-0.568655	-0.136217
F276	F	0.236225	-0.235322	0.197116
F277	F	-0.158646	-0.253212	-0.484857
F278	F	0.174687	0.080121	-0.151524
F279	F	0.508021	0.413454	0.181810
F280	F	-0.779662	-1.142071	-0.249726
F281	F	-0.446329	-0.808738	0.083607
F282	F	-0.112995	-0.475404	0.416941
H283	H	-0.178026	-1.068688	-0.652171
H284	H	0.155307	-0.735354	-0.318838
H285	H	0.488641	-0.402021	0.014495
H286	H	-0.282121	-0.269645	-0.311024
H287	H	0.051212	0.063689	0.022309
H288	H	0.384545	0.397022	0.355642
F289	F	-0.285764	-0.412096	-0.305834
F290	F	0.047570	-0.078763	0.027499
F291	F	0.380903	0.254571	0.360833
H292	H	-0.938904	-0.913926	-0.458922
H293	H	-0.605571	-0.580592	-0.125589
H294	H	-0.272237	-0.247259	0.207744
H295	H	-0.302356	-0.602331	-0.282477
H296	H	0.030977	-0.268998	0.050856
H297	H	0.364311	0.064336	0.384190
H298	H	-0.298318	-0.735170	-0.288147
H299	H	0.035015	-0.401837	0.045186
H300	H	0.368349	-0.068503	0.378519
H301	H	-0.426190	-1.083413	-0.303251
H302	H	-0.092857	-0.750079	0.030082
H303	H	0.240477	-0.416746	0.363415
H304	H	-0.304270	-0.905856	-0.645134
H305	H	0.029064	-0.572522	-0.311801
H306	H	0.362397	-0.239189	0.021532
H307	H	-0.190815	-0.509004	-0.439512
H308	H	0.142518	-0.175670	-0.106179
H309	H	0.475852	0.157663	0.227155
F310	F	-0.282099	-0.480312	-0.311021
F311	F	0.051234	-0.146978	0.022312
F312	F	0.384568	0.186355	0.355646
H313	H	-0.789629	-0.867087	-0.501784
H314	H	-0.456295	-0.533754	-0.168450
H315	H	-0.122962	-0.200420	0.164883
H316	H	-0.525240	-1.083476	-0.303275
H317	H	-0.191906	-0.750143	0.030058
H318	H	0.141427	-0.416810	0.363391
F319	F	-1.033709	-1.095402	-0.292638
F320	F	-0.700375	-0.762068	0.040695
F321	F	-0.367042	-0.428735	0.374029
H322	H	-0.674506	-1.130320	-0.260427
H323	H	-0.341172	-0.796987	0.072907
H324	H	-0.007839	-0.463653	0.406240
F325	F	-0.920992	-1.095355	-0.292615
F326	F	-0.587658	-0.762022	0.040719
F327	F	-0.254325	-0.428689	0.374052
F328	F	-0.174016	-1.073882	-0.794631
F329	F	0.159317	-0.740549	-0.461297
F330	F	0.492650	-0.407215	-0.127964
H331	H	-0.186989	-1.057086	-0.871511
H332	H	0.146344	-0.723753	-0.538178
H333	H	0.479678	-0.390419	-0.204845
H334	H	-0.690579	-0.867052	-0.501773
H335	H	-0.357246	-0.533719	-0.168439
H336	H	-0.023913	-0.200386	0.164894
F337	F	-0.286524	-0.928735	-0.900026
F338	F	0.046809	-0.595402	-0.566692
F339	F	0.380142	-0.262068	-0.233359
H340	H	-1.037953	-0.913964	-0.458928
H341	H	-0.704620	-0.580631	-0.125594
H342	H	-0.371286	-0.247298	0.207739
H343	H	-0.155868	-1.097230	-0.984901
H344	H	0.177465	-0.763896	-0.651567
H345	H	0.510798	-0.430563	-0.318234
