data_functionalizedCrystal
_audit_creation_method	'MofGen! by Chris Wilmer'
_symmetry_space_group_name_H-M	'P1'
_symmetry_Int_Tables_number	1
_symmetry_cell_setting	triclinic
loop_
_symmetry_equiv_pos_as_xyz
  x,y,z
_cell_length_a	9.065218
_cell_length_b	14.519709
_cell_length_c	7.540329
_cell_angle_alpha	89.995460
_cell_angle_beta	89.996962
_cell_angle_gamma	84.348015
loop_
_atom_site_label
_atom_site_type_symbol
_atom_site_fract_x
_atom_site_fract_y
_atom_site_fract_z
O1	O	1.957864	0.135225	-0.147492
O2	O	2.457864	0.635225	0.352508
O3	O	1.528372	0.146317	-0.147494
O4	O	2.028372	0.646317	0.352506
O5	O	1.754505	0.006616	-0.147477
O6	O	2.254505	0.506616	0.352523
O7	O	1.731731	0.274926	-0.147509
O8	O	2.231731	0.774926	0.352491
O9	O	1.754492	0.006614	0.147488
O10	O	2.254492	0.506614	0.647488
O11	O	1.528358	0.146315	0.147471
O12	O	2.028358	0.646315	0.647471
O13	O	1.957851	0.135223	0.147473
O14	O	2.457851	0.635223	0.647473
Cu15	Cu	1.743103	0.140769	0.174405
Cu16	Cu	2.243103	0.640769	0.674405
Cu17	Cu	1.743119	0.140771	-0.174426
Cu18	Cu	2.243119	0.640771	0.325574
O19	O	1.731717	0.274924	0.147456
O20	O	2.231717	0.774924	0.647456
C21	C	1.473398	0.145250	-0.000012
C22	C	1.973398	0.645250	0.499988
C23	C	1.309615	0.142063	-0.000013
C24	C	1.809615	0.642063	0.499987
C25	C	1.753437	-0.027752	0.000006
C26	C	2.253437	0.472248	0.500006
C27	C	1.750257	-0.130157	0.000007
C28	C	2.250257	0.369843	0.500007
C29	C	1.738547	-0.505138	-0.000039
C30	C	2.238547	-0.005138	0.499961
C31	C	1.741799	-0.400807	-0.000026
C32	C	2.241799	0.099193	0.499974
C33	C	1.744402	-0.317651	-0.000015
C34	C	2.244402	0.182349	0.499985
C35	C	1.747654	-0.213313	-0.000005
C36	C	2.247654	0.286687	0.499995
C37	C	2.012824	0.136290	-0.000013
C38	C	2.512824	0.636290	0.499987
C39	C	2.176607	0.139478	-0.000024
C40	C	2.676607	0.639478	0.499976
C41	C	1.732785	0.309293	-0.000031
C42	C	2.232785	0.809293	0.499969
C43	C	1.735966	0.411697	-0.000043
C44	C	2.235966	0.911697	0.499957
N45	N	1.743103	0.140767	0.419753
N46	N	2.243103	0.640767	0.919753
N47	N	1.743131	0.140766	-0.419774
N48	N	2.243131	0.640766	0.080226
