data_functionalizedCrystal
_audit_creation_method	'MofGen! by Chris Wilmer'
_symmetry_space_group_name_H-M	'P1'
_symmetry_Int_Tables_number	1
_symmetry_cell_setting	triclinic
loop_
_symmetry_equiv_pos_as_xyz
  x,y,z
_cell_length_a	19.288864
_cell_length_b	17.699092
_cell_length_c	18.366186
_cell_angle_alpha	90.002797
_cell_angle_beta	90.019370
_cell_angle_gamma	83.211307
loop_
_atom_site_label
_atom_site_type_symbol
_atom_site_fract_x
_atom_site_fract_y
_atom_site_fract_z
O1	O	0.921464	0.094415	0.060780
O2	O	0.719218	0.107152	0.060730
O3	O	0.826052	-0.009413	0.060755
O4	O	0.814630	0.210980	0.060756
O5	O	0.826041	-0.009416	-0.060344
O6	O	0.719207	0.107149	-0.060369
O7	O	0.921452	0.094413	-0.060319
Zn8	Zn	0.820328	0.100781	-0.079571
Zn9	Zn	0.820343	0.100784	0.079983
O10	O	0.814619	0.210978	-0.060344
C11	C	0.693336	0.106741	0.000174
C12	C	0.616231	0.105511	0.000155
C13	C	0.825636	-0.037611	0.000206
C14	C	0.824405	-0.121627	0.000210
C15	C	0.571617	0.173906	0.000167
C16	C	0.499169	0.172750	0.000175
C17	C	0.471337	0.103195	0.000186
C18	C	0.515960	0.034791	0.000170
C19	C	0.588407	0.035949	0.000155
C20	C	0.363013	0.048518	0.042637
C21	C	0.290567	0.047363	0.042657
C22	C	0.247887	0.099621	0.000230
C23	C	0.277661	0.153047	-0.042207
C24	C	0.350107	0.154205	-0.042222
C25	C	0.392782	0.101932	0.000202
C26	C	0.124716	0.166768	0.000249
C27	C	0.052267	0.165609	0.000253
C28	C	0.069060	0.027649	0.000255
C29	C	0.141508	0.028809	0.000245
C30	C	0.169331	0.098371	0.000245
C31	C	0.823835	-0.161092	0.066221
C32	C	0.822674	-0.240033	0.066222
C33	C	0.822089	-0.279509	0.000210
C34	C	0.822657	-0.240038	-0.065807
C35	C	0.823813	-0.161097	-0.065807
C36	C	0.817995	-0.558396	-0.065809
C37	C	0.816841	-0.637343	-0.065804
C38	C	0.816856	-0.637332	0.066220
C39	C	0.818012	-0.558392	0.066220
C40	C	0.818576	-0.518927	0.000203
C41	C	0.819834	-0.433330	0.000203
C42	C	0.820836	-0.365105	0.000209
C43	C	0.947335	0.094824	0.000239
C44	C	1.024440	0.096054	0.000263
C45	C	0.815035	0.239175	0.000207
C46	C	0.816265	0.323191	0.000208
N47	N	0.820323	0.100778	-0.188462
C48	C	0.867660	0.049180	-0.773002
C49	C	0.867661	0.049182	-0.696774
C50	C	0.820343	0.100777	-0.658674
C51	C	0.773033	0.152388	-0.696807
C52	C	0.773038	0.152390	-0.773034
C53	C	0.757063	0.110878	-0.537935
C54	C	0.757057	0.110871	-0.461710
C55	C	0.820327	0.100776	-0.423566
C56	C	0.883607	0.090672	-0.461657
C57	C	0.883612	0.090674	-0.537883
C58	C	0.820333	0.100781	-0.576019
C59	C	0.867639	0.049174	-0.302786
C60	C	0.867641	0.049181	-0.226557
C61	C	0.773006	0.152383	-0.226592
C62	C	0.773010	0.152380	-0.302820
C63	C	0.820326	0.100771	-0.340913
N64	N	0.820354	0.100781	0.188874
H65	H	0.594266	0.230548	0.000168
H66	H	0.822213	-0.272163	0.119976
H67	H	0.818492	-0.526255	0.119974
H68	H	0.177833	-0.026886	0.000239
H69	H	0.935136	0.082449	-0.568893
H70	H	0.824268	-0.128964	-0.119561
H71	H	0.935128	0.082457	-0.430602
H72	H	0.734481	0.194396	-0.195572
H73	H	0.462838	0.228447	0.000182
H74	H	0.493295	-0.021841	0.000189
H75	H	0.046400	-0.028984	0.000310
H76	H	0.266331	0.003864	0.077214
H77	H	0.705537	0.119103	-0.568985
H78	H	0.705531	0.119089	-0.430702
H79	H	0.816362	-0.669481	-0.119563
H80	H	0.734486	0.194395	-0.333863
H81	H	0.816393	-0.669473	0.119974
H82	H	0.906168	0.007153	-0.333803
H83	H	0.734507	0.194399	-0.665782
H84	H	0.818468	-0.526276	-0.119564
H85	H	0.397758	0.005962	0.077190
H86	H	0.906186	0.007161	-0.665727
H87	H	0.822176	-0.272184	-0.119555
H88	H	0.734514	0.194410	-0.804076
H89	H	0.906167	0.007163	-0.195516
H90	H	0.906189	0.007159	-0.804014
H91	H	0.374346	0.197704	-0.076778
H92	H	0.242912	0.195600	-0.076755
H93	H	0.147371	0.223409	0.000239
H94	H	0.015942	0.221307	0.000258
H95	H	0.824315	-0.128957	0.119976
H96	H	0.624732	-0.019749	0.000146
