data_functionalizedCrystal
_audit_creation_method	'MofGen! by Chris Wilmer'
_symmetry_space_group_name_H-M	'P1'
_symmetry_Int_Tables_number	1
_symmetry_cell_setting	triclinic
loop_
_symmetry_equiv_pos_as_xyz
  x,y,z
_cell_length_a	21.295419
_cell_length_b	29.839133
_cell_length_c	21.295411
_cell_angle_alpha	90.010367
_cell_angle_beta	89.975461
_cell_angle_gamma	89.951686
loop_
_atom_site_label
_atom_site_type_symbol
_atom_site_fract_x
_atom_site_fract_y
_atom_site_fract_z
Zn1	Zn	0.962342	0.178727	-0.355960
Zn2	Zn	0.962239	0.253843	-0.250707
Zn3	Zn	0.857066	0.178747	-0.250705
Zn4	Zn	0.857029	0.253850	-0.355938
O5	O	0.909669	0.216292	-0.303328
O6	O	1.050418	0.188680	-0.342008
O7	O	0.948260	0.243886	-0.162617
O8	O	0.871089	0.115877	-0.264677
O9	O	1.050342	0.243867	-0.264678
O10	O	0.948435	0.115863	-0.342007
O11	O	0.870989	0.188714	-0.162616
O12	O	0.768971	0.188721	-0.264655
O13	O	0.871027	0.243880	-0.444031
O14	O	0.768945	0.243899	-0.341969
O15	O	0.948400	0.188687	-0.444047
O16	O	0.948225	0.316711	-0.264657
O17	O	0.870928	0.316716	-0.341970
C18	C	0.746118	0.216313	-0.303310
C19	C	0.676149	0.216333	-0.303317
C20	C	0.643345	0.187644	-0.343645
C21	C	0.577602	0.187632	-0.343648
C22	C	0.544667	0.216317	-0.303329
C23	C	0.577480	0.245008	-0.262993
C24	C	0.643221	0.245016	-0.262988
N25	N	0.441389	0.255624	-0.298420
N26	N	0.378937	0.255615	-0.298429
C27	C	0.346592	0.216294	-0.303343
N28	N	0.379058	0.176981	-0.308259
N29	N	0.441515	0.176990	-0.308253
C30	C	0.473382	0.216311	-0.303330
C31	C	0.242502	0.187589	-0.343675
C32	C	0.176758	0.187577	-0.343673
C33	C	0.176637	0.244956	-0.263022
C34	C	0.242379	0.244965	-0.263021
C35	C	0.275308	0.216282	-0.303351
C36	C	0.909578	0.333014	-0.303325
C37	C	0.909597	0.382949	-0.303345
C38	C	0.949917	0.739493	-0.343636
C39	C	0.949875	0.551820	-0.343637
O40	O	0.984106	0.527520	-0.377886
N41	N	0.909633	0.528394	-0.303342
C42	C	0.869401	0.551888	-0.263042
O43	O	0.835176	0.527657	-0.228765
C44	C	0.869446	0.739561	-0.263039
C45	C	0.909686	0.762985	-0.303340
C46	C	0.990154	0.762917	-0.383933
C47	C	0.990162	0.809833	-0.383935
C48	C	0.949932	0.833324	-0.343640
C49	C	0.909694	0.809900	-0.303342
C50	C	0.829218	0.763055	-0.222736
C51	C	0.829234	0.809976	-0.222738
C52	C	0.869474	0.833400	-0.263039
C53	C	0.869471	0.880307	-0.263048
N54	N	0.909714	0.903733	-0.303342
C55	C	0.949944	0.880242	-0.343638
C56	C	0.869379	0.453358	-0.263048
C57	C	0.869367	0.406440	-0.263049
C58	C	0.949842	0.406375	-0.343643
C59	C	0.949850	0.453294	-0.343644
C60	C	0.909621	0.476784	-0.303342
C61	C	0.949956	0.978768	-0.343639
C62	C	0.949959	1.025687	-0.343639
C63	C	0.869486	1.025748	-0.263044
C64	C	0.869481	0.978833	-0.263046
C65	C	0.909721	0.955344	-0.303346
O66	O	0.835263	0.904637	-0.228811
O67	O	0.984174	0.904482	-0.377900
C68	C	0.949909	0.692578	-0.343634
C69	C	0.909671	0.669154	-0.303337
C70	C	0.869441	0.692645	-0.263041
C71	C	0.909659	0.622236	-0.303338
C72	C	0.949889	0.598745	-0.343634
C73	C	0.990132	0.622171	-0.383928
C74	C	0.990139	0.669086	-0.383930
C75	C	0.829199	0.669219	-0.222747
C76	C	0.829194	0.622303	-0.222749
C77	C	0.869424	0.598812	-0.263044
C78	C	1.073859	0.216270	-0.303346
C79	C	1.143828	0.216261	-0.303353
C80	C	0.909721	0.216282	-0.467518
C81	C	0.909744	0.216278	-0.537486
C82	C	0.909754	1.099113	-0.303342
C83	C	0.909728	1.049179	-0.303344
C84	C	0.950030	0.187538	-0.570362
C85	C	0.950029	0.187519	-0.636105
C86	C	0.909749	0.216247	-0.668969
C87	C	0.869454	0.244989	-0.636085
C88	C	0.869452	0.245005	-0.570343
N89	N	0.904889	0.255549	-0.772195
N90	N	0.904895	0.255533	-0.834646
C91	C	0.909753	0.216202	-0.867044
N92	N	0.914616	0.176886	-0.834630
N93	N	0.914613	0.176903	-0.772173
C94	C	0.909746	0.216233	-0.740254
C95	C	0.950040	0.187438	-0.971205
C96	C	0.950035	0.187418	-1.036949
C97	C	0.869463	0.244893	-1.036928
C98	C	0.869465	0.244909	-0.971185
C99	C	0.909757	0.216182	-0.938328
C100	C	0.909653	0.216269	-0.139776
C101	C	0.909753	0.216146	-0.069808
H102	H	0.669930	0.268379	-0.230147
F103	F	1.032968	0.694010	-0.426825
F104	F	0.277294	0.275499	-0.220096
F105	F	0.992788	1.050614	-0.386538
H106	H	0.836664	0.268315	-0.944417
H107	H	0.796420	0.603235	-0.189932
F108	F	0.277549	0.157061	-0.386594
F109	F	0.826651	0.953903	-0.220155
F110	F	0.992785	0.953776	-0.386531
F111	F	0.786377	0.694214	-0.179856
H112	H	0.982840	0.164012	-1.063716
H113	H	0.982834	0.164112	-0.662878
F114	F	0.826572	0.275595	-0.535353
F115	F	1.032945	0.597161	-0.426816
H116	H	0.982838	0.164146	-0.543614
H117	H	1.022935	0.828900	-0.416748
F118	F	0.992681	0.478219	-0.386537
F119	F	0.992919	0.156863	-0.936234
F120	F	0.826583	0.275563	-0.671061
H121	H	0.836660	0.268279	-1.063685
F122	F	0.678386	0.157117	-0.386567
H123	H	0.550887	0.164268	-0.376486
H124	H	0.150050	0.164212	-0.376512
H125	H	0.982598	0.387241	-0.376454
F126	F	1.032977	0.737923	-0.426825
H127	H	0.836592	0.387371	-0.230239
H128	H	0.149822	0.268312	-0.230194
H129	H	0.550660	0.268363	-0.230165
H130	H	0.836617	0.472480	-0.230227
F131	F	0.786384	0.738135	-0.179845
H132	H	0.796474	0.829099	-0.189917
H133	H	0.836730	1.044884	-0.230238
