data_functionalizedCrystal
_audit_creation_method	'MofGen! by Chris Wilmer'
_symmetry_space_group_name_H-M	'P1'
_symmetry_Int_Tables_number	1
_symmetry_cell_setting	triclinic
loop_
_symmetry_equiv_pos_as_xyz
  x,y,z
_cell_length_a	11.169417
_cell_length_b	21.295417
_cell_length_c	11.169409
_cell_angle_alpha	89.958601
_cell_angle_beta	89.980487
_cell_angle_gamma	90.031756
loop_
_atom_site_label
_atom_site_type_symbol
_atom_site_fract_x
_atom_site_fract_y
_atom_site_fract_z
Zn1	Zn	1.834794	-0.250537	-0.678457
Zn2	Zn	2.334794	0.249463	-0.178457
Zn3	Zn	1.834613	-0.355825	-0.477742
Zn4	Zn	2.334613	0.144175	0.022258
Zn5	Zn	1.634080	-0.250576	-0.477793
Zn6	Zn	2.134080	0.249424	0.022207
Zn7	Zn	1.634017	-0.355775	-0.678388
Zn8	Zn	2.134017	0.144225	-0.178388
O9	O	1.734376	-0.303178	-0.578095
O10	O	2.234376	0.196822	-0.078095
O11	O	2.002720	-0.264509	-0.651840
O12	O	2.502720	0.235491	-0.151840
O13	O	1.807962	-0.341901	-0.309799
O14	O	2.307962	0.158099	0.190201
O15	O	1.660807	-0.162482	-0.504461
O16	O	2.160807	0.337518	-0.004461
O17	O	2.002587	-0.341864	-0.504375
O18	O	2.502587	0.158136	-0.004375
O19	O	1.808271	-0.162453	-0.651888
O20	O	2.308271	0.337547	-0.151888
O21	O	1.660632	-0.264575	-0.309836
O22	O	2.160632	0.235425	0.190164
O23	O	1.466122	-0.264526	-0.504394
O24	O	1.966122	0.235474	-0.004394
O25	O	1.660700	-0.341777	-0.846347
O26	O	2.160700	0.158223	-0.346347
O27	O	1.466076	-0.341815	-0.651771
O28	O	1.966076	0.158185	-0.151771
O29	O	1.808210	-0.264460	-0.846398
O30	O	2.308210	0.235540	-0.346398
O31	O	1.807901	-0.443908	-0.504309
O32	O	2.307901	0.056092	-0.004309
O33	O	1.660524	-0.443871	-0.651722
O34	O	2.160524	0.056129	-0.151722
C35	C	1.422551	-0.303170	-0.578081
C36	C	1.922551	0.196830	-0.078081
C37	C	1.289151	-0.303182	-0.578104
C38	C	1.789151	0.196818	-0.078104
C39	C	1.734219	-0.466730	-0.578029
C40	C	2.234219	0.033270	-0.078029
C41	C	1.734261	-0.536698	-0.578040
C42	C	2.234261	-0.036698	-0.078040
C43	C	1.811069	-0.569563	-0.501361
C44	C	2.311069	-0.069563	-0.001361
C45	C	1.811125	-0.635306	-0.501388
C46	C	2.311125	-0.135306	-0.001388
C47	C	1.734352	-0.668181	-0.578082
C48	C	2.234352	-0.168181	-0.078082
C49	C	1.657539	-0.635308	-0.654776
C50	C	2.157539	-0.135308	-0.154776
C51	C	1.657494	-0.569566	-0.654756
C52	C	2.157494	-0.069566	-0.154756
N53	N	1.629362	-0.771447	-0.587227
N54	N	2.129362	-0.271447	-0.087227
N55	N	1.629409	-0.833898	-0.587239
N56	N	2.129409	-0.333898	-0.087239
C57	C	1.734487	-0.866255	-0.578151
C58	C	2.234487	-0.366255	-0.078151
N59	N	1.839518	-0.833802	-0.569025
N60	N	2.339518	-0.333802	-0.069025
N61	N	1.839470	-0.771345	-0.569006
N62	N	2.339470	-0.271345	-0.069006
C63	C	1.734394	-0.739466	-0.578113
C64	C	2.234394	-0.239466	-0.078113
C65	C	1.811362	-0.970406	-0.501496
C66	C	2.311362	-0.470406	-0.001496
C67	C	1.811420	-1.036150	-0.501531
C68	C	2.311420	-0.536150	-0.001531
C69	C	1.657824	-1.036150	-0.654914
C70	C	2.157824	-0.536150	-0.154914
C71	C	1.657776	-0.970408	-0.654885
C72	C	2.157776	-0.470408	-0.154885
C73	C	1.734543	-0.937540	-0.578169
C74	C	2.234543	-0.437540	-0.078169
C75	C	2.047418	-0.303187	-0.578110
C76	C	2.547418	0.196813	-0.078110
C77	C	2.180818	-0.303191	-0.578116
C78	C	2.680818	0.196809	-0.078116
C79	C	1.734468	-0.303109	-0.891138
C80	C	2.234468	0.196891	-0.391138
C81	C	1.734507	-0.303079	-1.024538
C82	C	2.234507	0.196921	-0.524538
C83	C	1.734567	-0.138988	-0.578188
C84	C	2.234567	0.361012	-0.078188
C85	C	1.734648	-0.069020	-0.578228
C86	C	2.234648	0.430980	-0.078228
C87	C	1.734353	-0.303203	-0.266270
C88	C	2.234353	0.196797	0.233730
C89	C	1.734547	-0.303055	-0.132871
C90	C	2.234547	0.196945	0.367129
H91	H	1.873580	-0.542804	-0.438898
H92	H	2.373580	-0.042804	0.061102
H93	H	1.873675	-0.662070	-0.438946
H94	H	2.373675	-0.162070	0.061054
H95	H	1.595319	-1.062916	-0.717365
H96	H	2.095319	-0.562916	-0.217365
N97	N	1.894260	-1.071602	-0.418820
N98	N	2.394260	-0.571602	0.081180
H99	H	1.949880	-1.098826	-0.467646
H100	H	2.449880	-0.598826	0.032354
H101	H	1.942799	-1.040764	-0.370234
H102	H	2.442799	-0.540764	0.129766
N103	N	1.574737	-0.670761	-0.737501
N104	N	2.074737	-0.170761	-0.237501
H105	H	1.586417	-0.717395	-0.725876
H106	H	2.086417	-0.217395	-0.225876
H107	H	1.489023	-0.659318	-0.718746
H108	H	1.989023	-0.159318	-0.218746
N109	N	1.574646	-0.534114	-0.737461
N110	N	2.074646	-0.034114	-0.237461
H111	H	1.526019	-0.564913	-0.786055
H112	H	2.026019	-0.064913	-0.286055
H113	H	1.519110	-0.506890	-0.688546
H114	H	2.019110	-0.006890	-0.188546
N115	N	1.574914	-0.934960	-0.737578
N116	N	2.074914	-0.434960	-0.237578
H117	H	1.519306	-0.907734	-0.688743
H118	H	2.019306	-0.407734	-0.188743
H119	H	1.623721	-0.907670	-0.793217
H120	H	2.123721	-0.407670	-0.293217
N121	N	1.894157	-0.934949	-0.418761
N122	N	2.394157	-0.434949	0.081239
H123	H	1.942831	-0.965748	-0.370194
H124	H	2.442831	-0.465748	0.129806
H125	H	1.949651	-0.907620	-0.467652
H126	H	2.449651	-0.407620	0.032348
