data_functionalizedCrystal
_audit_creation_method	'MofGen! by Chris Wilmer'
_symmetry_space_group_name_H-M	'P1'
_symmetry_Int_Tables_number	1
_symmetry_cell_setting	triclinic
loop_
_symmetry_equiv_pos_as_xyz
  x,y,z
_cell_length_a	14.519709
_cell_length_b	27.732048
_cell_length_c	13.596369
_cell_angle_alpha	89.989067
_cell_angle_beta	90.000291
_cell_angle_gamma	83.161400
loop_
_atom_site_label
_atom_site_type_symbol
_atom_site_fract_x
_atom_site_fract_y
_atom_site_fract_z
O1	O	1.222766	0.063362	-0.081675
O2	O	0.954159	0.070824	-0.081706
O3	O	1.096805	-0.003264	-0.081671
O4	O	1.080120	0.137450	-0.081710
O5	O	1.096791	-0.003268	0.081912
O6	O	0.954145	0.070820	0.081877
O7	O	1.222752	0.063358	0.081908
Zn8	Zn	1.088446	0.067088	0.107865
Zn9	Zn	1.088465	0.067094	-0.107663
O10	O	1.080106	0.137446	0.081873
C11	C	0.919799	0.070474	0.000082
C12	C	0.817435	0.069432	0.000071
C13	C	0.442606	0.065596	0.000116
C14	C	0.546896	0.066661	0.000103
C15	C	0.630018	0.067514	0.000093
C16	C	0.734314	0.068579	0.000081
C17	C	1.096448	-0.021274	0.000124
C18	C	1.095393	-0.074934	0.000132
C19	C	1.173048	-0.413378	0.000090
C20	C	1.169135	-0.615057	0.000076
O21	O	1.240145	-0.645973	0.000041
N22	N	1.084552	-0.634585	0.000067
C23	C	1.000941	-0.603690	0.000055
O24	O	0.928909	-0.624927	0.000037
C25	C	1.004855	-0.402012	0.000062
C26	C	1.089444	-0.382487	0.000081
C27	C	1.257630	-0.393853	0.000108
C28	C	1.258607	-0.343436	0.000117
C29	C	1.175003	-0.312545	0.000108
C30	C	1.090421	-0.332071	0.000090
C31	C	0.921246	-0.371118	0.000043
C32	C	0.922232	-0.320696	0.000043
C33	C	1.006820	-0.301171	0.000062
C34	C	1.007794	-0.250763	0.000090
N35	N	1.092377	-0.231235	0.000099
C36	C	1.175981	-0.262126	0.000108
C37	C	0.998893	-0.709574	0.000053
C38	C	0.997914	-0.759993	0.000053
C39	C	1.166108	-0.771356	0.000072
C40	C	1.167086	-0.720936	0.000079
C41	C	1.083476	-0.690045	0.000062
C42	C	1.178028	-0.156247	0.000128
C43	C	1.178998	-0.105825	0.000141
C44	C	1.010804	-0.094466	0.000116
C45	C	1.009833	-0.144883	0.000109
C46	C	1.093453	-0.175773	0.000111
O47	O	0.936822	-0.219818	0.000114
O48	O	1.248004	-0.240879	0.000104
C49	C	1.172071	-0.463795	0.000081
C50	C	1.087489	-0.483320	0.000063
C51	C	1.003885	-0.452429	0.000054
C52	C	1.086510	-0.533740	0.000063
C53	C	1.170115	-0.564631	0.000072
C54	C	1.254698	-0.545103	0.000081
C55	C	1.255675	-0.494686	0.000090
C56	C	0.919302	-0.471957	0.000046
C57	C	0.918331	-0.522375	0.000038
C58	C	1.001936	-0.553266	0.000047
C59	C	1.257113	0.063708	0.000119
C60	C	1.359476	0.064750	0.000123
C61	C	1.080464	0.155456	0.000077
C62	C	1.081518	0.209116	0.000062
N63	N	1.088441	0.067085	0.254957
N64	N	1.088478	0.067094	-0.254754
C65	C	1.088464	0.067094	0.656248
C66	C	1.088454	0.067093	0.544596
C67	C	1.088453	0.067090	0.455606
C68	C	1.088442	0.067088	0.343947
H69	H	1.247882	-0.089931	0.000158
H70	H	0.940955	-0.160781	0.000120
C71	C	1.397763	-0.570310	-0.083997
C72	C	1.346599	-0.579064	0.000088
H73	H	1.454497	-0.591275	-0.083992
H74	H	1.363049	-0.576229	-0.141035
H75	H	1.410453	-0.537488	-0.083979
H76	H	1.333903	-0.611885	0.000066
H77	H	1.381321	-0.573148	0.057140
H78	H	0.942736	-0.069306	0.000113
C79	C	1.354368	-0.444576	-0.083986
C80	C	1.348657	-0.473227	0.000102
H81	H	1.411772	-0.431329	-0.083975
H82	H	1.350491	-0.464003	-0.141021
H83	H	1.304718	-0.418959	-0.083979
H84	H	1.398302	-0.498846	0.000091
H85	H	1.352543	-0.453799	0.057152
C86	C	0.774682	-0.528190	-0.084089
C87	C	0.825343	-0.543833	0.000014
H88	H	0.717280	-0.541440	-0.084111
H89	H	0.763309	-0.493745	-0.084074
H90	H	0.809095	-0.538785	-0.141120
H91	H	0.790933	-0.533235	0.057045
H92	H	0.836713	-0.578285	0.000007
C93	C	0.755878	-0.314532	0.000013
C94	C	0.830322	-0.286742	0.000028
H95	H	0.699139	-0.293570	0.000011
H96	H	0.759006	-0.334426	-0.057031
H97	H	0.758997	-0.334442	0.057060
H98	H	0.827207	-0.266834	-0.057023
H99	H	0.827193	-0.266840	0.057077
H100	H	0.851220	-0.446810	0.000036
H101	H	1.325714	-0.419000	0.000112
H102	H	1.246119	-0.181392	0.000126
C103	C	1.424755	-0.359748	0.000125
C104	C	1.351590	-0.321979	0.000125
H105	H	1.482161	-0.346503	0.000121
H106	H	1.420868	-0.379180	0.057166
H107	H	1.420863	-0.379172	-0.056924
H108	H	1.355479	-0.302557	0.057178
H109	H	1.355479	-0.302539	-0.056923
H110	H	1.235965	-0.705043	0.000094
H111	H	1.234182	-0.796516	0.000080
H112	H	0.930803	-0.684426	0.000040
C113	C	0.831763	-0.743683	0.000026
C114	C	0.904932	-0.781451	0.000041
H115	H	0.774359	-0.756931	0.000008
H116	H	0.835639	-0.724262	0.057070
H117	H	0.835662	-0.724249	-0.057020
H118	H	0.901036	-0.800884	0.057091
H119	H	0.901054	-0.800880	-0.057009
C120	C	0.822574	-0.421202	-0.084087
C121	C	0.828261	-0.392571	0.000011
H122	H	0.765167	-0.434447	-0.084105
H123	H	0.826472	-0.401763	-0.141116
H124	H	0.872220	-0.446821	-0.084065
H125	H	0.778619	-0.366950	-0.000015
H126	H	0.824355	-0.412012	0.057054
