data_functionalizedCrystal
_audit_creation_method	'MofGen! by Chris Wilmer'
_symmetry_space_group_name_H-M	'P1'
_symmetry_Int_Tables_number	1
_symmetry_cell_setting	triclinic
loop_
_symmetry_equiv_pos_as_xyz
  x,y,z
_cell_length_a	14.853567
_cell_length_b	14.044220
_cell_length_c	13.330367
_cell_angle_alpha	89.994700
_cell_angle_beta	89.995418
_cell_angle_gamma	88.411904
loop_
_atom_site_label
_atom_site_type_symbol
_atom_site_fract_x
_atom_site_fract_y
_atom_site_fract_z
O1	O	1.206175	0.123767	-0.083357
O2	O	0.944883	0.138510	-0.083374
O3	O	1.071607	-0.006851	-0.083356
O4	O	1.079451	0.269128	-0.083375
O5	O	1.071587	-0.006854	0.083491
O6	O	0.944863	0.138507	0.083473
O7	O	1.206154	0.123764	0.083490
Cu8	Cu	1.075507	0.131135	0.098716
Cu9	Cu	1.075531	0.131139	-0.098600
O10	O	1.079431	0.269125	0.083472
C11	C	0.911231	0.137841	0.000047
C12	C	0.810989	0.135839	0.000041
C13	C	0.390944	0.041029	0.000070
C14	C	0.383345	0.213721	0.000057
C15	C	0.477528	0.215604	0.000054
C16	C	0.528423	0.130197	0.000057
C17	C	0.485135	0.042908	0.000064
C18	C	0.520822	0.302891	0.000037
C19	C	0.615011	0.304777	0.000032
C20	C	0.665908	0.219369	0.000043
C21	C	0.622615	0.132077	0.000051
C22	C	0.673510	0.046670	0.000054
C23	C	0.630218	-0.040623	0.000069
C24	C	0.536032	-0.042499	0.000074
C25	C	0.760094	0.221246	0.000038
C26	C	0.767702	0.048550	0.000048
C27	C	1.068163	-0.042172	0.000068
C28	C	1.057921	-0.147411	0.000069
C29	C	1.039197	-0.340097	0.000053
C30	C	1.111836	-0.397635	0.000055
C31	C	1.101418	-0.504852	0.000046
C32	C	1.049614	-0.232870	0.000062
C33	C	1.239806	0.124433	0.000067
C34	C	1.340048	0.126435	0.000067
C35	C	1.082874	0.304446	0.000046
C36	C	1.093116	0.409685	0.000039
N37	N	1.075496	0.131132	0.237498
N38	N	1.075548	0.131135	-0.237381
C39	C	1.019413	0.195480	0.710112
C40	C	1.131672	0.066791	0.710097
C41	C	1.131662	0.066788	0.605078
C42	C	1.075527	0.131133	0.552572
C43	C	1.019403	0.195481	0.605084
C44	C	1.187792	0.002448	0.552558
C45	C	1.187785	0.002443	0.447534
C46	C	1.131644	0.066784	0.395025
C47	C	1.075517	0.131134	0.447544
C48	C	1.019382	0.195479	0.395038
C49	C	0.963249	0.259825	0.447555
C50	C	0.963262	0.259822	0.552576
C51	C	1.131631	0.066787	0.290004
C52	C	1.019372	0.195480	0.290010
H53	H	0.479377	0.372424	0.000024
H54	H	0.671670	-0.110161	0.000065
H55	H	1.177338	0.014402	0.247250
H56	H	0.917548	0.312219	0.404792
O57	O	1.186143	0.004157	0.760992
C58	C	1.163914	-0.089713	0.735366
H59	H	1.129169	-0.089662	0.659116
H60	H	1.116672	-0.119103	0.794483
C61	C	1.293056	-0.152682	0.824170
C62	C	1.250389	-0.152620	0.730513
H63	H	1.346397	-0.191488	0.821181
H64	H	1.308031	-0.089441	0.841438
H65	H	1.253679	-0.177171	0.873424
H66	H	1.289762	-0.128120	0.681264
H67	H	1.235423	-0.215859	0.713237
H68	H	0.973656	0.247874	0.247266
H69	H	1.233500	-0.049936	0.595312
H70	H	0.973708	0.247867	0.752874
O71	O	1.195409	-0.360457	0.000207
C72	C	1.242489	-0.391346	0.086639
H73	H	1.212502	-0.460017	0.115433
H74	H	1.236543	-0.334161	0.147152
C75	C	1.379285	-0.325230	0.025045
C76	C	1.342459	-0.409578	0.060406
H77	H	1.440952	-0.336472	0.008866
H78	H	1.347566	-0.304416	-0.033184
H79	H	1.374322	-0.277584	0.075479
H80	H	1.347413	-0.457218	0.009968
H81	H	1.374181	-0.430400	0.118626
O82	O	0.348753	-0.043682	0.000039
C83	C	0.254708	-0.027035	0.000075
H84	H	0.238572	0.046915	-0.031517
H85	H	0.228163	-0.031663	0.080124
C86	C	0.229450	-0.193320	-0.026540
C87	C	0.209632	-0.102496	-0.065351
H88	H	0.201644	-0.239870	-0.066894
H89	H	0.292811	-0.204537	-0.026561
H90	H	0.207329	-0.197163	0.040167
H91	H	0.231763	-0.098651	-0.132051
H92	H	0.146274	-0.091281	-0.065343
O93	O	1.242330	-0.060156	0.396679
C94	C	1.291895	-0.116930	0.465545
H95	H	1.254853	-0.118067	0.540418
H96	H	1.361350	-0.086021	0.476691
C97	C	1.347746	-0.217768	0.332610
C98	C	1.302247	-0.219171	0.424568
H99	H	1.354136	-0.280834	0.307333
H100	H	1.314357	-0.179517	0.286213
H101	H	1.405621	-0.192006	0.341911
H102	H	1.244370	-0.244921	0.415264
H103	H	1.335627	-0.257429	0.470963
H104	H	0.809134	-0.021000	0.000054
O105	O	0.333774	0.296592	0.000098
C106	C	0.241359	0.276216	0.000075
H107	H	0.231763	0.201749	0.031665
H108	H	0.214455	0.279779	-0.079970
C109	C	0.201505	0.441196	0.026707
C110	C	0.189717	0.349738	0.065514
H111	H	0.169648	0.486550	0.067068
H112	H	0.263766	0.454926	0.026718
H113	H	0.179085	0.444152	-0.039996
H114	H	0.212147	0.346780	0.132211
H115	H	0.127459	0.336010	0.065515
H116	H	0.650251	0.375856	0.000020
O117	O	0.802046	0.306089	-0.000112
C118	C	0.776742	0.358145	-0.086543
H119	H	0.709439	0.332228	-0.115348
H120	H	0.830282	0.347228	-0.147051
C121	C	0.850357	0.496594	-0.024933
C122	C	0.767690	0.464769	-0.060306
H123	H	0.844777	0.562366	-0.008751
H124	H	0.867408	0.461523	0.033296
H125	H	0.894965	0.487489	-0.075362
H126	H	0.723086	0.473863	-0.009873
H127	H	0.750631	0.499844	-0.118526
O128	O	0.908611	0.322229	0.603549
C129	C	0.818116	0.306661	0.577896
H130	H	0.811572	0.230762	0.549030
H131	H	0.795844	0.359158	0.516941
C132	C	0.766228	0.414484	0.706664
C133	C	0.758189	0.321262	0.671218
H134	H	0.729261	0.423495	0.764227
H135	H	0.827196	0.424976	0.723945
H136	H	0.747669	0.458222	0.655860
H137	H	0.776759	0.277527	0.722017
H138	H	0.697223	0.310763	0.653948
H139	H	0.500776	-0.113569	0.000110
H140	H	0.969191	-0.371358	0.000046
