data_functionalizedCrystal
_audit_creation_method	'MofGen! by Chris Wilmer'
_symmetry_space_group_name_H-M	'P1'
_symmetry_Int_Tables_number	1
_symmetry_cell_setting	triclinic
loop_
_symmetry_equiv_pos_as_xyz
  x,y,z
_cell_length_a	15.297475
_cell_length_b	19.120904
_cell_length_c	15.300062
_cell_angle_alpha	102.472554
_cell_angle_beta	72.653301
_cell_angle_gamma	83.145247
loop_
_atom_site_label
_atom_site_type_symbol
_atom_site_fract_x
_atom_site_fract_y
_atom_site_fract_z
Zn1	Zn	1.454073	-0.680124	-0.648291
Zn2	Zn	1.485207	-0.587249	-0.799420
Zn3	Zn	1.305190	-0.538140	-0.614740
Zn4	Zn	1.325397	-0.680109	-0.776767
O5	O	1.392467	-0.621406	-0.709804
O6	O	1.587392	-0.688362	-0.691860
O7	O	1.465901	-0.482452	-0.770361
O8	O	1.303454	-0.536429	-0.488134
O9	O	1.610266	-0.620128	-0.802894
O10	O	1.412837	-0.640743	-0.512784
O11	O	1.333643	-0.446372	-0.634678
O12	O	1.178682	-0.536414	-0.612712
O13	O	1.337893	-0.778393	-0.764285
O14	O	1.193528	-0.640718	-0.731752
O15	O	1.432430	-0.778404	-0.669894
O16	O	1.485495	-0.620113	-0.927471
O17	O	1.368083	-0.688337	-0.910828
C18	C	1.152608	-0.583236	-0.666134
C19	C	1.049998	-0.566927	-0.647475
C20	C	1.383943	-0.804595	-0.718305
C21	C	1.380310	-0.882659	-0.721928
C22	C	0.791853	-0.737970	-0.843171
C23	C	0.888261	-0.753292	-0.860709
C24	C	0.928700	-0.706703	-0.807402
C25	C	0.872721	-0.644788	-0.736554
C26	C	0.776305	-0.629461	-0.719019
C27	C	0.913152	-0.598193	-0.683250
C28	C	0.857173	-0.536278	-0.612402
C29	C	0.760766	-0.520955	-0.594870
C30	C	0.720327	-0.567545	-0.648177
C31	C	1.009569	-0.613520	-0.700785
C32	C	0.994020	-0.505011	-0.576633
C33	C	0.897612	-0.489689	-0.559095
C34	C	1.427821	-0.919341	-0.674488
C35	C	1.424396	-0.992688	-0.677886
C36	C	1.373465	-1.029354	-0.728730
C37	C	1.325948	-0.992667	-0.776171
C38	C	1.329368	-0.919319	-0.772767
C39	C	1.360671	-1.250815	-0.741462
C40	C	1.357257	-1.324168	-0.744865
C41	C	1.455704	-1.324184	-0.646577
C42	C	1.459125	-1.250836	-0.643182
C43	C	1.411603	-1.214154	-0.690620
C44	C	1.369965	-1.104328	-0.732207
C45	C	1.415098	-1.139181	-0.687136
C46	C	1.633263	-0.659725	-0.753646
C47	C	1.735875	-0.676054	-0.772329
C48	C	1.432384	-0.659572	-0.953137
C49	C	1.449544	-0.675936	-1.057252
C50	C	1.401000	-0.438927	-0.701279
C51	C	1.404768	-0.360850	-0.697425
C52	C	1.514501	-0.737953	-1.118904
C53	C	1.530632	-0.753335	-1.216727
C54	C	1.481814	-0.706700	-1.252908
C55	C	1.416861	-0.644680	-1.191256
C56	C	1.400722	-0.629299	-1.093423
C57	C	1.368035	-0.598047	-1.227426
C58	C	1.303082	-0.536026	-1.165774
C59	C	1.286947	-0.520648	-1.067951
C60	C	1.335766	-0.567283	-1.031770
C61	C	1.384174	-0.613428	-1.325260
C62	C	1.270395	-0.504774	-1.299778
C63	C	1.254264	-0.489391	-1.201955
C64	C	1.352418	-0.583110	-0.465527
C65	C	1.335352	-0.566790	-0.361431
H66	H	1.055137	-0.663932	-0.758469
H67	H	1.456562	-1.109323	-0.645735
Br68	Br	0.964226	-0.837314	-0.956858
H69	H	1.328502	-1.134191	-0.773610
H70	H	1.469299	-0.889494	-0.633088
Br71	Br	1.313867	-0.546413	-0.899003
Br72	Br	0.684798	-0.436922	-0.498729
Br73	Br	0.736973	-0.801177	-0.915531
Br74	Br	1.256819	-1.042425	-0.845169
Br75	Br	0.821631	-0.405666	-0.462945
Br76	Br	1.296176	-1.201041	-0.805839
H77	H	1.583522	-0.803830	-1.266919
H78	H	1.007201	-0.719182	-0.821685
H79	H	0.641824	-0.555074	-0.633900
Br80	Br	1.472321	-0.697596	-1.408919
Br81	Br	1.264879	-0.869534	-0.837146
H82	H	1.026945	-0.467073	-0.533227
Br83	Br	1.488929	-1.042482	-0.613551
H84	H	1.234051	-0.470151	-1.017751
H85	H	1.494392	-1.354058	-0.607955
Br86	Br	1.580728	-0.801246	-1.069795
H87	H	1.494951	-0.719229	-1.332561
Br88	Br	1.528252	-1.201081	-0.574180
Br89	Br	1.166117	-0.405223	-1.118274
Br90	Br	1.288127	-1.373928	-0.813869
Br91	Br	1.204133	-0.441482	-1.348871
