data_functionalizedCrystal
_audit_creation_method	'MofGen! by Chris Wilmer'
_symmetry_space_group_name_H-M	'P1'
_symmetry_Int_Tables_number	1
_symmetry_cell_setting	triclinic
loop_
_symmetry_equiv_pos_as_xyz
  x,y,z
_cell_length_a	12.759401
_cell_length_b	25.639240
_cell_length_c	12.759393
_cell_angle_alpha	89.960830
_cell_angle_beta	90.018575
_cell_angle_gamma	89.956411
loop_
_atom_site_label
_atom_site_type_symbol
_atom_site_fract_x
_atom_site_fract_y
_atom_site_fract_z
Zn1	Zn	1.606047	0.208114	0.593930
Zn2	Zn	1.605854	0.295561	0.418226
Zn3	Zn	1.430349	0.208142	0.418269
Zn4	Zn	1.430251	0.295521	0.593868
O5	O	1.518125	0.251834	0.506073
O6	O	1.753043	0.219719	0.570630
O7	O	1.582534	0.283993	0.271211
O8	O	1.453778	0.134973	0.441614
O9	O	1.752901	0.283966	0.441542
O10	O	1.582862	0.134952	0.570671
O11	O	1.453591	0.219766	0.271242
O12	O	1.283315	0.219728	0.441554
O13	O	1.453610	0.283898	0.740897
O14	O	1.283243	0.283925	0.570566
O15	O	1.582767	0.219680	0.740942
O16	O	1.582438	0.368721	0.441482
O17	O	1.453423	0.368691	0.570525
C18	C	1.245158	0.251825	0.506058
C19	C	1.128381	0.251834	0.506077
C20	C	1.073594	0.218441	0.573397
C21	C	0.963870	0.218446	0.573404
C22	C	0.963730	0.285242	0.438768
C23	C	1.073453	0.285234	0.438756
C24	C	1.517927	0.387677	0.506015
C25	C	1.517939	0.445791	0.506025
C26	C	1.585392	0.806157	0.438955
C27	C	1.585424	0.860761	0.438965
O28	O	1.642636	0.889000	0.381906
N29	N	1.518210	0.888073	0.506097
C30	C	1.450967	0.860778	0.573230
O31	O	1.393800	0.889024	0.630332
C32	C	1.450941	0.806175	0.573224
C33	C	1.518152	0.778866	0.506081
C34	C	1.652598	0.778847	0.371817
C35	C	1.652564	0.724246	0.371806
C36	C	1.585324	0.696955	0.438932
C37	C	1.518118	0.724265	0.506070
C38	C	1.383704	0.778881	0.640362
C39	C	1.383684	0.724274	0.640352
C40	C	1.450895	0.696965	0.573208
C41	C	1.450844	0.642374	0.573184
N42	N	1.518058	0.615061	0.506053
C43	C	1.585298	0.642352	0.438927
C44	C	1.451028	0.975449	0.573238
C45	C	1.451048	1.030051	0.573239
C46	C	1.585507	1.030030	0.438975
C47	C	1.585481	0.975427	0.438969
C48	C	1.518242	0.948137	0.506106
C49	C	1.585222	0.527687	0.438908
C50	C	1.585179	0.473082	0.438899
C51	C	1.450725	0.473108	0.573167
C52	C	1.450763	0.527709	0.573172
C53	C	1.518020	0.554997	0.506039
O54	O	1.393665	0.614100	0.630217
O55	O	1.642465	0.614100	0.381844
C56	C	1.792159	0.251844	0.506089
C57	C	1.908935	0.251848	0.506095
C58	C	1.518199	0.251781	0.780107
C59	C	1.518230	0.251759	0.896883
C60	C	1.518313	1.115461	0.506136
C61	C	1.518293	1.057347	0.506116
C62	C	1.518113	0.251849	0.233106
C63	C	1.518285	0.251724	0.116330
C64	C	1.451114	0.218310	0.951761
C65	C	1.451138	0.218294	1.061485
C66	C	1.585404	0.285177	1.061444
C67	C	1.585374	0.285195	0.951722
H68	H	1.639991	0.549899	0.384244
H69	H	1.118313	0.191243	0.628210
N70	N	1.315013	0.696399	0.708946
N71	N	1.321943	0.702458	0.805898
H72	H	1.273444	0.682772	0.854343
H73	H	0.919266	0.191254	0.628221
N74	N	1.721227	0.696363	0.303215
N75	N	1.781255	0.720745	0.243293
H76	H	1.829755	0.701056	0.194848
N77	N	1.654022	0.319318	1.117447
N78	N	1.713954	0.349176	1.068432
H79	H	1.762425	0.373286	1.107981
N80	N	1.721269	0.806718	0.303223
N81	N	1.684353	0.837223	0.236235
H82	H	1.732850	0.856904	0.187779
H83	H	0.918994	0.312435	0.383959
H84	H	1.639910	0.450848	0.384219
N85	N	1.382583	0.184117	1.117522
N86	N	1.389638	0.135875	1.105296
H87	H	1.341218	0.111736	1.144870
H88	H	1.118062	0.312427	0.383931
H89	H	1.640210	0.953194	0.384296
H90	H	1.640031	0.312435	0.907040
H91	H	1.640261	1.052260	0.384321
H92	H	1.396038	0.549945	0.627849
N93	N	1.382370	1.057936	0.641814
N94	N	1.322339	1.033556	0.701735
H95	H	1.273834	1.053247	0.750173
N96	N	1.382331	0.947583	0.641825
N97	N	1.322329	0.971981	0.701755
H98	H	1.273812	0.952304	0.750196
H99	H	1.328969	0.801108	0.695033
H100	H	1.396441	0.191084	0.907114
N101	N	1.382041	0.445217	0.641716
N102	N	1.382030	0.396465	0.641688
H103	H	1.333525	0.376765	0.690104
