data_functionalizedCrystal
_audit_creation_method	'MofGen! by Chris Wilmer'
_symmetry_space_group_name_H-M	'P1'
_symmetry_Int_Tables_number	1
_symmetry_cell_setting	triclinic
loop_
_symmetry_equiv_pos_as_xyz
  x,y,z
_cell_length_a	16.109301
_cell_length_b	14.519731
_cell_length_c	15.186229
_cell_angle_alpha	90.004730
_cell_angle_beta	90.000994
_cell_angle_gamma	83.575218
loop_
_atom_site_label
_atom_site_type_symbol
_atom_site_fract_x
_atom_site_fract_y
_atom_site_fract_z
O1	O	1.103344	0.118540	0.073182
O2	O	0.861308	0.133291	0.073195
O3	O	0.988734	-0.008335	0.073180
O4	O	0.975918	0.260166	0.073197
O5	O	0.988726	-0.008337	-0.073277
O6	O	0.861300	0.133289	-0.073262
O7	O	1.103335	0.118538	-0.073275
Zn8	Zn	0.982316	0.125913	-0.096522
Zn9	Zn	0.982328	0.125916	0.096442
O10	O	0.975910	0.260164	-0.073260
C11	C	0.830328	0.132693	-0.000032
C12	C	0.738030	0.130901	-0.000028
C13	C	0.429172	0.209083	-0.000038
C14	C	0.515895	0.210775	-0.000033
C15	C	0.535466	0.042740	-0.000032
C16	C	0.448744	0.041049	-0.000031
C17	C	0.395599	0.124223	-0.000038
C18	C	0.569044	0.127606	-0.000034
C19	C	0.663074	0.129440	-0.000029
C20	C	0.301564	0.122389	-0.000042
C21	C	0.988129	-0.042694	-0.000049
C22	C	0.986330	-0.145071	-0.000049
C23	C	0.984868	-0.228212	-0.000047
C24	C	0.983041	-0.332517	-0.000040
C25	C	0.981591	-0.415653	-0.000034
C26	C	0.979764	-0.519964	-0.000029
C27	C	1.134316	0.119136	-0.000046
C28	C	1.226614	0.120928	-0.000045
C29	C	0.976514	0.294524	-0.000030
C30	C	0.978314	0.396900	-0.000024
N31	N	0.982315	0.125911	-0.228215
C32	C	1.038758	0.063220	-0.453944
C33	C	1.038761	0.063218	-0.546134
C34	C	0.925886	0.188605	-0.546130
C35	C	0.925880	0.188602	-0.453942
C36	C	0.982321	0.125911	-0.407851
C37	C	0.982329	0.125911	-0.592229
C38	C	0.982332	0.125909	-0.692185
C39	C	0.982318	0.125911	-0.307889
N40	N	0.982336	0.125911	0.228134
H41	H	0.385903	0.276809	-0.000044
C42	C	0.487834	0.376698	-0.000048
C43	C	0.552798	0.304056	-0.000039
H44	H	0.510618	0.434287	-0.000056
H45	H	0.454418	0.372551	0.051022
H46	H	0.454417	0.372528	-0.051125
H47	H	0.586212	0.308222	0.051042
H48	H	0.586229	0.308205	-0.051114
H49	H	0.879935	0.239649	-0.583666
C50	C	1.088884	0.007539	-0.687450
C51	C	1.100798	-0.005693	-0.596800
H52	H	1.127182	-0.035011	-0.718727
H53	H	1.098010	0.069084	-0.702549
H54	H	1.033382	-0.002497	-0.702553
H55	H	1.156299	0.004350	-0.581696
H56	H	1.091679	-0.067252	-0.581695
C57	C	0.677096	-0.029280	-0.000044
C58	C	0.593886	-0.048682	-0.000036
H59	H	0.713159	-0.085723	-0.000054
H60	H	0.687287	0.005512	0.051027
H61	H	0.687275	0.005517	-0.051120
H62	H	0.583705	-0.083474	0.051043
H63	H	0.583691	-0.083490	-0.051112
C64	C	0.476794	-0.124885	-0.000039
C65	C	0.411835	-0.052237	-0.000034
H66	H	0.454005	-0.182471	-0.000044
H67	H	0.510212	-0.120729	0.051030
H68	H	0.510212	-0.120730	-0.051116
H69	H	0.378421	-0.056388	0.051047
H70	H	0.378404	-0.056395	-0.051108
H71	H	1.084714	0.012171	-0.416419
H72	H	0.879918	0.239653	-0.416411
