data_functionalizedCrystal
_audit_creation_method	'MofGen! by Chris Wilmer'
_symmetry_space_group_name_H-M	'P1'
_symmetry_Int_Tables_number	1
_symmetry_cell_setting	triclinic
loop_
_symmetry_equiv_pos_as_xyz
  x,y,z
_cell_length_a	15.500227
_cell_length_b	10.654550
_cell_length_c	10.654550
_cell_angle_alpha	95.515069
_cell_angle_beta	87.144206
_cell_angle_gamma	87.131310
loop_
_atom_site_label
_atom_site_type_symbol
_atom_site_fract_x
_atom_site_fract_y
_atom_site_fract_z
O1	O	0.071879	-1.673627	0.170625
O2	O	0.571879	-1.173627	0.670625
O3	O	0.071895	-1.308150	0.187429
O4	O	0.571895	-0.808150	0.687429
O5	O	0.071881	-1.499291	-0.003712
O6	O	0.571881	-0.999291	0.496288
O7	O	0.071893	-1.482486	0.361766
O8	O	0.571893	-0.982486	0.861766
O9	O	-0.072007	-1.487692	0.007841
O10	O	0.427993	-0.987692	0.507841
O11	O	-0.071993	-1.296551	0.198982
O12	O	0.428007	-0.796551	0.698982
O13	O	-0.072009	-1.662028	0.182178
O14	O	0.427991	-1.162028	0.682178
Cu15	Cu	-0.085139	-1.478230	0.191635
Cu16	Cu	0.414861	-0.978230	0.691635
Cu17	Cu	0.085025	-1.491948	0.177972
Cu18	Cu	0.585025	-0.991948	0.677972
O19	O	-0.071995	-1.470887	0.373319
O20	O	0.428005	-0.970887	0.873319
C21	C	-0.000047	-1.255553	0.191972
C22	C	0.499953	-0.755553	0.691972
C23	C	-0.000041	-1.116110	0.188279
C24	C	0.499959	-0.616110	0.688279
N25	N	-0.204823	-1.468591	0.201244
N26	N	0.295177	-0.968591	0.701244
C27	C	-0.000062	-1.492258	-0.044733
C28	C	0.499938	-0.992258	0.455267
C29	C	-0.000061	-1.488566	-0.184177
C30	C	0.499939	-0.988566	0.315823
C31	C	-0.250106	-1.549613	0.120281
C32	C	0.249894	-1.049613	0.620281
C33	C	-0.340678	-1.542335	0.127560
C34	C	0.159322	-1.042335	0.627560
C35	C	-0.385966	-1.454040	0.215809
C36	C	0.114034	-0.954040	0.715809
C37	C	-0.340677	-1.373010	0.296775
C38	C	0.159323	-0.873010	0.796775
C39	C	-0.250107	-1.380283	0.289489
C40	C	0.249893	-0.880283	0.789489
C41	C	-0.659431	-1.427839	0.242034
C42	C	-0.159431	-0.927839	0.742034
C43	C	-0.750008	-1.420575	0.249316
C44	C	-0.250008	-0.920575	0.749316
C45	C	-0.750003	-1.589899	0.080099
C46	C	-0.250003	-1.089899	0.580099
C47	C	-0.659430	-1.597170	0.072826
C48	C	-0.159430	-1.097170	0.572826
C49	C	-0.614149	-1.516135	0.153788
C50	C	-0.114149	-1.016135	0.653788
C51	C	-0.478546	-1.446601	0.223253
C52	C	0.021454	-0.946601	0.723253
C53	C	-0.521571	-1.523569	0.146336
C54	C	-0.021571	-1.023569	0.646336
N55	N	0.204709	-1.501597	0.168353
N56	N	0.704709	-1.001597	0.668353
C57	C	-0.000065	-1.714626	0.177635
C58	C	0.499935	-1.214626	0.677635
C59	C	-0.000065	-1.854069	0.181327
C60	C	0.499935	-1.354069	0.681327
C61	C	-0.000040	-1.036624	0.300821
C62	C	0.499960	-0.536624	0.800821
C63	C	-0.000055	-0.905602	0.297346
C64	C	0.499945	-0.405602	0.797346
C65	C	-0.000069	-0.933564	0.068777
C66	C	0.499931	-0.433564	0.568777
C67	C	-0.000060	-1.064583	0.072254
C68	C	0.499940	-0.564583	0.572254
C69	C	-0.000065	-1.601107	-0.263662
C70	C	0.499935	-1.101107	0.236338
C71	C	-0.000055	-1.597631	-0.394683
C72	C	0.499945	-1.097631	0.105317
C73	C	-0.000038	-1.369063	-0.366722
C74	C	0.499962	-0.869063	0.133278
C75	C	-0.000043	-1.372541	-0.235703
C76	C	0.499957	-0.872541	0.264297
C77	C	-0.000050	-1.477921	0.414340
C78	C	0.499950	-0.977921	0.914340
C79	C	-0.000046	-1.481613	0.553783
C80	C	0.499954	-0.981613	1.053783
H81	H	-0.213238	-1.621517	0.048425
H82	H	0.286762	-1.121517	0.548425
H83	H	-0.000089	-0.891595	-0.025686
H84	H	0.499911	-0.391595	0.474314
H85	H	-0.786878	-1.348671	0.321184
H86	H	-0.286878	-0.848671	0.821184
H87	H	-0.377547	-1.608308	0.061633
H88	H	0.122453	-1.108308	0.561633
H89	H	-0.622558	-1.669066	0.000967
H90	H	-0.122558	-1.169066	0.500967
H91	H	-0.622571	-1.361860	0.307959
H92	H	-0.122571	-0.861860	0.807959
H93	H	-0.000063	-1.129304	-0.019396
H94	H	0.499937	-0.629304	0.480604
H95	H	-0.000031	-1.078572	0.395296
H96	H	0.499969	-0.578572	0.895296
H97	H	-0.000078	-1.695582	-0.221714
H98	H	0.499922	-1.195582	0.278286
H99	H	-0.000056	-0.840889	0.388989
H100	H	0.499944	-0.340889	0.888989
H101	H	-0.377556	-1.301112	0.368625
H102	H	0.122444	-0.801112	0.868625
H103	H	-0.213239	-1.314304	0.355416
H104	H	0.286761	-0.814304	0.855416
H105	H	-0.000056	-1.689274	-0.459396
H106	H	0.499944	-1.189274	0.040604
H107	H	-0.484695	-1.595454	0.074479
H108	H	0.015305	-1.095454	0.574479
H109	H	-0.000026	-1.274599	-0.408691
H110	H	0.499974	-0.774599	0.091309
H111	H	-0.786878	-1.655873	0.014182
H112	H	-0.286878	-1.155873	0.514182
H113	H	-0.515427	-1.374712	0.295110
H114	H	-0.015427	-0.874712	0.795110
H115	H	-0.000037	-1.280890	-0.170982
H116	H	0.499963	-0.780890	0.329018
