data_functionalizedCrystal
_audit_creation_method	'MofGen! by Chris Wilmer'
_symmetry_space_group_name_H-M	'P1'
_symmetry_Int_Tables_number	1
_symmetry_cell_setting	triclinic
loop_
_symmetry_equiv_pos_as_xyz
  x,y,z
_cell_length_a	23.532361
_cell_length_b	23.532407
_cell_length_c	15.072220
_cell_angle_alpha	90.014049
_cell_angle_beta	89.999371
_cell_angle_gamma	97.160831
loop_
_atom_site_label
_atom_site_type_symbol
_atom_site_fract_x
_atom_site_fract_y
_atom_site_fract_z
O1	O	0.755277	-0.069011	-0.073705
O2	O	0.589410	-0.079042	-0.073728
O3	O	0.677345	0.008906	-0.073696
O4	O	0.667341	-0.156959	-0.073736
O5	O	0.677337	0.008914	0.073869
O6	O	0.589402	-0.079034	0.073837
O7	O	0.755269	-0.069003	0.073860
Zn8	Zn	0.672334	-0.074017	0.097278
Zn9	Zn	0.672344	-0.074028	-0.097146
O10	O	0.667334	-0.156951	0.073829
C11	C	0.568189	-0.078787	0.000052
C12	C	0.504971	-0.078032	0.000044
C13	C	0.231731	-0.074733	-0.080387
C14	C	0.291131	-0.075448	-0.080390
O15	O	0.321860	-0.075801	-0.148798
N16	N	0.320832	-0.075804	0.000048
C17	C	0.291132	-0.075440	0.080494
O18	O	0.321850	-0.075809	0.148912
C19	C	0.231734	-0.074721	0.080495
C20	C	0.202035	-0.074370	0.000052
C21	C	0.202032	-0.074381	-0.160824
C22	C	0.142636	-0.073667	-0.160821
C23	C	0.112940	-0.073305	-0.080382
C24	C	0.142639	-0.073657	0.000055
C25	C	0.202035	-0.074353	0.160940
C26	C	0.142633	-0.073634	0.160934
C27	C	0.112934	-0.073283	0.080491
C28	C	0.053546	-0.072580	0.080497
N29	N	0.023845	-0.072224	0.000059
C30	C	0.053541	-0.072586	-0.080381
C31	C	0.415872	-0.076949	0.080485
C32	C	0.475269	-0.077672	0.080484
C33	C	0.475264	-0.077679	-0.080400
C34	C	0.415865	-0.076960	-0.080398
C35	C	0.386171	-0.076593	0.000047
C36	C	-0.071194	-0.071087	-0.080369
C37	C	-0.130595	-0.070376	-0.080359
C38	C	-0.130585	-0.070367	0.080524
C39	C	-0.071189	-0.071081	0.080515
C40	C	-0.041495	-0.071440	0.000061
O41	O	0.022780	-0.072224	0.148870
O42	O	0.022817	-0.072210	-0.148788
C43	C	0.677086	0.030126	0.000089
C44	C	0.676320	0.093343	0.000098
C45	C	0.723555	0.492454	0.000071
C46	C	0.722844	0.551854	0.000066
O47	O	0.766630	0.588606	0.000040
N48	N	0.670566	0.574471	0.000060
C49	C	0.618997	0.537685	0.000050
O50	O	0.574465	0.562377	0.000044
C51	C	0.619709	0.478286	0.000049
C52	C	0.671990	0.455672	0.000063
C53	C	0.775832	0.469839	0.000084
C54	C	0.776543	0.410443	0.000090
C55	C	0.724977	0.373662	0.000083
C56	C	0.672701	0.396276	0.000069
C57	C	0.568140	0.441501	0.000032
C58	C	0.568857	0.382099	0.000030
C59	C	0.621137	0.359485	0.000044
C60	C	0.621847	0.300099	0.000068
N61	N	0.674124	0.277481	0.000074
C62	C	0.725690	0.314263	0.000081
C63	C	0.617505	0.662427	0.000052
C64	C	0.616793	0.721825	0.000060
C65	C	0.720640	0.735990	0.000074
C66	C	0.721352	0.676591	0.000073
C67	C	0.669783	0.639810	0.000058
C68	C	0.727179	0.189526	0.000095
C69	C	0.727886	0.130124	0.000105
C70	C	0.624039	0.115965	0.000087
C71	C	0.623332	0.175361	0.000081
C72	C	0.674907	0.212141	0.000083
O73	O	0.578083	0.263312	0.000090
O74	O	0.770214	0.289562	0.000076
C75	C	0.776489	-0.069258	0.000078
C76	C	0.839708	-0.070014	0.000080
C77	C	0.667592	0.821829	0.000050
C78	C	0.668358	0.758612	0.000063
N79	N	0.672332	-0.074010	0.229967
N80	N	0.672351	-0.074031	-0.229834
C81	C	0.672338	-0.074017	0.410964
C82	C	0.719402	-0.026974	0.448622
C83	C	0.719571	-0.027097	0.551448
C84	C	0.672345	-0.074024	0.589168
C85	C	0.684742	-0.133447	0.551810
C86	C	0.685075	-0.133167	0.448953
C87	C	0.612735	-0.062174	0.448879
C88	C	0.613147	-0.060825	0.551743
C89	C	0.672347	-0.074031	0.689882
C90	C	0.672337	-0.074014	0.310251
H91	H	0.226205	-0.074674	-0.226331
F92	F	0.710030	0.030964	0.416320
H93	H	0.712275	0.017078	0.576708
H94	H	0.582056	0.086007	0.000084
F95	F	-0.162201	-0.070004	-0.165982
H96	H	0.763394	-0.034414	0.422760
H97	H	-0.047008	-0.071378	0.146018
F98	F	0.832188	0.386384	0.000087
F99	F	-0.162201	-0.069983	0.166129
F100	F	0.777399	-0.036979	0.583612
H101	H	0.770461	0.111716	0.000120
F102	F	0.741868	-0.146832	0.417588
H103	H	0.651977	-0.169136	0.424038
F104	F	0.776996	0.652529	0.000088
H105	H	0.651351	-0.169294	0.576240
H106	H	0.580761	0.193774	0.000094
H107	H	0.727693	-0.144162	0.577568
F108	F	0.782071	0.228662	0.000097
F109	F	0.111036	-0.073290	-0.246441
H110	H	0.817825	0.499782	0.000087
F111	F	0.506869	-0.078057	0.166103
H112	H	0.600678	-0.019774	0.422954
H113	H	0.762627	0.765949	0.000077
H114	H	0.603726	-0.017111	0.576162
H115	H	0.391688	-0.076674	-0.145902
H116	H	0.574220	0.740232	0.000064
H117	H	0.576528	-0.092880	0.577417
H118	H	0.525567	0.459902	0.000015
F119	F	-0.039600	-0.071469	-0.165997
F120	F	0.384273	-0.076565	0.166111
F121	F	0.506879	-0.078065	-0.166011
F122	F	0.233630	-0.074727	0.246560
F123	F	0.566966	-0.107016	0.417044
F124	F	0.513968	0.342956	0.000012
F125	F	0.562615	0.623286	0.000045
F126	F	0.111033	-0.073240	0.246558
