data_functionalizedCrystal
_audit_creation_method	'MofGen! by Chris Wilmer'
_symmetry_space_group_name_H-M	'P1'
_symmetry_Int_Tables_number	1
_symmetry_cell_setting	triclinic
loop_
_symmetry_equiv_pos_as_xyz
  x,y,z
_cell_length_a	13.930277
_cell_length_b	14.971486
_cell_length_c	14.971486
_cell_angle_alpha	96.385871
_cell_angle_beta	90.004761
_cell_angle_gamma	89.997740
loop_
_atom_site_label
_atom_site_type_symbol
_atom_site_fract_x
_atom_site_fract_y
_atom_site_fract_z
O1	O	0.079721	-1.186948	0.116562
O2	O	0.079747	-0.926548	0.130521
O3	O	0.079726	-1.063728	-0.006659
O4	O	0.079742	-1.049769	0.253741
O5	O	-0.079935	-1.063709	-0.006662
O6	O	-0.079915	-0.926529	0.130518
O7	O	-0.079941	-1.186929	0.116559
Zn8	Zn	-0.105278	-1.056726	0.123538
Zn9	Zn	0.105084	-1.056751	0.123542
O10	O	-0.079920	-1.049750	0.253739
C11	C	-0.000080	-0.893214	0.129895
C12	C	-0.000071	-0.793917	0.128024
N13	N	-0.248844	-1.056716	0.123535
C14	C	-0.000104	-1.063094	-0.039985
C15	C	-0.000103	-1.061223	-0.139282
C16	C	-0.701104	-0.996006	0.184261
C17	C	-0.701091	-1.117521	0.062816
C18	C	-0.600596	-1.117511	0.062813
C19	C	-0.550349	-1.056748	0.123536
C20	C	-0.600599	-0.995995	0.184262
C21	C	-0.550339	-1.178268	0.002094
C22	C	-0.449837	-1.178261	0.002090
C23	C	-0.399589	-1.117492	0.062809
C24	C	-0.449844	-1.056737	0.123537
C25	C	-0.399598	-0.995974	0.184260
C26	C	-0.449852	-0.935213	0.244984
C27	C	-0.550351	-0.935227	0.244981
C28	C	-0.299090	-1.117479	0.062812
C29	C	-0.299093	-0.995963	0.184261
N30	N	0.248650	-1.056769	0.123538
C31	C	-0.000111	-1.220263	0.117185
C32	C	-0.000115	-1.319561	0.119056
C33	C	-0.000067	-0.736691	0.208614
C34	C	-0.000082	-0.643392	0.206850
C35	C	-0.000093	-0.607320	0.124497
C36	C	-0.000099	-0.664552	0.043902
C37	C	-0.000091	-0.757850	0.045666
C38	C	-0.000112	-0.470090	0.040231
C39	C	-0.000118	-0.376786	0.038466
C40	C	-0.000103	-0.355632	0.201415
C41	C	-0.000095	-0.448930	0.203179
C42	C	-0.000100	-0.506156	0.122584
C43	C	-0.000112	-1.141812	-0.196507
C44	C	-0.000102	-1.140049	-0.289807
C45	C	-0.000090	-1.057696	-0.325879
C46	C	-0.000079	-0.977101	-0.268646
C47	C	-0.000082	-0.978865	-0.175349
C48	C	-0.000075	-0.973430	-0.463109
C49	C	-0.000074	-0.971665	-0.556413
C50	C	-0.000095	-1.134614	-0.577567
C51	C	-0.000098	-1.136378	-0.484269
C52	C	-0.000088	-1.055782	-0.427043
C53	C	-0.000088	-1.050384	0.287065
C54	C	-0.000082	-1.052254	0.386362
H55	H	-0.258188	-0.946479	0.233706
H56	H	-0.000100	-1.200238	-0.624165
Br57	Br	-0.000062	-0.859899	-0.605368
Br58	Br	-0.000046	-0.865334	-0.317600
Br59	Br	-0.618553	-0.852774	0.327388
H60	H	-0.258178	-1.166953	0.013375
Br61	Br	-0.000104	-0.835515	-0.063710
Br62	Br	-0.618526	-1.260738	-0.080305
H63	H	-0.000074	-0.913240	-0.128756
Br64	Br	-0.000142	-1.253584	-0.147562
Br65	Br	-0.000095	-0.277969	0.310796
Br66	Br	-0.381641	-1.260717	-0.080320
H67	H	-0.000064	-0.907800	-0.416517
H68	H	-0.000058	-0.766054	0.275675
H69	H	-0.000115	-1.203437	-0.454903
Br70	Br	-0.000114	-1.249425	-0.367467
H71	H	-0.742023	-0.946533	0.233700
Br72	Br	-0.000066	-0.497885	0.314946
Br73	Br	-0.381650	-0.852760	0.327400
Br74	Br	-0.000123	-0.615598	-0.067865
Br75	Br	-0.000165	-0.327830	-0.073300
Br76	Br	-0.000074	-0.565731	0.316227
H77	H	-0.000117	-0.516682	-0.025399
H78	H	-0.742005	-1.166997	0.013381
