data_functionalizedCrystal
_audit_creation_method	'MofGen! by Chris Wilmer'
_symmetry_space_group_name_H-M	'P1'
_symmetry_Int_Tables_number	1
_symmetry_cell_setting	triclinic
loop_
_symmetry_equiv_pos_as_xyz
  x,y,z
_cell_length_a	18.760492
_cell_length_b	19.851628
_cell_length_c	18.760492
_cell_angle_alpha	59.994757
_cell_angle_beta	89.998415
_cell_angle_gamma	60.002887
loop_
_atom_site_label
_atom_site_type_symbol
_atom_site_fract_x
_atom_site_fract_y
_atom_site_fract_z
Zr1	Zr	0.686750	0.737311	-0.093572
O2	O	0.572942	0.877850	-0.207399
O3	O	0.721630	0.596777	-0.058674
O4	O	0.721642	0.737313	-0.207390
O5	O	0.572930	0.737310	0.058622
O6	O	0.838947	0.737309	-0.207389
O7	O	0.572931	0.737314	-0.058682
O8	O	0.838926	0.485915	0.058638
O9	O	0.572951	0.988704	-0.207404
O10	O	0.824059	0.654576	-0.043794
O11	O	0.736515	0.654576	0.043748
O12	O	0.736528	0.820039	-0.131347
O13	O	0.648984	0.820040	-0.043805
Zr14	Zr	0.873836	0.737299	0.093517
Zr15	Zr	0.873837	0.737305	-0.093570
Zr16	Zr	0.686748	0.737306	0.093515
Zr17	Zr	0.686763	0.914110	-0.093581
Zr18	Zr	0.873823	0.560500	0.093526
O19	O	0.838955	0.877833	0.058618
O20	O	0.838957	0.877841	-0.207396
O21	O	0.572941	0.877842	0.058615
O22	O	0.987643	0.596760	0.207344
O23	O	0.987645	0.596768	-0.058670
O24	O	0.721629	0.596769	0.207340
O25	O	0.987656	0.737300	-0.058677
O26	O	0.838944	0.737297	0.207335
O27	O	0.721639	0.737301	0.207333
O28	O	0.987655	0.737296	0.058627
O29	O	0.721660	0.988699	-0.207403
O30	O	0.838925	0.485911	0.207347
O31	O	0.987635	0.485906	0.207349
O32	O	0.987636	0.485910	0.058640
O33	O	0.572950	0.988700	-0.058695
O34	O	0.721659	0.988695	-0.058693
O35	O	0.824058	0.654571	0.131292
O36	O	0.911601	0.654570	0.043750
O37	O	0.824071	0.820034	-0.043803
O38	O	0.736527	0.820034	0.043739
C39	C	0.546275	0.737313	-0.000030
C40	C	0.466851	0.737316	-0.000031
C41	C	0.780277	0.516156	-0.000016
C42	C	0.780271	0.441100	-0.000013
C43	C	0.429536	0.737317	0.064594
C44	C	0.429541	0.737309	-0.064654
C45	C	0.354921	0.737307	-0.064655
C46	C	0.317606	0.737308	-0.000029
C47	C	0.354911	0.737311	0.064597
C48	C	0.317615	0.737293	-0.129275
C49	C	0.242991	0.737290	-0.129277
C50	C	0.205671	0.737298	-0.064654
C51	C	0.242980	0.737302	-0.000026
C52	C	0.205665	0.737303	0.064600
C53	C	0.242969	0.737315	0.129225
C54	C	0.317591	0.737319	0.129220
C55	C	0.131050	0.737293	-0.064649
C56	C	0.131040	0.737298	0.064602
C57	C	0.732553	0.259741	0.047711
C58	C	0.697961	0.270083	-0.034608
C59	C	0.780285	0.303680	-0.000025
C60	C	0.814850	0.159623	0.082274
C61	C	0.780298	0.170935	-0.000030
C62	C	0.745645	0.315056	-0.082393
C63	C	0.862580	0.204550	0.034549
C64	C	0.828009	0.214925	-0.047819
C65	C	0.780275	0.380151	-0.000021
C66	C	0.780307	0.094471	-0.000042
C67	C	1.014311	0.737297	-0.000025
C68	C	1.093735	0.737294	-0.000024
C69	C	0.780294	0.737312	-0.234045
C70	C	0.780295	0.737314	-0.313469
C71	C	0.780309	0.958454	-0.000039
C72	C	0.780315	1.033510	-0.000042
C73	C	0.844919	0.737295	-0.649278
C74	C	0.715665	0.737299	-0.649268
C75	C	0.715663	0.737305	-0.574649
C76	C	0.780292	0.737304	-0.537341
C77	C	0.844921	0.737298	-0.574651
C78	C	0.651040	0.737301	-0.537329
C79	C	0.651037	0.737305	-0.462705
C80	C	0.715662	0.737311	-0.425399
C81	C	0.780294	0.737306	-0.462714
C82	C	0.844922	0.737305	-0.425406
C83	C	0.909551	0.737307	-0.462723
C84	C	0.909547	0.737304	-0.537345
C85	C	0.715667	0.737315	-0.350777
C86	C	0.844925	0.737308	-0.350779
C87	C	0.780291	0.737298	0.233990
C88	C	0.780291	0.737296	0.313413
C89	C	1.014295	0.516148	-0.000014
C90	C	1.093713	0.441089	-0.000009
C91	C	0.780275	0.516149	0.234001
C92	C	0.780269	0.441091	0.313428
C93	C	1.014293	0.516141	0.234004
C94	C	1.093711	0.441080	0.313432
C95	C	0.546293	0.958469	-0.234059
C96	C	0.466875	1.033530	-0.313487
C97	C	0.546291	0.958462	-0.000042
C98	C	0.466873	1.033521	-0.000046
C99	C	0.780311	0.958461	-0.234056
C100	C	0.780317	1.033519	-0.313483
C101	C	1.085312	0.405844	-0.045712
C102	C	1.159927	0.335328	-0.045725
C103	C	1.242941	0.300054	-0.000029
C104	C	1.251340	0.335307	0.045675
C105	C	1.176727	0.405826	0.045682
C106	C	0.825962	0.405840	0.396433
C107	C	0.825953	0.335325	0.471071
C108	C	0.780255	0.300057	0.462701
C109	C	0.734556	0.335315	0.379688
C110	C	0.734561	0.405834	0.305052
C111	C	1.176711	0.405831	0.305036
C112	C	1.251339	0.335313	0.379660
C113	C	1.242966	0.300041	0.462679
C114	C	1.159957	0.335298	0.471073
C115	C	1.085330	0.405819	0.396450
C116	C	0.383875	1.068788	-0.305092
C117	C	0.309247	1.139328	-0.379716
C118	C	0.317620	1.174603	-0.462735
C119	C	0.400629	1.139342	-0.471129
C120	C	0.475256	1.068808	-0.396505
C121	C	0.475274	1.068774	0.045649
C122	C	0.400659	1.139309	0.045641
C123	C	0.317645	1.174585	-0.000057
C124	C	0.309246	1.139329	-0.045757
C125	C	0.383859	1.068800	-0.045754
C126	C	0.826024	1.068765	-0.305086
C127	C	0.826047	1.139280	-0.379709
C128	C	0.780357	1.174554	-0.462729
C129	C	0.734649	1.139302	-0.471125
C130	C	0.734631	1.068782	-0.396502
H131	H	0.100660	0.737304	0.117226
O132	O	0.652982	0.737270	-0.314394
C133	C	0.595669	0.737333	-0.199460
C134	C	0.666728	0.737360	-0.240561
H135	H	0.606748	0.737426	-0.139770
H136	H	0.598882	0.671003	-0.178975
H137	H	0.528727	0.803624	-0.249254
H138	H	0.733703	0.671114	-0.190813
H139	H	0.663438	0.803734	-0.261066
H140	H	1.318922	0.306614	0.372810
O141	O	1.151789	0.301177	0.551703
C142	C	1.096504	0.337610	0.652667
C143	C	1.105703	0.376381	0.561333
H144	H	1.059229	0.398396	0.660475
H145	H	1.164085	0.281187	0.704586
H146	H	1.059335	0.304545	0.660535
H147	H	1.142837	0.409494	0.553380
H148	H	1.038097	0.432759	0.509460
O149	O	0.780473	1.242942	-0.535240
C150	C	0.816787	1.286139	-0.667427
C151	C	0.816727	1.208598	-0.585340
H152	H	0.846079	1.258408	-0.707965
H153	H	0.857340	1.305264	-0.647207
H154	H	0.746921	1.352187	-0.707911
H155	H	0.886561	1.142500	-0.544819
H156	H	0.776125	1.189554	-0.605620
H157	H	0.863266	1.167976	-0.372856
H158	H	1.318941	0.306576	0.082878
H159	H	0.697354	0.434526	0.237469
H160	H	1.017724	0.434563	-0.082933
O161	O	0.375537	1.034626	-0.090150
C162	C	0.276972	1.042136	-0.180833
C163	C	0.286281	1.080902	-0.130572
H164	H	0.204814	1.079548	-0.213542
H165	H	0.309554	0.962240	-0.133519
H166	H	0.309668	1.055967	-0.232700
H167	H	0.253580	1.067139	-0.078704
H168	H	0.253723	1.160786	-0.177940
H169	H	0.100684	0.737278	-0.117263
O170	O	1.185049	0.439917	0.090166
C171	C	1.283614	0.432461	0.180791
C172	C	1.274305	0.393758	0.130464
H173	H	1.355772	0.395173	0.213370
H174	H	1.251024	0.418548	0.232746
H175	H	1.250925	0.512375	0.133456
H176	H	1.306998	0.313839	0.177731
H177	H	1.306870	0.407745	0.078497
H178	H	0.863230	1.040056	-0.237494
H179	H	0.932155	0.177595	0.063819
O180	O	0.690343	1.034417	-0.404607
C181	C	0.698610	0.896788	-0.373348
C182	C	0.748889	0.935573	-0.364125
H183	H	0.745920	0.816864	-0.340609
H184	H	0.665968	0.934044	-0.445488
H185	H	0.646697	0.910741	-0.340722
H186	H	0.800843	0.921629	-0.396703
H187	H	0.781470	0.898315	-0.291971
O188	O	0.465783	0.737458	0.127252
C189	C	0.506542	0.819602	0.158805
C190	C	0.465490	0.819547	0.087759
H191	H	0.506302	0.885974	0.126903
H192	H	0.576587	0.753343	0.197110
H193	H	0.467068	0.819555	0.205010
H194	H	0.504895	0.819627	0.041496
H195	H	0.395438	0.885799	0.049519
O196	O	0.588306	0.737344	-0.573701
C197	C	0.531050	0.737294	-0.688636
C198	C	0.602140	0.737265	-0.647540
H199	H	0.542221	0.737210	-0.748332
H200	H	0.464084	0.803620	-0.709111
H201	H	0.534252	0.670999	-0.638843
H202	H	0.599019	0.803516	-0.697288
H203	H	0.669075	0.670896	-0.627046
O204	O	0.870359	0.440026	0.404731
C205	C	0.961020	0.432563	0.503269
C206	C	0.910769	0.393776	0.493988
H207	H	0.993720	0.395172	0.575429
H208	H	0.913708	0.512462	0.470660
H209	H	1.012889	0.418725	0.470579
H210	H	0.858900	0.407545	0.526683
H211	H	0.958135	0.313889	0.526573
O212	O	0.690379	1.173427	-0.551754
C213	C	0.673634	1.137001	-0.652721
C214	C	0.723857	1.098225	-0.561387
H215	H	0.700669	1.076217	-0.660532
H216	H	0.681519	1.193424	-0.704641
H217	H	0.601481	1.170068	-0.660584
H218	H	0.796027	1.065110	-0.553439
H219	H	0.715899	1.041848	-0.509513
H220	H	1.153071	0.306634	-0.082942
O221	O	0.588170	0.737353	-0.426595
C222	C	0.459993	0.737305	-0.434439
C223	C	0.531128	0.737268	-0.475432
H224	H	0.413867	0.737215	-0.473895
H225	H	0.421626	0.803636	-0.434625
H226	H	0.491868	0.671014	-0.364399
H227	H	0.499325	0.803514	-0.545487
H228	H	0.569488	0.670893	-0.475178
O229	O	0.353713	0.737417	-0.192161
C230	C	0.333137	0.819526	-0.346067
C231	C	0.292142	0.819491	-0.274934
H232	H	0.283382	0.885885	-0.413004
H233	H	0.353516	0.753255	-0.342914
H234	H	0.392898	0.819490	-0.334932
H235	H	0.232354	0.819560	-0.286022
H236	H	0.271825	0.885756	-0.278106
H237	H	1.183546	0.434539	0.237445
H238	H	0.628370	0.297051	-0.063857
O239	O	1.315528	0.231623	0.535098
C240	C	1.447676	0.188489	0.617109
C241	C	1.365542	0.266049	0.535056
H242	H	1.488126	0.216300	0.617111
H243	H	1.488246	0.122458	0.617119
H244	H	1.427425	0.169307	0.677882
H245	H	1.385715	0.285312	0.474239
H246	H	1.324992	0.332029	0.535123
H247	H	0.212582	0.737310	0.181847
O248	O	0.710665	0.394362	-0.165411
C249	C	0.671469	0.554494	-0.258550
C250	C	0.711083	0.464752	-0.164492
H251	H	0.671811	0.611421	-0.257839
H252	H	0.601486	0.582682	-0.288129
H253	H	0.711844	0.535787	-0.299325
H254	H	0.670777	0.483383	-0.123647
H255	H	0.781076	0.436588	-0.134982
O256	O	1.315444	0.231663	-0.000132
C257	C	1.447631	0.188455	-0.036432
C258	C	1.365553	0.266003	-0.036388
H259	H	1.488176	0.216182	-0.065724
H260	H	1.427410	0.169329	-0.076981
H261	H	1.488103	0.122409	0.033445
H262	H	1.325044	0.332098	-0.106232
H263	H	1.385834	0.285048	0.004210
O264	O	0.870214	0.301168	0.551721
C265	C	0.861866	0.279559	0.689034
C266	C	0.811631	0.318299	0.597722
H267	H	0.814527	0.293377	0.726258
H268	H	0.894508	0.316889	0.682238
H269	H	0.913776	0.199660	0.726229
H270	H	0.759682	0.398191	0.560476
H271	H	0.779051	0.280898	0.604580
O272	O	0.228572	1.173551	-0.371661
C273	C	0.091297	1.195074	-0.402809
C274	C	0.182622	1.156298	-0.412012
H275	H	0.054127	1.181122	-0.435410
H276	H	0.054021	1.274991	-0.435488
H277	H	0.098160	1.157754	-0.330648
H278	H	0.175839	1.193546	-0.484150
H279	H	0.219864	1.076376	-0.379278
O280	O	0.780107	0.231670	0.535181
C281	C	0.693627	0.188476	0.617202
C282	C	0.693664	0.266017	0.535091
H283	H	0.623744	0.216210	0.617148
H284	H	0.734085	0.169348	0.677994
H285	H	0.723029	0.122430	0.617223
H286	H	0.664246	0.332113	0.534986
H287	H	0.653232	0.285065	0.474337
H288	H	0.542836	1.040102	-0.403352
O289	O	0.245187	1.243023	-0.535283
C290	C	0.163116	1.286168	-0.667408
C291	C	0.245196	1.208613	-0.585300
H292	H	0.163087	1.258369	-0.707860
H293	H	0.163085	1.352218	-0.707998
H294	H	0.102373	1.305315	-0.647114
H295	H	0.305983	1.189386	-0.605515
H296	H	0.245151	1.142614	-0.544730
H297	H	0.347969	0.737327	0.181836
O298	O	0.907745	0.737327	-0.685429
C299	C	1.035992	0.737242	-0.677510
C300	C	0.964878	0.737235	-0.636496
H301	H	1.082214	0.737148	-0.637955
H302	H	1.004195	0.803565	-0.747525
H303	H	1.074249	0.670944	-0.677382
H304	H	0.926597	0.803489	-0.636561
H305	H	0.996729	0.670868	-0.566503
O306	O	0.849649	0.080472	0.165361
C307	C	0.838605	0.013733	0.309563
C308	C	0.799120	0.103437	0.215502
H309	H	0.797759	0.032265	0.350124
H310	H	0.908350	-0.014074	0.339477
H311	H	0.838907	-0.043424	0.308702
H312	H	0.798757	0.160658	0.216285
H313	H	0.729396	0.131165	0.185625
O314	O	0.465699	0.737263	-0.127467
C315	C	0.457802	0.737315	-0.255698
C316	C	0.416774	0.737344	-0.184598
H317	H	0.418253	0.737401	-0.301917
H318	H	0.527808	0.670989	-0.223879
H319	H	0.457688	0.803610	-0.293970
H320	H	0.416825	0.671094	-0.146301
H321	H	0.346790	0.803715	-0.216470
H322	H	0.692136	0.279484	0.088018
O323	O	0.206900	0.737160	-0.192034
C324	C	0.227482	0.655044	-0.259037
C325	C	0.268471	0.655079	-0.187939
H326	H	0.277237	0.588679	-0.255739
H327	H	0.207116	0.721309	-0.326019
H328	H	0.167714	0.655092	-0.247948
H329	H	0.328266	0.654998	-0.198946
H330	H	0.288774	0.588820	-0.120982
H331	H	0.897551	0.737312	-0.320409
H332	H	0.868370	0.195387	-0.088247
O333	O	0.972263	0.737313	-0.426372
C334	C	1.029615	0.737166	-0.311328
C335	C	0.958523	0.737205	-0.352435
H336	H	1.018542	0.737059	-0.251532
H337	H	1.026439	0.803478	-0.361018
H338	H	1.096540	0.670857	-0.290971
H339	H	0.891564	0.803469	-0.372790
H340	H	0.961776	0.670849	-0.302718
O341	O	0.408811	1.173407	-0.551752
C342	C	0.463864	1.136852	-0.652719
C343	C	0.454718	1.098172	-0.561363
H344	H	0.500962	1.076047	-0.660526
H345	H	0.501111	1.169867	-0.660757
H346	H	0.396225	1.193301	-0.704535
H347	H	0.522321	1.041690	-0.509492
H348	H	0.417427	1.065216	-0.553400
H349	H	0.962166	0.737304	-0.567733
H350	H	0.663050	0.737293	-0.679643
O351	O	0.555843	1.034647	0.090058
C352	C	0.638614	1.042056	0.180750
C353	C	0.547322	1.080795	0.130476
H354	H	0.631755	1.079335	0.213456
H355	H	0.675857	1.055949	0.133445
H356	H	0.675820	0.962144	0.232621
H357	H	0.510043	1.160712	0.078605
H358	H	0.510144	1.066828	0.177835
H359	H	0.697350	0.306589	0.372886
H360	H	1.017750	0.434510	0.403298
H361	H	0.377040	1.040070	-0.237500
O362	O	0.245102	1.243009	-0.000029
C363	C	0.112968	1.286174	0.036367
C364	C	0.195072	1.208608	0.036368
H365	H	0.072505	1.258383	0.065807
H366	H	0.072396	1.352218	-0.033497
H367	H	0.133256	1.305326	0.076846
H368	H	0.174862	1.189375	-0.004070
H369	H	0.235624	1.142614	0.106256
H370	H	0.407515	1.168002	0.082859
H371	H	0.241645	1.168062	-0.082963
