data_functionalizedCrystal
_audit_creation_method	'MofGen! by Chris Wilmer'
_symmetry_space_group_name_H-M	'P1'
_symmetry_Int_Tables_number	1
_symmetry_cell_setting	triclinic
loop_
_symmetry_equiv_pos_as_xyz
  x,y,z
_cell_length_a	19.288864
_cell_length_b	12.837942
_cell_length_c	18.366186
_cell_angle_alpha	89.994829
_cell_angle_beta	89.977106
_cell_angle_gamma	88.982593
loop_
_atom_site_label
_atom_site_type_symbol
_atom_site_fract_x
_atom_site_fract_y
_atom_site_fract_z
O1	O	0.930180	0.129276	-0.060785
O2	O	1.430180	0.629276	0.439215
O3	O	0.729110	0.146715	-0.060736
O4	O	1.229110	0.646715	0.439264
O5	O	0.825187	-0.012886	-0.060755
O6	O	1.325187	0.487114	0.439245
O7	O	0.834104	0.288877	-0.060766
O8	O	1.334104	0.788877	0.439234
O9	O	0.825168	-0.012894	0.060345
O10	O	1.325168	0.487106	0.560345
O11	O	0.729092	0.146707	0.060364
O12	O	1.229092	0.646707	0.560364
O13	O	0.930162	0.129268	0.060314
O14	O	1.430162	0.629268	0.560314
Zn15	Zn	0.829624	0.137986	0.079566
Zn16	Zn	1.329624	0.637986	0.579566
Zn17	Zn	0.829648	0.137997	-0.079987
Zn18	Zn	1.329648	0.637997	0.420013
O19	O	0.834085	0.288870	0.060334
O20	O	1.334085	0.788870	0.560334
C21	C	0.703186	0.146150	-0.000179
C22	C	1.203186	0.646150	0.499821
C23	C	0.625968	0.144466	-0.000160
C24	C	1.125968	0.644466	0.499840
C25	C	0.822165	-0.051497	-0.000205
C26	C	1.322165	0.448503	0.499795
C27	C	0.813181	-0.166532	-0.000204
C28	C	1.313181	0.333468	0.499796
C29	C	0.587666	0.238113	-0.000175
C30	C	1.087666	0.738113	0.499825
C31	C	0.515111	0.236530	-0.000183
C32	C	1.015111	0.736530	0.499817
C33	C	0.480860	0.141295	-0.000191
C34	C	0.980860	0.641295	0.499809
C35	C	0.519171	0.047636	-0.000172
C36	C	1.019171	0.547636	0.499828
C37	C	0.591725	0.049221	-0.000157
C38	C	1.091725	0.549221	0.499843
C39	C	0.367493	0.066433	-0.042639
C40	C	0.867493	0.566433	0.457361
C41	C	0.294940	0.064852	-0.042659
C42	C	0.794940	0.564852	0.457341
C43	C	0.257081	0.136402	-0.000235
C44	C	0.757081	0.636402	0.499765
C45	C	0.291782	0.209552	0.042200
C46	C	0.791782	0.709552	0.542200
C47	C	0.364336	0.211137	0.042215
C48	C	0.864336	0.711137	0.542215
C49	C	0.402188	0.139566	-0.000207
C50	C	0.902188	0.639566	0.499793
C51	C	0.140106	0.228340	-0.000257
C52	C	0.640106	0.728340	0.499743
C53	C	0.067550	0.226753	-0.000261
C54	C	0.567550	0.726753	0.499739
C55	C	0.071611	0.037857	-0.000257
C56	C	0.571611	0.537857	0.499743
C57	C	0.144166	0.039446	-0.000246
C58	C	0.644166	0.539446	0.499754
C59	C	0.178409	0.134690	-0.000250
C60	C	0.678409	0.634690	0.499750
C61	C	0.921187	-0.407995	-0.000245
C62	C	1.421187	0.092005	0.499755
C63	C	0.912748	-0.516081	-0.000245
C64	C	1.412748	-0.016081	0.499755
C65	C	0.787867	-0.490793	-0.000206
C66	C	1.287867	0.009207	0.499794
C67	C	0.796305	-0.382707	-0.000207
C68	C	1.296305	0.117293	0.499793
C69	C	0.862967	-0.341312	-0.000226
C70	C	1.362967	0.158688	0.499774
C71	C	0.871405	-0.233223	-0.000221
C72	C	1.371405	0.266777	0.499779
C73	C	0.746524	-0.207938	-0.000188
C74	C	1.246524	0.292062	0.499812
C75	C	0.738086	-0.316024	-0.000187
C76	C	1.238086	0.183976	0.499813
C77	C	0.956086	0.129833	-0.000243
C78	C	1.456086	0.629833	0.499757
C79	C	1.033304	0.131518	-0.000267
C80	C	1.533304	0.631518	0.499733
C81	C	0.837107	0.327480	-0.000218
C82	C	1.337107	0.827480	0.499782
C83	C	0.846091	0.442515	-0.000224
C84	C	1.346091	0.942515	0.499776
N85	N	0.829612	0.137979	0.188457
N86	N	1.329612	0.637979	0.688457
N87	N	0.829665	0.137996	-0.188879
N88	N	1.329665	0.637996	0.311121
C89	C	0.872172	0.067342	0.226549
C90	C	1.372172	0.567342	0.726549
C91	C	0.872177	0.067337	0.302777
C92	C	1.372177	0.567337	0.802777
C93	C	0.829628	0.137987	0.340910
C94	C	1.329628	0.637987	0.840910
C95	C	0.787059	0.208630	0.302809
C96	C	1.287059	0.708630	0.802809
C97	C	0.787051	0.208625	0.226583
C98	C	1.287051	0.708625	0.726583
C99	C	0.826777	0.232410	0.461668
C100	C	1.326777	0.732410	0.961668
C101	C	0.826790	0.232416	0.537893
C102	C	1.326790	0.732416	1.037893
C103	C	0.829649	0.138000	0.576018
C104	C	1.329649	0.638000	1.076018
C105	C	0.832508	0.043575	0.537908
C106	C	1.332508	0.543575	1.037908
C107	C	0.832500	0.043571	0.461681
C108	C	1.332500	0.543571	0.961681
C109	C	0.829632	0.137999	0.423565
C110	C	1.329632	0.637999	0.923565
C111	C	0.872216	0.067352	0.696764
C112	C	1.372216	0.567352	1.196764
C113	C	0.872215	0.067346	0.772994
C114	C	1.372215	0.567346	1.272994
C115	C	0.787101	0.208648	0.773024
C116	C	1.287101	0.708648	1.273024
C117	C	0.787098	0.208645	0.696796
C118	C	1.287098	0.708645	1.196796
C119	C	0.829659	0.137998	0.658671
C120	C	1.329659	0.637998	1.158671
H121	H	0.615542	0.315668	-0.000180
H122	H	1.115542	0.815668	0.499820
O123	O	0.943301	-0.188570	-0.000242
O124	O	1.443301	0.311430	0.499758
H125	H	0.950132	-0.139916	-0.049599
H126	H	1.450132	0.360084	0.450401
O127	O	0.177046	0.331062	-0.000253
O128	O	0.677046	0.831062	0.499747
H129	H	0.209982	0.336291	0.049108
H130	H	0.709982	0.836291	0.549108
H131	H	0.960157	-0.570371	-0.000263
H132	H	1.460157	-0.070371	0.499737
H133	H	0.043725	-0.039685	-0.000308
H134	H	0.543725	0.460315	0.499692
H135	H	0.483920	0.312791	-0.000193
H136	H	0.983920	0.812791	0.499807
H137	H	0.834827	-0.033313	0.430655
H138	H	1.334827	0.466687	0.930655
H139	H	0.824438	0.309299	0.430634
H140	H	1.324438	0.809299	0.930634
O141	O	0.185485	-0.061559	-0.000236
O142	O	0.685485	0.438441	0.499764
H143	H	0.149482	-0.128050	-0.000247
H144	H	0.649482	0.371950	0.499753
H145	H	0.834836	-0.033307	0.568947
H146	H	1.334836	0.466693	1.068947
O147	O	0.401776	0.290010	0.087984
O148	O	0.901776	0.790010	0.587984
H149	H	0.435711	0.248776	0.127820
H150	H	0.935711	0.748776	0.627820
H151	H	0.398312	0.008166	-0.077190
H152	H	0.898312	0.508166	0.422810
O153	O	0.993081	-0.363335	-0.000266
O154	O	1.493081	0.136665	0.499734
H155	H	1.032148	-0.427864	-0.000283
H156	H	1.532148	0.072136	0.499717
O157	O	0.482236	-0.055085	-0.000180
O158	O	0.982236	0.444915	0.499820
H159	H	0.425349	-0.040456	-0.000201
H160	H	0.925349	0.459544	0.499799
H161	H	0.906869	0.009824	0.665722
H162	H	1.406869	0.509824	1.165722
O163	O	0.715972	-0.535448	-0.000181
O164	O	1.215972	-0.035448	0.499819
H165	H	0.719889	-0.621810	-0.000179
H166	H	1.219889	-0.121810	0.499821
O167	O	0.666189	-0.360672	-0.000157
O168	O	1.166189	0.139328	0.499843
H169	H	0.670101	-0.447035	-0.000153
H170	H	1.170101	0.052965	0.499847
O171	O	0.683723	-0.136017	-0.000170
O172	O	1.183723	0.363983	0.499830
H173	H	0.700787	-0.053902	-0.000177
H174	H	1.200787	0.446098	0.499823
O175	O	0.633043	-0.051787	-0.000144
O176	O	1.133043	0.448213	0.499856
H177	H	0.597041	-0.118279	-0.000153
H178	H	1.097041	0.381721	0.499847
O179	O	0.918065	-0.008865	0.185426
O180	O	1.418065	0.491135	0.685426
H181	H	0.947656	-0.057992	0.224726
H182	H	1.447656	0.442008	0.724726
H183	H	0.906835	0.009814	0.333797
H184	H	1.406835	0.509814	0.833797
H185	H	0.906870	0.009820	0.804009
H186	H	1.406870	0.509820	1.304009
H187	H	0.260958	0.267814	0.076746
H188	H	0.760958	0.767814	0.576746
O189	O	0.741209	0.284855	0.814141
O190	O	1.241209	0.784855	1.314141
H191	H	0.748367	0.272997	0.873546
H192	H	1.248367	0.772997	1.373546
O193	O	0.741180	0.284847	0.343937
O194	O	1.241180	0.784847	0.843937
H195	H	0.711583	0.333968	0.304640
H196	H	1.211583	0.833968	0.804640
O197	O	0.026233	0.327762	-0.000274
O198	O	0.526233	0.827762	0.499726
H199	H	0.062237	0.394253	-0.000280
H200	H	0.562237	0.894253	0.499720
H201	H	0.752445	0.266168	0.665780
H202	H	1.252445	0.766168	1.165780
O203	O	0.257513	-0.014050	-0.088415
O204	O	0.757513	0.485950	0.411585
H205	H	0.296027	-0.063556	-0.117898
H206	H	0.796027	0.436444	0.382102
H207	H	0.824466	0.309302	0.568917
H208	H	1.324466	0.809302	1.068917
H209	H	0.752392	0.266147	0.195568
H210	H	1.252392	0.766147	0.695568
