data_functionalizedCrystal
_audit_creation_method	'MofGen! by Chris Wilmer'
_symmetry_space_group_name_H-M	'P1'
_symmetry_Int_Tables_number	1
_symmetry_cell_setting	triclinic
loop_
_symmetry_equiv_pos_as_xyz
  x,y,z
_cell_length_a	16.959455
_cell_length_b	16.959453
_cell_length_c	16.959447
_cell_angle_alpha	89.968936
_cell_angle_beta	89.985678
_cell_angle_gamma	90.016935
loop_
_atom_site_label
_atom_site_type_symbol
_atom_site_fract_x
_atom_site_fract_y
_atom_site_fract_z
Zn1	Zn	1.208384	-0.314730	-0.446905
Zn2	Zn	1.708384	0.185270	0.053095
Zn3	Zn	1.208307	-0.446923	-0.314724
Zn4	Zn	1.708307	0.053077	0.185276
Zn5	Zn	1.076213	-0.314755	-0.314742
Zn6	Zn	1.576213	0.185245	0.185258
Zn7	Zn	1.076178	-0.446864	-0.446863
Zn8	Zn	1.576178	0.053136	0.053137
O9	O	1.142270	-0.380818	-0.380808
O10	O	1.642270	0.119182	0.119192
O11	O	1.318985	-0.332280	-0.429381
O12	O	1.818985	0.167720	0.070619
O13	O	1.190767	-0.429426	-0.204116
O14	O	1.690767	0.070574	0.295884
O15	O	1.093793	-0.204141	-0.332299
O16	O	1.593793	0.295859	0.167701
O17	O	1.318928	-0.429402	-0.332268
O18	O	1.818928	0.070598	0.167732
O19	O	1.190898	-0.204123	-0.429398
O20	O	1.690898	0.295877	0.070602
O21	O	1.093718	-0.332323	-0.204129
O22	O	1.593718	0.167677	0.295871
O23	O	0.965597	-0.332265	-0.332258
O24	O	1.465597	0.167735	0.167742
O25	O	1.093733	-0.429301	-0.557479
O26	O	1.593733	0.070699	-0.057479
O27	O	0.965571	-0.429325	-0.429327
O28	O	1.465571	0.070675	0.070673
O29	O	1.190864	-0.332223	-0.557510
O30	O	1.690864	0.167777	-0.057510
O31	O	1.190733	-0.557526	-0.332228
O32	O	1.690733	-0.057526	0.167772
O33	O	1.093658	-0.557482	-0.429310
O34	O	1.593658	-0.057482	0.070690
C35	C	1.142204	-0.586184	-0.380780
C36	C	1.642204	-0.086184	0.119220
C37	C	1.142249	-0.674041	-0.380794
C38	C	1.642249	-0.174041	0.119206
C39	C	0.936904	-0.380792	-0.380790
C40	C	1.436904	0.119208	0.119210
C41	C	0.849048	-0.380800	-0.380801
C42	C	1.349048	0.119200	0.119199
C43	C	1.192898	-1.045448	-0.431463
C44	C	1.692898	-0.545448	0.068537
C45	C	1.091863	-1.045584	-0.330271
C46	C	1.591863	-0.545584	0.169729
C47	C	1.091834	-0.963039	-0.330253
C48	C	1.591834	-0.463039	0.169747
C49	C	1.142337	-0.921694	-0.380842
C50	C	1.642337	-0.421694	0.119158
C51	C	1.192869	-0.962895	-0.431449
C52	C	1.692869	-0.462895	0.068551
C53	C	1.041297	-0.921831	-0.279652
C54	C	1.541297	-0.421831	0.220348
C55	C	1.041265	-0.839280	-0.279633
C56	C	1.541265	-0.339280	0.220367
C57	C	1.091773	-0.797934	-0.330218
C58	C	1.591773	-0.297934	0.169782
C59	C	1.142307	-0.839140	-0.380827
C60	C	1.642307	-0.339140	0.119173
C61	C	1.192810	-0.797796	-0.431415
C62	C	1.692810	-0.297796	0.068585
C63	C	1.243349	-0.839000	-0.482021
C64	C	1.743349	-0.339000	0.017979
C65	C	1.243376	-0.921549	-0.482034
C66	C	1.743376	-0.421549	0.017966
C67	C	1.091746	-0.715386	-0.330205
C68	C	1.591746	-0.215386	0.169795
C69	C	1.192781	-0.715242	-0.431401
C70	C	1.692781	-0.215242	0.068599
C71	C	0.477561	-0.330238	-0.330370
C72	C	0.977561	0.169762	0.169630
C73	C	0.477583	-0.431463	-0.431292
C74	C	0.977583	0.068537	0.068708
C75	C	0.560129	-0.431452	-0.431287
C76	C	1.060129	0.068548	0.068713
C77	C	0.601395	-0.380834	-0.380822
C78	C	1.101395	0.119166	0.119178
C79	C	0.560114	-0.330226	-0.330362
C80	C	1.060114	0.169774	0.169638
C81	C	0.601415	-0.482064	-0.481740
C82	C	1.101415	0.017936	0.018260
C83	C	0.683966	-0.482055	-0.481737
C84	C	1.183966	0.017945	0.018263
C85	C	0.725233	-0.431432	-0.431275
C86	C	1.225233	0.068568	0.068725
C87	C	0.683948	-0.380822	-0.380814
C88	C	1.183948	0.119178	0.119186
C89	C	0.725214	-0.330204	-0.330350
C90	C	1.225214	0.169796	0.169650
C91	C	0.683930	-0.279589	-0.279892
C92	C	1.183930	0.220411	0.220108
C93	C	0.601382	-0.279603	-0.279901
C94	C	1.101382	0.220397	0.220099
C95	C	0.807782	-0.431418	-0.431266
C96	C	1.307782	0.068582	0.068734
C97	C	0.807767	-0.330193	-0.330341
C98	C	1.307767	0.169807	0.169659
C99	C	1.348439	-0.380845	-0.380827
C100	C	1.848439	0.119155	0.119173
C101	C	1.436295	-0.380856	-0.380835
C102	C	1.936295	0.119144	0.119165
C103	C	1.142303	-0.380753	-0.586977
C104	C	1.642303	0.119247	-0.086977
C105	C	1.142317	-0.380725	-0.674833
C106	C	1.642317	0.119275	-0.174833
C107	C	1.142358	-0.174650	-0.380855
C108	C	1.642358	0.325350	0.119145
C109	C	1.142395	-0.086793	-0.380875
C110	C	1.642395	0.413207	0.119125
C111	C	1.091840	-0.431185	-1.046296
C112	C	1.591840	0.068815	-0.546296
C113	C	1.192984	-0.330097	-1.046323
C114	C	1.692984	0.169903	-0.546323
C115	C	1.192963	-0.330114	-0.963777
C116	C	1.692963	0.169886	-0.463777
C117	C	1.142380	-0.380668	-0.922487
C118	C	1.642380	0.119332	-0.422487
C119	C	1.091819	-0.431205	-0.963742
C120	C	1.591819	0.068795	-0.463742
C121	C	1.243529	-0.279584	-0.922515
C122	C	1.743529	0.220416	-0.422515
C123	C	1.243511	-0.279599	-0.839964
C124	C	1.743511	0.220401	-0.339964
C125	C	1.192923	-0.330149	-0.798672
C126	C	1.692923	0.169851	-0.298672
C127	C	1.142359	-0.380688	-0.839933
C128	C	1.642359	0.119312	-0.339933
C129	C	1.091777	-0.431242	-0.798643
C130	C	1.591777	0.068758	-0.298643
C131	C	1.041208	-0.481777	-0.839902
C132	C	1.541208	0.018223	-0.339902
C133	C	1.041232	-0.481756	-0.922450
C134	C	1.541232	0.018244	-0.422450
C135	C	1.192900	-0.330171	-0.716124
C136	C	1.692900	0.169829	-0.216124
C137	C	1.091756	-0.431262	-0.716089
C138	C	1.591756	0.068738	-0.216089
C139	C	1.142283	-0.380826	-0.175442
C140	C	1.642283	0.119174	0.324558
C141	C	1.142422	-0.380631	-0.087586
C142	C	1.642422	0.119369	0.412414
H143	H	1.233909	-0.681584	-0.472593
H144	H	1.733909	-0.181584	0.027407
C145	C	1.036310	-1.091057	-0.274630
C146	C	1.536310	-0.591057	0.225370
H147	H	1.006207	-1.054695	-0.244493
H148	H	1.506207	-0.554695	0.255507
H149	H	1.066577	-1.123270	-0.240226
H150	H	1.566577	-0.623270	0.259774
H151	H	1.001858	-1.123255	-0.304850
H152	H	1.501858	-0.623255	0.195150
C153	C	1.298899	-0.793516	-0.537664
C154	C	1.798899	-0.293516	-0.037664
H155	H	1.291641	-0.738452	-0.530402
H156	H	1.791641	-0.238452	-0.030402
H157	H	1.287307	-0.807013	-0.590766
H158	H	1.787307	-0.307013	-0.090766
H159	H	1.352024	-0.807011	-0.526139
H160	H	1.852024	-0.307011	-0.026139
H161	H	1.050558	-0.472422	-0.682476
H162	H	1.550558	0.027578	-0.182476
C163	C	0.985617	-0.537345	-0.967833
C164	C	1.485617	-0.037345	-0.467833
H165	H	0.955483	-0.567452	-0.931421
H166	H	1.455483	-0.067452	-0.431421
H167	H	1.015851	-0.571780	-1.000022
H168	H	1.515851	-0.071780	-0.500022
H169	H	0.951196	-0.507093	-1.000046
H170	H	1.451196	-0.007093	-0.500046
C171	C	1.298954	-0.966874	-0.537701
C172	C	1.798954	-0.466874	-0.037701
H173	H	1.291730	-1.021958	-0.530471
H174	H	1.791730	-0.521958	-0.030471
H175	H	1.352068	-0.953326	-0.526185
H176	H	1.852068	-0.453326	-0.026185
H177	H	1.287337	-0.953312	-0.590798
H178	H	1.787337	-0.453312	-0.090798
C179	C	1.248518	-0.274593	-0.670738
C180	C	1.748518	0.225407	-0.170738
H181	H	1.241265	-0.281847	-0.615662
H182	H	1.741265	0.218153	-0.115662
H183	H	1.236984	-0.221479	-0.684284
H184	H	1.736984	0.278521	-0.184284
H185	H	1.301627	-0.286177	-0.684262
H186	H	1.801627	0.213823	-0.184262
C187	C	1.248616	-0.274489	-1.091739
C188	C	1.748616	0.225511	-0.591739
H189	H	1.241382	-0.281711	-1.146812
H190	H	1.741382	0.218289	-0.646812
H191	H	1.301718	-0.286058	-1.078209
H192	H	1.801718	0.213942	-0.578209
H193	H	1.237054	-0.221381	-1.078227
H194	H	1.737054	0.278619	-0.578227
H195	H	1.234048	-1.079001	-0.472663
H196	H	1.734048	-0.579001	0.027337
C197	C	0.555969	-0.223945	-0.224393
C198	C	1.055969	0.276055	0.275607
H199	H	0.500896	-0.231211	-0.231619
H200	H	1.000896	0.268789	0.268381
H201	H	0.569502	-0.170845	-0.236046
H202	H	1.069502	0.329155	0.263954
H203	H	0.569482	-0.235458	-0.171262
H204	H	1.069482	0.264542	0.328738
H205	H	0.567810	-0.523280	-0.522820
H206	H	1.067810	-0.023280	-0.022820
C207	C	0.985684	-0.793962	-0.223963
C208	C	1.485684	-0.293962	0.276037
H209	H	0.955615	-0.830409	-0.193833
H210	H	1.455615	-0.330409	0.306167
H211	H	0.951212	-0.761755	-0.254156
H212	H	1.451212	-0.261755	0.245844
H213	H	1.015941	-0.761771	-0.189541
H214	H	1.515941	-0.261771	0.310459
H215	H	0.841360	-0.288968	-0.289251
H216	H	1.341360	0.211032	0.210749
C217	C	0.985744	-0.967306	-0.224013
C218	C	1.485744	-0.467306	0.275987
H219	H	0.955635	-0.930945	-0.193880
H220	H	1.455635	-0.430945	0.306120
H221	H	1.016012	-0.999514	-0.189605
H222	H	1.516012	-0.499514	0.310395
H223	H	0.951297	-0.999508	-0.254235
H224	H	1.451297	-0.499508	0.245765
C225	C	1.036221	-0.486772	-1.091676
C226	C	1.536221	0.013228	-0.591676
H227	H	1.043478	-0.479526	-1.146753
H228	H	1.543478	0.020474	-0.646753
H229	H	0.983114	-0.475203	-1.078147
H230	H	1.483114	0.024797	-0.578147
H231	H	1.047771	-0.539888	-1.078131
H232	H	1.547771	-0.039888	-0.578131
H233	H	0.717540	-0.238379	-0.238800
H234	H	1.217540	0.261621	0.261200
C235	C	1.036159	-0.670064	-0.274549
C236	C	1.536159	-0.170064	0.225451
H237	H	1.006086	-0.706510	-0.244422
H238	H	1.506086	-0.206510	0.255578
H239	H	1.001691	-0.637860	-0.304750
H240	H	1.501691	-0.137860	0.195250
H241	H	1.066409	-0.637870	-0.240123
H242	H	1.566409	-0.137870	0.259877
H243	H	0.443944	-0.289026	-0.289291
H244	H	0.943944	0.210974	0.210709
C245	C	0.432193	-0.487139	-0.486798
C246	C	0.932193	0.012861	0.013202
H247	H	0.377117	-0.479894	-0.479579
H248	H	0.877117	0.020106	0.020421
H249	H	0.445710	-0.540232	-0.475140
H250	H	0.945710	-0.040232	0.024860
H251	H	0.445739	-0.475626	-0.539929
H252	H	0.945739	0.024374	-0.039929
H253	H	1.284715	-0.238430	-0.956140
H254	H	1.784715	0.261570	-0.456140
H255	H	1.284686	-0.238450	-0.806378
H256	H	1.784686	0.261550	-0.306378
H257	H	0.717572	-0.523268	-0.522823
H258	H	1.217572	-0.023268	-0.022823
H259	H	1.000027	-0.522942	-0.806273
H260	H	1.500027	-0.022942	-0.306273
H261	H	0.841391	-0.472630	-0.472346
H262	H	1.341391	0.027370	0.027654
