data_functionalizedCrystal
_audit_creation_method	'MofGen! by Chris Wilmer'
_symmetry_space_group_name_H-M	'P1'
_symmetry_Int_Tables_number	1
_symmetry_cell_setting	triclinic
loop_
_symmetry_equiv_pos_as_xyz
  x,y,z
_cell_length_a	10.540535
_cell_length_b	10.489716
_cell_length_c	9.016244
_cell_angle_alpha	90.001835
_cell_angle_beta	89.995024
_cell_angle_gamma	84.526389
loop_
_atom_site_label
_atom_site_type_symbol
_atom_site_fract_x
_atom_site_fract_y
_atom_site_fract_z
O1	O	1.685902	0.179734	-0.123245
O2	O	1.316489	0.196677	-0.123264
O3	O	1.509618	0.002605	-0.123259
O4	O	1.492773	0.373807	-0.123249
O5	O	1.509589	0.002609	0.123422
O6	O	1.316460	0.196682	0.123417
O7	O	1.685874	0.179738	0.123436
Cu8	Cu	1.501164	0.188210	0.145950
Cu9	Cu	1.501198	0.188205	-0.145778
O10	O	1.492745	0.373811	0.123431
C11	C	1.269172	0.195410	0.000074
C12	C	1.128223	0.191612	0.000066
C13	C	1.508338	-0.044925	0.000077
C14	C	1.504551	-0.186556	0.000063
C15	C	1.091548	0.049915	0.000068
C16	C	0.944947	0.045919	0.000642
C17	C	0.918873	0.256297	0.140678
C18	C	1.065638	0.259312	0.140781
C19	C	1.065555	0.261369	-0.139751
C20	C	0.919208	0.254815	-0.141584
C21	C	1.622984	-0.284246	0.000083
C22	C	1.560415	-0.361600	-0.121543
C23	C	1.560360	-0.361560	0.121665
C24	C	1.442032	-0.262044	-0.121663
C25	C	1.441994	-0.261999	0.121654
C26	C	1.379339	-0.339304	-0.000002
C27	C	1.733191	0.181006	0.000095
C28	C	1.874139	0.184803	0.000093
C29	C	1.494025	0.421341	0.000092
C30	C	1.497811	0.562971	0.000096
N31	N	1.501150	0.188213	0.351137
N32	N	1.501222	0.188192	-0.350964
C33	C	1.397522	0.291681	0.586167
C34	C	1.397751	0.292069	0.414275
C35	C	1.633874	0.218491	0.413483
C36	C	1.633309	0.219223	0.585428
C37	C	1.473372	0.054129	0.585675
C38	C	1.470327	0.054998	0.413720
H39	H	0.915619	-0.009993	-0.100114
H40	H	1.658775	0.315194	0.370409
H41	H	1.298596	0.273744	0.627554
H42	H	1.610422	-0.405104	-0.224366
N43	N	1.626597	-0.419129	0.257875
H44	H	1.582808	-0.381477	0.349733
H45	H	1.622793	-0.514968	0.257255
N46	N	0.877950	0.191323	0.279800
H47	H	0.820385	0.253949	0.340193
H48	H	0.830497	0.115595	0.251958
N49	N	1.738638	0.123247	0.640566
H50	H	1.724034	0.035083	0.603124
H51	H	1.823334	0.147477	0.602923
H52	H	1.372688	0.032049	0.372973
H53	H	1.415192	0.390581	0.629363
N54	N	1.347861	0.015969	0.643168
H55	H	1.307781	0.085208	0.710880
H56	H	1.288954	0.004140	0.556949
H57	H	1.392076	-0.218735	-0.224603
N58	N	1.738598	0.121390	0.359292
H59	H	1.823049	0.142724	0.400725
H60	H	1.720929	0.033118	0.393486
N61	N	1.375817	-0.204305	0.257843
H62	H	1.284282	-0.225314	0.258823
H63	H	1.420744	-0.240679	0.349609
H64	H	0.871519	0.358555	0.145512
N65	N	1.121803	0.202806	-0.280954
H66	H	1.188488	0.130457	-0.255714
H67	H	1.052141	0.168668	-0.341945
N68	N	1.242803	-0.371714	-0.000120
H69	H	1.198251	-0.335179	-0.092045
H70	H	1.241119	-0.467815	0.000801
N71	N	0.881341	0.185909	-0.279361
H72	H	0.835181	0.109660	-0.250144
H73	H	0.823362	0.246217	-0.342103
N74	N	1.267125	0.267944	0.358427
H75	H	1.208875	0.256963	0.445507
H76	H	1.231323	0.343083	0.296373
N77	N	1.421126	0.423906	0.359759
H78	H	1.431365	0.481984	0.447425
H79	H	1.501195	0.418098	0.297618
H80	H	1.657666	0.317032	0.625521
H81	H	1.540851	-0.025713	0.370746
N82	N	1.573518	-0.047909	0.639518
H83	H	1.636630	-0.007564	0.704634
H84	H	1.531374	-0.114153	0.698306
N85	N	1.147160	-0.022181	-0.133441
H86	H	1.206004	-0.098214	-0.099508
H87	H	1.075999	-0.052851	-0.194974
N88	N	1.149084	-0.020965	0.133405
H89	H	1.244929	-0.021745	0.129937
H90	H	1.115716	0.023310	0.226982
N91	N	0.907224	-0.027770	0.134915
H92	H	0.985874	-0.057774	0.193967
H93	H	0.847229	0.029532	0.198764
H94	H	0.870164	0.356177	-0.150507
H95	H	1.105796	0.211033	0.246271
H96	H	1.088672	0.363187	0.146791
H97	H	1.087743	0.365622	-0.141108
H98	H	1.726000	-0.259583	-0.000035
