data_functionalizedCrystal
_audit_creation_method	'MofGen! by Chris Wilmer'
_symmetry_space_group_name_H-M	'P1'
_symmetry_Int_Tables_number	1
_symmetry_cell_setting	triclinic
loop_
_symmetry_equiv_pos_as_xyz
  x,y,z
_cell_length_a	10.489741
_cell_length_b	8.140239
_cell_length_c	10.489741
_cell_angle_alpha	89.996756
_cell_angle_beta	84.539174
_cell_angle_gamma	89.999967
loop_
_atom_site_label
_atom_site_type_symbol
_atom_site_fract_x
_atom_site_fract_y
_atom_site_fract_z
O1	O	1.694051	-0.136511	0.179966
O2	O	1.322855	-0.136536	0.196859
O3	O	1.516899	-0.136513	0.002815
O4	O	1.500006	-0.136534	0.374010
O5	O	1.516888	0.136714	0.002812
O6	O	1.322844	0.136691	0.196857
O7	O	1.694040	0.136716	0.179964
Zn8	Zn	1.508440	0.180084	0.188410
Zn9	Zn	1.508454	-0.179904	0.188413
O10	O	1.499996	0.136693	0.374008
C11	C	1.275318	0.000074	0.195582
C12	C	1.133688	0.000064	0.191765
N13	N	1.508440	0.425767	0.188407
N14	N	1.508465	-0.425587	0.188406
C15	C	1.065548	0.000087	0.068300
C16	C	0.973427	-0.134628	0.126625
C17	C	0.973450	0.134752	0.126652
C18	C	1.043432	-0.134762	0.250140
C19	C	1.043465	0.134740	0.250150
C20	C	0.951371	-0.000008	0.308564
C21	C	1.741577	0.000102	0.181241
C22	C	1.883206	0.000101	0.185058
C23	C	1.515618	0.000099	-0.044718
C24	C	1.511801	0.000096	-0.186348
C25	C	1.388336	0.000076	-0.254488
C26	C	1.446654	0.134795	-0.346611
C27	C	1.446694	-0.134586	-0.346584
C28	C	1.570170	0.134926	-0.276606
C29	C	1.570192	-0.134575	-0.276569
C30	C	1.628600	0.000177	-0.368665
C31	C	1.501277	0.000077	0.421541
C32	C	1.505094	0.000069	0.563170
H33	H	0.942417	-0.248516	0.074385
O34	O	1.384538	0.270779	-0.383709
C35	C	1.397667	0.518650	-0.509868
C36	C	1.468184	0.364748	-0.467941
H37	H	1.465255	0.594649	-0.577997
H38	H	1.364348	0.595434	-0.422077
H39	H	1.311149	0.479734	-0.560637
H40	H	1.554751	0.403518	-0.417197
H41	H	1.501408	0.288001	-0.555778
O42	O	1.632349	0.270909	-0.239612
C43	C	1.705775	0.423426	-0.063796
C44	C	1.635312	0.269378	-0.105516
H45	H	1.708217	0.422222	0.044619
H46	H	1.653491	0.538143	-0.093143
H47	H	1.807871	0.423899	-0.112006
H48	H	1.533213	0.268745	-0.057327
H49	H	1.687695	0.154730	-0.076192
O50	O	1.124645	0.000150	-0.052858
C51	C	1.154646	0.140749	-0.255653
C52	C	1.087612	0.140877	-0.118494
H53	H	1.124752	0.254533	-0.308751
H54	H	1.126041	0.025834	-0.308139
H55	H	1.262859	0.141833	-0.251578
H56	H	0.979388	0.139852	-0.122452
H57	H	1.116322	0.255782	-0.066063
H58	H	0.901947	-0.000087	0.410168
H59	H	1.286824	0.000204	-0.204837
O60	O	1.749829	0.000558	-0.427582
C61	C	1.951818	0.142890	-0.458660
C62	C	1.814556	0.142673	-0.391876
H63	H	2.004198	0.257761	-0.429795
H64	H	1.948102	0.141905	-0.566922
H65	H	2.004802	0.029083	-0.428633
H66	H	1.761493	0.256462	-0.421798
H67	H	1.818364	0.143574	-0.283626
O68	O	1.080428	-0.270744	0.312327
C69	C	1.256246	-0.423265	0.385763
C70	C	1.214524	-0.269218	0.315291
H71	H	1.364661	-0.422065	0.388206
H72	H	1.226902	-0.537983	0.333487
H73	H	1.208036	-0.423733	0.487860
H74	H	1.262714	-0.268590	0.213192
H75	H	1.243846	-0.154569	0.367667
H76	H	1.394442	-0.248491	-0.377547
O77	O	1.080338	0.270561	0.312590
C78	C	1.061891	0.425669	0.509133
C79	C	1.019998	0.271790	0.438576
H80	H	1.013145	0.426696	0.611013
H81	H	1.033402	0.540497	0.456458
H82	H	1.170227	0.423676	0.512180
H83	H	0.911667	0.273623	0.435511
H84	H	1.048581	0.157030	0.491276
O85	O	1.632656	-0.270272	-0.239480
C86	C	1.811453	-0.375950	-0.136634
C87	C	1.740871	-0.222121	-0.178600
H88	H	1.898944	-0.337074	-0.087380
H89	H	1.843242	-0.453910	-0.224215
H90	H	1.744360	-0.450760	-0.067157
H91	H	1.807891	-0.147182	-0.248048
H92	H	1.709062	-0.144282	-0.090959
H93	H	0.942468	0.248644	0.074388
