data_functionalizedCrystal
_audit_creation_method	'MofGen! by Chris Wilmer'
_symmetry_space_group_name_H-M	'P1'
_symmetry_Int_Tables_number	1
_symmetry_cell_setting	triclinic
loop_
_symmetry_equiv_pos_as_xyz
  x,y,z
_cell_length_a	19.902436
_cell_length_b	17.052862
_cell_length_c	17.052832
_cell_angle_alpha	45.842616
_cell_angle_beta	77.685953
_cell_angle_gamma	70.261738
loop_
_atom_site_label
_atom_site_type_symbol
_atom_site_fract_x
_atom_site_fract_y
_atom_site_fract_z
Zr1	Zr	0.804862	0.878465	-0.240870
O2	O	0.747360	1.045927	-0.394892
O3	O	0.804209	0.711012	-0.175731
O4	O	0.861174	0.878458	-0.369027
O5	O	0.666254	0.878483	-0.069508
O6	O	0.971749	0.878442	-0.369014
O7	O	0.690394	0.878481	-0.201595
O8	O	0.869848	0.578912	-0.023242
O9	O	0.768155	1.178013	-0.415281
O10	O	0.908538	0.779873	-0.169595
O11	O	0.808002	0.779886	-0.071030
O12	O	0.875071	0.977032	-0.298612
O13	O	0.774535	0.977046	-0.200047
Zr14	Zr	0.942715	0.878444	-0.030186
Zr15	Zr	0.981216	0.878440	-0.240849
Zr16	Zr	0.766362	0.878469	-0.030207
Zr17	Zr	0.838029	1.089128	-0.273389
Zr18	Zr	0.909549	0.667781	0.002332
O19	O	0.943369	1.045897	-0.095326
O20	O	0.998111	1.045891	-0.394862
O21	O	0.692617	1.045932	-0.095356
O22	O	1.000218	0.710982	0.123835
O23	O	1.054961	0.710976	-0.175701
O24	O	0.749466	0.711017	0.123805
O25	O	1.081324	0.878426	-0.201548
O26	O	0.886403	0.878451	0.097971
O27	O	0.775829	0.878466	0.097958
O28	O	1.057184	0.878428	-0.069462
O29	O	0.908332	1.177993	-0.415264
O30	O	0.839245	0.578915	0.144208
O31	O	0.979423	0.578895	0.144224
O32	O	1.010026	0.578892	-0.023225
O33	O	0.737552	1.178016	-0.247832
O34	O	0.877730	1.177997	-0.247815
O35	O	0.872507	0.779876	0.027555
O36	O	0.973043	0.779863	-0.071010
O37	O	0.939576	0.977022	-0.200027
O38	O	0.839040	0.977036	-0.101462
C39	C	0.832303	0.614947	-0.094853
C40	C	0.818223	0.525515	-0.081048
C41	C	0.653198	0.878485	-0.135555
C42	C	0.578331	0.878496	-0.135563
C43	C	0.988450	0.273401	-0.247949
C44	C	1.001678	0.357432	-0.260927
C45	C	0.955816	0.399456	-0.215958
C46	C	0.896722	0.357443	-0.158010
C47	C	0.883490	0.273411	-0.145038
C48	C	0.850856	0.399466	-0.113047
C49	C	0.791762	0.357452	-0.055099
C50	C	0.778532	0.273427	-0.042129
C51	C	0.824394	0.231403	-0.087098
C52	C	0.864088	0.483498	-0.126019
C53	C	0.759128	0.483507	-0.023108
C54	C	0.745900	0.399477	-0.010130
C55	C	0.306313	0.878440	-0.135517
C56	C	0.313638	1.002812	-0.216605
C57	C	0.391551	1.002890	-0.216961
C58	C	0.441264	0.878468	-0.135540
C59	C	0.437416	0.816701	-0.171352
C60	C	0.359397	0.817497	-0.171932
C61	C	0.332005	0.814945	-0.018451
C62	C	0.409324	0.817282	-0.018977
C63	C	0.517535	0.878478	-0.135551
C64	C	0.230045	0.878427	-0.135508
C65	C	1.094380	0.878423	-0.135502
C66	C	1.169247	0.878413	-0.135493
C67	C	0.921947	0.878449	-0.399036
C68	C	0.938292	0.878448	-0.488468
C69	C	0.915275	1.141962	-0.176204
C70	C	0.929355	1.231394	-0.190009
C71	C	0.740689	0.878467	-0.740580
C72	C	0.725332	0.878461	-0.656550
C73	C	0.778570	0.878458	-0.614526
C74	C	0.847168	0.878460	-0.656539
C75	C	0.862528	0.878457	-0.740572
C76	C	0.900410	0.878448	-0.614517
C77	C	0.969008	0.878450	-0.656531
C78	C	0.984364	0.878448	-0.740556
C79	C	0.931126	0.878451	-0.782581
C80	C	0.885050	0.878452	-0.530484
C81	C	1.006889	0.878442	-0.530476
C82	C	1.022246	0.878447	-0.614507
C83	C	0.825631	0.878459	0.127979
C84	C	0.809286	0.878461	0.217411
C85	C	1.052894	0.614916	-0.094827
C86	C	1.113681	0.525473	-0.081013
C87	C	0.784145	0.614952	0.168655
C88	C	0.753721	0.525521	0.271891
C89	C	1.004736	0.614921	0.168681
C90	C	1.049178	0.525480	0.271926
C91	C	0.742842	1.141988	-0.439737
C92	C	0.698399	1.231429	-0.542983
C93	C	0.694684	1.141993	-0.176230
C94	C	0.633897	1.231435	-0.190044
C95	C	0.963433	1.141957	-0.439711
C96	C	0.993857	1.231387	-0.542948
C97	C	1.108558	0.483475	-0.125995
C98	C	1.165672	0.399446	-0.113037
C99	C	1.227907	0.357411	-0.055090
C100	C	1.233030	0.399417	-0.010108
C101	C	1.175918	0.483451	-0.023073
C102	C	0.773102	0.483519	0.371842
C103	C	0.744513	0.399501	0.468850
C104	C	0.696545	0.357482	0.465906
C105	C	0.677161	0.399493	0.365945
C106	C	0.705747	0.483515	0.268938
C107	C	1.122535	0.483470	0.268962
C108	C	1.164303	0.399443	0.365962
C109	C	1.132713	0.357421	0.465927
C110	C	1.059350	0.399438	0.468889
C111	C	1.017584	0.483470	0.371888
C112	C	0.625044	1.273448	-0.540020
C113	C	0.583280	1.357502	-0.637025
C114	C	0.614871	1.399529	-0.736990
C115	C	0.688234	1.357506	-0.739951
C116	C	0.729998	1.273459	-0.642948
C117	C	0.639023	1.273442	-0.145072
C118	C	0.581917	1.357494	-0.158057
C119	C	0.519683	1.399533	-0.216007
C120	C	0.514559	1.357522	-0.260985
C121	C	0.571666	1.273477	-0.248006
C122	C	1.041823	1.273380	-0.539969
C123	C	1.070423	1.357398	-0.636961
C124	C	1.051052	1.399428	-0.736932
C125	C	1.003083	1.357427	-0.739908
C126	C	0.974488	1.273404	-0.642916
H127	H	0.912203	0.517698	-0.173201
Cl128	Cl	0.727937	1.410347	-0.865631
Cl129	Cl	0.286021	1.077811	-0.349612
Cl130	Cl	1.299698	0.251765	-0.038798
H131	H	1.074341	1.467844	-0.815901
H132	H	0.599308	1.239235	-0.458632
Cl133	Cl	0.671616	0.346645	0.062722
H134	H	1.033637	0.365211	0.550293
H135	H	0.411912	1.051642	-0.303610
H136	H	0.567482	1.239278	-0.284626
Cl137	Cl	0.833405	0.536322	0.375571
H138	H	1.050241	0.878436	-0.496258
Cl139	Cl	1.182368	0.536230	0.033494
Cl140	Cl	0.972448	0.505093	-0.232270
Cl141	Cl	0.461850	0.677119	0.079842
H142	H	1.057892	0.517700	-0.173193
H143	H	0.473187	1.467967	-0.226567
H144	H	1.049791	0.391637	-0.308109
H145	H	0.523546	1.391703	-0.634593
Cl146	Cl	0.925361	0.536265	0.375635
H147	H	0.789727	1.239248	-0.645373
H148	H	0.580857	1.467964	-0.815968
H149	H	1.025783	0.239186	-0.284565
Cl150	Cl	0.717255	1.220617	-0.072221
H151	H	1.224037	0.365241	0.363532
Cl152	Cl	0.588372	1.410285	-0.101500
Cl153	Cl	0.436315	1.410378	-0.333828
H154	H	0.329030	0.723326	0.042023
Cl155	Cl	0.673770	0.878457	-0.793402
Cl156	Cl	0.807766	0.125755	-0.070776
H157	H	0.689962	0.517702	0.187560
Cl158	Cl	1.066188	1.220558	-0.414304
H159	H	1.109478	1.391586	-0.634518
Cl160	Cl	0.978731	1.410287	-0.865597
H161	H	0.935430	1.239223	-0.645357
H162	H	0.730410	0.239231	0.005046
H163	H	0.721782	0.517726	0.013506
Cl164	Cl	0.472294	0.882926	-0.302281
Cl165	Cl	0.660617	0.251851	0.587870
Cl166	Cl	0.256493	1.078191	-0.181527
Cl167	Cl	0.335913	0.885273	-0.304260
Cl168	Cl	0.392939	1.077709	-0.181553
Cl169	Cl	0.355189	0.676619	-0.085104
Cl170	Cl	0.490785	0.675457	-0.083303
Cl171	Cl	1.159215	0.346651	-0.169588
H172	H	0.829197	0.878450	-0.496284
H173	H	0.295036	0.854745	0.013285
H174	H	0.766064	0.878454	-0.546104
H175	H	0.409846	0.862319	0.007947
H176	H	0.669480	0.878458	-0.622344
H177	H	0.943627	0.878460	-0.851008
H178	H	1.040223	0.878436	-0.774756
Cl179	Cl	1.108481	0.878448	-0.667331
H180	H	1.283709	0.365180	0.037072
Cl181	Cl	1.185229	0.251777	0.587863
H182	H	0.760306	0.365306	0.550232
Cl183	Cl	1.162267	0.536288	0.143303
H184	H	0.638103	0.365268	0.363565
