data_functionalizedCrystal
_audit_creation_method	'MofGen! by Chris Wilmer'
_symmetry_space_group_name_H-M	'P1'
_symmetry_Int_Tables_number	1
_symmetry_cell_setting	triclinic
loop_
_symmetry_equiv_pos_as_xyz
  x,y,z
_cell_length_a	13.635800
_cell_length_b	19.551833
_cell_length_c	19.551595
_cell_angle_alpha	101.123859
_cell_angle_beta	78.339497
_cell_angle_gamma	101.663477
loop_
_atom_site_label
_atom_site_type_symbol
_atom_site_fract_x
_atom_site_fract_y
_atom_site_fract_z
V1	V	1.942186	0.218268	0.097421
O2	O	1.999581	0.213694	-0.003928
O3	O	1.858531	0.217177	0.192445
O4	O	1.914264	0.313278	0.096254
O5	O	1.943462	0.116928	0.092930
V6	V	2.192187	0.206098	0.085260
O7	O	2.054743	0.244963	0.124099
O8	O	2.304729	0.179402	0.058582
O9	O	2.164239	0.207188	-0.009764
O10	O	2.193491	0.210671	0.186609
O11	O	2.249610	0.307437	0.089751
O12	O	2.108506	0.111087	0.086428
V13	V	2.442186	0.218268	0.097421
O14	O	2.499581	0.213694	-0.003928
O15	O	2.358531	0.217177	0.192445
O16	O	2.414264	0.313278	0.096254
O17	O	2.443462	0.116928	0.092930
V18	V	2.692187	0.206098	0.085260
O19	O	2.554743	0.244963	0.124099
O20	O	2.804729	0.179402	0.058582
O21	O	2.664239	0.207188	-0.009764
O22	O	2.693491	0.210671	0.186609
O23	O	2.749610	0.307437	0.089751
O24	O	2.608506	0.111087	0.086428
C25	C	1.766688	0.213838	0.215600
C26	C	1.738909	0.213580	0.293285
C27	C	1.814528	0.216965	0.333342
C28	C	1.788442	0.216733	0.406338
C29	C	1.686735	0.213111	0.439274
C30	C	1.611111	0.209728	0.399212
C31	C	1.637199	0.209965	0.326219
C32	C	1.837781	0.336423	0.092897
C33	C	1.855200	0.414097	0.092571
C34	C	2.087751	0.210526	-0.032915
C35	C	2.105148	0.210788	-0.110599
C36	C	2.016658	0.087939	0.089787
C37	C	1.988861	0.010264	0.090109
C38	C	1.952076	0.454159	0.095926
C39	C	1.968443	0.527142	0.095619
C40	C	1.887924	0.560063	0.091972
C41	C	1.791036	0.519992	0.088613
C42	C	1.774674	0.447009	0.088912
C43	C	1.832748	0.679535	0.129970
C44	C	1.849112	0.752517	0.129675
C45	C	1.938387	0.785166	0.091046
C46	C	2.011310	0.744826	0.052721
C47	C	1.994948	0.671843	0.053021
C48	C	1.905656	0.639200	0.091647
C49	C	2.053016	0.904364	0.094068
C50	C	2.069381	0.977348	0.093757
C51	C	1.891970	0.970197	0.086758
C52	C	1.875610	0.897214	0.087062
C53	C	1.956136	0.864302	0.090720
C54	C	2.202032	0.207463	-0.150653
C55	C	2.218408	0.207800	-0.223632
C56	C	2.137899	0.211476	-0.256551
C57	C	2.041001	0.214798	-0.216489
C58	C	2.024626	0.214454	-0.143513
C59	C	2.109034	0.255856	-0.362823
C60	C	2.125414	0.256204	-0.435797
C61	C	2.188402	0.212534	-0.481634
C62	C	2.235028	0.168523	-0.454487
C63	C	2.218652	0.168179	-0.381511
C64	C	2.155646	0.211849	-0.335681
C65	C	2.303048	0.209572	-0.600820
C66	C	2.319420	0.209905	-0.673801
C67	C	2.142012	0.216910	-0.666655
C68	C	2.125641	0.216570	-0.593677
C69	C	2.206164	0.212905	-0.560763
C70	C	2.266688	0.213838	0.215600
C71	C	2.238909	0.213580	0.293285
C72	C	2.337781	0.336423	0.092897
C73	C	2.355200	0.414097	0.092571
C74	C	2.587751	0.210526	-0.032915
C75	C	2.605148	0.210788	-0.110599
C76	C	2.516658	0.087939	0.089787
C77	C	2.488861	0.010264	0.090109
C78	C	2.452089	0.454150	0.095914
C79	C	2.468473	0.527132	0.095598
C80	C	2.387965	0.560061	0.091945
C81	C	2.291069	0.520003	0.088599
C82	C	2.274688	0.447021	0.088910
C83	C	2.702023	0.207405	-0.150656
C84	C	2.718380	0.207641	-0.223651
C85	C	2.637864	0.211264	-0.256588
C86	C	2.540981	0.214645	-0.216526
C87	C	2.524623	0.214405	-0.143533
C88	C	2.387142	-0.022647	0.093755
C89	C	2.361011	-0.095632	0.094049
C90	C	2.436600	-0.135703	0.090703
C91	C	2.538327	-0.102788	0.087055
C92	C	2.564458	-0.029806	0.086756
H93	H	1.897347	0.219910	0.306534
N94	N	2.072936	0.570363	0.099237
H95	H	2.121465	0.538439	0.101599
H96	H	2.069670	0.607765	0.142812
N97	N	2.538942	0.418650	0.099845
H98	H	2.550004	0.381559	0.056583
H99	H	2.522159	0.395543	0.143700
N100	N	2.073582	0.628326	0.011684
H101	H	2.140006	0.646240	0.029693
H102	H	2.083675	0.632459	-0.040067
N103	N	2.038931	0.418662	0.099857
H104	H	2.013869	0.366348	0.099537
H105	H	2.066617	0.439945	0.144880
N106	N	2.423923	0.206324	-0.717004
H107	H	2.448564	0.249855	-0.740450
H108	H	2.420695	0.162738	-0.754394
H109	H	2.415307	-0.195129	0.090957
H110	H	2.057730	0.291415	-0.325508
H111	H	2.599865	-0.135426	0.084329
N112	N	1.670177	0.403802	0.085300
H113	H	1.645526	0.380330	0.128814
H114	H	1.673416	0.366432	0.041698
H115	H	1.665507	0.212919	0.498711
H116	H	2.647287	-0.003015	0.083791
H117	H	2.076460	0.219901	-0.693457
N118	N	1.870007	0.220322	0.449526
H119	H	1.838056	0.219611	0.500764
H120	H	1.920636	0.265421	0.445266
N121	N	1.501413	0.205803	0.434738
H122	H	1.496371	0.206157	0.487055
H123	H	1.459971	0.160761	0.413487
N124	N	2.021142	0.220161	-0.550475
H125	H	1.999121	0.265296	-0.554622
H126	H	2.023055	0.219355	-0.499270
N127	N	2.075138	0.303675	-0.465074
H128	H	2.032741	0.331282	-0.424966
H129	H	2.030122	0.273899	-0.498744
N130	N	1.771118	0.853998	0.083458
H131	H	1.774283	0.816591	0.039882
H132	H	1.722644	0.885973	0.081131
H133	H	2.084007	0.771407	0.021268
H134	H	1.826411	0.997000	0.083783
N135	N	2.303008	0.121454	-0.503929
H136	H	2.373539	0.134086	-0.491512
H137	H	2.306217	0.128394	-0.554251
N138	N	1.555631	0.206314	0.283018
H139	H	1.487247	0.203982	0.314964
H140	H	1.555281	0.162712	0.245648
H141	H	1.789736	0.785358	0.160886
H142	H	2.547375	0.559739	0.098326
N143	N	2.139862	0.868860	0.098011
H144	H	2.203720	0.905315	0.100084
H145	H	2.150843	0.831765	0.054744
H146	H	2.195789	0.414415	0.086189
N147	N	1.736453	0.644324	0.171636
H148	H	1.692746	0.680952	0.195873
H149	H	1.754256	0.621110	0.208323
N150	N	2.173878	1.020559	0.097362
H151	H	2.222403	0.988632	0.099723
H152	H	2.170628	1.057967	0.140932
H153	H	1.975451	0.217789	-0.243297
H154	H	1.725479	0.546800	0.085642
N155	N	2.405648	0.638774	0.091588
H156	H	2.479248	0.659145	0.094255
H157	H	2.360815	0.661887	0.133678
H158	H	2.267601	0.204477	-0.123860
N159	N	2.322909	0.204212	-0.266846
H160	H	2.371433	0.201836	-0.234922
H161	H	2.347466	0.247749	-0.290286
H162	H	2.225525	0.546824	0.085625
H163	H	2.256615	0.132343	-0.359411
H164	H	2.368614	0.206584	-0.574021
H165	H	2.767596	0.204456	-0.123849
N166	N	1.920125	0.218038	-0.100307
H167	H	1.871603	0.220415	-0.132232
H168	H	1.923373	0.261595	-0.062882
H169	H	2.797273	0.204888	-0.256259
N170	N	2.655515	0.211527	-0.335316
H171	H	2.729108	0.208837	-0.355688
H172	H	2.638500	0.256510	-0.344507
N173	N	2.454145	0.218556	-0.252055
H174	H	2.479220	0.218199	-0.304372
H175	H	2.426482	0.263593	-0.230808
N176	N	2.420131	0.218058	-0.100337
H177	H	2.398133	0.263178	-0.104557
H178	H	2.422046	0.217328	-0.049116
N179	N	2.305597	0.020559	0.097366
H180	H	2.269593	0.002449	0.055399
H181	H	2.337639	0.071779	0.096649
N182	N	2.251287	-0.131115	0.097993
H183	H	2.229200	-0.154271	0.141817
H184	H	2.243848	-0.168166	0.054697
