data_functionalizedCrystal
_audit_creation_method	'MofGen! by Chris Wilmer'
_symmetry_space_group_name_H-M	'P1'
_symmetry_Int_Tables_number	1
_symmetry_cell_setting	triclinic
loop_
_symmetry_equiv_pos_as_xyz
  x,y,z
_cell_length_a	15.711784
_cell_length_b	10.654550
_cell_length_c	9.730223
_cell_angle_alpha	89.998384
_cell_angle_beta	89.998239
_cell_angle_gamma	102.036852
loop_
_atom_site_label
_atom_site_type_symbol
_atom_site_fract_x
_atom_site_fract_y
_atom_site_fract_z
O1	O	1.151072	0.690670	-0.114358
O2	O	0.898833	0.594780	-0.114346
O3	O	1.030752	0.462577	-0.114342
O4	O	1.019153	0.822873	-0.114361
O5	O	1.030750	0.462581	0.114238
O6	O	0.898832	0.594785	0.114234
O7	O	1.151070	0.690674	0.114222
Zn8	Zn	1.024951	0.642730	0.150520
Zn9	Zn	1.024953	0.642724	-0.150644
O10	O	1.019152	0.822877	0.114219
C11	C	0.866534	0.579118	-0.000054
C12	C	0.770296	0.532429	-0.000049
C13	C	0.644295	0.356660	-0.000039
C14	C	0.734724	0.400545	-0.000042
C15	C	0.715446	0.620482	-0.000060
C16	C	0.625013	0.576615	-0.000063
C17	C	0.589445	0.444703	-0.000051
C18	C	0.570163	0.664659	-0.000075
C19	C	0.479739	0.620796	-0.000070
C20	C	0.444163	0.488889	-0.000054
C21	C	0.499020	0.400840	-0.000046
C22	C	0.605733	0.796570	-0.000077
C23	C	0.550883	0.884614	-0.000089
C24	C	0.460457	0.840751	-0.000095
C25	C	0.424882	0.708845	-0.000078
C26	C	0.405600	0.928800	-0.000102
C27	C	0.315175	0.884937	-0.000098
C28	C	0.334457	0.664982	-0.000074
C29	C	1.029900	0.415400	-0.000052
C30	C	1.027352	0.274819	-0.000053
C31	C	1.183369	0.706336	-0.000072
C32	C	1.279607	0.753025	-0.000086
C33	C	1.020004	0.870054	-0.000074
C34	C	1.022552	1.010635	-0.000082
N35	N	1.024956	0.642736	0.356057
C36	C	0.944880	1.055419	-0.000066
C37	C	0.947280	1.187512	-0.000056
C38	C	1.105029	1.230028	-0.000074
C39	C	1.102629	1.097937	-0.000093
C40	C	0.853805	1.030874	-0.000049
C41	C	0.856204	1.162967	-0.000040
N42	N	1.024955	0.642712	-0.356180
C43	C	1.083385	0.584232	0.427984
C44	C	1.083382	0.584215	0.571867
C45	C	0.966520	0.701217	0.571882
C46	C	0.966518	0.701225	0.428002
C47	C	1.150857	0.516686	0.427977
C48	C	1.150855	0.516670	0.571860
H49	H	0.470059	0.293425	-0.000051
C50	C	1.240816	0.586029	0.624616
N51	N	1.308565	0.638303	0.664351
H52	H	0.918934	0.748849	0.369439
H53	H	0.434574	1.036203	-0.000099
H54	H	0.615334	0.249244	-0.000043
H55	H	1.165877	1.061481	-0.000123
H56	H	1.129796	0.416039	0.616482
C57	C	0.295327	0.519871	-0.000075
N58	N	0.265855	0.410578	-0.000074
H59	H	0.828685	1.196330	-0.098730
H60	H	0.818181	0.985616	-0.095705
H61	H	0.744418	0.727885	-0.000065
C62	C	0.902241	0.765549	0.651035
N63	N	0.853824	0.814005	0.710652
C64	C	1.235876	0.595986	0.367676
N65	N	1.299912	0.655715	0.322256
C66	C	0.705204	0.844818	-0.000086
N67	N	0.780126	0.881156	-0.000097
C68	C	0.809855	1.198657	0.129206
N69	N	0.774950	1.225539	0.226553
C70	C	0.814618	0.965208	0.133273
N71	N	0.785102	0.915747	0.233692
C72	C	0.590019	1.029714	-0.000103
N73	N	0.619495	1.139006	-0.000118
H74	H	0.370533	0.453178	-0.000038
C75	C	1.130858	0.377346	0.375218
N76	N	1.115793	0.272397	0.335481
H77	H	1.170225	1.301124	-0.000107
H78	H	0.270515	0.956631	-0.000102
H79	H	0.779381	0.328838	-0.000037
