data_functionalizedCrystal
_audit_creation_method	'MofGen! by Chris Wilmer'
_symmetry_space_group_name_H-M	'P1'
_symmetry_Int_Tables_number	1
_symmetry_cell_setting	triclinic
loop_
_symmetry_equiv_pos_as_xyz
  x,y,z
_cell_length_a	16.959455
_cell_length_b	16.959454
_cell_length_c	18.215399
_cell_angle_alpha	89.976304
_cell_angle_beta	89.981437
_cell_angle_gamma	90.017022
loop_
_atom_site_label
_atom_site_type_symbol
_atom_site_fract_x
_atom_site_fract_y
_atom_site_fract_z
Zn1	Zn	1.208417	-0.314754	-0.416113
Zn2	Zn	1.208330	-0.446939	-0.293056
Zn3	Zn	1.076236	-0.314772	-0.293063
Zn4	Zn	1.076210	-0.446887	-0.416083
O5	O	1.142298	-0.380838	-0.354579
O6	O	1.319016	-0.332303	-0.399798
O7	O	1.190781	-0.429436	-0.190072
O8	O	1.093817	-0.204159	-0.309401
O9	O	1.318952	-0.429419	-0.309389
O10	O	1.190930	-0.204146	-0.399805
O11	O	1.093732	-0.332333	-0.190077
O12	O	0.965621	-0.332283	-0.309372
O13	O	1.093773	-0.429330	-0.519071
O14	O	0.965602	-0.429348	-0.399755
O15	O	1.190905	-0.332253	-0.519093
O16	O	1.190756	-0.557543	-0.309360
O17	O	1.093689	-0.557505	-0.399748
C18	C	0.936932	-0.380812	-0.354562
C19	C	0.849075	-0.380820	-0.354572
C20	C	1.142232	-0.586204	-0.354566
C21	C	1.142276	-0.674061	-0.354585
C22	C	0.477585	-0.330255	-0.307615
C23	C	0.477614	-0.431486	-0.401585
C24	C	0.560160	-0.431475	-0.401580
C25	C	0.601422	-0.380854	-0.354591
C26	C	0.560138	-0.330244	-0.307607
C27	C	0.601450	-0.482089	-0.448558
C28	C	0.684001	-0.482081	-0.448555
C29	C	0.725265	-0.431455	-0.401569
C30	C	0.683976	-0.380843	-0.354584
C31	C	0.725238	-0.330221	-0.307595
C32	C	0.683950	-0.279604	-0.260613
C33	C	0.601402	-0.279618	-0.260622
C34	C	0.807813	-0.431441	-0.401561
C35	C	0.807791	-0.330210	-0.307588
C36	C	1.091828	-1.045547	-0.401638
C37	C	1.192988	-1.045527	-0.307594
C38	C	1.192960	-0.962981	-0.307587
C39	C	1.142365	-0.921714	-0.354606
C40	C	1.091797	-0.962993	-0.401632
C41	C	1.243521	-0.921695	-0.260557
C42	C	1.243495	-0.839144	-0.260547
C43	C	1.192903	-0.797876	-0.307571
C44	C	1.142334	-0.839160	-0.354599
C45	C	1.091739	-0.797894	-0.401618
C46	C	1.041173	-0.839176	-0.448650
C47	C	1.041205	-0.921725	-0.448655
C48	C	1.192871	-0.715328	-0.307566
C49	C	1.091708	-0.715340	-0.401611
C50	C	1.348466	-0.380865	-0.354596
C51	C	1.436323	-0.380876	-0.354603
C52	C	1.142346	-0.380784	-0.546532
C53	C	1.142367	-0.380760	-0.628330
C54	C	1.142386	-0.174670	-0.354607
C55	C	1.142423	-0.086813	-0.354619
C56	C	1.192961	-0.330165	-0.816537
C57	C	1.192971	-0.330142	-0.893396
C58	C	1.091828	-0.431234	-0.893362
C59	C	1.091815	-0.431252	-0.816505
C60	C	1.142386	-0.380719	-0.778094
C61	C	1.142409	-0.380677	-0.931810
C62	C	1.142418	-0.380653	-1.015144
C63	C	1.142376	-0.380742	-0.694755
C64	C	1.142295	-0.380835	-0.163372
C65	C	1.142428	-0.380636	-0.081574
H66	H	0.841381	-0.288983	-0.269328
H67	H	0.443965	-0.289042	-0.269365
Br68	Br	1.312186	-0.977703	-0.196752
H69	H	0.999974	-0.805568	-0.486930
Br70	Br	1.261617	-0.261535	-0.945566
Br71	Br	1.023046	-0.659342	-0.465432
Br72	Br	0.421616	-0.500203	-0.465333
Br73	Br	1.023212	-1.101569	-0.465471
H74	H	1.050625	-0.472419	-0.785203
H75	H	1.234037	-0.681719	-0.269270
Br76	Br	1.312124	-0.783125	-0.196725
Br77	Br	0.545449	-0.550815	-0.512297
Br78	Br	0.739959	-0.210914	-0.196838
Br79	Br	0.740027	-0.550773	-0.512316
Br80	Br	1.261592	-0.261583	-0.764410
Br81	Br	1.261649	-1.101531	-0.243784
H82	H	1.050656	-0.472378	-0.924645
H83	H	0.567779	-0.238409	-0.222370
H84	H	0.841425	-0.472655	-0.439811
H85	H	1.000037	-0.955345	-0.486945
