data_functionalizedCrystal
_audit_creation_method	'MofGen! by Chris Wilmer'
_symmetry_space_group_name_H-M	'P1'
_symmetry_Int_Tables_number	1
_symmetry_cell_setting	triclinic
loop_
_symmetry_equiv_pos_as_xyz
  x,y,z
_cell_length_a	6.817900
_cell_length_b	11.168121
_cell_length_c	12.200875
_cell_angle_alpha	92.527554
_cell_angle_beta	107.143593
_cell_angle_gamma	108.508496
loop_
_atom_site_label
_atom_site_type_symbol
_atom_site_fract_x
_atom_site_fract_y
_atom_site_fract_z
V1	V	-4.093962	-0.174991	-0.357670
O2	O	-4.053850	0.008114	-0.350852
O3	O	-4.070358	-0.346695	-0.355234
O4	O	-4.063310	-0.172429	-0.513659
O5	O	-4.060947	-0.167358	-0.191330
V6	V	-4.572077	-0.153075	-0.337774
O7	O	-4.367083	-0.223068	-0.401316
O8	O	-4.749154	-0.104998	-0.294129
O9	O	-4.372475	0.018629	-0.340210
O10	O	-4.729586	-0.336180	-0.344592
O11	O	-4.722489	-0.160708	-0.504114
O12	O	-4.379523	-0.155637	-0.181786
C13	C	-3.920817	-0.388548	-0.349594
C14	C	-3.982923	-0.528919	-0.348641
C15	C	-4.185209	-0.597615	-0.353657
C16	C	-4.249403	-0.742696	-0.352673
C17	C	-3.911825	-0.166254	-0.551679
C18	C	-3.968211	-0.165295	-0.679200
C19	C	-4.071405	-0.163541	-0.912674
C20	C	-4.013972	-0.164516	-0.782752
C21	C	-4.185359	0.060476	-0.345847
C22	C	-4.102492	0.200845	-0.346807
C23	C	-4.194350	-0.161817	-0.143759
C24	C	-4.117202	-0.162769	-0.016237
H25	H	-3.857267	-0.577514	-0.343624
C26	C	-4.352557	-0.532720	-0.360112
C27	C	-4.277630	-0.440287	-0.261792
C28	C	-4.431748	-0.380493	-0.267689
H29	H	-4.372683	-0.493006	-0.427829
H30	H	-4.487806	-0.594580	-0.363070
H31	H	-4.142419	-0.378436	-0.258846
H32	H	-4.257516	-0.479968	-0.194060
H33	H	-4.566997	-0.442353	-0.270647
H34	H	-4.451864	-0.340786	-0.335410
H35	H	-4.380941	-0.317779	-0.200976
C36	C	-4.480300	-0.821547	-0.358205
C37	C	-4.472364	-0.880566	-0.258882
C38	C	-4.685027	-0.953228	-0.263943
H39	H	-4.564340	-0.767443	-0.361956
H40	H	-4.545893	-0.884928	-0.425259
H41	H	-4.406801	-0.817194	-0.191846
H42	H	-4.388366	-0.934692	-0.255111
H43	H	-4.750620	-1.016609	-0.330997
H44	H	-4.769050	-0.899115	-0.267697
H45	H	-4.679669	-0.993290	-0.196560
H46	H	-3.929195	-0.740108	-0.342509
