data_functionalizedCrystal
_audit_creation_method	'MofGen! by Chris Wilmer'
_symmetry_space_group_name_H-M	'P1'
_symmetry_Int_Tables_number	1
_symmetry_cell_setting	triclinic
loop_
_symmetry_equiv_pos_as_xyz
  x,y,z
_cell_length_a	22.010155
_cell_length_b	19.188930
_cell_length_c	19.188930
_cell_angle_alpha	83.144779
_cell_angle_beta	89.999121
_cell_angle_gamma	89.977687
loop_
_atom_site_label
_atom_site_type_symbol
_atom_site_fract_x
_atom_site_fract_y
_atom_site_fract_z
O1	O	0.050727	-0.926150	-0.087158
O2	O	0.384061	-0.592817	0.246175
O3	O	0.717394	-0.259483	0.579509
O4	O	0.050686	-0.722839	-0.098892
O5	O	0.384020	-0.389505	0.234441
O6	O	0.717353	-0.056172	0.567775
O7	O	0.050696	-0.830361	0.008631
O8	O	0.384029	-0.497028	0.341964
O9	O	0.717363	-0.163695	0.675297
O10	O	0.050718	-0.818627	-0.194681
O11	O	0.384051	-0.485294	0.138653
O12	O	0.717384	-0.151961	0.471986
O13	O	-0.050354	-0.830342	0.008615
O14	O	0.282979	-0.497009	0.341948
O15	O	0.616312	-0.163675	0.675281
O16	O	-0.050364	-0.722819	-0.098908
O17	O	0.282969	-0.389486	0.234425
O18	O	0.616303	-0.056152	0.567758
O19	O	-0.050323	-0.926130	-0.087174
O20	O	0.283010	-0.592797	0.246159
O21	O	0.616344	-0.259464	0.579493
Cu22	Cu	-0.059570	-0.824473	-0.093043
Cu23	Cu	0.273763	-0.491140	0.240291
Cu24	Cu	0.607096	-0.157806	0.573624
Cu25	Cu	0.059934	-0.824496	-0.093024
Cu26	Cu	0.393267	-0.491163	0.240310
Cu27	Cu	0.726600	-0.157829	0.573643
O28	O	-0.050333	-0.818608	-0.194697
O29	O	0.283001	-0.485274	0.138637
O30	O	0.616334	-0.151941	0.471970
C31	C	0.000156	-0.696818	-0.098520
C32	C	0.333489	-0.363485	0.234813
C33	C	0.666823	-0.030151	0.568146
C34	C	0.000140	-0.619313	-0.097380
C35	C	0.333473	-0.285980	0.235954
C36	C	0.666807	0.047353	0.569287
C37	C	0.000169	-0.829972	0.034634
C38	C	0.333502	-0.496638	0.367967
C39	C	0.666836	-0.163305	0.701300
C40	C	0.000164	-0.828831	0.112138
C41	C	0.333497	-0.495498	0.445471
C42	C	0.666830	-0.162164	0.778805
N43	N	-0.143623	-0.824462	-0.093056
N44	N	0.189711	-0.491129	0.240278
N45	N	0.523044	-0.157795	0.573611
C46	C	-0.563398	-0.872110	-0.045419
C47	C	-0.230064	-0.538777	0.287914
C48	C	0.103269	-0.205443	0.621247
C49	C	-0.627005	-0.872113	-0.045414
C50	C	-0.293672	-0.538780	0.287919
C51	C	0.039661	-0.205447	0.621252
O52	O	-0.659893	-0.912597	-0.004921
O53	O	-0.326560	-0.579264	0.328412
O54	O	0.006773	-0.245931	0.661745
N55	N	-0.658830	-0.824496	-0.093009
N56	N	-0.325496	-0.491162	0.240324
N57	N	0.007837	-0.157829	0.573658
C58	C	-0.627043	-0.776867	-0.140607
C59	C	-0.293710	-0.443534	0.192727
C60	C	0.039623	-0.110201	0.526060
O61	O	-0.659953	-0.736365	-0.181089
O62	O	-0.326620	-0.403031	0.152245
O63	O	0.006714	-0.069698	0.485578
C64	C	-0.563437	-0.776861	-0.140608
C65	C	-0.230104	-0.443528	0.192726
C66	C	0.103230	-0.110195	0.526059
C67	C	-0.531616	-0.824486	-0.093015
C68	C	-0.198282	-0.491153	0.240319
C69	C	0.135051	-0.157820	0.573652
C70	C	-0.531577	-0.919731	0.002170
C71	C	-0.198243	-0.586398	0.335504
C72	C	0.135090	-0.253064	0.668837
C73	C	-0.467973	-0.919728	0.002165
C74	C	-0.134640	-0.586395	0.335498
C75	C	0.198693	-0.253062	0.668831
C76	C	-0.436191	-0.872105	-0.045431
C77	C	-0.102858	-0.538771	0.287902
C78	C	0.230475	-0.205438	0.621236
C79	C	-0.468013	-0.824484	-0.093020
C80	C	-0.134679	-0.491151	0.240313
C81	C	0.198654	-0.157817	0.573646
C82	C	-0.531652	-0.729230	-0.188201
C83	C	-0.198318	-0.395897	0.145132
C84	C	0.135015	-0.062563	0.478465
C85	C	-0.468041	-0.729228	-0.188198
C86	C	-0.134707	-0.395894	0.145136
C87	C	0.198626	-0.062561	0.478469
C88	C	-0.436220	-0.776853	-0.140605
C89	C	-0.102886	-0.443520	0.192728
C90	C	0.230447	-0.110186	0.526062
C91	C	-0.372627	-0.776858	-0.140622
C92	C	-0.039294	-0.443525	0.192712
C93	C	0.294039	-0.110191	0.526045
N94	N	-0.340803	-0.824475	-0.093027
N95	N	-0.007470	-0.491142	0.240306
N96	N	0.325864	-0.157809	0.573639
C97	C	-0.372585	-0.872099	-0.045432
C98	C	-0.039252	-0.538765	0.287902
C99	C	0.294082	-0.205432	0.621235
C100	C	-0.760621	-0.776883	-0.140600
C101	C	-0.427288	-0.443549	0.192733
C102	C	-0.093954	-0.110216	0.526066
C103	C	-0.824226	-0.776891	-0.140603
C104	C	-0.490893	-0.443558	0.192730
C105	C	-0.157560	-0.110225	0.526063
C106	C	-0.824184	-0.872137	-0.045410
C107	C	-0.490851	-0.538803	0.287923
C108	C	-0.157517	-0.205470	0.621257
C109	C	-0.760578	-0.872131	-0.045411
C110	C	-0.427244	-0.538797	0.287922
C111	C	-0.093911	-0.205464	0.621256
C112	C	-0.728797	-0.824500	-0.093006
C113	C	-0.395463	-0.491167	0.240328
C114	C	-0.062130	-0.157833	0.573661
C115	C	-0.239014	-0.872090	-0.045448
C116	C	0.094320	-0.538757	0.287885
C117	C	0.427653	-0.205424	0.621219
C118	C	-0.175405	-0.872085	-0.045460
C119	C	0.157929	-0.538752	0.287873
C120	C	0.491262	-0.205419	0.621207
C121	C	-0.175453	-0.776838	-0.140651
C122	C	0.157881	-0.443505	0.192683
C123	C	0.491214	-0.110171	0.526016
C124	C	-0.239056	-0.776845	-0.140641
C125	C	0.094277	-0.443512	0.192692
C126	C	0.427611	-0.110178	0.526025
C127	C	-0.270835	-0.824474	-0.093034
C128	C	0.062499	-0.491140	0.240299
C129	C	0.395832	-0.157807	0.573632
O130	O	-0.339699	-0.736393	-0.181092
O131	O	-0.006366	-0.403059	0.152241
O132	O	0.326968	-0.069726	0.485574
O133	O	-0.339667	-0.912588	-0.004950
O134	O	-0.006334	-0.579255	0.328383
O135	O	0.326999	-0.245922	0.661716
N136	N	0.143986	-0.824513	-0.093005
N137	N	0.477319	-0.491179	0.240328
N138	N	0.810653	-0.157846	0.573662
C139	C	0.000209	-0.952151	-0.087546
C140	C	0.333542	-0.618818	0.245787
C141	C	0.666875	-0.285485	0.579121
C142	C	0.000229	-1.029656	-0.088687
C143	C	0.333562	-0.696322	0.244647
C144	C	0.666895	-0.362989	0.577980
C145	C	0.000156	-0.574389	-0.160470
C146	C	0.333489	-0.241056	0.172863
C147	C	0.666823	0.092277	0.506196
C148	C	0.000163	-0.501566	-0.159399
C149	C	0.333496	-0.168232	0.173935
C150	C	0.666829	0.165101	0.507268
C151	C	0.000165	-0.473669	-0.095233
C152	C	0.333499	-0.140336	0.238101
C153	C	0.666832	0.192998	0.571434
C154	C	0.000146	-0.518603	-0.032133
C155	C	0.333479	-0.185270	0.301200
C156	C	0.666812	0.148064	0.634533
C157	C	0.000133	-0.591425	-0.033207
C158	C	0.333466	-0.258092	0.300126
C159	C	0.666800	0.075242	0.633460
N160	N	0.034576	-0.365696	-0.046180
N161	N	0.367910	-0.032362	0.287153
N162	N	0.701243	0.300971	0.620487
N163	N	0.034590	-0.296517	-0.045165
N164	N	0.367923	0.036816	0.288169
N165	N	0.701256	0.370150	0.621502
C166	C	0.000202	-0.254260	-0.091994
C167	C	0.333535	0.079073	0.241339
C168	C	0.666869	0.412406	0.574672
N169	N	-0.034192	-0.283795	-0.139889
N170	N	0.299141	0.049539	0.193445
N171	N	0.632475	0.382872	0.526778
N172	N	-0.034202	-0.352979	-0.140906
N173	N	0.299131	-0.019646	0.192427
N174	N	0.632464	0.313687	0.525760
C175	C	0.000179	-0.394707	-0.094061
C176	C	0.333512	-0.061373	0.239272
C177	C	0.666845	0.271960	0.572605
C178	C	0.000224	-0.130372	-0.153928
C179	C	0.333558	0.202961	0.179406
C180	C	0.666891	0.536295	0.512739
C181	C	0.000227	-0.057547	-0.152853
C182	C	0.333561	0.275786	0.180480
C183	C	0.666894	0.609119	0.513813
C184	C	0.000216	-0.074586	-0.025586
C185	C	0.333550	0.258747	0.307747
C186	C	0.666883	0.592081	0.641080
C187	C	0.000207	-0.147409	-0.026662
C188	C	0.333541	0.185924	0.306671
C189	C	0.666874	0.519257	0.640004
C190	C	0.000214	-0.175298	-0.090835
C191	C	0.333548	0.158036	0.242498
C192	C	0.666881	0.491369	0.575832
C193	C	0.000196	-0.818997	-0.220700
C194	C	0.333529	-0.485664	0.112634
C195	C	0.666862	-0.152331	0.445967
C196	C	0.000205	-0.820138	-0.298204
C197	C	0.333538	-0.486805	0.035129
C198	C	0.666872	-0.153471	0.368462
C199	C	0.000173	-0.891922	0.157062
C200	C	0.333507	-0.558589	0.490395
C201	C	0.666840	-0.225255	0.823729
C202	C	0.000183	-0.890850	0.229886
C203	C	0.333516	-0.557517	0.563219
C204	C	0.666850	-0.224184	0.896553
C205	C	0.000171	-0.826684	0.257782
C206	C	0.333504	-0.493351	0.591116
C207	C	0.666837	-0.160017	0.924449
C208	C	0.000164	-0.763585	0.212849
C209	C	0.333498	-0.430252	0.546182
C210	C	0.666831	-0.096918	0.879515
C211	C	0.000161	-0.764658	0.140026
C212	C	0.333494	-0.431325	0.473360
C213	C	0.666827	-0.097992	0.806693
N214	N	-0.034229	-0.777630	0.365782
N215	N	0.299105	-0.444297	0.699115
N216	N	0.632438	-0.110963	1.032449
N217	N	-0.034227	-0.776615	0.434961
N218	N	0.299107	-0.443281	0.768294
N219	N	0.632440	-0.109948	1.101627
C220	C	0.000182	-0.823446	0.477191
C221	C	0.333516	-0.490113	0.810524
C222	C	0.666849	-0.156779	1.143858
N223	N	0.034581	-0.871342	0.447631
N224	N	0.367915	-0.538008	0.780964
N225	N	0.701248	-0.204675	1.114298
N226	N	0.034577	-0.872359	0.378446
N227	N	0.367910	-0.539026	0.711780
N228	N	0.701243	-0.205693	1.045113
C229	C	0.000175	-0.825513	0.336745
C230	C	0.333508	-0.492180	0.670078
C231	C	0.666841	-0.158846	1.003412
C232	C	0.000203	-0.885379	0.601079
C233	C	0.333536	-0.552046	0.934413
C234	C	0.666870	-0.218712	1.267746
C235	C	0.000216	-0.884305	0.673904
C236	C	0.333550	-0.550971	1.007238
C237	C	0.666883	-0.217638	1.340571
C238	C	0.000192	-0.757038	0.656865
C239	C	0.333525	-0.423704	0.990199
C240	C	0.666858	-0.090371	1.323532
C241	C	0.000184	-0.758114	0.584042
C242	C	0.333518	-0.424781	0.917376
C243	C	0.666851	-0.091447	1.250709
C244	C	0.000187	-0.822287	0.556154
C245	C	0.333521	-0.488953	0.889487
C246	C	0.666854	-0.155620	1.222821
H247	H	-0.149498	-0.910870	-0.006704
H248	H	0.183835	-0.577537	0.326629
H249	H	0.517169	-0.244203	0.659962
H250	H	0.000256	-0.051874	0.026659
H251	H	0.333589	0.281460	0.359992
H252	H	0.666923	0.614793	0.693326
Br253	Br	-0.867405	-0.712266	-0.205207
Br254	Br	-0.534072	-0.378933	0.128126
Br255	Br	-0.200738	-0.045600	0.461459
Br256	Br	0.000149	-0.679028	0.079054
Br257	Br	0.333483	-0.345695	0.412387
Br258	Br	0.666816	-0.012362	0.745720
Br259	Br	-0.282240	-0.712218	-0.205243
Br260	Br	0.051093	-0.378885	0.128090
Br261	Br	0.384427	-0.045551	0.461424
Br262	Br	0.000236	-0.969936	0.734875
Br263	Br	0.333569	-0.636603	1.068209
Br264	Br	0.666903	-0.303269	1.401542
Br265	Br	-0.717399	-0.936767	0.019182
Br266	Br	-0.384066	-0.603434	0.352515
Br267	Br	-0.050732	-0.270101	0.685848
H268	H	0.000198	-0.183988	0.024713
H269	H	0.333531	0.149346	0.358046
H270	H	0.666864	0.482679	0.691380
H271	H	-0.734748	-0.738098	-0.179363
H272	H	-0.401415	-0.404764	0.153970
H273	H	-0.068081	-0.071431	0.487303
Br274	Br	0.000201	-0.972468	0.563226
Br275	Br	0.333534	-0.639135	0.896560
Br276	Br	0.666868	-0.305801	1.229893
H277	H	0.000184	-0.704792	0.679578
H278	H	0.333518	-0.371459	1.012911
H279	H	0.666851	-0.038126	1.346245
Br280	Br	-0.574824	-0.664592	-0.252794
Br281	Br	-0.241491	-0.331259	0.080539
Br282	Br	0.091842	0.002074	0.413872
H283	H	0.000237	-0.020970	-0.204232
H284	H	0.333570	0.312363	0.129102
H285	H	0.666904	0.645697	0.462435
Br286	Br	-0.132310	-0.712210	-0.205244
Br287	Br	0.201024	-0.378877	0.128089
Br288	Br	0.534357	-0.045543	0.461422
H289	H	0.000221	-0.153080	-0.206181
H290	H	0.333555	0.180253	0.127153
H291	H	0.666888	0.513587	0.460486
Br292	Br	0.000194	-0.979013	0.119216
Br293	Br	0.333528	-0.645679	0.452550
Br294	Br	0.666861	-0.312346	0.785883
Br295	Br	0.000199	-0.976479	0.290866
Br296	Br	0.333532	-0.643146	0.624199
Br297	Br	0.666866	-0.309813	0.957533
Br298	Br	0.000155	-0.676502	0.250706
Br299	Br	0.333488	-0.343168	0.584039
Br300	Br	0.666822	-0.009835	0.917373
Br301	Br	0.000171	-0.672486	0.523070
Br302	Br	0.333504	-0.339152	0.856403
Br303	Br	0.666837	-0.005819	1.189736
H304	H	-0.442068	-0.958507	0.040921
H305	H	-0.108735	-0.625174	0.374254
H306	H	0.224598	-0.291840	0.707587
Br307	Br	0.000143	-0.480745	0.054950
Br308	Br	0.333476	-0.147412	0.388283
Br309	Br	0.666810	0.185921	0.721617
H310	H	-0.557448	-0.958512	0.040932
H311	H	-0.224115	-0.625178	0.374265
H312	H	0.109219	-0.291845	0.707598
Br313	Br	-0.282132	-0.936730	0.019162
Br314	Br	0.051202	-0.603397	0.352496
Br315	Br	0.384535	-0.270063	0.685829
H316	H	-0.442168	-0.690439	-0.226955
H317	H	-0.108834	-0.357105	0.106379
H318	H	0.224499	-0.023772	0.439712
H319	H	0.000163	-0.597091	-0.212725
H320	H	0.333496	-0.263758	0.120609
H321	H	0.666830	0.069576	0.453942
H322	H	0.000174	-0.464982	-0.210776
H323	H	0.333507	-0.131648	0.122557
H324	H	0.666841	0.201685	0.455890
H325	H	0.000120	-0.628003	0.018171
H326	H	0.333453	-0.294670	0.351504
H327	H	0.666787	0.038664	0.684838
Br328	Br	-0.867330	-0.936769	0.019184
Br329	Br	-0.533997	-0.603435	0.352517
Br330	Br	-0.200664	-0.270102	0.685851
