data_functionalizedCrystal
_audit_creation_method	'MofGen! by Chris Wilmer'
_symmetry_space_group_name_H-M	'P1'
_symmetry_Int_Tables_number	1
_symmetry_cell_setting	triclinic
loop_
_symmetry_equiv_pos_as_xyz
  x,y,z
_cell_length_a	18.215407
_cell_length_b	16.120484
_cell_length_c	18.215399
_cell_angle_alpha	92.867230
_cell_angle_beta	89.983176
_cell_angle_gamma	92.926015
loop_
_atom_site_label
_atom_site_type_symbol
_atom_site_fract_x
_atom_site_fract_y
_atom_site_fract_z
Zn1	Zn	1.110191	-0.331886	-0.430959
Zn2	Zn	1.443524	0.001447	-0.097626
Zn3	Zn	1.776858	0.334781	0.235708
Zn4	Zn	1.103863	-0.471313	-0.314128
Zn5	Zn	1.437197	-0.137980	0.019205
Zn6	Zn	1.770530	0.195354	0.352538
Zn7	Zn	0.987128	-0.331919	-0.307908
Zn8	Zn	1.320462	0.001414	0.025426
Zn9	Zn	1.653795	0.334748	0.358759
Zn10	Zn	0.980849	-0.471261	-0.437151
Zn11	Zn	1.314182	-0.137927	-0.103818
Zn12	Zn	1.647516	0.195406	0.229516
O13	O	1.045508	-0.401595	-0.372536
O14	O	1.378841	-0.068261	-0.039203
O15	O	1.712175	0.265072	0.294130
O16	O	1.212335	-0.350389	-0.415473
O17	O	1.545669	-0.017056	-0.082140
O18	O	1.879002	0.316277	0.251194
O19	O	1.088358	-0.452858	-0.210320
O20	O	1.421691	-0.119525	0.123013
O21	O	1.755025	0.213809	0.456346
O22	O	1.008729	-0.215249	-0.319036
O23	O	1.342062	0.118084	0.014297
O24	O	1.675396	0.451418	0.347631
O25	O	1.207687	-0.452826	-0.329638
O26	O	1.541020	-0.119492	0.003695
O27	O	1.874353	0.213841	0.337029
O28	O	1.099142	-0.215225	-0.409441
O29	O	1.432476	0.118109	-0.076108
O30	O	1.765809	0.451442	0.257225
O31	O	1.002593	-0.350446	-0.205750
O32	O	1.335927	-0.017112	0.127583
O33	O	1.669260	0.316221	0.460916
O34	O	0.883312	-0.350395	-0.325040
O35	O	1.216645	-0.017062	0.008293
O36	O	1.549978	0.316272	0.341626
O37	O	0.998027	-0.452737	-0.539312
O38	O	1.331360	-0.119403	-0.205979
O39	O	1.664694	0.213930	0.127354
O40	O	0.878698	-0.452769	-0.419995
O41	O	1.212032	-0.119435	-0.086661
O42	O	1.545365	0.213898	0.246672
O43	O	1.093054	-0.350339	-0.534763
O44	O	1.426387	-0.017005	-0.201430
O45	O	1.759720	0.316328	0.131904
O46	O	1.082269	-0.587972	-0.335642
O47	O	1.415603	-0.254638	-0.002309
O48	O	1.748936	0.078695	0.331025
O49	O	0.991891	-0.587933	-0.426026
O50	O	1.325225	-0.254600	-0.092693
O51	O	1.658558	0.078733	0.240640
C52	C	0.854302	-0.401580	-0.372515
C53	C	1.187636	-0.068247	-0.039181
C54	C	1.520969	0.265086	0.294152
C55	C	0.772503	-0.401594	-0.372524
C56	C	1.105836	-0.068261	-0.039190
C57	C	1.439169	0.265072	0.294143
C58	C	0.581922	-0.454984	-0.421911
C59	C	0.915256	-0.121651	-0.088578
C60	C	1.248589	0.211682	0.244755
C61	C	0.505063	-0.454987	-0.421920
C62	C	0.838397	-0.121654	-0.088587
C63	C	1.171730	0.211680	0.244746
C64	C	0.509845	-0.348220	-0.323179
C65	C	0.843178	-0.014887	0.010155
C66	C	1.176512	0.318446	0.343488
C67	C	0.586703	-0.348214	-0.323173
C68	C	0.920036	-0.014881	0.010160
C69	C	1.253369	0.318453	0.343493
C70	C	0.622739	-0.401601	-0.372539
C71	C	0.956072	-0.068267	-0.039205
C72	C	1.289406	0.265066	0.294128
C73	C	0.469023	-0.401610	-0.372553
C74	C	0.802356	-0.068276	-0.039220
C75	C	1.135689	0.265057	0.294113
C76	C	0.385689	-0.401612	-0.372563
C77	C	0.719022	-0.068279	-0.039230
C78	C	1.052355	0.265055	0.294104
C79	C	0.706078	-0.401597	-0.372530
C80	C	1.039411	-0.068264	-0.039197
C81	C	1.372745	0.265069	0.294136
C82	C	1.035732	-0.618203	-0.382197
C83	C	1.369066	-0.284869	-0.048864
C84	C	1.702399	0.048464	0.284469
C85	C	1.031617	-0.710869	-0.386355
C86	C	1.364951	-0.377535	-0.053021
C87	C	1.698284	-0.044202	0.280312
C88	C	1.024109	-0.880530	-0.393960
C89	C	1.357443	-0.547197	-0.060627
C90	C	1.690776	-0.213863	0.272706
C91	C	1.067038	-0.921819	-0.351125
C92	C	1.400372	-0.588485	-0.017791
C93	C	1.733705	-0.255152	0.315542
C94	C	1.062861	-1.016224	-0.355356
C95	C	1.396194	-0.682891	-0.022023
C96	C	1.729528	-0.349558	0.311310
C97	C	1.028286	-0.786116	-0.389729
C98	C	1.361619	-0.452783	-0.056396
C99	C	1.694952	-0.119449	0.276937
C100	C	1.237460	-0.401610	-0.372559
C101	C	1.570793	-0.068276	-0.039225
C102	C	1.904127	0.265057	0.294108
C103	C	1.319259	-0.401616	-0.372568
C104	C	1.652592	-0.068283	-0.039235
C105	C	1.985925	0.265051	0.294098
C106	C	1.045546	-0.401528	-0.564487
C107	C	1.378879	-0.068195	-0.231153
C108	C	1.712212	0.265139	0.102180
C109	C	1.045562	-0.401500	-0.646284
C110	C	1.378895	-0.068166	-0.312951
C111	C	1.712228	0.265167	0.020382
C112	C	1.055342	-0.184141	-0.362854
C113	C	1.388675	0.149192	-0.029521
C114	C	1.722009	0.482526	0.303813
C115	C	1.059533	-0.091475	-0.358728
C116	C	1.392866	0.241858	-0.025395
C117	C	1.726199	0.575192	0.307939
C118	C	1.000946	-0.348138	-0.832098
C119	C	1.334279	-0.014804	-0.498764
C120	C	1.667612	0.318529	-0.165431
C121	C	1.000959	-0.348121	-0.908956
C122	C	1.334292	-0.014788	-0.575623
C123	C	1.667626	0.318546	-0.242289
C124	C	1.090270	-0.454762	-0.913704
C125	C	1.423604	-0.121429	-0.580371
C126	C	1.756937	0.211904	-0.247037
C127	C	1.090252	-0.454783	-0.836848
C128	C	1.423586	-0.121449	-0.503514
C129	C	1.756919	0.211884	-0.170181
C130	C	1.045591	-0.401466	-0.796046
C131	C	1.378925	-0.068132	-0.462713
C132	C	1.712258	0.265201	-0.129380
C133	C	1.045623	-0.401428	-0.949761
C134	C	1.378956	-0.068095	-0.616427
C135	C	1.712289	0.265238	-0.283094
C136	C	1.045638	-0.401411	-1.033094
C137	C	1.378971	-0.068077	-0.699760
C138	C	1.712304	0.265256	-0.366427
C139	C	1.045575	-0.401484	-0.712708
C140	C	1.378908	-0.068151	-0.379375
C141	C	1.712242	0.265182	-0.046041
C142	C	1.045515	-0.401601	-0.181331
C143	C	1.378849	-0.068268	0.152003
C144	C	1.712182	0.265066	0.485336
C145	C	1.045652	-0.401394	-0.099523
C146	C	1.378986	-0.068061	0.233811
C147	C	1.712319	0.265272	0.567144
H148	H	0.619937	-0.304738	-0.282968
H149	H	0.953270	0.028596	0.050365
H150	H	1.286604	0.361929	0.383699
H151	H	0.964579	-0.304724	-0.798879
H152	H	1.297913	0.028610	-0.465546
H153	H	1.631246	0.361943	-0.132213
H154	H	0.471834	-0.498456	-0.462125
H155	H	0.805167	-0.165122	-0.128792
H156	H	1.138500	0.168211	0.204541
C157	C	1.114647	-0.788242	-0.303481
C158	C	1.447980	-0.454909	0.029853
C159	C	1.781313	-0.121576	0.363186
C160	C	1.120883	-0.873831	-0.297317
C161	C	1.454216	-0.540497	0.036016
C162	C	1.787549	-0.207164	0.369349
H163	H	1.147881	-0.758616	-0.270258
H164	H	1.481215	-0.425283	0.063075
H165	H	1.814548	-0.091949	0.396409
H166	H	1.126014	-0.773970	-0.352302
H167	H	1.459348	-0.440636	-0.018968
H168	H	1.792681	-0.107303	0.314365
H169	H	1.065815	-0.774095	-0.292049
H170	H	1.399149	-0.440762	0.041284
H171	H	1.732482	-0.107428	0.374617
H172	H	1.169713	-0.887979	-0.308754
H173	H	1.503046	-0.554646	0.024579
H174	H	1.836379	-0.221312	0.357913
H175	H	1.109520	-0.888109	-0.248485
H176	H	1.442853	-0.554776	0.084848
H177	H	1.776186	-0.221442	0.418181
C178	C	0.976487	-1.014105	-0.441573
C179	C	1.309821	-0.680772	-0.108240
C180	C	1.643154	-0.347438	0.225094
C181	C	0.970254	-0.928518	-0.447749
C182	C	1.303587	-0.595185	-0.114415
C183	C	1.636920	-0.261851	0.218918
H184	H	0.943234	-1.043736	-0.474774
H185	H	1.276568	-0.710403	-0.141441
H186	H	1.609901	-0.377069	0.191892
H187	H	1.025306	-1.028260	-0.453019
H188	H	1.358639	-0.694926	-0.119686
H189	H	1.691973	-0.361593	0.213648
H190	H	0.965136	-1.028364	-0.392738
H191	H	1.298469	-0.695031	-0.059404
H192	H	1.631803	-0.361698	0.273929
H193	H	0.981610	-0.914257	-0.496583
H194	H	1.314944	-0.580924	-0.163249
H195	H	1.648277	-0.247591	0.170084
H196	H	0.921424	-0.914357	-0.436307
H197	H	1.254757	-0.581024	-0.102974
H198	H	1.588090	-0.247691	0.230359
H199	H	0.964603	-0.304697	-0.938305
H200	H	1.297937	0.028637	-0.604972
H201	H	1.631270	0.361970	-0.271639
C202	C	1.119722	-0.595964	-0.819464
C203	C	1.453055	-0.262630	-0.486130
C204	C	1.786388	0.070703	-0.152797
C205	C	1.139332	-0.513406	-0.797215
C206	C	1.472666	-0.180072	-0.463882
C207	C	1.805999	0.153261	-0.130549
H208	H	1.150022	-0.632153	-0.794999
H209	H	1.483355	-0.298820	-0.461666
H210	H	1.816689	0.034514	-0.128332
H211	H	1.069727	-0.608159	-0.807405
H212	H	1.403060	-0.274826	-0.474072
H213	H	1.736393	0.058508	-0.140738
H214	H	1.126129	-0.603571	-0.871076
H215	H	1.459462	-0.270237	-0.537743
H216	H	1.792796	0.063096	-0.204410
H217	H	1.132920	-0.505797	-0.745603
H218	H	1.466253	-0.172464	-0.412270
H219	H	1.799586	0.160870	-0.078936
H220	H	1.189339	-0.501206	-0.809269
H221	H	1.522673	-0.167873	-0.475936
H222	H	1.856006	0.165461	-0.142602
H223	H	0.611261	-0.498453	-0.462109
H224	H	0.944594	-0.165120	-0.128776
H225	H	1.277927	0.168214	0.204557
C226	C	1.188762	-0.466325	-1.000655
C227	C	1.522095	-0.132991	-0.667321
C228	C	1.855428	0.200342	-0.333988
C229	C	1.139367	-0.513360	-0.958555
C230	C	1.472700	-0.180027	-0.625221
C231	C	1.806033	0.153307	-0.291888
H232	H	1.219075	-0.502502	-1.028338
H233	H	1.552409	-0.169168	-0.695005
H234	H	1.885742	0.164165	-0.361672
H235	H	1.162174	-0.434569	-1.033123
H236	H	1.495508	-0.101236	-0.699790
H237	H	1.828841	0.232097	-0.366457
H238	H	1.218543	-0.430013	-0.969050
H239	H	1.551876	-0.096680	-0.635717
H240	H	1.885210	0.236653	-0.302383
H241	H	1.109581	-0.549667	-0.990160
H242	H	1.442915	-0.216334	-0.656827
H243	H	1.776248	0.116999	-0.323493
H244	H	1.165956	-0.545130	-0.926083
H245	H	1.499290	-0.211796	-0.592749
H246	H	1.832623	0.121537	-0.259416
C247	C	0.394150	-0.300822	-0.279343
C248	C	0.727483	0.032511	0.053991
C249	C	1.060817	0.365844	0.387324
C250	C	0.470231	-0.289543	-0.268915
C251	C	0.803564	0.043790	0.064418
C252	C	1.136897	0.377124	0.397752
H253	H	0.369697	-0.264599	-0.245838
H254	H	0.703030	0.068734	0.087495
H255	H	1.036363	0.402067	0.420829
H256	H	0.382124	-0.288690	-0.328261
H257	H	0.715457	0.044643	0.005072
H258	H	1.048790	0.377976	0.338406
H259	H	0.379032	-0.356826	-0.270988
H260	H	0.712365	-0.023493	0.062345
H261	H	1.045699	0.309840	0.395679
H262	H	0.485350	-0.233540	-0.277275
H263	H	0.818683	0.099793	0.056058
H264	H	1.152016	0.433126	0.389392
H265	H	0.482262	-0.301669	-0.219985
H266	H	0.815596	0.031664	0.113348
H267	H	1.148929	0.364998	0.446681
