data_functionalizedCrystal
_audit_creation_method	'MofGen! by Chris Wilmer'
_symmetry_space_group_name_H-M	'P1'
_symmetry_Int_Tables_number	1
_symmetry_cell_setting	triclinic
loop_
_symmetry_equiv_pos_as_xyz
  x,y,z
_cell_length_a	19.288864
_cell_length_b	19.288855
_cell_length_c	18.366186
_cell_angle_alpha	90.008830
_cell_angle_beta	90.022894
_cell_angle_gamma	83.134244
loop_
_atom_site_label
_atom_site_type_symbol
_atom_site_fract_x
_atom_site_fract_y
_atom_site_fract_z
O1	O	-0.921350	-0.086649	-0.060787
O2	O	-0.588016	0.246684	0.272546
O3	O	-0.254683	0.580018	0.605879
O4	O	-0.719089	-0.098338	-0.060738
O5	O	-0.385755	0.234995	0.272595
O6	O	-0.052422	0.568329	0.605929
O7	O	-0.826067	0.008637	-0.060754
O8	O	-0.492734	0.341971	0.272579
O9	O	-0.159400	0.675304	0.605912
O10	O	-0.814371	-0.193624	-0.060771
O11	O	-0.481038	0.139709	0.272563
O12	O	-0.147705	0.473042	0.605896
O13	O	-0.826049	0.008643	0.060345
O14	O	-0.492716	0.341976	0.393678
O15	O	-0.159382	0.675309	0.727012
O16	O	-0.719071	-0.098333	0.060361
O17	O	-0.385737	0.235001	0.393695
O18	O	-0.052404	0.568334	0.727028
O19	O	-0.921332	-0.086644	0.060312
O20	O	-0.587998	0.246689	0.393645
O21	O	-0.254665	0.580023	0.726979
Zn22	Zn	-0.820198	-0.092487	0.079564
Zn23	Zn	-0.486865	0.240846	0.412897
Zn24	Zn	-0.153532	0.574179	0.746231
Zn25	Zn	-0.820222	-0.092494	-0.079990
Zn26	Zn	-0.486889	0.240839	0.253344
Zn27	Zn	-0.153555	0.574172	0.586677
O28	O	-0.814353	-0.193619	0.060329
O29	O	-0.481020	0.139714	0.393662
O30	O	-0.147686	0.473048	0.726995
C31	C	-0.693203	-0.097959	-0.000182
C32	C	-0.359870	0.235374	0.333151
C33	C	-0.026536	0.568708	0.666485
C34	C	-0.616100	-0.096830	-0.000163
C35	C	-0.282766	0.236503	0.333171
C36	C	0.050567	0.569837	0.666504
C37	C	-0.825683	0.034517	-0.000204
C38	C	-0.492350	0.367850	0.333130
C39	C	-0.159016	0.701183	0.666463
C40	C	-0.824557	0.111620	-0.000201
C41	C	-0.491223	0.444954	0.333132
C42	C	-0.157890	0.778287	0.666466
C43	C	-0.947217	-0.087023	-0.000246
C44	C	-0.613884	0.246311	0.333088
C45	C	-0.280550	0.579644	0.666421
C46	C	-1.024321	-0.088152	-0.000269
C47	C	-0.690987	0.245182	0.333064
C48	C	-0.357654	0.578515	0.666397
C49	C	-0.571401	-0.159598	-0.000179
C50	C	-0.238068	0.173735	0.333154
C51	C	0.095266	0.507068	0.666487
C52	C	-0.498954	-0.158538	-0.000187
C53	C	-0.165621	0.174796	0.333146
C54	C	0.167713	0.508129	0.666480
C55	C	-0.471209	-0.094705	-0.000193
C56	C	-0.137875	0.238628	0.333140
C57	C	0.195458	0.571962	0.666473
C58	C	-0.515917	-0.031929	-0.000173
C59	C	-0.182584	0.301405	0.333161
C60	C	0.150750	0.634738	0.666494
C61	C	-0.588363	-0.032991	-0.000157
C62	C	-0.255029	0.300342	0.333176
C63	C	0.078304	0.633675	0.666509
C64	C	-0.362955	-0.044528	-0.042640
C65	C	-0.029622	0.288806	0.290693
C66	C	0.303712	0.622139	0.624026
C67	C	-0.290510	-0.043468	-0.042660
C68	C	0.042823	0.289866	0.290673
C69	C	0.376156	0.623199	0.624007
C70	C	-0.247763	-0.091426	-0.000237
C71	C	0.085570	0.241908	0.333096
C72	C	0.418903	0.575241	0.666430
C73	C	-0.277468	-0.140455	0.042196
C74	C	0.055865	0.192878	0.375530
C75	C	0.389199	0.526212	0.708863
C76	C	-0.349913	-0.141517	0.042211
C77	C	-0.016580	0.191816	0.375545
C78	C	0.316753	0.525149	0.708878
C79	C	-0.392655	-0.093546	-0.000209
C80	C	-0.059321	0.239787	0.333124
C81	C	0.274012	0.573121	0.666457
C82	C	-0.124509	-0.153048	-0.000261
C83	C	0.208824	0.180285	0.333072
C84	C	0.542158	0.513619	0.666406
C85	C	-0.052061	-0.151985	-0.000265
C86	C	0.281272	0.181349	0.333069
C87	C	0.614606	0.514682	0.666402
C88	C	-0.069026	-0.025374	-0.000257
C89	C	0.264308	0.307959	0.333076
C90	C	0.597641	0.641293	0.666409
C91	C	-0.141472	-0.026439	-0.000247
C92	C	0.191861	0.306894	0.333087
C93	C	0.525195	0.640228	0.666420
C94	C	-0.169209	-0.090278	-0.000252
C95	C	0.164124	0.243055	0.333081
C96	C	0.497458	0.576389	0.666415
C97	C	-0.824041	0.147828	-0.066212
C98	C	-0.490708	0.481162	0.267122
C99	C	-0.157374	0.814495	0.600455
C100	C	-0.822973	0.220274	-0.066216
C101	C	-0.489639	0.553608	0.267117
C102	C	-0.156306	0.886941	0.600450
C103	C	-0.822434	0.256512	-0.000206
C104	C	-0.489101	0.589845	0.333127
C105	C	-0.155768	0.923178	0.666460
C106	C	-0.822946	0.220295	0.065813
C107	C	-0.489613	0.553628	0.399147
C108	C	-0.156280	0.886961	0.732480
C109	C	-0.824007	0.147849	0.065816
C110	C	-0.490674	0.481182	0.399149
C111	C	-0.157341	0.814516	0.732483
C112	C	-0.861429	0.376745	0.050353
C113	C	-0.528096	0.710079	0.383686
C114	C	-0.194763	1.043412	0.717019
C115	C	-0.860372	0.449190	0.050347
C116	C	-0.527039	0.782524	0.383680
C117	C	-0.193706	1.115857	0.717014
C118	C	-0.819158	0.479958	-0.000212
C119	C	-0.485825	0.813291	0.333121
C120	C	-0.152492	1.146624	0.666455
C121	C	-0.779010	0.438273	-0.050778
C122	C	-0.445677	0.771606	0.282556
C123	C	-0.112343	1.104939	0.615889
C124	C	-0.780071	0.365827	-0.050775
C125	C	-0.446738	0.699160	0.282558
C126	C	-0.113404	1.032494	0.615892
C127	C	-0.821283	0.335067	-0.000202
C128	C	-0.487950	0.668400	0.333131
C129	C	-0.154617	1.001733	0.666465
C130	C	-0.817483	0.594720	-0.066232
C131	C	-0.484150	0.928053	0.267101
C132	C	-0.150817	1.261386	0.600434
C133	C	-0.816411	0.667167	-0.066234
C134	C	-0.483077	1.000500	0.267099
C135	C	-0.149744	1.333833	0.600432
C136	C	-0.816391	0.667187	0.065797
C137	C	-0.483058	1.000520	0.399131
C138	C	-0.149725	1.333853	0.732464
C139	C	-0.817457	0.594740	0.065797
C140	C	-0.484123	0.928073	0.399131
C141	C	-0.150790	1.261407	0.732464
C142	C	-0.818006	0.558512	-0.000220
C143	C	-0.484673	0.891845	0.333114
C144	C	-0.151339	1.225178	0.666447
C145	C	-0.814739	0.780502	-0.000222
C146	C	-0.481406	1.113835	0.333112
C147	C	-0.148073	1.447169	0.666445
C148	C	-0.815871	0.703399	-0.000223
C149	C	-0.482538	1.036732	0.333110
C150	C	-0.149205	1.370066	0.666443
N151	N	-0.820187	-0.092482	0.188455
N152	N	-0.486854	0.240851	0.521788
N153	N	-0.153520	0.574184	0.855122
N154	N	-0.820239	-0.092494	-0.188881
N155	N	-0.486905	0.240839	0.144452
N156	N	-0.153572	0.574173	0.477786
C157	C	-0.867572	-0.045137	0.226548
C158	C	-0.534239	0.288196	0.559881
C159	C	-0.200906	0.621530	0.893215
C160	C	-0.867577	-0.045134	0.302776
C161	C	-0.534244	0.288200	0.636109
C162	C	-0.200910	0.621533	0.969443
C163	C	-0.820202	-0.092488	0.340908
C164	C	-0.486869	0.240845	0.674241
C165	C	-0.153536	0.574179	1.007574
C166	C	-0.772808	-0.139837	0.302806
C167	C	-0.439475	0.193496	0.636139
C168	C	-0.106141	0.526830	0.969472
C169	C	-0.772800	-0.139834	0.226579
C170	C	-0.439467	0.193499	0.559913
C171	C	-0.106134	0.526833	0.893246
C172	C	-0.810902	-0.155776	0.461664
C173	C	-0.477569	0.177557	0.794998
C174	C	-0.144235	0.510891	1.128331
C175	C	-0.810915	-0.155780	0.537889
C176	C	-0.477581	0.177553	0.871223
C177	C	-0.144248	0.510887	1.204556
C178	C	-0.820222	-0.092497	0.576015
C179	C	-0.486889	0.240837	0.909349
C180	C	-0.153555	0.574170	1.242682
C181	C	-0.829532	-0.029207	0.537907
C182	C	-0.496199	0.304126	0.871240
C183	C	-0.162865	0.637460	1.204574
C184	C	-0.829524	-0.029204	0.461681
C185	C	-0.496191	0.304129	0.795014
C186	C	-0.162858	0.637463	1.128347
C187	C	-0.820205	-0.092496	0.423563
C188	C	-0.486872	0.240837	0.756896
C189	C	-0.153538	0.574171	1.090229
C190	C	-0.867615	-0.045144	0.696763
C191	C	-0.534282	0.288189	1.030097
C192	C	-0.200948	0.621523	1.363430
C193	C	-0.867615	-0.045140	0.772993
C194	C	-0.534281	0.288193	1.106326
C195	C	-0.200948	0.621527	1.439659
C196	C	-0.772849	-0.139849	0.773021
C197	C	-0.439516	0.193484	1.106354
C198	C	-0.106182	0.526817	1.439687
C199	C	-0.772846	-0.139847	0.696793
C200	C	-0.439513	0.193486	1.030126
C201	C	-0.106179	0.526819	1.363460
C202	C	-0.820233	-0.092495	0.658669
C203	C	-0.486899	0.240838	0.992002
C204	C	-0.153566	0.574171	1.325335
H205	H	-0.593980	-0.211581	-0.000185
H206	H	-0.260646	0.121752	0.333148
H207	H	0.072687	0.455086	0.666482
H208	H	-0.817883	0.565260	0.119551
H209	H	-0.484549	0.898593	0.452884
H210	H	-0.151216	1.231927	0.786217
H211	H	-0.745450	0.463321	-0.091948
H212	H	-0.412116	0.796655	0.241385
H213	H	-0.078783	1.129988	0.574719
C214	C	-0.824638	0.107980	-0.138833
C215	C	-0.491305	0.441314	0.194501
C216	C	-0.157972	0.774647	0.527834
N217	N	-0.825087	0.077965	-0.193531
N218	N	-0.491753	0.411299	0.139802
N219	N	-0.158420	0.744632	0.473135
C220	C	-0.190643	0.042612	-0.000237
C221	C	0.142691	0.375945	0.333096
C222	C	0.476024	0.709279	0.666430
N223	N	-0.227678	0.094624	-0.000229
N224	N	0.105655	0.427958	0.333105
N225	N	0.438989	0.761291	0.666438
H226	H	-0.817926	0.565220	-0.119987
H227	H	-0.484593	0.898554	0.213346
H228	H	-0.151260	1.231887	0.546679
C229	C	-0.822352	0.260157	0.138425
C230	C	-0.489019	0.593490	0.471758
C231	C	-0.155686	0.926824	0.805091
N232	N	-0.821902	0.290181	0.193118
N233	N	-0.488569	0.623514	0.526451
N234	N	-0.155236	0.956848	0.859785
H235	H	-0.266331	-0.003548	-0.077215
H236	H	0.067003	0.329785	0.256119
H237	H	0.400336	0.663119	0.589452
H238	H	-0.734234	-0.178393	0.333856
H239	H	-0.400900	0.154941	0.667190
H240	H	-0.067567	0.488274	1.000523
C241	C	-0.904533	0.495037	0.105973
C242	C	-0.571200	0.828370	0.439306
C243	C	-0.237867	1.161703	0.772639
N244	N	-0.937795	0.529567	0.147873
N245	N	-0.604461	0.862900	0.481207
N246	N	-0.271128	1.196233	0.814540
H247	H	-0.906199	-0.006582	0.804009
H248	H	-0.572866	0.326751	1.137342
H249	H	-0.239533	0.660085	1.470675
C250	C	-0.720768	-0.191982	0.654889
C251	C	-0.387434	0.141351	0.988222
C252	C	-0.054101	0.474685	1.321556
N253	N	-0.681555	-0.231267	0.623327
N254	N	-0.348222	0.102066	0.956660
N255	N	-0.014889	0.435399	1.289994
H256	H	-0.815987	0.696645	-0.119991
H257	H	-0.482654	1.029979	0.213343
H258	H	-0.149321	1.363312	0.546676
H259	H	-0.734212	-0.178389	0.195563
H260	H	-0.400879	0.154944	0.528896
H261	H	-0.067546	0.488278	0.862230
C262	C	-0.155022	-0.223271	-0.000258
C263	C	0.178311	0.110062	0.333075
C264	C	0.511645	0.443395	0.666409
N265	N	-0.178003	-0.276164	-0.000254
N266	N	0.155331	0.057169	0.333079
N267	N	0.488664	0.390502	0.666413
C268	C	-0.822401	0.260110	-0.138836
C269	C	-0.489068	0.593444	0.194497
C270	C	-0.155734	0.926777	0.527830
N271	N	-0.821970	0.290113	-0.193534
N272	N	-0.488636	0.623446	0.139799
N273	N	-0.155303	0.956779	0.473133
C274	C	-0.449777	-0.227590	-0.000214
C275	C	-0.116443	0.105743	0.333119
C276	C	0.216890	0.439076	0.666453
N277	N	-0.412738	-0.279601	-0.000238
N278	N	-0.079405	0.053732	0.333096
N279	N	0.253928	0.387066	0.666429
C280	C	-0.735903	0.319975	-0.106391
C281	C	-0.402570	0.653309	0.226942
C282	C	-0.069236	0.986642	0.560276
N283	N	-0.702632	0.285440	-0.148279
N284	N	-0.369299	0.618773	0.185054
N285	N	-0.035965	0.952106	0.518388
C286	C	-0.815799	0.707043	0.138410
C287	C	-0.482466	1.040377	0.471743
C288	C	-0.149132	1.373710	0.805076
N289	N	-0.815352	0.737067	0.193103
N290	N	-0.482019	1.070400	0.526437
N291	N	-0.148685	1.403734	0.859770
C292	C	-0.800667	-0.225399	0.579801
C293	C	-0.467333	0.107934	0.913135
C294	C	-0.134000	0.441267	1.246468
N295	N	-0.792944	-0.277838	0.611368
N296	N	-0.459610	0.055495	0.944701
N297	N	-0.126277	0.388828	1.278034
C298	C	-0.906774	0.342910	0.105973
C299	C	-0.573441	0.676243	0.439306
C300	C	-0.240107	1.009577	0.772639
N301	N	-0.940927	0.317426	0.147864
N302	N	-0.607594	0.650759	0.481197
N303	N	-0.274261	0.984092	0.814530
H304	H	-0.015667	-0.203100	-0.000274
H305	H	0.317666	0.130233	0.333060
H306	H	0.650999	0.463566	0.666393
C307	C	-0.824579	0.108020	0.138437
C308	C	-0.491246	0.441353	0.471770
C309	C	-0.157912	0.774686	0.805103
N310	N	-0.825012	0.078020	0.193136
N311	N	-0.491678	0.411353	0.526469
N312	N	-0.158345	0.744686	0.859802
C313	C	-0.382587	-0.195442	0.088895
C314	C	-0.049253	0.137891	0.422228
C315	C	0.284080	0.471225	0.755561
N316	N	-0.407197	-0.236056	0.124061
N317	N	-0.073863	0.097277	0.457394
N318	N	0.259470	0.430610	0.790728
H319	H	-0.803311	-0.207312	0.430629
H320	H	-0.469977	0.126021	0.763962
H321	H	-0.136644	0.459354	1.097295
C322	C	-0.919693	0.006959	0.184616
C323	C	-0.586359	0.340292	0.517949
C324	C	-0.253026	0.673625	0.851283
N325	N	-0.958948	0.046199	0.153032
N326	N	-0.625615	0.379533	0.486365
N327	N	-0.292281	0.712866	0.819698
C328	C	-0.919714	0.006945	0.344687
C329	C	-0.586380	0.340278	0.678020
C330	C	-0.253047	0.673612	1.011353
N331	N	-0.958986	0.046168	0.376252
N332	N	-0.625652	0.379502	0.709585
N333	N	-0.292319	0.712835	1.042919
H334	H	-0.242664	-0.179506	0.076742
H335	H	0.090669	0.153827	0.410075
H336	H	0.424002	0.487160	0.743408
H337	H	-0.046436	0.026600	-0.000308
H338	H	0.286897	0.359933	0.333026
H339	H	0.620230	0.693266	0.666359
H340	H	-0.397755	-0.005473	-0.077190
H341	H	-0.064421	0.327860	0.256143
H342	H	0.268912	0.661193	0.589476
H343	H	-0.493322	0.020044	-0.000188
H344	H	-0.159989	0.353377	0.333146
H345	H	0.173344	0.686711	0.666479
H346	H	-0.906198	-0.006585	0.665721
H347	H	-0.572865	0.326748	0.999055
H348	H	-0.239531	0.660082	1.332388
H349	H	-0.837103	0.022329	0.430656
H350	H	-0.503769	0.355662	0.763989
H351	H	-0.170436	0.688995	1.097322
C352	C	-0.637533	0.036062	-0.000144
C353	C	-0.304200	0.369395	0.333189
C354	C	0.029134	0.702729	0.666523
N355	N	-0.674570	0.088074	-0.000137
N356	N	-0.341236	0.421407	0.333197
N357	N	-0.007903	0.754740	0.666530
H358	H	-0.837111	0.022324	0.568947
H359	H	-0.503777	0.355658	0.902281
H360	H	-0.170444	0.688991	1.235614
H361	H	-0.734273	-0.178403	0.804067
H362	H	-0.400940	0.154930	1.137400
H363	H	-0.067606	0.488263	1.470734
