data_functionalizedCrystal
_audit_creation_method	'MofGen! by Chris Wilmer'
_symmetry_space_group_name_H-M	'P1'
_symmetry_Int_Tables_number	1
_symmetry_cell_setting	triclinic
loop_
_symmetry_equiv_pos_as_xyz
  x,y,z
_cell_length_a	10.540514
_cell_length_b	9.016244
_cell_length_c	17.699083
_cell_angle_alpha	90.003133
_cell_angle_beta	83.899087
_cell_angle_gamma	90.007876
loop_
_atom_site_label
_atom_site_type_symbol
_atom_site_fract_x
_atom_site_fract_y
_atom_site_fract_z
O1	O	1.683963	0.123362	0.106566
O2	O	1.314361	0.123361	0.116635
O3	O	1.509604	0.123349	0.001479
O4	O	1.488720	0.123375	0.221722
O5	O	1.509576	-0.123332	0.001481
O6	O	1.314333	-0.123319	0.116638
O7	O	1.683934	-0.123319	0.106568
Cu8	Cu	1.499131	-0.145843	0.111603
Cu9	Cu	1.499165	0.145886	0.111600
O10	O	1.488691	-0.123306	0.221725
C11	C	1.267057	0.000021	0.115885
C12	C	1.126149	0.000020	0.113638
C13	C	1.053937	0.000033	0.195997
C14	C	0.907366	0.000600	0.193687
C15	C	0.934646	0.140616	0.068846
C16	C	1.081133	0.140727	0.071740
C17	C	1.081526	-0.139805	0.070524
C18	C	0.934561	-0.141646	0.069729
N19	N	1.499116	-0.351029	0.111605
C20	C	1.394361	-0.586055	0.172999
C21	C	1.394586	-0.414164	0.173229
C22	C	1.631513	-0.413365	0.129563
C23	C	1.630939	-0.585309	0.129998
C24	C	1.472797	-0.585582	0.032051
C25	C	1.469743	-0.413628	0.032567
C26	C	1.731238	0.000025	0.107318
C27	C	1.872147	0.000036	0.109565
C28	C	1.508842	0.000008	-0.026722
C29	C	1.506597	0.000008	-0.110755
N30	N	1.499189	0.351072	0.111593
C31	C	1.621200	0.000006	-0.158637
C32	C	1.619083	0.000019	-0.237594
C33	C	1.502361	0.000023	-0.268667
C34	C	1.387749	0.000029	-0.220779
C35	C	1.389867	0.000027	-0.141823
C36	C	1.379204	0.000041	-0.539197
C37	C	1.377094	0.000040	-0.618159
C38	C	1.608419	0.000033	-0.634967
C39	C	1.610538	0.000031	-0.556012
C40	C	1.495926	0.000045	-0.508130
C41	C	1.498223	0.000034	-0.422516
C42	C	1.500063	0.000024	-0.354279
C43	C	1.489454	0.000038	0.249925
C44	C	1.491699	0.000048	0.333958
H45	H	1.081854	-0.100763	0.229408
Cl46	Cl	1.754855	-0.649525	0.063555
H47	H	1.705584	0.000020	-0.530717
Cl48	Cl	1.156966	0.149976	-0.021662
Cl49	Cl	1.129355	-0.304372	0.112853
Cl50	Cl	1.590824	-0.648354	-0.038515
Cl51	Cl	1.666899	-0.647200	0.219593
Cl52	Cl	0.901942	0.148073	-0.026546
Cl53	Cl	1.752505	0.000022	-0.695166
H54	H	1.716248	-0.000007	-0.133343
Cl55	Cl	1.419994	-0.652696	0.263600
Cl56	Cl	1.230347	0.000048	-0.657221
H57	H	0.891541	0.245642	0.096756
H58	H	1.292712	0.000042	-0.246085
Cl59	Cl	1.754803	-0.350228	0.062396
H60	H	1.285880	0.000053	-0.500221
H61	H	1.372352	-0.372888	0.018954
H62	H	0.865063	0.101974	0.225575
Cl63	Cl	1.579998	-0.347308	-0.041375
Cl64	Cl	1.763163	0.000012	-0.297785
H65	H	1.296545	0.000029	-0.102838
H66	H	0.864105	-0.100150	0.225714
Cl67	Cl	0.898946	-0.155421	-0.024939
Cl68	Cl	1.123894	0.303602	0.117652
Cl69	Cl	1.099685	0.155462	0.246825
Cl70	Cl	0.870409	-0.302224	0.115669
H71	H	1.129893	-0.141169	0.009776
H72	H	1.296166	-0.372021	0.162425
Cl73	Cl	1.241915	-0.649929	0.156565
H74	H	1.411407	-0.373010	0.232242
Cl75	Cl	1.668339	-0.346851	0.218146
Cl76	Cl	1.326985	-0.652613	0.005674
