data_functionalizedCrystal
_audit_creation_method	'MofGen! by Chris Wilmer'
_symmetry_space_group_name_H-M	'P1'
_symmetry_Int_Tables_number	1
_symmetry_cell_setting	triclinic
loop_
_symmetry_equiv_pos_as_xyz
  x,y,z
_cell_length_a	19.121414
_cell_length_b	19.121063
_cell_length_c	19.121242
_cell_angle_alpha	94.950219
_cell_angle_beta	89.878138
_cell_angle_gamma	94.802198
loop_
_atom_site_label
_atom_site_type_symbol
_atom_site_fract_x
_atom_site_fract_y
_atom_site_fract_z
Zn1	Zn	1.078469	-0.249046	-0.361819
Zn2	Zn	1.068778	-0.362129	-0.249601
Zn3	Zn	0.956227	-0.249498	-0.249607
Zn4	Zn	0.956173	-0.372122	-0.372228
O5	O	1.014912	-0.308199	-0.308314
O6	O	1.175468	-0.259676	-0.342574
O7	O	1.049815	-0.343195	-0.151320
O8	O	0.976520	-0.150793	-0.260139
O9	O	1.168348	-0.342757	-0.260128
O10	O	1.066331	-0.150462	-0.342581
O11	O	0.967124	-0.260445	-0.151325
O12	O	0.857935	-0.270135	-0.270232
O13	O	0.976429	-0.359789	-0.469129
O14	O	0.857896	-0.360226	-0.360321
O15	O	1.066279	-0.269366	-0.461481
O16	O	1.049763	-0.462099	-0.270221
O17	O	0.967033	-0.469440	-0.360315
C18	C	0.832431	-0.316314	-0.316407
C19	C	0.754366	-0.319804	-0.319887
C20	C	0.717696	-0.274473	-0.274688
C21	C	0.644344	-0.277758	-0.277958
C22	C	0.607664	-0.326371	-0.326430
C23	C	0.644339	-0.371707	-0.371631
C24	C	0.717689	-0.368425	-0.368358
C25	C	0.386195	-0.338634	-0.338654
C26	C	0.312840	-0.341911	-0.341926
C27	C	0.312850	-0.247962	-0.248251
C28	C	0.386201	-0.244681	-0.244985
C29	C	0.422870	-0.290020	-0.290183
C30	C	0.532688	-0.329729	-0.329775
C31	C	0.497845	-0.286666	-0.286835
C32	C	1.007360	-0.491347	-0.316411
C33	C	1.004195	-0.569696	-0.319896
C34	C	1.045817	-0.602659	-0.274662
C35	C	1.042845	-0.676278	-0.277943
C36	C	0.998245	-0.716931	-0.326456
C37	C	0.956621	-0.683963	-0.371695
C38	C	0.959598	-0.610347	-0.368416
C39	C	0.987104	-0.939399	-0.338702
C40	C	0.984129	-1.013020	-0.341976
C41	C	1.070354	-1.005329	-0.248225
C42	C	1.073323	-0.931712	-0.244948
C43	C	1.031702	-0.898750	-0.290189
C44	C	0.995204	-0.792181	-0.329809
C45	C	1.034747	-0.823502	-0.286838
C46	C	1.198104	-0.300052	-0.300189
C47	C	1.276170	-0.296580	-0.296727
C48	C	1.022429	-0.315641	-0.491501
C49	C	1.025633	-0.318813	-0.569564
C50	C	1.022512	-0.124335	-0.300199
C51	C	1.025751	-0.045983	-0.296742
C52	C	1.045948	-0.338946	-1.011075
C53	C	1.042928	-0.335962	-0.937726
C54	C	0.998369	-0.291384	-0.901062
C55	C	0.956823	-0.249791	-0.937750
C56	C	0.959840	-0.252779	-1.011098
C57	C	0.987103	-0.280209	-0.679600
C58	C	0.984091	-0.277222	-0.606247
C59	C	1.070195	-0.363395	-0.606228
C60	C	1.073211	-0.366376	-0.679577
C61	C	1.031662	-0.324787	-0.716259
C62	C	0.995283	-0.288331	-0.826087
C63	C	1.034746	-0.327844	-0.791233
C64	C	1.007466	-0.300732	-0.125836
C65	C	1.004407	-0.297356	-0.047758
H66	H	0.282978	-0.381498	-0.381403
C67	C	0.758041	-0.220998	-0.221370
H68	H	0.806978	-0.225529	-0.225897
H69	H	0.743649	-0.229860	-0.175154
H70	H	0.748391	-0.174608	-0.230175
H71	H	0.416041	-0.375552	-0.375458
H72	H	0.527713	-0.247087	-0.247366
C73	C	1.115889	-0.409148	-0.565881
H74	H	1.142860	-0.436122	-0.598222
H75	H	1.086572	-0.439889	-0.539815
H76	H	1.146436	-0.379657	-0.534720
C77	C	0.907811	-0.200754	-0.897421
H78	H	0.911969	-0.204925	-0.848483
H79	H	0.860688	-0.213654	-0.911991
H80	H	0.920551	-0.153423	-0.906902
H81	H	1.076747	-0.369839	-0.907863
H82	H	0.614469	-0.411293	-0.411096
H83	H	0.502815	-0.369309	-0.369242
H84	H	0.953270	-0.246345	-0.709458
C85	C	1.083805	-0.778789	-0.233476
H86	H	1.108173	-0.808961	-0.207005
H87	H	1.056863	-0.750056	-0.202772
H88	H	1.116654	-0.749766	-0.257736
H89	H	0.958890	-0.825289	-0.369307
H90	H	1.082236	-0.375244	-1.040921
C91	C	0.941309	-0.903150	-0.388454
H92	H	0.914314	-0.937907	-0.417807
H93	H	0.970562	-0.874442	-0.416611
H94	H	0.910784	-0.874743	-0.361633
C95	C	0.907561	-0.728680	-0.425056
H96	H	0.911743	-0.777245	-0.420526
H97	H	0.920225	-0.718050	-0.471261
H98	H	0.860440	-0.718339	-0.416290
C99	C	1.122215	-0.415424	-0.719904
H100	H	1.146517	-0.439774	-0.687552
H101	H	1.155112	-0.388273	-0.745975
H102	H	1.095240	-0.448497	-0.751058
C103	C	1.116138	-1.041589	-0.198469
H104	H	1.107984	-1.091254	-0.207371
H105	H	1.104450	-1.028091	-0.151190
H106	H	1.164235	-1.027797	-0.206161
C107	C	0.758026	-0.418287	-0.418079
H108	H	0.725677	-0.447706	-0.447421
H109	H	0.784269	-0.446585	-0.391242
H110	H	0.789011	-0.391330	-0.446259
C111	C	0.935067	-1.057742	-0.395340
H112	H	0.939250	-1.106306	-0.390804
H113	H	0.947731	-1.047116	-0.441546
H114	H	0.887945	-1.047401	-0.386576
H115	H	1.109640	-0.898613	-0.205445
H116	H	0.947807	-0.240916	-0.576397
C117	C	0.914147	-0.207027	-1.051449
H118	H	0.887182	-0.180045	-1.019109
H119	H	0.883606	-0.236517	-1.082609
H120	H	0.943466	-0.176283	-1.077514
C121	C	1.083762	-0.376875	-0.831557
H122	H	1.108072	-0.401221	-0.799208
H123	H	1.116651	-0.349710	-0.857623
H124	H	1.056797	-0.409952	-0.862716
H125	H	0.416061	-0.205100	-0.205509
H126	H	0.959004	-0.252034	-0.796227
H127	H	1.082132	-0.569564	-0.235154
C128	C	0.604010	-0.227890	-0.228242
H129	H	0.636362	-0.198461	-0.198912
H130	H	0.573026	-0.254839	-0.200061
H131	H	0.577769	-0.199591	-0.255086
H132	H	0.282987	-0.211051	-0.211453
C133	C	0.913814	-0.574087	-0.418175
H134	H	0.886822	-0.608841	-0.447534
H135	H	0.943079	-0.545384	-0.446325
H136	H	0.883286	-0.545675	-0.391362
H137	H	1.076738	-0.703112	-0.241108
