data_functionalizedCrystal
_audit_creation_method	'MofGen! by Chris Wilmer'
_symmetry_space_group_name_H-M	'P1'
_symmetry_Int_Tables_number	1
_symmetry_cell_setting	triclinic
loop_
_symmetry_equiv_pos_as_xyz
  x,y,z
_cell_length_a	19.121424
_cell_length_b	19.120786
_cell_length_c	17.077396
_cell_angle_alpha	87.527059
_cell_angle_beta	92.416339
_cell_angle_gamma	95.008527
loop_
_atom_site_label
_atom_site_type_symbol
_atom_site_fract_x
_atom_site_fract_y
_atom_site_fract_z
Zn1	Zn	1.063704	-0.234202	-0.382121
Zn2	Zn	1.313704	0.015798	-0.132121
Zn3	Zn	1.563704	0.265798	0.117879
Zn4	Zn	1.813704	0.515798	0.367879
Zn5	Zn	1.058601	-0.351887	-0.245479
Zn6	Zn	1.308601	-0.101887	0.004521
Zn7	Zn	1.558601	0.148113	0.254521
Zn8	Zn	1.808601	0.398113	0.504521
Zn9	Zn	0.946044	-0.239253	-0.256218
Zn10	Zn	1.196044	0.010747	-0.006218
Zn11	Zn	1.446044	0.260747	0.243782
Zn12	Zn	1.696044	0.510747	0.493782
Zn13	Zn	0.940988	-0.356863	-0.382054
Zn14	Zn	1.190988	-0.106863	-0.132054
Zn15	Zn	1.440988	0.143137	0.117946
Zn16	Zn	1.690988	0.393137	0.367946
O17	O	1.002334	-0.295551	-0.316468
O18	O	1.252334	-0.045551	-0.066468
O19	O	1.502334	0.204449	0.183532
O20	O	1.752334	0.454449	0.433532
O21	O	1.161489	-0.245616	-0.359529
O22	O	1.411489	0.004384	-0.109529
O23	O	1.661489	0.254384	0.140471
O24	O	1.911489	0.504384	0.390471
O25	O	1.043650	-0.336977	-0.137056
O26	O	1.293650	-0.086977	0.112944
O27	O	1.543650	0.163023	0.362944
O28	O	1.793650	0.413023	0.612944
O29	O	0.965904	-0.140111	-0.277442
O30	O	1.215904	0.109889	-0.027442
O31	O	1.465904	0.359889	0.222558
O32	O	1.715904	0.609889	0.472558
O33	O	1.157740	-0.332079	-0.259139
O34	O	1.407740	-0.082079	-0.009139
O35	O	1.657740	0.167921	0.240861
O36	O	1.907740	0.417921	0.490861
O37	O	1.052348	-0.136400	-0.369942
O38	O	1.302348	0.113600	-0.119942
O39	O	1.552348	0.363600	0.130058
O40	O	1.802348	0.613600	0.380058
O41	O	0.960955	-0.254225	-0.144946
O42	O	1.210955	-0.004225	0.105054
O43	O	1.460955	0.245775	0.355054
O44	O	1.710955	0.495775	0.605054
O45	O	0.846911	-0.259051	-0.277377
O46	O	1.096911	-0.009051	-0.027377
O47	O	1.346911	0.240949	0.222623
O48	O	1.596911	0.490949	0.472623
O49	O	0.957287	-0.340561	-0.491910
O50	O	1.207287	-0.090561	-0.241910
O51	O	1.457287	0.159439	0.008090
O52	O	1.707287	0.409439	0.258090
O53	O	0.843197	-0.345459	-0.369828
O54	O	1.093197	-0.095459	-0.119828
O55	O	1.343197	0.154541	0.130172
O56	O	1.593197	0.404541	0.380172
O57	O	1.047446	-0.250442	-0.491960
O58	O	1.297446	-0.000442	-0.241960
O59	O	1.547446	0.249558	0.008040
O60	O	1.797446	0.499558	0.258040
O61	O	1.038748	-0.451019	-0.259074
O62	O	1.288748	-0.201019	-0.009074
O63	O	1.538748	0.048981	0.240926
O64	O	1.788748	0.298981	0.490926
O65	O	0.952338	-0.454675	-0.359414
O66	O	1.202338	-0.204675	-0.109414
O67	O	1.452338	0.045325	0.140586
O68	O	1.702338	0.295325	0.390586
C69	C	0.819524	-0.303343	-0.324761
C70	C	1.069524	-0.053343	-0.074761
C71	C	1.319524	0.196657	0.175239
C72	C	1.569524	0.446657	0.425239
C73	C	0.741316	-0.306694	-0.328326
C74	C	0.991316	-0.056694	-0.078326
C75	C	1.241316	0.193306	0.171674
C76	C	1.491316	0.443306	0.421674
C77	C	0.298893	-0.327881	-0.350965
C78	C	0.548893	-0.077881	-0.100965
C79	C	0.798893	0.172119	0.149035
C80	C	1.048893	0.422119	0.399035
C81	C	0.372377	-0.324738	-0.347600
C82	C	0.622377	-0.074738	-0.097600
C83	C	0.872377	0.175262	0.152400
C84	C	1.122377	0.425262	0.402400
C85	C	0.411033	-0.278106	-0.297870
C86	C	0.661033	-0.028106	-0.047870
C87	C	0.911033	0.221894	0.202130
C88	C	1.161033	0.471894	0.452130
C89	C	0.376201	-0.234620	-0.251496
C90	C	0.626201	0.015380	-0.001496
C91	C	0.876201	0.265380	0.248504
C92	C	1.126201	0.515380	0.498504
C93	C	0.302718	-0.237766	-0.254857
C94	C	0.552718	0.012234	-0.004857
C95	C	0.802718	0.262234	0.245143
C96	C	1.052718	0.512234	0.495143
C97	C	0.633001	-0.266354	-0.285313
C98	C	0.883001	-0.016354	-0.035313
C99	C	1.133001	0.233646	0.214687
C100	C	1.383001	0.483646	0.464687
C101	C	0.706489	-0.263209	-0.281957
C102	C	0.956489	-0.013209	-0.031957
C103	C	1.206489	0.236791	0.218043
C104	C	1.456489	0.486791	0.468043
C105	C	0.702660	-0.353329	-0.378061
C106	C	0.952660	-0.103329	-0.128061
C107	C	1.202660	0.146671	0.121939
C108	C	1.452660	0.396671	0.371939
C109	C	0.629176	-0.356468	-0.381421
C110	C	0.879176	-0.106468	-0.131421
C111	C	1.129176	0.143532	0.118579
C112	C	1.379176	0.393532	0.368579
C113	C	0.594350	-0.312984	-0.335044
C114	C	0.844350	-0.062984	-0.085044
C115	C	1.094350	0.187016	0.164956
C116	C	1.344350	0.437016	0.414956
C117	C	0.486146	-0.274891	-0.294431
C118	C	0.736146	-0.024891	-0.044431
C119	C	0.986146	0.225109	0.205569
C120	C	1.236146	0.475109	0.455569
C121	C	0.519238	-0.316203	-0.338479
C122	C	0.769238	-0.066203	-0.088479
C123	C	1.019238	0.183797	0.161521
C124	C	1.269238	0.433797	0.411521
C125	C	0.994460	-0.478379	-0.308088
C126	C	1.244460	-0.228379	-0.058088
C127	C	1.494460	0.021621	0.191912
C128	C	1.744460	0.271621	0.441912
C129	C	0.991155	-0.556591	-0.304526
C130	C	1.241155	-0.306591	-0.054526
C131	C	1.491155	-0.056591	0.195474
C132	C	1.741155	0.193409	0.445474
C133	C	1.034576	-0.591344	-0.351055
C134	C	1.284576	-0.341344	-0.101055
C135	C	1.534576	-0.091344	0.148945
C136	C	1.784576	0.158656	0.398945
C137	C	1.031468	-0.664832	-0.347710
C138	C	1.281468	-0.414832	-0.097710
C139	C	1.531468	-0.164832	0.152290
C140	C	1.781468	0.085168	0.402290
C141	C	0.984943	-0.703566	-0.297831
C142	C	1.234943	-0.453566	-0.047831
C143	C	1.484943	-0.203566	0.202169
C144	C	1.734943	0.046434	0.452169
C145	C	0.941517	-0.668808	-0.251300
C146	C	1.191517	-0.418808	-0.001300
C147	C	1.441517	-0.168808	0.248700
C148	C	1.691517	0.081192	0.498700
C149	C	0.944622	-0.595321	-0.254650
C150	C	1.194622	-0.345321	-0.004650
C151	C	1.444622	-0.095321	0.245350
C152	C	1.694622	0.154679	0.495350
C153	C	0.973315	-0.925549	-0.285309
C154	C	1.223315	-0.675549	-0.035309
C155	C	1.473315	-0.425549	0.214691
C156	C	1.723315	-0.175549	0.464691
C157	C	0.970215	-0.999041	-0.281961
C158	C	1.220215	-0.749041	-0.031961
C159	C	1.470215	-0.499041	0.218039
C160	C	1.720215	-0.249041	0.468039
C161	C	1.060166	-0.995059	-0.378372
C162	C	1.310166	-0.745059	-0.128372
C163	C	1.560166	-0.495059	0.121628
C164	C	1.810166	-0.245059	0.371628
C165	C	1.063270	-0.921571	-0.381713
C166	C	1.313270	-0.671571	-0.131713
C167	C	1.563270	-0.421571	0.118287
C168	C	1.813270	-0.171571	0.368287
C169	C	1.019841	-0.886820	-0.335186
C170	C	1.269841	-0.636820	-0.085186
C171	C	1.519841	-0.386820	0.164814
C172	C	1.769841	-0.136820	0.414814
C173	C	0.981766	-0.778683	-0.294409
C174	C	1.231766	-0.528683	-0.044409
C175	C	1.481766	-0.278683	0.205591
C176	C	1.731766	-0.028683	0.455591
C177	C	1.023015	-0.811704	-0.338613
C178	C	1.273015	-0.561704	-0.088613
C179	C	1.523015	-0.311704	0.161387
C180	C	1.773015	-0.061704	0.411387
C181	C	1.185859	-0.287729	-0.308144
C182	C	1.435859	-0.037729	-0.058144
C183	C	1.685859	0.212271	0.191856
C184	C	1.935859	0.462271	0.441856
C185	C	1.264066	-0.284396	-0.304596
C186	C	1.514066	-0.034396	-0.054596
C187	C	1.764066	0.215604	0.195404
C188	C	2.014066	0.465604	0.445404
C189	C	1.002372	-0.295493	-0.521214
C190	C	1.252372	-0.045493	-0.271214
C191	C	1.502372	0.204507	-0.021214
C192	C	1.752372	0.454507	0.228786
C193	C	1.002387	-0.295468	-0.608464
C194	C	1.252387	-0.045468	-0.358464
C195	C	1.502387	0.204532	-0.108464
C196	C	1.752387	0.454532	0.141536
C197	C	1.010259	-0.112009	-0.324897
C198	C	1.260259	0.137991	-0.074897
C199	C	1.510259	0.387991	0.175103
C200	C	1.760259	0.637991	0.425103
C201	C	1.013636	-0.033794	-0.328490
C202	C	1.263636	0.216206	-0.078490
C203	C	1.513636	0.466206	0.171510
C204	C	1.763636	0.716206	0.421510
C205	C	1.045514	-0.338472	-0.980173
C206	C	1.295514	-0.088472	-0.730173
C207	C	1.545514	0.161528	-0.480173
C208	C	1.795514	0.411528	-0.230173
C209	C	1.045495	-0.338493	-0.898193
C210	C	1.295495	-0.088493	-0.648193
C211	C	1.545495	0.161507	-0.398193
C212	C	1.795495	0.411507	-0.148193
C213	C	1.002435	-0.295416	-0.861313
C214	C	1.252435	-0.045416	-0.611313
C215	C	1.502435	0.204584	-0.361313
C216	C	1.752435	0.454584	-0.111313
C217	C	0.959385	-0.252320	-0.906419
C218	C	1.209385	-0.002320	-0.656419
C219	C	1.459385	0.247680	-0.406419
C220	C	1.709385	0.497680	-0.156419
C221	C	0.959400	-0.252303	-0.988398
C222	C	1.209400	-0.002303	-0.738398
C223	C	1.459400	0.247697	-0.488398
C224	C	1.709400	0.497697	-0.238398
C225	C	0.959357	-0.252358	-0.735548
C226	C	1.209357	-0.002358	-0.485548
C227	C	1.459357	0.247642	-0.235548
C228	C	1.709357	0.497642	0.014452
C229	C	0.959342	-0.252374	-0.653563
C230	C	1.209342	-0.002374	-0.403563
C231	C	1.459342	0.247626	-0.153563
C232	C	1.709342	0.497626	0.096437
C233	C	1.045452	-0.338548	-0.645343
C234	C	1.295452	-0.088548	-0.395343
C235	C	1.545452	0.161452	-0.145343
C236	C	1.795452	0.411452	0.104657
C237	C	1.045468	-0.338531	-0.727322
C238	C	1.295468	-0.088531	-0.477322
C239	C	1.545468	0.161469	-0.227322
C240	C	1.795468	0.411469	0.022678
C241	C	1.002418	-0.295434	-0.772422
C242	C	1.252418	-0.045434	-0.522422
C243	C	1.502418	0.204566	-0.272422
C244	C	1.752418	0.454566	-0.022422
C245	C	1.002340	-0.295557	-0.112520
C246	C	1.252340	-0.045557	0.137480
C247	C	1.502340	0.204443	0.387480
C248	C	1.752340	0.454443	0.637480
C249	C	1.002469	-0.295378	-0.025273
C250	C	1.252469	-0.045378	0.224727
C251	C	1.502469	0.204622	0.474727
C252	C	1.752469	0.454622	0.724727
H253	H	0.267424	-0.365849	-0.391465
H254	H	0.517424	-0.115849	-0.141465
H255	H	0.767424	0.134151	0.108535
H256	H	1.017424	0.384151	0.358535
H257	H	1.060893	-0.780165	-0.379227
H258	H	1.310893	-0.530165	-0.129227
H259	H	1.560893	-0.280165	0.120773
H260	H	1.810893	-0.030165	0.370773
H261	H	0.932325	-1.030576	-0.241343
H262	H	1.182325	-0.780576	0.008657
H263	H	1.432325	-0.530576	0.258657
H264	H	1.682325	-0.280576	0.508657
F265	F	0.913564	-0.206467	-0.867166
F266	F	1.163564	0.043533	-0.617166
F267	F	1.413564	0.293533	-0.367166
F268	F	1.663564	0.543533	-0.117166
F269	F	1.091266	-0.384417	-0.597344
F270	F	1.341266	-0.134417	-0.347344
F271	F	1.591266	0.115583	-0.097344
F272	F	1.841266	0.365583	0.152656
F273	F	1.091350	-0.384317	-1.019416
F274	F	1.341350	-0.134317	-0.769416
F275	F	1.591350	0.115683	-0.519416
F276	F	1.841350	0.365683	-0.269416
H277	H	0.517628	-0.236922	-0.253942
H278	H	0.767628	0.013078	-0.003942
H279	H	1.017628	0.263078	0.246058
H280	H	1.267628	0.513078	0.496058
H281	H	1.101154	-0.890035	-0.422329
H282	H	1.351154	-0.640035	-0.172329
H283	H	1.601154	-0.390035	0.077671
H284	H	1.851154	-0.140035	0.327671
F285	F	0.913589	-0.206433	-1.036396
F286	F	1.163589	0.043567	-0.786396
F287	F	1.413589	0.293567	-0.536396
F288	F	1.663589	0.543567	-0.286396
F289	F	0.898406	-0.558335	-0.205129
F290	F	1.148406	-0.308335	0.044871
F291	F	1.398406	-0.058335	0.294871
F292	F	1.648406	0.191665	0.544871
F293	F	0.932249	-0.819913	-0.241329
F294	F	1.182249	-0.569913	0.008671
F295	F	1.432249	-0.319913	0.258671
F296	F	1.682249	-0.069913	0.508671
H297	H	1.066832	-0.693124	-0.385592
H298	H	1.316832	-0.443124	-0.135592
H299	H	1.566832	-0.193124	0.114408
H300	H	1.816832	0.056876	0.364408
H301	H	0.400730	-0.360149	-0.385357
H302	H	0.650730	-0.110149	-0.135357
H303	H	0.900730	0.139851	0.114643
H304	H	1.150730	0.389851	0.364643
H305	H	1.080538	-0.373594	-0.861476
H306	H	1.330538	-0.123594	-0.611476
H307	H	1.580538	0.126406	-0.361476
H308	H	1.830538	0.376406	-0.111476
F309	F	1.091299	-0.384376	-0.766571
F310	F	1.341299	-0.134376	-0.516571
F311	F	1.591299	0.115624	-0.266571
F312	F	1.841299	0.365624	-0.016571
F313	F	0.913511	-0.206528	-0.614315
F314	F	1.163511	0.043472	-0.364315
F315	F	1.413511	0.293472	-0.114315
F316	F	1.663511	0.543472	0.135685
H317	H	0.487761	-0.354173	-0.378967
H318	H	0.737761	-0.104173	-0.128967
H319	H	0.987761	0.145827	0.121033
H320	H	1.237761	0.395827	0.371033
F321	F	0.927089	-0.888574	-0.235796
F322	F	1.177089	-0.638574	0.014204
F323	F	1.427089	-0.388574	0.264204
F324	F	1.677089	-0.138574	0.514204
H325	H	0.597706	-0.394442	-0.421915
H326	H	0.847706	-0.144442	-0.171915
H327	H	1.097706	0.105558	0.078085
H328	H	1.347706	0.355558	0.328085
H329	H	0.924302	-0.217264	-0.772266
H330	H	1.174302	0.032736	-0.522266
H331	H	1.424302	0.282736	-0.272266
H332	H	1.674302	0.532736	-0.022266
H333	H	1.072465	-0.559811	-0.391668
H334	H	1.322465	-0.309811	-0.141668
H335	H	1.572465	-0.059811	0.108332
H336	H	1.822465	0.190189	0.358332
H337	H	0.903632	-0.700352	-0.210691
H338	H	1.153632	-0.450352	0.039309
H339	H	1.403632	-0.200352	0.289309
H340	H	1.653632	0.049648	0.539309
F341	F	0.747629	-0.213577	-0.229023
F342	F	0.997629	0.036423	0.020977
F343	F	1.247629	0.286423	0.270977
F344	F	1.497629	0.536423	0.520977
F345	F	0.739729	-0.399609	-0.427409
F346	F	0.989729	-0.149609	-0.177409
F347	F	1.239729	0.100391	0.072591
F348	F	1.489729	0.350391	0.322591
H349	H	0.604655	-0.230949	-0.247547
H350	H	0.854655	0.019051	0.002453
H351	H	1.104655	0.269051	0.252453
H352	H	1.354655	0.519051	0.502453
H353	H	0.407681	-0.196654	-0.211001
H354	H	0.657681	0.053346	0.038999
H355	H	0.907681	0.303346	0.288999
H356	H	1.157681	0.553346	0.538999
F357	F	0.265653	-0.191486	-0.205502
F358	F	0.515653	0.058514	0.044498
F359	F	0.765653	0.308514	0.294498
F360	F	1.015653	0.558514	0.544498
F361	F	1.106380	-1.032050	-0.427888
F362	F	1.356380	-0.782050	-0.177888
F363	F	1.606380	-0.532050	0.072112
F364	F	1.856380	-0.282050	0.322112
