data_functionalizedCrystal
_audit_creation_method	'MofGen! by Chris Wilmer'
_symmetry_space_group_name_H-M	'P1'
_symmetry_Int_Tables_number	1
_symmetry_cell_setting	triclinic
loop_
_symmetry_equiv_pos_as_xyz
  x,y,z
_cell_length_a	16.625548
_cell_length_b	18.050589
_cell_length_c	18.050582
_cell_angle_alpha	89.981795
_cell_angle_beta	89.985107
_cell_angle_gamma	90.029289
loop_
_atom_site_label
_atom_site_type_symbol
_atom_site_fract_x
_atom_site_fract_y
_atom_site_fract_z
Zn1	Zn	1.232603	-0.295685	-0.419935
Zn2	Zn	1.565936	0.037648	-0.086601
Zn3	Zn	1.899270	0.370981	0.246732
Zn4	Zn	1.232506	-0.419869	-0.295754
Zn5	Zn	1.565839	-0.086535	0.037579
Zn6	Zn	1.899173	0.246798	0.370913
Zn7	Zn	1.097778	-0.295699	-0.295759
Zn8	Zn	1.431112	0.037634	0.037575
Zn9	Zn	1.764445	0.370967	0.370908
Zn10	Zn	1.097722	-0.419840	-0.419903
Zn11	Zn	1.431055	-0.086507	-0.086569
Zn12	Zn	1.764388	0.246826	0.246764
O13	O	1.165152	-0.357774	-0.357837
O14	O	1.498486	-0.024440	-0.024504
O15	O	1.831819	0.308893	0.308829
O16	O	1.345423	-0.312165	-0.403473
O17	O	1.678756	0.021169	-0.070140
O18	O	2.012089	0.354502	0.263194
O19	O	1.214617	-0.403415	-0.191830
O20	O	1.547951	-0.070082	0.141503
O21	O	1.881284	0.263252	0.474837
O22	O	1.115727	-0.191773	-0.312246
O23	O	1.449061	0.141560	0.021087
O24	O	1.782394	0.474894	0.354420
O25	O	1.345351	-0.403402	-0.312238
O26	O	1.678685	-0.070068	0.021095
O27	O	2.012018	0.263265	0.354428
O28	O	1.214782	-0.191763	-0.403478
O29	O	1.548116	0.141571	-0.070144
O30	O	1.881449	0.474904	0.263189
O31	O	1.115633	-0.312188	-0.191833
O32	O	1.448967	0.021145	0.141500
O33	O	1.782300	0.354478	0.474833
O34	O	0.984938	-0.312161	-0.312215
O35	O	1.318272	0.021172	0.021118
O36	O	1.651605	0.354506	0.354451
O37	O	1.115631	-0.403353	-0.523831
O38	O	1.448964	-0.070020	-0.190498
O39	O	1.782298	0.263313	0.142835
O40	O	0.984897	-0.403367	-0.403423
O41	O	1.318230	-0.070034	-0.070090
O42	O	1.651564	0.263300	0.263244
O43	O	1.214728	-0.312137	-0.523855
O44	O	1.548061	0.021196	-0.190522
O45	O	1.881394	0.354529	0.142812
O46	O	1.214562	-0.523790	-0.312207
O47	O	1.547896	-0.190456	0.021126
O48	O	1.881229	0.142877	0.354460
O49	O	1.115537	-0.523769	-0.403419
O50	O	1.448870	-0.190436	-0.070085
O51	O	1.782204	0.142898	0.263248
C52	C	0.955661	-0.357763	-0.357817
C53	C	1.288995	-0.024430	-0.024483
C54	C	1.622328	0.308904	0.308850
C55	C	0.866040	-0.357776	-0.357825
C56	C	1.199374	-0.024443	-0.024492
C57	C	1.532707	0.308890	0.308841
C58	C	0.537865	-0.357781	-0.357857
C59	C	0.871198	-0.024448	-0.024524
C60	C	1.204531	0.308886	0.308810
C61	C	0.629173	-0.357778	-0.357846
C62	C	0.962506	-0.024444	-0.024513
C63	C	1.295840	0.308889	0.308821
C64	C	0.701950	-0.357779	-0.357841
C65	C	1.035283	-0.024446	-0.024507
C66	C	1.368616	0.308888	0.308826
C67	C	0.793264	-0.357775	-0.357831
C68	C	1.126597	-0.024442	-0.024497
C69	C	1.459931	0.308892	0.308836
C70	C	1.165055	-0.550726	-0.357825
C71	C	1.498388	-0.217392	-0.024492
C72	C	1.831722	0.115941	0.308842
C73	C	1.165087	-0.633271	-0.357845
C74	C	1.498420	-0.299938	-0.024511
C75	C	1.831754	0.033395	0.308822
C76	C	1.111290	-0.832738	-0.407428
C77	C	1.444623	-0.499404	-0.074095
C78	C	1.777957	-0.166071	0.259239
C79	C	1.091641	-0.882172	-0.339661
C80	C	1.424974	-0.548839	-0.006327
C81	C	1.758307	-0.215505	0.327006
C82	C	1.165166	-0.784402	-0.357854
C83	C	1.498500	-0.451068	-0.024521
C84	C	1.831833	-0.117735	0.308812
C85	C	1.184855	-0.882049	-0.425629
C86	C	1.518188	-0.548716	-0.092296
C87	C	1.851522	-0.215383	0.241037
C88	C	1.165241	-0.930387	-0.357870
C89	C	1.498575	-0.597054	-0.024536
C90	C	1.831908	-0.263720	0.308797
C91	C	1.145479	-0.832749	-0.290051
C92	C	1.478812	-0.499416	0.043282
C93	C	1.812145	-0.166082	0.376616
C94	C	1.238727	-0.832622	-0.376065
C95	C	1.572060	-0.499288	-0.042732
C96	C	1.905394	-0.165955	0.290601
C97	C	1.219106	-0.882034	-0.308251
C98	C	1.552439	-0.548700	0.025082
C99	C	1.885772	-0.215367	0.358415
C100	C	1.165121	-0.700304	-0.357846
C101	C	1.498454	-0.366970	-0.024513
C102	C	1.831788	-0.033637	0.308820
C103	C	1.165287	-1.014483	-0.357870
C104	C	1.498620	-0.681150	-0.024537
C105	C	1.831953	-0.347817	0.308797
C106	C	1.375461	-0.357785	-0.357859
C107	C	1.708794	-0.024451	-0.024525
C108	C	2.042128	0.308882	0.308808
C109	C	1.465082	-0.357790	-0.357868
C110	C	1.798416	-0.024456	-0.024534
C111	C	2.131749	0.308877	0.308799
C112	C	1.165184	-0.357741	-0.551543
C113	C	1.498517	-0.024407	-0.218210
C114	C	1.831851	0.308926	0.115124
C115	C	1.165197	-0.357727	-0.634089
C116	C	1.498531	-0.024393	-0.300756
C117	C	1.831864	0.308940	0.032578
C118	C	1.165272	-0.164068	-0.357866
C119	C	1.498605	0.169265	-0.024533
C120	C	1.831939	0.502599	0.308801
C121	C	1.165323	-0.081522	-0.357878
C122	C	1.498656	0.251811	-0.024545
C123	C	1.831990	0.585145	0.308788
C124	C	1.111350	-0.407262	-0.833527
C125	C	1.444683	-0.073929	-0.500194
C126	C	1.778016	0.259405	-0.166860
C127	C	1.184913	-0.425414	-0.882920
C128	C	1.518246	-0.092081	-0.549586
C129	C	1.851579	0.241252	-0.216253
C130	C	1.165237	-0.357670	-0.785219
C131	C	1.498570	-0.024337	-0.451886
C132	C	1.831904	0.308997	-0.118553
C133	C	1.091715	-0.339497	-0.882908
C134	C	1.425048	-0.006164	-0.549575
C135	C	1.758381	0.327170	-0.216242
C136	C	1.165269	-0.357617	-0.931205
C137	C	1.498602	-0.024283	-0.597871
C138	C	1.831936	0.309050	-0.264538
C139	C	1.238839	-0.375858	-0.833525
C140	C	1.572172	-0.042524	-0.500191
C141	C	1.905505	0.290809	-0.166858
C142	C	1.145591	-0.289909	-0.833509
C143	C	1.478924	0.043425	-0.500176
C144	C	1.812258	0.376758	-0.166843
C145	C	1.219205	-0.308035	-0.882880
C146	C	1.552538	0.025298	-0.549546
C147	C	1.885871	0.358631	-0.216213
C148	C	1.165218	-0.357703	-0.701121
C149	C	1.498551	-0.024369	-0.367788
C150	C	1.831884	0.308964	-0.034454
C151	C	1.165297	-0.357584	-1.015301
C152	C	1.498630	-0.024250	-0.681968
C153	C	1.831963	0.309083	-0.348634
C154	C	1.165167	-0.357753	-0.164885
C155	C	1.498501	-0.024419	0.168448
C156	C	1.831834	0.308914	0.501781
C157	C	1.165310	-0.357558	-0.082340
C158	C	1.498643	-0.024224	0.250993
C159	C	1.831977	0.309109	0.584327
H160	H	1.065662	-0.811092	-0.449292
H161	H	1.398995	-0.477758	-0.115958
H162	H	1.732328	-0.144425	0.217375
H163	H	1.264842	-0.266074	-0.904413
H164	H	1.598175	0.067259	-0.571079
H165	H	1.931508	0.400593	-0.237746
H166	H	1.201549	-0.482696	-0.904623
H167	H	1.534882	-0.149362	-0.571290
H168	H	1.868215	0.183971	-0.237956
H169	H	1.264699	-0.903543	-0.266287
H170	H	1.598033	-0.570209	0.067047
H171	H	1.931366	-0.236876	0.400380
H172	H	1.300885	-0.810842	-0.391487
H173	H	1.634219	-0.477509	-0.058154
H174	H	1.967552	-0.144176	0.275180
H175	H	1.128933	-0.232644	-0.811790
H176	H	1.462267	0.100689	-0.478456
H177	H	1.795600	0.434023	-0.145123
H178	H	1.029468	-0.903953	-0.324272
H179	H	1.362802	-0.570620	0.009062
H180	H	1.696135	-0.237287	0.342395
H181	H	1.029524	-0.324149	-0.904601
H182	H	1.362858	0.009185	-0.571268
H183	H	1.696191	0.342518	-0.237935
H184	H	1.201478	-0.903705	-0.482940
H185	H	1.534811	-0.570371	-0.149607
H186	H	1.868145	-0.237038	0.183727
H187	H	1.065822	-0.449256	-0.811858
H188	H	1.399155	-0.115922	-0.478524
H189	H	1.732488	0.217411	-0.145191
H190	H	1.301047	-0.391271	-0.811923
H191	H	1.634380	-0.057938	-0.478590
H192	H	1.967714	0.275396	-0.145257
H193	H	1.128784	-0.811183	-0.232725
H194	H	1.462117	-0.477849	0.100608
H195	H	1.795450	-0.144516	0.433942
