data_functionalizedCrystal
_audit_creation_method	'MofGen! by Chris Wilmer'
_symmetry_space_group_name_H-M	'P1'
_symmetry_Int_Tables_number	1
_symmetry_cell_setting	triclinic
loop_
_symmetry_equiv_pos_as_xyz
  x,y,z
_cell_length_a	20.016444
_cell_length_b	23.196402
_cell_length_c	23.196401
_cell_angle_alpha	60.008822
_cell_angle_beta	90.010477
_cell_angle_gamma	59.999538
loop_
_atom_site_label
_atom_site_type_symbol
_atom_site_fract_x
_atom_site_fract_y
_atom_site_fract_z
Zr1	Zr	0.643590	0.631007	-0.075659
O2	O	0.536894	0.751273	-0.167700
O3	O	0.676295	0.510742	-0.047447
O4	O	0.676266	0.631009	-0.167712
O5	O	0.536950	0.631004	0.047437
O6	O	0.786207	0.631011	-0.167717
O7	O	0.536924	0.631005	-0.047435
O8	O	0.786260	0.415875	0.047415
O9	O	0.536897	0.846140	-0.167696
O10	O	0.772295	0.560210	-0.035414
O11	O	0.690266	0.560208	0.035391
O12	O	0.690232	0.701807	-0.106205
O13	O	0.608203	0.701805	-0.035400
Zr14	Zr	0.818976	0.631007	0.075642
Zr15	Zr	0.818934	0.631010	-0.075667
Zr16	Zr	0.643632	0.631005	0.075650
Zr17	Zr	0.643595	0.782310	-0.075652
Zr18	Zr	0.818971	0.479705	0.075635
O19	O	0.786271	0.751272	0.047430
O20	O	0.786211	0.751276	-0.167712
O21	O	0.536954	0.751269	0.047442
O22	O	0.925672	0.510742	0.167683
O23	O	0.925612	0.510745	-0.047459
O24	O	0.676355	0.510739	0.167695
O25	O	0.925616	0.631010	-0.047453
O26	O	0.786300	0.631005	0.167695
O27	O	0.676359	0.631004	0.167700
O28	O	0.925642	0.631009	0.047418
O29	O	0.676273	0.846142	-0.167703
O30	O	0.786293	0.415873	0.167686
O31	O	0.925669	0.415875	0.167679
O32	O	0.925635	0.415876	0.047409
O33	O	0.536931	0.846138	-0.047425
O34	O	0.676306	0.846140	-0.047432
O35	O	0.772334	0.560208	0.106189
O36	O	0.854363	0.560210	0.035383
O37	O	0.772300	0.701807	-0.035408
O38	O	0.690271	0.701805	0.035397
C39	C	0.731277	0.441751	-0.000016
C40	C	0.731275	0.377519	-0.000019
C41	C	0.511954	0.631004	0.000002
C42	C	0.437516	0.631003	0.000006
C43	C	0.196313	0.631013	0.052253
C44	C	0.266258	0.631009	0.052259
C45	C	0.266250	0.630999	-0.052272
C46	C	0.196309	0.630997	-0.052275
C47	C	0.161340	0.631008	-0.000013
C48	C	0.301226	0.631007	-0.000004
C49	C	0.377063	0.631003	0.000003
C50	C	0.085499	0.631010	-0.000018
C51	C	0.731231	0.631010	-0.189273
C52	C	0.731213	0.631011	-0.253507
C53	C	0.950612	0.631010	-0.000019
C54	C	1.025050	0.631011	-0.000023
C55	C	0.774087	0.347350	-0.036981
C56	C	0.774095	0.286989	-0.036976
C57	C	0.731275	0.256811	-0.000017
C58	C	0.688460	0.286984	0.036953
C59	C	0.688461	0.347338	0.036952
C60	C	0.659535	0.194781	-0.005288
C61	C	0.659532	0.134431	-0.005292
C62	C	0.731276	0.070656	-0.000010
C63	C	0.803021	0.067245	0.005262
C64	C	0.803021	0.127599	0.005261
C65	C	0.731270	0.191367	-0.000012
C66	C	0.774101	-0.024964	-0.036968
C67	C	0.774111	-0.085330	-0.036957
C68	C	0.688468	-0.085328	0.036967
C69	C	0.688466	-0.024969	0.036961
C70	C	0.731280	0.005212	-0.000011
C71	C	0.731289	0.820263	-0.000000
C72	C	0.731291	0.884495	0.000003
C73	C	0.688381	0.704921	-0.320633
C74	C	0.688401	0.704922	-0.380988
C75	C	0.731243	0.631009	-0.374214
C76	C	0.774085	0.557089	-0.307076
C77	C	0.774070	0.557090	-0.246723
C78	C	0.725158	0.574381	-0.441533
C79	C	0.725167	0.574383	-0.501886
C80	C	0.731295	0.631003	-0.560361
C81	C	0.737397	0.687634	-0.558482
C82	C	0.737382	0.687635	-0.498129
C83	C	0.731265	0.631000	-0.439652
C84	C	0.688483	0.704919	-0.692933
C85	C	0.688510	0.704917	-0.753288
C86	C	0.774188	0.557082	-0.679374
C87	C	0.774167	0.557086	-0.619021
C88	C	0.731310	0.631007	-0.625806
C89	C	0.731335	0.631004	0.189256
C90	C	0.731353	0.631003	0.253491
C91	C	0.950606	0.441754	-0.000027
C92	C	1.025042	0.377523	-0.000033
C93	C	0.731329	0.441748	0.189248
C94	C	0.731345	0.377515	0.253480
C95	C	0.950658	0.441751	0.189237
C96	C	1.025112	0.377519	0.253466
C97	C	0.511908	0.820264	-0.189254
C98	C	0.437454	0.884495	-0.253482
C99	C	0.511960	0.820261	0.000010
C100	C	0.437524	0.884492	0.000017
C101	C	0.731237	0.820266	-0.189265
C102	C	0.731221	0.884499	-0.253496
C103	C	1.017160	0.347359	-0.036998
C104	C	1.087094	0.287016	-0.037018
C105	C	1.164909	0.256833	-0.000069
C106	C	1.172790	0.287003	0.036897
C107	C	1.102857	0.347349	0.036912
C108	C	0.774191	0.347351	0.320606
C109	C	0.774203	0.287006	0.380964
C110	C	0.731373	0.256822	0.374195
C111	C	0.688522	0.286992	0.307062
C112	C	0.688506	0.347340	0.246705
C113	C	1.102902	0.347356	0.246668
C114	C	1.172866	0.287012	0.307012
C115	C	1.165039	0.256827	0.374152
C116	C	1.087241	0.286996	0.380948
C117	C	1.017279	0.347344	0.320605
C118	C	0.359664	0.914666	-0.246685
C119	C	0.289700	0.975029	-0.307028
C120	C	0.297527	1.005216	-0.374168
C121	C	0.375325	0.975044	-0.380965
C122	C	0.445288	0.914686	-0.320622
C123	C	0.445406	0.914661	0.036975
C124	C	0.375472	0.975021	0.036979
C125	C	0.297657	1.005206	0.000027
C126	C	0.289776	0.975034	-0.036936
C127	C	0.359709	0.914679	-0.036943
C128	C	0.774059	0.914664	-0.246705
C129	C	0.774060	0.975009	-0.307052
C130	C	0.731218	1.005193	-0.374189
C131	C	0.688378	0.975023	-0.380980
C132	C	0.688382	0.914674	-0.320633
H133	H	0.167844	0.631020	0.094809
H134	H	0.381689	0.999630	-0.435637
O135	O	1.256726	0.254435	0.076750
H136	H	1.263855	0.305086	0.055398
H137	H	0.508626	0.890122	-0.326165
H138	H	0.653603	-0.109898	0.067059
H139	H	1.080880	0.262411	0.435622
O140	O	0.820275	0.882113	-0.174296
H141	H	0.867609	0.815537	-0.145037
H142	H	0.731393	0.207683	0.423347
O143	O	0.642176	0.882140	-0.327961
H144	H	0.594844	0.893721	-0.302231
H145	H	1.221847	0.207695	-0.000087
H146	H	0.720194	0.528274	-0.503412
O147	O	0.351211	0.882117	-0.174273
H148	H	0.285360	0.913253	-0.179695
H149	H	0.508762	0.890089	0.067070
O150	O	0.731204	1.070294	-0.439276
H151	H	0.768184	1.086202	-0.423267
O152	O	0.642199	0.784648	-0.453395
H153	H	0.685444	0.788191	-0.482644
O154	O	0.303982	0.631014	0.108632
H155	H	0.267911	0.631024	0.144968
O156	O	1.111366	0.379865	0.076799
H157	H	1.145332	0.407353	0.055450
H158	H	0.953941	0.371894	0.326150
H159	H	0.809069	0.371920	0.326131
H160	H	0.953804	0.371934	-0.067096
H161	H	0.808944	0.999568	-0.301509
O162	O	0.820431	0.254471	0.453364
H163	H	0.813244	0.207442	0.494203
H164	H	0.226360	0.999585	-0.301481
O165	O	0.642161	1.007589	-0.453394
H166	H	0.649351	1.054628	-0.494209
H167	H	0.381905	0.999577	0.067081
O168	O	0.744003	0.748710	-0.621549
H169	H	0.748235	0.788091	-0.610104
O170	O	0.158580	0.631000	-0.108657
H171	H	0.158751	0.575730	-0.083527
H172	H	0.808960	0.262420	-0.067076
O173	O	0.642354	0.254412	0.299765
H174	H	0.649586	0.207367	0.353016
O175	O	0.642423	0.379760	0.174305
H176	H	0.612699	0.348583	0.179746
H177	H	0.240553	1.054363	-0.423298
H178	H	0.294727	0.630992	-0.094824
H179	H	0.742352	0.733745	-0.496601
O180	O	1.111355	0.379915	0.174256
H181	H	1.177206	0.348804	0.179679
O182	O	0.222230	1.070281	0.000060
H183	H	0.240793	1.086171	0.031983
H184	H	0.226409	0.999620	-0.067021
H185	H	0.653600	-0.000402	0.067057
H186	H	1.236207	0.262455	0.301466
H187	H	0.808979	-0.109898	-0.067053
O188	O	0.351203	0.882133	-0.076800
H189	H	0.285342	0.913261	-0.102484
H190	H	0.808952	0.371919	-0.067084
O191	O	0.880396	0.123925	0.010951
H192	H	0.928919	0.066303	0.061184
O193	O	1.240501	0.191729	0.439235
H194	H	1.295906	0.175823	0.423221
H195	H	0.861444	0.015312	0.009572
H196	H	0.808966	-0.000393	-0.067070
O197	O	0.820411	0.477369	-0.672075
H198	H	0.886238	0.441946	-0.642766
H199	H	0.601104	0.246716	-0.009604
O200	O	0.582153	0.138114	-0.010988
H201	H	0.532268	0.192592	-0.014650
H202	H	0.653595	0.371903	0.067051
O203	O	0.642261	0.254453	0.076809
H204	H	0.685499	0.187877	0.117652
O205	O	0.642158	0.784647	-0.327949
H206	H	0.666907	0.820092	-0.357236
O207	O	0.642273	0.784642	-0.700241
H208	H	0.612504	0.836038	-0.757061
H209	H	0.809042	0.496901	-0.564364
O210	O	0.642310	0.784638	-0.825694
H211	H	0.612503	0.836035	-0.820268
H212	H	0.720161	0.528275	-0.393924
H213	H	0.808968	0.496909	-0.301564
O214	O	0.820267	0.477378	-0.174311
H215	H	0.795527	0.441927	-0.168174
O216	O	1.078585	0.254476	-0.076884
H217	H	1.012725	0.285595	-0.102560
