data_functionalizedCrystal
_audit_creation_method	'MofGen! by Chris Wilmer'
_symmetry_space_group_name_H-M	'P1'
_symmetry_Int_Tables_number	1
_symmetry_cell_setting	triclinic
loop_
_symmetry_equiv_pos_as_xyz
  x,y,z
_cell_length_a	19.188930
_cell_length_b	19.188925
_cell_length_c	9.016244
_cell_angle_alpha	89.998107
_cell_angle_beta	89.978791
_cell_angle_gamma	83.143665
loop_
_atom_site_label
_atom_site_type_symbol
_atom_site_fract_x
_atom_site_fract_y
_atom_site_fract_z
O1	O	0.926146	0.087165	-0.123816
O2	O	1.259480	0.420498	0.209517
O3	O	1.592813	0.753832	0.542851
O4	O	0.722835	0.098899	-0.123714
O5	O	1.056168	0.432233	0.209619
O6	O	1.389501	0.765566	0.542953
O7	O	0.830360	-0.008624	-0.123760
O8	O	1.163693	0.324709	0.209574
O9	O	1.497026	0.658043	0.542907
O10	O	0.818621	0.194688	-0.123770
O11	O	1.151955	0.528021	0.209563
O12	O	1.485288	0.861355	0.542896
O13	O	0.830344	-0.008621	0.122921
O14	O	1.163677	0.324712	0.456255
O15	O	1.497011	0.658045	0.789588
O16	O	0.722819	0.098902	0.122967
O17	O	1.056152	0.432235	0.456300
O18	O	1.389486	0.765568	0.789633
O19	O	0.926131	0.087167	0.122865
O20	O	1.259464	0.420501	0.456198
O21	O	1.592797	0.753834	0.789532
Cu22	Cu	0.824473	0.093035	0.145440
Cu23	Cu	1.157807	0.426368	0.478773
Cu24	Cu	1.491140	0.759702	0.812106
Cu25	Cu	0.824492	0.093032	-0.146289
Cu26	Cu	1.157825	0.426365	0.187044
Cu27	Cu	1.491159	0.759698	0.520378
O28	O	0.818606	0.194691	0.122910
O29	O	1.151939	0.528024	0.456244
O30	O	1.485272	0.861357	0.789577
C31	C	0.696816	0.098520	-0.000361
C32	C	1.030149	0.431854	0.332973
C33	C	1.363483	0.765187	0.666306
C34	C	0.619311	0.097380	-0.000322
C35	C	0.952645	0.430713	0.333012
C36	C	1.285978	0.764046	0.666345
C37	C	0.829972	-0.034634	-0.000420
C38	C	1.163306	0.298700	0.332913
C39	C	1.496639	0.632033	0.666247
C40	C	0.828833	-0.112138	-0.000422
C41	C	1.162167	0.221195	0.332911
C42	C	1.495500	0.554528	0.666244
C43	C	0.884297	-0.673909	-0.000488
C44	C	1.217631	-0.340575	0.332846
C45	C	1.550964	-0.007242	0.666179
C46	C	0.885374	-0.601085	-0.000475
C47	C	1.218707	-0.267752	0.332859
C48	C	1.552040	0.065581	0.666192
C49	C	0.822282	-0.556151	-0.000444
C50	C	1.155615	-0.222818	0.332890
C51	C	1.488948	0.110516	0.666223
C52	C	0.758108	-0.584045	-0.000387
C53	C	1.091441	-0.250712	0.332946
C54	C	1.424775	0.082622	0.666279
C55	C	0.757033	-0.656867	-0.000385
C56	C	1.090367	-0.323534	0.332948
C57	C	1.423700	0.009800	0.666281
N58	N	0.776611	-0.435471	-0.084384
N59	N	1.109944	-0.102138	0.248949
N60	N	1.443277	0.231195	0.582282
N61	N	0.777636	-0.366294	-0.084389
N62	N	1.110969	-0.032961	0.248944
N63	N	1.444303	0.300373	0.582277
C64	C	0.825516	-0.336742	-0.000446
C65	C	1.158849	-0.003408	0.332887
C66	C	1.492182	0.329925	0.666220
N67	N	0.872342	-0.378982	0.083483
N68	N	1.205675	-0.045648	0.416817
N69	N	1.539009	0.287685	0.750150
N70	N	0.871319	-0.448166	0.083482
N71	N	1.204652	-0.114832	0.416815
N72	N	1.537985	0.218501	0.750149
C73	C	0.823440	-0.477187	-0.000445
C74	C	1.156773	-0.143853	0.332888
C75	C	1.490106	0.189480	0.666222
C76	C	0.890852	-0.229893	-0.000478
C77	C	1.224185	0.103441	0.332855
C78	C	1.557519	0.436774	0.666189
C79	C	0.891926	-0.157068	-0.000456
C80	C	1.225259	0.176265	0.332877
C81	C	1.558593	0.509599	0.666211
C82	C	0.764659	-0.140029	-0.000384
C83	C	1.097992	0.193305	0.332950
C84	C	1.431325	0.526638	0.666283
C85	C	0.763587	-0.212852	-0.000391
C86	C	1.096920	0.120481	0.332943
C87	C	1.430253	0.453814	0.666276
C88	C	0.826685	-0.257780	-0.000445
C89	C	1.160019	0.075553	0.332888
C90	C	1.493352	0.408886	0.666222
C91	C	0.574386	0.160471	-0.000348
C92	C	0.907720	0.493804	0.332985
C93	C	1.241053	0.827137	0.666318
C94	C	0.501563	0.159399	-0.000365
C95	C	0.834896	0.492732	0.332969
C96	C	1.168229	0.826066	0.666302
C97	C	0.473667	0.095233	-0.000384
C98	C	0.807001	0.428566	0.332949
C99	C	1.140334	0.761900	0.666283
C100	C	0.518602	0.032134	-0.000349
C101	C	0.851936	0.365467	0.332984
C102	C	1.185269	0.698800	0.666318
C103	C	0.591424	0.033207	-0.000318
C104	C	0.924758	0.366540	0.333016
C105	C	1.258091	0.699874	0.666349
N106	N	0.365693	0.046185	-0.084397
N107	N	0.699027	0.379518	0.248936
N108	N	1.032360	0.712852	0.582269
N109	N	0.296515	0.045169	-0.084430
N110	N	0.629848	0.378503	0.248903
N111	N	0.963181	0.711836	0.582237
C112	C	0.254259	0.091995	-0.000474
C113	C	0.587592	0.425328	0.332859
C114	C	0.920925	0.758661	0.666192
N115	N	0.283793	0.139884	0.083496
N116	N	0.617126	0.473218	0.416830
N117	N	0.950460	0.806551	0.750163
N118	N	0.352978	0.140902	0.083523
N119	N	0.686311	0.474235	0.416856
N120	N	1.019644	0.807569	0.750189
C121	C	0.394705	0.094062	-0.000417
C122	C	0.728038	0.427395	0.332917
C123	C	1.061371	0.760728	0.666250
C124	C	0.130369	0.153928	-0.000517
C125	C	0.463702	0.487261	0.332817
C126	C	0.797036	0.820595	0.666150
C127	C	0.057544	0.152854	-0.000524
C128	C	0.390878	0.486187	0.332810
C129	C	0.724211	0.819520	0.666143
C130	C	0.074586	0.025586	-0.000523
C131	C	0.407919	0.358920	0.332810
C132	C	0.741252	0.692253	0.666144
C133	C	0.147409	0.026662	-0.000501
C134	C	0.480742	0.359996	0.332832
C135	C	0.814075	0.693329	0.666166
C136	C	0.175296	0.090835	-0.000505
C137	C	0.508629	0.424169	0.332828
C138	C	0.841962	0.757502	0.666162
C139	C	0.952150	0.087546	-0.000492
C140	C	1.285483	0.420880	0.332841
C141	C	1.618816	0.754213	0.666175
C142	C	1.029654	0.088687	-0.000541
C143	C	1.362987	0.422020	0.332793
C144	C	1.696321	0.755354	0.666126
C145	C	0.818993	0.220700	-0.000433
C146	C	1.152326	0.554034	0.332901
C147	C	1.485660	0.887367	0.666234
C148	C	0.820132	0.298205	-0.000440
C149	C	1.153466	0.631538	0.332894
C150	C	1.486799	0.964872	0.666227
N151	N	0.824466	0.093036	0.350626
N152	N	1.157799	0.426370	0.683959
N153	N	1.491132	0.759703	1.017292
N154	N	0.824505	0.093025	-0.351475
N155	N	1.157839	0.426358	-0.018142
N156	N	1.491172	0.759691	0.315192
C157	C	0.766775	0.150366	0.585683
C158	C	1.100108	0.483699	0.919016
C159	C	1.433441	0.817032	1.252350
C160	C	0.766898	0.150576	0.413792
C161	C	1.100232	0.483910	0.747125
C162	C	1.433565	0.817243	1.080458
C163	C	0.897270	0.108727	0.412926
C164	C	1.230603	0.442060	0.746260
C165	C	1.563937	0.775394	1.079593
C166	C	0.896954	0.109132	0.584871
C167	C	1.230287	0.442465	0.918205
C168	C	1.563620	0.775799	1.251538
C169	C	0.810079	0.019822	0.585183
C170	C	1.143413	0.353156	0.918516
C171	C	1.476746	0.686489	1.251849
C172	C	0.808398	0.020318	0.413229
C173	C	1.141732	0.353652	0.746563
C174	C	1.475065	0.686985	1.079896
H175	H	0.935677	-0.710485	-0.000524
H176	H	1.269011	-0.377152	0.332810
H177	H	1.602344	-0.043818	0.666143
H178	H	0.754844	0.008406	0.372515
H179	H	1.088177	0.341739	0.705849
H180	H	1.421511	0.675072	1.039182
O181	O	0.488516	-0.037074	-0.000362
O182	O	0.821849	0.296260	0.332972
O183	O	1.155182	0.629593	0.666305
H184	H	0.531993	-0.080767	-0.000324
H185	H	0.865326	0.252567	0.333010
H186	H	1.198660	0.585900	0.666343
H187	H	0.713288	-0.103444	-0.000345
H188	H	1.046621	0.229890	0.332988
H189	H	1.379954	0.563223	0.666321
H190	H	0.847729	-0.024333	0.370237
H191	H	1.181062	0.309000	0.703571
H192	H	1.514395	0.642334	1.036904
H193	H	0.942231	-0.266475	-0.000521
H194	H	1.275564	0.066858	0.332812
H195	H	1.608898	0.400191	0.666145
O196	O	0.195867	-0.041388	-0.000490
O197	O	0.529200	0.291945	0.332843
O198	O	0.862534	0.625278	0.666177
H199	H	0.229420	-0.043944	0.100075
H200	H	0.562754	0.289389	0.433408
H201	H	0.896087	0.622723	0.766741
O202	O	0.954584	-0.570997	-0.000552
O203	O	1.287917	-0.237664	0.332781
O204	O	1.621251	0.095669	0.666115
H205	H	0.984899	-0.589061	0.099957
H206	H	1.318232	-0.255728	0.433290
H207	H	1.651565	0.077606	0.766624
H208	H	0.706738	-0.547455	-0.000357
H209	H	1.040072	-0.214121	0.332976
H210	H	1.373405	0.119212	0.666309
O211	O	0.639887	-0.034843	-0.000296
O212	O	0.973220	0.298490	0.333037
O213	O	1.306554	0.631823	0.666370
H214	H	0.608259	-0.079644	-0.000316
H215	H	0.941592	0.253689	0.333017
H216	H	1.274925	0.587022	0.666350
O217	O	0.009083	0.220905	-0.000539
O218	O	0.342417	0.554238	0.332794
O219	O	0.675750	0.887572	0.666127
H220	H	0.018994	0.251618	-0.101089
H221	H	0.352327	0.584951	0.232244
H222	H	0.685660	0.918285	0.565578
O223	O	0.160456	0.223138	-0.000491
O224	O	0.493790	0.556471	0.332843
O225	O	0.827123	0.889805	0.666176
H226	H	0.116979	0.266831	-0.000484
H227	H	0.450312	0.600164	0.332850
H228	H	0.783646	0.933498	0.666183
O229	O	0.687825	-0.686952	-0.000334
O230	O	1.021158	-0.353618	0.332999
O231	O	1.354491	-0.020285	0.666332
H232	H	0.657522	-0.668893	-0.100862
H233	H	0.990856	-0.335560	0.232471
H234	H	1.324189	-0.002226	0.565805
O235	O	0.044511	-0.043625	-0.000544
O236	O	0.377844	0.289708	0.332789
O237	O	0.711178	0.623042	0.666122
H238	H	-0.013675	-0.033773	-0.000578
H239	H	0.319658	0.299560	0.332756
H240	H	0.652992	0.632893	0.666089
O241	O	0.961136	-0.126985	-0.000526
O242	O	1.294469	0.206348	0.332807
O243	O	1.627802	0.539682	0.666141
H244	H	1.004828	-0.170463	-0.000584
H245	H	1.338161	0.162870	0.332749
H246	H	1.671495	0.496204	0.666082
H247	H	0.776083	0.204904	0.372636
H248	H	1.109417	0.538238	0.705969
H249	H	1.442750	0.871571	1.039303
H250	H	0.712774	0.141260	0.371676
H251	H	1.046108	0.474594	0.705009
H252	H	1.379441	0.807927	1.038342
H253	H	0.711337	-0.235557	-0.000362
H254	H	1.044670	0.097776	0.332971
H255	H	1.378003	0.431110	0.666304
H256	H	0.597087	0.212725	-0.000354
H257	H	0.930420	0.546059	0.332979
H258	H	1.263754	0.879392	0.666312
O259	O	0.694849	0.138241	0.640544
O260	O	1.028182	0.471575	0.973877
O261	O	1.361515	0.804908	1.307210
H262	H	0.671590	0.184791	0.704283
H263	H	1.004924	0.518124	1.037616
H264	H	1.338257	0.851457	1.370950
O265	O	0.453093	0.227449	-0.000409
O266	O	0.786427	0.560782	0.332924
O267	O	1.119760	0.894116	0.666258
H268	H	0.484720	0.272252	-0.000417
H269	H	0.818053	0.605585	0.332916
H270	H	1.151386	0.938918	0.666250
H271	H	0.775835	0.204387	0.628867
H272	H	1.109169	0.537720	0.962200
H273	H	1.442502	0.871053	1.295534
H274	H	0.909700	0.162511	0.624949
H275	H	1.243033	0.495844	0.958283
H276	H	1.576367	0.829178	1.291616
H277	H	0.941242	0.069002	0.626435
H278	H	1.274576	0.402336	0.959768
H279	H	1.607909	0.735669	1.293101
O280	O	0.955523	0.054872	0.358728
O281	O	1.288857	0.388205	0.692062
O282	O	1.622190	0.721539	1.025395
H283	H	0.933149	0.016261	0.286634
H284	H	1.266482	0.349595	0.619967
H285	H	1.599816	0.682928	0.953300
H286	H	0.910323	0.161498	0.369837
H287	H	1.243656	0.494831	0.703171
H288	H	1.576989	0.828164	1.036504
H289	H	0.758160	0.004679	0.628658
H290	H	1.091493	0.338012	0.961991
H291	H	1.424826	0.671345	1.295324
H292	H	0.852182	-0.022846	0.625817
H293	H	1.185515	0.310487	0.959150
H294	H	1.518849	0.643820	1.292484
