data_functionalizedCrystal
_audit_creation_method	'MofGen! by Chris Wilmer'
_symmetry_space_group_name_H-M	'P1'
_symmetry_Int_Tables_number	1
_symmetry_cell_setting	triclinic
loop_
_symmetry_equiv_pos_as_xyz
  x,y,z
_cell_length_a	14.853566
_cell_length_b	14.853567
_cell_length_c	13.930277
_cell_angle_alpha	90.000757
_cell_angle_beta	89.995631
_cell_angle_gamma	96.365328
loop_
_atom_site_label
_atom_site_type_symbol
_atom_site_fract_x
_atom_site_fract_y
_atom_site_fract_z
O1	O	1.196369	-0.117698	-0.079759
O2	O	0.933909	-0.131721	-0.079774
O3	O	1.072150	0.006520	-0.079769
O4	O	1.058129	-0.255939	-0.079764
O5	O	1.072131	0.006523	0.079893
O6	O	0.933890	-0.131718	0.079888
O7	O	1.196350	-0.117695	0.079903
Zn8	Zn	1.065117	-0.124706	0.105245
Zn9	Zn	1.065142	-0.124710	-0.105116
O10	O	1.058109	-0.255936	0.079898
C11	C	0.900311	-0.131084	0.000055
C12	C	0.800227	-0.129181	0.000049
C13	C	0.377053	-0.121132	-0.086966
C14	C	0.377053	-0.121129	0.087103
C15	C	0.471087	-0.122916	0.087101
C16	C	0.518108	-0.123813	0.000063
C17	C	0.471095	-0.122922	-0.086972
C18	C	0.518106	-0.123817	0.174134
C19	C	0.612146	-0.125605	0.174134
C20	C	0.659170	-0.126495	0.087095
C21	C	0.612151	-0.125603	0.000057
C22	C	0.659172	-0.126499	-0.086980
C23	C	0.612156	-0.125601	-0.174019
C24	C	0.518119	-0.123812	-0.174010
C25	C	0.753206	-0.128284	0.087086
C26	C	0.753214	-0.128290	-0.086986
C27	C	1.071505	0.040111	0.000059
C28	C	1.069601	0.140194	0.000051
C29	C	1.229948	-0.118332	0.000072
C30	C	1.330032	-0.120235	0.000071
C31	C	1.058754	-0.289526	0.000068
C32	C	1.060658	-0.389610	0.000070
N33	N	1.065106	-0.124703	0.248811
C34	C	0.979435	0.552728	0.000064
C35	C	1.143668	0.574009	0.000073
C36	C	1.145458	0.479976	0.000067
C37	C	1.064236	0.422313	0.000061
C38	C	0.981223	0.458685	0.000061
C39	C	1.228470	0.443597	0.000078
C40	C	1.230263	0.349558	0.000073
C41	C	1.149040	0.291894	0.000060
C42	C	1.066023	0.328271	0.000059
C43	C	0.984801	0.270608	0.000053
C44	C	0.901784	0.306984	0.000045
C45	C	0.899999	0.401021	0.000048
C46	C	1.150824	0.197856	0.000057
C47	C	0.986588	0.176566	0.000050
N48	N	1.065160	-0.124706	-0.248682
C49	C	1.003927	-0.185899	0.701078
C50	C	1.126382	-0.063514	0.701052
C51	C	1.126372	-0.063511	0.600556
C52	C	1.065139	-0.124704	0.550317
C53	C	1.003916	-0.185900	0.600573
C54	C	1.187599	-0.002322	0.550292
C55	C	1.187592	-0.002318	0.449791
C56	C	1.126353	-0.063507	0.399549
C57	C	1.065128	-0.124705	0.449812
C58	C	1.003895	-0.185898	0.399572
C59	C	0.942664	-0.247092	0.449833
C60	C	0.942678	-0.247089	0.550332
C61	C	1.126339	-0.063510	0.299050
C62	C	1.003884	-0.185899	0.299067
H63	H	0.338762	-0.120405	0.157965
H64	H	0.892811	-0.296920	0.408917
C65	C	0.916400	0.022963	0.000040
C66	C	0.897304	0.113185	0.000040
H67	H	0.861278	-0.016164	0.000026
H68	H	0.950415	0.011928	0.055718
H69	H	0.950444	0.011933	-0.055637
H70	H	0.863266	0.124216	0.055720
H71	H	0.863274	0.124224	-0.055645
H72	H	0.835653	0.260023	0.000046
H73	H	0.338769	-0.120396	-0.157831
C74	C	0.824340	0.535723	0.000068
C75	C	0.808754	0.441007	0.000053
H76	H	0.768008	0.560408	0.000081
H77	H	0.857784	0.555505	-0.055605
H78	H	0.857787	0.555490	0.055750
H79	H	0.775312	0.421239	-0.055633
H80	H	0.775296	0.421217	0.055733
H81	H	1.237447	0.047510	0.408874
H82	H	0.892827	-0.296912	0.591260
C83	C	1.306185	0.585602	0.000079
C84	C	1.232946	0.637388	0.000080
H85	H	1.361303	0.624734	0.000088
H86	H	1.303472	0.548487	-0.055598
H87	H	1.303457	0.548476	0.055758
H88	H	1.235670	0.674510	-0.055603
H89	H	1.235660	0.674519	0.055763
C90	C	1.392425	0.380051	0.000075
C91	C	1.321513	0.309579	0.000071
H92	H	1.448757	0.355366	0.000066
H93	H	1.388307	0.416278	0.055754
H94	H	1.388308	0.416292	-0.055602
H95	H	1.325625	0.273341	0.055752
H96	H	1.325632	0.273336	-0.055613
C97	C	1.207004	0.120330	0.663309
C98	C	1.254896	0.064938	0.605523
H99	H	1.248551	0.161859	0.697407
H100	H	1.170546	0.083882	0.707611
H101	H	1.169446	0.152828	0.624095
H102	H	1.292449	0.032435	0.644739
H103	H	1.291370	0.101391	0.561217
H104	H	0.479830	-0.123079	-0.244873
H105	H	0.954017	-0.235726	0.258169
C106	C	0.881271	-0.205234	0.814118
C107	C	0.936627	-0.253161	0.756323
H108	H	0.839727	-0.246761	0.848228
H109	H	0.848799	-0.167657	0.774915
H110	H	0.917749	-0.168793	0.858418
H111	H	0.900149	-0.289597	0.712018
H112	H	0.969102	-0.290753	0.795529
H113	H	0.479814	-0.123093	0.244995
H114	H	1.294597	0.490552	0.000091
H115	H	1.176196	-0.013690	0.258133
C116	C	1.248117	0.104450	-0.082011
C117	C	1.242064	0.157867	0.000066
H118	H	1.304446	0.079759	-0.082002
H119	H	1.244023	0.140699	-0.137676
H120	H	1.199994	0.056656	-0.082010
H121	H	1.290183	0.205665	0.000061
H122	H	1.246167	0.121616	0.055745
H123	H	1.176241	-0.013696	0.741960
C124	C	0.602691	-0.125415	0.346199
C125	C	0.663823	-0.126581	0.269804
H126	H	0.634599	-0.126010	0.405261
H127	H	0.559211	-0.177248	0.342584
H128	H	0.572817	-0.072185	0.342569
H129	H	0.693693	-0.179815	0.273430
H130	H	0.707320	-0.074743	0.273421
H131	H	0.911845	0.582349	0.000053
C132	C	0.707878	-0.205059	-0.274995
C133	C	0.663851	-0.126589	-0.269688
H134	H	0.739799	-0.205665	-0.334052
H135	H	0.664379	-0.256878	-0.271386
H136	H	0.749327	-0.205842	-0.223151
H137	H	0.622397	-0.125809	-0.321528
H138	H	0.707355	-0.074756	-0.273306
C139	C	0.868997	-0.052864	0.188061
C140	C	0.804890	-0.129273	0.182747
H141	H	0.900908	-0.053479	0.247119
H142	H	0.839118	0.000354	0.184455
H143	H	0.910453	-0.053659	0.136218
H144	H	0.763430	-0.128475	0.234586
H145	H	0.834771	-0.182505	0.186362
H146	H	0.791493	-0.129017	-0.157863
