data_functionalizedCrystal
_audit_creation_method	'MofGen! by Chris Wilmer'
_symmetry_space_group_name_H-M	'P1'
_symmetry_Int_Tables_number	1
_symmetry_cell_setting	triclinic
loop_
_symmetry_equiv_pos_as_xyz
  x,y,z
_cell_length_a	17.077402
_cell_length_b	21.295418
_cell_length_c	17.077396
_cell_angle_alpha	90.040468
_cell_angle_beta	89.969358
_cell_angle_gamma	89.956563
loop_
_atom_site_label
_atom_site_type_symbol
_atom_site_fract_x
_atom_site_fract_y
_atom_site_fract_z
Zn1	Zn	-0.312114	-0.962333	-0.444330
Zn2	Zn	-0.062114	-0.712333	-0.194330
Zn3	Zn	0.187886	-0.462333	0.055670
Zn4	Zn	0.437886	-0.212333	0.305670
Zn5	Zn	-0.443393	-0.962259	-0.313063
Zn6	Zn	-0.193393	-0.712259	-0.063063
Zn7	Zn	0.056607	-0.462259	0.186937
Zn8	Zn	0.306607	-0.212259	0.436937
Zn9	Zn	-0.312187	-0.857070	-0.313024
Zn10	Zn	-0.062187	-0.607070	-0.063024
Zn11	Zn	0.187813	-0.357070	0.186976
Zn12	Zn	0.437813	-0.107070	0.436976
Zn13	Zn	-0.443384	-0.857035	-0.444233
Zn14	Zn	-0.193384	-0.607035	-0.194233
Zn15	Zn	0.056616	-0.357035	0.055767
Zn16	Zn	0.306616	-0.107035	0.305767
O17	O	-0.377769	-0.909674	-0.378663
O18	O	-0.127769	-0.659674	-0.128663
O19	O	0.122231	-0.409674	0.121337
O20	O	0.372231	-0.159674	0.371337
O21	O	-0.329502	-1.050413	-0.426974
O22	O	-0.079502	-0.800413	-0.176974
O23	O	0.170498	-0.550413	0.073026
O24	O	0.420498	-0.300413	0.323026
O25	O	-0.426022	-0.948289	-0.203211
O26	O	-0.176022	-0.698289	0.046789
O27	O	0.073978	-0.448289	0.296789
O28	O	0.323978	-0.198289	0.546789
O29	O	-0.202330	-0.871079	-0.330467
O30	O	0.047670	-0.621079	-0.080467
O31	O	0.297670	-0.371079	0.169533
O32	O	0.547670	-0.121079	0.419533
O33	O	-0.425952	-1.050358	-0.330533
O34	O	-0.175952	-0.800358	-0.080533
O35	O	0.074048	-0.550358	0.169467
O36	O	0.324048	-0.300358	0.419467
O37	O	-0.202277	-0.948415	-0.426937
O38	O	0.047723	-0.698415	-0.176937
O39	O	0.297723	-0.448415	0.073063
O40	O	0.547723	-0.198415	0.323063
O41	O	-0.329625	-0.871007	-0.203183
O42	O	-0.079625	-0.621007	0.046817
O43	O	0.170375	-0.371007	0.296817
O44	O	0.420375	-0.121007	0.546817
O45	O	-0.329617	-0.768976	-0.330373
O46	O	-0.079617	-0.518976	-0.080373
O47	O	0.170383	-0.268976	0.169627
O48	O	0.420383	-0.018976	0.419627
O49	O	-0.425936	-0.871020	-0.554093
O50	O	-0.175936	-0.621020	-0.304093
O51	O	0.074064	-0.371020	-0.054093
O52	O	0.324064	-0.121020	0.195907
O53	O	-0.426007	-0.768950	-0.426771
O54	O	-0.176007	-0.518950	-0.176771
O55	O	0.073993	-0.268950	0.073229
O56	O	0.323993	-0.018950	0.323229
O57	O	-0.329493	-0.948382	-0.554164
O58	O	-0.079493	-0.698382	-0.304164
O59	O	0.170507	-0.448382	-0.054164
O60	O	0.420507	-0.198382	0.195836
O61	O	-0.553238	-0.948255	-0.330438
O62	O	-0.303238	-0.698255	-0.080438
O63	O	-0.053238	-0.448255	0.169562
O64	O	0.196762	-0.198255	0.419562
O65	O	-0.553232	-0.870948	-0.426808
O66	O	-0.303232	-0.620948	-0.176808
O67	O	-0.053232	-0.370948	0.073192
O68	O	0.196768	-0.120948	0.323192
C69	C	-0.581717	-0.909607	-0.378634
C70	C	-0.331717	-0.659607	-0.128634
C71	C	-0.081717	-0.409607	0.121366
C72	C	0.168283	-0.159607	0.371366
C73	C	-0.668967	-0.909636	-0.378648
C74	C	-0.418967	-0.659636	-0.128648
C75	C	-0.168967	-0.409636	0.121352
C76	C	0.081033	-0.159636	0.371352
C77	C	-0.377819	-0.746123	-0.378558
C78	C	-0.127819	-0.496123	-0.128558
C79	C	0.122181	-0.246123	0.121442
C80	C	0.372181	0.003877	0.371442
C81	C	-0.377859	-0.676154	-0.378531
C82	C	-0.127859	-0.426154	-0.128531
C83	C	0.122141	-0.176154	0.121469
C84	C	0.372141	0.073846	0.371469
C85	C	-1.044690	-0.950012	-0.428986
C86	C	-0.794690	-0.700012	-0.178986
C87	C	-0.544690	-0.450012	0.071014
C88	C	-0.294690	-0.200012	0.321014
C89	C	-0.962709	-0.949984	-0.428967
C90	C	-0.712709	-0.699984	-0.178967
C91	C	-0.462709	-0.449984	0.071033
C92	C	-0.212709	-0.199984	0.321033
C93	C	-0.921816	-0.909735	-0.378694
C94	C	-0.671816	-0.659735	-0.128694
C95	C	-0.421816	-0.409735	0.121306
C96	C	-0.171816	-0.159735	0.371306
C97	C	-0.962907	-0.869516	-0.328431
C98	C	-0.712907	-0.619516	-0.078431
C99	C	-0.462907	-0.369516	0.171569
C100	C	-0.212907	-0.119516	0.421569
C101	C	-1.044886	-0.869548	-0.328446
C102	C	-0.794886	-0.619548	-0.078446
C103	C	-0.544886	-0.369548	0.171554
C104	C	-0.294886	-0.119548	0.421554
C105	C	-0.792037	-0.869451	-0.328404
C106	C	-0.542037	-0.619451	-0.078404
C107	C	-0.292037	-0.369451	0.171596
C108	C	-0.042037	-0.119451	0.421596
C109	C	-0.710052	-0.869418	-0.328390
C110	C	-0.460052	-0.619418	-0.078390
C111	C	-0.210052	-0.369418	0.171610
C112	C	0.039948	-0.119418	0.421610
C113	C	-0.709861	-0.949887	-0.428926
C114	C	-0.459861	-0.699887	-0.178926
C115	C	-0.209861	-0.449887	0.071074
C116	C	0.040139	-0.199887	0.321074
C117	C	-0.791839	-0.949919	-0.428941
C118	C	-0.541839	-0.699919	-0.178941
C119	C	-0.291839	-0.449919	0.071059
C120	C	-0.041839	-0.199919	0.321059
C121	C	-0.832925	-0.909699	-0.378678
C122	C	-0.582925	-0.659699	-0.128678
C123	C	-0.332925	-0.409699	0.121322
C124	C	-0.082925	-0.159699	0.371322
C125	C	-0.428118	-0.643291	-0.428648
C126	C	-0.178118	-0.393291	-0.178648
C127	C	0.071882	-0.143291	0.071352
C128	C	0.321882	0.106709	0.321352
C129	C	-0.428102	-0.577549	-0.428677
C130	C	-0.178102	-0.327549	-0.178677
C131	C	0.071898	-0.077549	0.071323
C132	C	0.321898	0.172451	0.321323
C133	C	-0.377836	-0.544672	-0.378576
C134	C	-0.127836	-0.294672	-0.128576
C135	C	0.122164	-0.044672	0.121424
C136	C	0.372164	0.205328	0.371424
C137	C	-0.327568	-0.577543	-0.328456
C138	C	-0.077568	-0.327543	-0.078456
C139	C	0.172432	-0.077543	0.171544
C140	C	0.422432	0.172457	0.421544
C141	C	-0.327579	-0.643284	-0.328433
C142	C	-0.077579	-0.393284	-0.078433
C143	C	0.172421	-0.143284	0.171567
C144	C	0.422421	0.106716	0.421567
N145	N	-0.371713	-0.441403	-0.309910
N146	N	-0.121713	-0.191403	-0.059910
N147	N	0.128287	0.058597	0.190090
N148	N	0.378287	0.308597	0.440090
N149	N	-0.371706	-0.378951	-0.309933
N150	N	-0.121706	-0.128951	-0.059933
N151	N	0.128294	0.121049	0.190067
N152	N	0.378294	0.371049	0.440067
C153	C	-0.377796	-0.346597	-0.378641
C154	C	-0.127796	-0.096597	-0.128641
C155	C	0.122204	0.153403	0.121359
C156	C	0.372204	0.403403	0.371359
N157	N	-0.383908	-0.379054	-0.447327
N158	N	-0.133908	-0.129054	-0.197327
N159	N	0.116092	0.120946	0.052673
N160	N	0.366092	0.370946	0.302673
N161	N	-0.383919	-0.441511	-0.447302
N162	N	-0.133919	-0.191511	-0.197302
N163	N	0.116081	0.058489	0.052698
N164	N	0.366081	0.308489	0.302698
C165	C	-0.377817	-0.473387	-0.378595
C166	C	-0.127817	-0.223387	-0.128595
C167	C	0.122183	0.026613	0.121405
C168	C	0.372183	0.276613	0.371405
C169	C	-0.428040	-0.242448	-0.428794
C170	C	-0.178040	0.007552	-0.178794
C171	C	0.071960	0.257552	0.071206
C172	C	0.321960	0.507552	0.321206
C173	C	-0.428018	-0.176705	-0.428825
C174	C	-0.178018	0.073295	-0.178825
C175	C	0.071982	0.323295	0.071175
C176	C	0.321982	0.573295	0.321175
C177	C	-0.327488	-0.176701	-0.328596
C178	C	-0.077488	0.073299	-0.078596
C179	C	0.172512	0.323299	0.171404
C180	C	0.422512	0.573299	0.421404
C181	C	-0.327506	-0.242443	-0.328573
C182	C	-0.077506	0.007557	-0.078573
C183	C	0.172494	0.257557	0.171427
C184	C	0.422494	0.507557	0.421427
C185	C	-0.377786	-0.275313	-0.378670
C186	C	-0.127786	-0.025313	-0.128670
C187	C	0.122214	0.224687	0.121330
C188	C	0.372214	0.474687	0.371330
C189	C	-0.173025	-0.909759	-0.378709
C190	C	0.076975	-0.659759	-0.128709
C191	C	0.326975	-0.409759	0.121291
C192	C	0.576975	-0.159759	0.371291
C193	C	-0.085775	-0.909795	-0.378728
C194	C	0.164225	-0.659795	-0.128728
C195	C	0.414225	-0.409795	0.121272
C196	C	0.664225	-0.159795	0.371272
C197	C	-0.377706	-0.909705	-0.583407
C198	C	-0.127706	-0.659705	-0.333407
C199	C	0.122294	-0.409705	-0.083407
C200	C	0.372294	-0.159705	0.166593
C201	C	-0.377679	-0.909719	-0.670657
C202	C	-0.127679	-0.659719	-0.420657
C203	C	0.122321	-0.409719	-0.170657
C204	C	0.372321	-0.159719	0.079343
C205	C	-0.377733	-0.073865	-0.378746
C206	C	-0.127733	0.176135	-0.128746
C207	C	0.122267	0.426135	0.121254
C208	C	0.372267	0.676135	0.371254
C209	C	-0.377751	-0.143833	-0.378724
C210	C	-0.127751	0.106167	-0.128724
C211	C	0.122249	0.356167	0.121276
C212	C	0.372249	0.606167	0.371276
C213	C	-0.427781	-0.950016	-1.046489
C214	C	-0.177781	-0.700016	-0.796489
C215	C	0.072219	-0.450016	-0.546489
C216	C	0.322219	-0.200016	-0.296489
C217	C	-0.427804	-0.950001	-0.964508
C218	C	-0.177804	-0.700001	-0.714508
C219	C	0.072196	-0.450001	-0.464508
C220	C	0.322196	-0.200001	-0.214508
C221	C	-0.377623	-0.909759	-0.923506
C222	C	-0.127623	-0.659759	-0.673506
C223	C	0.122377	-0.409759	-0.423506
C224	C	0.372377	-0.159759	-0.173506
C225	C	-0.327422	-0.869526	-0.964489
C226	C	-0.077422	-0.619526	-0.714489
C227	C	0.172578	-0.369526	-0.464489
C228	C	0.422578	-0.119526	-0.214489
C229	C	-0.327404	-0.869540	-1.046468
C230	C	-0.077404	-0.619540	-0.796468
C231	C	0.172596	-0.369540	-0.546468
C232	C	0.422596	-0.119540	-0.296468
C233	C	-0.327462	-0.869503	-0.793618
C234	C	-0.077462	-0.619503	-0.543618
C235	C	0.172538	-0.369503	-0.293618
C236	C	0.422538	-0.119503	-0.043618
C237	C	-0.327480	-0.869490	-0.711634
C238	C	-0.077480	-0.619490	-0.461634
C239	C	0.172520	-0.369490	-0.211634
C240	C	0.422520	-0.119490	0.038366
C241	C	-0.427863	-0.949964	-0.711659
C242	C	-0.177863	-0.699964	-0.461659
C243	C	0.072137	-0.449964	-0.211659
C244	C	0.322137	-0.199964	0.038341
C245	C	-0.427844	-0.949977	-0.793638
C246	C	-0.177844	-0.699977	-0.543638
C247	C	0.072156	-0.449977	-0.293638
C248	C	0.322156	-0.199977	-0.043638
C249	C	-0.377642	-0.909745	-0.834615
C250	C	-0.127642	-0.659745	-0.584615
C251	C	0.122358	-0.409745	-0.334615
C252	C	0.372358	-0.159745	-0.084615
C253	C	-0.377776	-0.909679	-0.174715
C254	C	-0.127776	-0.659679	0.075285
C255	C	0.122224	-0.409679	0.325285
C256	C	0.372224	-0.159679	0.575285
C257	C	-0.377582	-0.909788	-0.087465
C258	C	-0.127582	-0.659788	0.162535
C259	C	0.122418	-0.409788	0.412535
C260	C	0.372418	-0.159788	0.662535
H261	H	-1.077980	-0.982782	-0.469932
H262	H	-0.827980	-0.732782	-0.219932
H263	H	-0.577980	-0.482782	0.030068
H264	H	-0.327980	-0.232782	0.280068
H265	H	-0.286584	-0.269201	-0.287758
H266	H	-0.036584	-0.019201	-0.037758
H267	H	0.213416	0.230799	0.212242
H268	H	0.463416	0.480799	0.462242
F269	F	-0.481628	-0.678270	-0.481969
F270	F	-0.231628	-0.428270	-0.231969
F271	F	0.018372	-0.178270	0.018031
F272	F	0.268372	0.071730	0.268031
F273	F	-0.835761	-0.826647	-0.274906
F274	F	-0.585761	-0.576647	-0.024906
F275	F	-0.335761	-0.326647	0.225094
F276	F	-0.085761	-0.076647	0.475094
H277	H	-0.286568	-0.836758	-0.931098
H278	H	-0.036568	-0.586758	-0.681098
H279	H	0.213432	-0.336758	-0.431098
H280	H	0.463432	-0.086758	-0.181098
H281	H	-0.468739	-0.982722	-0.678291
H282	H	-0.218739	-0.732722	-0.428291
H283	H	0.031261	-0.482722	-0.178291
H284	H	0.281261	-0.232722	0.071709
F285	F	-0.666531	-0.826589	-0.274874
F286	F	-0.416531	-0.576589	-0.024874
F287	F	-0.166531	-0.326589	0.225126
F288	F	0.083469	-0.076589	0.475126
H289	H	-0.929606	-0.836747	-0.287494
H290	H	-0.679606	-0.586747	-0.037494
H291	H	-0.429606	-0.336747	0.212506
H292	H	-0.179606	-0.086747	0.462506
H293	H	-0.286557	-0.149933	-0.287807
H294	H	-0.036557	0.100067	-0.037807
H295	H	0.213443	0.350067	0.212193
H296	H	0.463443	0.600067	0.462193
F297	F	-0.273972	-0.826726	-1.090078
F298	F	-0.023972	-0.576726	-0.840078
F299	F	0.226028	-0.326726	-0.590078
F300	F	0.476028	-0.076726	-0.340078
H301	H	-1.078336	-0.836799	-0.287521
H302	H	-0.828336	-0.586799	-0.037521
H303	H	-0.578336	-0.336799	0.212479
H304	H	-0.328336	-0.086799	0.462479
F305	F	-0.274068	-0.542553	-0.275138
F306	F	-0.024068	-0.292553	-0.025138
F307	F	0.225932	-0.042553	0.224862
F308	F	0.475932	0.207447	0.474862
H309	H	-0.286650	-0.670041	-0.287622
H310	H	-0.036650	-0.420041	-0.037622
H311	H	0.213350	-0.170041	0.212378
H312	H	0.463350	0.079959	0.462378
F313	F	-0.481548	-0.277433	-0.482115
F314	F	-0.231548	-0.027433	-0.232115
F315	F	0.018452	0.222567	0.017885
F316	F	0.268452	0.472567	0.267885
H317	H	-0.286616	-0.836724	-0.678252
H318	H	-0.036616	-0.586724	-0.428252
H319	H	0.213384	-0.336724	-0.178252
H320	H	0.463384	-0.086724	0.071748
H321	H	-0.469028	-0.550786	-0.469491
H322	H	-0.219028	-0.300786	-0.219491
H323	H	0.030972	-0.050786	0.030509
H324	H	0.280972	0.199214	0.280509
H325	H	-0.286582	-0.836742	-0.826979
H326	H	-0.036582	-0.586742	-0.576979
H327	H	0.213418	-0.336742	-0.326979
H328	H	0.463418	-0.086742	-0.076979
H329	H	-0.468943	-0.149948	-0.469641
H330	H	-0.218943	0.100052	-0.219641
H331	H	0.031057	0.350052	0.030359
H332	H	0.281057	0.600052	0.280359
H333	H	-0.929258	-0.982732	-0.469891
H334	H	-0.679258	-0.732732	-0.219891
H335	H	-0.429258	-0.482732	0.030109
H336	H	-0.179258	-0.232732	0.280109
F337	F	-0.481186	-0.992851	-1.090119
F338	F	-0.231186	-0.742851	-0.840119
F339	F	0.018814	-0.492851	-0.590119
F340	F	0.268814	-0.242851	-0.340119
F341	F	-0.481250	-0.992808	-0.837274
F342	F	-0.231250	-0.742808	-0.587274
F343	F	0.018750	-0.492808	-0.337274
F344	F	0.268750	-0.242808	-0.087274
F345	F	-0.835360	-0.992750	-0.482455
F346	F	-0.585360	-0.742750	-0.232455
F347	F	-0.335360	-0.492750	0.017545
F348	F	-0.085360	-0.242750	0.267545
F349	F	-0.481231	-0.992818	-0.920901
F350	F	-0.231231	-0.742818	-0.670901
F351	F	0.018769	-0.492818	-0.420901
F352	F	0.268769	-0.242818	-0.170901
F353	F	-0.666134	-0.992696	-0.482415
F354	F	-0.416134	-0.742696	-0.232415
F355	F	-0.166134	-0.492696	0.017585
F356	F	0.083866	-0.242696	0.267585
