data_functionalizedCrystal
_audit_creation_method	'MofGen! by Chris Wilmer'
_symmetry_space_group_name_H-M	'P1'
_symmetry_Int_Tables_number	1
_symmetry_cell_setting	triclinic
loop_
_symmetry_equiv_pos_as_xyz
  x,y,z
_cell_length_a	23.532407
_cell_length_b	19.288865
_cell_length_c	18.366186
_cell_angle_alpha	90.011479
_cell_angle_beta	89.988493
_cell_angle_gamma	97.007538
loop_
_atom_site_label
_atom_site_type_symbol
_atom_site_fract_x
_atom_site_fract_y
_atom_site_fract_z
O1	O	0.755438	-0.084319	-0.060599
O2	O	1.088771	0.249014	0.272735
O3	O	1.422105	0.582348	0.606068
O4	O	0.589600	-0.096519	-0.060592
O5	O	0.922933	0.236814	0.272741
O6	O	1.256267	0.570147	0.606074
O7	O	0.677311	0.010726	-0.060581
O8	O	1.010644	0.344059	0.272752
O9	O	1.343978	0.677393	0.606085
O10	O	0.667727	-0.191564	-0.060610
O11	O	1.001060	0.141769	0.272724
O12	O	1.334394	0.475102	0.606057
O13	O	0.677296	0.010731	0.060518
O14	O	1.010629	0.344064	0.393851
O15	O	1.343963	0.677398	0.727185
O16	O	0.589585	-0.096514	0.060507
O17	O	0.922918	0.236819	0.393840
O18	O	1.256252	0.570153	0.727174
O19	O	0.755423	-0.084314	0.060501
O20	O	1.088756	0.249019	0.393834
O21	O	1.422090	0.582353	0.727167
Zn22	Zn	0.672502	-0.090413	0.079731
Zn23	Zn	1.005835	0.242920	0.413064
Zn24	Zn	1.339168	0.576254	0.746398
Zn25	Zn	0.672521	-0.090420	-0.079823
Zn26	Zn	1.005855	0.242913	0.253511
Zn27	Zn	1.339188	0.576247	0.586844
O28	O	0.667712	-0.191559	0.060490
O29	O	1.001045	0.141774	0.393823
O30	O	1.334379	0.475108	0.727156
C31	C	0.568376	-0.096206	-0.000042
C32	C	0.901709	0.237127	0.333292
C33	C	1.235042	0.570461	0.666625
C34	C	0.505157	-0.095272	-0.000039
C35	C	0.838490	0.238061	0.333295
C36	C	1.171823	0.571395	0.666628
C37	C	0.676995	0.036604	-0.000029
C38	C	1.010328	0.369937	0.333304
C39	C	1.343662	0.703271	0.666637
C40	C	0.676069	0.113705	-0.000023
C41	C	1.009403	0.447038	0.333310
C42	C	1.342736	0.780371	0.666644
C43	C	0.776647	-0.084627	-0.000052
C44	C	1.109981	0.248706	0.333282
C45	C	1.443314	0.582039	0.666615
C46	C	0.839866	-0.085561	-0.000059
C47	C	1.173200	0.247772	0.333274
C48	C	1.506533	0.581105	0.666607
C49	C	1.238850	-0.027954	-0.000026
C50	C	1.572183	0.305379	0.333307
C51	C	1.905517	0.638712	0.666641
C52	C	1.298252	-0.028822	-0.000023
C53	C	1.631585	0.304511	0.333310
C54	C	1.964919	0.637845	0.666644
O55	O	1.334886	0.024580	0.000011
O56	O	1.668219	0.357913	0.333344
O57	O	2.001552	0.691247	0.666677
N58	N	1.321010	-0.092579	-0.000034
N59	N	1.654344	0.240754	0.333299
N60	N	1.987677	0.574087	0.666633
C61	C	1.284363	-0.155473	-0.000041
C62	C	1.617696	0.177860	0.333292
C63	C	1.951030	0.511194	0.666626
O64	O	1.309175	-0.209783	-0.000049
O65	O	1.642509	0.123550	0.333284
O66	O	1.975842	0.456884	0.666617
C67	C	1.224962	-0.154604	-0.000039
C68	C	1.558295	0.178729	0.333294
C69	C	1.891629	0.512062	0.666628
C70	C	1.202207	-0.090843	-0.000035
C71	C	1.535541	0.242490	0.333298
C72	C	1.868874	0.575824	0.666632
C73	C	1.216094	0.035802	-0.000022
C74	C	1.549428	0.369135	0.333312
C75	C	1.882761	0.702468	0.666645
C76	C	1.156696	0.036669	-0.000026
C77	C	1.490030	0.370002	0.333307
C78	C	1.823363	0.703336	0.666641
C79	C	1.120054	-0.026220	-0.000035
C80	C	1.453387	0.307114	0.333298
C81	C	1.786721	0.640447	0.666632
C82	C	1.142809	-0.089976	-0.000040
C83	C	1.476143	0.243358	0.333294
C84	C	1.809476	0.576691	0.666627
C85	C	1.188316	-0.217497	-0.000040
C86	C	1.521649	0.115836	0.333293
C87	C	1.854983	0.449169	0.666626
C88	C	1.128912	-0.216623	-0.000038
C89	C	1.462245	0.116710	0.333296
C90	C	1.795578	0.450043	0.666629
C91	C	1.106157	-0.152862	-0.000034
C92	C	1.439490	0.180471	0.333299
C93	C	1.772824	0.513805	0.666633
C94	C	1.046769	-0.151997	-0.000053
C95	C	1.380102	0.181336	0.333280
C96	C	1.713436	0.514670	0.666614
N97	N	1.024011	-0.088240	-0.000042
N98	N	1.357344	0.245093	0.333291
N99	N	1.690677	0.578427	0.666625
C100	C	1.060653	-0.025351	-0.000033
C101	C	1.393986	0.307982	0.333300
C102	C	1.727320	0.641316	0.666634
C103	C	1.409109	-0.157292	-0.000044
C104	C	1.742443	0.176041	0.333289
C105	C	2.075776	0.509375	0.666623
C106	C	1.468509	-0.158161	-0.000051
C107	C	1.801842	0.175172	0.333282
C108	C	2.135176	0.508506	0.666615
C109	C	1.482394	-0.031510	-0.000032
C110	C	1.815727	0.301823	0.333301
C111	C	2.149061	0.635157	0.666635
C112	C	1.422993	-0.030641	-0.000030
C113	C	1.756326	0.302692	0.333303
C114	C	2.089660	0.636025	0.666637
C115	C	1.386351	-0.093535	-0.000033
C116	C	1.719684	0.239799	0.333300
C117	C	2.053018	0.573132	0.666634
C118	C	0.935913	-0.023534	-0.000043
C119	C	1.269246	0.309799	0.333290
C120	C	1.602579	0.643132	0.666624
C121	C	0.876509	-0.022672	-0.000050
C122	C	1.209842	0.310661	0.333283
C123	C	1.543175	0.643994	0.666616
C124	C	0.862629	-0.149323	-0.000066
C125	C	1.195962	0.184010	0.333267
C126	C	1.529296	0.517343	0.666601
C127	C	0.922028	-0.150185	-0.000062
C128	C	1.255361	0.183148	0.333271
C129	C	1.588694	0.516481	0.666604
C130	C	0.958669	-0.087285	-0.000048
C131	C	1.292002	0.246048	0.333285
C132	C	1.625335	0.579381	0.666618
O133	O	1.010100	-0.205371	-0.000084
O134	O	1.343434	0.127962	0.333250
O135	O	1.676767	0.461295	0.666583
O136	O	1.035833	0.028950	-0.000015
O137	O	1.369166	0.362283	0.333318
O138	O	1.702499	0.695617	0.666652
C139	C	0.668028	-0.217437	-0.000064
C140	C	1.001361	0.115896	0.333270
C141	C	1.334695	0.449230	0.666603
C142	C	0.668954	-0.294538	-0.000075
C143	C	1.002287	0.038795	0.333258
C144	C	1.335620	0.372129	0.666592
N145	N	0.672493	-0.090408	0.188622
N146	N	1.005826	0.242925	0.521955
N147	N	1.339159	0.576259	0.855289
C148	C	0.727534	0.158560	-0.000021
C149	C	1.060867	0.491893	0.333312
C150	C	1.394201	0.825226	0.666645
C151	C	0.726664	0.231004	-0.000033
C152	C	1.059998	0.564337	0.333300
C153	C	1.393331	0.897671	0.666634
C154	C	0.674327	0.258590	-0.000031
C155	C	1.007660	0.591924	0.333302
C156	C	1.340994	0.925257	0.666635
C157	C	0.622855	0.213725	-0.000037
C158	C	0.956189	0.547059	0.333296
C159	C	1.289522	0.880392	0.666630
C160	C	0.623727	0.141283	-0.000033
C161	C	0.957060	0.474616	0.333301
C162	C	1.290393	0.807949	0.666634
C163	C	0.633179	0.366753	0.042389
C164	C	0.966512	0.700086	0.375722
C165	C	1.299845	1.033419	0.709055
C166	C	0.632310	0.439194	0.042389
C167	C	0.965643	0.772528	0.375722
C168	C	1.298976	1.105861	0.709056
C169	C	0.671638	0.482028	-0.000048
C170	C	1.004971	0.815361	0.333286
C171	C	1.338305	1.148694	0.666619
C172	C	0.711845	0.452412	-0.042475
C173	C	1.045179	0.785745	0.290858
C174	C	1.378512	1.119078	0.624192
C175	C	0.712716	0.379969	-0.042471
C176	C	1.046050	0.713302	0.290863
C177	C	1.379383	1.046636	0.624196
C178	C	0.673377	0.337141	-0.000036
C179	C	1.006710	0.670475	0.333297
C180	C	1.340043	1.003808	0.666630
C181	C	0.722163	0.605436	-0.000059
C182	C	1.055497	0.938769	0.333274
C183	C	1.388830	1.272102	0.666607
C184	C	0.721292	0.677881	-0.000075
C185	C	1.054625	1.011214	0.333258
C186	C	1.387958	1.344548	0.666591
C187	C	0.617481	0.660601	-0.000072
C188	C	0.950814	0.993934	0.333261
C189	C	1.284148	1.327267	0.666594
C190	C	0.618354	0.588157	-0.000064
C191	C	0.951688	0.921490	0.333270
C192	C	1.285021	1.254824	0.666603
C193	C	0.670697	0.560579	-0.000054
C194	C	1.004030	0.893912	0.333280
C195	C	1.337364	1.227246	0.666613
N196	N	0.672535	-0.090420	-0.188714
N197	N	1.005868	0.242914	0.144620
N198	N	1.339202	0.576247	0.477953
C199	C	0.711344	-0.042943	0.226727
C200	C	1.044677	0.290390	0.560061
C201	C	1.378010	0.623724	0.893394
C202	C	0.711347	-0.042940	0.302955
C203	C	1.044681	0.290393	0.636289
C204	C	1.378014	0.623727	0.969622
C205	C	0.672505	-0.090414	0.341075
C206	C	1.005838	0.242920	0.674408
C207	C	1.339172	0.576253	1.007742
C208	C	0.633647	-0.137882	0.302960
C209	C	0.966980	0.195451	0.636294
C210	C	1.300313	0.528784	0.969627
C211	C	0.633640	-0.137880	0.226734
C212	C	0.966974	0.195454	0.560067
C213	C	1.300307	0.528787	0.893401
C214	C	0.664881	-0.153725	0.461826
C215	C	0.998215	0.179608	0.795160
C216	C	1.331548	0.512942	1.128493
C217	C	0.664892	-0.153729	0.538051
C218	C	0.998225	0.179605	0.871385
C219	C	1.331558	0.512938	1.204718
C220	C	0.672521	-0.090422	0.576182
C221	C	1.005855	0.242911	0.909516
C222	C	1.339188	0.576244	1.242849
C223	C	0.680153	-0.027109	0.538079
C224	C	1.013486	0.306224	0.871412
C225	C	1.346819	0.639557	1.204746
C226	C	0.680147	-0.027107	0.461853
C227	C	1.013480	0.306227	0.795186
C228	C	1.346813	0.639560	1.128519
C229	C	0.672507	-0.090422	0.423730
C230	C	1.005841	0.242912	0.757063
C231	C	1.339174	0.576245	1.090396
C232	C	0.711378	-0.042950	0.696943
C233	C	1.044712	0.290383	1.030276
C234	C	1.378045	0.623717	1.363609
C235	C	0.711378	-0.042946	0.773172
C236	C	1.044711	0.290387	1.106505
C237	C	1.378045	0.623721	1.439839
C238	C	0.633680	-0.137895	0.773176
C239	C	0.967014	0.195439	1.106509
C240	C	1.300347	0.528772	1.439842
C241	C	0.633678	-0.137893	0.696948
C242	C	0.967011	0.195441	1.030281
C243	C	1.300345	0.528774	1.363614
C244	C	0.672530	-0.090421	0.658836
C245	C	1.005863	0.242912	0.992169
C246	C	1.339197	0.576246	1.325503
H247	H	0.965739	0.027685	-0.000032
H248	H	1.299073	0.361018	0.333301
H249	H	1.632406	0.694352	0.666635
H250	H	0.580242	0.236191	-0.000037
H251	H	0.913575	0.569524	0.333296
H252	H	1.246909	0.902857	0.666629
H253	H	0.743014	-0.004291	0.804198
H254	H	1.076347	0.329043	1.137531
H255	H	1.409680	0.662376	1.470864
H256	H	0.768575	0.267532	-0.000034
H257	H	1.101908	0.600865	0.333299
H258	H	1.435241	0.934199	0.666632
H259	H	0.764784	0.582981	-0.000055
H260	H	1.098117	0.916314	0.333279
H261	H	1.431451	1.249647	0.666612
H262	H	1.404471	0.021279	-0.000026
H263	H	1.737804	0.354612	0.333307
H264	H	2.071137	0.687945	0.666640
N265	N	0.568212	0.092905	-0.000023
N266	N	0.901545	0.426239	0.333310
N267	N	1.234879	0.759572	0.666643
H268	H	0.566256	0.062478	0.044873
H269	H	0.899589	0.395811	0.378207
H270	H	1.232922	0.729145	0.711540
H271	H	0.566295	0.062495	-0.044940
H272	H	0.899628	0.395828	0.288394
H273	H	1.232962	0.729161	0.621727
H274	H	1.138175	0.088590	-0.000020
H275	H	1.471509	0.421923	0.333313
H276	H	1.804842	0.755257	0.666647
N277	N	0.656655	-0.222012	0.420707
N278	N	0.989988	0.111321	0.754040
N279	N	1.323321	0.444655	1.087374
H280	H	0.691229	-0.225914	0.389066
H281	H	1.024563	0.107419	0.722399
H282	H	1.357896	0.440753	1.055733
H283	H	0.621377	-0.223709	0.389135
H284	H	0.954711	0.109624	0.722469
H285	H	1.288044	0.442958	1.055802
H286	H	1.512239	0.019698	-0.000025
H287	H	1.845573	0.353031	0.333309
H288	H	2.178906	0.686364	0.666642
N289	N	0.753279	0.008250	0.655829
N290	N	1.086612	0.341583	0.989163
N291	N	1.419945	0.674916	1.322496
H292	H	0.777889	0.038324	0.691539
H293	H	1.111222	0.371657	1.024872
H294	H	1.444556	0.704991	1.358206
H295	H	0.731555	0.038822	0.624216
H296	H	1.064888	0.372155	0.957549
H297	H	1.398222	0.705489	1.290883
H298	H	1.487030	-0.210082	-0.000065
H299	H	1.820364	0.123251	0.333269
H300	H	2.153697	0.456585	0.666602
N301	N	0.756077	0.348024	-0.088229
N302	N	1.089411	0.681357	0.245105
N303	N	1.422744	1.014690	0.578438
H304	H	0.780862	0.386146	-0.115114
H305	H	1.114195	0.719479	0.218219
H306	H	1.447528	1.052812	0.551552
H307	H	0.735484	0.314471	-0.124464
H308	H	1.068818	0.647804	0.208870
H309	H	1.402151	0.981137	0.542203
H310	H	1.379278	-0.208510	-0.000052
H311	H	1.712611	0.124823	0.333282
H312	H	2.045945	0.458156	0.666615
N313	N	0.591736	-0.189083	0.185637
N314	N	0.925069	0.144250	0.518970
N315	N	1.258403	0.477584	0.852304
H316	H	0.613415	-0.219704	0.153996
H317	H	0.946748	0.113630	0.487329
H318	H	1.280082	0.446963	0.820663
H319	H	0.566598	-0.162646	0.154068
H320	H	0.899932	0.170688	0.487401
H321	H	1.233265	0.504021	0.820734
N322	N	0.851969	0.046103	-0.000035
N323	N	1.185302	0.379436	0.333298
N324	N	1.518635	0.712769	0.666632
H325	H	0.808778	0.037114	-0.000039
H326	H	1.142111	0.370448	0.333294
H327	H	1.475445	0.703781	0.666628
H328	H	0.865394	0.073604	-0.044922
H329	H	1.198727	0.406937	0.288412
H330	H	1.532060	0.740271	0.621745
N331	N	0.591781	-0.189095	0.814279
N332	N	0.925114	0.144239	1.147612
N333	N	1.258448	0.477572	1.480946
H334	H	0.597678	-0.181894	0.868351
H335	H	0.931012	0.151440	1.201684
H336	H	1.264345	0.484773	1.535018
H337	H	0.598228	-0.238331	0.800941
H338	H	0.931562	0.095003	1.134275
H339	H	1.264895	0.428336	1.467608
N340	N	0.754270	0.498599	-0.088248
N341	N	1.087603	0.831932	0.245086
N342	N	1.420937	1.165266	0.578419
H343	H	0.747617	0.548985	-0.081817
H344	H	1.080950	0.882318	0.251516
H345	H	1.414284	1.215652	0.584849
H346	H	0.749105	0.485035	-0.141166
H347	H	1.082438	0.818368	0.192167
H348	H	1.415771	1.151701	0.525501
H349	H	1.206832	-0.269419	-0.000047
H350	H	1.540165	0.063915	0.333287
H351	H	1.873499	0.397248	0.666620
N352	N	0.590754	0.320556	0.088158
N353	N	0.924088	0.653889	0.421491
N354	N	1.257421	0.987223	0.754825
H355	H	0.565155	0.350309	0.115038
H356	H	0.898489	0.683642	0.448371
H357	H	1.231822	1.016975	0.781705
H358	H	0.612068	0.293995	0.124398
H359	H	0.945401	0.627328	0.457731
H360	H	1.278734	0.960661	0.791064
H361	H	0.742978	-0.004287	0.195699
H362	H	1.076311	0.329046	0.529032
H363	H	1.409644	0.662379	0.862366
H364	H	1.099080	-0.267840	-0.000037
H365	H	1.432413	0.065493	0.333297
H366	H	1.765747	0.398827	0.666630
H367	H	0.770156	0.136111	-0.000016
H368	H	1.103489	0.469444	0.333317
H369	H	1.436822	0.802778	0.666651
N370	N	0.688394	0.041173	0.579201
N371	N	1.021727	0.374506	0.912535
N372	N	1.355060	0.707840	1.245868
H373	H	0.726649	0.067754	0.565928
H374	H	1.059983	0.401087	0.899261
H375	H	1.393316	0.734421	1.232595
H376	H	0.687212	0.031501	0.633257
H377	H	1.020546	0.364834	0.966590
H378	H	1.353879	0.698167	1.299923
H379	H	0.602044	-0.176546	0.665920
H380	H	0.935377	0.156788	0.999254
H381	H	1.268711	0.490121	1.332587
H382	H	0.742985	-0.004287	0.333986
H383	H	1.076319	0.329047	0.667320
H384	H	1.409652	0.662380	1.000653
N385	N	0.688375	0.041174	0.420754
N386	N	1.021708	0.374507	0.754087
N387	N	1.355042	0.707841	1.087421
H388	H	0.693210	0.081281	0.456471
H389	H	1.026544	0.414614	0.789804
H390	H	1.359877	0.747948	1.123137
H391	H	0.653786	0.045015	0.389142
H392	H	0.987120	0.378348	0.722476
H393	H	1.320453	0.711681	1.055809
N394	N	1.255611	0.103638	-0.000006
N395	N	1.588944	0.436971	0.333327
N396	N	1.922278	0.770304	0.666660
H397	H	1.232173	0.144152	-0.000002
H398	H	1.565506	0.477485	0.333332
H399	H	1.898839	0.810819	0.666665
H400	H	1.280565	0.106040	-0.044900
H401	H	1.613898	0.439373	0.288433
H402	H	1.947232	0.772706	0.621766
N403	N	0.946576	-0.218953	-0.000069
N404	N	1.279909	0.114380	0.333264
N405	N	1.613243	0.447713	0.666597
H406	H	0.970923	-0.222141	-0.044957
H407	H	1.304256	0.111193	0.288376
H408	H	1.637589	0.444526	0.621709
H409	H	0.914316	-0.258621	-0.000051
H410	H	1.247649	0.074713	0.333282
H411	H	1.580983	0.408046	0.666616
N412	N	0.823102	-0.217151	-0.000079
N413	N	1.156435	0.116183	0.333255
N414	N	1.489769	0.449516	0.666588
H415	H	0.782021	-0.206920	-0.000077
H416	H	1.115354	0.126413	0.333256
H417	H	1.448687	0.459746	0.666589
H418	H	0.830443	-0.244951	0.044813
H419	H	1.163777	0.088383	0.378147
H420	H	1.497110	0.421716	0.711480
H421	H	0.763202	0.714402	-0.000078
H422	H	1.096536	1.047735	0.333255
H423	H	1.429869	1.381069	0.666589
N424	N	0.656658	-0.222012	0.579146
N425	N	0.989991	0.111322	0.912479
N426	N	1.323324	0.444655	1.245812
H427	H	0.651814	-0.262115	0.543425
H428	H	0.985147	0.071218	0.876759
H429	H	1.318480	0.404551	1.210092
H430	H	0.621410	-0.223674	0.610784
H431	H	0.954743	0.109659	0.944117
H432	H	1.288076	0.442993	1.277451
H433	H	0.602020	-0.176535	0.334001
H434	H	0.935353	0.156798	0.667335
H435	H	1.268687	0.490131	1.000668
H436	H	0.599568	0.463301	0.076932
H437	H	0.932901	0.796635	0.410265
H438	H	1.266235	1.129968	0.743598
H439	H	0.574867	0.683060	-0.000075
H440	H	0.908200	1.016394	0.333259
H441	H	1.241534	1.349727	0.666592
H442	H	0.576446	0.551635	-0.000061
H443	H	0.909779	0.884968	0.333273
H444	H	1.243113	1.218301	0.666606
