data_functionalizedCrystal
_audit_creation_method	'MofGen! by Chris Wilmer'
_symmetry_space_group_name_H-M	'P1'
_symmetry_Int_Tables_number	1
_symmetry_cell_setting	triclinic
loop_
_symmetry_equiv_pos_as_xyz
  x,y,z
_cell_length_a	17.077404
_cell_length_b	12.759400
_cell_length_c	12.759387
_cell_angle_alpha	89.937904
_cell_angle_beta	89.957192
_cell_angle_gamma	90.014910
loop_
_atom_site_label
_atom_site_type_symbol
_atom_site_fract_x
_atom_site_fract_y
_atom_site_fract_z
Zn1	Zn	1.200280	-0.417881	-0.594069
Zn2	Zn	1.200152	-0.593694	-0.418389
Zn3	Zn	1.068958	-0.418030	-0.418398
Zn4	Zn	1.068999	-0.593520	-0.594021
O5	O	1.134597	-0.505781	-0.506219
O6	O	1.310110	-0.441214	-0.570780
O7	O	1.182679	-0.570527	-0.271369
O8	O	1.086415	-0.270989	-0.441726
O9	O	1.310016	-0.570383	-0.441709
O10	O	1.182896	-0.270880	-0.570790
O11	O	1.086291	-0.441468	-0.271376
O12	O	0.959117	-0.441299	-0.441679
O13	O	1.086484	-0.570086	-0.741049
O14	O	0.959146	-0.570230	-0.570708
O15	O	1.182935	-0.441045	-0.741084
O16	O	1.182718	-0.740692	-0.441663
O17	O	1.086360	-0.740564	-0.570699
C18	C	0.930649	-0.505762	-0.506190
C19	C	0.843400	-0.505779	-0.506203
C20	C	0.802445	-0.573015	-0.573280
C21	C	0.720465	-0.573018	-0.573297
C22	C	0.679440	-0.505788	-0.506230
C23	C	0.720400	-0.438545	-0.439150
C24	C	0.802379	-0.438538	-0.439139
C25	C	0.549530	-0.438566	-0.439175
C26	C	0.467546	-0.438574	-0.439184
C27	C	0.467616	-0.573045	-0.573333
C28	C	0.549595	-0.573038	-0.573322
C29	C	0.590549	-0.505796	-0.506240
C30	C	1.134551	-0.778749	-0.506197
C31	C	1.134603	-0.895525	-0.506223
C32	C	1.184832	-0.950419	-0.439108
C33	C	1.184880	-1.060143	-0.439141
C34	C	1.084463	-1.060070	-0.573406
C35	C	1.084419	-0.950348	-0.573378
C36	C	1.235015	-0.895596	-0.371953
C37	C	1.285248	-0.950490	-0.304832
C38	C	1.285297	-1.060214	-0.304865
C39	C	1.235112	-1.115044	-0.372018
C40	C	1.339342	-0.505801	-0.506249
C41	C	1.426591	-0.505810	-0.506262
C42	C	1.134728	-0.505529	-0.780253
C43	C	1.134784	-0.505422	-0.897030
C44	C	1.134666	-0.231748	-0.506264
C45	C	1.134695	-0.114971	-0.506283
C46	C	1.134512	-0.505957	-0.233252
C47	C	1.134609	-0.505768	-0.116475
C48	C	1.084195	-0.438802	0.048058
C49	C	1.084105	-0.438978	-0.061666
C50	C	1.185200	-0.572395	-0.061555
C51	C	1.185285	-0.572224	0.048166
C52	C	1.033694	-0.372000	0.102862
C53	C	0.983102	-0.305374	0.047949
C54	C	0.983012	-0.305549	-0.061774
C55	C	1.033514	-0.372351	-0.116586
H56	H	0.434146	-0.383817	-0.384585
H57	H	0.941812	-0.251306	-0.106481
C58	C	0.938353	-0.245859	0.216097
C59	C	0.927590	-0.231950	0.108194
H60	H	0.904084	-0.200524	0.253285
H61	H	0.927242	-0.316520	0.234290
H62	H	0.991031	-0.229947	0.233895
H63	H	0.874913	-0.247870	0.090394
H64	H	0.938696	-0.161273	0.089993
C65	C	1.296114	-0.827286	-0.163481
C66	C	1.340410	-0.890227	-0.231020
H67	H	1.330171	-0.790089	-0.117908
H68	H	1.266199	-0.778893	-0.203446
H69	H	1.261938	-0.870196	-0.123270
H70	H	1.374581	-0.847315	-0.271237
H71	H	1.370338	-0.938625	-0.191050
C72	C	1.330041	-1.228441	-0.245406
C73	C	1.340568	-1.120557	-0.231167
H74	H	1.364183	-1.265690	-0.199930
H75	H	1.277333	-1.246536	-0.229903
H76	H	1.341481	-1.246265	-0.316043
H77	H	1.329123	-1.102732	-0.160531
H78	H	1.393288	-1.102455	-0.246663
H79	H	1.235161	-1.204389	-0.372048
C80	C	0.978345	-0.299965	-0.273824
C81	C	1.033415	-0.372544	-0.237197
H82	H	0.978290	-0.300079	-0.348283
H83	H	0.927812	-0.318586	-0.248834
H84	H	0.991593	-0.232002	-0.249209
H85	H	1.020163	-0.440508	-0.261806
H86	H	1.083959	-0.353929	-0.262198
H87	H	0.582873	-0.383801	-0.384559
H88	H	1.043519	-0.905653	-0.628030
H89	H	0.686991	-0.383801	-0.384547
H90	H	0.835723	-0.383782	-0.384523
H91	H	1.033763	-0.371847	0.192204
C92	C	1.039939	-1.228236	-0.633054
C93	C	1.029296	-1.120337	-0.647208
H94	H	1.005875	-1.265440	-0.678611
H95	H	1.092679	-1.246136	-0.648503
H96	H	1.028467	-1.246310	-0.562449
H97	H	1.040774	-1.102262	-0.717811
H98	H	0.976544	-1.102430	-0.631766
H99	H	1.226318	-0.626779	-0.106192
H100	H	1.226489	-0.626458	0.092877
H101	H	0.835842	-0.627765	-0.627891
H102	H	0.582995	-0.627788	-0.627928
C103	C	0.628374	-0.587732	-0.714619
C104	C	0.675454	-0.646933	-0.647030
H105	H	0.600592	-0.633369	-0.760145
H106	H	0.592208	-0.547705	-0.674686
H107	H	0.660396	-0.541985	-0.754877
H108	H	0.643431	-0.692675	-0.606767
H109	H	0.711624	-0.686978	-0.686967
C110	C	0.375528	-0.587751	-0.714666
C111	C	0.422607	-0.646957	-0.647080
H112	H	0.347744	-0.633385	-0.760193
H113	H	0.339364	-0.547724	-0.674731
H114	H	0.407552	-0.542004	-0.754923
H115	H	0.390582	-0.692700	-0.606817
H116	H	0.458775	-0.687003	-0.687019
C117	C	1.160274	-0.738548	-0.345026
C118	C	1.234963	-0.774987	-0.371906
H119	H	1.160242	-0.664089	-0.344988
H120	H	1.123209	-0.763335	-0.394628
H121	H	1.146724	-0.763494	-0.277222
H122	H	1.248510	-0.750047	-0.439714
H123	H	1.272039	-0.750189	-0.322302
