data_functionalizedCrystal
_audit_creation_method	'MofGen! by Chris Wilmer'
_symmetry_space_group_name_H-M	'P1'
_symmetry_Int_Tables_number	1
_symmetry_cell_setting	triclinic
loop_
_symmetry_equiv_pos_as_xyz
  x,y,z
_cell_length_a	19.377372
_cell_length_b	19.376993
_cell_length_c	16.704494
_cell_angle_alpha	55.196994
_cell_angle_beta	88.959198
_cell_angle_gamma	62.429694
loop_
_atom_site_label
_atom_site_type_symbol
_atom_site_fract_x
_atom_site_fract_y
_atom_site_fract_z
Zr1	Zr	0.345433	1.162225	-0.489554
O2	O	0.226895	1.287889	-0.623030
O3	O	0.407499	1.000880	-0.419669
O4	O	0.379693	1.163226	-0.618426
O5	O	0.247370	1.137196	-0.300441
O6	O	0.470956	1.204604	-0.647746
O7	O	0.254702	1.125543	-0.424273
O8	O	0.520697	0.914197	-0.292205
O9	O	0.197629	1.427603	-0.655982
O10	O	0.470995	1.111339	-0.446742
O11	O	0.397414	1.089156	-0.332447
O12	O	0.364676	1.280297	-0.566458
O13	O	0.291095	1.258113	-0.452163
Zr14	Zr	0.479294	1.246804	-0.338817
Zr15	Zr	0.490987	1.228219	-0.536315
Zr16	Zr	0.333740	1.180811	-0.292056
Zr17	Zr	0.298757	1.385054	-0.542107
Zr18	Zr	0.525970	1.023976	-0.286264
O19	O	0.417228	1.408149	-0.408702
O20	O	0.433854	1.381723	-0.689519
O21	O	0.210269	1.314315	-0.342214
O22	O	0.597832	1.121140	-0.205341
O23	O	0.614458	1.094714	-0.486158
O24	O	0.390873	1.027306	-0.138853
O25	O	0.577357	1.271833	-0.527931
O26	O	0.445034	1.245803	-0.209945
O27	O	0.353771	1.204425	-0.180625
O28	O	0.570025	1.283486	-0.404098
O29	O	0.313325	1.480059	-0.693151
O30	O	0.511402	0.928970	-0.135221
O31	O	0.627098	0.981426	-0.172390
O32	O	0.636393	0.966653	-0.329374
O33	O	0.188334	1.442376	-0.498997
O34	O	0.304030	1.494832	-0.536166
O35	O	0.460051	1.128732	-0.261913
O36	O	0.533632	1.150916	-0.376209
O37	O	0.427313	1.319874	-0.495924
O38	O	0.353732	1.297690	-0.381629
C39	C	0.470748	0.925790	-0.348450
C40	C	0.490564	0.831194	-0.326139
C41	C	0.580849	0.650111	-0.224477
C42	C	0.562223	0.739005	-0.245449
C43	C	0.437500	0.834519	-0.385886
C44	C	0.456114	0.745632	-0.364923
C45	C	0.527790	0.653433	-0.284217
C46	C	0.403054	0.748953	-0.424663
C47	C	0.421669	0.660074	-0.403704
C48	C	0.493344	0.567873	-0.323005
C49	C	0.546405	0.564554	-0.263258
C50	C	0.331381	0.841154	-0.505373
C51	C	0.278322	0.844476	-0.565113
C52	C	0.296933	0.755594	-0.544150
C53	C	0.368608	0.663393	-0.463451
C54	C	0.243872	0.758914	-0.603897
C55	C	0.262487	0.670034	-0.582938
C56	C	0.387223	0.574514	-0.442492
C57	C	0.230298	1.121967	-0.355694
C58	C	0.168506	1.093951	-0.335843
C59	C	-0.312198	1.442770	-0.583005
C60	C	-0.370246	1.416422	-0.564334
C61	C	-0.259248	1.240043	-0.439360
C62	C	-0.201189	1.266377	-0.458017
C63	C	-0.227671	1.367742	-0.529841
C64	C	-0.116662	1.191349	-0.404853
C65	C	-0.058609	1.217681	-0.423513
C66	C	-0.085083	1.319041	-0.495336
C67	C	-0.169618	1.394074	-0.548501
C68	C	-0.090182	1.089983	-0.333034
C69	C	-0.005655	1.014955	-0.279871
C70	C	0.052400	1.041287	-0.298524
C71	C	0.025926	1.142647	-0.370347
C72	C	0.136935	0.966254	-0.245359
C73	C	0.194988	0.992586	-0.264019
C74	C	0.083979	1.168979	-0.389007
C75	C	0.594429	1.287062	-0.472677
C76	C	0.656221	1.315078	-0.492528
C77	C	0.426990	1.181267	-0.661225
C78	C	0.431954	1.173377	-0.745068
C79	C	0.353979	1.483239	-0.479922
C80	C	0.334163	1.577836	-0.502232
C81	C	0.330286	1.334963	-1.027618
C82	C	0.334947	1.327554	-1.106399
C83	C	0.445942	1.151153	-0.981416
C84	C	0.441281	1.158562	-0.902634
C85	C	0.383450	1.250470	-0.925740
C86	C	0.378785	1.257876	-0.846956
C87	C	0.489783	1.081478	-0.721976
C88	C	0.494445	1.074069	-0.800757
C89	C	0.397737	1.227762	-0.167146
C90	C	0.392773	1.235652	-0.083303
C91	C	0.652814	1.008338	-0.406941
C92	C	0.734421	0.941757	-0.404482
C93	C	0.456122	0.949038	-0.101410
C94	C	0.470973	0.862331	0.004744
C95	C	0.638188	1.031586	-0.159901
C96	C	0.714830	0.972895	-0.073599
C97	C	0.186539	1.377444	-0.668470
C98	C	0.109897	1.436134	-0.754772
C99	C	0.171913	1.400691	-0.421431
C100	C	0.090306	1.467272	-0.423890
C101	C	0.368605	1.459991	-0.726962
C102	C	0.353754	1.546698	-0.833115
C103	C	0.740049	0.889831	-0.440153
C104	C	0.816720	0.827280	-0.437862
C105	C	0.887763	0.816650	-0.399893
C106	C	0.882132	0.868585	-0.364222
C107	C	0.805461	0.931141	-0.366520
C108	C	0.510642	0.842273	0.091420
C109	C	0.524591	0.760815	0.191168
C110	C	0.498875	0.699413	0.204237
C111	C	0.459199	0.719477	0.117550
C112	C	0.445246	0.800938	0.017805
C113	C	0.789236	0.956916	-0.092734
C114	C	0.861254	0.901784	-0.011656
C115	C	0.858864	0.862626	0.088557
C116	C	0.784449	0.878611	0.107690
C117	C	0.712432	0.933748	0.026611
C118	C	0.035488	1.452124	-0.735640
C119	C	-0.036535	1.507284	-0.816724
C120	C	-0.034146	1.546446	-0.916938
C121	C	0.040270	1.530455	-0.936070
C122	C	0.112290	1.475303	-0.854988
C123	C	0.084677	1.519207	-0.388229
C124	C	0.008002	1.581781	-0.390547
C125	C	-0.063042	1.592413	-0.428520
C126	C	-0.057410	1.540474	-0.464186
C127	C	0.019263	1.477907	-0.461874
C128	C	0.379482	1.608078	-0.846150
C129	C	0.365543	1.689543	-0.945886
C130	C	0.325871	1.709630	-1.032586
C131	C	0.300144	1.648241	-1.019547
C132	C	0.314088	1.566774	-0.919812
H133	H	0.639211	0.575034	-0.158750
H134	H	0.293133	1.516804	-0.909212
Br135	Br	0.262797	1.442230	-1.244664
H136	H	0.316229	0.913523	-0.522436
H137	H	-0.125469	1.643362	-0.430397
H138	H	-0.037809	1.340478	-0.510529
Br139	Br	0.246296	1.675524	-1.137223
H140	H	0.821290	0.784999	-0.466910
H141	H	0.950189	0.765709	-0.398027
Br142	Br	0.251802	1.459690	-1.058968
H143	H	0.386493	1.739519	-0.956483
H144	H	0.605434	0.736288	-0.196793
H145	H	0.331693	1.332710	-0.865772
Br146	Br	0.978556	0.854146	-0.312691
H147	H	0.604766	0.489476	-0.197532
Br148	Br	0.962234	0.880100	-0.037645
H149	H	0.314521	1.775970	-1.113791
H150	H	0.219965	0.919554	-0.630826
H151	H	0.379143	0.909598	-0.451599
Br152	Br	0.048045	1.306549	-0.486470
H153	H	0.508506	0.495506	-0.305953
H154	H	0.800890	0.973413	-0.337465
Br155	Br	0.524424	1.026434	-0.950080
H156	H	0.003432	1.624061	-0.361499
H157	H	0.445584	0.499436	-0.376765
Br158	Br	0.956610	0.787799	0.198582
Br159	Br	0.792501	1.010055	-0.228730
H160	H	0.172875	1.462284	-0.870577
Br161	Br	0.578438	0.733602	0.308796
Br162	Br	0.030276	0.877393	-0.182402
H163	H	0.142516	1.510557	-0.357300
Br164	Br	0.572926	0.949344	-0.769411
H165	H	0.438264	0.669472	0.128207
Br166	Br	0.561932	0.966797	-0.583702
Br167	Br	0.611457	0.955421	0.052600
Br168	Br	0.545557	0.925585	0.073713
Br169	Br	0.643645	0.904242	-0.491693
Br170	Br	0.517817	0.588861	0.339615
Br171	Br	0.391410	0.828145	-0.099821
H172	H	0.185518	0.833994	-0.669613
Br173	Br	0.781220	0.825462	0.243700
Br174	Br	-0.168968	1.054245	-0.307722
H175	H	0.042205	1.562348	-1.017674
H176	H	-0.115264	1.549141	-0.495103
H177	H	0.033529	1.420237	-0.654046
H178	H	-0.097119	1.520291	-0.801127
Br179	Br	0.026890	1.407424	-0.510271
H180	H	-0.092795	1.591352	-0.982951
H181	H	0.411784	1.591738	-0.775566
H182	H	0.219282	0.672742	-0.631587
H183	H	-0.333766	1.525315	-0.641465
Br184	Br	-0.484967	1.518257	-0.636507
Br185	Br	-0.205553	1.531644	-0.645964
H186	H	-0.237696	1.157511	-0.380883
Br187	Br	0.172864	0.828691	-0.147901
H188	H	0.263815	0.931492	-0.220712
