data_functionalizedCrystal
_audit_creation_method	'MofGen! by Chris Wilmer'
_symmetry_space_group_name_H-M	'P1'
_symmetry_Int_Tables_number	1
_symmetry_cell_setting	triclinic
loop_
_symmetry_equiv_pos_as_xyz
  x,y,z
_cell_length_a	12.759401
_cell_length_b	12.759400
_cell_length_c	12.759393
_cell_angle_alpha	89.969617
_cell_angle_beta	89.982620
_cell_angle_gamma	90.014607
loop_
_atom_site_label
_atom_site_type_symbol
_atom_site_fract_x
_atom_site_fract_y
_atom_site_fract_z
Zn1	Zn	1.606246	-0.418198	-0.593991
Zn2	Zn	1.606144	-0.593917	-0.418316
Zn3	Zn	1.430551	-0.418253	-0.418331
Zn4	Zn	1.430537	-0.593836	-0.593957
O5	O	1.518369	-0.506051	-0.506149
O6	O	1.753253	-0.441518	-0.570696
O7	O	1.582815	-0.570672	-0.271297
O8	O	1.453906	-0.271225	-0.441653
O9	O	1.753179	-0.570618	-0.441628
O10	O	1.582988	-0.271184	-0.570710
O11	O	1.453807	-0.441613	-0.271308
O12	O	1.283528	-0.441534	-0.441620
O13	O	1.453882	-0.570480	-0.740983
O14	O	1.283518	-0.570533	-0.570652
O15	O	1.582974	-0.441439	-0.741008
O16	O	1.582801	-0.740927	-0.441594
O17	O	1.453783	-0.740868	-0.570638
C18	C	1.245402	-0.506032	-0.506135
C19	C	1.128625	-0.506049	-0.506153
C20	C	1.073786	-0.573326	-0.573229
C21	C	0.964062	-0.573340	-0.573241
C22	C	0.964027	-0.438795	-0.439091
C23	C	1.073749	-0.438777	-0.439086
C24	C	1.073805	-0.651008	-0.650676
C25	C	0.964081	-0.651021	-0.650688
C26	C	1.518308	-0.779018	-0.506134
C27	C	1.518378	-0.895795	-0.506162
C28	C	1.451239	-1.060389	-0.573321
C29	C	1.451181	-0.950665	-0.573303
C30	C	1.585645	-0.950655	-0.439042
C31	C	1.585707	-1.060377	-0.439065
C32	C	1.384030	-1.115253	-0.640459
C33	C	1.316765	-1.060401	-0.707582
C34	C	1.316708	-0.950677	-0.707564
C35	C	1.383915	-0.895805	-0.640424
C36	C	1.792403	-0.506071	-0.506164
C37	C	1.909179	-0.506080	-0.506170
C38	C	1.518438	-0.505944	-0.780182
C39	C	1.518467	-0.505898	-0.896959
C40	C	1.518460	-0.232018	-0.506187
C41	C	1.518498	-0.115241	-0.506204
C42	C	1.451321	-0.438685	-0.951833
C43	C	1.451353	-0.438653	-1.061557
C44	C	1.585685	-0.573052	-1.061524
C45	C	1.585647	-0.573088	-0.951802
C46	C	1.373768	-0.361087	-0.951853
C47	C	1.373800	-0.361056	-1.061577
C48	C	1.518362	-0.506082	-0.233181
C49	C	1.518536	-0.505831	-0.116405
H50	H	0.919333	-0.384024	-0.384488
N51	N	1.383866	-0.777460	-0.640412
H52	H	1.331063	-0.751034	-0.693124
H53	H	1.364614	-0.751176	-0.568284
N54	N	1.658142	-0.645509	-1.120687
H55	H	1.733209	-0.629207	-1.101597
H56	H	1.641701	-0.720551	-1.101554
N57	N	1.265962	-0.389935	-0.912397
H58	H	1.217882	-0.402792	-0.973931
H59	H	1.270667	-0.455571	-0.868374
N60	N	1.412409	-0.258734	-0.906779
H61	H	1.431104	-0.209251	-0.965703
H62	H	1.355521	-0.226461	-0.862208
N63	N	1.271417	-0.399635	-1.106658
H64	H	1.275184	-0.398209	-1.185715
H65	H	1.258079	-0.473722	-1.082137
N66	N	1.132900	-0.366187	-0.366768
H67	H	1.081484	-0.323572	-0.324288
H68	H	1.178413	-0.408866	-0.318062
N69	N	1.113300	-0.622270	-0.758502
H70	H	1.051783	-0.609450	-0.806624
H71	H	1.157310	-0.556635	-0.753858
H72	H	1.395617	-0.279674	-1.091372
N73	N	1.244157	-0.891515	-0.779952
H74	H	1.254314	-0.813681	-0.769754
H75	H	1.260470	-0.910628	-0.855005
N76	N	0.924592	-0.758765	-0.621633
H77	H	0.950969	-0.811633	-0.674285
H78	H	0.950924	-0.777941	-0.549491
N79	N	1.118875	-0.753329	-0.611885
H80	H	1.059949	-0.802782	-0.593148
H81	H	1.163470	-0.785667	-0.668715
N82	N	1.658053	-0.645596	-0.892613
H83	H	1.700616	-0.688153	-0.944006
H84	H	1.706678	-0.602857	-0.847093
N85	N	0.919079	-0.612528	-0.753154
H86	H	0.874519	-0.669410	-0.785452
H87	H	0.874584	-0.548423	-0.739961
N88	N	1.658129	-0.891477	-0.366631
H89	H	1.647882	-0.813646	-0.376800
H90	H	1.641831	-0.910725	-0.291586
N91	N	1.384085	-1.233596	-0.640469
H92	H	1.331302	-1.260032	-0.693181
H93	H	1.456192	-1.259879	-0.659819
N94	N	1.244288	-1.119576	-0.780001
H95	H	1.254527	-1.197408	-0.769829
H96	H	1.169254	-1.100466	-0.763579
N97	N	1.658252	-1.119548	-0.366681
H98	H	1.700814	-1.068145	-0.324140
H99	H	1.615541	-1.165147	-0.318034
