data_functionalizedCrystal
_audit_creation_method	'MofGen! by Chris Wilmer'
_symmetry_space_group_name_H-M	'P1'
_symmetry_Int_Tables_number	1
_symmetry_cell_setting	triclinic
loop_
_symmetry_equiv_pos_as_xyz
  x,y,z
_cell_length_a	16.109295
_cell_length_b	8.140239
_cell_length_c	16.109301
_cell_angle_alpha	89.998506
_cell_angle_beta	83.460333
_cell_angle_gamma	89.998538
loop_
_atom_site_label
_atom_site_type_symbol
_atom_site_fract_x
_atom_site_fract_y
_atom_site_fract_z
O1	O	-1.103131	-0.136484	-0.106843
O2	O	-0.861069	-0.136510	-0.120148
O3	O	-0.988750	-0.136505	0.007536
O4	O	-0.975450	-0.136489	-0.234527
O5	O	-0.988746	0.136722	0.007537
O6	O	-0.861065	0.136717	-0.120147
O7	O	-1.103127	0.136743	-0.106842
Zn8	Zn	-0.982095	0.180110	-0.113494
Zn9	Zn	-0.982101	-0.179878	-0.113496
O10	O	-0.975446	0.136738	-0.234526
C11	C	-0.830092	0.000100	-0.119609
C12	C	-0.737796	0.000089	-0.117996
C13	C	-0.515523	0.000111	-0.190008
C14	C	-0.428803	0.000121	-0.188486
C15	C	-0.448677	0.000105	-0.036996
C16	C	-0.535396	0.000106	-0.038520
C17	C	-0.568816	0.000101	-0.115028
C18	C	-0.395377	0.000109	-0.111982
C19	C	-0.301351	0.000120	-0.110331
C20	C	-0.662849	0.000094	-0.116679
C21	C	-0.134104	0.000127	-0.107386
C22	C	-0.226397	0.000122	-0.109014
N23	N	-0.982098	0.425793	-0.113493
C24	C	-0.975987	0.000126	-0.265501
C25	C	-0.977602	0.000133	-0.357796
N26	N	-0.982105	-0.425561	-0.113490
C27	C	-0.905594	0.000101	-0.580070
C28	C	-0.907118	0.000089	-0.666790
C29	C	-1.058607	0.000112	-0.646913
C30	C	-1.057083	0.000113	-0.560194
C31	C	-0.980573	0.000115	-0.526775
C32	C	-0.983622	0.000103	-0.700215
C33	C	-0.985275	0.000089	-0.794241
C34	C	-0.978920	0.000126	-0.432744
C35	C	-0.988209	0.000103	0.038511
C36	C	-0.986594	0.000086	0.130806
H37	H	-0.578790	0.000103	0.022542
H38	H	-1.120899	0.000127	-0.674134
O39	O	-0.376950	-0.000098	-0.261267
C40	C	-0.326206	-0.141624	-0.264929
H41	H	-0.321838	-0.188800	-0.198938
H42	H	-0.354723	-0.240714	-0.302891
C43	C	-0.243517	-0.040694	-0.387842
C44	C	-0.238147	-0.098629	-0.306790
H45	H	-0.189199	-0.014177	-0.413668
H46	H	-0.277706	0.054652	-0.385378
H47	H	-0.267285	-0.123279	-0.419467
H48	H	-0.214389	-0.016038	-0.275164
H49	H	-0.203951	-0.193961	-0.309250
H50	H	-0.542731	0.000120	-0.252306
H51	H	-1.118143	0.000118	-0.516799
O52	O	-0.416072	0.000023	0.037247
C53	C	-0.328103	0.000060	0.022516
H54	H	-0.307719	-0.051659	-0.042373
H55	H	-0.303965	0.131139	0.026542
C56	C	-0.317190	-0.043580	0.168335
C57	C	-0.292154	-0.107115	0.088641
H58	H	-0.295014	-0.109684	0.209126
H59	H	-0.376456	-0.043599	0.178261
H60	H	-0.297073	0.065651	0.171678
H61	H	-0.312280	-0.216336	0.085296
H62	H	-0.232890	-0.107117	0.078716
O63	O	-0.831256	-0.000205	-0.547645
C64	C	-0.785551	-0.141705	-0.574897
H65	H	-0.830295	-0.240597	-0.592918
H66	H	-0.739207	-0.109726	-0.631431
C67	C	-0.682831	-0.084423	-0.481818
C68	C	-0.737787	-0.205889	-0.503945
H69	H	-0.653365	-0.124012	-0.438053
H70	H	-0.713621	0.010911	-0.463460
H71	H	-0.644218	-0.057785	-0.528936
H72	H	-0.776405	-0.232510	-0.456830
H73	H	-0.707002	-0.301230	-0.522293
H74	H	-0.846063	0.000075	-0.710180
