data_functionalizedCrystal
_audit_creation_method	'MofGen! by Chris Wilmer'
_symmetry_space_group_name_H-M	'P1'
_symmetry_Int_Tables_number	1
_symmetry_cell_setting	triclinic
loop_
_symmetry_equiv_pos_as_xyz
  x,y,z
_cell_length_a	18.101398
_cell_length_b	18.050589
_cell_length_c	18.050582
_cell_angle_alpha	89.981795
_cell_angle_beta	89.979764
_cell_angle_gamma	90.023488
loop_
_atom_site_label
_atom_site_type_symbol
_atom_site_fract_x
_atom_site_fract_y
_atom_site_fract_z
Zn1	Zn	1.132106	-0.295800	-0.420040
Zn2	Zn	1.382106	-0.045800	-0.170040
Zn3	Zn	1.632106	0.204200	0.079960
Zn4	Zn	1.882106	0.454200	0.329960
Zn5	Zn	1.132017	-0.419984	-0.295860
Zn6	Zn	1.382017	-0.169984	-0.045860
Zn7	Zn	1.632017	0.080016	0.204140
Zn8	Zn	1.882017	0.330016	0.454140
Zn9	Zn	1.008274	-0.295802	-0.295853
Zn10	Zn	1.258274	-0.045802	-0.045853
Zn11	Zn	1.508274	0.204198	0.204147
Zn12	Zn	1.758274	0.454198	0.454147
Zn13	Zn	1.008222	-0.419943	-0.419997
Zn14	Zn	1.258222	-0.169943	-0.169997
Zn15	Zn	1.508222	0.080057	0.080003
Zn16	Zn	1.758222	0.330057	0.330003
O17	O	1.070155	-0.357882	-0.357937
O18	O	1.320155	-0.107882	-0.107937
O19	O	1.570155	0.142118	0.142063
O20	O	1.820155	0.392118	0.392063
O21	O	1.235727	-0.312290	-0.403589
O22	O	1.485727	-0.062290	-0.153589
O23	O	1.735727	0.187710	0.096411
O24	O	1.985727	0.437710	0.346411
O25	O	1.115587	-0.403528	-0.191934
O26	O	1.365587	-0.153528	0.058066
O27	O	1.615587	0.096472	0.308066
O28	O	1.865587	0.346472	0.558066
O29	O	1.024759	-0.191877	-0.312342
O30	O	1.274759	0.058123	-0.062342
O31	O	1.524759	0.308123	0.187658
O32	O	1.774759	0.558123	0.437658
O33	O	1.235662	-0.403527	-0.312354
O34	O	1.485662	-0.153527	-0.062354
O35	O	1.735662	0.096473	0.187646
O36	O	1.985662	0.346473	0.437646
O37	O	1.115738	-0.191876	-0.403582
O38	O	1.365738	0.058124	-0.153582
O39	O	1.615738	0.308124	0.096418
O40	O	1.865738	0.558124	0.346418
O41	O	1.024673	-0.312292	-0.191929
O42	O	1.274673	-0.062292	0.058071
O43	O	1.524673	0.187708	0.308071
O44	O	1.774673	0.437708	0.558071
O45	O	0.904634	-0.312253	-0.312300
O46	O	1.154634	-0.062253	-0.062300
O47	O	1.404634	0.187747	0.187700
O48	O	1.654634	0.437747	0.437700
O49	O	1.024671	-0.403457	-0.523927
O50	O	1.274671	-0.153457	-0.273927
O51	O	1.524671	0.096543	-0.023927
O52	O	1.774671	0.346543	0.226073
O53	O	0.904596	-0.403459	-0.403508
O54	O	1.154596	-0.153459	-0.153508
O55	O	1.404596	0.096541	0.096492
O56	O	1.654596	0.346541	0.346492
O57	O	1.115688	-0.312250	-0.523959
O58	O	1.365688	-0.062250	-0.273959
O59	O	1.615688	0.187750	-0.023959
O60	O	1.865688	0.437750	0.226041
O61	O	1.115536	-0.523903	-0.312311
O62	O	1.365536	-0.273903	-0.062311
O63	O	1.615536	-0.023903	0.187689
O64	O	1.865536	0.226097	0.437689
O65	O	1.024585	-0.523873	-0.403514
O66	O	1.274585	-0.273873	-0.153514
O67	O	1.524585	-0.023873	0.096486
O68	O	1.774585	0.226127	0.346486
C69	C	0.877744	-0.357852	-0.357899
C70	C	1.127744	-0.107852	-0.107899
C71	C	1.377744	0.142148	0.142101
C72	C	1.627744	0.392148	0.392101
C73	C	0.795430	-0.357857	-0.357900
C74	C	1.045430	-0.107857	-0.107900
C75	C	1.295430	0.142143	0.142100
C76	C	1.545430	0.392143	0.392100
C77	C	0.496339	-0.357903	-0.357962
C78	C	0.746339	-0.107903	-0.107962
C79	C	0.996339	0.142097	0.142038
C80	C	1.246339	0.392097	0.392038
C81	C	0.527663	-0.300232	-0.300857
C82	C	0.777663	-0.050232	-0.050857
C83	C	1.027663	0.199768	0.199143
C84	C	1.277663	0.449768	0.449143
C85	C	0.613282	-0.300387	-0.300613
C86	C	0.863282	-0.050387	-0.050613
C87	C	1.113282	0.199613	0.199387
C88	C	1.363282	0.449613	0.449387
C89	C	0.644722	-0.357880	-0.357931
C90	C	0.894722	-0.107880	-0.107931
C91	C	1.144722	0.142120	0.142069
C92	C	1.394722	0.392120	0.392069
C93	C	0.613609	-0.436109	-0.336553
C94	C	0.863609	-0.186109	-0.086553
C95	C	1.113609	0.063891	0.163447
C96	C	1.363609	0.313891	0.413447
C97	C	0.527964	-0.435788	-0.336156
C98	C	0.777964	-0.185788	-0.086156
C99	C	1.027964	0.064212	0.163844
C100	C	1.277964	0.314212	0.413844
C101	C	0.527947	-0.338025	-0.436581
C102	C	0.777947	-0.088025	-0.186581
C103	C	1.027947	0.161975	0.063419
C104	C	1.277947	0.411975	0.313419
C105	C	0.613598	-0.336283	-0.436152
C106	C	0.863598	-0.086283	-0.186152
C107	C	1.113598	0.163717	0.063848
C108	C	1.363598	0.413717	0.313848
C109	C	0.728581	-0.357871	-0.357915
C110	C	0.978581	-0.107871	-0.107915
C111	C	1.228581	0.142129	0.142085
C112	C	1.478581	0.392129	0.392085
C113	C	0.412480	-0.357917	-0.357977
C114	C	0.662480	-0.107917	-0.107977
C115	C	0.912480	0.142083	0.142023
C116	C	1.162480	0.392083	0.392023
C117	C	1.070065	-0.550834	-0.357925
C118	C	1.320065	-0.300834	-0.107925
C119	C	1.570065	-0.050834	0.142075
C120	C	1.820065	0.199166	0.392075
C121	C	1.070095	-0.633380	-0.357945
C122	C	1.320095	-0.383380	-0.107945
C123	C	1.570095	-0.133380	0.142055
C124	C	1.820095	0.116620	0.392055
C125	C	1.020684	-0.832841	-0.407524
C126	C	1.270684	-0.582841	-0.157524
C127	C	1.520684	-0.332841	0.092476
C128	C	1.770684	-0.082841	0.342476
C129	C	1.002637	-0.882274	-0.339755
C130	C	1.252637	-0.632274	-0.089755
C131	C	1.502637	-0.382274	0.160245
C132	C	1.752637	-0.132274	0.410245
C133	C	1.070167	-0.784510	-0.357954
C134	C	1.320167	-0.534510	-0.107954
C135	C	1.570167	-0.284510	0.142046
C136	C	1.820167	-0.034510	0.392046
C137	C	1.088251	-0.882160	-0.425731
C138	C	1.338251	-0.632160	-0.175731
C139	C	1.588251	-0.382160	0.074269
C140	C	1.838251	-0.132160	0.324269
C141	C	1.070236	-0.930495	-0.357970
C142	C	1.320236	-0.680495	-0.107970
C143	C	1.570236	-0.430495	0.142030
C144	C	1.820236	-0.180495	0.392030
C145	C	1.052085	-0.832856	-0.290149
C146	C	1.302085	-0.582856	-0.040149
C147	C	1.552085	-0.332856	0.209851
C148	C	1.802085	-0.082856	0.459851
C149	C	1.137730	-0.832737	-0.376172
C150	C	1.387730	-0.582737	-0.126172
C151	C	1.637730	-0.332737	0.123828
C152	C	1.887730	-0.082737	0.373828
C153	C	1.119709	-0.882147	-0.308356
C154	C	1.369709	-0.632147	-0.058356
C155	C	1.619709	-0.382147	0.191644
C156	C	1.869709	-0.132147	0.441644
C157	C	1.070126	-0.700412	-0.357947
C158	C	1.320126	-0.450412	-0.107947
C159	C	1.570126	-0.200412	0.142053
C160	C	1.820126	0.049588	0.392053
C161	C	1.070278	-1.014592	-0.357970
C162	C	1.320278	-0.764592	-0.107970
C163	C	1.570278	-0.514592	0.142030
C164	C	1.820278	-0.264592	0.392030
C165	C	1.263316	-0.357913	-0.357977
C166	C	1.513316	-0.107913	-0.107977
C167	C	1.763316	0.142087	0.142023
C168	C	2.013316	0.392087	0.392023
C169	C	1.345631	-0.357926	-0.357994
C170	C	1.595631	-0.107926	-0.107994
C171	C	1.845631	0.142074	0.142006
C172	C	2.095631	0.392074	0.392006
C173	C	1.070184	-0.357849	-0.551643
C174	C	1.320184	-0.107849	-0.301643
C175	C	1.570184	0.142151	-0.051643
C176	C	1.820184	0.392151	0.198357
C177	C	1.070196	-0.357835	-0.634189
C178	C	1.320196	-0.107835	-0.384189
C179	C	1.570196	0.142165	-0.134189
C180	C	1.820196	0.392165	0.115811
C181	C	1.070265	-0.164177	-0.357966
C182	C	1.320265	0.085823	-0.107966
C183	C	1.570265	0.335823	0.142034
C184	C	1.820265	0.585823	0.392034
C185	C	1.070311	-0.081631	-0.357978
C186	C	1.320311	0.168369	-0.107978
C187	C	1.570311	0.418369	0.142022
C188	C	1.820311	0.668369	0.392022
C189	C	1.020739	-0.407366	-0.833622
C190	C	1.270739	-0.157366	-0.583622
C191	C	1.520739	0.092634	-0.333622
C192	C	1.770739	0.342634	-0.083622
C193	C	1.088304	-0.425525	-0.883021
C194	C	1.338304	-0.175525	-0.633021
C195	C	1.588304	0.074475	-0.383021
C196	C	1.838304	0.324475	-0.133021
C197	C	1.070233	-0.357779	-0.785319
C198	C	1.320233	-0.107779	-0.535319
C199	C	1.570233	0.142221	-0.285319
C200	C	1.820233	0.392221	-0.035319
C201	C	1.002705	-0.339599	-0.883002
C202	C	1.252705	-0.089599	-0.633002
C203	C	1.502705	0.160401	-0.383002
C204	C	1.752705	0.410401	-0.133002
C205	C	1.070262	-0.357725	-0.931305
C206	C	1.320262	-0.107725	-0.681305
C207	C	1.570262	0.142275	-0.431305
C208	C	1.820262	0.392275	-0.181305
C209	C	1.137833	-0.375973	-0.833631
C210	C	1.387833	-0.125973	-0.583631
C211	C	1.637833	0.124027	-0.333631
C212	C	1.887833	0.374027	-0.083631
C213	C	1.052188	-0.290016	-0.833608
C214	C	1.302188	-0.040016	-0.583608
C215	C	1.552188	0.209984	-0.333608
C216	C	1.802188	0.459984	-0.083608
C217	C	1.119800	-0.308149	-0.882984
C218	C	1.369800	-0.058149	-0.632984
C219	C	1.619800	0.191851	-0.382984
C220	C	1.869800	0.441851	-0.132984
C221	C	1.070215	-0.357811	-0.701221
C222	C	1.320215	-0.107811	-0.451221
C223	C	1.570215	0.142189	-0.201221
C224	C	1.820215	0.392189	0.048779
C225	C	1.070287	-0.357692	-1.015401
C226	C	1.320287	-0.107692	-0.765401
C227	C	1.570287	0.142308	-0.515401
C228	C	1.820287	0.392308	-0.265401
C229	C	1.070168	-0.357861	-0.164985
C230	C	1.320168	-0.107861	0.085015
C231	C	1.570168	0.142139	0.335015
C232	C	1.820168	0.392139	0.585015
C233	C	1.070299	-0.357666	-0.082440
C234	C	1.320299	-0.107666	0.167560
C235	C	1.570299	0.142334	0.417560
C236	C	1.820299	0.392334	0.667560
H237	H	0.634318	-0.242377	-0.314013
H238	H	0.884318	0.007623	-0.064013
H239	H	1.134318	0.257623	0.185987
H240	H	1.384318	0.507623	0.435987
H241	H	1.194969	-0.391392	-0.812035
H242	H	1.444969	-0.141392	-0.562035
H243	H	1.694969	0.108608	-0.312035
H244	H	1.944969	0.358608	-0.062035
H245	H	1.036889	-0.232749	-0.811886
H246	H	1.286889	0.017251	-0.561886
H247	H	1.536889	0.267251	-0.311886
H248	H	1.786889	0.517251	-0.061886
H249	H	1.194821	-0.810964	-0.391599
H250	H	1.444821	-0.560964	-0.141599
H251	H	1.694821	-0.310964	0.108401
H252	H	1.944821	-0.060964	0.358401
H253	H	1.036751	-0.811288	-0.232822
H254	H	1.286751	-0.561288	0.017178
H255	H	1.536751	-0.311288	0.267178
H256	H	1.786751	-0.061288	0.517178
H257	H	1.161716	-0.266192	-0.904521
H258	H	1.411716	-0.016192	-0.654521
H259	H	1.661716	0.233808	-0.404521
H260	H	1.911716	0.483808	-0.154521
H261	H	0.945533	-0.904049	-0.324360
H262	H	1.195533	-0.654049	-0.074360
H263	H	1.445533	-0.404049	0.175640
H264	H	1.695533	-0.154049	0.425640
C265	C	0.925545	-0.318850	-0.912301
C266	C	1.175545	-0.068850	-0.662301
C267	C	1.425545	0.181150	-0.412301
C268	C	1.675545	0.431150	-0.162301
H269	H	0.928926	-0.275020	-0.941259
H270	H	1.178926	-0.025020	-0.691259
H271	H	1.428926	0.224980	-0.441259
H272	H	1.678926	0.474980	-0.191259
H273	H	0.893132	-0.310632	-0.871731
H274	H	1.143132	-0.060632	-0.621731
H275	H	1.393132	0.189368	-0.371731
H276	H	1.643132	0.439368	-0.121731
H277	H	0.906980	-0.358100	-0.942002
H278	H	1.156980	-0.108100	-0.692002
H279	H	1.406980	0.141900	-0.442002
H280	H	1.656980	0.391900	-0.192002
H281	H	0.633938	-0.278715	-0.452272
H282	H	0.883938	-0.028715	-0.202272
H283	H	1.133938	0.221285	0.047728
H284	H	1.383938	0.471285	0.297728
C285	C	0.964249	-0.464082	-0.804335
C286	C	1.214249	-0.214082	-0.554335
C287	C	1.464249	0.035918	-0.304335
C288	C	1.714249	0.285918	-0.054335
H289	H	0.928066	-0.439300	-0.775371
H290	H	1.178066	-0.189300	-0.525371
H291	H	1.428066	0.060700	-0.275371
H292	H	1.678066	0.310700	-0.025371
H293	H	0.988872	-0.499837	-0.774658
H294	H	1.238872	-0.249837	-0.524658
H295	H	1.488872	0.000163	-0.274658
H296	H	1.738872	0.250163	-0.024658
H297	H	0.940949	-0.488090	-0.844916
H298	H	1.190949	-0.238090	-0.594916
H299	H	1.440949	0.011910	-0.344916
H300	H	1.690949	0.261910	-0.094916
C301	C	0.642506	-0.388890	-0.496715
C302	C	0.892506	-0.138890	-0.246715
C303	C	1.142506	0.111110	0.003285
C304	C	1.392506	0.361110	0.253285
H305	H	0.622828	-0.374539	-0.543344
H306	H	0.872828	-0.124539	-0.293344
H307	H	1.122828	0.125461	-0.043344
H308	H	1.372828	0.375461	0.206656
H309	H	0.627625	-0.438161	-0.485747
H310	H	0.877625	-0.188161	-0.235747
H311	H	1.127625	0.061839	0.014253
H312	H	1.377625	0.311839	0.264253
H313	H	0.694904	-0.386419	-0.498424
H314	H	0.944904	-0.136419	-0.248424
H315	H	1.194904	0.113581	0.001576
H316	H	1.444904	0.363581	0.251576
H317	H	0.507089	-0.242045	-0.314109
H318	H	0.757089	0.007955	-0.064109
H319	H	1.007089	0.257955	0.185891
H320	H	1.257089	0.507955	0.435891
C321	C	0.498805	-0.262306	-0.462846
C322	C	0.748805	-0.012306	-0.212846
C323	C	0.998805	0.237694	0.037154
C324	C	1.248805	0.487694	0.287154
H325	H	0.518540	-0.251368	-0.510385
H326	H	0.768540	-0.001368	-0.260385
H327	H	1.018540	0.248632	-0.010385
H328	H	1.268540	0.498632	0.239615
H329	H	0.513473	-0.225035	-0.428739
H330	H	0.763473	0.024965	-0.178739
H331	H	1.013473	0.274965	0.071261
H332	H	1.263473	0.524965	0.321261
H333	H	0.446418	-0.263808	-0.465624
H334	H	0.696418	-0.013808	-0.215624
H335	H	0.946418	0.236192	0.034376
H336	H	1.196418	0.486192	0.284376
C337	C	1.108965	-0.502908	-0.912325
C338	C	1.358965	-0.252908	-0.662325
C339	C	1.608965	-0.002908	-0.412325
C340	C	1.858965	0.247092	-0.162325
H341	H	1.152681	-0.499535	-0.941274
H342	H	1.402681	-0.249535	-0.691274
H343	H	1.652681	0.000465	-0.441274
H344	H	1.902681	0.250465	-0.191274
H345	H	1.069824	-0.521524	-0.942019
H346	H	1.319824	-0.271524	-0.692019
H347	H	1.569824	-0.021524	-0.442019
H348	H	1.819824	0.228476	-0.192019
H349	H	1.117154	-0.535407	-0.871746
H350	H	1.367154	-0.285407	-0.621746
H351	H	1.617154	-0.035407	-0.371746
H352	H	1.867154	0.214593	-0.121746
H353	H	0.506119	-0.313224	-0.242940
H354	H	0.756119	-0.063224	0.007060
H355	H	1.006119	0.186776	0.257060
H356	H	1.256119	0.436776	0.507060
C357	C	1.108880	-0.911415	-0.503152
C358	C	1.358880	-0.661415	-0.253152
C359	C	1.608880	-0.411415	-0.003152
C360	C	1.858880	-0.161415	0.246848
H361	H	1.073649	-0.894524	-0.538302
H362	H	1.323649	-0.644524	-0.288302
H363	H	1.573649	-0.394524	-0.038302
H364	H	1.823649	-0.144524	0.211698
H365	H	1.109201	-0.964036	-0.502496
H366	H	1.359201	-0.714036	-0.252496
H367	H	1.609201	-0.464036	-0.002496
H368	H	1.859201	-0.214036	0.247504
H369	H	1.156514	-0.893718	-0.516427
H370	H	1.406514	-0.643718	-0.266427
H371	H	1.656514	-0.393718	-0.016427
H372	H	1.906514	-0.143718	0.233573
H373	H	1.161585	-0.903660	-0.266395
H374	H	1.411585	-0.653660	-0.016395
H375	H	1.661585	-0.403660	0.233605
H376	H	1.911585	-0.153660	0.483605
H377	H	0.978776	-0.811191	-0.449383
H378	H	1.228776	-0.561191	-0.199383
H379	H	1.478776	-0.311191	0.050617
H380	H	1.728776	-0.061191	0.300617
H381	H	0.507957	-0.452647	-0.278682
H382	H	0.757957	-0.202647	-0.028682
H383	H	1.007957	0.047353	0.221318
H384	H	1.257957	0.297353	0.471318
C385	C	0.640928	-0.318143	-0.221919
C386	C	0.890928	-0.068143	0.028081
C387	C	1.140928	0.181857	0.278081
C388	C	1.390928	0.431857	0.528081
H389	H	0.693410	-0.318292	-0.221499
H390	H	0.943410	-0.068292	0.028501
H391	H	1.193410	0.181708	0.278501
H392	H	1.443410	0.431708	0.528501
H393	H	0.623158	-0.365461	-0.207282
H394	H	0.873158	-0.115461	0.042718
H395	H	1.123158	0.134539	0.292718
H396	H	1.373158	0.384539	0.542718
H397	H	0.623282	-0.281620	-0.188424
H398	H	0.873282	-0.031620	0.061576
H399	H	1.123282	0.218380	0.311576
H400	H	1.373282	0.468380	0.561576
C401	C	0.499965	-0.495738	-0.389958
C402	C	0.749965	-0.245738	-0.139958
C403	C	0.999965	0.004262	0.110042
C404	C	1.249965	0.254262	0.360042
H405	H	0.540935	-0.520192	-0.411949
H406	H	0.790935	-0.270192	-0.161949
H407	H	1.040935	-0.020192	0.088051
H408	H	1.290935	0.229808	0.338051
H409	H	0.470852	-0.473273	-0.427531
H410	H	0.720852	-0.223273	-0.177531
H411	H	0.970852	0.026727	0.072469
H412	H	1.220852	0.276727	0.322469
H413	H	0.470844	-0.530728	-0.363599
H414	H	0.720844	-0.280728	-0.113599
H415	H	0.970844	-0.030728	0.136401
H416	H	1.220844	0.219272	0.386401
H417	H	0.633973	-0.480229	-0.376844
H418	H	0.883973	-0.230229	-0.126844
H419	H	1.133973	0.019771	0.123156
H420	H	1.383973	0.269771	0.373156
H421	H	0.635029	-0.453260	-0.279700
H422	H	0.885029	-0.203260	-0.029700
H423	H	1.135029	0.046740	0.220300
H424	H	1.385029	0.296740	0.470300
H425	H	0.507690	-0.380031	-0.479130
H426	H	0.757690	-0.130031	-0.229130
H427	H	1.007690	0.119969	0.020870
H428	H	1.257690	0.369969	0.270870
