data_functionalizedCrystal
_audit_creation_method	'MofGen! by Chris Wilmer'
_symmetry_space_group_name_H-M	'P1'
_symmetry_Int_Tables_number	1
_symmetry_cell_setting	triclinic
loop_
_symmetry_equiv_pos_as_xyz
  x,y,z
_cell_length_a	21.395362
_cell_length_b	15.297327
_cell_length_c	21.395355
_cell_angle_alpha	99.659679
_cell_angle_beta	89.956060
_cell_angle_gamma	99.725883
loop_
_atom_site_label
_atom_site_type_symbol
_atom_site_fract_x
_atom_site_fract_y
_atom_site_fract_z
Zn1	Zn	0.914743	-0.358918	-0.397693
Zn2	Zn	1.414743	0.141082	0.102307
Zn3	Zn	0.896524	-0.509774	-0.311034
Zn4	Zn	1.396524	-0.009774	0.188966
Zn5	Zn	0.809953	-0.358960	-0.292899
Zn6	Zn	1.309953	0.141040	0.207101
Zn7	Zn	0.791803	-0.509792	-0.415741
Zn8	Zn	1.291803	-0.009792	0.084259
O9	O	0.853256	-0.434361	-0.354342
O10	O	1.353256	0.065639	0.145658
O11	O	1.000007	-0.378904	-0.386234
O12	O	1.500007	0.121096	0.113766
O13	O	0.885011	-0.489778	-0.220951
O14	O	1.385011	0.010222	0.279049
O15	O	0.839075	-0.232697	-0.291658
O16	O	1.339075	0.267303	0.208342
O17	O	0.986621	-0.489737	-0.322566
O18	O	1.486621	0.010263	0.177434
O19	O	0.916063	-0.232666	-0.368649
O20	O	1.416063	0.267334	0.131351
O21	O	0.821408	-0.378975	-0.207628
O22	O	1.321408	0.121025	0.292372
O23	O	0.719864	-0.378993	-0.309158
O24	O	1.219864	0.121007	0.190842
O25	O	0.808140	-0.489769	-0.501023
O26	O	1.308140	0.010231	-0.001023
O27	O	0.706530	-0.489810	-0.399409
O28	O	1.206530	0.010190	0.100591
O29	O	0.898464	-0.378922	-0.487764
O30	O	1.398464	0.121078	0.012236
O31	O	0.867411	-0.636034	-0.340066
O32	O	1.367411	-0.136034	0.159934
O33	O	0.790473	-0.636048	-0.416993
O34	O	1.290473	-0.136048	0.083007
C35	C	0.690462	-0.434409	-0.354275
C36	C	1.190462	0.065591	0.145725
C37	C	0.620816	-0.434451	-0.354263
C38	C	1.120816	0.065549	0.145737
C39	C	0.581167	-0.492229	-0.401206
C40	C	1.081167	0.007771	0.098794
C41	C	0.515734	-0.492207	-0.401232
C42	C	1.015734	0.007793	0.098768
C43	C	0.489952	-0.434416	-0.354304
C44	C	0.989952	0.065584	0.145696
C45	C	0.529610	-0.376627	-0.307357
C46	C	1.029610	0.123373	0.192643
C47	C	0.595042	-0.376644	-0.307337
C48	C	1.095042	0.123356	0.192663
C49	C	0.387100	-0.427148	-0.297026
C50	C	0.887100	0.072852	0.202974
C51	C	0.321669	-0.427137	-0.297046
C52	C	0.821669	0.072863	0.202954
C53	C	0.288138	-0.434357	-0.354366
C54	C	0.788138	0.065643	0.145634
C55	C	0.320045	-0.441608	-0.411670
C56	C	0.820045	0.058392	0.088330
C57	C	0.385477	-0.441625	-0.411650
C58	C	0.885477	0.058375	0.088350
C59	C	0.419003	-0.434390	-0.354321
C60	C	0.919003	0.065610	0.145679
C61	C	0.177539	-0.492115	-0.401340
C62	C	0.677539	0.007885	0.098660
C63	C	0.112106	-0.492086	-0.401366
C64	C	0.612106	0.007914	0.098634
C65	C	0.125983	-0.376510	-0.307486
C66	C	0.625983	0.123490	0.192514
C67	C	0.191415	-0.376534	-0.307465
C68	C	0.691415	0.123466	0.192535
C69	C	0.217189	-0.434341	-0.354392
C70	C	0.717189	0.065659	0.145608
C71	C	0.825013	-0.668778	-0.382470
C72	C	1.325013	-0.168778	0.117530
C73	C	0.812988	-0.769063	-0.394524
C74	C	1.312988	-0.269063	0.105476
C75	C	0.939459	-1.051594	-0.268402
C76	C	1.439459	-0.551594	0.231598
C77	C	0.950757	-0.957372	-0.257073
C78	C	1.450757	-0.457372	0.242927
C79	C	0.916316	-0.910290	-0.291435
C80	C	1.416316	-0.410290	0.208565
C81	C	0.870575	-0.957440	-0.337127
C82	C	1.370575	-0.457440	0.162873
C83	C	0.859272	-1.051671	-0.348454
C84	C	1.359272	-0.551671	0.151546
C85	C	0.836129	-0.910367	-0.371487
C86	C	1.336129	-0.410367	0.128513
C87	C	0.790387	-0.957517	-0.417179
C88	C	1.290387	-0.457517	0.082821
C89	C	0.779087	-1.051739	-0.428503
C90	C	1.279087	-0.551739	0.071497
C91	C	0.813528	-1.098821	-0.394142
C92	C	1.313528	-0.598821	0.105858
C93	C	0.847431	-0.816135	-0.360160
C94	C	1.347431	-0.316135	0.139840
C95	C	0.767244	-0.816212	-0.440212
C96	C	1.267244	-0.316212	0.059788
C97	C	0.755946	-0.910435	-0.451540
C98	C	1.255946	-0.410435	0.048460
C99	C	1.016685	-0.434314	-0.354409
C100	C	1.516685	0.065686	0.145591
C101	C	1.086328	-0.434294	-0.354438
C102	C	1.586328	0.065706	0.145562
C103	C	0.853310	-0.434343	-0.517763
C104	C	1.353310	0.065657	-0.017763
C105	C	0.853333	-0.434335	-0.587403
C106	C	1.353333	0.065665	-0.087403
C107	C	0.881626	-0.199029	-0.326118
C108	C	1.381626	0.300971	0.173882
C109	C	0.893716	-0.098744	-0.314090
C110	C	1.393716	0.401256	0.185910
C111	C	0.900363	-0.376615	-0.613213
C112	C	1.400363	0.123385	-0.113213
C113	C	0.900367	-0.376576	-0.678643
C114	C	1.400367	0.123424	-0.178643
C115	C	0.853345	-0.434273	-0.718264
C116	C	1.353345	0.065727	-0.218264
C117	C	0.806307	-0.491998	-0.692447
C118	C	1.306307	0.008002	-0.192447
C119	C	0.806301	-0.492029	-0.627017
C120	C	1.306301	0.007971	-0.127017
C121	C	0.838610	-0.515514	-0.831685
C122	C	1.338610	-0.015514	-0.331685
C123	C	0.838620	-0.515485	-0.897115
C124	C	1.338620	-0.015485	-0.397115
C125	C	0.853361	-0.434178	-0.920074
C126	C	1.353361	0.065822	-0.420074
C127	C	0.868104	-0.352898	-0.877594
C128	C	1.368104	0.147102	-0.377594
C129	C	0.868098	-0.352928	-0.812164
C130	C	1.368098	0.147072	-0.312164
C131	C	0.853346	-0.434246	-0.789213
C132	C	1.353346	0.065754	-0.289213
C133	C	0.900398	-0.376411	-1.016830
C134	C	1.400398	0.123589	-0.516830
C135	C	0.900397	-0.376370	-1.082262
C136	C	1.400397	0.123630	-0.582262
C137	C	0.806339	-0.491801	-1.096065
C138	C	1.306339	0.008199	-0.596065
C139	C	0.806338	-0.491833	-1.030634
C140	C	1.306338	0.008167	-0.530634
C141	C	0.853370	-0.434139	-0.991020
C142	C	1.353370	0.065861	-0.491020
C143	C	0.853246	-0.434314	-0.191548
C144	C	1.353246	0.065686	0.308452
C145	C	0.853374	-0.434068	-0.121878
C146	C	1.353374	0.065932	0.378122
H147	H	0.508615	-0.329571	-0.269149
H148	H	1.008615	0.170429	0.230851
H149	H	0.884674	-0.777754	-0.322957
H150	H	1.384674	-0.277754	0.177043
H151	H	0.880108	-0.286690	-0.896285
H152	H	1.380108	0.213310	-0.396285
H153	H	0.718703	-0.948837	-0.488743
H154	H	1.218703	-0.448837	0.011257
H155	H	0.938664	-0.329568	-0.699661
H156	H	1.438664	0.170432	-0.199661
N157	N	0.608965	-0.554560	-0.451829
N158	N	1.108965	-0.054560	0.048171
H159	H	0.656433	-0.545804	-0.444696
H160	H	1.156433	-0.045804	0.055304
H161	H	0.589736	-0.618975	-0.449740
H162	H	1.089736	-0.118975	0.050260
H163	H	0.295694	-0.421238	-0.250386
H164	H	0.795694	0.078762	0.249614
H165	H	0.768048	-0.538770	-1.128323
H166	H	1.268048	-0.038770	-0.628323
N167	N	1.000095	-0.906519	-0.207802
N168	N	1.500095	-0.406519	0.292198
H169	H	1.020202	-0.950641	-0.187756
H170	H	1.520202	-0.450641	0.312244
H171	H	1.033771	-0.867367	-0.228643
H172	H	1.533771	-0.367367	0.271357
H173	H	0.414396	-0.421264	-0.250345
H174	H	0.914396	0.078736	0.249655
N175	N	0.729749	-1.102585	-0.477783
N176	N	1.229749	-0.602585	0.022217
H177	H	0.750515	-1.141621	-0.511542
H178	H	1.250515	-0.641621	-0.011542
H179	H	0.696041	-1.141688	-0.456943
H180	H	1.196041	-0.641688	0.043057
H181	H	0.292746	-0.447486	-0.458346
H182	H	0.792746	0.052514	0.041654
N183	N	0.755604	-0.554075	-1.002790
N184	N	1.255604	-0.054075	-0.502790
H185	H	0.725812	-0.590615	-1.037815
H186	H	1.225812	-0.090615	-0.537815
H187	H	0.776059	-0.595840	-0.980668
H188	H	1.276059	-0.095840	-0.480668
H189	H	0.483445	-0.539257	-0.439461
H190	H	0.983445	-0.039257	0.060539
H191	H	0.198525	-0.539180	-0.439553
H192	H	0.698525	-0.039180	0.060447
N193	N	0.069336	-0.554412	-0.451997
N194	N	0.569336	-0.054412	0.048003
H195	H	0.082455	-0.540512	-0.495109
H196	H	0.582455	-0.040512	0.004891
H197	H	0.072945	-0.618831	-0.449854
H198	H	0.572945	-0.118831	0.050146
H199	H	0.104993	-0.329452	-0.269279
H200	H	0.604993	0.170548	0.230721
N201	N	0.822722	-0.603145	-0.942930
N202	N	1.322722	-0.103145	-0.442930
H203	H	0.854079	-0.643522	-0.936415
H204	H	1.354079	-0.143522	-0.436415
H205	H	0.778455	-0.633782	-0.935180
H206	H	1.278455	-0.133782	-0.435180
N207	N	0.951122	-0.314095	-1.110092
N208	N	1.451122	0.185905	-0.610092
H209	H	0.994201	-0.328101	-1.100422
H210	H	1.494201	0.171899	-0.600422
H211	H	0.943936	-0.322844	-1.157545
H212	H	1.443936	0.177156	-0.657545
H213	H	0.768000	-0.539030	-0.606004
H214	H	1.268000	-0.039030	-0.106004
N215	N	0.928498	-0.808665	-0.279218
N216	N	1.428498	-0.308665	0.220782
H217	H	0.962702	-0.785940	-0.245059
H218	H	1.462702	-0.285940	0.254941
H219	H	0.942698	-0.785994	-0.319509
H220	H	1.442698	-0.285994	0.180491
N221	N	0.976592	-1.102373	-0.231334
N222	N	1.476592	-0.602373	0.268666
H223	H	0.962487	-1.169218	-0.245440
H224	H	1.462487	-0.669218	0.254560
H225	H	1.023322	-1.085837	-0.239145
H226	H	1.523322	-0.585837	0.260855
N227	N	0.822719	-0.603216	-0.806926
N228	N	1.322719	-0.103216	-0.306926
H229	H	0.813390	-0.654701	-0.843763
H230	H	1.313390	-0.154701	-0.343763
H231	H	0.859889	-0.611583	-0.780815
H232	H	1.359889	-0.111583	-0.280815
N233	N	0.801343	-1.200449	-0.406363
N234	N	1.301343	-0.700449	0.093637
H235	H	0.830105	-1.223116	-0.377663
H236	H	1.330105	-0.723116	0.122337
H237	H	0.755624	-1.223152	-0.397540
H238	H	1.255624	-0.723152	0.102460
H239	H	0.768020	-0.538973	-0.724710
H240	H	1.268020	-0.038973	-0.224710
N241	N	0.234186	-0.314210	-0.256837
N242	N	0.734186	0.185790	0.243163
H243	H	0.207927	-0.277592	-0.227113
H244	H	0.707927	0.222408	0.272887
H245	H	0.256877	-0.350873	-0.232188
H246	H	0.756877	0.149127	0.267812
N247	N	0.730089	-0.765444	-0.477274
N248	N	1.230089	-0.265444	0.022726
H249	H	0.744190	-0.698598	-0.463167
H250	H	1.244190	-0.198598	0.036833
H251	H	0.737847	-0.781868	-0.524009
H252	H	1.237847	-0.281868	-0.024009
H253	H	0.627326	-0.329591	-0.269110
H254	H	1.127326	0.170409	0.230890
N255	N	0.951087	-0.314389	-0.570487
N256	N	1.451087	0.185611	-0.070487
H257	H	0.980881	-0.277816	-0.596770
H258	H	1.480881	0.222184	-0.096770
H259	H	0.930615	-0.272652	-0.538307
H260	H	1.430615	0.227348	-0.038307
H261	H	0.938691	-0.329428	-0.984574
H262	H	1.438691	0.170572	-0.484574
N263	N	0.419893	-0.449443	-0.473451
N264	N	0.919893	0.050557	0.026549
H265	H	0.388727	-0.454016	-0.509769
H266	H	0.888727	0.045984	-0.009769
H267	H	0.453688	-0.394489	-0.472726
H268	H	0.953688	0.105511	0.027274
N269	N	0.884000	-0.265271	-0.766347
N270	N	1.384000	0.234729	-0.266347
H271	H	0.893341	-0.213755	-0.790814
H272	H	1.393341	0.286245	-0.290814
H273	H	0.846832	-0.256917	-0.738166
H274	H	1.346832	0.243083	-0.238166
