data_functionalizedCrystal
_audit_creation_method	'MofGen! by Chris Wilmer'
_symmetry_space_group_name_H-M	'P1'
_symmetry_Int_Tables_number	1
_symmetry_cell_setting	triclinic
loop_
_symmetry_equiv_pos_as_xyz
  x,y,z
_cell_length_a	11.792241
_cell_length_b	11.792241
_cell_length_c	10.868271
_cell_angle_alpha	89.999942
_cell_angle_beta	89.998922
_cell_angle_gamma	95.806584
loop_
_atom_site_label
_atom_site_type_symbol
_atom_site_fract_x
_atom_site_fract_y
_atom_site_fract_z
O1	O	0.155561	-1.506910	-0.102185
O2	O	0.488895	-1.173577	0.231148
O3	O	0.822228	-0.840243	0.564482
O4	O	0.171594	-1.176569	-0.102218
O5	O	0.504928	-0.843235	0.231116
O6	O	0.838261	-0.509902	0.564449
O7	O	-0.001593	-1.349756	-0.102192
O8	O	0.331741	-1.016422	0.231142
O9	O	0.665074	-0.683089	0.564475
O10	O	0.328748	-1.333723	-0.102211
O11	O	0.662082	-1.000390	0.231123
O12	O	0.995415	-0.667056	0.564456
O13	O	-0.001585	-1.349738	0.102453
O14	O	0.331748	-1.016405	0.435786
O15	O	0.665081	-0.683072	0.769120
O16	O	0.171602	-1.176551	0.102427
O17	O	0.504935	-0.843218	0.435760
O18	O	0.838268	-0.509885	0.769094
O19	O	0.155569	-1.506893	0.102460
O20	O	0.488902	-1.173559	0.435793
O21	O	0.822235	-0.840226	0.769126
Zn22	Zn	0.163586	-1.341719	0.134935
Zn23	Zn	0.496920	-1.008386	0.468269
Zn24	Zn	0.830253	-0.675053	0.801602
Zn25	Zn	0.163577	-1.341742	-0.134693
Zn26	Zn	0.496910	-1.008409	0.198640
Zn27	Zn	0.830243	-0.675075	0.531974
O28	O	0.328756	-1.333706	0.102434
O29	O	0.662089	-1.000372	0.435767
O30	O	0.995422	-0.667039	0.769101
C31	C	0.170591	-1.134269	0.000101
C32	C	0.503924	-0.800936	0.333434
C33	C	0.837258	-0.467603	0.666767
C34	C	0.167576	-1.008255	0.000088
C35	C	0.500910	-0.674922	0.333422
C36	C	0.834243	-0.341589	0.666755
C37	C	0.162034	-0.777543	0.000121
C38	C	0.495367	-0.444210	0.333454
C39	C	0.828700	-0.110877	0.666788
C40	C	0.165113	-0.905928	0.000103
C41	C	0.498447	-0.572595	0.333436
C42	C	0.831780	-0.239262	0.666770
C43	C	-0.043880	-1.348740	0.000130
C44	C	0.289453	-1.015407	0.333463
C45	C	0.622787	-0.682073	0.666797
C46	C	-0.169894	-1.345726	0.000129
C47	C	0.163440	-1.012392	0.333462
C48	C	0.496773	-0.679059	0.666795
C49	C	-0.400606	-1.340183	0.000107
C50	C	-0.067272	-1.006849	0.333441
C51	C	0.266061	-0.673516	0.666774
C52	C	-0.272221	-1.343262	0.000119
C53	C	0.061113	-1.009929	0.333452
C54	C	0.394446	-0.676596	0.666786
C55	C	0.371043	-1.334721	0.000109
C56	C	0.704376	-1.001388	0.333443
C57	C	1.037710	-0.668055	0.666776
C58	C	0.497057	-1.337736	0.000103
C59	C	0.830390	-1.004402	0.333436
C60	C	1.163723	-0.671069	0.666770
N61	N	0.163592	-1.341712	0.318949
N62	N	0.496926	-1.008379	0.652283
N63	N	0.830259	-0.675045	0.985616
C64	C	0.156572	-0.549192	0.000136
C65	C	0.489906	-0.215859	0.333469
C66	C	0.823239	0.117475	0.666803
C67	C	0.159587	-0.675206	0.000131
C68	C	0.492920	-0.341873	0.333464
C69	C	0.826253	-0.008539	0.666798
C70	C	0.163594	-1.341720	0.430287
C71	C	0.496927	-1.008387	0.763620
C72	C	0.830260	-0.675053	1.096954
C73	C	0.163584	-1.341734	0.569964
C74	C	0.496918	-1.008400	0.903298
C75	C	0.830251	-0.675067	1.236631
N76	N	0.163570	-1.341751	0.681293
N77	N	0.496904	-1.008417	1.014626
N78	N	0.830237	-0.675084	1.347960
