data_functionalizedCrystal
_audit_creation_method	'MofGen! by Chris Wilmer'
_symmetry_space_group_name_H-M	'P1'
_symmetry_Int_Tables_number	1
_symmetry_cell_setting	triclinic
loop_
_symmetry_equiv_pos_as_xyz
  x,y,z
_cell_length_a	6.817900
_cell_length_b	9.514072
_cell_length_c	10.992743
_cell_angle_alpha	88.546724
_cell_angle_beta	108.770538
_cell_angle_gamma	118.843421
loop_
_atom_site_label
_atom_site_type_symbol
_atom_site_fract_x
_atom_site_fract_y
_atom_site_fract_z
V1	V	-4.172205	-0.222155	-0.401595
O2	O	-4.069626	0.010726	-0.392915
O3	O	-4.206711	-0.440545	-0.399845
O4	O	-4.148920	-0.218716	-0.576290
O5	O	-4.127817	-0.212639	-0.215248
V6	V	-4.641835	-0.194302	-0.379186
O7	O	-4.463937	-0.283252	-0.450753
O8	O	-4.800300	-0.133205	-0.330028
O9	O	-4.384122	0.024087	-0.380936
O10	O	-4.861811	-0.427183	-0.387866
O11	O	-4.803620	-0.203819	-0.565533
O12	O	-4.441913	-0.197742	-0.204491
C13	C	-4.071068	-0.493784	-0.393767
C14	C	-4.180736	-0.672320	-0.393500
C15	C	-3.997348	-0.210817	-0.618839
C16	C	-4.060143	-0.209450	-0.761660
C17	C	-4.374762	-0.217815	-0.972791
C18	C	-4.309188	-0.218620	-0.824162
C19	C	-3.868260	-0.050056	-0.791712
C20	C	-3.934938	-0.048581	-0.940348
C21	C	-4.137210	-0.355202	-0.980008
C22	C	-4.077481	-0.358829	-0.831810
C23	C	-4.183110	0.077318	-0.387011
C24	C	-4.052682	0.255853	-0.387286
C25	C	-4.256828	-0.205646	-0.161935
C26	C	-4.173268	-0.207005	-0.019114
H27	H	-3.859114	-0.669043	-0.382107
H28	H	-4.455274	-0.333182	-0.805083
O29	O	-3.623366	-0.033472	-0.736187
H30	H	-3.499210	0.080466	-0.665290
O31	O	-4.437150	-0.771791	-0.400347
H32	H	-4.485987	-0.901129	-0.399122
H33	H	-4.553263	-0.331762	-1.025944
H34	H	-4.307199	-0.112122	-0.777433
O35	O	-3.939096	-0.346701	-1.019004
H36	H	-3.914720	-0.451716	-0.991067
H37	H	-3.852205	0.060907	-0.742417
O38	O	-3.846677	-0.362278	-0.776548
H39	H	-3.773578	-0.355334	-0.854712
H40	H	-4.304408	-0.474724	-1.035139
H41	H	-4.404983	-0.111373	-0.999039
O42	O	-4.266606	-0.514911	-0.808451
H43	H	-4.347925	-0.486235	-0.747131
H44	H	-3.951946	0.063498	-0.962929
H45	H	-3.780959	-0.034129	-0.969562
