data_functionalizedCrystal
_audit_creation_method	'MofGen! by Chris Wilmer'
_symmetry_space_group_name_H-M	'P1'
_symmetry_Int_Tables_number	1
_symmetry_cell_setting	triclinic
loop_
_symmetry_equiv_pos_as_xyz
  x,y,z
_cell_length_a	15.944551
_cell_length_b	15.944545
_cell_length_c	12.996460
_cell_angle_alpha	89.991753
_cell_angle_beta	89.998907
_cell_angle_gamma	83.497456
loop_
_atom_site_label
_atom_site_type_symbol
_atom_site_fract_x
_atom_site_fract_y
_atom_site_fract_z
O1	O	1.114523	0.108334	-0.085464
O2	O	1.614523	0.608334	0.414536
O3	O	0.869973	0.121690	-0.085491
O4	O	1.369973	0.621690	0.414509
O5	O	0.998929	-0.007263	-0.085465
O6	O	1.498929	0.492737	0.414535
O7	O	0.985567	0.237287	-0.085491
O8	O	1.485567	0.737287	0.414509
O9	O	0.998915	-0.007270	0.085669
O10	O	1.498915	0.492730	0.585669
O11	O	0.869959	0.121683	0.085643
O12	O	1.369959	0.621683	0.585643
O13	O	1.114509	0.108327	0.085669
O14	O	1.614509	0.608327	0.585669
Cu15	Cu	0.992233	0.115004	0.101282
Cu16	Cu	1.492233	0.615004	0.601282
Cu17	Cu	0.992249	0.115013	-0.101103
Cu18	Cu	1.492249	0.615013	0.398897
O19	O	0.985554	0.237280	0.085643
O20	O	1.485554	0.737280	0.585643
C21	C	0.838672	0.121132	0.000073
C22	C	1.338672	0.621132	0.500073
C23	C	0.745426	0.119470	0.000064
C24	C	1.245426	0.619470	0.500064
C25	C	0.998368	-0.038561	0.000103
C26	C	1.498368	0.461439	0.500103
C27	C	0.996708	-0.131807	0.000106
C28	C	1.496708	0.368193	0.500106
C29	C	0.530571	0.035565	0.000092
C30	C	1.030571	0.535565	0.500092
C31	C	0.469557	0.074531	-0.084290
C32	C	0.969557	0.574531	0.415710
C33	C	0.574700	0.116463	0.000076
C34	C	1.074700	0.616463	0.500076
C35	C	0.469566	0.074543	0.084435
C36	C	0.969566	0.574543	0.584435
C37	C	0.409788	0.113552	0.000093
C38	C	0.909788	0.613552	0.500093
C39	C	0.514914	0.155451	-0.084376
C40	C	1.014914	0.655451	0.415624
C41	C	0.514930	0.155452	0.084425
C42	C	1.014930	0.655452	0.584425
C43	C	0.453933	0.194476	0.000022
C44	C	0.953933	0.694476	0.500022
C45	C	0.669703	0.118137	0.000066
C46	C	1.169703	0.618137	0.500066
C47	C	0.314787	0.111884	0.000096
C48	C	0.814787	0.611884	0.500096
C49	C	0.911814	-0.402440	0.000076
C50	C	1.411814	0.097560	0.500076
C51	C	0.952750	-0.351851	-0.084298
C52	C	1.452750	0.148149	0.415702
C53	C	0.990787	-0.467451	0.000076
C54	C	1.490787	0.032549	0.500076
C55	C	0.952758	-0.351885	0.084427
C56	C	1.452758	0.148115	0.584427
C57	C	0.993692	-0.302537	0.000092
C58	C	1.493692	0.197463	0.500092
C59	C	1.031702	-0.418090	-0.084368
C60	C	1.531702	0.081910	0.415632
C61	C	1.031698	-0.418128	0.084433
C62	C	1.531698	0.081872	0.584433
C63	C	1.072692	-0.367571	0.000038
C64	C	1.572692	0.132429	0.500038
C65	C	0.989112	-0.562453	0.000066
C66	C	1.489112	-0.062453	0.500066
C67	C	0.995374	-0.207538	0.000095
C68	C	1.495374	0.292462	0.500095
C69	C	1.145810	0.108885	0.000103
C70	C	1.645810	0.608885	0.500103
C71	C	1.239056	0.110547	0.000106
C72	C	1.739056	0.610547	0.500106
C73	C	0.986114	0.268578	0.000073
C74	C	1.486114	0.768578	0.500073
C75	C	0.987774	0.361824	0.000064
C76	C	1.487774	0.861824	0.500064
N77	N	0.992228	0.114998	0.243629
N78	N	1.492228	0.614998	0.743629
N79	N	0.992261	0.115013	-0.243450
N80	N	1.492261	0.615013	0.256550
C81	C	0.992248	0.115014	0.663444
C82	C	1.492248	0.615014	1.163444
C83	C	0.992240	0.115012	0.546638
C84	C	1.492240	0.615012	1.046638
C85	C	0.992238	0.115006	0.453540
C86	C	1.492238	0.615006	0.953540
C87	C	0.992230	0.115004	0.336728
C88	C	1.492230	0.615004	0.836728
H89	H	0.563906	-0.031573	-0.000005
H90	H	1.063906	0.468427	0.499995
H91	H	1.065035	-0.446893	-0.155778
H92	H	1.565035	0.053107	0.344222
H93	H	1.140757	-0.352081	-0.000002
H94	H	1.640757	0.147919	0.499998
C95	C	1.076705	-0.457249	0.180814
C96	C	1.576705	0.042751	0.680814
N97	N	1.110596	-0.486717	0.253417
N98	N	1.610596	0.013283	0.753417
C99	C	0.541921	0.201638	-0.180863
C100	C	1.041921	0.701638	0.319137
N101	N	0.562266	0.236421	-0.253537
N102	N	1.062266	0.736421	0.246463
C103	C	0.442391	0.028309	-0.180652
C104	C	0.942391	0.528309	0.319348
N105	N	0.421931	-0.006510	-0.253227
N106	N	0.921931	0.493490	0.246773
C107	C	0.409127	0.285268	-0.000053
C108	C	0.909127	0.785268	0.499947
N109	N	0.375377	0.353650	-0.000114
N110	N	0.875377	0.853650	0.499886
C111	C	0.442426	0.028296	0.180808
C112	C	0.942426	0.528296	0.680808
N113	N	0.421987	-0.006543	0.253393
N114	N	0.921987	0.493457	0.753393
H115	H	0.919386	-0.322974	0.155756
H116	H	1.419386	0.177026	0.655756
C117	C	0.542126	0.201630	0.180796
C118	C	1.042126	0.701630	0.680796
N119	N	0.562615	0.236405	0.253392
N120	N	1.062615	0.736405	0.753392
H121	H	0.843802	-0.418092	-0.000014
H122	H	1.343802	0.081908	0.499986
C123	C	0.907700	-0.312754	-0.180673
C124	C	1.407700	0.187246	0.319327
N125	N	0.873764	-0.283309	-0.253259
N126	N	1.373764	0.216691	0.246741
