data_functionalizedCrystal
_audit_creation_method	'MofGen! by Chris Wilmer'
_symmetry_space_group_name_H-M	'P1'
_symmetry_Int_Tables_number	1
_symmetry_cell_setting	triclinic
loop_
_symmetry_equiv_pos_as_xyz
  x,y,z
_cell_length_a	8.597366
_cell_length_b	23.532357
_cell_length_c	7.681481
_cell_angle_alpha	84.289729
_cell_angle_beta	103.474720
_cell_angle_gamma	84.090018
loop_
_atom_site_label
_atom_site_type_symbol
_atom_site_fract_x
_atom_site_fract_y
_atom_site_fract_z
O1	O	2.098551	0.078756	0.171931
O2	O	1.634343	0.087831	0.101497
O3	O	1.880491	0.000386	0.138881
O4	O	1.852404	0.166200	0.134547
O5	O	1.910788	-0.010401	0.436340
O6	O	1.664640	0.077044	0.398956
O7	O	2.128848	0.067968	0.469390
Zn8	Zn	1.901555	0.070793	0.481401
Zn9	Zn	1.861637	0.085006	0.089486
O10	O	1.882701	0.155413	0.432006
C11	C	1.590114	0.082064	0.241217
C12	C	1.413189	0.080945	0.214374
C13	C	1.894938	-0.026225	0.287509
C14	C	1.892828	-0.089449	0.287206
C15	C	1.863046	-0.475603	0.122953
C16	C	1.861038	-0.535006	0.122638
O17	O	1.845900	-0.560724	-0.015426
N18	N	1.876557	-0.570599	0.284630
C19	C	1.894070	-0.546786	0.446944
O20	O	1.907084	-0.582515	0.584702
C21	C	1.896066	-0.487383	0.447255
C22	C	1.880562	-0.451794	0.285255
C23	C	1.847541	-0.440013	-0.039034
C24	C	1.849553	-0.380615	-0.038718
C25	C	1.867069	-0.356805	0.123584
C26	C	1.882573	-0.392395	0.285571
C27	C	1.913567	-0.463571	0.609566
C28	C	1.915561	-0.404163	0.609863
C29	C	1.900057	-0.368574	0.447864
C30	C	1.902101	-0.309187	0.448190
N31	N	1.886581	-0.273593	0.286198
C32	C	1.869065	-0.297403	0.123895
C33	C	1.889872	-0.671535	0.446278
C34	C	1.887887	-0.730937	0.445970
C35	C	1.854852	-0.719153	0.121663
C36	C	1.856849	-0.659750	0.121974
C37	C	1.874353	-0.635942	0.284286
C38	C	1.873292	-0.172661	0.124571
C39	C	1.875312	-0.113258	0.124903
C40	C	1.908338	-0.125047	0.449208
C41	C	1.906327	-0.184446	0.448879
C42	C	1.888797	-0.208251	0.286545
O43	O	1.917226	-0.283428	0.586183
O44	O	1.856032	-0.261666	-0.013842
C45	C	2.173077	0.073735	0.329665
C46	C	2.350001	0.074856	0.356496
C47	C	1.868254	0.182025	0.283373
C48	C	1.870362	0.245249	0.283665
N49	N	1.928809	0.061093	0.748874
N50	N	1.834395	0.094702	-0.177986
H51	H	1.331934	0.085297	0.072151
H52	H	1.431266	0.070499	0.498729
Cl53	Cl	1.855823	-0.068520	-0.078769
Cl54	Cl	1.685591	0.147667	0.683318
H55	H	1.926195	-0.492539	0.741485
Cl56	Cl	1.851258	-0.202578	-0.079507
H57	H	1.836922	-0.351642	-0.170637
H58	H	2.025204	0.026791	0.838720
Cl59	Cl	1.837352	-0.615014	-0.081691
H60	H	1.900537	-0.759911	0.577891
H61	H	1.833271	-0.459391	-0.171209
H62	H	1.904132	-0.652155	0.578461
Cl63	Cl	1.937569	-0.374237	0.813927
Cl64	Cl	1.832818	-0.749095	-0.082379
H65	H	1.918966	-0.213425	0.580795
H66	H	1.922606	-0.105651	0.581352
