data_functionalizedCrystal
_audit_creation_method	'MofGen! by Chris Wilmer'
_symmetry_space_group_name_H-M	'P1'
_symmetry_Int_Tables_number	1
_symmetry_cell_setting	triclinic
loop_
_symmetry_equiv_pos_as_xyz
  x,y,z
_cell_length_a	12.759401
_cell_length_b	12.827892
_cell_length_c	12.759393
_cell_angle_alpha	89.970028
_cell_angle_beta	89.979062
_cell_angle_gamma	90.016917
loop_
_atom_site_label
_atom_site_type_symbol
_atom_site_fract_x
_atom_site_fract_y
_atom_site_fract_z
Zn1	Zn	1.606261	-0.415940	-0.594024
Zn2	Zn	1.939595	-0.082607	-0.260691
Zn3	Zn	2.272928	0.250727	0.072643
Zn4	Zn	1.606150	-0.590717	-0.418346
Zn5	Zn	1.939484	-0.257384	-0.085012
Zn6	Zn	2.272817	0.075949	0.248321
Zn7	Zn	1.430560	-0.415996	-0.418359
Zn8	Zn	1.763893	-0.082662	-0.085026
Zn9	Zn	2.097227	0.250671	0.248308
Zn10	Zn	1.430550	-0.590644	-0.593983
Zn11	Zn	1.763883	-0.257311	-0.260650
Zn12	Zn	2.097216	0.076022	0.072684
O13	O	1.518380	-0.503324	-0.506178
O14	O	1.851714	-0.169991	-0.172845
O15	O	2.185047	0.163342	0.160489
O16	O	1.753268	-0.439132	-0.570731
O17	O	2.086601	-0.105798	-0.237398
O18	O	2.419934	0.227535	0.095935
O19	O	1.582816	-0.567594	-0.271326
O20	O	1.916149	-0.234261	0.062007
O21	O	2.249482	0.099073	0.395340
O22	O	1.453918	-0.269752	-0.441684
O23	O	1.787251	0.063581	-0.108351
O24	O	2.120585	0.396915	0.224982
O25	O	1.753186	-0.567540	-0.441661
O26	O	2.086519	-0.234207	-0.108328
O27	O	2.419853	0.099127	0.225005
O28	O	1.583005	-0.269711	-0.570744
O29	O	1.916338	0.063622	-0.237411
O30	O	2.249672	0.396955	0.095922
O31	O	1.453810	-0.439227	-0.271336
O32	O	1.787144	-0.105893	0.061997
O33	O	2.120477	0.227440	0.395330
O34	O	1.283538	-0.439156	-0.441644
O35	O	1.616871	-0.105822	-0.108311
O36	O	1.950204	0.227511	0.225022
O37	O	1.453900	-0.567416	-0.741009
O38	O	1.787234	-0.234082	-0.407676
O39	O	2.120567	0.099251	-0.074343
O40	O	1.283530	-0.567469	-0.570674
O41	O	1.616863	-0.234136	-0.237341
O42	O	1.950197	0.099197	0.095992
O43	O	1.582995	-0.439061	-0.741040
O44	O	1.916328	-0.105728	-0.407706
O45	O	2.249662	0.227606	-0.074373
O46	O	1.582806	-0.736944	-0.441622
O47	O	1.916139	-0.403610	-0.108288
O48	O	2.249472	-0.070277	0.225045
O49	O	1.453793	-0.736890	-0.570661
O50	O	1.787126	-0.403557	-0.237328
O51	O	2.120460	-0.070223	0.096005
C52	C	1.245413	-0.503312	-0.506157
C53	C	1.578746	-0.169978	-0.172824
C54	C	1.912080	0.163355	0.160510
C55	C	1.128636	-0.503331	-0.506173
C56	C	1.461970	-0.169998	-0.172840
C57	C	1.795303	0.163335	0.160494
C58	C	1.073798	-0.570246	-0.573253
C59	C	1.407131	-0.236912	-0.239920
C60	C	1.740465	0.096421	0.093413
C61	C	0.964074	-0.570250	-0.573274
C62	C	1.297407	-0.236916	-0.239941
C63	C	1.630741	0.096417	0.093393
C64	C	0.964036	-0.436422	-0.439125
C65	C	1.297370	-0.103088	-0.105792
C66	C	1.630703	0.230245	0.227541
C67	C	1.073758	-0.436413	-0.439111
C68	C	1.407092	-0.103080	-0.105777
C69	C	1.740425	0.230253	0.227556
C70	C	1.518315	-0.774834	-0.506158
C71	C	1.851648	-0.441501	-0.172825
C72	C	2.184981	-0.108168	0.160508
C73	C	1.518383	-0.890987	-0.506185
C74	C	1.851716	-0.557654	-0.172852
C75	C	2.185049	-0.224321	0.160481
C76	C	1.582231	-0.942668	-0.570106
C77	C	1.915564	-0.609335	-0.236772
C78	C	2.248897	-0.276002	0.096561
C79	C	1.582302	-1.062719	-0.570135
C80	C	1.915636	-0.729385	-0.236802
C81	C	2.248969	-0.396052	0.096532
C82	C	1.792414	-0.503338	-0.506199
C83	C	2.125747	-0.170005	-0.172866
C84	C	2.459080	0.163329	0.160467
C85	C	1.909190	-0.503344	-0.506209
C86	C	2.242524	-0.170010	-0.172875
C87	C	2.575857	0.163323	0.160458
C88	C	1.518459	-0.503224	-0.780211
C89	C	1.851792	-0.169891	-0.446878
C90	C	2.185126	0.163443	-0.113545
C91	C	1.518492	-0.503181	-0.896988
C92	C	1.851826	-0.169848	-0.563655
C93	C	2.185159	0.163485	-0.230321
C94	C	1.518475	-0.230754	-0.506220
C95	C	1.851808	0.102579	-0.172887
C96	C	2.185142	0.435913	0.160446
C97	C	1.518515	-0.114601	-0.506239
C98	C	1.851849	0.218732	-0.172905
C99	C	2.185182	0.552066	0.160428
C100	C	1.585717	-0.436336	-0.951867
C101	C	1.919050	-0.103003	-0.618534
C102	C	2.252384	0.230330	-0.285201
C103	C	1.585735	-0.436291	-1.061592
C104	C	1.919068	-0.102958	-0.728258
C105	C	2.252401	0.230375	-0.394925
C106	C	1.451301	-0.569945	-1.061547
C107	C	1.784634	-0.236612	-0.728214
C108	C	2.117967	0.096722	-0.394881
C109	C	1.451278	-0.569984	-0.951825
C110	C	1.784612	-0.236651	-0.618492
C111	C	2.117945	0.096683	-0.285159
C112	C	1.518363	-0.503349	-0.233211
C113	C	1.851696	-0.170015	0.100123
C114	C	2.185029	0.163318	0.433456
C115	C	1.518533	-0.503097	-0.116434
C116	C	1.851866	-0.169764	0.216899
C117	C	2.185199	0.163569	0.550232
H118	H	1.118409	-0.381917	-0.384486
H119	H	1.451742	-0.048583	-0.051153
H120	H	1.785076	0.284750	0.282181
H121	H	1.636837	-0.898040	-0.624814
H122	H	1.970170	-0.564707	-0.291480
H123	H	2.303504	-0.231374	0.041853
F124	F	1.653758	-1.120808	-0.641662
F125	F	1.987092	-0.787474	-0.308328
F126	F	2.320425	-0.454141	0.025005
H127	H	1.640444	-0.381938	-0.907222
H128	H	1.973778	-0.048605	-0.573889
H129	H	2.307111	0.284728	-0.240556
H130	H	1.463853	-1.070164	-0.451507
H131	H	1.797187	-0.736830	-0.118173
H132	H	2.130520	-0.403497	0.215160
H133	H	1.463768	-0.935618	-0.451487
H134	H	1.797102	-0.602285	-0.118154
H135	H	2.130435	-0.268951	0.215179
F136	F	1.132200	-0.641463	-0.644630
F137	F	1.465533	-0.308130	-0.311296
F138	F	1.798866	0.025204	0.022037
H139	H	1.640474	-0.381858	-1.106270
H140	H	1.973807	-0.048524	-0.772936
H141	H	2.307141	0.284809	-0.439603
F142	F	1.379720	-0.641128	-0.893415
F143	F	1.713053	-0.307795	-0.560082
F144	F	2.046387	0.025538	-0.226748
F145	F	0.905716	-0.641468	-0.644672
F146	F	1.239049	-0.308134	-0.311339
F147	F	1.572382	0.025199	0.021995
F148	F	0.905622	-0.365208	-0.367756
F149	F	1.238955	-0.031875	-0.034422
F150	F	1.572289	0.301458	0.298911
H151	H	1.396580	-0.624336	-1.106209
H152	H	1.729913	-0.291002	-0.772876
H153	H	2.063246	0.042331	-0.439542
