data_functionalizedCrystal
_audit_creation_method	'MofGen! by Chris Wilmer'
_symmetry_space_group_name_H-M	'P1'
_symmetry_Int_Tables_number	1
_symmetry_cell_setting	triclinic
loop_
_symmetry_equiv_pos_as_xyz
  x,y,z
_cell_length_a	16.109318
_cell_length_b	16.109301
_cell_length_c	14.048226
_cell_angle_alpha	89.992144
_cell_angle_beta	89.997121
_cell_angle_gamma	83.465022
loop_
_atom_site_label
_atom_site_type_symbol
_atom_site_fract_x
_atom_site_fract_y
_atom_site_fract_z
O1	O	1.103125	0.106938	-0.079084
O2	O	1.603125	0.606938	0.420916
O3	O	0.861065	0.120222	-0.079104
O4	O	1.361065	0.620222	0.420896
O5	O	0.988745	-0.007451	-0.079084
O6	O	1.488745	0.492549	0.420916
O7	O	0.975445	0.234610	-0.079105
O8	O	1.475445	0.734610	0.420895
O9	O	0.988729	-0.007458	0.079237
O10	O	1.488729	0.492542	0.579237
O11	O	0.861050	0.120214	0.079217
O12	O	1.361050	0.620214	0.579217
O13	O	1.103110	0.106930	0.079237
O14	O	1.603110	0.606930	0.579237
Zn15	Zn	0.982077	0.113571	0.104364
Zn16	Zn	1.482077	0.613571	0.604364
Zn17	Zn	0.982097	0.113581	-0.104231
Zn18	Zn	1.482097	0.613581	0.395769
O19	O	0.975430	0.234603	0.079217
O20	O	1.475430	0.734603	0.579217
C21	C	0.830083	0.119677	0.000054
C22	C	1.330083	0.619677	0.500054
C23	C	0.737788	0.118057	0.000047
C24	C	1.237788	0.618057	0.500047
C25	C	0.988198	-0.038430	0.000077
C26	C	1.488198	0.461570	0.500077
C27	C	0.986583	-0.130725	0.000078
C28	C	1.486583	0.369275	0.500078
C29	C	0.438723	0.112826	-0.086237
C30	C	0.938723	0.612826	0.413763
C31	C	0.525444	0.114343	-0.086243
C32	C	1.025444	0.614343	0.413757
C33	C	0.525446	0.114324	0.086368
C34	C	1.025446	0.614324	0.586368
C35	C	0.438727	0.112800	0.086373
C36	C	0.938727	0.612800	0.586373
C37	C	0.395367	0.112056	0.000068
C38	C	0.895367	0.612056	0.500068
C39	C	0.568807	0.115096	0.000057
C40	C	1.068807	0.615096	0.500057
C41	C	0.662835	0.116742	0.000051
C42	C	1.162835	0.616742	0.500051
C43	C	0.301334	0.110409	0.000073
C44	C	0.801334	0.610409	0.500073
C45	C	1.058590	-0.352993	0.000069
C46	C	1.558590	0.147007	0.500069
C47	C	1.057066	-0.439713	0.000061
C48	C	1.557066	0.060287	0.500061
C49	C	0.905579	-0.419848	0.000053
C50	C	1.405579	0.080152	0.500053
C51	C	0.907104	-0.333130	0.000054
C52	C	1.407104	0.166870	0.500054
C53	C	0.983612	-0.299704	0.000067
C54	C	1.483612	0.200296	0.500067
C55	C	0.980563	-0.473144	0.000058
C56	C	1.480563	0.026856	0.500058
C57	C	0.978910	-0.567170	0.000049
C58	C	1.478910	-0.067170	0.500049
C59	C	0.985265	-0.205672	0.000074
C60	C	1.485265	0.294328	0.500074
C61	C	1.134092	0.107474	0.000077
C62	C	1.634092	0.607474	0.500077
C63	C	1.226387	0.109095	0.000077
C64	C	1.726387	0.609095	0.500077
C65	C	0.975976	0.265581	0.000054
C66	C	1.475976	0.765581	0.500054
C67	C	0.977592	0.357877	0.000046
C68	C	1.477592	0.857877	0.500046
N69	N	0.982070	0.113564	0.246725
N70	N	1.482070	0.613564	0.746725
N71	N	0.982112	0.113582	-0.246592
N72	N	1.482112	0.613582	0.253408
C73	C	1.038624	0.057054	0.296552
C74	C	1.538624	0.557054	0.796552
C75	C	1.038629	0.057053	0.396209
C76	C	1.538629	0.557053	0.896209
C77	C	0.982084	0.113567	0.446038
C78	C	1.482084	0.613567	0.946038
C79	C	0.925524	0.170080	0.396204
C80	C	1.425524	0.670080	0.896204
C81	C	0.925515	0.170076	0.296548
C82	C	1.425515	0.670076	0.796548
C83	C	0.925548	0.170086	0.603918
C84	C	1.425548	0.670086	1.103918
C85	C	0.925558	0.170092	0.703581
C86	C	1.425558	0.670092	1.203581
C87	C	1.038662	0.057063	0.703579
C88	C	1.538662	0.557063	1.203579
C89	C	1.038653	0.057059	0.603923
C90	C	1.538653	0.557059	1.103923
C91	C	0.982094	0.113573	0.554096
C92	C	1.482094	0.613573	1.054096
H93	H	0.403422	0.112218	-0.156512
H94	H	0.903422	0.612218	0.343488
O95	O	1.093656	0.002137	0.444463
O96	O	1.593656	0.502137	0.944463
C97	C	1.143556	-0.047750	0.379113
C98	C	1.643556	0.452250	0.879113
H99	H	1.144465	-0.013665	0.308066
H100	H	1.644465	0.486335	0.808066
H101	H	1.209958	-0.060391	0.407894
H102	H	1.709958	0.439609	0.907894
H103	H	1.116596	-0.109533	0.368537
H104	H	1.616596	0.390467	0.868537
O105	O	1.132835	-0.320384	0.000114
O106	O	1.632835	0.179616	0.500114
C107	C	1.118107	-0.232417	0.000091
C108	C	1.618107	0.267583	0.500091
H109	H	1.053221	-0.212039	0.030066
H110	H	1.553221	0.287961	0.530066
H111	H	1.167059	-0.205809	0.046055
H112	H	1.667059	0.294191	0.546055
H113	H	1.122131	-0.208269	-0.075864
H114	H	1.622131	0.291731	0.424136
O115	O	0.567460	0.115163	0.170262
O116	O	1.067460	0.615163	0.670262
C117	C	0.536847	0.186757	0.222755
C118	C	1.036847	0.686757	0.722755
H119	H	0.470738	0.209644	0.198217
H120	H	0.970738	0.709644	0.698217
H121	H	0.536001	0.170511	0.301708
H122	H	1.036001	0.670511	0.801708
H123	H	0.579046	0.238007	0.210790
H124	H	1.079046	0.738007	0.710790
H125	H	0.879488	0.216103	0.563353
H126	H	1.379488	0.716103	1.063353
O127	O	0.870549	0.225053	0.248291
O128	O	1.370549	0.725053	0.748291
C129	C	0.820629	0.274922	0.313638
C130	C	1.320629	0.774922	0.813638
H131	H	0.854720	0.275879	0.384669
H132	H	1.354720	0.775879	0.884669
H133	H	0.807919	0.341313	0.284830
H134	H	1.307919	0.841313	0.784830
H135	H	0.758881	0.247901	0.324255
H136	H	1.258881	0.747901	0.824255
H137	H	1.118121	-0.483098	0.000061
H138	H	1.618121	0.016902	0.500061
H139	H	0.843288	-0.447074	0.000044
H140	H	1.343288	0.052926	0.500044
H141	H	1.084673	0.011037	0.255987
H142	H	1.584673	0.511037	0.755987
H143	H	0.846043	-0.289740	0.000049
H144	H	1.346043	0.210260	0.500049
H145	H	0.403426	0.112172	0.156657
H146	H	0.903426	0.612172	0.656657
H147	H	0.879512	0.216111	0.744147
H148	H	1.379512	0.716111	1.244147
H149	H	0.560740	0.114969	-0.156521
H150	H	1.060740	0.614969	0.343479
H151	H	1.084701	0.011045	0.563353
H152	H	1.584701	0.511045	1.063353
O153	O	1.093521	0.002192	0.752123
O154	O	1.593521	0.502192	1.252123
C155	C	1.081418	0.014321	0.850767
C156	C	1.581418	0.514321	1.350767
H157	H	1.015311	0.045367	0.864383
H158	H	1.515311	0.545367	1.364383
H159	H	1.090694	-0.048639	0.888650
H160	H	1.590694	0.451361	1.388650
H161	H	1.128460	0.056042	0.879033
H162	H	1.628460	0.556042	1.379033
H163	H	0.879479	0.216093	0.436781
H164	H	1.379479	0.716093	0.936781
