data_functionalizedCrystal
_audit_creation_method	'MofGen! by Chris Wilmer'
_symmetry_space_group_name_H-M	'P1'
_symmetry_Int_Tables_number	1
_symmetry_cell_setting	triclinic
loop_
_symmetry_equiv_pos_as_xyz
  x,y,z
_cell_length_a	17.077404
_cell_length_b	13.031981
_cell_length_c	17.077396
_cell_angle_alpha	82.787914
_cell_angle_beta	89.978556
_cell_angle_gamma	97.189606
loop_
_atom_site_label
_atom_site_type_symbol
_atom_site_fract_x
_atom_site_fract_y
_atom_site_fract_z
Zn1	Zn	1.160409	-0.416159	-0.404155
Zn2	Zn	1.660409	0.083841	0.095845
Zn3	Zn	1.143665	-0.590954	-0.256202
Zn4	Zn	1.643665	-0.090954	0.243798
Zn5	Zn	1.029138	-0.416190	-0.272895
Zn6	Zn	1.529138	0.083810	0.227105
Zn7	Zn	1.012464	-0.590886	-0.387427
Zn8	Zn	1.512464	-0.090886	0.112573
O9	O	1.086419	-0.503547	-0.330170
O10	O	1.586419	-0.003547	0.169830
O11	O	1.268034	-0.439362	-0.384542
O12	O	1.768034	0.060638	0.115458
O13	O	1.128443	-0.567812	-0.148565
O14	O	1.628443	-0.067812	0.351435
O15	O	1.060538	-0.269923	-0.304294
O16	O	1.560538	0.230077	0.195706
O17	O	1.255731	-0.567783	-0.275842
O18	O	1.755731	-0.067783	0.224158
O19	O	1.156982	-0.269900	-0.400729
O20	O	1.656982	0.230100	0.099271
O21	O	1.044301	-0.439414	-0.160830
O22	O	1.544301	0.060586	0.339170
O23	O	0.917081	-0.439348	-0.288074
O24	O	1.417081	0.060652	0.211926
O25	O	1.032119	-0.567667	-0.499497
O26	O	1.532119	-0.067667	0.000503
O27	O	0.904830	-0.567696	-0.372220
O28	O	1.404830	-0.067696	0.127780
O29	O	1.140813	-0.439296	-0.511787
O30	O	1.640813	0.060704	-0.011787
O31	O	1.112275	-0.737208	-0.259622
O32	O	1.612275	-0.237208	0.240378
O33	O	1.015882	-0.737158	-0.356033
O34	O	1.515882	-0.237158	0.143967
C35	C	0.882474	-0.503519	-0.330144
C36	C	1.382474	-0.003519	0.169856
C37	C	0.795223	-0.503532	-0.330149
C38	C	1.295223	-0.003532	0.169851
C39	C	0.425796	-0.436827	-0.386865
C40	C	0.925796	0.063173	0.113135
C41	C	0.507777	-0.436820	-0.386857
C42	C	1.007777	0.063180	0.113143
C43	C	0.542370	-0.503569	-0.330187
C44	C	1.042370	-0.003569	0.169813
C45	C	0.494977	-0.570338	-0.273527
C46	C	0.994977	-0.070338	0.226473
C47	C	0.412997	-0.570350	-0.273539
C48	C	0.912997	-0.070350	0.226461
C49	C	0.665850	-0.570307	-0.273505
C50	C	1.165850	-0.070307	0.226495
C51	C	0.747836	-0.570293	-0.273492
C52	C	1.247836	-0.070293	0.226508
C53	C	0.760630	-0.436776	-0.386822
C54	C	1.260630	0.063224	0.113178
C55	C	0.678650	-0.436788	-0.386834
C56	C	1.178650	0.063212	0.113166
C57	C	0.631263	-0.503556	-0.330173
C58	C	1.131263	-0.003556	0.169827
C59	C	1.060473	-0.775108	-0.304218
C60	C	1.560473	-0.275108	0.195782
C61	C	1.049445	-0.891282	-0.293143
C62	C	1.549445	-0.391282	0.206857
C63	C	1.092216	-0.942982	-0.335966
C64	C	1.592216	-0.442982	0.164034
C65	C	1.080819	-1.063055	-0.324520
C66	C	1.580819	-0.563055	0.175480
C67	C	1.291160	-0.503576	-0.330196
C68	C	1.791160	-0.003576	0.169804
C69	C	1.378409	-0.503589	-0.330207
C70	C	1.878409	-0.003589	0.169793
C71	C	1.086474	-0.503470	-0.534921
C72	C	1.586474	-0.003470	-0.034921
C73	C	1.086497	-0.503437	-0.622174
C74	C	1.586497	-0.003437	-0.122174
C75	C	1.112488	-0.230926	-0.356240
C76	C	1.612488	0.269074	0.143760
C77	C	1.123596	-0.114752	-0.367349
C78	C	1.623596	0.385248	0.132651
C79	C	1.143097	-0.436589	-0.669565
C80	C	1.643097	0.063411	-0.169565
C81	C	1.143110	-0.436554	-0.751549
C82	C	1.643110	0.063446	-0.251549
C83	C	1.086526	-0.503374	-0.786140
C84	C	1.586526	-0.003374	-0.286140
C85	C	1.029920	-0.570225	-0.738743
C86	C	1.529920	-0.070225	-0.238743
C87	C	1.029904	-0.570254	-0.656761
C88	C	1.529904	-0.070254	-0.156761
C89	C	1.029958	-0.570162	-0.909619
C90	C	1.529958	-0.070162	-0.409619
C91	C	1.029974	-0.570135	-0.991606
C92	C	1.529974	-0.070135	-0.491606
C93	C	1.143163	-0.436463	-1.004407
C94	C	1.643163	0.063537	-0.504407
C95	C	1.143147	-0.436491	-0.922425
C96	C	1.643147	0.063509	-0.422425
C97	C	1.086542	-0.503344	-0.875034
C98	C	1.586542	-0.003344	-0.375034
C99	C	1.086417	-0.503549	-0.126222
C100	C	1.586417	-0.003549	0.373778
C101	C	1.086574	-0.503287	-0.038997
C102	C	1.586574	-0.003287	0.461003
H103	H	0.397637	-0.382466	-0.433007
H104	H	0.897637	0.117534	0.066993
H105	H	0.627269	-0.624681	-0.227368
H106	H	1.127269	-0.124681	0.272632
Cl107	Cl	1.214239	-0.352587	-0.626088
Cl108	Cl	1.714239	0.147413	-0.126088
Cl109	Cl	1.193165	-1.045860	-0.437043
Cl110	Cl	1.693165	-0.545860	0.062957
H111	H	0.983808	-0.624678	-0.618177
H112	H	1.483808	-0.124678	-0.118177
Cl113	Cl	0.538466	-0.654257	-0.202288
Cl114	Cl	1.038466	-0.154257	0.297712
H115	H	1.189201	-0.382122	-0.790132
H116	H	1.689201	0.117878	-0.290132
H117	H	0.775999	-0.624650	-0.227349
H118	H	1.275999	-0.124650	0.272651
Cl119	Cl	0.958831	-0.654127	-1.035092
Cl120	Cl	1.458831	-0.154127	-0.535092
H121	H	0.983853	-0.624585	-0.871036
H122	H	1.483853	-0.124585	-0.371036
H123	H	0.983846	-0.624627	-0.766913
H124	H	1.483846	-0.124627	-0.266913
Cl125	Cl	0.979876	-0.960180	-0.223457
Cl126	Cl	1.479876	-0.460180	0.276543
Cl127	Cl	1.214324	-0.352420	-1.063984
Cl128	Cl	1.714324	0.147580	-0.563984
Cl129	Cl	0.567345	-0.352892	-0.458090
Cl130	Cl	1.067345	0.147108	0.041910
H131	H	0.374415	-0.624716	-0.227404
H132	H	0.874415	-0.124716	0.272596
H133	H	0.650487	-0.382430	-0.432977
H134	H	1.150487	0.117570	0.067023
Cl135	Cl	0.820202	-0.352834	-0.458050
Cl136	Cl	1.320202	0.147166	0.041950
H137	H	1.137269	-0.898353	-0.381106
H138	H	1.637269	-0.398353	0.118894
H139	H	1.189227	-0.382087	-0.894264
H140	H	1.689227	0.117913	-0.394264
Cl141	Cl	1.011247	-1.131949	-0.254830
Cl142	Cl	1.511247	-0.631949	0.245170
