data_functionalizedCrystal
_audit_creation_method	'MofGen! by Chris Wilmer'
_symmetry_space_group_name_H-M	'P1'
_symmetry_Int_Tables_number	1
_symmetry_cell_setting	triclinic
loop_
_symmetry_equiv_pos_as_xyz
  x,y,z
_cell_length_a	13.897449
_cell_length_b	21.295417
_cell_length_c	13.897441
_cell_angle_alpha	89.964549
_cell_angle_beta	89.981404
_cell_angle_gamma	90.031786
loop_
_atom_site_label
_atom_site_type_symbol
_atom_site_fract_x
_atom_site_fract_y
_atom_site_fract_z
Zn1	Zn	1.474596	-0.250574	-0.545342
Zn2	Zn	1.474460	-0.355851	-0.384027
Zn3	Zn	1.313292	-0.250602	-0.384060
Zn4	Zn	1.313231	-0.355811	-0.545280
O5	O	1.393895	-0.303209	-0.464677
O6	O	1.609560	-0.264544	-0.523955
O7	O	1.453049	-0.341918	-0.249050
O8	O	1.334771	-0.162509	-0.405495
O9	O	1.609460	-0.341890	-0.405438
O10	O	1.453281	-0.162488	-0.523988
O11	O	1.334639	-0.264592	-0.249074
O12	O	1.178302	-0.264553	-0.405434
O13	O	1.334668	-0.341823	-0.680270
O14	O	1.178258	-0.341850	-0.523881
O15	O	1.453223	-0.264505	-0.680316
O16	O	1.452991	-0.443935	-0.405378
O17	O	1.334536	-0.443906	-0.523849
C18	C	1.143281	-0.303201	-0.464655
C19	C	1.036067	-0.303213	-0.464669
C20	C	0.839771	-0.303215	-0.464694
C21	C	0.949004	-0.303212	-0.464677
C22	C	1.393768	-0.466761	-0.464624
C23	C	1.393803	-0.536729	-0.464633
C24	C	1.455537	-0.569590	-0.403008
C25	C	1.455582	-0.635333	-0.403030
C26	C	1.393876	-0.668212	-0.464667
C27	C	1.332137	-0.635343	-0.526304
C28	C	1.332101	-0.569602	-0.526287
N29	N	1.309494	-0.771478	-0.472013
N30	N	1.309532	-0.833930	-0.472023
C31	C	1.393984	-0.866286	-0.464722
N32	N	1.478398	-0.833832	-0.457392
N33	N	1.478360	-0.771375	-0.457376
C34	C	1.393909	-0.739497	-0.464692
C35	C	1.455772	-0.970433	-0.403117
C36	C	1.455819	-1.036176	-0.403146
C37	C	1.332366	-1.036185	-0.526414
C38	C	1.332328	-0.970443	-0.526391
C39	C	1.394029	-0.937571	-0.464737
C40	C	1.645488	-0.303218	-0.464700
C41	C	1.752702	-0.303222	-0.464710
C42	C	1.393954	-0.303157	-0.716270
C43	C	1.393979	-0.303134	-0.823484
C44	C	1.394048	-0.139019	-0.464752
C45	C	1.394113	-0.069051	-0.464784
C46	C	1.393999	-0.303116	-0.910554
C47	C	1.394026	-0.303088	-1.019787
C48	C	1.393892	-0.303217	-0.214063
C49	C	1.394053	-0.303062	-0.106850
H50	H	1.505856	-0.662093	-0.352848
O51	O	1.515823	-1.068002	-0.343190
C52	C	1.570286	-1.024887	-0.288790
H53	H	1.530749	-0.978051	-0.285403
H54	H	1.643523	-1.017831	-0.324170
C55	C	1.632814	-1.108116	-0.190308
C56	C	1.584250	-1.050593	-0.186142
H57	H	1.641432	-1.123973	-0.126991
H58	H	1.596124	-1.137164	-0.226960
H59	H	1.693839	-1.102228	-0.219796
H60	H	1.523222	-1.056483	-0.156665
H61	H	1.620930	-1.021546	-0.149482
O62	O	1.515574	-0.938466	-0.343136
C63	C	1.460671	-0.900495	-0.280790
H64	H	1.384717	-0.920359	-0.274765
H65	H	1.457297	-0.850658	-0.310597
C66	C	1.601144	-0.875109	-0.187958
C67	C	1.507859	-0.899509	-0.180552
H68	H	1.630253	-0.874498	-0.126128
H69	H	1.638135	-0.900689	-0.229964
H70	H	1.598320	-0.833580	-0.212801
H71	H	1.510686	-0.941040	-0.155721
H72	H	1.470870	-0.873936	-0.138540
H73	H	1.282054	-0.943686	-0.576567
H74	H	1.282128	-1.062955	-0.576604
H75	H	1.505780	-0.542827	-0.352809
O76	O	1.272329	-0.667348	-0.586224
C77	C	1.327233	-0.705301	-0.648596
H78	H	1.400357	-0.715123	-0.614642
H79	H	1.337778	-0.679923	-0.720083
C80	C	1.184373	-0.755707	-0.707730
C81	C	1.274182	-0.767775	-0.666024
H82	H	1.151648	-0.794243	-0.718485
H83	H	1.147382	-0.730136	-0.665711
H84	H	1.193173	-0.734557	-0.767298
H85	H	1.265380	-0.788917	-0.606452
H86	H	1.311170	-0.793351	-0.708033
H87	H	1.281829	-0.542846	-0.576471
