data_functionalizedCrystal
_audit_creation_method	'MofGen! by Chris Wilmer'
_symmetry_space_group_name_H-M	'P1'
_symmetry_Int_Tables_number	1
_symmetry_cell_setting	triclinic
loop_
_symmetry_equiv_pos_as_xyz
  x,y,z
_cell_length_a	9.065218
_cell_length_b	12.837942
_cell_length_c	7.540329
_cell_angle_alpha	89.996889
_cell_angle_beta	89.996962
_cell_angle_gamma	89.922413
loop_
_atom_site_label
_atom_site_type_symbol
_atom_site_fract_x
_atom_site_fract_y
_atom_site_fract_z
O1	O	1.978903	0.152196	-0.147486
O2	O	1.551136	0.164680	-0.147489
O3	O	1.755535	0.007446	-0.147477
O4	O	1.774505	0.309430	-0.147498
O5	O	1.755521	0.007444	0.147488
O6	O	1.551123	0.164678	0.147476
O7	O	1.978890	0.152194	0.147479
Cu8	Cu	1.765005	0.158436	0.174410
Cu9	Cu	1.765021	0.158438	-0.174420
O10	O	1.774491	0.309428	0.147467
C11	C	1.495997	0.163479	-0.000007
C12	C	1.331718	0.159892	-0.000007
C13	C	1.749119	-0.031235	0.000005
C14	C	1.730006	-0.146492	0.000002
C15	C	1.959783	-0.385293	-0.000034
C16	C	1.941831	-0.493587	-0.000037
C17	C	1.676152	-0.471377	-0.000020
C18	C	1.694104	-0.363083	-0.000017
C19	C	1.835924	-0.320045	-0.000021
C20	C	1.853874	-0.211748	-0.000006
C21	C	1.588196	-0.189540	-0.000001
C22	C	1.570245	-0.297835	-0.000004
C23	C	2.034029	0.153395	-0.000007
C24	C	2.198308	0.156983	-0.000018
C25	C	1.780907	0.348110	-0.000019
C26	C	1.800020	0.463366	-0.000027
N27	N	1.765004	0.158434	0.419759
N28	N	1.765032	0.158433	-0.419769
H29	H	2.075258	-0.350251	-0.000020
H30	H	2.042690	-0.546709	-0.000053
C31	C	2.007809	-0.164961	0.000346
C32	C	2.025904	-0.103467	0.152122
C33	C	2.167700	-0.060366	0.152511
H34	H	2.020488	-0.123099	-0.102394
H35	H	2.079049	-0.219307	0.000428
H36	H	1.954685	-0.049129	0.152025
H37	H	2.013255	-0.145305	0.254887
H38	H	2.238939	-0.114712	0.152592
H39	H	2.180365	-0.018509	0.049764
H40	H	2.180000	-0.018646	0.255496
C41	C	1.522309	-0.518316	0.000070
C42	C	1.533108	-0.627121	0.000100
C43	C	1.391418	-0.670395	0.000208
H44	H	1.470538	-0.496116	-0.102756
H45	H	1.470646	-0.496075	0.102979
H46	H	1.584749	-0.649352	-0.102798
H47	H	1.584852	-0.649349	0.102918
H48	H	1.339755	-0.648155	0.103117
H49	H	1.339658	-0.648188	-0.102620
H50	H	1.398726	-0.744223	0.000245
C51	C	1.453760	-0.118649	-0.000358
C52	C	1.456280	-0.055836	-0.152127
C53	C	1.332455	0.009470	-0.152521
H54	H	1.455109	-0.075852	0.102387
H55	H	1.366696	-0.159761	-0.000452
H56	H	1.543321	-0.014728	-0.152017
H57	H	1.454910	-0.098605	-0.254896
H58	H	1.245391	-0.031642	-0.152614
H59	H	1.333814	0.052260	-0.049769
H60	H	1.334141	0.052089	-0.255501
H61	H	1.454779	-0.332891	-0.000008
