data_functionalizedCrystal
_audit_creation_method	'MofGen! by Chris Wilmer'
_symmetry_space_group_name_H-M	'P1'
_symmetry_Int_Tables_number	1
_symmetry_cell_setting	triclinic
loop_
_symmetry_equiv_pos_as_xyz
  x,y,z
_cell_length_a	10.489716
_cell_length_b	13.101039
_cell_length_c	14.044190
_cell_angle_alpha	93.663707
_cell_angle_beta	91.139544
_cell_angle_gamma	93.391327
loop_
_atom_site_label
_atom_site_type_symbol
_atom_site_fract_x
_atom_site_fract_y
_atom_site_fract_z
O1	O	-1.714066	-0.085219	0.128536
O2	O	-1.344144	-0.085224	0.141122
O3	O	-1.523546	-0.085201	-0.003192
O4	O	-1.534664	-0.085241	0.272850
O5	O	-1.510676	0.085227	0.007180
O6	O	-1.331274	0.085204	0.151494
O7	O	-1.701196	0.085210	0.138907
Zn8	Zn	-1.514192	0.112266	0.146847
Zn9	Zn	-1.531148	-0.112280	0.133182
O10	O	-1.521794	0.085187	0.283222
C11	C	-1.290081	-0.000010	0.145362
C12	C	-1.148163	-0.000011	0.142533
C13	C	-1.512249	0.000016	-0.033353
C14	C	-1.497745	0.000025	-0.138677
C15	C	-1.755259	-0.000006	0.134667
C16	C	-1.897178	-0.000012	0.137496
C17	C	-1.059469	-0.000026	0.231031
C18	C	-0.971032	0.084015	0.189381
C19	C	-0.983725	-0.084014	0.179134
C20	C	-1.061590	0.084100	0.100924
C21	C	-1.074295	-0.084005	0.090686
C22	C	-0.985899	0.000057	0.048972
N23	N	-1.502628	0.265513	0.156173
N24	N	-1.542721	-0.265527	0.123849
C25	C	-1.486897	0.474554	0.168869
C26	C	-1.558448	0.525439	0.111156
C27	C	-1.549695	0.641756	0.118220
C28	C	-1.495649	0.358226	0.161806
C29	C	-1.574094	-0.000014	-0.388450
C30	C	-1.471253	-0.000009	-0.331516
C31	C	-1.485996	0.000010	-0.224210
C32	C	-1.559352	-0.000033	-0.495765
C33	C	-1.533091	-0.000032	0.313383
C34	C	-1.547596	-0.000048	0.418706
H35	H	-1.091944	0.000041	0.308016
O36	O	-1.692374	-0.000180	-0.350520
C37	C	-1.765763	-0.088432	-0.386382
H38	H	-1.699450	-0.150136	-0.411262
H39	H	-1.828986	-0.118042	-0.327785
H40	H	-1.828197	-0.068481	-0.449095
O41	O	-1.352926	0.000126	-0.369381
C42	C	-1.279584	0.088413	-0.333547
H43	H	-1.319804	0.117847	-0.262847
H44	H	-1.176316	0.068570	-0.321868
H45	H	-1.283323	0.150212	-0.386948
O46	O	-1.639098	0.473043	0.045789
C47	C	-1.629791	0.366888	0.053053
H48	H	-1.592244	0.352286	0.127383
H49	H	-1.728154	0.325914	0.040315
H50	H	-1.561454	0.336623	-0.002666
O51	O	-0.917406	0.168865	0.239021
C52	C	-0.958737	0.257332	0.198564
H53	H	-1.052867	0.237762	0.157647
H54	H	-0.973058	0.319095	0.257658
H55	H	-0.883709	0.286677	0.147674
H56	H	-1.095747	0.155220	0.067915
H57	H	-0.953648	0.000117	-0.028062
H58	H	-0.949398	-0.155054	0.212188
O59	O	-1.128036	-0.168858	0.041132
C60	C	-1.088509	-0.257289	0.082665
H61	H	-1.058320	-0.237164	0.160344
H62	H	-1.170925	-0.318267	0.079220
H63	H	-1.004325	-0.287943	0.042017
H64	H	-1.419072	0.518342	0.223582
