data_functionalizedCrystal
_audit_creation_method	'MofGen! by Chris Wilmer'
_symmetry_space_group_name_H-M	'P1'
_symmetry_Int_Tables_number	1
_symmetry_cell_setting	triclinic
loop_
_symmetry_equiv_pos_as_xyz
  x,y,z
_cell_length_a	16.959455
_cell_length_b	16.959453
_cell_length_c	19.077174
_cell_angle_alpha	92.272048
_cell_angle_beta	87.685273
_cell_angle_gamma	90.019416
loop_
_atom_site_label
_atom_site_type_symbol
_atom_site_fract_x
_atom_site_fract_y
_atom_site_fract_z
Zn1	Zn	1.226343	-0.332660	-0.397939
Zn2	Zn	1.220954	-0.459534	-0.280243
Zn3	Zn	1.088860	-0.327373	-0.280258
Zn4	Zn	1.094134	-0.464798	-0.397901
O5	O	1.157573	-0.396091	-0.339085
O6	O	1.336239	-0.349500	-0.382336
O7	O	1.198969	-0.437587	-0.181755
O8	O	1.107146	-0.217464	-0.295891
O9	O	1.332280	-0.442714	-0.295865
O10	O	1.208153	-0.221349	-0.382351
O11	O	1.101920	-0.340489	-0.181766
O12	O	0.978949	-0.345593	-0.295854
O13	O	1.116134	-0.451685	-0.496396
O14	O	0.982823	-0.446558	-0.382286
O15	O	1.213267	-0.354604	-0.496424
O16	O	1.204083	-0.570842	-0.295829
O17	O	1.110909	-0.574709	-0.382271
C18	C	0.952206	-0.396073	-0.339068
C19	C	0.864350	-0.396085	-0.339077
C20	C	0.821010	-0.444543	-0.293992
C21	C	0.825136	-0.347635	-0.384168
C22	C	0.742591	-0.347641	-0.384177
C23	C	0.699251	-0.396098	-0.339091
C24	C	0.738456	-0.444549	-0.293998
C25	C	0.703379	-0.299186	-0.429264
C26	C	0.620828	-0.299190	-0.429274
C27	C	0.577487	-0.347652	-0.384192
C28	C	0.616697	-0.396105	-0.339097
C29	C	0.573357	-0.444562	-0.294012
C30	C	0.612567	-0.493020	-0.248920
C31	C	0.695115	-0.493011	-0.248915
C32	C	0.494939	-0.347661	-0.384196
C33	C	0.490804	-0.444568	-0.294017
C34	C	1.157506	-0.601456	-0.339060
C35	C	1.157550	-0.689314	-0.339072
C36	C	1.210236	-1.062758	-0.384190
C37	C	1.105135	-1.058826	-0.294086
C38	C	1.105105	-0.976280	-0.294069
C39	C	1.157640	-0.936968	-0.339115
C40	C	1.210206	-0.980204	-0.384177
C41	C	1.052535	-0.933039	-0.249014
C42	C	1.052502	-0.850487	-0.248996
C43	C	1.105042	-0.811174	-0.294039
C44	C	1.157610	-0.854414	-0.339102
C45	C	1.210146	-0.815103	-0.384147
C46	C	1.262719	-0.858342	-0.429207
C47	C	1.262746	-0.940891	-0.429219
C48	C	1.105015	-0.728625	-0.294027
C49	C	1.210116	-0.732549	-0.384134
C50	C	1.363742	-0.396110	-0.339103
C51	C	1.451599	-0.396118	-0.339111
C52	C	1.165890	-0.404321	-0.522661
C53	C	1.169435	-0.407828	-0.600891
C54	C	1.157662	-0.189925	-0.339127
C55	C	1.157701	-0.102069	-0.339144
C56	C	1.120574	-0.358923	-0.637648
C57	C	1.123901	-0.362225	-0.711153
C58	C	1.176094	-0.414429	-0.747898
C59	C	1.224956	-0.463339	-0.711136
C60	C	1.221624	-0.460041	-0.637633
C61	C	1.191473	-0.429718	-0.967729
C62	C	1.194803	-0.433012	-1.041238
C63	C	1.093746	-0.331898	-1.041249
C64	C	1.090422	-0.328601	-0.967745
C65	C	1.139282	-0.377514	-0.930988
N66	N	1.179498	-0.417803	-0.823032
N67	N	1.135873	-0.374143	-0.855856
C68	C	1.149333	-0.387836	-0.156224
C69	C	1.145942	-0.384106	-0.077995
H70	H	1.252900	-0.700546	-0.420813
C71	C	1.245228	-0.483509	-0.927306
H72	H	1.276796	-0.515062	-0.959720
H73	H	1.213686	-0.516664	-0.898620
H74	H	1.278384	-0.451980	-0.898646
C75	C	0.451812	-0.294368	-0.433793
H76	H	0.489447	-0.265510	-0.460645
H77	H	0.418391	-0.258683	-0.406928
H78	H	0.421001	-0.326038	-0.464420
H79	H	1.062360	-1.090839	-0.257415
C80	C	1.320494	-0.815098	-0.478766
H81	H	1.351803	-0.852667	-0.505610
H82	H	1.353727	-0.781667	-0.451874
H83	H	1.291587	-0.784287	-0.509401
H84	H	1.267449	-0.505849	-0.741060
H85	H	1.053967	-0.292076	-1.071184
C86	C	1.252223	-0.490432	-1.081657
H87	H	1.280843	-0.519093	-1.049240
H88	H	1.287974	-0.461477	-1.110335
H89	H	1.223271	-0.526157	-1.110326
H90	H	1.305547	-0.976103	-0.465905
H91	H	1.062207	-0.693424	-0.257343
H92	H	1.009761	-0.965052	-0.212342
H93	H	1.253042	-1.097966	-0.420875
H94	H	1.078078	-0.316409	-0.607735
C95	C	0.564887	-0.546321	-0.199330
H96	H	0.510110	-0.539383	-0.205796
H97	H	0.576267	-0.532560	-0.152057
H98	H	0.578860	-0.599908	-0.209556
H99	H	1.261418	-0.499859	-0.607706
H100	H	1.009696	-0.815287	-0.212306
C101	C	1.070159	-0.308425	-0.751583
H102	H	1.038606	-0.276854	-0.719171
H103	H	1.037002	-0.339939	-0.780247
H104	H	1.101719	-0.275274	-0.780266
H105	H	0.727046	-0.532461	-0.212202
H106	H	1.047919	-0.286093	-0.937831
H107	H	0.455522	-0.484032	-0.257306
C108	C	0.864131	-0.497848	-0.244398
H109	H	0.826494	-0.526712	-0.217553
H110	H	0.894954	-0.466194	-0.213774
H111	H	0.897540	-0.533540	-0.271276
C112	C	0.872804	-0.294336	-0.433759
H113	H	0.837630	-0.265479	-0.460613
H114	H	0.906394	-0.325994	-0.464374
H115	H	0.903789	-0.258638	-0.406882
C116	C	0.751048	-0.245889	-0.478856
H117	H	0.715876	-0.217027	-0.505707
H118	H	0.784633	-0.277550	-0.509473
H119	H	0.782040	-0.210196	-0.451980
C120	C	0.577706	-0.245897	-0.478878
H121	H	0.615341	-0.217041	-0.505731
H122	H	0.544285	-0.210210	-0.452015
H123	H	0.546895	-0.277569	-0.509504
