data_functionalizedCrystal
_audit_creation_method	'MofGen! by Chris Wilmer'
_symmetry_space_group_name_H-M	'P1'
_symmetry_Int_Tables_number	1
_symmetry_cell_setting	triclinic
loop_
_symmetry_equiv_pos_as_xyz
  x,y,z
_cell_length_a	14.971487
_cell_length_b	17.766277
_cell_length_c	14.971486
_cell_angle_alpha	89.999154
_cell_angle_beta	83.614265
_cell_angle_gamma	89.996813
loop_
_atom_site_label
_atom_site_type_symbol
_atom_site_fract_x
_atom_site_fract_y
_atom_site_fract_z
O1	O	-1.186950	0.062477	-0.116567
O2	O	-0.926550	0.062501	-0.130525
O3	O	-1.063730	0.062494	0.006654
O4	O	-1.049771	0.062484	-0.253746
O5	O	-1.063706	-0.062695	0.006661
O6	O	-0.926526	-0.062687	-0.130518
O7	O	-1.186926	-0.062712	-0.116560
Cu8	Cu	-1.056724	-0.074130	-0.123538
Cu9	Cu	-1.056753	0.073920	-0.123547
O10	O	-1.049747	-0.062704	-0.253739
C11	C	-0.893214	-0.000090	-0.129897
C12	C	-0.793917	-0.000080	-0.128026
N13	N	-1.056710	-0.178261	-0.123532
C14	C	-0.736691	-0.000084	-0.208615
C15	C	-0.643392	-0.000093	-0.206852
C16	C	-0.607320	-0.000094	-0.124499
C17	C	-0.664552	-0.000093	-0.043903
C18	C	-0.757850	-0.000089	-0.045668
C19	C	-0.470090	-0.000100	-0.040232
C20	C	-0.376786	-0.000102	-0.038467
C21	C	-0.355632	-0.000104	-0.201416
C22	C	-0.448929	-0.000100	-0.203181
C23	C	-0.506156	-0.000097	-0.122585
C24	C	-1.117473	-0.217651	-0.062819
C25	C	-1.117478	-0.296452	-0.062815
C26	C	-1.056729	-0.335861	-0.123539
C27	C	-0.995955	-0.296462	-0.184257
C28	C	-0.995946	-0.217661	-0.184253
C29	C	-1.045097	-0.460701	-0.204988
C30	C	-1.045113	-0.539500	-0.204993
C31	C	-1.056753	-0.578907	-0.123550
C32	C	-1.068397	-0.539506	-0.042099
C33	C	-1.068388	-0.460706	-0.042095
C34	C	-1.056732	-0.421307	-0.123549
C35	C	-1.117525	-0.703743	-0.062827
C36	C	-1.117524	-0.782547	-0.062822
C37	C	-0.996005	-0.782554	-0.184272
C38	C	-0.996002	-0.703753	-0.184269
C39	C	-1.056767	-0.664352	-0.123548
C40	C	-0.220263	-0.000114	-0.117187
C41	C	-0.319560	-0.000106	-0.119056
C42	C	-1.050383	-0.000112	-0.287067
C43	C	-1.052254	-0.000116	-0.386364
N44	N	-1.056773	0.178050	-0.123546
C45	C	-0.971665	-0.000108	-0.443589
C46	C	-0.973428	-0.000098	-0.536889
C47	C	-1.055781	-0.000101	-0.572961
C48	C	-1.136376	-0.000107	-0.515729
C49	C	-1.134612	-0.000112	-0.422431
C50	C	-1.140047	-0.000099	-0.710191
C51	C	-1.141812	-0.000096	-0.803496
C52	C	-0.978863	-0.000085	-0.824649
C53	C	-0.977099	-0.000090	-0.731351
C54	C	-1.057695	-0.000097	-0.674125
C55	C	-1.063094	-0.000097	0.039982
C56	C	-1.061223	-0.000088	0.139279
H57	H	-0.766053	-0.000082	-0.275677
Cl58	Cl	-1.030545	-0.411169	-0.307387
H59	H	-1.208871	-0.000098	-0.832862
Cl60	Cl	-0.872111	-0.000080	-0.608826
H61	H	-1.167002	-0.814619	-0.013377
H62	H	-0.910040	-0.000091	-0.701985
H63	H	-0.946491	-0.328552	-0.233698
Cl64	Cl	-0.331439	-0.000129	0.065064
H65	H	-1.166960	-0.328530	-0.013373
H66	H	-0.635175	-0.000105	0.023150
Cl67	Cl	-0.571455	-0.000092	-0.308169
Cl68	Cl	-0.494276	-0.000090	-0.306712
Cl69	Cl	-0.283691	-0.000108	-0.302737
Cl70	Cl	-1.241370	-0.000105	-0.638251
H71	H	-1.166949	-0.185573	-0.013374
Cl72	Cl	-0.877542	-0.000081	-0.896590
H73	H	-1.077866	-0.428628	0.024225
H74	H	-0.516682	-0.000099	0.025398
H75	H	-0.804443	-0.000086	0.019956
H76	H	-1.035637	-0.571575	-0.271315
H77	H	-1.077876	-0.571590	0.024220
Cl78	Cl	-1.193910	-0.654210	0.013512
Cl79	Cl	-0.919628	-0.832091	-0.260605
Cl80	Cl	-0.868129	-0.000109	-0.398251
Cl81	Cl	-1.239907	-0.000106	-0.561077
Cl82	Cl	-0.919615	-0.654229	-0.260603
Cl83	Cl	-0.919553	-0.168139	-0.260585
H84	H	-1.200237	-0.000115	-0.375839
