data_functionalizedCrystal
_audit_creation_method	'MofGen! by Chris Wilmer'
_symmetry_space_group_name_H-M	'P1'
_symmetry_Int_Tables_number	1
_symmetry_cell_setting	triclinic
loop_
_symmetry_equiv_pos_as_xyz
  x,y,z
_cell_length_a	6.817900
_cell_length_b	16.418049
_cell_length_c	16.305550
_cell_angle_alpha	95.392859
_cell_angle_beta	103.455250
_cell_angle_gamma	103.389670
loop_
_atom_site_label
_atom_site_type_symbol
_atom_site_fract_x
_atom_site_fract_y
_atom_site_fract_z
V1	V	-4.025855	-0.116594	-0.263330
O2	O	-4.013857	0.004875	-0.258012
O3	O	-3.976925	-0.230486	-0.261823
O4	O	-3.977266	-0.115119	-0.378044
O5	O	-4.013514	-0.111290	-0.140987
V6	V	-4.509576	-0.102027	-0.248661
O7	O	-4.286679	-0.148547	-0.295508
O8	O	-4.698950	-0.070073	-0.216484
O9	O	-4.335300	0.011866	-0.250168
O10	O	-4.638971	-0.223496	-0.253980
O11	O	-4.639315	-0.107331	-0.371005
O12	O	-4.334959	-0.103501	-0.133948
C13	C	-3.821803	-0.258241	-0.257745
C14	C	-3.863082	-0.351351	-0.257277
C15	C	-3.822237	-0.111078	-0.405994
C16	C	-3.863790	-0.110626	-0.499775
C17	C	-4.140109	-0.569849	-0.260438
C18	C	-4.178884	-0.657337	-0.260006
C19	C	-3.814681	-0.648771	-0.251559
C20	C	-3.775912	-0.561285	-0.251997
C21	C	-3.938631	-0.521826	-0.256432
C22	C	-4.016174	-0.696800	-0.255562
C23	C	-4.058214	-0.791658	-0.255094
C24	C	-3.896590	-0.426962	-0.256902
C25	C	-4.014883	-0.108876	-0.840516
C26	C	-3.778853	-0.103678	-0.799574
C27	C	-3.735656	-0.104495	-0.702081
C28	C	-3.939923	-0.109743	-0.671470
C29	C	-4.106679	-0.192465	-0.722309
C30	C	-4.148544	-0.191997	-0.819857
C31	C	-4.069896	-0.032013	-0.794476
C32	C	-4.021969	-0.031358	-0.696631
C33	C	-3.897571	-0.110237	-0.575934
C34	C	-4.057244	-0.108388	-0.936054
C35	C	-4.153764	0.039616	-0.254244
C36	C	-4.091723	0.132725	-0.254717
C37	C	-4.153330	-0.107545	-0.105993
C38	C	-4.091015	-0.107993	-0.012211
H39	H	-4.342945	-0.696435	-0.263269
H40	H	-3.672914	-0.043921	-0.811785
H41	H	-4.272608	-0.537724	-0.264048
H42	H	-3.682205	-0.680908	-0.247947
H43	H	-3.669043	-0.160355	-0.685931
H44	H	-3.978704	0.030664	-0.807683
O45	O	-3.580207	-0.514523	-0.247992
C46	C	-3.508810	-0.452115	-0.174550
H47	H	-3.648421	-0.438877	-0.153803
H48	H	-3.407234	-0.475622	-0.120876
C49	C	-3.207966	-0.386334	-0.220338
C50	C	-3.379440	-0.370069	-0.194860
H51	H	-3.128156	-0.335724	-0.232864
H52	H	-3.256062	-0.428381	-0.269816
H53	H	-3.123344	-0.405924	-0.175605
H54	H	-3.464072	-0.350489	-0.239596
H55	H	-3.331355	-0.328016	-0.145390
H56	H	-4.051051	-0.250668	-0.705645
H57	H	-3.733577	-0.158901	-0.831228
H58	H	-4.112205	-0.250184	-0.850388
O59	O	-3.585154	-0.033455	-0.660209
C60	C	-3.653586	0.038811	-0.680011
H61	H	-3.778525	0.021851	-0.743468
H62	H	-3.721774	0.062031	-0.627529
C63	C	-3.314000	0.130125	-0.608877
C64	C	-3.467440	0.109296	-0.686820
H65	H	-3.199177	0.173605	-0.613074
H66	H	-3.267897	0.081438	-0.595534
H67	H	-3.370850	0.149470	-0.565150
H68	H	-3.410597	0.089941	-0.730544
H69	H	-3.513529	0.157981	-0.700172
H70	H	-4.241951	-0.035085	-0.821299
O71	O	-4.355971	-0.200813	-0.853273
C72	C	-4.471515	-0.278036	-0.837461
H73	H	-4.367941	-0.323571	-0.826794
H74	H	-4.528475	-0.265907	-0.778163
C75	C	-4.787908	-0.261342	-0.927799
C76	C	-4.660701	-0.317270	-0.914706
H77	H	-4.904613	-0.285542	-0.975445
H78	H	-4.710067	-0.209313	-0.938450
H79	H	-4.835353	-0.251239	-0.878379
H80	H	-4.613238	-0.327364	-0.964121
H81	H	-4.738540	-0.369302	-0.904065
H82	H	-4.259812	-0.199297	-0.703414
H83	H	-3.901127	0.029827	-0.662096
H84	H	-4.169260	-0.030329	-0.675281
