data_functionalizedCrystal
_audit_creation_method	'MofGen! by Chris Wilmer'
_symmetry_space_group_name_H-M	'P1'
_symmetry_Int_Tables_number	1
_symmetry_cell_setting	triclinic
loop_
_symmetry_equiv_pos_as_xyz
  x,y,z
_cell_length_a	12.759401
_cell_length_b	18.215405
_cell_length_c	12.759393
_cell_angle_alpha	89.963505
_cell_angle_beta	89.979062
_cell_angle_gamma	90.026410
loop_
_atom_site_label
_atom_site_type_symbol
_atom_site_fract_x
_atom_site_fract_y
_atom_site_fract_z
Zn1	Zn	1.606192	-0.292919	-0.593976
Zn2	Zn	2.106192	0.207081	-0.093976
Zn3	Zn	1.606052	-0.416003	-0.418278
Zn4	Zn	2.106052	0.083997	0.081722
Zn5	Zn	1.430491	-0.292958	-0.418311
Zn6	Zn	1.930491	0.207042	0.081689
Zn7	Zn	1.430451	-0.415951	-0.593915
Zn8	Zn	1.930451	0.084049	-0.093915
O9	O	1.518296	-0.354458	-0.506120
O10	O	2.018296	0.145542	-0.006120
O11	O	1.753194	-0.309251	-0.570681
O12	O	2.253194	0.190749	-0.070681
O13	O	1.582721	-0.399719	-0.271261
O14	O	2.082721	0.100281	0.228739
O15	O	1.453873	-0.189968	-0.441653
O16	O	1.953873	0.310032	0.058347
O17	O	1.753091	-0.399681	-0.441596
O18	O	2.253091	0.100319	0.058404
O19	O	1.582960	-0.189940	-0.570714
O20	O	2.082960	0.310060	-0.070714
O21	O	1.453737	-0.309318	-0.271286
O22	O	1.953737	0.190682	0.228714
O23	O	1.283465	-0.309268	-0.441594
O24	O	1.783465	0.190732	0.058406
O25	O	1.453806	-0.399593	-0.740944
O26	O	1.953806	0.100407	-0.240944
O27	O	1.283436	-0.399631	-0.570609
O28	O	1.783436	0.100369	-0.070609
O29	O	1.582922	-0.309201	-0.740989
O30	O	2.082922	0.190799	-0.240989
O31	O	1.582683	-0.518980	-0.441537
O32	O	2.082683	-0.018980	0.058463
O33	O	1.453670	-0.518942	-0.570577
O34	O	1.953670	-0.018942	-0.070577
C35	C	1.245329	-0.354449	-0.506099
C36	C	1.745329	0.145551	-0.006099
C37	C	1.128552	-0.354463	-0.506115
C38	C	1.628552	0.145537	-0.006115
C39	C	1.073703	-0.401586	-0.573188
C40	C	1.573703	0.098414	-0.073188
C41	C	0.963979	-0.401589	-0.573209
C42	C	1.463979	0.098411	-0.073209
C43	C	0.963964	-0.307343	-0.439076
C44	C	1.463964	0.192657	0.060924
C45	C	1.073686	-0.307337	-0.439061
C46	C	1.573686	0.192663	0.060939
C47	C	1.518186	-0.545664	-0.506070
C48	C	2.018186	-0.045664	-0.006070
C49	C	1.518234	-0.627463	-0.506083
C50	C	2.018234	-0.127463	-0.006083
C51	C	1.585569	-0.815652	-0.439016
C52	C	2.085569	-0.315652	0.060984
C53	C	1.585616	-0.892511	-0.439041
C54	C	2.085616	-0.392511	0.060959
C55	C	1.451158	-0.892511	-0.573300
C56	C	1.951158	-0.392511	-0.073300
C57	C	1.451118	-0.815654	-0.573279
C58	C	1.951118	-0.315654	-0.073279
C59	C	1.518321	-0.777226	-0.506131
C60	C	2.018321	-0.277226	-0.006131
C61	C	1.518409	-0.930942	-0.506178
C62	C	2.018409	-0.430942	-0.006178
C63	C	1.518460	-1.014276	-0.506206
C64	C	2.018460	-0.514276	-0.006206
C65	C	1.518272	-0.693887	-0.506104
C66	C	2.018272	-0.193887	-0.006104
C67	C	1.792330	-0.354467	-0.506142
C68	C	2.292330	0.145533	-0.006142
C69	C	1.909106	-0.354471	-0.506151
C70	C	2.409106	0.145529	-0.006151
C71	C	1.518375	-0.354387	-0.780154
C72	C	2.018375	0.145613	-0.280154
C73	C	1.518409	-0.354357	-0.896930
C74	C	2.018409	0.145643	-0.396930
C75	C	1.518437	-0.162505	-0.506194
C76	C	2.018437	0.337495	-0.006194
C77	C	1.518496	-0.080706	-0.506225
C78	C	2.018496	0.419294	-0.006225
C79	C	1.585644	-0.307283	-0.951818
C80	C	2.085644	0.192717	-0.451818
C81	C	1.585662	-0.307251	-1.061542
C82	C	2.085662	0.192749	-0.561542
C83	C	1.451206	-0.401374	-1.061482
C84	C	1.951206	0.098626	-0.561482
C85	C	1.451183	-0.401402	-0.951760
C86	C	1.951183	0.098598	-0.451760
C87	C	1.518279	-0.354475	-0.233153
C88	C	2.018279	0.145525	0.266847
C89	C	1.518449	-0.354298	-0.116377
C90	C	2.018449	0.145702	0.383623
H91	H	1.640292	-0.784366	-0.384341
H92	H	2.140292	-0.284366	0.115659
N93	N	1.658168	-0.256470	-1.120743
N94	N	2.158168	0.243530	-0.620743
H95	H	1.700745	-0.226671	-1.069355
H96	H	2.200745	0.273329	-0.569355
H97	H	1.706776	-0.286410	-1.166272
H98	H	2.206776	0.213590	-0.666272
H99	H	1.640377	-0.923793	-0.384391
H100	H	2.140377	-0.423793	0.115609
N101	N	1.378673	-0.933958	-0.645717
N102	N	1.878673	-0.433958	-0.145717
H103	H	1.388898	-0.988478	-0.635544
H104	H	1.888898	-0.488478	-0.135544
H105	H	1.303642	-0.920575	-0.629288
H106	H	1.803642	-0.420575	-0.129288
N107	N	1.378686	-0.452102	-1.120620
N108	N	1.878686	0.047898	-0.620620
H109	H	1.388897	-0.444940	-1.198457
H110	H	1.888897	0.055060	-0.698457
H111	H	1.394975	-0.504672	-1.101431
H112	H	1.894975	-0.004672	-0.601431
H113	H	1.396425	-0.439735	-0.907070
H114	H	1.896425	0.060265	-0.407070
H115	H	1.396356	-0.784366	-0.627938
H116	H	1.896356	-0.284366	-0.127938
H117	H	0.919325	-0.439960	-0.627827
H118	H	1.419325	0.060040	-0.127827
H119	H	1.118345	-0.268958	-0.384442
H120	H	1.618345	0.231042	0.115558
N121	N	1.132883	-0.452411	-0.645508
N122	N	1.632883	0.047589	-0.145508
H123	H	1.081482	-0.482263	-0.688002
H124	H	1.581482	0.017737	-0.188002
H125	H	1.178450	-0.422494	-0.694201
H126	H	1.678450	0.077506	-0.194201
N127	N	1.658148	-0.256546	-0.892676
N128	N	2.158148	0.243454	-0.392676
H129	H	1.641878	-0.203956	-0.911781
H130	H	2.141878	0.296044	-0.411781
H131	H	1.647899	-0.263774	-0.814858
H132	H	2.147899	0.236226	-0.314858
N133	N	0.904786	-0.256535	-0.366728
N134	N	1.404786	0.243465	0.133272
H135	H	0.826954	-0.263696	-0.376902
H136	H	1.326954	0.236304	0.123098
H137	H	0.923938	-0.267944	-0.291671
H138	H	1.423938	0.232056	0.208329
