data_functionalizedCrystal
_audit_creation_method	'MofGen! by Chris Wilmer'
_symmetry_space_group_name_H-M	'P1'
_symmetry_Int_Tables_number	1
_symmetry_cell_setting	triclinic
loop_
_symmetry_equiv_pos_as_xyz
  x,y,z
_cell_length_a	11.026607
_cell_length_b	9.616153
_cell_length_c	11.026607
_cell_angle_alpha	89.999525
_cell_angle_beta	108.586017
_cell_angle_gamma	90.006666
loop_
_atom_site_label
_atom_site_type_symbol
_atom_site_fract_x
_atom_site_fract_y
_atom_site_fract_z
O1	O	1.726737	0.115642	0.533620
O2	O	1.360157	0.115644	0.472856
O3	O	1.513065	0.115638	0.319948
O4	O	1.573829	0.115648	0.686528
O5	O	1.513040	-0.115653	0.319946
O6	O	1.360131	-0.115647	0.472854
O7	O	1.726711	-0.115649	0.533618
Zn8	Zn	1.543417	-0.152371	0.503236
Zn9	Zn	1.543451	0.152366	0.503238
O10	O	1.573803	-0.115643	0.686526
C11	C	1.312485	-0.000001	0.461645
C12	C	1.170471	-0.000000	0.428228
C13	C	1.116821	0.000003	0.520498
C14	C	0.970043	0.000004	0.485962
N15	N	1.543403	-0.360345	0.503236
C16	C	1.461218	-0.580712	0.584618
C17	C	1.461528	-0.419544	0.585052
C18	C	1.682716	-0.418794	0.561326
C19	C	1.682304	-0.580012	0.561938
C20	C	1.487528	-0.580260	0.363703
C21	C	1.484658	-0.419033	0.363929
C22	C	1.774384	-0.000001	0.544828
C23	C	1.916398	0.000008	0.578245
C24	C	1.501843	-0.000006	0.272287
C25	C	1.468426	-0.000000	0.130273
N26	N	1.543473	0.360340	0.503230
C27	C	1.560695	0.000001	0.076624
C28	C	1.526160	0.000006	-0.070155
C29	C	1.585026	0.000004	0.734187
C30	C	1.618443	0.000008	0.876200
H31	H	0.907314	0.000037	0.381393
H32	H	1.363863	0.000009	0.067540
H33	H	1.746585	-0.380444	0.504840
C34	C	1.550513	-0.523046	0.807302
C35	C	1.513032	-0.635363	0.722761
H36	H	1.582494	-0.556788	0.892585
H37	H	1.615504	-0.471738	0.787722
H38	H	1.478950	-0.464451	0.798947
H39	H	1.584597	-0.693953	0.731110
H40	H	1.448035	-0.686694	0.742348
H41	H	1.421590	0.000016	-0.132884
H42	H	1.727891	-0.378402	0.662982
C43	C	1.779158	-0.515943	0.782185
C44	C	1.742852	-0.630763	0.700502
H45	H	1.816529	-0.547272	0.867731
H46	H	1.839600	-0.461735	0.757819
H47	H	1.705959	-0.460964	0.776416
H48	H	1.816053	-0.685736	0.706264
H49	H	1.682406	-0.684993	0.724876
C50	C	1.111777	-0.118904	0.226308
C51	C	1.085794	-0.000004	0.287068
H52	H	1.059496	-0.118907	0.139162
H53	H	1.199295	-0.118892	0.230996
H54	H	1.094138	-0.199550	0.267551
H55	H	1.103442	0.080643	0.245830
H56	H	0.998256	-0.000003	0.282372
H57	H	1.358911	-0.380029	0.546157
C58	C	1.330511	0.000002	0.668548
C59	C	1.201496	0.000004	0.661659
H60	H	1.382781	0.000009	0.755698
H61	H	1.348117	-0.080651	0.627320
H62	H	1.348135	0.080663	0.627314
H63	H	1.183871	-0.080663	0.702886
H64	H	1.183884	0.080665	0.702905
C65	C	1.271737	-0.594492	0.368560
C66	C	1.351228	-0.635192	0.298040
H67	H	1.187589	-0.628399	0.328026
H68	H	1.303730	-0.631589	0.452605
H69	H	1.269967	-0.495882	0.372855
H70	H	1.353006	-0.733803	0.293754
H71	H	1.319226	-0.598101	0.213973
C72	C	0.975050	0.118918	0.780163
C73	C	1.001053	0.000017	0.719419
H74	H	1.027304	0.118919	0.867319
H75	H	0.992698	0.199555	0.738935
H76	H	0.887513	0.118904	0.775449
H77	H	1.088588	0.000036	0.724125
H78	H	0.983414	-0.080641	0.760660
H79	H	1.382030	-0.380833	0.320521
H80	H	1.723013	0.000112	-0.061072
C81	C	1.821755	-0.518971	0.441728
C82	C	1.769417	-0.632660	0.486980
H83	H	1.875536	-0.551472	0.395457
H84	H	1.754765	-0.464270	0.387032
H85	H	1.870479	-0.464079	0.512011
H86	H	1.720685	-0.687547	0.416696
H87	H	1.836417	-0.687383	0.541679
C88	C	1.656619	-0.276987	0.344549
C89	C	1.557262	-0.364661	0.275299
H90	H	1.701455	-0.243433	0.289836
H91	H	1.622040	-0.200750	0.377400
H92	H	1.713757	-0.327330	0.413364
H93	H	1.500119	-0.314315	0.206488
H94	H	1.591842	-0.440909	0.242428
C95	C	1.517519	-0.578310	0.157372
C96	C	1.568032	-0.631723	0.281468
H97	H	1.567228	-0.610082	0.106616
H98	H	1.431696	-0.609031	0.120776
H99	H	1.519396	-0.479589	0.160564
H100	H	1.566146	-0.730444	0.278277
H101	H	1.653876	-0.601010	0.318073
H102	H	1.665258	-0.000008	0.139357
H103	H	1.500268	-0.380962	0.687989
H104	H	1.358350	-0.619523	0.545936
