data_functionalizedCrystal
_audit_creation_method	'MofGen! by Chris Wilmer'
_symmetry_space_group_name_H-M	'P1'
_symmetry_Int_Tables_number	1
_symmetry_cell_setting	triclinic
loop_
_symmetry_equiv_pos_as_xyz
  x,y,z
_cell_length_a	6.817900
_cell_length_b	11.102216
_cell_length_c	12.200875
_cell_angle_alpha	92.494843
_cell_angle_beta	107.143593
_cell_angle_gamma	108.604437
loop_
_atom_site_label
_atom_site_type_symbol
_atom_site_fract_x
_atom_site_fract_y
_atom_site_fract_z
V1	V	-4.094466	-0.176128	-0.357666
O2	O	-4.053827	0.008167	-0.350852
O3	O	-4.071356	-0.348947	-0.355225
O4	O	-4.063806	-0.173550	-0.513654
O5	O	-4.061429	-0.168445	-0.191326
V6	V	-4.572518	-0.154069	-0.337770
O7	O	-4.367725	-0.224517	-0.401310
O8	O	-4.749456	-0.105681	-0.294126
O9	O	-4.372421	0.018750	-0.340211
O10	O	-4.730554	-0.338364	-0.344583
O11	O	-4.722952	-0.161752	-0.504110
O12	O	-4.379971	-0.156648	-0.181782
C13	C	-3.921935	-0.391073	-0.349584
C14	C	-3.984445	-0.532355	-0.348627
C15	C	-3.912303	-0.167334	-0.551675
C16	C	-3.968686	-0.166369	-0.679196
C17	C	-4.127706	-0.749723	-0.452317
C18	C	-4.068978	-0.616975	-0.453226
C19	C	-3.958660	-0.580490	-0.243115
C20	C	-4.017401	-0.713237	-0.242208
C21	C	-4.191388	-0.770786	-0.573623
C22	C	-4.132661	-0.638038	-0.574531
C23	C	-4.071876	-0.164604	-0.912670
C24	C	-4.014445	-0.165585	-0.782748
C25	C	-4.185185	0.060869	-0.345849
C26	C	-4.101914	0.202150	-0.346813
C27	C	-4.194816	-0.162868	-0.143755
C28	C	-4.117671	-0.163826	-0.016233
H29	H	-3.996422	-0.752416	-0.156297
N30	N	-4.317194	-0.601027	-0.627794
N31	N	-4.504496	-0.684318	-0.666924
H32	H	-4.634822	-0.658178	-0.704536
N33	N	-3.966381	-0.596763	-0.627750
N34	N	-3.897377	-0.676542	-0.664492
H35	H	-3.779942	-0.647392	-0.702074
N36	N	-4.056484	-0.824239	-0.614786
N37	N	-3.945725	-0.879853	-0.550133
H38	H	-3.850444	-0.917606	-0.579201
H39	H	-4.372842	-0.819865	-0.624350
N40	N	-3.872340	-0.494041	-0.136280
N41	N	-3.819914	-0.375521	-0.137102
H42	H	-3.758949	-0.314466	-0.061648
