data_functionalizedCrystal
_audit_creation_method	'MofGen! by Chris Wilmer'
_symmetry_space_group_name_H-M	'P1'
_symmetry_Int_Tables_number	1
_symmetry_cell_setting	triclinic
loop_
_symmetry_equiv_pos_as_xyz
  x,y,z
_cell_length_a	11.169417
_cell_length_b	16.625545
_cell_length_c	11.169409
_cell_angle_alpha	89.963924
_cell_angle_beta	89.979747
_cell_angle_gamma	90.026807
loop_
_atom_site_label
_atom_site_type_symbol
_atom_site_fract_x
_atom_site_fract_y
_atom_site_fract_z
Zn1	Zn	1.834844	-0.320910	-0.678501
Zn2	Zn	1.834678	-0.455772	-0.477805
Zn3	Zn	1.634127	-0.320960	-0.477837
Zn4	Zn	1.634084	-0.455707	-0.678451
O5	O	1.734433	-0.388337	-0.578148
O6	O	2.002772	-0.338806	-0.651886
O7	O	1.808023	-0.437937	-0.309859
O8	O	1.660841	-0.208121	-0.504490
O9	O	2.002649	-0.437888	-0.504435
O10	O	1.808306	-0.208084	-0.651917
O11	O	1.660679	-0.338891	-0.309882
O12	O	1.466172	-0.338828	-0.504441
O13	O	1.660767	-0.437778	-0.846407
O14	O	1.466140	-0.437827	-0.651831
O15	O	1.808265	-0.338743	-0.846444
O16	O	1.807981	-0.568596	-0.504386
O17	O	1.660606	-0.568548	-0.651800
C18	C	1.422609	-0.388326	-0.578135
C19	C	1.289209	-0.388341	-0.578157
C20	C	1.734303	-0.597828	-0.578110
C21	C	1.734357	-0.687449	-0.578134
C22	C	1.734404	-0.760232	-0.578158
C23	C	1.734473	-0.851540	-0.578185
C24	C	1.734536	-0.924316	-0.578200
C25	C	1.734604	-1.015631	-0.578225
C26	C	2.047476	-0.388349	-0.578163
C27	C	2.180876	-0.388354	-0.578169
C28	C	1.734530	-0.388248	-0.891191
C29	C	1.734571	-0.388210	-1.024591
C30	C	1.734597	-0.178028	-0.578212
C31	C	1.734667	-0.088407	-0.578240
C32	C	1.734407	-0.388368	-0.266323
C33	C	1.734598	-0.388179	-0.132924
