data_functionalizedCrystal
_audit_creation_method	'MofGen! by Chris Wilmer'
_symmetry_space_group_name_H-M	'P1'
_symmetry_Int_Tables_number	1
_symmetry_cell_setting	triclinic
loop_
_symmetry_equiv_pos_as_xyz
  x,y,z
_cell_length_a	16.625546
_cell_length_b	17.077404
_cell_length_c	17.077396
_cell_angle_alpha	89.980499
_cell_angle_beta	90.030215
_cell_angle_gamma	89.977307
loop_
_atom_site_label
_atom_site_type_symbol
_atom_site_fract_x
_atom_site_fract_y
_atom_site_fract_z
Zn1	Zn	-0.320997	-1.200057	0.443833
Zn2	Zn	-0.455839	-1.199965	0.312563
Zn3	Zn	-0.321025	-1.068789	0.312581
Zn4	Zn	-0.455792	-1.068758	0.443787
O5	O	-0.388413	-1.134392	0.378191
O6	O	-0.338892	-1.309892	0.426432
O7	O	-0.437988	-1.182539	0.202719
O8	O	-0.208189	-1.086253	0.330019
O9	O	-0.437960	-1.309824	0.329988
O10	O	-0.208168	-1.182695	0.426449
O11	O	-0.338940	-1.086164	0.202732
O12	O	-0.338894	-0.958938	0.329974
O13	O	-0.437879	-1.086200	0.553640
O14	O	-0.437906	-0.958915	0.426370
O15	O	-0.338846	-1.182665	0.553674
O16	O	-0.568666	-1.182509	0.329943
O17	O	-0.568630	-1.086111	0.426353
C18	C	-0.388399	-0.930444	0.378169
C19	C	-0.388412	-0.843194	0.378179
C20	C	-0.597904	-1.134318	0.378158
C21	C	-0.687525	-1.134358	0.378170
C22	C	-0.388354	-1.134440	0.582936
C23	C	-0.388329	-1.134460	0.670185
C24	C	-1.015701	-1.134495	0.378252
C25	C	-0.924392	-1.134454	0.378232
C26	C	-0.851616	-1.134426	0.378211
C27	C	-0.760302	-1.134386	0.378191
C28	C	-0.178104	-1.134488	0.378241
C29	C	-0.088483	-1.134529	0.378263
C30	C	-0.388428	-1.339136	0.378213
C31	C	-0.388435	-1.426386	0.378223
C32	C	-0.440045	-0.802213	0.428292
C33	C	-0.440047	-0.720232	0.428304
C34	C	-0.388419	-0.679235	0.378199
C35	C	-0.336780	-0.720222	0.328084
C36	C	-0.336774	-0.802201	0.328076
C37	C	-0.336795	-0.549352	0.328103
C38	C	-0.336801	-0.467368	0.328110
C39	C	-0.440068	-0.467383	0.428331
C40	C	-0.440063	-0.549362	0.428323
C41	C	-0.388425	-0.590344	0.378207
C42	C	-0.388414	-1.134390	0.174243
C43	C	-0.388212	-1.134522	0.086994
C44	C	-0.336758	-1.184691	0.711195
C45	C	-0.336731	-1.184700	0.793175
C46	C	-0.388280	-1.134482	0.834145
C47	C	-0.439853	-1.084245	0.793130
C48	C	-0.439875	-1.084233	0.711151
C49	C	-0.439804	-1.084277	0.964000
C50	C	-0.439783	-1.084291	1.045985
C51	C	-0.336660	-1.184745	1.046024
C52	C	-0.336682	-1.184732	0.964045
C53	C	-0.388257	-1.134496	0.923036
H54	H	-0.482093	-0.686869	0.469111
H55	H	-0.482112	-0.434012	0.469140
O56	O	-0.286575	-1.233461	1.085977
C57	C	-0.240849	-1.278018	1.212288
C58	C	-0.297596	-1.222799	1.167136
H59	H	-0.249752	-1.269428	1.277913
H60	H	-0.175822	-1.264253	1.196234
H61	H	-0.255004	-1.341299	1.196138
H62	H	-0.283514	-1.159499	1.183262
H63	H	-0.362606	-1.236630	1.183194
O64	O	-0.286796	-1.233555	0.671363
C65	C	-0.275969	-1.339491	0.578790
C66	C	-0.332648	-1.284217	0.623862
H67	H	-0.313016	-1.380454	0.540362
H68	H	-0.239116	-1.375450	0.622149
H69	H	-0.233803	-1.303444	0.540451
H70	H	-0.374863	-1.320203	0.662202
H71	H	-0.369444	-1.248256	0.580460
O72	O	-0.286726	-0.589130	0.279305
C73	C	-0.247397	-0.614135	0.145843
C74	C	-0.304154	-0.569050	0.201020
H75	H	-0.261457	-0.597905	0.082539
H76	H	-0.256268	-0.679778	0.154376
H77	H	-0.182402	-0.598059	0.159775
H78	H	-0.369171	-0.585061	0.187121
H79	H	-0.295214	-0.503418	0.192476
O80	O	-0.286510	-0.680437	0.279495
C81	C	-0.149309	-0.655423	0.241602
C82	C	-0.206147	-0.700510	0.296694
H83	H	-0.084324	-0.671647	0.255476
H84	H	-0.158110	-0.589780	0.250214
H85	H	-0.163426	-0.671503	0.178286
H86	H	-0.192065	-0.684495	0.360031
H87	H	-0.197335	-0.766141	0.288014
H88	H	-0.482090	-0.835587	0.469091
O89	O	-0.286717	-1.233583	0.924202
C90	C	-0.275878	-1.339491	0.831599
C91	C	-0.332563	-1.284240	0.876691
H92	H	-0.312921	-1.380450	0.793162
H93	H	-0.239014	-1.375455	0.874944
H94	H	-0.233722	-1.303425	0.793265
H95	H	-0.374767	-1.320245	0.915025
H96	H	-0.369370	-1.248273	0.833303
O97	O	-0.286521	-1.233460	0.832919
C98	C	-0.149358	-1.271606	0.858058
C99	C	-0.206136	-1.216348	0.812990
H100	H	-0.084354	-1.257780	0.841974
H101	H	-0.163466	-1.334904	0.841930
H102	H	-0.158227	-1.263007	0.923685
H103	H	-0.197299	-1.224877	0.747352
H104	H	-0.192015	-1.153070	0.829183
H105	H	-0.482108	-0.582740	0.469119
O106	O	-0.489879	-1.035432	1.085663
C107	C	-0.592191	-0.935819	1.076978
C108	C	-0.535486	-0.991098	1.031945
H109	H	-0.629091	-0.899972	1.033566
H110	H	-0.555192	-0.894751	1.115341
H111	H	-0.634312	-0.971856	1.115374
H112	H	-0.493354	-0.955123	0.993506
H113	H	-0.572535	-1.032167	0.993631
H114	H	-0.481789	-1.043357	0.930613
H115	H	-0.294725	-0.835567	0.287273
H116	H	-0.481861	-1.043321	0.677762
O117	O	-0.490039	-1.035501	0.832840
C118	C	-0.627186	-0.997370	0.857917
C119	C	-0.570438	-1.052608	0.812885
H120	H	-0.692201	-1.011192	0.841813
H121	H	-0.613092	-0.934065	0.841778
H122	H	-0.618272	-1.005997	0.923550
H123	H	-0.579320	-1.044052	0.747242
H124	H	-0.584545	-1.115893	0.829090
H125	H	-0.294752	-0.433990	0.287319
