data_functionalizedCrystal
_audit_creation_method	'MofGen! by Chris Wilmer'
_symmetry_space_group_name_H-M	'P1'
_symmetry_Int_Tables_number	1
_symmetry_cell_setting	triclinic
loop_
_symmetry_equiv_pos_as_xyz
  x,y,z
_cell_length_a	21.295418
_cell_length_b	21.295417
_cell_length_c	21.395355
_cell_angle_alpha	90.017926
_cell_angle_beta	89.956257
_cell_angle_gamma	89.956327
loop_
_atom_site_label
_atom_site_type_symbol
_atom_site_fract_x
_atom_site_fract_y
_atom_site_fract_z
Zn1	Zn	0.962367	0.250416	-0.354585
Zn2	Zn	1.295701	0.583750	-0.021252
Zn3	Zn	1.629034	0.917083	0.312082
Zn4	Zn	0.962275	0.355668	-0.249808
Zn5	Zn	1.295608	0.689001	0.083525
Zn6	Zn	1.628941	1.022335	0.416858
Zn7	Zn	0.857091	0.250446	-0.249787
Zn8	Zn	1.190424	0.583779	0.083547
Zn9	Zn	1.523757	0.917112	0.416880
Zn10	Zn	0.857065	0.355681	-0.354514
Zn11	Zn	1.190398	0.689014	-0.021180
Zn12	Zn	1.523731	1.022347	0.312153
O13	O	0.909699	0.303053	-0.302173
O14	O	1.243033	0.636386	0.031160
O15	O	1.576366	0.969719	0.364493
O16	O	1.050445	0.264361	-0.340725
O17	O	1.383778	0.597694	-0.007392
O18	O	1.717111	0.931027	0.325942
O19	O	0.948294	0.341717	-0.162128
O20	O	1.281627	0.675050	0.171206
O21	O	1.614960	1.008383	0.504539
O22	O	0.871105	0.162352	-0.263709
O23	O	1.204439	0.495686	0.069624
O24	O	1.537772	0.829019	0.402958
O25	O	1.050376	0.341688	-0.263746
O26	O	1.383710	0.675022	0.069587
O27	O	1.717043	1.008355	0.402920
O28	O	0.948452	0.162331	-0.340704
O29	O	1.281785	0.495664	-0.007370
O30	O	1.615118	0.828998	0.325963
O31	O	0.871015	0.264410	-0.162112
O32	O	1.204349	0.597744	0.171222
O33	O	1.537682	0.931077	0.504555
O34	O	0.768998	0.264423	-0.263640
O35	O	1.102331	0.597756	0.069694
O36	O	1.435664	0.931090	0.403027
O37	O	0.871061	0.341710	-0.442201
O38	O	1.204395	0.675044	-0.108868
O39	O	1.537728	1.008377	0.224466
O40	O	0.768979	0.341739	-0.340582
O41	O	1.102312	0.675072	-0.007249
O42	O	1.435646	1.008405	0.326084
O43	O	0.948427	0.264373	-0.442253
O44	O	1.281760	0.597706	-0.108920
O45	O	1.615093	0.931040	0.224413
O46	O	0.948269	0.443759	-0.263677
O47	O	1.281602	0.777092	0.069656
O48	O	1.614935	1.110426	0.402990
O49	O	0.870972	0.443768	-0.340604
O50	O	1.204305	0.777102	-0.007270
O51	O	1.537638	1.110435	0.326063
C52	C	0.746148	0.303086	-0.302101
C53	C	1.079481	0.636419	0.031232
C54	C	1.412814	0.969752	0.364565
C55	C	0.676180	0.303115	-0.302085
C56	C	1.009513	0.636448	0.031248
C57	C	1.342846	0.969782	0.364581
C58	C	0.909624	0.466604	-0.302149
C59	C	1.242958	0.799938	0.031185
C60	C	1.576291	1.133271	0.364518
C61	C	0.909650	0.536572	-0.302159
C62	C	1.242983	0.869906	0.031174
C63	C	1.576317	1.203239	0.364508
C64	C	0.950093	1.036004	-0.262242
C65	C	1.283427	1.369338	0.071091
C66	C	1.616760	1.702671	0.404424
C67	C	0.950070	0.970262	-0.262225
C68	C	1.283403	1.303595	0.071108
C69	C	1.616737	1.636929	0.404441
C70	C	0.909783	0.937412	-0.302238
C71	C	1.243116	1.270745	0.031096
C72	C	1.576450	1.604078	0.364429
C73	C	0.869505	0.970309	-0.342258
C74	C	1.202838	1.303643	-0.008925
C75	C	1.536172	1.636976	0.324408
C76	C	0.869525	1.036051	-0.342270
C77	C	1.202858	1.369384	-0.008936
C78	C	1.536192	1.702717	0.324397
N79	N	0.904895	0.834170	-0.357058
N80	N	1.238228	1.167504	-0.023725
N81	N	1.571561	1.500837	0.309608
N82	N	0.904879	0.771719	-0.357046
N83	N	1.238213	1.105052	-0.023712
N84	N	1.571546	1.438386	0.309621
C85	C	0.909719	0.739337	-0.302205
C86	C	1.243052	1.072670	0.031128
C87	C	1.576386	1.406004	0.364462
N88	N	0.914587	0.771766	-0.247376
N89	N	1.247920	1.105099	0.085957
N90	N	1.581254	1.438433	0.419291
N91	N	0.914606	0.834223	-0.247389
N92	N	1.247939	1.167556	0.085944
N93	N	1.581272	1.500890	0.419278
C94	C	0.909756	0.866126	-0.302229
C95	C	1.243090	1.199460	0.031104
C96	C	1.576423	1.532793	0.364437
C97	C	0.949966	0.635162	-0.262165
C98	C	1.283299	0.968495	0.071168
C99	C	1.616632	1.301828	0.404501
C100	C	0.949938	0.569418	-0.262147
C101	C	1.283271	0.902751	0.071186
C102	C	1.616605	1.236085	0.404519
C103	C	0.869376	0.569467	-0.342186
C104	C	1.202710	0.902800	-0.008852
C105	C	1.536043	1.236134	0.324481
C106	C	0.869401	0.635209	-0.342198
C107	C	1.202734	0.968543	-0.008865
C108	C	1.536068	1.301876	0.324469
C109	C	0.909699	0.668053	-0.302189
C110	C	1.243032	1.001386	0.031145
C111	C	1.576366	1.334719	0.364478
C112	C	0.643320	0.343427	-0.342089
C113	C	0.976653	0.676760	-0.008756
C114	C	1.309986	1.010093	0.324577
C115	C	0.577577	0.343411	-0.342117
C116	C	0.910910	0.676745	-0.008784
C117	C	1.244244	1.010078	0.324549
C118	C	0.544697	0.303091	-0.302130
C119	C	0.878030	0.636424	0.031203
C120	C	1.211364	0.969757	0.364536
C121	C	0.577565	0.262771	-0.262123
C122	C	0.910898	0.596105	0.071210
C123	C	1.244232	0.929438	0.404543
C124	C	0.643306	0.262783	-0.262101
C125	C	0.976640	0.596117	0.071232
C126	C	1.309973	0.929450	0.404566
N127	N	0.441421	0.298163	-0.247330
N128	N	0.774754	0.631497	0.086004
N129	N	1.108088	0.964830	0.419337
N130	N	0.378969	0.298156	-0.247353
N131	N	0.712303	0.631489	0.085981
N132	N	1.045636	0.964822	0.419314
C133	C	0.346622	0.303051	-0.302197
C134	C	0.679956	0.636384	0.031137
C135	C	1.013289	0.969717	0.364470
N136	N	0.379086	0.307966	-0.357018
N137	N	0.712419	0.641299	-0.023685
N138	N	1.045753	0.974633	0.309649
N139	N	0.441543	0.307977	-0.356994
N140	N	0.774877	0.641311	-0.023661
N141	N	1.108210	0.974644	0.309673
C142	C	0.473412	0.303073	-0.302151
C143	C	0.806745	0.636406	0.031183
C144	C	1.140078	0.969739	0.364516
C145	C	0.242477	0.343348	-0.342235
C146	C	0.575810	0.676681	-0.008901
C147	C	0.909144	1.010014	0.324432
C148	C	0.176733	0.343328	-0.342264
C149	C	0.510067	0.676661	-0.008931
C150	C	0.843400	1.009994	0.324403
C151	C	0.176722	0.262691	-0.262264
C152	C	0.510056	0.596024	0.071069
C153	C	0.843389	0.929358	0.404402
C154	C	0.242465	0.262707	-0.262241
C155	C	0.575798	0.596041	0.071093
C156	C	0.909132	0.929374	0.404426
C157	C	0.275338	0.303039	-0.302225
C158	C	0.608672	0.636373	0.031108
C159	C	0.942005	0.969706	0.364442
C160	C	1.073890	0.303020	-0.302246
C161	C	1.407223	0.636353	0.031087
C162	C	1.740556	0.969687	0.364421
C163	C	1.143858	0.303006	-0.302277
C164	C	1.477191	0.636339	0.031056
C165	C	1.810524	0.969673	0.364390
C166	C	0.909752	0.303040	-0.465597
C167	C	1.243085	0.636373	-0.132263
C168	C	1.576418	0.969707	0.201070
C169	C	0.909774	0.303034	-0.535238
C170	C	1.243107	0.636368	-0.201905
C171	C	1.576441	0.969701	0.131429
C172	C	0.909790	1.138862	-0.302220
C173	C	1.243123	1.472196	0.031113
C174	C	1.576456	1.805529	0.364447
C175	C	0.909823	1.068894	-0.302260
C176	C	1.243156	1.402228	0.031073
C177	C	1.576490	1.735561	0.364406
C178	C	0.950056	0.262763	-0.567979
C179	C	1.283390	0.596097	-0.234646
C180	C	1.616723	0.929430	0.098687
C181	C	0.950055	0.262736	-0.633415
C182	C	1.283389	0.596070	-0.300082
C183	C	1.616722	0.929403	0.033252
C184	C	0.909779	0.302992	-0.666106
C185	C	1.243112	0.636325	-0.332773
C186	C	1.576445	0.969658	0.000560
C187	C	0.869489	0.343266	-0.633357
C188	C	1.202822	0.676599	-0.300024
C189	C	1.536155	1.009932	0.033310
C190	C	0.869486	0.343287	-0.567923
C191	C	1.202819	0.676620	-0.234590
C192	C	1.536153	1.009954	0.098744
C193	C	0.904782	0.359673	-0.769771
C194	C	1.238116	0.693006	-0.436438
C195	C	1.571449	1.026340	-0.103104
C196	C	0.904789	0.359653	-0.835204
C197	C	1.238123	0.692986	-0.501871
C198	C	1.571456	1.026319	-0.168537
C199	C	0.909783	0.302925	-0.867927
C200	C	1.243116	0.636258	-0.534594
C201	C	1.576449	0.969592	-0.201261
C202	C	0.914783	0.246216	-0.835210
C203	C	1.248116	0.579549	-0.501876
C204	C	1.581449	0.912883	-0.168543
C205	C	0.914780	0.246238	-0.769775
C206	C	1.248113	0.579571	-0.436442
C207	C	1.581447	0.912904	-0.103109
C208	C	0.909777	0.302973	-0.737059
C209	C	1.243110	0.636306	-0.403725
C210	C	1.576443	0.969639	-0.070392
C211	C	0.950066	0.262621	-0.971621
C212	C	1.283400	0.595954	-0.638288
C213	C	1.616733	0.929288	-0.304955
C214	C	0.950061	0.262593	-1.037058
C215	C	1.283394	0.595926	-0.703725
C216	C	1.616728	0.929260	-0.370391
C217	C	0.869497	0.343128	-1.036999
C218	C	1.202831	0.676461	-0.703666
C219	C	1.536164	1.009795	-0.370332
C220	C	0.869499	0.343150	-0.971563
C221	C	1.202833	0.676484	-0.638230
C222	C	1.536166	1.009817	-0.304897
C223	C	0.909787	0.302898	-0.938879
C224	C	1.243121	0.636231	-0.605545
C225	C	1.576454	0.969565	-0.272212
C226	C	0.909684	0.303020	-0.139386
C227	C	1.243017	0.636353	0.193948
C228	C	1.576350	0.969687	0.527281
C229	C	0.909783	0.302848	-0.069745
C230	C	1.243117	0.636181	0.263588
C231	C	1.576450	0.969515	0.596922
H232	H	0.982905	1.062742	-0.229661
H233	H	1.316238	1.396075	0.103672
H234	H	1.649572	1.729408	0.437005
H235	H	0.670061	0.229955	-0.229525
H236	H	1.003394	0.563288	0.103809
H237	H	1.336727	0.896622	0.437142
H238	H	0.149952	0.229858	-0.229709
H239	H	0.483286	0.563191	0.103624
H240	H	0.816619	0.896525	0.436958
C241	C	0.825181	0.387544	-0.669319
C242	C	1.158515	0.720877	-0.335986
C243	C	1.491848	1.054211	-0.002652
N244	N	0.791805	0.420893	-0.696406
N245	N	1.125139	0.754227	-0.363072
N246	N	1.458472	1.087560	-0.029739
C247	C	0.679476	0.387791	-0.386076
C248	C	1.012810	0.721124	-0.052742
C249	C	1.346143	1.054457	0.280591
N250	N	0.706711	0.421206	-0.419207
N251	N	1.040044	0.754539	-0.085874
N252	N	1.373377	1.087872	0.247460
C253	C	0.278612	0.218367	-0.218227
C254	C	0.611946	0.551700	0.115107
C255	C	0.945279	0.885033	0.448440
N256	N	0.305838	0.184966	-0.185074
N257	N	0.639172	0.518300	0.148260
N258	N	0.972505	0.851633	0.481593
H259	H	0.900722	0.405829	-0.861838
H260	H	1.234055	0.739162	-0.528504
H261	H	1.567388	1.072495	-0.195171
H262	H	0.918849	0.200063	-0.743139
H263	H	1.252183	0.533397	-0.409806
H264	H	1.585516	0.866730	-0.076473
C265	C	0.994378	0.934076	-0.218207
C266	C	1.327711	1.267409	0.115126
C267	C	1.661045	1.600742	0.448460
N268	N	1.027753	0.906822	-0.185055
N269	N	1.361087	1.240156	0.148279
N270	N	1.694420	1.573489	0.481612
C271	C	0.825172	0.387592	-0.531906
C272	C	1.158505	0.720925	-0.198573
C273	C	1.491838	1.054259	0.134760
N274	N	0.791794	0.420964	-0.504778
N275	N	1.125128	0.754297	-0.171444
N276	N	1.458461	1.087631	0.161889
C277	C	0.541424	0.387761	-0.386125
C278	C	0.874757	0.721094	-0.052791
C279	C	1.208090	1.054428	0.280542
N280	N	0.514195	0.421166	-0.419270
N281	N	0.847528	0.754500	-0.085937
N282	N	1.180862	1.087833	0.247396
C283	C	0.825190	0.934173	-0.386273
C284	C	1.158524	1.267506	-0.052940
C285	C	1.491857	1.600840	0.280394
N286	N	0.791810	0.906955	-0.419425
N287	N	1.125144	1.240288	-0.086092
N288	N	1.458477	1.573622	0.247241
H289	H	0.836733	1.062829	-0.374859
H290	H	1.170066	1.396163	-0.041526
H291	H	1.503399	1.729496	0.291807
H292	H	0.982778	0.661904	-0.229586
H293	H	1.316111	0.995238	0.103747
H294	H	1.649445	1.328571	0.437080
C295	C	0.825105	0.671390	-0.386226
C296	C	1.158438	1.004723	-0.052893
C297	C	1.491771	1.338056	0.280440
N298	N	0.791738	0.698640	-0.419390
N299	N	1.125071	1.031974	-0.086056
N300	N	1.458404	1.365307	0.247277
C301	C	0.825188	0.387455	-0.935546
C302	C	1.158521	0.720789	-0.602213
C303	C	1.491854	1.054122	-0.268880
N304	N	0.791808	0.420826	-0.908419
N305	N	1.125142	0.754160	-0.575085
N306	N	1.458475	1.087493	-0.241752
C307	C	0.994231	0.533239	-0.218112
C308	C	1.327565	0.866573	0.115221
C309	C	1.660898	1.199906	0.448554
N310	N	1.027591	0.505989	-0.184942
N311	N	1.360925	0.839322	0.148391
N312	N	1.694258	1.172656	0.481725
H313	H	0.836572	0.542721	-0.374762
H314	H	1.169905	0.876054	-0.041428
H315	H	1.503238	1.209387	0.291905
C316	C	0.278640	0.387706	-0.386225
C317	C	0.611973	0.721039	-0.052892
C318	C	0.945306	1.054372	0.280442
N319	N	0.305876	0.421115	-0.419360
N320	N	0.639209	0.754448	-0.086027
N321	N	0.972543	1.087782	0.247306
C322	C	0.994376	0.218288	-1.073073
C323	C	1.327709	0.551621	-0.739740
C324	C	1.661043	0.884954	-0.406407
N325	N	1.027756	0.184917	-1.100201
N326	N	1.361089	0.518250	-0.766867
N327	N	1.694423	0.851584	-0.433534
H328	H	0.550790	0.229941	-0.229567
H329	H	0.884123	0.563274	0.103767
H330	H	1.217457	0.896607	0.437100
H331	H	0.982861	0.229986	-0.541371
H332	H	1.316194	0.563319	-0.208038
H333	H	1.649528	0.896652	0.125295
C334	C	0.994378	0.218337	-0.935666
C335	C	1.327711	0.551671	-0.602332
C336	C	1.661044	0.885004	-0.268999
N337	N	1.027752	0.184981	-0.908586
N338	N	1.361086	0.518315	-0.575252
N339	N	1.694419	0.851648	-0.241919
H340	H	0.149980	0.376153	-0.374844
H341	H	0.483313	0.709486	-0.041511
H342	H	0.816646	1.042820	0.291823
H343	H	0.982857	0.229939	-0.660078
H344	H	1.316190	0.563272	-0.326745
H345	H	1.649524	0.896606	0.006589
H346	H	0.918850	0.200023	-0.861852
H347	H	1.252183	0.533356	-0.528518
H348	H	1.585516	0.866690	-0.195185
H349	H	0.836697	0.375898	-1.063616
H350	H	1.170030	0.709232	-0.730282
H351	H	1.503364	1.042565	-0.396949
C352	C	0.899301	0.422083	-0.733782
C353	C	1.232634	0.755416	-0.400448
C354	C	1.565968	1.088750	-0.067115
N355	N	0.895177	0.469089	-0.706676
N356	N	1.228510	0.802423	-0.373342
N357	N	1.561844	1.135756	-0.040009
