data_functionalizedCrystal
_audit_creation_method	'MofGen! by Chris Wilmer'
_symmetry_space_group_name_H-M	'P1'
_symmetry_Int_Tables_number	1
_symmetry_cell_setting	triclinic
loop_
_symmetry_equiv_pos_as_xyz
  x,y,z
_cell_length_a	16.974897
_cell_length_b	10.540510
_cell_length_c	15.455313
_cell_angle_alpha	92.694210
_cell_angle_beta	83.675220
_cell_angle_gamma	83.956223
loop_
_atom_site_label
_atom_site_type_symbol
_atom_site_fract_x
_atom_site_fract_y
_atom_site_fract_z
O1	O	1.057001	0.150608	-0.146246
O2	O	0.826141	0.172442	-0.130059
O3	O	0.946850	-0.023297	-0.138523
O4	O	0.936292	0.346348	-0.137783
O5	O	0.939948	-0.012150	0.006224
O6	O	0.819239	0.183590	0.014687
O7	O	1.050098	0.161756	-0.001500
Cu8	Cu	0.934038	0.173691	0.019810
Cu9	Cu	0.942202	0.160508	-0.151369
O10	O	0.929389	0.357496	0.006963
C11	C	0.793129	0.177389	-0.055613
C12	C	0.705046	0.175507	-0.049437
C13	C	0.667420	0.168550	-0.125430
C14	C	0.584654	0.166802	-0.119614
C15	C	0.539518	0.172003	-0.037805
C16	C	0.577149	0.178964	0.038194
C17	C	0.659912	0.180721	0.032378
C18	C	0.291589	0.167409	-0.011948
C19	C	0.208820	0.165648	-0.006137
C20	C	0.216331	0.153488	-0.163946
C21	C	0.299096	0.155238	-0.169755
C22	C	0.336720	0.162206	-0.093757
N23	N	0.454918	0.170212	-0.031858
N24	N	0.421317	0.164005	-0.099704
C25	C	0.942612	-0.065010	-0.066096
C26	C	0.940259	-0.205910	-0.065936
C27	C	1.024099	-0.425148	-0.071485
C28	C	1.026626	-0.278632	-0.071991
C29	C	0.899989	-0.256081	-0.145492
C30	C	0.898093	-0.402806	-0.145423
C31	C	0.888444	-0.389899	0.019306
C32	C	0.892489	-0.243562	0.020107
C33	C	1.083111	0.156809	-0.075948
C34	C	1.171194	0.158691	-0.082130
C35	C	0.933627	0.399208	-0.065465
C36	C	0.935981	0.540108	-0.065631
N37	N	0.928302	0.182962	0.140208
N38	N	0.947944	0.151226	-0.271767
C39	C	0.979602	0.099835	0.182005
C40	C	0.975271	0.106858	0.273116
C41	C	0.919644	0.197016	0.322429
C42	C	0.868339	0.280146	0.280626
C43	C	0.872666	0.273116	0.189516
C44	C	0.900966	0.227326	0.595320
C45	C	0.896644	0.234353	0.686435
C46	C	1.003576	0.061063	0.678920
C47	C	1.007901	0.054046	0.587809
C48	C	0.956593	0.137172	0.546014
N49	N	0.915218	0.204199	0.415559
N50	N	0.961016	0.129981	0.452885
H51	H	1.058393	-0.245471	-0.015168
H52	H	0.921743	-0.210935	0.078999
H53	H	1.045347	-0.006616	0.712958
Cl54	Cl	0.794766	-0.165121	0.034641
H55	H	0.851344	0.307775	0.726582
Cl56	Cl	0.707214	0.189473	0.127916
Cl57	Cl	0.808169	0.377619	0.136972
H58	H	0.859190	0.295013	0.561297
H59	H	0.823043	0.353550	0.320781
H60	H	0.185688	0.147818	-0.225820
Cl61	Cl	0.537356	0.158056	-0.215154
H62	H	1.054920	-0.463264	-0.014567
Cl63	Cl	1.080092	-0.500435	-0.166106
H64	H	0.823572	-0.410608	0.024410
H65	H	0.172069	0.169919	0.060486
Cl66	Cl	0.520405	0.185513	0.141042
Cl67	Cl	0.724156	0.162002	-0.228283
Cl68	Cl	0.338877	0.176167	0.083595
Cl69	Cl	0.951922	-0.216788	-0.243788
Cl70	Cl	1.049540	-0.013506	0.120021
Cl71	Cl	1.084711	-0.242982	-0.167397
Cl72	Cl	1.077834	-0.059294	0.525816
Cl73	Cl	0.355834	0.148692	-0.272606
Cl74	Cl	0.949296	-0.473255	-0.244083
Cl75	Cl	0.802051	-0.181161	-0.143363
H76	H	0.833674	-0.424696	-0.144639
H77	H	0.912902	-0.427847	0.080035
Cl78	Cl	1.039762	0.002353	0.325663
