data_functionalizedCrystal
_audit_creation_method	'MofGen! by Chris Wilmer'
_symmetry_space_group_name_H-M	'P1'
_symmetry_Int_Tables_number	1
_symmetry_cell_setting	triclinic
loop_
_symmetry_equiv_pos_as_xyz
  x,y,z
_cell_length_a	8.634740
_cell_length_b	19.188924
_cell_length_c	7.681481
_cell_angle_alpha	84.275467
_cell_angle_beta	96.618947
_cell_angle_gamma	91.856135
loop_
_atom_site_label
_atom_site_type_symbol
_atom_site_fract_x
_atom_site_fract_y
_atom_site_fract_z
O1	O	2.029893	0.233162	-0.146449
O2	O	1.581071	0.214083	-0.146451
O3	O	1.818442	0.122855	-0.146430
O4	O	1.792523	0.324390	-0.146471
O5	O	1.847658	0.111597	0.146431
O6	O	1.610288	0.202824	0.146409
O7	O	2.059110	0.221904	0.146411
Zn8	Zn	1.839338	0.210576	0.192908
Zn9	Zn	1.800843	0.225410	-0.192948
O10	O	1.821739	0.313131	0.146389
C11	C	1.538259	0.204131	-0.000021
C12	C	1.367163	0.191244	-0.000021
C13	C	1.832213	0.091157	0.000002
C14	C	1.829699	0.013480	0.000007
C15	C	1.812600	-0.016863	-0.159632
C16	C	1.810215	-0.089849	-0.159645
C17	C	1.824961	-0.132489	-0.000011
C18	C	1.842054	-0.102139	0.159649
C19	C	1.844423	-0.029154	0.159658
N20	N	1.920807	-0.250953	0.118802
N21	N	1.918558	-0.320285	0.118782
C22	C	1.817820	-0.352388	-0.000028
N23	N	1.719432	-0.312538	-0.118845
N24	N	1.721687	-0.243200	-0.118831
C25	C	1.822392	-0.211629	-0.000003
C26	C	1.798131	-0.461870	-0.159692
C27	C	1.795736	-0.534857	-0.159699
C28	C	1.827591	-0.547146	0.159600
C29	C	1.829970	-0.474160	0.159602
C30	C	1.815246	-0.431526	-0.000049
C31	C	2.101922	0.231855	-0.000023
C32	C	2.273017	0.244743	-0.000034
C33	C	1.807968	0.344829	-0.000046
C34	C	1.810480	0.422507	-0.000063
N35	N	1.865620	0.200453	0.456245
N36	N	1.774573	0.235528	-0.456285
H37	H	1.323315	0.300409	-0.000034
Cl38	Cl	1.631075	0.290803	0.427606
Cl39	Cl	1.289525	0.105302	0.000008
H40	H	1.800606	0.017846	-0.289632
H41	H	1.796281	-0.114558	-0.289646
Cl42	Cl	1.860579	-0.155743	0.360332
Cl43	Cl	1.865919	0.008992	0.360364
Cl44	Cl	1.779609	-0.408269	-0.360391
H45	H	1.781804	-0.559560	-0.289701
H46	H	1.839586	-0.581864	0.289577
H47	H	1.843907	-0.449455	0.289597
Cl48	Cl	2.009141	0.145185	0.572360
