data_functionalizedCrystal
_audit_creation_method	'MofGen! by Chris Wilmer'
_symmetry_space_group_name_H-M	'P1'
_symmetry_Int_Tables_number	1
_symmetry_cell_setting	triclinic
loop_
_symmetry_equiv_pos_as_xyz
  x,y,z
_cell_length_a	14.519731
_cell_length_b	14.044220
_cell_length_c	12.996460
_cell_angle_alpha	90.001035
_cell_angle_beta	90.006310
_cell_angle_gamma	88.438865
loop_
_atom_site_label
_atom_site_type_symbol
_atom_site_fract_x
_atom_site_fract_y
_atom_site_fract_z
O1	O	1.233889	0.124362	0.085572
O2	O	1.733889	0.624362	0.585572
O3	O	0.966594	0.138975	0.085574
O4	O	1.466594	0.638975	0.585574
O5	O	1.096229	-0.006323	0.085563
O6	O	1.596229	0.493677	0.585563
O7	O	1.104254	0.269660	0.085583
O8	O	1.604254	0.769660	0.585583
O9	O	1.096212	-0.006315	-0.085571
O10	O	1.596212	0.493685	0.414429
O11	O	0.966576	0.138983	-0.085560
O12	O	1.466576	0.638983	0.414440
O13	O	1.233872	0.124370	-0.085562
O14	O	1.733872	0.624370	0.414438
Cu15	Cu	1.100222	0.131677	-0.101187
Cu16	Cu	1.600222	0.631677	0.398813
Cu17	Cu	1.100243	0.131668	0.101199
Cu18	Cu	1.600243	0.631668	0.601199
O19	O	1.104236	0.269668	-0.085551
O20	O	1.604236	0.769668	0.414449
C21	C	0.932170	0.138295	0.000007
C22	C	1.432170	0.638295	0.500007
C23	C	0.829625	0.136243	0.000008
C24	C	1.329625	0.636243	0.500008
C25	C	1.092708	-0.041640	-0.000004
C26	C	1.592708	0.458360	0.499996
C27	C	1.082231	-0.146884	-0.000006
C28	C	1.582231	0.353116	0.499994
C29	C	0.746346	0.134575	0.000012
C30	C	1.246346	0.634575	0.500012
C31	C	0.641869	0.132492	0.000012
C32	C	1.141869	0.632492	0.500012
C33	C	0.558597	0.130839	0.000012
C34	C	1.058597	0.630839	0.500012
C35	C	0.454113	0.128756	0.000014
C36	C	0.954113	0.628756	0.500014
C37	C	1.063077	-0.339580	0.000009
C38	C	1.563077	0.160420	0.500009
C39	C	1.137385	-0.397081	0.000012
C40	C	1.637385	0.102919	0.500012
C41	C	1.126727	-0.504303	0.000020
C42	C	1.626727	-0.004303	0.500020
C43	C	1.073733	-0.232347	0.000001
C44	C	1.573733	0.267653	0.500001
C45	C	1.268295	0.125050	0.000007
C46	C	1.768295	0.625050	0.500007
C47	C	1.370841	0.127102	0.000014
C48	C	1.870841	0.627102	0.500014
C49	C	1.107757	0.304985	0.000019
C50	C	1.607757	0.804985	0.500019
C51	C	1.118234	0.410229	0.000027
C52	C	1.618234	0.910229	0.500027
N53	N	1.100214	0.131684	-0.243534
N54	N	1.600214	0.631684	0.256466
C55	C	1.100219	0.131686	-0.336640
C56	C	1.600219	0.631686	0.163360
C57	C	1.100227	0.131680	-0.453445
C58	C	1.600227	0.631680	0.046555
C59	C	1.100238	0.131669	-0.546543
C60	C	1.600238	0.631669	-0.046543
C61	C	1.100247	0.131664	-0.663356
C62	C	1.600247	0.631664	-0.163356
N63	N	1.100258	0.131654	0.243546
N64	N	1.600258	0.631654	0.743546
H65	H	1.209006	-0.365783	0.000080
H66	H	1.709006	0.134217	0.500080
H67	H	0.991461	-0.370876	0.000012
H68	H	1.491461	0.129124	0.500012
