data_functionalizedCrystal
_audit_creation_method	'MofGen! by Chris Wilmer'
_symmetry_space_group_name_H-M	'P1'
_symmetry_Int_Tables_number	1
_symmetry_cell_setting	triclinic
loop_
_symmetry_equiv_pos_as_xyz
  x,y,z
_cell_length_a	10.654541
_cell_length_b	10.654555
_cell_length_c	17.766277
_cell_angle_alpha	89.996225
_cell_angle_beta	89.992000
_cell_angle_gamma	84.486741
loop_
_atom_site_label
_atom_site_type_symbol
_atom_site_fract_x
_atom_site_fract_y
_atom_site_fract_z
O1	O	1.667860	0.176386	-0.062567
O2	O	1.302381	0.193195	-0.062573
O3	O	1.493516	0.002052	-0.062569
O4	O	1.476725	0.367529	-0.062570
O5	O	1.493482	0.002042	0.062619
O6	O	1.302347	0.193185	0.062616
O7	O	1.667826	0.176375	0.062622
Cu8	Cu	1.485083	0.184779	0.074050
Cu9	Cu	1.485124	0.184791	-0.074000
O10	O	1.476691	0.367519	0.062619
C11	C	1.255566	0.191956	0.000021
C12	C	1.116123	0.188265	0.000018
C13	C	1.492263	-0.044751	0.000023
C14	C	1.488566	-0.184194	0.000019
C15	C	1.088161	0.416829	0.000008
C16	C	1.008671	0.529372	0.000001
C17	C	0.877653	0.525896	-0.000000
C18	C	0.826123	0.409865	0.000009
C19	C	0.905613	0.297323	0.000017
C20	C	1.036633	0.300811	0.000016
C21	C	0.933574	0.068762	0.000032
C22	C	1.064593	0.072235	0.000028
C23	C	0.882044	-0.047268	0.000042
C24	C	0.961534	-0.159814	0.000044
C25	C	1.092560	-0.156333	0.000044
C26	C	1.144082	-0.040308	0.000036
C27	C	1.481589	-0.446236	0.136508
C28	C	1.483302	-0.380727	0.204750
C29	C	1.486770	-0.249708	0.204750
C30	C	1.488522	-0.184195	0.136501
C31	C	1.486810	-0.249704	0.068260
C32	C	1.483345	-0.380726	0.068267
C33	C	1.486853	-0.249703	-0.068223
C34	C	1.483394	-0.380723	-0.068225
C35	C	1.488605	-0.184189	-0.136471
C36	C	1.486902	-0.249700	-0.204715
C37	C	1.483434	-0.380727	-0.204712
C38	C	1.481681	-0.446232	-0.136466
C39	C	1.714641	0.177614	0.000027
C40	C	1.854084	0.181305	0.000024
C41	C	1.477944	0.414321	0.000024
C42	C	1.481641	0.553764	0.000024
N43	N	1.485064	0.184770	0.178180
N44	N	1.485153	0.184790	-0.178131
C45	C	1.569727	0.100174	0.217568
C46	C	1.569734	0.100168	0.296370
C47	C	1.485091	0.184780	0.335781
C48	C	1.400412	0.269383	0.296383
C49	C	1.400399	0.269377	0.217582
C50	C	1.469636	0.299018	0.460618
C51	C	1.469658	0.299025	0.539417
C52	C	1.485125	0.184796	0.578827
C53	C	1.500596	0.070555	0.539428
C54	C	1.500582	0.070550	0.460628
C55	C	1.485095	0.184795	0.421226
C56	C	1.569800	0.100186	0.703661
C57	C	1.569798	0.100179	0.782464
C58	C	1.400482	0.269404	0.782475
C59	C	1.400478	0.269401	0.703674
C60	C	1.485143	0.184793	0.664271
H61	H	1.194841	0.419670	-0.000008
H62	H	1.457020	0.392043	0.428537
H63	H	1.050642	0.623842	-0.000005
H64	H	0.919567	-0.254277	0.000052
Br65	Br	0.769769	0.678632	-0.000001
Br66	Br	1.493181	-0.006376	0.136503
H67	H	1.157274	-0.247980	0.000054
Br68	Br	1.481094	-0.469619	-0.297331
Br69	Br	1.684695	-0.014650	0.835925
H70	H	1.481872	-0.434082	0.260317
Br71	Br	0.648311	0.405151	0.000025
Br72	Br	0.704233	-0.051988	0.000047
Br73	Br	1.489086	-0.160796	0.297363
Br74	Br	1.321892	-0.035575	0.000029
Br75	Br	1.684622	-0.014651	0.164093
Br76	Br	1.476916	-0.624052	0.136513
Br77	Br	1.684641	-0.014652	0.349836
Br78	Br	1.493277	-0.006372	-0.136473
Br79	Br	1.489288	-0.160786	-0.297328
Br80	Br	1.476989	-0.624046	-0.136457
H81	H	1.513176	-0.022468	0.428553
Br82	Br	1.285490	0.384194	0.164122
Br83	Br	1.285529	0.384206	0.349865
Br84	Br	1.285578	0.384219	0.650212
Br85	Br	1.521603	-0.084481	0.592902
Br86	Br	1.684697	-0.014641	0.650185
Br87	Br	1.285595	0.384223	0.835954
H88	H	1.457069	0.392046	0.571489
