data_functionalizedCrystal
_audit_creation_method	'MofGen! by Chris Wilmer'
_symmetry_space_group_name_H-M	'P1'
_symmetry_Int_Tables_number	1
_symmetry_cell_setting	triclinic
loop_
_symmetry_equiv_pos_as_xyz
  x,y,z
_cell_length_a	10.540539
_cell_length_b	10.540539
_cell_length_c	9.016244
_cell_angle_alpha	90.000067
_cell_angle_beta	89.996218
_cell_angle_gamma	95.474508
loop_
_atom_site_label
_atom_site_type_symbol
_atom_site_fract_x
_atom_site_fract_y
_atom_site_fract_z
O1	O	1.685893	-0.178895	-0.123210
O2	O	1.316480	-0.195751	-0.123240
O3	O	1.509614	-0.002617	-0.123222
O4	O	1.492759	-0.372030	-0.123228
O5	O	1.509586	-0.002621	0.123458
O6	O	1.316452	-0.195755	0.123441
O7	O	1.685865	-0.178900	0.123470
Cu8	Cu	1.501156	-0.187328	0.145980
Cu9	Cu	1.501189	-0.187323	-0.145749
O10	O	1.492730	-0.372034	0.123453
C11	C	1.508336	0.044684	0.000115
C12	C	1.504554	0.185632	0.000107
C13	C	1.269163	-0.194489	0.000097
C14	C	1.128215	-0.190707	0.000086
C15	C	1.733182	-0.180161	0.000130
C16	C	1.874130	-0.183943	0.000132
C17	C	2.057557	-0.328861	0.000650
C18	C	1.910939	-0.325027	0.000119
C19	C	1.935778	-0.116045	-0.140742
C20	C	2.082322	-0.120860	-0.140885
C21	C	2.082860	-0.117996	0.139637
C22	C	1.935878	-0.116697	0.141524
C23	C	1.494008	-0.419335	0.000112
C24	C	1.497790	-0.560283	0.000111
N25	N	1.501141	-0.187331	0.351166
C26	C	1.359637	0.369059	-0.000458
C27	C	1.363471	0.222441	0.000097
C28	C	1.572434	0.247287	0.140979
C29	C	1.567619	0.393832	0.141097
C30	C	1.570520	0.394355	-0.139425
C31	C	1.571820	0.247373	-0.141287
N32	N	1.501213	-0.187310	-0.350935
C33	C	1.397510	-0.290298	0.586189
C34	C	1.397739	-0.290684	0.414298
C35	C	1.633864	-0.217464	0.413514
C36	C	1.633298	-0.218193	0.585459
C37	C	1.473367	-0.053892	0.585709
C38	C	1.470322	-0.054757	0.413754
H39	H	1.868341	-0.378459	0.101098
C40	C	1.345363	-0.015164	0.644332
H41	H	1.330383	0.065602	0.604772
H42	H	1.278568	-0.076914	0.614897
H43	H	1.348177	-0.010276	0.749508
C44	C	1.508695	0.189760	0.282592
H45	H	1.440728	0.128184	0.256168
H46	H	1.569667	0.150186	0.339595
H47	H	1.476338	0.255429	0.339366
H48	H	1.676041	0.224933	0.146225
H49	H	1.415177	-0.388722	0.629383
H50	H	1.658762	-0.313702	0.370437
C51	C	1.264498	-0.266281	0.357339
H52	H	1.264456	-0.266503	0.251970
H53	H	1.203453	-0.331401	0.392671
H54	H	1.243386	-0.185887	0.392226
H55	H	1.517429	0.422030	0.246394
H56	H	1.303918	0.397661	-0.101480
H57	H	1.522153	0.206517	-0.245500
C58	C	2.096209	-0.404165	0.137094
H59	H	2.155791	-0.352032	0.194938
H60	H	2.022796	-0.429024	0.195114
H61	H	2.133919	-0.477892	0.105400
C62	C	2.098333	-0.403839	-0.135069
H63	H	2.158228	-0.351313	-0.192077
H64	H	2.136211	-0.477253	-0.102696
H65	H	2.025708	-0.429185	-0.194185
C66	C	2.125480	-0.179687	0.283864
H67	H	2.171338	-0.250374	0.260315
H68	H	2.178713	-0.118929	0.338864
H69	H	2.052669	-0.207853	0.341376
C70	C	1.740752	-0.120800	0.641652
H71	H	1.784565	-0.080973	0.559391
H72	H	1.705289	-0.058100	0.700209
H73	H	1.798712	-0.163257	0.700002
C74	C	1.854507	-0.397729	-0.136490
H75	H	1.921207	-0.429709	-0.191889
H76	H	1.796068	-0.466659	-0.105029
H77	H	1.811448	-0.341668	-0.196845
H78	H	1.712919	-0.144501	0.372617
H79	H	2.130290	-0.019395	-0.147303
H80	H	1.309661	0.180683	0.101240
C81	C	1.508851	0.436971	-0.283665
H82	H	1.438162	0.482831	-0.260132
H83	H	1.569618	0.490201	-0.338665
H84	H	1.480693	0.364158	-0.341170
C85	C	1.710791	0.214696	-0.152756
H86	H	1.749042	0.253218	-0.239125
H87	H	1.756766	0.245844	-0.067561
H88	H	1.712302	0.124866	-0.158672
H89	H	1.298584	-0.272446	0.627575
H90	H	1.372684	-0.031916	0.373005
C91	C	1.708181	0.458150	-0.140710
H92	H	1.751650	0.430361	-0.225270
H93	H	1.706887	0.548086	-0.144327
H94	H	1.750939	0.435340	-0.053319
H95	H	1.304121	0.399265	0.099989
H96	H	1.540849	0.025564	0.370784
H97	H	1.669083	0.441800	0.147496
H98	H	1.415639	-0.389668	0.373152
C99	C	1.666182	-0.349689	0.639626
H100	H	1.679754	-0.402162	0.556546
H101	H	1.741331	-0.339675	0.698280
H102	H	1.597724	-0.388368	0.697446
C103	C	1.575498	0.049665	0.640644
H104	H	1.634828	0.011848	0.701895
H105	H	1.618768	0.089352	0.557957
H106	H	1.535904	0.111669	0.696007
H107	H	1.911660	-0.013836	0.150036
C108	C	2.120414	-0.188656	-0.283131
H109	H	2.046357	-0.213007	-0.340283
H110	H	2.177464	-0.132465	-0.339462
H111	H	2.160898	-0.262347	-0.257399
H112	H	1.893136	-0.163175	-0.245566
C113	C	1.905576	0.023916	-0.147833
H114	H	1.943755	0.063161	-0.233837
H115	H	1.815892	0.027146	-0.152041
H116	H	1.938469	0.067794	-0.061997
C117	C	1.880589	-0.183706	0.282320
H118	H	1.918317	-0.142593	0.367474
H119	H	1.790995	-0.179487	0.284935
H120	H	1.898362	-0.270382	0.281421
C121	C	2.146655	0.019664	0.140920
H122	H	2.200677	0.032814	0.056873
H123	H	2.082962	0.077580	0.137841
H124	H	2.195711	0.033512	0.228826
C125	C	1.291300	0.164881	-0.136305
H126	H	1.259364	0.231100	-0.192554
H127	H	1.347632	0.121482	-0.195905
H128	H	1.222349	0.106565	-0.104597
