data_functionalizedCrystal
_audit_creation_method	'MofGen! by Chris Wilmer'
_symmetry_space_group_name_H-M	'P1'
_symmetry_Int_Tables_number	1
_symmetry_cell_setting	triclinic
loop_
_symmetry_equiv_pos_as_xyz
  x,y,z
_cell_length_a	17.019383
_cell_length_b	17.038272
_cell_length_c	14.421503
_cell_angle_alpha	90.004327
_cell_angle_beta	86.116405
_cell_angle_gamma	87.246883
loop_
_atom_site_label
_atom_site_type_symbol
_atom_site_fract_x
_atom_site_fract_y
_atom_site_fract_z
O1	O	1.053363	0.099636	-0.161143
O2	O	0.824551	0.112327	-0.142892
O3	O	0.937597	-0.007832	-0.151902
O4	O	0.940317	0.219796	-0.152133
O5	O	0.937578	-0.007815	0.002323
O6	O	0.824532	0.112345	0.011333
O7	O	1.053344	0.099654	-0.006918
Cu8	Cu	0.938936	0.106001	0.016289
Cu9	Cu	0.938959	0.105980	-0.166100
O10	O	0.940298	0.219814	0.002091
C11	C	0.795120	0.111853	-0.063433
C12	C	0.707454	0.110405	-0.056440
C13	C	0.666271	0.109717	-0.137216
C14	C	0.583898	0.108369	-0.130631
C15	C	0.542709	0.107703	-0.043270
C16	C	0.583898	0.108394	0.037511
C17	C	0.666269	0.109748	0.030926
C18	C	0.294001	0.103621	-0.019182
C19	C	0.211624	0.102265	-0.012603
C20	C	0.211630	0.102241	-0.180746
C21	C	0.294003	0.103590	-0.187324
C22	C	0.335184	0.104285	-0.106542
C23	C	0.458511	0.106322	-0.036538
C24	C	0.419380	0.105671	-0.113275
C25	C	0.935114	-0.036950	-0.074592
C26	C	0.927734	-0.123737	-0.074004
C27	C	0.995493	-0.173906	-0.079408
C28	C	0.988554	-0.255451	-0.078863
C29	C	0.913854	-0.286825	-0.072908
C30	C	0.846089	-0.236649	-0.067506
C31	C	0.853029	-0.155106	-0.068057
C32	C	0.889337	-0.532563	-0.070965
C33	C	0.882402	-0.614112	-0.070411
C34	C	1.024867	-0.632909	-0.081769
C35	C	1.031800	-0.551363	-0.082315
C36	C	0.964036	-0.501194	-0.076918
C37	C	0.906759	-0.370177	-0.072348
C38	C	0.971131	-0.417844	-0.077485
C39	C	1.082775	0.100128	-0.086380
C40	C	1.170441	0.101576	-0.093379
C41	C	0.942781	0.248931	-0.075220
C42	C	0.950161	0.335718	-0.075815
N43	N	0.938926	0.106016	0.144571
N44	N	0.938974	0.105960	-0.294382
C45	C	0.886642	0.161553	0.398392
C46	C	0.958934	0.176650	0.454427
C47	C	0.938944	0.105997	0.333731
C48	C	0.866672	0.090918	0.461788
C49	C	0.938955	0.105981	0.516452
C50	C	1.011275	0.121130	0.388403
C51	C	0.918963	0.035367	0.395762
C52	C	0.991305	0.050434	0.451766
C53	C	0.938937	0.106008	0.228471
C54	C	0.938971	0.105969	0.621710
H55	H	0.452919	0.106218	-0.184404
O56	O	0.834154	-0.400560	-0.066431
C57	C	0.792512	-0.374934	0.016779
H58	H	0.817797	-0.318399	0.041396
H59	H	0.727587	-0.363549	0.003995
H60	H	0.798478	-0.422131	0.072229
H61	H	0.550356	0.107856	0.108643
H62	H	0.699799	0.110311	0.096703
H63	H	0.975845	0.236373	0.480247
O64	O	0.418471	0.105532	0.048299
C65	C	0.375191	0.037085	0.056775
H66	H	0.403084	-0.009814	0.006845
H67	H	0.375717	0.014361	0.131089
H68	H	0.311775	0.051361	0.039245
H69	H	1.056322	-0.148368	-0.084251
O70	O	0.809850	-0.644625	-0.064467
C71	C	0.801566	-0.691237	0.016057
H72	H	0.844068	-0.671991	0.068497
H73	H	0.738482	-0.683847	0.047894
H74	H	0.815448	-0.755565	-0.003104
O75	O	0.787265	-0.106290	-0.062687
C76	C	0.786993	-0.058566	0.017219
H77	H	0.849873	-0.054509	0.038836
H78	H	0.761728	0.002752	0.001267
H79	H	0.749157	-0.085348	0.076166
O80	O	1.054317	-0.304267	-0.083985
C81	C	1.054562	-0.351986	-0.004125
H82	H	0.991673	-0.356037	0.027519
H83	H	1.079829	-0.413306	-0.024111
H84	H	1.092382	-0.325201	0.048793
H85	H	0.805548	0.078171	0.493835
H86	H	1.072417	0.133948	0.356471
O87	O	1.044193	-0.005638	0.479528
C88	C	1.081546	-0.044389	0.400896
H89	H	1.077773	-0.004656	0.337599
H90	H	1.146075	-0.058735	0.413424
H91	H	1.050998	-0.101110	0.388082
H92	H	1.092629	-0.525825	-0.087164
H93	H	1.080037	-0.673764	-0.086165
O94	O	0.898814	-0.035823	0.364767
C95	C	0.899781	-0.035012	0.266935
H96	H	0.939761	0.012445	0.238547
H97	H	0.922944	-0.094709	0.238323
H98	H	0.837424	-0.022118	0.244826
O99	O	0.823432	-0.483948	-0.065663
C100	C	0.756015	-0.529129	-0.060304
H101	H	0.771953	-0.590009	-0.032382
H102	H	0.708197	-0.498995	-0.011709
H103	H	0.733380	-0.534915	-0.132486
O104	O	0.171580	0.101713	-0.259184
C105	C	0.119534	0.168596	-0.260046
H106	H	0.141292	0.216309	-0.214079
H107	H	0.117128	0.191291	-0.334210
H108	H	0.058098	0.152272	-0.232549
O109	O	0.834037	0.217684	0.370133
C110	C	0.873744	0.271555	0.311872
H111	H	0.930987	0.242311	0.280161
H112	H	0.834718	0.290916	0.254039
H113	H	0.887633	0.325000	0.354303
H114	H	0.699800	0.110256	-0.208354
H115	H	0.550370	0.107808	-0.196408
H116	H	0.178090	0.101745	0.058541
H117	H	0.785267	-0.262200	-0.062663
O118	O	0.333886	0.104266	-0.272260
C119	C	0.279874	0.103346	-0.342146
H120	H	0.219555	0.127130	-0.312685
H121	H	0.301220	0.141659	-0.402658
H122	H	0.275173	0.040507	-0.367605
O123	O	1.043709	-0.387408	-0.083436
C124	C	1.085372	-0.413069	-0.166618
H125	H	1.041799	-0.429996	-0.218973
H126	H	1.122244	-0.363704	-0.196367
H127	H	1.125763	-0.466257	-0.151777
O128	O	0.333878	0.104255	0.059379
C129	C	0.279857	0.103394	0.137894
H130	H	0.222746	0.077683	0.117811
H131	H	0.306113	0.065857	0.194599
H132	H	0.267029	0.165942	0.164762
