data_functionalizedCrystal
_audit_creation_method	'MofGen! by Chris Wilmer'
_symmetry_space_group_name_H-M	'P1'
_symmetry_Int_Tables_number	1
_symmetry_cell_setting	triclinic
loop_
_symmetry_equiv_pos_as_xyz
  x,y,z
_cell_length_a	13.339070
_cell_length_b	19.188924
_cell_length_c	11.804365
_cell_angle_alpha	101.787608
_cell_angle_beta	74.875130
_cell_angle_gamma	99.385629
loop_
_atom_site_label
_atom_site_type_symbol
_atom_site_fract_x
_atom_site_fract_y
_atom_site_fract_z
O1	O	1.361219	0.339588	-0.099091
O2	O	1.861219	0.839588	0.400909
O3	O	1.066894	0.293686	-0.099082
O4	O	1.566894	0.793686	0.400918
O5	O	1.222551	0.216646	-0.099073
O6	O	1.722551	0.716646	0.400927
O7	O	1.205562	0.416627	-0.099100
O8	O	1.705562	0.916627	0.400900
O9	O	1.181572	0.236899	0.098981
O10	O	1.681572	0.736899	0.598981
O11	O	1.025916	0.313939	0.098972
O12	O	1.525916	0.813939	0.598972
O13	O	1.320240	0.359841	0.098962
O14	O	1.820240	0.859841	0.598962
Cu15	Cu	1.169336	0.338739	0.117051
Cu16	Cu	1.669336	0.838739	0.617051
Cu17	Cu	1.217798	0.314788	-0.117170
Cu18	Cu	1.717798	0.814788	0.382830
O19	O	1.164584	0.436881	0.098953
O20	O	1.664584	0.936881	0.598953
C21	C	1.008750	0.296058	-0.000053
C22	C	1.508750	0.796058	0.499947
C23	C	0.896550	0.272946	-0.000049
C24	C	1.396550	0.772946	0.499951
C25	C	1.201512	0.200654	-0.000045
C26	C	1.701512	0.700654	0.499955
C27	C	1.199863	0.122827	-0.000042
C28	C	1.699863	0.622827	0.499958
C29	C	0.530965	0.452654	-0.000092
C30	C	1.030965	0.952654	0.499908
C31	C	0.636382	0.474371	-0.000100
C32	C	1.136382	0.974371	0.499900
C33	C	0.701429	0.424017	-0.000087
C34	C	1.201429	0.924017	0.499913
C35	C	0.661049	0.351942	-0.000067
C36	C	1.161049	0.851942	0.499933
C37	C	0.555623	0.330222	-0.000068
C38	C	1.055623	0.830222	0.499932
C39	C	0.726088	0.301584	-0.000063
C40	C	1.226088	0.801584	0.499937
C41	C	0.685707	0.229509	-0.000043
C42	C	1.185707	0.729509	0.499957
C43	C	0.580291	0.207793	-0.000043
C44	C	1.080291	0.707793	0.499957
C45	C	0.515244	0.258147	-0.000057
C46	C	1.015244	0.758147	0.499943
C47	C	0.831513	0.323304	-0.000061
C48	C	1.331513	0.823304	0.499939
C49	C	0.856172	0.200872	-0.000037
C50	C	1.356172	0.700872	0.499963
C51	C	0.750754	0.179155	-0.000029
C52	C	1.250754	0.679155	0.499971
C53	C	1.221431	0.075238	-0.108001
C54	C	1.721431	0.575238	0.391999
C55	C	1.219869	0.002108	-0.108010
C56	C	1.719869	0.502108	0.391990
C57	C	1.196759	-0.023427	-0.000053
C58	C	1.696759	0.476573	0.499947
C59	C	1.175183	0.024172	0.107920
C60	C	1.675183	0.524172	0.607920
C61	C	1.176735	0.097299	0.107926
C62	C	1.676735	0.597299	0.607926
N63	N	1.235214	-0.124087	0.080294
N64	N	1.735214	0.375913	0.580294
N65	N	1.233744	-0.193556	0.080281
N66	N	1.733744	0.306444	0.580281
C67	C	1.192080	-0.243754	-0.000065
C68	C	1.692080	0.256246	0.499935
N69	N	1.151958	-0.221861	-0.080415
N70	N	1.651958	0.278139	0.419585
N71	N	1.153434	-0.152386	-0.080406
N72	N	1.653434	0.347614	0.419594
C73	C	1.195073	-0.102720	-0.000048
C74	C	1.695073	0.397280	0.499952
C75	C	1.211954	-0.370640	-0.108041
C76	C	1.711954	0.129360	0.391959
C77	C	1.210386	-0.443772	-0.108046
C78	C	1.710386	0.056228	0.391954
C79	C	1.165709	-0.421704	0.107887
C80	C	1.665709	0.078296	0.607887
C81	C	1.167268	-0.348576	0.107889
C82	C	1.667268	0.151424	0.607889
C83	C	1.190396	-0.323048	-0.000079
C84	C	1.690396	0.176952	0.499921
C85	C	1.378385	0.357468	-0.000069
C86	C	1.878385	0.857468	0.499931
C87	C	1.490586	0.380580	-0.000081
C88	C	1.990586	0.880580	0.499919
C89	C	1.185623	0.452872	-0.000077
C90	C	1.685623	0.952872	0.499923
C91	C	1.187274	0.530699	-0.000088
C92	C	1.687274	1.030699	0.499912
N93	N	1.135259	0.355587	0.281790
N94	N	1.635259	0.855587	0.781790
N95	N	1.251884	0.297936	-0.281909
N96	N	1.751884	0.797936	0.218091
C97	C	1.333717	0.257466	0.655750
C98	C	1.833717	0.757466	1.155750
C99	C	1.359496	0.244718	0.531089
C100	C	1.859496	0.744718	1.031089
C101	C	1.303439	0.272434	0.468758
C102	C	1.803439	0.772434	0.968758
C103	C	1.221599	0.312901	0.531100
C104	C	1.721599	0.812901	1.031100
C105	C	1.195823	0.325655	0.655772
C106	C	1.695823	0.825655	1.155772
C107	C	1.165544	0.340622	0.468781
C108	C	1.665544	0.840622	0.968781
C109	C	1.083704	0.381089	0.531122
C110	C	1.583704	0.881089	1.031122
C111	C	1.057932	0.393840	0.655783
C112	C	1.557932	0.893840	1.155783
C113	C	1.113989	0.366125	0.718114
C114	C	1.613989	0.866125	1.218114
C115	C	1.191320	0.327868	0.344108
C116	C	1.691320	0.827868	0.844108
C117	C	1.053425	0.396057	0.344131
C118	C	1.553425	0.896057	0.844131
C119	C	1.027646	0.408805	0.468791
C120	C	1.527646	0.908805	0.968791
H121	H	0.787265	0.441703	-0.000096
H122	H	1.287265	0.941703	0.499904
N123	N	0.992957	0.425945	0.276907
N124	N	1.492957	0.925945	0.776907
H125	H	0.916772	0.406206	0.298623
H126	H	1.416772	0.906206	0.798623
H127	H	0.999968	0.479932	0.298607
H128	H	1.499968	0.979932	0.798607
H129	H	0.669254	0.533054	-0.000126
H130	H	1.169254	1.033054	0.499874
H131	H	0.547420	0.149103	-0.000040
H132	H	1.047420	0.649103	0.499960
N133	N	1.279575	0.284221	0.276862
N134	N	1.779575	0.784221	0.776862
H135	H	1.346792	0.308397	0.298534
H136	H	1.846792	0.808397	0.798534
H137	H	1.263579	0.234679	0.298596
H138	H	1.763579	0.734679	0.798596
H139	H	0.864379	0.381989	-0.000073
H140	H	1.364379	0.881989	0.499927
H141	H	1.149713	-0.309826	0.195801
H142	H	1.649713	0.190174	0.695801
H143	H	1.159167	0.136048	0.195842
H144	H	1.659167	0.636048	0.695842
N145	N	1.246403	0.102771	-0.224449
N146	N	1.746403	0.602771	0.275551
H147	H	1.244129	0.156321	-0.208067
H148	H	1.744129	0.656321	0.291933
H149	H	1.318539	0.091639	-0.271557
H150	H	1.818539	0.591639	0.228443
H151	H	0.477998	0.493644	-0.000113
H152	H	0.977998	0.993644	0.499887
N153	N	0.401535	0.234724	-0.000020
N154	N	0.901535	0.734724	0.499980
H155	H	0.366458	0.277563	-0.000016
H156	H	0.866458	0.777563	0.499984
H157	H	0.396241	0.197934	-0.073429
H158	H	0.896241	0.697934	0.426571
H159	H	1.324431	0.262053	0.367254
H160	H	1.824431	0.762053	0.867254
N161	N	0.707195	0.101419	0.000001
N162	N	1.207195	0.601419	0.500001
H163	H	0.630542	0.095305	0.000002
H164	H	1.130542	0.595305	0.500002
H165	H	0.746194	0.070969	-0.073412
H166	H	1.246194	0.570969	0.426588
H167	H	1.146884	-0.442494	0.195788
H168	H	1.646884	0.057506	0.695788
H169	H	1.156363	0.003377	0.195819
H170	H	1.656363	0.503377	0.695819
H171	H	1.426130	0.211772	0.480336
H172	H	1.926130	0.711772	0.980336
N173	N	0.926309	0.146550	-0.000021
N174	N	1.426309	0.646550	0.499979
H175	H	0.985793	0.145324	-0.073437
H176	H	1.485793	0.645324	0.426563
H177	H	0.955326	0.160371	0.073449
H178	H	1.455326	0.660371	0.573449
H179	H	1.230781	-0.349855	-0.195955
H180	H	1.730781	0.150145	0.304045
N181	N	1.243125	-0.049234	-0.224455
N182	N	1.743125	0.450766	0.275545
H183	H	1.258009	-0.021966	-0.292850
H184	H	1.758009	0.478034	0.207150
H185	H	1.306097	-0.073581	-0.229155
H186	H	1.806097	0.426419	0.270845
N187	N	1.233734	-0.495096	-0.224493
N188	N	1.733734	0.004904	0.275507
H189	H	1.248653	-0.467821	-0.292884
H190	H	1.748653	0.032179	0.207116
H191	H	1.296719	-0.519409	-0.229116
H192	H	1.796719	-0.019409	0.270884
H193	H	1.379357	0.234908	0.706508
H194	H	1.879357	0.734908	1.206508
N195	N	1.086182	0.379875	0.852573
N196	N	1.586182	0.879875	1.352573
H197	H	1.134111	0.356174	0.882593
H198	H	1.634111	0.856174	1.382593
H199	H	1.094450	0.433206	0.882496
H200	H	1.594450	0.933206	1.382496
H201	H	0.991301	0.426797	0.706541
H202	H	1.491301	0.926797	1.206541
N203	N	0.939377	0.452448	0.536035
N204	N	1.439377	0.952448	1.036035
H205	H	0.931558	0.456319	0.624466
H206	H	1.431558	0.956319	1.124466
H207	H	0.955328	0.501974	0.514238
H208	H	1.455328	1.001974	1.014238
