data_functionalizedCrystal
_audit_creation_method	'MofGen! by Chris Wilmer'
_symmetry_space_group_name_H-M	'P1'
_symmetry_Int_Tables_number	1
_symmetry_cell_setting	triclinic
loop_
_symmetry_equiv_pos_as_xyz
  x,y,z
_cell_length_a	14.519709
_cell_length_b	14.519731
_cell_length_c	14.586319
_cell_angle_alpha	89.995223
_cell_angle_beta	90.002108
_cell_angle_gamma	83.684499
loop_
_atom_site_label
_atom_site_type_symbol
_atom_site_fract_x
_atom_site_fract_y
_atom_site_fract_z
O1	O	1.223876	0.120889	-0.076123
O2	O	1.557209	0.454222	0.257210
O3	O	1.890542	0.787556	0.590544
O4	O	0.955400	0.135125	-0.076151
O5	O	1.288733	0.468459	0.257182
O6	O	1.622066	0.801792	0.590515
O7	O	1.096746	-0.006230	-0.076128
O8	O	1.430079	0.327103	0.257205
O9	O	1.763412	0.660437	0.590539
O10	O	1.082530	0.262244	-0.076146
O11	O	1.415863	0.595578	0.257187
O12	O	1.749196	0.928911	0.590520
O13	O	1.096736	-0.006232	0.076353
O14	O	1.430069	0.327101	0.409686
O15	O	1.763402	0.660435	0.743019
O16	O	0.955390	0.135123	0.076329
O17	O	1.288723	0.468457	0.409663
O18	O	1.622057	0.801790	0.742996
O19	O	1.223866	0.120887	0.076358
O20	O	1.557199	0.454220	0.409691
O21	O	1.890532	0.787553	0.743024
Cu22	Cu	1.089627	0.128005	0.090266
Cu23	Cu	1.422960	0.461338	0.423600
Cu24	Cu	1.756294	0.794671	0.756933
Cu25	Cu	1.089639	0.128007	-0.090060
Cu26	Cu	1.422972	0.461341	0.243273
Cu27	Cu	1.756305	0.794674	0.576607
O28	O	1.082520	0.262242	0.076335
O29	O	1.415853	0.595575	0.409668
O30	O	1.749186	0.928909	0.743001
C31	C	0.921035	0.134461	0.000086
C32	C	1.254368	0.467794	0.333419
C33	C	1.587702	0.801127	0.666752
C34	C	0.818654	0.132473	0.000075
C35	C	1.151987	0.465806	0.333408
C36	C	1.485320	0.799139	0.666742
C37	C	1.096075	-0.040591	0.000112
C38	C	1.429408	0.292743	0.333446
C39	C	1.762741	0.626076	0.666779
C40	C	1.094079	-0.142971	0.000113
C41	C	1.427412	0.190363	0.333446
C42	C	1.760745	0.523696	0.666779
C43	C	0.443757	0.125153	0.000117
C44	C	0.777091	0.458486	0.333451
C45	C	1.110424	0.791820	0.666784
C46	C	0.548065	0.127186	0.000105
C47	C	0.881399	0.460519	0.333439
C48	C	1.214732	0.793852	0.666772
C49	C	0.631202	0.128813	0.000095
C50	C	0.964535	0.462146	0.333429
C51	C	1.297869	0.795479	0.666762
C52	C	0.735517	0.130846	0.000085
C53	C	1.068850	0.464179	0.333418
C54	C	1.402183	0.797512	0.666752
C55	C	1.092457	-0.226115	0.000110
C56	C	1.425790	0.107218	0.333444
C57	C	1.759123	0.440552	0.666777
C58	C	1.090430	-0.330424	0.000103
C59	C	1.423763	0.002910	0.333437
C60	C	1.757097	0.336243	0.666770
C61	C	1.088822	-0.413563	0.000097
C62	C	1.422155	-0.080229	0.333431
C63	C	1.755488	0.253104	0.666764
C64	C	1.086795	-0.517878	0.000092
C65	C	1.420129	-0.184545	0.333425
C66	C	1.753462	0.148789	0.666758
C67	C	1.258230	0.121551	0.000119
C68	C	1.591564	0.454885	0.333452
C69	C	1.924897	0.788218	0.666786
C70	C	1.360612	0.123539	0.000123
C71	C	1.693945	0.456873	0.333457
C72	C	2.027279	0.790206	0.666790
C73	C	1.083191	0.296603	0.000092
C74	C	1.416524	0.629936	0.333425
C75	C	1.749858	0.963269	0.666759
C76	C	1.085187	0.398983	0.000086
C77	C	1.418520	0.732316	0.333419
C78	C	1.751854	1.065649	0.666752
N79	N	1.089625	0.128002	0.217098
N80	N	1.422959	0.461336	0.550431
N81	N	1.756292	0.794669	0.883765
N82	N	1.089647	0.128002	-0.216892
N83	N	1.422981	0.461336	0.116442
N84	N	1.756314	0.794669	0.449775
C85	C	1.152234	0.065431	0.452115
C86	C	1.485568	0.398765	0.785448
C87	C	1.818901	0.732098	1.118781
C88	C	1.152237	0.065429	0.548096
C89	C	1.485570	0.398762	0.881429
C90	C	1.818904	0.732096	1.214763
C91	C	1.027032	0.190576	0.548085
C92	C	1.360365	0.523910	0.881418
C93	C	1.693699	0.857243	1.214752
C94	C	1.027026	0.190573	0.452105
C95	C	1.360359	0.523907	0.785439
C96	C	1.693692	0.857240	1.118772
C97	C	1.089632	0.128002	0.404123
C98	C	1.422965	0.461335	0.737456
C99	C	1.756299	0.794669	1.070790
C100	C	1.089641	0.128003	0.596084
C101	C	1.422974	0.461336	0.929417
C102	C	1.756308	0.794669	1.262750
C103	C	1.089643	0.128001	0.700151
C104	C	1.422977	0.461334	1.033484
C105	C	1.756310	0.794667	1.366817
C106	C	1.089629	0.128003	0.300049
C107	C	1.422962	0.461336	0.633382
C108	C	1.756295	0.794669	0.966716
H109	H	1.203211	0.014481	0.413050
H110	H	1.536544	0.347814	0.746383
H111	H	1.869877	0.681147	1.079716
C112	C	1.206130	-0.094101	0.577651
C113	C	1.539463	0.239232	0.910985
C114	C	1.872797	0.572565	1.244318
C115	C	1.221055	-0.003349	0.600847
C116	C	1.554388	0.329984	0.934180
C117	C	1.887721	0.663318	1.267514
H118	H	1.248621	-0.136563	0.610214
H119	H	1.581955	0.196771	0.943547
H120	H	1.915288	0.530104	1.276881
H121	H	1.144576	-0.104249	0.593388
H122	H	1.477909	0.229084	0.926722
H123	H	1.811243	0.562417	1.260055
H124	H	1.215086	-0.103042	0.513620
H125	H	1.548420	0.230292	0.846953
H126	H	1.881753	0.563625	1.180287
H127	H	1.212092	0.005594	0.664878
H128	H	1.545425	0.338927	0.998211
H129	H	1.878758	0.672260	1.331544
H130	H	1.282623	0.006803	0.585116
H131	H	1.615957	0.340136	0.918450
H132	H	1.949290	0.673470	1.251783
C133	C	0.971455	0.246157	0.695211
C134	C	1.304788	0.579490	1.028544
C135	C	1.638122	0.912824	1.361877
C136	C	0.958226	0.259361	0.600831
C137	C	1.291560	0.592695	0.934164
C138	C	1.624893	0.926028	1.267498
H139	H	0.928981	0.288630	0.727770
H140	H	1.262314	0.621963	1.061104
H141	H	1.595647	0.955296	1.394437
H142	H	0.961331	0.184595	0.710945
H143	H	1.294664	0.517928	1.044279
H144	H	1.627997	0.851262	1.377612
H145	H	1.033023	0.256308	0.710925
H146	H	1.366357	0.589641	1.044258
H147	H	1.699690	0.922975	1.377592
H148	H	0.896659	0.249204	0.585116
H149	H	1.229993	0.582537	0.918449
H150	H	1.563326	0.915871	1.251782
H151	H	0.968343	0.320938	0.585090
H152	H	1.301677	0.654272	0.918423
H153	H	1.635010	0.987605	1.251757
H154	H	0.976043	0.241526	0.413028
H155	H	1.309376	0.574860	0.746361
H156	H	1.642709	0.908193	1.079694
