data_functionalizedCrystal
_audit_creation_method	'MofGen! by Chris Wilmer'
_symmetry_space_group_name_H-M	'P1'
_symmetry_Int_Tables_number	1
_symmetry_cell_setting	triclinic
loop_
_symmetry_equiv_pos_as_xyz
  x,y,z
_cell_length_a	12.837943
_cell_length_b	16.053802
_cell_length_c	16.992695
_cell_angle_alpha	92.741074
_cell_angle_beta	92.748581
_cell_angle_gamma	87.147768
loop_
_atom_site_label
_atom_site_type_symbol
_atom_site_fract_x
_atom_site_fract_y
_atom_site_fract_z
O1	O	1.396570	-0.069416	0.202115
O2	O	1.093925	-0.069421	0.191983
O3	O	1.244034	-0.069412	0.082816
O4	O	1.246461	-0.069425	0.311282
O5	O	1.235769	0.069446	0.088797
O6	O	1.085661	0.069437	0.197964
O7	O	1.388305	0.069442	0.208096
Zn8	Zn	1.235671	0.091486	0.203980
Zn9	Zn	1.246560	-0.091465	0.196099
O10	O	1.238197	0.069433	0.317263
C11	C	1.050889	0.000008	0.191551
C12	C	0.934966	0.000006	0.181343
N13	N	1.228247	0.216346	0.209359
C14	C	1.236780	0.000017	0.056361
C15	C	1.227467	0.000017	-0.031379
C16	C	0.704174	0.000011	0.304064
C17	C	0.595254	0.000010	0.294477
C18	C	0.608204	0.000009	0.152580
C19	C	0.717124	0.000010	0.162168
C20	C	0.765105	0.000010	0.237912
C21	C	0.874027	0.000005	0.247499
C22	C	0.886975	0.000010	0.105603
C23	C	0.778054	0.000009	0.096016
C24	C	1.431342	0.000012	0.208528
C25	C	1.547265	0.000008	0.218737
N26	N	1.253991	-0.216325	0.190715
C27	C	1.292145	0.260044	0.162928
C28	C	1.286962	0.347451	0.166699
C29	C	1.217886	0.391158	0.216904
C30	C	1.153981	0.347454	0.263336
C31	C	1.159159	0.260049	0.259561
C32	C	1.195265	0.652566	0.233372
C33	C	1.190094	0.739977	0.237146
C34	C	1.323074	0.739968	0.140506
C35	C	1.328250	0.652561	0.136739
C36	C	1.264342	0.608865	0.183168
N37	N	1.212589	0.480501	0.220761
N38	N	1.269634	0.519523	0.179306
C39	C	1.317330	0.000019	-0.074905
C40	C	1.308573	0.000011	-0.157347
C41	C	1.209952	0.000006	-0.196260
C42	C	1.120082	0.000002	-0.152728
C43	C	1.128840	0.000004	-0.070289
C44	C	1.173653	-0.000006	-0.442570
C45	C	1.164901	-0.000005	-0.525016
C46	C	1.353393	0.000002	-0.529629
C47	C	1.362142	0.000010	-0.447187
C48	C	1.272273	0.000000	-0.403663
N49	N	1.200998	0.000001	-0.280528
N50	N	1.281228	-0.000000	-0.319396
C51	C	1.245450	0.000002	0.343718
C52	C	1.254764	-0.000003	0.431458
H53	H	0.913092	0.000006	0.309175
O54	O	1.457896	-0.000103	-0.409310
C55	C	1.472896	-0.072028	-0.364870
H56	H	1.393811	-0.096005	-0.351543
H57	H	1.517983	-0.055852	-0.307182
H58	H	1.519024	-0.122387	-0.399949
O59	O	1.133093	0.610085	0.278363
C60	C	1.068253	0.559525	0.229100
H61	H	1.059765	0.585876	0.167882
H62	H	0.988075	0.558539	0.255027
H63	H	1.104483	0.493279	0.224555
O64	O	1.395781	0.000124	-0.199711
C65	C	1.392083	0.072045	-0.244434
H66	H	1.307517	0.096018	-0.253747
H67	H	1.426771	0.055865	-0.304079
H68	H	1.438970	0.122408	-0.211642
O69	O	0.750620	0.000042	0.377695
C70	C	0.673485	0.000014	0.434028
H71	H	0.596175	0.026305	0.407530
H72	H	0.698030	0.040323	0.488156
H73	H	0.663875	-0.066606	0.451950
O74	O	1.122929	0.782532	0.285806
C75	C	1.052084	0.833097	0.240890
H76	H	1.087751	0.846186	0.182840
H77	H	1.034676	0.894562	0.275231
H78	H	0.976540	0.799435	0.228279
H79	H	0.569114	0.000078	0.090915
O80	O	1.440583	-0.000033	-0.572030
C81	C	1.411711	-0.000015	-0.653137
H82	H	1.331084	-0.026304	-0.663545
H83	H	1.470971	-0.040331	-0.687675
H84	H	1.409731	0.066601	-0.673777
H85	H	1.097732	0.383045	0.304212
O86	O	1.069017	-0.000056	-0.562695
C87	C	0.991572	-0.000046	-0.506602
H88	H	1.027007	-0.026330	-0.449642
H89	H	0.925538	-0.040370	-0.530545
H90	H	0.959546	0.066567	-0.494261
O91	O	1.413081	-0.000089	-0.037024
C92	C	1.428076	-0.072014	0.007416
H93	H	1.348988	-0.095990	0.020741
H94	H	1.473160	-0.055839	0.065105
H95	H	1.474204	-0.122374	-0.027661
O96	O	0.731400	-0.000141	0.022451
C97	C	0.673040	-0.072046	0.009578
H98	H	0.705180	-0.122309	0.050568
H99	H	0.678965	-0.096190	-0.054317
H100	H	0.587785	-0.055784	0.022072
O101	O	1.349081	0.389995	0.121717
C102	C	1.413942	0.440520	0.170997
H103	H	1.376725	0.453606	0.230177
H104	H	1.424075	0.501989	0.141963
H105	H	1.493473	0.406825	0.180701
O106	O	1.385243	0.782285	0.095370
C107	C	1.447295	0.724965	0.050229
H108	H	1.454852	0.662656	0.079979
H109	H	1.528100	0.750209	0.045531
H110	H	1.409114	0.715680	-0.011324
H111	H	0.936597	0.000003	0.051737
H112	H	1.107125	0.224471	0.297369
H113	H	1.100474	-0.000013	-0.407142
O114	O	1.359272	0.217720	0.114090
C115	C	1.414575	0.275037	0.073932
H116	H	1.368043	0.337349	0.072519
H117	H	1.426767	0.249793	0.011028
H118	H	1.493631	0.284315	0.105775
H119	H	1.384497	0.616977	0.095858
H120	H	1.039783	-0.000007	-0.184418
H121	H	1.055664	0.000002	-0.034850
H122	H	0.545647	0.000013	0.348345
