data_functionalizedCrystal
_audit_creation_method	'MofGen! by Chris Wilmer'
_symmetry_space_group_name_H-M	'P1'
_symmetry_Int_Tables_number	1
_symmetry_cell_setting	triclinic
loop_
_symmetry_equiv_pos_as_xyz
  x,y,z
_cell_length_a	14.853558
_cell_length_b	17.019294
_cell_length_c	13.330367
_cell_angle_alpha	86.116384
_cell_angle_beta	89.992972
_cell_angle_gamma	83.512448
loop_
_atom_site_label
_atom_site_type_symbol
_atom_site_fract_x
_atom_site_fract_y
_atom_site_fract_z
O1	O	1.196095	0.102955	-0.092303
O2	O	0.933601	0.115231	-0.093368
O3	O	1.072170	-0.005732	-0.082912
O4	O	1.057526	0.223918	-0.102760
O5	O	1.072150	-0.005735	0.083936
O6	O	0.933581	0.115228	0.073479
O7	O	1.196075	0.102952	0.074544
Cu8	Cu	1.064826	0.109090	0.089246
Cu9	Cu	1.064850	0.109093	-0.108070
O10	O	1.057506	0.223915	0.064087
C11	C	0.900003	0.114675	-0.009897
C12	C	0.799924	0.113012	-0.009755
C13	C	0.752917	0.112233	-0.100640
C14	C	0.752893	0.112221	0.081264
C15	C	0.658864	0.110654	0.081401
C16	C	0.611857	0.109876	-0.009484
C17	C	0.658879	0.110664	-0.100506
C18	C	0.611836	0.109858	0.172422
C19	C	0.517801	0.108290	0.172563
C20	C	0.470791	0.107518	0.081676
C21	C	0.517819	0.108307	-0.009349
C22	C	0.470812	0.107528	-0.100234
C23	C	0.517837	0.108323	-0.191262
C24	C	0.611869	0.109891	-0.191392
C25	C	0.376759	0.105949	0.081807
C26	C	0.376774	0.105959	-0.100100
C27	C	1.071604	-0.035123	0.003050
C28	C	1.069938	-0.122696	0.010612
C29	C	1.069168	-0.163831	-0.076783
C30	C	1.067597	-0.246114	-0.069674
C31	C	1.066801	-0.287260	0.024830
C32	C	1.067569	-0.246118	0.112232
C33	C	1.069134	-0.163837	0.105122
C34	C	1.062070	-0.535698	0.050847
C35	C	1.060507	-0.617986	0.057950
C36	C	1.060534	-0.617976	-0.123957
C37	C	1.062104	-0.535693	-0.131059
C38	C	1.062866	-0.494558	-0.043657
C39	C	1.065198	-0.371367	0.032099
C40	C	1.064463	-0.410452	-0.050927
C41	C	1.229672	0.103508	-0.008929
C42	C	1.329752	0.105171	-0.009078
C43	C	1.058071	0.253306	-0.021876
C44	C	1.059738	0.340878	-0.029445
N45	N	1.064816	0.109087	0.228028
N46	N	1.064867	0.109089	-0.246852
C47	C	1.003489	0.162634	0.696022
C48	C	1.126235	0.055545	0.705247
C49	C	1.126225	0.055543	0.600229
C50	C	1.064846	0.109088	0.543102
C51	C	1.003478	0.162635	0.590994
C52	C	1.187598	0.002002	0.552329
C53	C	1.187591	0.001998	0.447305
C54	C	1.126207	0.055540	0.390176
C55	C	1.064836	0.109089	0.438074
C56	C	1.003458	0.162633	0.380947
C57	C	0.942082	0.216179	0.428843
C58	C	0.942095	0.216177	0.533865
C59	C	1.126194	0.055542	0.285154
C60	C	1.003448	0.162634	0.275919
H61	H	0.479552	0.107685	-0.265260
H62	H	0.953514	0.206228	0.735022
N63	N	0.659885	0.110705	-0.284378
N64	N	0.641004	0.166094	-0.350061
H65	H	0.674916	0.166667	-0.415734
N66	N	0.879411	0.270862	0.582806
N67	N	0.879434	0.270854	0.676576
H68	H	0.835166	0.309475	0.711145
N69	N	0.800928	0.113028	0.174079
N70	N	0.845016	0.169465	0.189476
H71	H	0.878949	0.170038	0.255028
N72	N	1.188942	0.000877	0.763609
N73	N	1.188955	0.000896	0.857377
H74	H	1.233249	-0.037711	0.898600
N75	N	1.065269	-0.368438	-0.147467
N76	N	1.001589	-0.370421	-0.208203
H77	H	1.002161	-0.340745	-0.276387
H78	H	1.062753	-0.502197	-0.208014
H79	H	0.791208	0.112884	-0.174753
H80	H	0.479521	0.107642	0.246683
H81	H	0.650117	0.110485	0.246416
H82	H	0.953462	0.206234	0.229413
N83	N	1.188792	0.000804	0.236194
N84	N	1.187558	-0.072101	0.254235
H85	H	1.231737	-0.110780	0.219639
H86	H	1.069748	-0.130344	0.176289
H87	H	1.237575	-0.041589	0.598844
N88	N	0.328739	0.105129	0.174786
N89	N	0.370722	0.105816	0.255926
H90	H	0.336809	0.105236	0.321599
N91	N	1.069992	-0.121819	-0.173327
N92	N	1.069305	-0.158561	-0.251350
H93	H	1.069886	-0.128892	-0.319537
N94	N	1.066736	-0.288145	0.208766
N95	N	1.002340	-0.326856	0.232398
H96	H	1.001751	-0.356537	0.300578
N97	N	1.250317	-0.052674	0.398399
N98	N	1.305134	-0.100458	0.449416
H99	H	1.349445	-0.139063	0.414875
H100	H	1.066974	-0.279603	-0.140841
H101	H	0.892111	0.259779	0.382318
N102	N	1.064373	-0.413400	0.128629
N103	N	0.999975	-0.452109	0.152258
H104	H	0.999389	-0.481798	0.220432
N105	N	0.328777	0.105155	-0.192948
N106	N	0.347679	0.049775	-0.249064
H107	H	0.313783	0.049206	-0.314640
N108	N	1.059757	-0.660007	-0.213220
N109	N	1.058362	-0.733472	-0.206865
H110	H	1.057811	-0.763158	-0.269910
H111	H	1.059855	-0.651485	0.134911
H112	H	1.062708	-0.502218	0.122016
