data_functionalizedCrystal
_audit_creation_method	'MofGen! by Chris Wilmer'
_symmetry_space_group_name_H-M	'P1'
_symmetry_Int_Tables_number	1
_symmetry_cell_setting	triclinic
loop_
_symmetry_equiv_pos_as_xyz
  x,y,z
_cell_length_a	25.639239
_cell_length_b	18.050591
_cell_length_c	25.639234
_cell_angle_alpha	90.029669
_cell_angle_beta	89.975095
_cell_angle_gamma	89.968232
loop_
_atom_site_label
_atom_site_type_symbol
_atom_site_fract_x
_atom_site_fract_y
_atom_site_fract_z
Zn1	Zn	-0.208279	-1.135280	-0.295747
Zn2	Zn	0.125054	-0.801947	0.037587
Zn3	Zn	0.458388	-0.468613	0.370920
Zn4	Zn	-0.295707	-1.135156	-0.208311
Zn5	Zn	0.037626	-0.801822	0.125022
Zn6	Zn	0.370959	-0.468489	0.458356
Zn7	Zn	-0.208277	-1.011087	-0.208310
Zn8	Zn	0.125056	-0.677754	0.125023
Zn9	Zn	0.458390	-0.344420	0.458356
Zn10	Zn	-0.295675	-1.011025	-0.295700
Zn11	Zn	0.037659	-0.677691	0.037633
Zn12	Zn	0.370992	-0.344358	0.370966
O13	O	-0.251985	-1.073137	-0.252017
O14	O	0.081349	-0.739804	0.081316
O15	O	0.414682	-0.406470	0.414650
O16	O	-0.219891	-1.239188	-0.284168
O17	O	0.113442	-0.905855	0.049166
O18	O	0.446776	-0.572522	0.382499
O19	O	-0.284122	-1.118672	-0.135146
O20	O	0.049211	-0.785339	0.198188
O21	O	0.382544	-0.452005	0.531521
O22	O	-0.135112	-1.027640	-0.219928
O23	O	0.198221	-0.694306	0.113405
O24	O	0.531555	-0.360973	0.446739
O25	O	-0.284124	-1.239097	-0.219929
O26	O	0.049209	-0.905764	0.113404
O27	O	0.382543	-0.572430	0.446738
O28	O	-0.135114	-1.118884	-0.284167
O29	O	0.198220	-0.785550	0.049166
O30	O	0.531553	-0.452217	0.382500
O31	O	-0.219888	-1.027519	-0.135145
O32	O	0.113446	-0.694186	0.198188
O33	O	0.446779	-0.360852	0.531522
O34	O	-0.219856	-0.907154	-0.219883
O35	O	0.113477	-0.573821	0.113450
O36	O	0.446810	-0.240487	0.446784
O37	O	-0.284069	-1.027533	-0.368872
O38	O	0.049265	-0.694200	-0.035538
O39	O	0.382598	-0.360867	0.297795
O40	O	-0.284067	-0.907108	-0.284088
O41	O	0.049266	-0.573775	0.049245
O42	O	0.382600	-0.240442	0.382578
O43	O	-0.219860	-1.118823	-0.368906
O44	O	0.113474	-0.785490	-0.035572
O45	O	0.446807	-0.452157	0.297761
O46	O	-0.368868	-1.118611	-0.219884
O47	O	-0.035535	-0.785278	0.113449
O48	O	0.297799	-0.451945	0.446782
O49	O	-0.368844	-1.027413	-0.284089
O50	O	-0.035511	-0.694079	0.049244
O51	O	0.297822	-0.360746	0.382578
C52	C	-0.251958	-0.880185	-0.251981
C53	C	0.081375	-0.546851	0.081352
C54	C	0.414709	-0.213518	0.414686
C55	C	-0.251959	-0.797639	-0.251978
C56	C	0.081374	-0.464306	0.081356
C57	C	0.414707	-0.130972	0.414689
C58	C	-0.387827	-1.073012	-0.251993
C59	C	-0.054494	-0.739679	0.081340
C60	C	0.278840	-0.406345	0.414674
C61	C	-0.445941	-1.073026	-0.252000
C62	C	-0.112608	-0.739693	0.081333
C63	C	0.220725	-0.406360	0.414666
C64	C	-0.216994	-0.598192	-0.217136
C65	C	0.116339	-0.264858	0.116197
C66	C	0.449673	0.068475	0.449531
C67	C	-0.264680	-0.548758	-0.204266
C68	C	0.068653	-0.215425	0.129068
C69	C	0.401987	0.117909	0.462401
C70	C	-0.251970	-0.646509	-0.251996
C71	C	0.081363	-0.313175	0.081338
C72	C	0.414697	0.020158	0.414671
C73	C	-0.204295	-0.548861	-0.264859
C74	C	0.129038	-0.215527	0.068474
C75	C	0.462371	0.117806	0.401808
C76	C	-0.251976	-0.500523	-0.252012
C77	C	0.081358	-0.167190	0.081321
C78	C	0.414691	0.166143	0.414655
C79	C	-0.299681	-0.598162	-0.239101
C80	C	0.033653	-0.264829	0.094233
C81	C	0.366986	0.068505	0.427566
C82	C	-0.239264	-0.598269	-0.299716
C83	C	0.094069	-0.264936	0.033617
C84	C	0.427403	0.068397	0.366950
C85	C	-0.286983	-0.548858	-0.286864
C86	C	0.046350	-0.215524	0.046469
C87	C	0.379684	0.117809	0.379803
C88	C	-0.251966	-0.730607	-0.251985
C89	C	0.081368	-0.397274	0.081348
C90	C	0.414701	-0.063940	0.414682
C91	C	-0.251985	-0.416427	-0.252023
C92	C	0.081348	-0.083094	0.081310
C93	C	0.414681	0.250240	0.414644
C94	C	-0.806304	-1.120748	-0.218643
C95	C	-0.472971	-0.787415	0.114691
C96	C	-0.139637	-0.454081	0.448024
C97	C	-0.860908	-1.120777	-0.218650
C98	C	-0.527575	-0.787443	0.114684
C99	C	-0.194242	-0.454110	0.448017
O100	O	-0.889145	-1.161222	-0.190262
O101	O	-0.555812	-0.827888	0.143072
O102	O	-0.222478	-0.494555	0.476405
N103	N	-0.888224	-1.073267	-0.252052
N104	N	-0.554890	-0.739934	0.081282
N105	N	-0.221557	-0.406601	0.414615
C106	C	-0.860932	-1.025732	-0.285453
C107	C	-0.527598	-0.692398	0.047881
C108	C	-0.194265	-0.359065	0.381214
O109	O	-0.889179	-0.985324	-0.313865
O110	O	-0.555846	-0.651991	0.019469
O111	O	-0.222513	-0.318658	0.352802
C112	C	-0.806328	-1.025707	-0.285448
C113	C	-0.472995	-0.692374	0.047885
C114	C	-0.139662	-0.359040	0.381219
C115	C	-0.779016	-1.073214	-0.252040
C116	C	-0.445683	-0.739881	0.081293
C117	C	-0.112349	-0.406547	0.414627
C118	C	-0.778992	-1.168252	-0.185238
C119	C	-0.445658	-0.834918	0.148095
C120	C	-0.112325	-0.501585	0.481429
C121	C	-0.724391	-1.168222	-0.185230
C122	C	-0.391058	-0.834888	0.148103
C123	C	-0.057724	-0.501555	0.481436
C124	C	-0.697103	-1.120688	-0.218628
C125	C	-0.363770	-0.787355	0.114706
C126	C	-0.030436	-0.454021	0.448039
C127	C	-0.724415	-1.073184	-0.252032
C128	C	-0.391082	-0.739851	0.081301
C129	C	-0.057749	-0.406518	0.414634
C130	C	-0.779037	-0.978175	-0.318851
C131	C	-0.445704	-0.644842	0.014482
C132	C	-0.112371	-0.311509	0.347816
C133	C	-0.724430	-0.978155	-0.318844
C134	C	-0.391097	-0.644822	0.014490
C135	C	-0.057764	-0.311489	0.347823
C136	C	-0.697118	-1.025663	-0.285436
C137	C	-0.363785	-0.692329	0.047897
C138	C	-0.030451	-0.358996	0.381231
C139	C	-0.642527	-1.025620	-0.285422
C140	C	-0.309193	-0.692287	0.047911
C141	C	0.024140	-0.358954	0.381245
N142	N	-0.615212	-1.073130	-0.252020
N143	N	-0.281878	-0.739796	0.081313
N144	N	0.051455	-0.406463	0.414647
C145	C	-0.642500	-1.120664	-0.218623
C146	C	-0.309166	-0.787330	0.114710
C147	C	0.024167	-0.453997	0.448044
C148	C	-0.975602	-1.025787	-0.285461
C149	C	-0.642269	-0.692454	0.047873
C150	C	-0.308936	-0.359121	0.381206
C151	C	-1.030205	-1.025808	-0.285463
C152	C	-0.696871	-0.692474	0.047870
C153	C	-0.363538	-0.359141	0.381203
C154	C	-1.030178	-1.120854	-0.218661
C155	C	-0.696844	-0.787521	0.114673
C156	C	-0.363511	-0.454187	0.448006
C157	C	-0.975574	-1.120830	-0.218656
C158	C	-0.642241	-0.787496	0.114677
C159	C	-0.308908	-0.454163	0.448011
C160	C	-0.948287	-1.073297	-0.252059
C161	C	-0.614954	-0.739963	0.081275
C162	C	-0.281620	-0.406630	0.414608
C163	C	-0.527835	-1.120597	-0.218609
C164	C	-0.194501	-0.787263	0.114724
C165	C	0.138832	-0.453930	0.448057
C166	C	-0.473229	-1.120560	-0.218603
C167	C	-0.139896	-0.787227	0.114730
C168	C	0.193437	-0.453894	0.448064
C169	C	-0.473261	-1.025517	-0.285407
C170	C	-0.139928	-0.692184	0.047926
C171	C	0.193406	-0.358850	0.381259
C172	C	-0.527862	-1.025550	-0.285412
C173	C	-0.194528	-0.692217	0.047922
C174	C	0.138805	-0.358884	0.381255
C175	C	-0.555147	-1.073096	-0.252011
C176	C	-0.221814	-0.739763	0.081322
C177	C	0.111520	-0.406429	0.414656
O178	O	-0.614256	-0.985198	-0.313797
O179	O	-0.280922	-0.651865	0.019536
O180	O	0.052411	-0.318532	0.352869
O181	O	-0.614245	-1.161071	-0.190220
O182	O	-0.280912	-0.827738	0.143113
O183	O	0.052421	-0.494404	0.476446
C184	C	-0.115612	-1.073282	-0.252053
C185	C	0.217722	-0.739949	0.081281
C186	C	0.551055	-0.406616	0.414614
C187	C	-0.057497	-1.073345	-0.252068
C188	C	0.275836	-0.740011	0.081266
C189	C	0.609169	-0.406678	0.414599
C190	C	-0.251961	-1.073185	-0.388390
C191	C	0.081373	-0.739852	-0.055057
C192	C	0.414706	-0.406518	0.278277
C193	C	-0.251951	-1.073206	-0.446504
C194	C	0.081383	-0.739872	-0.113171
C195	C	0.414716	-0.406539	0.220162
C196	C	-0.252002	-0.266842	-0.252044
C197	C	0.081331	0.066491	0.081289
C198	C	0.414664	0.399824	0.414622
C199	C	-0.251987	-0.349388	-0.252032
C200	C	0.081346	-0.016055	0.081302
C201	C	0.414680	0.317278	0.414635
C202	C	-0.218441	-1.025763	-0.806873
C203	C	0.114892	-0.692430	-0.473539
C204	C	0.448225	-0.359097	-0.140206
C205	C	-0.218432	-1.025767	-0.861477
C206	C	0.114901	-0.692434	-0.528144
C207	C	0.448235	-0.359101	-0.194810
O208	O	-0.189999	-0.985393	-0.889718
O209	O	0.143335	-0.652059	-0.556385
O210	O	0.476668	-0.318726	-0.223051
N211	N	-0.251869	-1.073230	-0.888787
N212	N	0.081465	-0.739897	-0.555454
N213	N	0.414798	-0.406564	-0.222120
C214	C	-0.285321	-1.120687	-0.861490
C215	C	0.048013	-0.787354	-0.528156
C216	C	0.381346	-0.454021	-0.194823
O217	O	-0.313761	-1.161058	-0.889733
O218	O	0.019573	-0.827725	-0.556399
O219	O	0.352906	-0.494392	-0.223066
C220	C	-0.285332	-1.120679	-0.806886
C221	C	0.048001	-0.787346	-0.473553
C222	C	0.381334	-0.454012	-0.140220
C223	C	-0.251890	-1.073218	-0.779579
C224	C	0.081444	-0.739885	-0.446246
C225	C	0.414777	-0.406551	-0.112913
C226	C	-0.185002	-0.978306	-0.779565
C227	C	0.148331	-0.644972	-0.446232
C228	C	0.481665	-0.311639	-0.112899
C229	C	-0.185011	-0.978303	-0.724965
C230	C	0.148323	-0.644970	-0.391632
C231	C	0.481656	-0.311636	-0.058298
C232	C	-0.218459	-1.025758	-0.697671
C233	C	0.114874	-0.692424	-0.364338
C234	C	0.448207	-0.359091	-0.031005
C235	C	-0.251899	-1.073215	-0.724979
C236	C	0.081435	-0.739882	-0.391645
C237	C	0.414768	-0.406549	-0.058312
C238	C	-0.318787	-1.168131	-0.779590
C239	C	0.014547	-0.834798	-0.446257
C240	C	0.347880	-0.501465	-0.112923
C241	C	-0.318796	-1.168119	-0.724983
C242	C	0.014538	-0.834785	-0.391650
C243	C	0.347871	-0.501452	-0.058316
C244	C	-0.285353	-1.120658	-0.697676
C245	C	0.047980	-0.787324	-0.364343
C246	C	0.381314	-0.453991	-0.031009
C247	C	-0.285356	-1.120667	-0.643085
C248	C	0.047977	-0.787334	-0.309751
C249	C	0.381311	-0.454000	0.023582
N250	N	-0.251919	-1.073204	-0.615775
N251	N	0.081414	-0.739871	-0.282441
N252	N	0.414747	-0.406537	0.050892
C253	C	-0.218471	-1.025749	-0.643068
C254	C	0.114862	-0.692416	-0.309735
C255	C	0.448196	-0.359083	0.023599
C256	C	-0.285294	-1.120700	-0.976160
C257	C	0.048039	-0.787367	-0.642827
C258	C	0.381373	-0.454033	-0.309494
C259	C	-0.285280	-1.120713	-1.030763
C260	C	0.048053	-0.787379	-0.697429
C261	C	0.381387	-0.454046	-0.364096
C262	C	-0.218392	-1.025792	-1.030746
C263	C	0.114941	-0.692458	-0.697413
C264	C	0.448275	-0.359125	-0.364080
C265	C	-0.218404	-1.025783	-0.976143
C266	C	0.114930	-0.692450	-0.642810
C267	C	0.448263	-0.359117	-0.309476
C268	C	-0.251857	-1.073237	-0.948850
C269	C	0.081476	-0.739904	-0.615517
C270	C	0.414809	-0.406570	-0.282184
C271	C	-0.218492	-1.025747	-0.528403
C272	C	0.114842	-0.692414	-0.195070
C273	C	0.448175	-0.359081	0.138264
C274	C	-0.218502	-1.025751	-0.473798
C275	C	0.114831	-0.692418	-0.140464
C276	C	0.448164	-0.359084	0.192869
C277	C	-0.285392	-1.120669	-0.473819
C278	C	0.047941	-0.787336	-0.140485
C279	C	0.381275	-0.454002	0.192848
C280	C	-0.285380	-1.120669	-0.528419
C281	C	0.047953	-0.787335	-0.195086
C282	C	0.381287	-0.454002	0.138247
C283	C	-0.251928	-1.073202	-0.555710
C284	C	0.081405	-0.739868	-0.222377
C285	C	0.414739	-0.406535	0.110956
O286	O	-0.313776	-1.161019	-0.614809
O287	O	0.019557	-0.827686	-0.281475
O288	O	0.352891	-0.494352	0.051858
O289	O	-0.190041	-0.985378	-0.614818
O290	O	0.143293	-0.652045	-0.281485
O291	O	0.476626	-0.318712	0.051848
C292	C	-0.251971	-1.073132	-0.116175
C293	C	0.081363	-0.739798	0.217159
C294	C	0.414696	-0.406465	0.550492
C295	C	-0.251833	-1.073255	-0.058061
C296	C	0.081500	-0.739922	0.275272
C297	C	0.414833	-0.406588	0.608606
H298	H	-0.187450	-0.619853	-0.187627
H299	H	0.145883	-0.286520	0.145707
H300	H	0.479216	0.046814	0.479040
H301	H	-0.163980	-0.527165	-0.275714
H302	H	0.169353	-0.193832	0.057619
H303	H	0.502686	0.139502	0.390952
H304	H	-0.312533	-1.159352	-0.953942
H305	H	0.020800	-0.826018	-0.620609
H306	H	0.354134	-0.492685	-0.287275
H307	H	-0.275433	-0.527012	-0.163916
H308	H	0.057901	-0.193678	0.169417
H309	H	0.391234	0.139655	0.502751
H310	H	-0.228497	-0.620033	-0.340054
H311	H	0.104837	-0.286700	-0.006720
H312	H	0.438170	0.046633	0.326613
H313	H	-0.191267	-0.987103	-0.451567
H314	H	0.142067	-0.653769	-0.118233
H315	H	0.475400	-0.320436	0.215100
H316	H	-0.191252	-0.987096	-0.550617
H317	H	0.142082	-0.653763	-0.217283
H318	H	0.475415	-0.320429	0.116050
H319	H	-0.801204	-1.206963	-0.158042
H320	H	-0.467870	-0.873630	0.175292
H321	H	-0.134537	-0.540297	0.508625
H322	H	-0.340013	-0.619728	-0.228183
H323	H	-0.006680	-0.286395	0.105151
H324	H	0.326654	0.046938	0.438484
H325	H	-0.316597	-0.527333	-0.316351
H326	H	0.016736	-0.193999	0.016983
H327	H	0.350069	0.139334	0.350316
H328	H	-0.702156	-1.206908	-0.158028
H329	H	-0.368823	-0.873575	0.175305
H330	H	-0.035490	-0.540242	0.508638
H331	H	-0.191157	-0.987151	-1.052978
H332	H	0.142177	-0.653818	-0.719645
H333	H	0.475510	-0.320484	-0.386312
H334	H	-0.157780	-0.939652	-0.702736
H335	H	0.175553	-0.606319	-0.369403
H336	H	0.508886	-0.272986	-0.036070
H337	H	-0.450993	-1.159246	-0.191396
H338	H	-0.117660	-0.825913	0.141937
H339	H	0.215674	-0.492579	0.475270
H340	H	-0.451035	-0.986813	-0.312597
H341	H	-0.117701	-0.653480	0.020736
H342	H	0.215632	-0.320147	0.354069
H343	H	-0.550044	-1.159315	-0.191412
H344	H	-0.216711	-0.825981	0.141921
H345	H	0.116623	-0.492648	0.475254
H346	H	-0.953340	-1.159514	-0.191453
H347	H	-0.620006	-0.826181	0.141881
H348	H	-0.286673	-0.492848	0.475214
H349	H	-1.052405	-1.159561	-0.191469
H350	H	-0.719072	-0.826228	0.141865
H351	H	-0.385739	-0.492895	0.475198
H352	H	-0.346020	-1.206779	-0.801814
H353	H	-0.012686	-0.873445	-0.468481
H354	H	0.320647	-0.540112	-0.135147
H355	H	-1.052438	-0.987116	-0.312662
H356	H	-0.719104	-0.653782	0.020671
H357	H	-0.385771	-0.320449	0.354004
H358	H	-0.953388	-0.987074	-0.312660
H359	H	-0.620054	-0.653741	0.020674
H360	H	-0.286721	-0.320408	0.354007
H361	H	-0.801266	-0.939486	-0.346053
H362	H	-0.467933	-0.606153	-0.012720
H363	H	-0.134599	-0.272820	0.320614
H364	H	-0.702216	-0.939449	-0.346046
H365	H	-0.368882	-0.606116	-0.012713
H366	H	-0.035549	-0.272783	0.320621
H367	H	-0.550101	-0.986868	-0.312617
H368	H	-0.216767	-0.653535	0.020717
H369	H	0.116566	-0.320202	0.354050
H370	H	-0.191171	-0.987137	-0.953913
H371	H	0.142162	-0.653804	-0.620580
H372	H	0.475495	-0.320470	-0.287246
H373	H	-0.157764	-0.939659	-0.801782
H374	H	0.175570	-0.606325	-0.468449
H375	H	0.508903	-0.272992	-0.135115
H376	H	-0.312507	-1.159368	-1.052991
H377	H	0.020827	-0.826035	-0.719658
H378	H	0.354160	-0.492702	-0.386325
H379	H	-0.346035	-1.206767	-0.702764
H380	H	-0.012702	-0.873434	-0.369431
H381	H	0.320631	-0.540100	-0.036098
H382	H	-0.312606	-1.159323	-0.550654
H383	H	0.020727	-0.825990	-0.217321
H384	H	0.354061	-0.492657	0.116013
H385	H	-0.312623	-1.159308	-0.451587
H386	H	0.020710	-0.825974	-0.118253
H387	H	0.354043	-0.492641	0.215080
