data_functionalizedCrystal
_audit_creation_method	'MofGen! by Chris Wilmer'
_symmetry_space_group_name_H-M	'P1'
_symmetry_Int_Tables_number	1
_symmetry_cell_setting	triclinic
loop_
_symmetry_equiv_pos_as_xyz
  x,y,z
_cell_length_a	16.992694
_cell_length_b	11.026607
_cell_length_c	16.053802
_cell_angle_alpha	93.134017
_cell_angle_beta	87.249047
_cell_angle_gamma	99.627120
loop_
_atom_site_label
_atom_site_type_symbol
_atom_site_fract_x
_atom_site_fract_y
_atom_site_fract_z
O1	O	1.079834	0.256038	-0.069317
O2	O	1.579834	0.756038	0.430683
O3	O	0.851145	0.253175	-0.069342
O4	O	1.351145	0.753175	0.430658
O5	O	0.946536	0.076115	-0.069328
O6	O	1.446536	0.576115	0.430672
O7	O	0.984443	0.433098	-0.069330
O8	O	1.484443	0.933098	0.430670
O9	O	0.941279	0.085818	0.069530
O10	O	1.441279	0.585818	0.569530
O11	O	0.845889	0.262878	0.069516
O12	O	1.345889	0.762878	0.569516
O13	O	1.074577	0.265741	0.069541
O14	O	1.574577	0.765741	0.569541
Zn15	Zn	0.959398	0.265850	0.091575
Zn16	Zn	1.459398	0.765850	0.591575
Zn17	Zn	0.966324	0.253066	-0.091376
Zn18	Zn	1.466324	0.753066	0.408624
O19	O	0.979186	0.442801	0.069528
O20	O	1.479186	0.942801	0.569528
C21	C	0.818785	0.254344	0.000084
C22	C	1.318785	0.754344	0.500084
C23	C	0.730190	0.243357	0.000075
C24	C	1.230190	0.743357	0.500075
C25	C	0.694911	0.349355	0.000075
C26	C	1.194911	0.849355	0.500075
C27	C	0.611666	0.339026	0.000086
C28	C	1.111666	0.839026	0.500086
C29	C	0.563702	0.222698	0.000092
C30	C	1.063702	0.722698	0.500092
C31	C	0.598986	0.116693	0.000094
C32	C	1.098986	0.616693	0.500094
C33	C	0.682229	0.127024	0.000089
C34	C	1.182229	0.627024	0.500089
C35	C	0.314060	0.179883	0.000114
C36	C	0.814060	0.679883	0.500114
C37	C	0.230811	0.169561	0.000117
C38	C	0.730811	0.669561	0.500117
C39	C	0.243497	0.391895	0.000111
C40	C	0.743497	0.891895	0.500111
C41	C	0.326741	0.402215	0.000100
C42	C	0.826741	0.902215	0.500100
C43	C	0.362018	0.296210	0.000107
C44	C	0.862018	0.796210	0.500107
N45	N	0.478612	0.212138	0.000101
N46	N	0.978612	0.712138	0.500101
N47	N	0.447107	0.306772	0.000104
N48	N	0.947107	0.806772	0.500104
C49	C	0.936914	0.035078	0.000099
C50	C	1.436914	0.535078	0.500099
C51	C	0.916068	-0.101658	0.000094
C52	C	1.416068	0.398342	0.500094
C53	C	0.973629	-0.169881	0.000099
C54	C	1.473629	0.330119	0.500099
C55	C	0.952085	-0.311205	0.000093
C56	C	1.452085	0.188795	0.500093
C57	C	1.106937	0.264572	0.000113
C58	C	1.606937	0.764572	0.500113
C59	C	1.195532	0.275558	0.000117
C60	C	1.695532	0.775558	0.500117
C61	C	0.988808	0.483838	0.000099
C62	C	1.488808	0.983838	0.500099
C63	C	1.009655	0.620574	0.000098
C64	C	1.509655	1.120574	0.500098
N65	N	0.954677	0.274575	0.216435
N66	N	1.454677	0.774575	0.716435
N67	N	0.971050	0.244332	-0.216236
N68	N	1.471050	0.744332	0.283764
C69	C	0.995289	0.199266	0.260135
C70	C	1.495289	0.699266	0.760135
C71	C	0.991996	0.205382	0.347541
C72	C	1.491996	0.705382	0.847541
C73	C	0.948095	0.286813	0.391246
C74	C	1.448095	0.786813	0.891246
C75	C	0.907478	0.362124	0.347540
C76	C	1.407478	0.862124	0.847540
C77	C	0.910767	0.356002	0.260136
C78	C	1.410767	0.856002	0.760136
C79	C	0.933722	0.313521	0.652654
C80	C	1.433722	0.813521	1.152654
C81	C	0.930438	0.319641	0.740065
C82	C	1.430438	0.819641	1.240065
C83	C	1.014955	0.162896	0.740059
C84	C	1.514955	0.662896	1.240059
C85	C	1.018244	0.156786	0.652653
C86	C	1.518244	0.656786	1.152653
C87	C	0.977624	0.232093	0.608955
C88	C	1.477624	0.732093	1.108955
N89	N	0.944729	0.293068	0.480589
N90	N	1.444729	0.793068	0.980589
N91	N	0.980985	0.225830	0.519613
N92	N	1.480985	0.725830	1.019613
H93	H	0.342772	0.093566	0.000121
H94	H	0.842772	0.593566	0.500121
C95	C	1.097783	-0.317016	0.000107
C96	C	1.597783	0.182984	0.500107
H97	H	1.131102	-0.378147	0.000103
H98	H	1.631102	0.121853	0.500103
H99	H	1.106479	-0.263822	0.048530
H100	H	1.606479	0.236178	0.548530
H101	H	1.110141	-0.270590	-0.048322
H102	H	1.610141	0.229410	0.451678
C103	C	0.546228	-0.011265	0.000099
C104	C	1.046228	0.488735	0.500099
H105	H	0.491598	-0.002239	0.000093
H106	H	0.991598	0.497761	0.500093
H107	H	0.555437	-0.051866	0.048521
H108	H	1.055437	0.448134	0.548521
H109	H	0.559093	-0.058628	-0.048331
H110	H	1.059093	0.441372	0.451669
H111	H	0.710952	0.040709	0.000088
H112	H	1.210952	0.540709	0.500088
C113	C	1.061752	-0.107457	0.000111
C114	C	1.561752	0.392543	0.500111
H115	H	1.064671	-0.020660	0.000119
H116	H	1.564671	0.479340	0.500119
H117	H	1.089310	-0.134975	-0.048307
H118	H	1.589310	0.365025	0.451693
H119	H	1.085637	-0.128213	0.048544
H120	H	1.585637	0.371787	0.548544
H121	H	1.053992	0.090478	0.617070
H122	H	1.553992	0.590478	1.117070
C123	C	0.863958	-0.373624	0.000083
C124	C	1.363958	0.126376	0.500083
H125	H	0.861038	-0.460421	0.000086
H126	H	1.361038	0.039579	0.500086
H127	H	0.840067	-0.352865	-0.048341
H128	H	1.340067	0.147135	0.451659
H129	H	0.836404	-0.346108	0.048511
H130	H	1.336404	0.153892	0.548511
H131	H	0.871728	0.428423	0.383130
H132	H	1.371728	0.928423	0.883130
H133	H	0.850837	-0.147877	0.000081
H134	H	1.350837	0.352123	0.500081
H135	H	1.031042	0.132962	0.224556
H136	H	1.531042	0.632962	0.724556
H137	H	0.877695	0.417324	0.224556
H138	H	1.377695	0.917324	0.724556
H139	H	0.191760	0.074828	0.000121
H140	H	0.691760	0.574828	0.500121
H141	H	0.894687	0.385957	0.775645
H142	H	1.394687	0.885957	1.275645
H143	H	1.025064	0.144059	0.383121
H144	H	1.525064	0.644059	0.883121
H145	H	0.900649	0.374842	0.617082
H146	H	1.400649	0.874842	1.117082
C147	C	0.747665	0.477316	0.000068
C148	C	1.247665	0.977316	0.500068
H149	H	0.714728	0.538964	0.000077
H150	H	1.214728	1.038964	0.500077
H151	H	0.782228	0.482587	-0.048357
H152	H	1.282228	0.982587	0.451643
H153	H	0.778575	0.489352	0.048495
H154	H	1.278575	0.989352	0.548495
C155	C	0.572863	0.455624	0.000083
C156	C	1.072863	0.955624	0.500083
H157	H	0.613351	0.526382	0.000069
H158	H	1.113351	1.026382	0.500069
H159	H	0.538829	0.459607	0.048509
H160	H	1.038829	0.959607	0.548509
H161	H	0.542478	0.452826	-0.048343
H162	H	1.042478	0.952826	0.451657
H163	H	1.048025	0.101583	0.775646
H164	H	1.548025	0.601583	1.275646
H165	H	0.365790	0.496940	0.000086
H166	H	0.865790	0.996940	0.500086
H167	H	0.214765	0.478198	0.000107
H168	H	0.714765	0.978198	0.500107
