data_functionalizedCrystal
_audit_creation_method	'MofGen! by Chris Wilmer'
_symmetry_space_group_name_H-M	'P1'
_symmetry_Int_Tables_number	1
_symmetry_cell_setting	triclinic
loop_
_symmetry_equiv_pos_as_xyz
  x,y,z
_cell_length_a	13.032831
_cell_length_b	13.032721
_cell_length_c	13.032268
_cell_angle_alpha	76.710373
_cell_angle_beta	89.113023
_cell_angle_gamma	90.902885
loop_
_atom_site_label
_atom_site_type_symbol
_atom_site_fract_x
_atom_site_fract_y
_atom_site_fract_z
Zn1	Zn	1.399428	-0.702884	0.857492
Zn2	Zn	1.899428	-0.202884	1.357492
Zn3	Zn	1.399318	-0.857952	0.702424
Zn4	Zn	1.899318	-0.357952	1.202424
Zn5	Zn	1.255414	-0.659406	0.658991
Zn6	Zn	1.755414	-0.159406	1.158991
Zn7	Zn	1.206359	-0.852325	0.851935
Zn8	Zn	1.706359	-0.352325	1.351935
O9	O	1.315130	-0.768142	0.767710
O10	O	1.815130	-0.268142	1.267710
O11	O	1.540438	-0.744005	0.857424
O12	O	2.040438	-0.244005	1.357424
O13	O	1.400712	-0.815774	0.551018
O14	O	1.900712	-0.315774	1.051018
O15	O	1.295093	-0.519539	0.669471
O16	O	1.795093	-0.019539	1.169471
O17	O	1.540357	-0.857933	0.743496
O18	O	2.040357	-0.357933	1.243496
O19	O	1.400900	-0.551483	0.815309
O20	O	1.900900	-0.051483	1.315309
O21	O	1.294986	-0.669903	0.519108
O22	O	1.794986	-0.169903	1.019108
O23	O	1.107882	-0.664446	0.664083
O24	O	1.607882	-0.164446	1.164083
O25	O	1.211487	-0.848342	0.998317
O26	O	1.711487	-0.348342	1.498317
O27	O	1.071842	-0.806183	0.805839
O28	O	1.571842	-0.306183	1.305839
O29	O	1.353334	-0.738549	1.002399
O30	O	1.853334	-0.238549	1.502399
O31	O	1.353146	-1.002840	0.738108
O32	O	1.853146	-0.502840	1.238108
O33	O	1.211380	-0.998706	0.847953
O34	O	1.711380	-0.498706	1.347953
C35	C	1.053296	-0.729987	0.729646
C36	C	1.553296	-0.229987	1.229646
C37	C	0.941275	-0.713692	0.713389
C38	C	1.441275	-0.213692	1.213389
C39	C	0.873527	-0.776647	0.776195
C40	C	1.373527	-0.276647	1.276195
C41	C	0.757747	-0.759806	0.759394
C42	C	1.257747	-0.259806	1.259394
C43	C	1.276952	-1.038540	0.797167
C44	C	1.776952	-0.538540	1.297167
C45	C	1.260707	-1.154235	0.809817
C46	C	1.760707	-0.654235	1.309817
C47	C	1.323655	-1.207840	0.761163
C48	C	1.823655	-0.707840	1.261163
C49	C	1.306867	-1.327417	0.774236
C50	C	1.806867	-0.827417	1.274236
C51	C	1.577986	-0.806447	0.805925
C52	C	2.077986	-0.306447	1.305925
C53	C	1.690000	-0.822770	0.822209
C54	C	2.190000	-0.322770	1.322209
C55	C	1.276951	-0.797668	1.039178
C56	C	1.776951	-0.297668	1.539178
C57	C	1.260681	-0.810250	1.154861
C58	C	1.760681	-0.310250	1.654861
C59	C	1.353481	-0.496694	0.738165
C60	C	1.853481	0.003306	1.238165
C61	C	1.369823	-0.381019	0.725575
C62	C	1.869823	0.118981	1.225575
C63	C	1.353229	-0.738664	0.497299
C64	C	1.853229	-0.238664	0.997299
C65	C	1.369735	-0.725817	0.381613
C66	C	1.869735	-0.225817	0.881613
C67	C	1.323611	-0.761535	1.208456
C68	C	1.823611	-0.261535	1.708456
C69	C	1.306797	-0.774538	1.328021
C70	C	1.806797	-0.274538	1.828021
H71	H	0.730039	-0.693432	0.693185
H72	H	1.230039	-0.193432	1.193185
H73	H	1.436059	-0.674475	1.338985
H74	H	1.936059	-0.174475	1.838985
F75	F	1.173984	-0.877341	1.210578
F76	F	1.673984	-0.377341	1.710578
F77	F	1.220178	-1.383133	0.841344
F78	F	1.720178	-0.883133	1.341344
F79	F	0.905057	-0.626940	0.626852
F80	F	1.405057	-0.126940	1.126852
F81	F	1.174023	-1.209956	0.876921
F82	F	1.674023	-0.709956	1.376921
F83	F	1.410349	-1.152122	0.694072
F84	F	1.910349	-0.652122	1.194072
F85	F	1.456521	-1.325307	0.658478
F86	F	1.956521	-0.825307	1.158478
F87	F	1.410286	-0.694414	1.152733
F88	F	1.910286	-0.194414	1.652733
H89	H	0.901241	-0.843009	0.842407
H90	H	1.401241	-0.343009	1.342407
F91	F	0.726211	-0.909510	0.908768
F92	F	1.226211	-0.409510	1.408768
H93	H	1.240463	-0.825867	1.370647
H94	H	1.740463	-0.325867	1.870647
