data_functionalizedCrystal
_audit_creation_method	'MofGen! by Chris Wilmer'
_symmetry_space_group_name_H-M	'P1'
_symmetry_Int_Tables_number	1
_symmetry_cell_setting	triclinic
loop_
_symmetry_equiv_pos_as_xyz
  x,y,z
_cell_length_a	12.759401
_cell_length_b	10.685194
_cell_length_c	12.759393
_cell_angle_alpha	85.597731
_cell_angle_beta	89.980404
_cell_angle_gamma	94.377514
loop_
_atom_site_label
_atom_site_type_symbol
_atom_site_fract_x
_atom_site_fract_y
_atom_site_fract_z
Zn1	Zn	1.574255	-0.502343	-0.561903
Zn2	Zn	1.560696	-0.713409	-0.372745
Zn3	Zn	1.398550	-0.502405	-0.386239
Zn4	Zn	1.385102	-0.713316	-0.548392
O5	O	1.479651	-0.607868	-0.467320
O6	O	1.719477	-0.530354	-0.536818
O7	O	1.539141	-0.685484	-0.227510
O8	O	1.433160	-0.325798	-0.420842
O9	O	1.709515	-0.685423	-0.397845
O10	O	1.562250	-0.325752	-0.549903
O11	O	1.420013	-0.530460	-0.237423
O12	O	1.249746	-0.530370	-0.407741
O13	O	1.410240	-0.685265	-0.697210
O14	O	1.239865	-0.685326	-0.526875
O15	O	1.549210	-0.530264	-0.707136
O16	O	1.526101	-0.889995	-0.384743
O17	O	1.397092	-0.889927	-0.513791
C18	C	1.206685	-0.607846	-0.467307
C19	C	1.089907	-0.607866	-0.467324
C20	C	0.920188	-0.688693	-0.529249
C21	C	1.029913	-0.688679	-0.529239
C22	C	1.040170	-0.527071	-0.405407
C23	C	0.930447	-0.527093	-0.405412
C24	C	1.458694	-0.935751	-0.446359
C25	C	1.449825	-1.076021	-0.437428
C26	C	1.753682	-0.607892	-0.467333
C27	C	1.870458	-0.607902	-0.467339
C28	C	1.479737	-0.607747	-0.741361
C29	C	1.479774	-0.607695	-0.858141
C30	C	1.500718	-0.278705	-0.488385
C31	C	1.509695	-0.138435	-0.497362
C32	C	1.552141	-0.526973	-0.918174
C33	C	1.552163	-0.526919	-1.027902
C34	C	1.407445	-0.688320	-1.017553
C35	C	1.407420	-0.688367	-0.907827
C36	C	1.479631	-0.607898	-0.194350
C37	C	1.479820	-0.607594	-0.077594
H38	H	1.070396	-0.754469	-0.579652
C39	C	1.264378	-0.847919	-0.908609
C40	C	1.327871	-0.777109	-0.841830
H41	H	1.215275	-0.902704	-0.867862
H42	H	1.227720	-0.792915	-0.954917
H43	H	1.307083	-0.896176	-0.948325
H44	H	1.285167	-0.728844	-0.802119
H45	H	1.364532	-0.832119	-0.795503
C46	C	0.921073	-0.848434	-0.651650
C47	C	0.854247	-0.777523	-0.597314
H48	H	0.880364	-0.903280	-0.693665
H49	H	0.967390	-0.793499	-0.695417
H50	H	0.960775	-0.896632	-0.602713
H51	H	0.814551	-0.729317	-0.646251
H52	H	0.807912	-0.832465	-0.553544
H53	H	1.348539	-0.754002	-1.058021
C54	C	1.616361	-0.455374	-0.754569
C55	C	1.631661	-0.438289	-0.863557
H56	H	1.665457	-0.400623	-0.720855
H57	H	1.546956	-0.436909	-0.737766
H58	H	1.626313	-0.540177	-0.731170
H59	H	1.621701	-0.353488	-0.886957
H60	H	1.701082	-0.456745	-0.880368
H61	H	1.391769	-1.129902	-0.379283
C62	C	1.212925	-0.455269	-0.350424
C63	C	1.106114	-0.438236	-0.337350
H64	H	1.253633	-0.400416	-0.308414
H65	H	1.225490	-0.540024	-0.329508
H66	H	1.232093	-0.436898	-0.422218
H67	H	1.086944	-0.456616	-0.265557
H68	H	1.093544	-0.353462	-0.358260
H69	H	1.567739	-1.084561	-0.555512
C70	C	0.900558	-0.465375	-0.231533
C71	C	0.875791	-0.438278	-0.337344
H72	H	0.866823	-0.410543	-0.189511
H73	H	0.877155	-0.550138	-0.210636
H74	H	0.974494	-0.453798	-0.222693
H75	H	0.801855	-0.449863	-0.346186
H76	H	0.899189	-0.353494	-0.358248
C77	C	1.695215	-0.367403	-1.027102
C78	C	1.631716	-0.438193	-1.093890
H79	H	1.744333	-0.312630	-1.067842
H80	H	1.652524	-0.319144	-0.987390
H81	H	1.731866	-0.422429	-0.980790
H82	H	1.595059	-0.383167	-1.140197
H83	H	1.674413	-0.486455	-1.133620
