data_functionalizedCrystal
_audit_creation_method	'MofGen! by Chris Wilmer'
_symmetry_space_group_name_H-M	'P1'
_symmetry_Int_Tables_number	1
_symmetry_cell_setting	triclinic
loop_
_symmetry_equiv_pos_as_xyz
  x,y,z
_cell_length_a	18.426585
_cell_length_b	14.628931
_cell_length_c	14.628931
_cell_angle_alpha	59.999972
_cell_angle_beta	90.002177
_cell_angle_gamma	59.999884
loop_
_atom_site_label
_atom_site_type_symbol
_atom_site_fract_x
_atom_site_fract_y
_atom_site_fract_z
Zr1	Zr	0.699141	1.000541	-0.119912
O2	O	0.583260	1.191253	-0.265881
O3	O	0.734665	0.809834	-0.075164
O4	O	0.734665	1.000539	-0.265870
O5	O	0.583260	1.000547	0.075256
O6	O	0.854096	1.000533	-0.265862
O7	O	0.583260	1.000547	-0.075175
O8	O	0.854096	0.659395	0.075276
O9	O	0.583260	1.341685	-0.265882
O10	O	0.838946	0.888268	-0.056074
O11	O	0.749816	0.888273	0.056185
O12	O	0.749816	1.112804	-0.168346
O13	O	0.660686	1.112809	-0.056087
Zr14	Zr	0.889620	1.000531	0.120023
Zr15	Zr	0.889620	1.000531	-0.119898
Zr16	Zr	0.699142	1.000541	0.120010
Zr17	Zr	0.699142	1.240463	-0.119912
Zr18	Zr	0.889620	0.760610	0.120024
O19	O	0.854097	1.191239	0.075276
O20	O	0.854096	1.191239	-0.265862
O21	O	0.583261	1.191253	0.075256
O22	O	1.005501	0.809819	0.265993
O23	O	1.005501	0.809819	-0.075145
O24	O	0.734665	0.809834	0.265973
O25	O	1.005501	1.000525	-0.075145
O26	O	0.854097	1.000533	0.265982
O27	O	0.734666	1.000539	0.265973
O28	O	1.005501	1.000525	0.075287
O29	O	0.734665	1.341677	-0.265871
O30	O	0.854096	0.659395	0.265982
O31	O	1.005501	0.659387	0.265993
O32	O	1.005501	0.659387	0.075287
O33	O	0.583260	1.341685	-0.075176
O34	O	0.734666	1.341677	-0.075165
O35	O	0.838946	0.888268	0.168458
O36	O	0.928076	0.888263	0.056198
O37	O	0.838946	1.112799	-0.056074
O38	O	0.749816	1.112804	0.056185
C39	C	0.794380	0.700431	0.000056
C40	C	0.794380	0.598578	0.000056
C41	C	0.750167	0.447906	0.055743
C42	C	0.750166	0.553176	0.055744
C43	C	0.556121	1.000549	0.000039
C44	C	0.475258	1.000553	0.000033
C45	C	0.409587	1.000558	0.000033
C46	C	0.327206	1.000553	0.000043
C47	C	0.261548	1.000539	0.000057
C48	C	0.179161	1.000533	0.000065
C49	C	1.032640	1.000523	0.000073
C50	C	1.113504	1.000519	0.000079
C51	C	0.794380	1.000536	-0.300050
C52	C	0.794380	1.000536	-0.401903
C53	C	0.794381	1.300641	0.000055
C54	C	0.794381	1.402494	0.000055
C55	C	0.856909	1.000533	-0.447307
C56	C	0.856910	1.000533	-0.552578
C57	C	0.794381	1.000536	0.300161
C58	C	0.794381	1.000536	0.402014
C59	C	1.032640	0.700418	0.000073
C60	C	1.113503	0.598561	0.000079
C61	C	0.794381	0.700431	0.300161
C62	C	0.794381	0.598578	0.402014
C63	C	1.032641	0.700418	0.300179
C64	C	1.113504	0.598561	0.402037
C65	C	0.556121	1.300654	-0.300067
C66	C	0.475258	1.402511	-0.401926
C67	C	0.556121	1.300654	0.000038
C68	C	0.475258	1.402511	0.000032
C69	C	0.794381	1.300641	-0.300050
C70	C	0.794381	1.402494	-0.401903
C71	C	1.104952	0.550730	-0.058533
C72	C	1.180924	0.455038	-0.058550
C73	C	1.265446	0.407171	0.000053
C74	C	1.273996	0.455011	0.058667
C75	C	1.198024	0.550709	0.058676
C76	C	1.198011	0.550725	0.391273
C77	C	1.273998	0.455033	0.486971
C78	C	1.265475	0.407171	0.593433
C79	C	1.180960	0.455016	0.604195
C80	C	1.104975	0.550714	0.508498
C81	C	0.390751	1.450359	-0.391162
C82	C	0.314764	1.546081	-0.486860
C83	C	0.323286	1.593947	-0.593321
C84	C	0.407802	1.546096	-0.604083
C85	C	0.483787	1.450382	-0.508386
C86	C	0.483809	1.450352	0.058634
C87	C	0.407837	1.546071	0.058625
C88	C	0.323315	1.593941	0.000019
C89	C	0.314766	1.546096	-0.058591
C90	C	0.390737	1.450385	-0.058587
C91	C	0.838596	0.553166	0.503118
C92	C	0.838597	0.447896	0.608390
H93	H	0.712319	0.408844	0.103425
H94	H	0.756531	0.441535	0.511370
Br95	Br	0.946146	1.000513	-0.382206
H96	H	0.245938	1.585086	-0.106306
Br97	Br	0.419461	1.610980	0.138175
Br98	Br	0.731277	0.533502	0.387627
Br99	Br	0.857485	0.467570	-0.079402
H100	H	0.876445	0.592227	0.511741
H101	H	0.876451	0.408842	0.695123
Br102	Br	0.598472	1.385452	-0.523015
H103	H	1.173946	0.416098	-0.106280
H104	H	0.383762	1.411436	-0.106305
Br105	Br	0.705157	1.000525	-0.466991
H106	H	0.383795	1.411391	-0.304485
H107	H	0.261462	1.671875	0.000025
H108	H	0.910441	1.000537	-0.591627
H109	H	0.261407	1.671883	-0.671235
Br110	Br	0.200076	1.610999	-0.472228
H111	H	0.414730	1.585081	-0.690775
Br112	Br	1.368543	0.277294	0.000028
Br113	Br	0.687061	0.618271	0.135203
H114	H	1.036137	0.589702	-0.106268
Br115	Br	1.388712	0.390032	0.138197
H116	H	1.204999	0.589640	0.106412
Br117	Br	1.209601	0.615666	0.246802
H118	H	0.552625	1.411384	0.106366
H119	H	0.832232	0.559537	-0.047628
H120	H	0.740842	1.000546	-0.558949
H121	H	1.327355	0.329248	0.671346
Br122	Br	1.388686	0.390117	0.472340
H123	H	1.174034	0.416034	0.690888
H124	H	1.036168	0.589649	0.517278
