data_functionalizedCrystal
_audit_creation_method	'MofGen! by Chris Wilmer'
_symmetry_space_group_name_H-M	'P1'
_symmetry_Int_Tables_number	1
_symmetry_cell_setting	triclinic
loop_
_symmetry_equiv_pos_as_xyz
  x,y,z
_cell_length_a	10.654546
_cell_length_b	14.519709
_cell_length_c	9.730223
_cell_angle_alpha	89.997715
_cell_angle_beta	89.998853
_cell_angle_gamma	84.081814
loop_
_atom_site_label
_atom_site_type_symbol
_atom_site_fract_x
_atom_site_fract_y
_atom_site_fract_z
O1	O	1.666591	0.129513	-0.114323
O2	O	1.300993	0.141857	-0.114320
O3	O	1.493486	0.001497	-0.114309
O4	O	1.474099	0.269873	-0.114334
O5	O	1.493483	0.001500	0.114271
O6	O	1.300991	0.141861	0.114260
O7	O	1.666589	0.129516	0.114257
Zn8	Zn	1.483790	0.135689	0.150550
Zn9	Zn	1.483793	0.135685	-0.150614
O10	O	1.474097	0.269877	0.114246
C11	C	1.254203	0.140953	-0.000029
C12	C	1.114786	0.138244	-0.000027
C13	C	1.492581	-0.032866	-0.000019
C14	C	1.489874	-0.135261	-0.000018
C15	C	1.049304	0.136959	-0.124633
C16	C	0.918308	0.134406	-0.124643
C17	C	0.918287	0.134417	0.124567
C18	C	1.049279	0.136977	0.124576
C19	C	1.114811	0.138226	-0.249236
C20	C	1.049330	0.136940	-0.373852
C21	C	0.918333	0.134387	-0.373863
C22	C	0.852818	0.133119	-0.249258
C23	C	1.479906	-0.510209	-0.000054
C24	C	1.482674	-0.405886	-0.000044
C25	C	1.484890	-0.322738	-0.000035
C26	C	1.487658	-0.218409	-0.000027
C27	C	1.713379	0.130420	-0.000037
C28	C	1.852797	0.133130	-0.000048
C29	C	1.475001	0.304240	-0.000047
C30	C	1.477709	0.406635	-0.000057
N31	N	1.483797	0.135692	0.356087
N32	N	1.483796	0.135675	-0.356150
C33	C	1.569054	0.073562	0.428017
C34	C	1.569051	0.073550	0.571900
C35	C	1.398529	0.197808	0.571909
C36	C	1.398527	0.197814	0.428029
C37	C	1.654324	0.011439	0.356075
C38	C	1.739589	-0.050695	0.428006
C39	C	1.739586	-0.050707	0.571889
C40	C	1.654317	0.011417	0.643841
H41	H	1.102679	0.137981	-0.475300
O42	O	0.711527	0.130370	-0.249254
H43	H	0.688050	0.066954	-0.195447
O44	O	1.306558	0.264806	0.350419
H45	H	1.359501	0.309988	0.284841
O46	O	1.256099	0.140979	-0.249219
H47	H	1.279569	0.204400	-0.195429
O48	O	0.847704	0.132977	-0.508258
H49	H	0.915269	0.134271	-0.594895
H50	H	1.654314	0.011396	0.761000
H51	H	1.329108	0.248387	0.630502
O52	O	0.847833	0.133157	0.259095
H53	H	0.862106	0.196445	0.318628
O54	O	1.119921	0.138361	0.258967
H55	H	1.052368	0.137036	0.345611
H56	H	1.654337	0.011445	0.238919
O57	O	1.831525	-0.117721	0.350414
H58	H	1.817204	-0.107279	0.238279
O59	O	1.831552	-0.117711	0.649480
H60	H	1.890850	-0.160897	0.575277
