data_functionalizedCrystal
_audit_creation_method	'MofGen! by Chris Wilmer'
_symmetry_space_group_name_H-M	'P1'
_symmetry_Int_Tables_number	1
_symmetry_cell_setting	triclinic
loop_
_symmetry_equiv_pos_as_xyz
  x,y,z
_cell_length_a	18.215405
_cell_length_b	11.169417
_cell_length_c	11.169409
_cell_angle_alpha	90.022423
_cell_angle_beta	89.960260
_cell_angle_gamma	89.976177
loop_
_atom_site_label
_atom_site_type_symbol
_atom_site_fract_x
_atom_site_fract_y
_atom_site_fract_z
Zn1	Zn	-0.292946	-1.834850	-0.678540
Zn2	Zn	-0.042946	-1.584850	-0.428540
Zn3	Zn	0.207054	-1.334850	-0.178540
Zn4	Zn	0.457054	-1.084850	0.071460
Zn5	Zn	-0.416037	-1.834686	-0.477831
Zn6	Zn	-0.166037	-1.584686	-0.227831
Zn7	Zn	0.083963	-1.334686	0.022169
Zn8	Zn	0.333963	-1.084686	0.272169
Zn9	Zn	-0.292987	-1.634133	-0.477868
Zn10	Zn	-0.042987	-1.384133	-0.227868
Zn11	Zn	0.207013	-1.134133	0.022132
Zn12	Zn	0.457013	-0.884133	0.272132
Zn13	Zn	-0.415973	-1.634092	-0.678469
Zn14	Zn	-0.165973	-1.384092	-0.428469
Zn15	Zn	0.084027	-1.134092	-0.178469
Zn16	Zn	0.334027	-0.884092	0.071531
O17	O	-0.354486	-1.734440	-0.578177
O18	O	-0.104486	-1.484440	-0.328177
O19	O	0.145514	-1.234440	-0.078177
O20	O	0.395514	-0.984440	0.171823
O21	O	-0.309284	-2.002778	-0.651930
O22	O	-0.059284	-1.752778	-0.401930
O23	O	0.190716	-1.502778	-0.151930
O24	O	0.440716	-1.252778	0.098070
O25	O	-0.399758	-1.808030	-0.309886
O26	O	-0.149758	-1.558030	-0.059886
O27	O	0.100242	-1.308030	0.190114
O28	O	0.350242	-1.058030	0.440114
O29	O	-0.189997	-1.660844	-0.504533
O30	O	0.060003	-1.410844	-0.254533
O31	O	0.310003	-1.160844	-0.004533
O32	O	0.560003	-0.910844	0.245467
O33	O	-0.399718	-2.002657	-0.504469
O34	O	-0.149718	-1.752657	-0.254469
O35	O	0.100282	-1.502657	-0.004469
O36	O	0.350282	-1.252657	0.245531
O37	O	-0.189967	-1.808310	-0.651966
O38	O	0.060033	-1.558310	-0.401966
O39	O	0.310033	-1.308310	-0.151966
O40	O	0.560033	-1.058310	0.098034
O41	O	-0.309353	-1.660685	-0.309913
O42	O	-0.059353	-1.410685	-0.059913
O43	O	0.190647	-1.160685	0.190087
O44	O	0.440647	-0.910685	0.440087
O45	O	-0.309291	-1.466178	-0.504464
O46	O	-0.059291	-1.216178	-0.254464
O47	O	0.190709	-0.966178	-0.004464
O48	O	0.440709	-0.716178	0.245536
O49	O	-0.399609	-1.660775	-0.846428
O50	O	-0.149609	-1.410775	-0.596428
O51	O	0.100391	-1.160775	-0.346428
O52	O	0.350391	-0.910775	-0.096428
O53	O	-0.399649	-1.466148	-0.651845
O54	O	-0.149649	-1.216148	-0.401845
O55	O	0.100351	-0.966148	-0.151845
O56	O	0.350351	-0.716148	0.098155
O57	O	-0.309222	-1.808270	-0.846480
O58	O	-0.059222	-1.558270	-0.596480
O59	O	0.190778	-1.308270	-0.346480
O60	O	0.440778	-1.058270	-0.096480
O61	O	-0.519013	-1.807991	-0.504401
O62	O	-0.269013	-1.557991	-0.254401
O63	O	-0.019013	-1.307991	-0.004401
O64	O	0.230987	-1.057991	0.245599
O65	O	-0.518966	-1.660616	-0.651809
O66	O	-0.268966	-1.410616	-0.401809
O67	O	-0.018966	-1.160616	-0.151809
O68	O	0.231034	-0.910616	0.098191
C69	C	-0.354468	-1.422615	-0.578151
C70	C	-0.104468	-1.172615	-0.328151
C71	C	0.145532	-0.922615	-0.078151
C72	C	0.395532	-0.672615	0.171849
C73	C	-0.354478	-1.289215	-0.578169
C74	C	-0.104478	-1.039215	-0.328169
C75	C	0.145522	-0.789215	-0.078169
C76	C	0.395522	-0.539215	0.171831
C77	C	-0.545692	-1.734313	-0.578119
C78	C	-0.295692	-1.484313	-0.328119
C79	C	-0.045692	-1.234313	-0.078119
C80	C	0.204308	-0.984313	0.171881
C81	C	-0.627491	-1.734369	-0.578135
C82	C	-0.377491	-1.484369	-0.328135
C83	C	-0.127491	-1.234369	-0.078135
C84	C	0.122509	-0.984369	0.171865
C85	C	-0.815685	-1.811287	-0.501520
C86	C	-0.565685	-1.561287	-0.251520
C87	C	-0.315685	-1.311287	-0.001520
C88	C	-0.065685	-1.061287	0.248480
C89	C	-0.892543	-1.811341	-0.501550
C90	C	-0.642543	-1.561341	-0.251550
C91	C	-0.392543	-1.311341	-0.001550
C92	C	-0.142543	-1.061341	0.248450
C93	C	-0.892534	-1.657746	-0.654920
C94	C	-0.642534	-1.407746	-0.404920
C95	C	-0.392534	-1.157746	-0.154920
C96	C	-0.142534	-0.907746	0.095080
C97	C	-0.815677	-1.657700	-0.654896
C98	C	-0.565677	-1.407700	-0.404896
C99	C	-0.315677	-1.157700	-0.154896
C100	C	-0.065677	-0.907700	0.095104
C101	C	-0.777254	-1.734468	-0.578189
C102	C	-0.527254	-1.484468	-0.328189
C103	C	-0.277254	-1.234468	-0.078189
C104	C	-0.027254	-0.984468	0.171811
C105	C	-0.930970	-1.734569	-0.578242
C106	C	-0.680970	-1.484569	-0.328242
C107	C	-0.430970	-1.234569	-0.078242
C108	C	-0.180970	-0.984569	0.171758
C109	C	-1.014304	-1.734626	-0.578274
C110	C	-0.764304	-1.484626	-0.328274
C111	C	-0.514304	-1.234626	-0.078274
C112	C	-0.264304	-0.984626	0.171726
C113	C	-0.693915	-1.734413	-0.578159
C114	C	-0.443915	-1.484413	-0.328159
C115	C	-0.193915	-1.234413	-0.078159
C116	C	0.056085	-0.984413	0.171841
C117	C	-0.162533	-1.734600	-0.578261
C118	C	0.087467	-1.484600	-0.328261
C119	C	0.337467	-1.234600	-0.078261
C120	C	0.587467	-0.984600	0.171739
C121	C	-0.080734	-1.734668	-0.578297
C122	C	0.169266	-1.484668	-0.328297
C123	C	0.419266	-1.234668	-0.078297
C124	C	0.669266	-0.984668	0.171703
C125	C	-0.354404	-1.734536	-0.891220
C126	C	-0.104404	-1.484536	-0.641220
C127	C	0.145596	-1.234536	-0.391220
C128	C	0.395596	-0.984536	-0.141220
C129	C	-0.354369	-1.734577	-1.024620
C130	C	-0.104369	-1.484577	-0.774620
C131	C	0.145631	-1.234577	-0.524620
C132	C	0.395631	-0.984577	-0.274620
C133	C	-0.354498	-1.047482	-0.578194
C134	C	-0.104498	-0.797482	-0.328194
C135	C	0.145502	-0.547482	-0.078194
C136	C	0.395502	-0.297482	0.171806
C137	C	-0.354487	-1.180882	-0.578177
C138	C	-0.104487	-0.930882	-0.328177
C139	C	0.145513	-0.680882	-0.078177
C140	C	0.395513	-0.430882	0.171823
C141	C	-0.354514	-1.734413	-0.266352
C142	C	-0.104514	-1.484413	-0.016352
C143	C	0.145486	-1.234413	0.233648
C144	C	0.395486	-0.984413	0.483648
C145	C	-0.354341	-1.734605	-0.132953
C146	C	-0.104341	-1.484605	0.117047
C147	C	0.145659	-1.234605	0.367047
C148	C	0.395659	-0.984605	0.617047
H149	H	-0.784403	-1.873799	-0.439063
H150	H	-0.534403	-1.623799	-0.189063
H151	H	-0.284403	-1.373799	0.060937
H152	H	-0.034403	-1.123799	0.310937
H153	H	-0.784385	-1.595144	-0.717335
H154	H	-0.534385	-1.345144	-0.467335
H155	H	-0.284385	-1.095144	-0.217335
H156	H	-0.034385	-0.845144	0.032665
O157	O	-0.933998	-1.894205	-0.418869
O158	O	-0.683998	-1.644205	-0.168869
O159	O	-0.433998	-1.394205	0.081131
O160	O	-0.183998	-1.144205	0.331131
H161	H	-0.969084	-1.840551	-0.357777
H162	H	-0.719084	-1.590551	-0.107777
H163	H	-0.469084	-1.340551	0.142223
H164	H	-0.219084	-1.090551	0.392223
H165	H	-0.923828	-1.595242	-0.717369
H166	H	-0.673828	-1.345242	-0.467369
H167	H	-0.423828	-1.095242	-0.217369
H168	H	-0.173828	-0.845242	0.032631
