data_functionalizedCrystal
_audit_creation_method	'MofGen! by Chris Wilmer'
_symmetry_space_group_name_H-M	'P1'
_symmetry_Int_Tables_number	1
_symmetry_cell_setting	triclinic
loop_
_symmetry_equiv_pos_as_xyz
  x,y,z
_cell_length_a	10.654562
_cell_length_b	9.730223
_cell_length_c	10.654550
_cell_angle_alpha	90.000487
_cell_angle_beta	84.487523
_cell_angle_gamma	90.005668
loop_
_atom_site_label
_atom_site_type_symbol
_atom_site_fract_x
_atom_site_fract_y
_atom_site_fract_z
O1	O	1.667830	0.114382	0.176466
O2	O	1.302353	0.114365	0.193256
O3	O	1.493495	0.114363	0.002122
O4	O	1.476689	0.114384	0.367600
O5	O	1.493482	-0.114217	0.002133
O6	O	1.302341	-0.114215	0.193266
O7	O	1.667817	-0.114198	0.176477
Zn8	Zn	1.485077	-0.150498	0.184873
Zn9	Zn	1.485094	0.150666	0.184859
O10	O	1.476676	-0.114196	0.367611
C11	C	1.255549	0.000073	0.192025
C12	C	1.116107	0.000066	0.188327
C13	C	1.050570	-0.124522	0.186608
C14	C	0.919547	-0.124499	0.183143
C15	C	0.919611	0.124711	0.183122
C16	C	1.050632	0.124687	0.186577
C17	C	1.050531	-0.268402	0.186625
C18	C	0.919509	-0.268379	0.183160
N19	N	1.485075	-0.356035	0.184882
C20	C	1.561905	-0.427966	0.261760
C21	C	1.561923	-0.571849	0.261737
C22	C	1.408273	-0.571857	0.107954
C23	C	1.408262	-0.427977	0.107972
C24	C	1.650609	-0.427962	0.350550
C25	C	1.650628	-0.571845	0.350526
C26	C	1.714621	0.000097	0.177708
C27	C	1.854064	0.000113	0.181406
C28	C	1.492254	0.000073	-0.044671
C29	C	1.488562	0.000074	-0.184114
N30	N	1.485105	0.356202	0.184841
C31	C	1.483343	-0.124502	-0.380662
C32	C	1.486816	-0.124519	-0.249640
C33	C	1.486823	0.124691	-0.249614
C34	C	1.483342	0.124707	-0.380632
C35	C	1.483344	-0.268382	-0.380676
C36	C	1.486817	-0.268399	-0.249654
C37	C	1.477916	0.000097	0.414403
C38	C	1.481608	0.000106	0.553847
H39	H	1.080103	-0.313040	0.278223
H40	H	1.345713	-0.369416	0.045357
H41	H	0.889918	-0.313030	0.091568
O42	O	1.481444	0.259097	-0.451283
H43	H	1.394397	0.265027	-0.500505
O44	O	1.775927	-0.630945	0.298278
H45	H	1.842345	-0.545920	0.270600
O46	O	1.325416	-0.649449	0.025011
H47	H	1.338324	-0.761584	0.037918
H48	H	1.103990	0.226139	0.187958
H49	H	1.572782	-0.313016	-0.432391
H50	H	0.873220	-0.323610	0.269959
O51	O	1.368356	-0.327577	-0.181151
H52	H	1.302743	-0.358944	-0.250789
O53	O	0.848992	0.259121	0.181248
H54	H	0.746873	0.238210	0.178563
O55	O	1.781796	-0.376181	0.309658
H56	H	1.848061	-0.414242	0.376048
O57	O	1.111822	-0.341591	0.071667
H58	H	1.037921	-0.377391	0.012636
O59	O	1.609649	-0.623605	0.481699
H60	H	1.686065	-0.686938	0.515842
O61	O	1.598253	-0.368853	0.475808
H62	H	1.570509	-0.453873	0.542204
H63	H	1.488232	0.226137	-0.196251
O64	O	1.365885	-0.341555	-0.413587
H65	H	1.281424	-0.287731	-0.368490
O66	O	1.604282	-0.341549	-0.216756
H67	H	1.659042	-0.377335	-0.304558
