data_functionalizedCrystal
_audit_creation_method	'MofGen! by Chris Wilmer'
_symmetry_space_group_name_H-M	'P1'
_symmetry_Int_Tables_number	1
_symmetry_cell_setting	triclinic
loop_
_symmetry_equiv_pos_as_xyz
  x,y,z
_cell_length_a	19.121102
_cell_length_b	29.839131
_cell_length_c	19.120904
_cell_angle_alpha	87.598232
_cell_angle_beta	89.911827
_cell_angle_gamma	87.589066
loop_
_atom_site_label
_atom_site_type_symbol
_atom_site_fract_x
_atom_site_fract_y
_atom_site_fract_z
Zn1	Zn	1.054788	-0.219753	0.441992
Zn2	Zn	1.554788	0.280247	0.941992
Zn3	Zn	1.059688	-0.291815	0.324733
Zn4	Zn	1.559688	0.208185	0.824733
Zn5	Zn	0.942558	-0.213364	0.319778
Zn6	Zn	1.442558	0.286636	0.819778
Zn7	Zn	0.937500	-0.291513	0.436935
Zn8	Zn	1.437500	0.208487	0.936935
O9	O	0.998633	-0.254111	0.380859
O10	O	1.498633	0.245889	0.880859
O11	O	1.153542	-0.232113	0.430627
O12	O	1.653542	0.267887	0.930627
O13	O	1.048319	-0.278861	0.225971
O14	O	1.548319	0.221139	0.725971
O15	O	0.957512	-0.151347	0.336033
O16	O	1.457512	0.348653	0.836033
O17	O	1.157143	-0.285057	0.344477
O18	O	1.657143	0.214943	0.844477
O19	O	1.039966	-0.156042	0.425823
O20	O	1.539966	0.343958	0.925823
O21	O	0.962264	-0.221223	0.222331
O22	O	1.462264	0.278777	0.722331
O23	O	0.843783	-0.220930	0.331129
O24	O	1.343783	0.279070	0.831129
O25	O	0.948890	-0.284542	0.535710
O26	O	1.448890	0.215458	1.035710
O27	O	0.840066	-0.278346	0.417204
O28	O	1.340066	0.221654	0.917204
O29	O	1.035061	-0.231820	0.539425
O30	O	1.535061	0.268180	1.039425
O31	O	1.043414	-0.354639	0.339574
O32	O	1.543414	0.145361	0.839574
O33	O	0.953642	-0.354418	0.422008
O34	O	1.453642	0.145582	0.922008
C35	C	0.816487	-0.248912	0.373081
C36	C	1.316487	0.251088	0.873081
C37	C	0.738563	-0.246699	0.369769
C38	C	1.238563	0.253301	0.869769
C39	C	0.700041	-0.275595	0.412958
C40	C	1.200041	0.224405	0.912958
C41	C	0.626823	-0.273509	0.409850
C42	C	1.126823	0.226491	0.909850
C43	C	0.592129	-0.242531	0.363550
C44	C	1.092129	0.257469	0.863550
C45	C	0.630656	-0.213632	0.320360
C46	C	1.130656	0.286368	0.820360
C47	C	0.703873	-0.215715	0.323471
C48	C	1.203873	0.284285	0.823471
C49	C	0.371158	-0.234741	0.351919
C50	C	0.871158	0.265259	0.851919
C51	C	0.297937	-0.232660	0.348809
C52	C	0.797937	0.267340	0.848809
C53	C	0.294108	-0.292537	0.438300
C54	C	0.794108	0.207463	0.938300
C55	C	0.367326	-0.294620	0.441405
C56	C	0.867326	0.205380	0.941405
C57	C	0.405847	-0.265720	0.398218
C58	C	0.905847	0.234280	0.898218
C59	C	0.517289	-0.240399	0.360370
C60	C	1.017289	0.259601	0.860370
C61	C	0.480686	-0.267849	0.401401
C62	C	0.980686	0.232151	0.901401
C63	C	0.998529	-0.370829	0.380796
C64	C	1.498529	0.129171	0.880796
C65	C	0.998548	-0.420764	0.380795
C66	C	1.498548	0.079236	0.880795
C67	C	1.041555	-0.732823	0.427677
C68	C	1.541555	-0.232823	0.927677
C69	C	1.041629	-0.920499	0.427722
C70	C	1.541629	-0.420499	0.927722
O71	O	1.078093	-0.946813	0.467534
O72	O	1.578093	-0.446813	0.967534
N73	N	0.998749	-0.941559	0.380942
N74	N	1.498749	-0.441559	0.880942
C75	C	0.955844	-0.915697	0.334151
C76	C	1.455844	-0.415697	0.834151
O77	O	0.919368	-0.937916	0.294368
O78	O	1.419368	-0.437916	0.794368
C79	C	0.955767	-0.728021	0.334110
C80	C	1.455767	-0.228021	0.834110
C81	C	0.998655	-0.706964	0.380888
C82	C	1.498655	-0.206964	0.880888
C83	C	1.084439	-0.711765	0.474451
C84	C	1.584439	-0.211765	0.974451
C85	C	1.084423	-0.664849	0.474437
C86	C	1.584423	-0.164849	0.974437
C87	C	1.041523	-0.638990	0.427648
C88	C	1.541523	-0.138990	0.927648
C89	C	0.998639	-0.660048	0.380873
C90	C	1.498639	-0.160048	0.880873
C91	C	0.912858	-0.702160	0.287322
C92	C	1.412858	-0.202160	0.787322
C93	C	0.912841	-0.655238	0.287317
C94	C	1.412841	-0.155238	0.787317
C95	C	0.955730	-0.634181	0.334095
C96	C	1.455730	-0.134181	0.834095
C97	C	0.955722	-0.587273	0.334070
C98	C	1.455722	-0.087273	0.834070
N99	N	0.998602	-0.566213	0.380849
N100	N	1.498602	-0.066213	0.880849
C101	C	1.041502	-0.592071	0.427639
C102	C	1.541502	-0.092071	0.927639
C103	C	0.955889	-1.014229	0.334175
C104	C	1.455889	-0.514229	0.834175
C105	C	0.955909	-1.061148	0.334185
C106	C	1.455909	-0.561148	0.834185
C107	C	1.041693	-1.065947	0.427757
C108	C	1.541693	-0.565947	0.927757
C109	C	1.041676	-1.019027	0.427743
C110	C	1.541676	-0.519027	0.927743
C111	C	0.998769	-0.993169	0.380955
C112	C	1.498769	-0.493169	0.880955
C113	C	1.041466	-0.493544	0.427604
C114	C	1.541466	0.006456	0.927604
C115	C	1.041448	-0.446623	0.427584
C116	C	1.541448	0.053377	0.927584
C117	C	0.955661	-0.441828	0.334015
C118	C	1.455661	0.058172	0.834015
C119	C	0.955681	-0.488745	0.334032
C120	C	1.455681	0.011255	0.834032
C121	C	0.998586	-0.514601	0.380833
C122	C	1.498586	-0.014601	0.880833
O123	O	0.919272	-0.560931	0.294284
O124	O	1.419272	-0.060931	0.794284
O125	O	1.077961	-0.569844	0.467426
O126	O	1.577961	-0.069844	0.967426
C127	C	1.041571	-0.779739	0.427691
C128	C	1.541571	-0.279739	0.927691
C129	C	0.998687	-0.800796	0.380916
C130	C	1.498687	-0.300796	0.880916
C131	C	0.955787	-0.774938	0.334127
C132	C	1.455787	-0.274938	0.834127
C133	C	0.998707	-0.847715	0.380926
C134	C	1.498707	-0.347715	0.880926
C135	C	1.041608	-0.873574	0.427715
C136	C	1.541608	-0.373574	0.927715
C137	C	1.084488	-0.852514	0.474495
C138	C	1.584488	-0.352514	0.974495
C139	C	1.084471	-0.805598	0.474480
C140	C	1.584471	-0.305598	0.974480
C141	C	0.912907	-0.795997	0.287348
C142	C	1.412907	-0.295997	0.787348
C143	C	0.912927	-0.842914	0.287365
C144	C	1.412927	-0.342914	0.787365
C145	C	0.955827	-0.868773	0.334154
C146	C	1.455827	-0.368773	0.834154
C147	C	1.181491	-0.259331	0.388669
C148	C	1.681491	0.240669	0.888669
C149	C	1.259414	-0.261556	0.391997
C150	C	1.759414	0.238444	0.891997
C151	C	0.990865	-0.258860	0.563716
C152	C	1.490865	0.241140	1.063716
C153	C	0.987554	-0.260884	0.641639
C154	C	1.487554	0.239116	1.141639
C155	C	0.998757	-0.136939	0.380940
C156	C	1.498757	0.363061	0.880940
C157	C	0.998809	-0.087006	0.380974
C158	C	1.498809	0.412994	0.880974
C159	C	1.006412	-0.249350	0.198716
C160	C	1.506412	0.250650	0.698716
C161	C	1.009859	-0.247203	0.120799
C162	C	1.509859	0.252797	0.620799
C163	C	1.030861	-0.234386	0.680183
C164	C	1.530861	0.265614	1.180183
C165	C	1.027742	-0.236286	0.753399
C166	C	1.527742	0.263714	1.253399
C167	C	0.981319	-0.264685	0.788070
C168	C	1.481319	0.235315	1.288070
C169	C	0.938007	-0.291184	0.749521
C170	C	1.438007	0.208816	1.249521
C171	C	0.941123	-0.289282	0.676306
C172	C	1.441123	0.210718	1.176306
C173	C	0.969663	-0.271800	1.009035
C174	C	1.469663	0.228200	1.509035
C175	C	0.966552	-0.273701	1.082256
C176	C	1.466552	0.226299	1.582256
C177	C	1.056286	-0.218802	1.086128
C178	C	1.556286	0.281198	1.586128
C179	C	1.059401	-0.216904	1.012912
C180	C	1.559401	0.283096	1.512912
C181	C	1.016086	-0.243401	0.974369
C182	C	1.516086	0.256599	1.474369
C183	C	0.978131	-0.266629	0.862909
C184	C	1.478131	0.233371	1.362909
C185	C	1.019271	-0.241455	0.899532
C186	C	1.519271	0.258545	1.399532
H187	H	0.262736	-0.316065	0.473462
H188	H	0.762736	0.183935	0.973462
H189	H	1.076375	-0.429480	0.465676
H190	H	1.576375	0.070520	0.965676
H191	H	1.119395	-0.788457	0.512571
H192	H	1.619395	-0.288457	1.012571
Cl193	Cl	1.089228	-0.198684	0.636603
Cl194	Cl	1.589228	0.301316	1.136603
H195	H	0.728283	-0.300822	0.450658
H196	H	1.228283	0.199178	0.950658
H197	H	0.877899	-0.634186	0.249217
H198	H	1.377899	-0.134186	0.749217
Cl199	Cl	0.587041	-0.174684	0.262158
Cl200	Cl	1.087041	0.325316	0.762158
Cl201	Cl	1.095406	-0.526042	0.486438
Cl202	Cl	1.595406	-0.026042	0.986438
Cl203	Cl	0.902000	-1.087614	0.275366
Cl204	Cl	1.402000	-0.587614	0.775366
H205	H	0.905851	-0.310854	0.644924
H206	H	1.405851	0.189146	1.144924
H207	H	1.063009	-0.214710	0.784778
H208	H	1.563009	0.285290	1.284778
Cl209	Cl	0.908183	-0.309403	1.125841
Cl210	Cl	1.408183	0.190597	1.625841
H211	H	0.900206	-0.314306	0.777756
H212	H	1.400206	0.185694	1.277756
Cl213	Cl	1.117764	-0.181201	0.969330
Cl214	Cl	1.617764	0.318799	1.469330
Cl215	Cl	0.858966	-0.763496	0.228524
Cl216	Cl	1.358966	-0.263496	0.728524
Cl217	Cl	1.138421	-0.885031	0.533313
Cl218	Cl	1.638421	-0.385031	1.033313
Cl219	Cl	1.077622	-0.205749	0.855943
Cl220	Cl	1.577622	0.294251	1.355943
Cl221	Cl	0.410936	-0.333567	0.499612
Cl222	Cl	0.910936	0.166433	0.999612
Cl223	Cl	1.138376	-0.744265	0.533282
Cl224	Cl	1.638376	-0.244265	1.033282
Cl225	Cl	0.473667	-0.201456	0.302166
Cl226	Cl	0.973667	0.298544	0.802166
Cl227	Cl	0.901940	-0.981728	0.275351
Cl228	Cl	1.401940	-0.481728	0.775351
H229	H	0.878004	-0.860054	0.249266
H230	H	1.378004	-0.360054	0.749266
Cl231	Cl	1.138336	-0.638384	0.533253
Cl232	Cl	1.638336	-0.138384	1.033253
H233	H	0.940337	-0.289754	0.891147
H234	H	1.440337	0.210246	1.391147
H235	H	0.920764	-0.505890	0.295937
H236	H	1.420764	-0.005890	0.795937
H237	H	0.508937	-0.293070	0.439101
H238	H	1.008937	0.206930	0.939101
H239	H	1.076625	-1.087009	0.465853
H240	H	1.576625	-0.587009	0.965853
Cl241	Cl	0.901732	-0.409311	0.275197
Cl242	Cl	1.401732	0.090689	0.775197
Cl243	Cl	0.419575	-0.198407	0.297627
Cl244	Cl	0.919575	0.301593	0.797627
H245	H	0.934404	-0.293382	0.977663
H246	H	1.434404	0.206618	1.477663
Cl247	Cl	0.578398	-0.309837	0.464147
Cl248	Cl	1.078398	0.190163	0.964147
Cl249	Cl	0.858935	-0.728620	0.228514
Cl250	Cl	1.358935	-0.228620	0.728514
Cl251	Cl	0.254323	-0.193716	0.290593
Cl252	Cl	0.754323	0.306284	0.790593
Cl253	Cl	0.752301	-0.179387	0.269177
Cl254	Cl	1.252301	0.320613	0.769177
Cl255	Cl	1.095593	-0.992560	0.486553
Cl256	Cl	1.595593	-0.492560	0.986553
H257	H	1.091549	-0.197229	1.117518
H258	H	1.591549	0.302771	1.617518
