data_functionalizedCrystal
_audit_creation_method	'MofGen! by Chris Wilmer'
_symmetry_space_group_name_H-M	'P1'
_symmetry_Int_Tables_number	1
_symmetry_cell_setting	triclinic
loop_
_symmetry_equiv_pos_as_xyz
  x,y,z
_cell_length_a	10.654550
_cell_length_b	10.654547
_cell_length_c	9.482899
_cell_angle_alpha	99.418557
_cell_angle_beta	80.605744
_cell_angle_gamma	84.484391
loop_
_atom_site_label
_atom_site_type_symbol
_atom_site_fract_x
_atom_site_fract_y
_atom_site_fract_z
O1	O	1.648420	0.195852	0.120783
O2	O	1.282938	0.212663	0.120809
O3	O	1.474084	0.021518	0.120792
O4	O	1.457274	0.386998	0.120799
O5	O	1.512943	-0.017432	-0.121003
O6	O	1.321796	0.173713	-0.120987
O7	O	1.687279	0.156903	-0.121013
Cu8	Cu	1.508086	0.161752	-0.143078
Cu9	Cu	1.462131	0.207814	0.142874
O10	O	1.496132	0.348048	-0.120997
C11	C	1.255568	0.191955	-0.000086
C12	C	1.116124	0.188264	-0.000075
C13	C	1.036637	0.300806	-0.000078
C14	C	0.905620	0.297325	-0.000103
C15	C	0.933588	0.068753	-0.000118
C16	C	1.064604	0.072233	-0.000103
C17	C	1.492280	-0.044755	-0.000103
C18	C	1.488588	-0.184197	-0.000096
C19	C	1.714648	0.177612	-0.000115
C20	C	1.854091	0.181303	-0.000116
N21	N	1.429810	0.240203	0.343997
C22	C	1.477936	0.414321	-0.000098
C23	C	1.481627	0.553765	-0.000096
C24	C	1.462180	0.640503	0.131708
C25	C	1.465665	0.771523	0.131709
C26	C	1.508039	0.729053	-0.131910
C27	C	1.504563	0.598035	-0.131909
N28	N	1.540417	0.129353	-0.344201
C29	C	1.471667	0.198242	0.583606
C30	C	1.498569	0.171303	0.416186
H31	H	1.078581	0.395284	-0.000066
H32	H	1.351034	0.319135	0.406128
Br33	Br	1.671728	-0.002184	0.552247
Br34	Br	1.340375	0.329800	0.687154
H35	H	1.520403	0.527407	-0.239246
H36	H	1.526711	0.765115	-0.239228
H37	H	1.577354	0.092381	0.354055
H38	H	0.840908	0.388967	-0.000108
Br39	Br	1.439282	0.889236	0.310594
Br40	Br	0.863660	-0.088710	-0.000150
Br41	Br	1.172491	-0.080516	-0.000119
H42	H	1.443503	0.604464	0.239040
