data_functionalizedCrystal
_audit_creation_method	'MofGen! by Chris Wilmer'
_symmetry_space_group_name_H-M	'P1'
_symmetry_Int_Tables_number	1
_symmetry_cell_setting	triclinic
loop_
_symmetry_equiv_pos_as_xyz
  x,y,z
_cell_length_a	11.792241
_cell_length_b	11.792241
_cell_length_c	10.268362
_cell_angle_alpha	90.005428
_cell_angle_beta	89.996292
_cell_angle_gamma	95.806584
loop_
_atom_site_label
_atom_site_type_symbol
_atom_site_fract_x
_atom_site_fract_y
_atom_site_fract_z
O1	O	1.506909	-0.155569	-0.108275
O2	O	2.006909	0.344431	0.391725
O3	O	1.176568	-0.171602	-0.108283
O4	O	1.676568	0.328398	0.391717
O5	O	1.349755	0.001585	-0.108270
O6	O	1.849755	0.501585	0.391730
O7	O	1.333722	-0.328756	-0.108289
O8	O	1.833722	0.171244	0.391711
O9	O	1.349740	0.001593	0.108331
O10	O	1.849740	0.501593	0.608331
O11	O	1.176553	-0.171594	0.108317
O12	O	1.676553	0.328406	0.608317
O13	O	1.506894	-0.155561	0.108326
O14	O	2.006894	0.344439	0.608326
Cu15	Cu	1.341722	-0.163577	0.128099
Cu16	Cu	1.841722	0.336423	0.628099
Cu17	Cu	1.341740	-0.163586	-0.128057
Cu18	Cu	1.841740	0.336414	0.371943
O19	O	1.333707	-0.328748	0.108312
O20	O	1.833707	0.171252	0.608312
C21	C	1.348740	0.043880	0.000030
C22	C	1.848740	0.543880	0.500030
C23	C	1.345726	0.169894	0.000029
C24	C	1.845726	0.669894	0.500029
C25	C	1.134269	-0.170591	0.000016
C26	C	1.634269	0.329409	0.500016
C27	C	1.008255	-0.167576	0.000013
C28	C	1.508255	0.332424	0.500013
C29	C	1.549192	-0.156572	0.000023
C30	C	2.049192	0.343428	0.500023
C31	C	1.675206	-0.159587	0.000018
C32	C	2.175206	0.340413	0.500018
C33	C	1.905918	-0.165130	0.000018
C34	C	2.405918	0.334870	0.500018
C35	C	1.777533	-0.162050	0.000018
C36	C	2.277533	0.337950	0.500018
C37	C	1.334721	-0.371043	0.000009
C38	C	1.834721	0.128957	0.500009
C39	C	1.337736	-0.497057	0.000002
C40	C	1.837736	0.002943	0.500002
N41	N	1.341717	-0.163571	0.308265
N42	N	1.841717	0.336429	0.808265
C43	C	1.340183	0.400606	0.000007
C44	C	1.840183	0.900606	0.500007
C45	C	1.343262	0.272221	0.000019
C46	C	1.843262	0.772221	0.500019
N47	N	1.341753	-0.163584	-0.308222
N48	N	1.841753	0.336416	0.191778
C49	C	1.341734	-0.163584	0.573935
C50	C	1.841734	0.336416	1.073935
C51	C	1.341721	-0.163580	0.426097
C52	C	1.841721	0.336420	0.926097
