data_functionalizedCrystal
_audit_creation_method	'MofGen! by Chris Wilmer'
_symmetry_space_group_name_H-M	'P1'
_symmetry_Int_Tables_number	1
_symmetry_cell_setting	triclinic
loop_
_symmetry_equiv_pos_as_xyz
  x,y,z
_cell_length_a	20.453700
_cell_length_b	27.923496
_cell_length_c	17.110486
_cell_angle_alpha	82.740913
_cell_angle_beta	80.939561
_cell_angle_gamma	98.963946
loop_
_atom_site_label
_atom_site_type_symbol
_atom_site_fract_x
_atom_site_fract_y
_atom_site_fract_z
V1	V	-1.318248	-0.066981	0.247219
O2	O	-1.322162	0.003367	0.241999
O3	O	-1.294923	-0.132954	0.246024
O4	O	-1.294988	-0.065885	0.354814
O5	O	-1.322097	-0.064166	0.132455
V6	V	-1.481313	-0.058574	0.233432
O7	O	-1.401188	-0.085421	0.277462
O8	O	-1.548439	-0.040133	0.203190
O9	O	-1.430236	0.007400	0.234628
O10	O	-1.516531	-0.128922	0.238653
O11	O	-1.516596	-0.061388	0.348197
O12	O	-1.430171	-0.059669	0.125837
V13	V	-0.984915	-0.066981	0.247219
O14	O	-0.988829	0.003367	0.241999
O15	O	-0.961590	-0.132954	0.246024
O16	O	-0.961655	-0.065885	0.354814
O17	O	-0.988764	-0.064166	0.132455
V18	V	-1.147979	-0.058574	0.233432
O19	O	-1.067854	-0.085421	0.277462
O20	O	-1.215106	-0.040133	0.203190
O21	O	-1.096902	0.007400	0.234628
O22	O	-1.183198	-0.128922	0.238653
O23	O	-1.183263	-0.061388	0.348197
O24	O	-1.096837	-0.059669	0.125837
V25	V	-0.651582	-0.066981	0.247219
O26	O	-0.655496	0.003367	0.241999
O27	O	-0.628257	-0.132954	0.246024
O28	O	-0.628322	-0.065885	0.354814
O29	O	-0.655430	-0.064166	0.132455
V30	V	-0.814646	-0.058574	0.233432
O31	O	-0.734521	-0.085421	0.277462
O32	O	-0.881772	-0.040133	0.203190
O33	O	-0.763569	0.007400	0.234628
O34	O	-0.849864	-0.128922	0.238653
O35	O	-0.849930	-0.061388	0.348197
O36	O	-0.763504	-0.059669	0.125837
C37	C	-1.241738	-0.149039	0.242251
C38	C	-1.249715	-0.202973	0.241991
C39	C	-1.359430	-0.539900	0.244429
C40	C	-1.389452	-0.742609	0.243487
O41	O	-1.444505	-0.770923	0.246773
N42	N	-1.333038	-0.765487	0.239399
C43	C	-1.269115	-0.737684	0.235551
O44	O	-1.221822	-0.761794	0.232061
C45	C	-1.239095	-0.534976	0.236499
C46	C	-1.295512	-0.512100	0.240579
C47	C	-1.415842	-0.517024	0.248509
C48	C	-1.408336	-0.466350	0.248740
C49	C	-1.344418	-0.438550	0.244891
C50	C	-1.288006	-0.461426	0.240810
C51	C	-1.175174	-0.507174	0.232657
C52	C	-1.167674	-0.456494	0.232896
C53	C	-1.224091	-0.433619	0.236976
C54	C	-1.216582	-0.382951	0.237191
N55	N	-1.272995	-0.360074	0.241279
C56	C	-1.336914	-0.387873	0.245129
C57	C	-1.284880	-0.844108	0.235052
C58	C	-1.292385	-0.894785	0.234814
C59	C	-1.412721	-0.899707	0.242751
C60	C	-1.405215	-0.849029	0.242984
C61	C	-1.341294	-0.821231	0.239140
C62	C	-1.321146	-0.281453	0.245613
C63	C	-1.313633	-0.230773	0.245841
C64	C	-1.193298	-0.225855	0.237908
C65	C	-1.200809	-0.276530	0.237676
C66	C	-1.264738	-0.304328	0.241532
O67	O	-1.161552	-0.354608	0.233916
O68	O	-1.384200	-0.363756	0.248637
C69	C	-1.366936	-0.590575	0.244198
C70	C	-1.310524	-0.613450	0.240117
C71	C	-1.246606	-0.585650	0.236267
C72	C	-1.318029	-0.664127	0.239879
C73	C	-1.381947	-0.691926	0.243728
C74	C	-1.438360	-0.669049	0.247816
C75	C	-1.430854	-0.618374	0.248047
C76	C	-1.190193	-0.608528	0.232179
C77	C	-1.197703	-0.659203	0.231947
C78	C	-1.261622	-0.687002	0.235797
C79	C	-1.241821	-0.063485	0.381024
C80	C	-1.249850	-0.063026	0.468986
C81	C	-1.371201	0.023482	0.238398
C82	C	-1.356303	0.077416	0.238664
C83	C	-1.371119	-0.062071	0.099624
C84	C	-1.356170	-0.062528	0.011660
C85	C	-0.908405	-0.149039	0.242251
C86	C	-0.916382	-0.202973	0.241991
C87	C	-1.313787	-0.065232	0.514361
C88	C	-1.321328	-0.064800	0.597011
C89	C	-1.264931	-0.062166	0.634286
C90	C	-1.200988	-0.059959	0.588905
C91	C	-1.193448	-0.060387	0.506256
C92	C	-1.284687	-0.060749	0.883630
C93	C	-1.292232	-0.060322	0.966286
C94	C	-1.412571	-0.065162	0.974386
C95	C	-1.405026	-0.065593	0.891735
C96	C	-1.341084	-0.063383	0.846361
C97	C	-1.272637	-0.061726	0.718768
C98	C	-1.333378	-0.063820	0.761880
C99	C	-0.908487	-0.063485	0.381024
C100	C	-0.916517	-0.063026	0.468986
C101	C	-1.037868	0.023482	0.238398
C102	C	-1.022970	0.077416	0.238664
C103	C	-1.037786	-0.062071	0.099624
C104	C	-1.022836	-0.062528	0.011660
C105	C	-0.575071	-0.149039	0.242251
C106	C	-0.583049	-0.202973	0.241991
C107	C	-0.575154	-0.063485	0.381024
C108	C	-0.583183	-0.063026	0.468986
C109	C	-0.704535	0.023482	0.238398
C110	C	-0.689637	0.077416	0.238664
C111	C	-0.704452	-0.062071	0.099624
C112	C	-0.689503	-0.062528	0.011660
C113	C	-0.980300	-0.230773	0.245841
C114	C	-0.987806	-0.281451	0.245608
C115	C	-0.931393	-0.304328	0.241520
C116	C	-0.867470	-0.276525	0.237672
C117	C	-0.859965	-0.225848	0.237911
C118	C	-0.980458	-0.065227	0.514346
C119	C	-0.988011	-0.064789	0.596995
C120	C	-0.931622	-0.062154	0.634284
C121	C	-0.867675	-0.059951	0.588918
C122	C	-0.860122	-0.060386	0.506270
C123	C	-1.074047	0.105215	0.234816
C124	C	-1.060056	0.155893	0.235053
C125	C	-0.994987	0.178770	0.239143
C126	C	-0.943905	0.150967	0.242988
C127	C	-0.957896	0.100291	0.242746
C128	C	-0.957738	-0.065157	-0.025608
C129	C	-0.943680	-0.065581	-0.108260
C130	C	-0.994723	-0.063378	-0.153641
C131	C	-1.059826	-0.060746	-0.116368
C132	C	-1.073882	-0.060320	-0.033718
C133	C	-0.646967	-0.230773	0.245841
C134	C	-0.654473	-0.281451	0.245608
C135	C	-0.598059	-0.304328	0.241520
C136	C	-0.534136	-0.276525	0.237672
C137	C	-0.526632	-0.225848	0.237911
C138	C	-0.647125	-0.065227	0.514346
C139	C	-0.654678	-0.064789	0.596995
C140	C	-0.598288	-0.062154	0.634284
C141	C	-0.534341	-0.059951	0.588918
C142	C	-0.526789	-0.060386	0.506270
C143	C	-0.740714	0.105215	0.234816
C144	C	-0.726722	0.155893	0.235053
C145	C	-0.661654	0.178770	0.239143
C146	C	-0.610572	0.150967	0.242988
C147	C	-0.624563	0.100291	0.242746
C148	C	-0.624405	-0.065157	-0.025608
C149	C	-0.610347	-0.065581	-0.108260
C150	C	-0.661389	-0.063378	-0.153641
C151	C	-0.726493	-0.060746	-0.116368
C152	C	-0.740548	-0.060320	-0.033718
H153	H	-1.359577	-0.212150	0.249160
F154	F	-0.606057	-0.358264	0.241266
F155	F	-0.570194	0.070710	0.246844
H156	H	-0.793701	0.086595	0.231487
F157	F	-0.474102	-0.300880	0.233319
H158	H	-0.706752	-0.066585	0.633922
F159	F	-0.874390	-0.068384	-0.147914
H160	H	-0.768324	0.178523	0.231922
F161	F	-0.606337	-0.061693	0.722248
F162	F	-1.143304	0.080877	0.230464
F163	F	-1.114429	0.185473	0.230961
H164	H	-1.026381	-0.067374	0.483997
H165	H	-1.115621	-0.433864	0.229770
H166	H	-0.937513	-0.345593	0.241326
H167	H	-0.706526	-0.304081	0.248739
H168	H	-0.983271	-0.063732	-0.220938
H169	H	-0.693048	-0.067374	0.483997
H170	H	-0.474581	-0.203217	0.234772
H171	H	-1.101381	-0.058952	-0.153330
F172	F	-1.389185	-0.311030	0.249717
H173	H	-0.474719	-0.058594	0.469344
H174	H	-0.821765	-0.057806	0.619292
H175	H	-1.232625	-0.058966	0.846701
F176	F	-1.216843	-0.814529	0.230958
F177	F	-0.791931	-0.196267	0.233807
H178	H	-1.126893	-0.058181	-0.003380
F179	F	-1.140966	-0.057155	0.628578
F180	F	-0.474334	-0.057152	0.628617
H181	H	-0.650270	0.220034	0.239339
H182	H	-1.154871	-0.295157	0.234359
F183	F	-0.541322	0.175322	0.247336
H184	H	-0.582834	-0.066951	0.011331
F185	F	-0.807435	-0.300880	0.233319
F186	F	-1.490902	-0.594035	0.252387
F187	F	-0.792065	-0.058048	0.458004
H188	H	-0.983603	0.220034	0.239339
F189	F	-1.056074	-0.067136	0.645263
F190	F	-0.541056	-0.068384	-0.147914
H191	H	-0.937781	-0.061801	0.701583
H192	H	-0.890926	0.169602	0.246317
H193	H	-0.649937	-0.063732	-0.220938
F194	F	-0.903527	0.070710	0.246844
F195	F	-1.480750	-0.929302	0.246851
F196	F	-0.707017	-0.206435	0.250197
F197	F	-0.903404	-0.067502	0.022675
H198	H	-1.450952	-0.067738	0.861392
H199	H	-0.768047	-0.058952	-0.153330
F200	F	-0.809839	-0.057527	0.005938
H201	H	-1.467894	-0.539654	0.251647
F202	F	-1.468384	-0.442010	0.253076
F203	F	-1.125397	-0.058036	0.457964
H204	H	-1.246443	-0.913404	0.231481
F205	F	-1.115123	-0.531508	0.228307
F206	F	-1.465262	-0.824689	0.247329
H207	H	-1.141256	-0.203211	0.234769
H208	H	-1.464631	-0.066961	1.011338
H209	H	-1.151757	-0.677822	0.228619
F210	F	-1.506388	-0.698643	0.251909
H211	H	-1.359714	-0.067380	0.484019
H212	H	-1.373391	-0.066593	0.633950
F213	F	-1.122160	-0.578948	0.228081
H214	H	-1.246303	-0.058176	0.996632
H215	H	-1.379295	-0.065963	0.731526
H216	H	-1.226720	-0.059584	0.749127
H217	H	-1.026242	-0.212153	0.249164
F218	F	-1.055842	-0.311032	0.249700
