data_functionalizedCrystal
_audit_creation_method	'MofGen! by Chris Wilmer'
_symmetry_space_group_name_H-M	'P1'
_symmetry_Int_Tables_number	1
_symmetry_cell_setting	triclinic
loop_
_symmetry_equiv_pos_as_xyz
  x,y,z
_cell_length_a	9.065218
_cell_length_b	15.995350
_cell_length_c	7.540329
_cell_angle_alpha	89.998640
_cell_angle_beta	90.005135
_cell_angle_gamma	95.745837
loop_
_atom_site_label
_atom_site_type_symbol
_atom_site_fract_x
_atom_site_fract_y
_atom_site_fract_z
O1	O	-1.957507	0.122771	-0.147563
O2	O	-1.457507	0.622771	0.352437
O3	O	-1.527985	0.132841	-0.147546
O4	O	-1.027985	0.632841	0.352454
O5	O	-1.754488	0.006007	-0.147553
O6	O	-1.254488	0.506007	0.352447
O7	O	-1.731005	0.249604	-0.147556
O8	O	-1.231005	0.749604	0.352444
O9	O	-1.754474	0.006006	0.147412
O10	O	-1.254474	0.506006	0.647412
O11	O	-1.527972	0.132839	0.147419
O12	O	-1.027972	0.632839	0.647419
O13	O	-1.957494	0.122769	0.147402
O14	O	-1.457494	0.622769	0.647402
Cu15	Cu	-1.742732	0.127804	0.174343
Cu16	Cu	-1.242732	0.627804	0.674343
Cu17	Cu	-1.742748	0.127806	-0.174487
Cu18	Cu	-1.242748	0.627806	0.325513
O19	O	-1.730992	0.249603	0.147409
O20	O	-1.230992	0.749603	0.647409
C21	C	-1.473015	0.131872	-0.000061
C22	C	-0.973015	0.631872	0.499939
C23	C	-1.309240	0.128978	-0.000055
C24	C	-0.809240	0.628978	0.499945
C25	C	-1.753510	-0.025196	-0.000074
C26	C	-1.253510	0.474804	0.499926
C27	C	-1.750600	-0.118168	-0.000084
C28	C	-1.250600	0.381832	0.499916
C29	C	-1.012465	0.123738	-0.000076
C30	C	-0.512465	0.623738	0.499924
C31	C	-1.176239	0.126631	-0.000061
C32	C	-0.676239	0.626631	0.499939
C33	C	-1.740147	-0.455995	-0.000078
C34	C	-1.240147	0.044005	0.499922
C35	C	-1.578837	-0.409784	-0.000733
C36	C	-1.078837	0.090216	0.499267
C37	C	-1.581748	-0.313072	-0.000068
C38	C	-1.081748	0.186928	0.499932
C39	C	-1.745332	-0.288395	-0.000082
C40	C	-1.245332	0.211605	0.499918
C41	C	-1.824888	-0.328870	0.168351
C42	C	-1.324888	0.171130	0.668351
C43	C	-1.820836	-0.425537	0.168492
C44	C	-1.320836	0.074463	0.668492
C45	C	-1.824184	-0.425867	-0.166938
C46	C	-1.324184	0.074133	0.333062
C47	C	-1.824146	-0.328922	-0.169164
C48	C	-1.324146	0.171078	0.330836
C49	C	-1.748271	-0.193675	-0.000078
C50	C	-1.248271	0.306325	0.499922
C51	C	-1.737214	-0.550715	-0.000069
C52	C	-1.237214	-0.050715	0.499931
C53	C	-1.731969	0.280806	-0.000074
C54	C	-1.231969	0.780806	0.499926
C55	C	-1.734880	0.373778	-0.000076
C56	C	-1.234880	0.873778	0.499924
N57	N	-1.742731	0.127802	0.419692
N58	N	-1.242731	0.627802	0.919692
N59	N	-1.742760	0.127801	-0.419836
N60	N	-1.242760	0.627801	0.080164
H61	H	-1.519211	-0.285123	-0.120807
H62	H	-1.019211	0.214877	0.379193
H63	H	-1.769621	-0.300908	0.293703
H64	H	-1.269621	0.199092	0.793703
Cl65	Cl	-2.008326	-0.303805	-0.184895
Cl66	Cl	-1.508326	0.196195	0.315105
H67	H	-1.945069	-0.313833	0.174605
H68	H	-1.445069	0.186167	0.674605
Cl69	Cl	-2.003679	-0.473942	0.180302
Cl70	Cl	-1.503679	0.026058	0.680302
Cl71	Cl	-1.484524	-0.270783	0.186667
Cl72	Cl	-0.984524	0.229217	0.686667
Cl73	Cl	-1.742751	-0.458182	-0.364042
Cl74	Cl	-1.242751	0.041818	0.135958
Cl75	Cl	-1.735079	-0.287038	-0.361573
Cl76	Cl	-1.235079	0.212962	0.138427
H77	H	-1.514368	-0.428804	-0.121519
H78	H	-1.014368	0.071196	0.378481
Cl79	Cl	-2.007805	-0.473512	-0.168708
Cl80	Cl	-1.507805	0.026488	0.331292
Cl81	Cl	-1.731243	-0.454476	0.362890
Cl82	Cl	-1.231243	0.045524	0.862890
H83	H	-1.514643	-0.429866	0.119386
H84	H	-1.014643	0.070134	0.619386
