data_functionalizedCrystal
_audit_creation_method	'MofGen! by Chris Wilmer'
_symmetry_space_group_name_H-M	'P1'
_symmetry_Int_Tables_number	1
_symmetry_cell_setting	triclinic
loop_
_symmetry_equiv_pos_as_xyz
  x,y,z
_cell_length_a	19.805407
_cell_length_b	17.640280
_cell_length_c	19.805399
_cell_angle_alpha	78.776044
_cell_angle_beta	89.983114
_cell_angle_gamma	78.800112
loop_
_atom_site_label
_atom_site_type_symbol
_atom_site_fract_x
_atom_site_fract_y
_atom_site_fract_z
Zn1	Zn	1.089264	-0.314670	-0.328319
Zn2	Zn	1.589264	0.185330	0.171681
Zn3	Zn	1.112096	-0.446848	-0.192280
Zn4	Zn	1.612096	0.053152	0.307720
Zn5	Zn	0.976088	-0.314695	-0.215139
Zn6	Zn	1.476088	0.185305	0.284861
Zn7	Zn	0.998946	-0.446803	-0.305434
Zn8	Zn	1.498946	0.053197	0.194566
O9	O	1.044098	-0.380754	-0.260293
O10	O	1.544098	0.119246	0.239707
O11	O	1.187010	-0.332212	-0.310284
O12	O	1.687010	0.167788	0.189716
O13	O	1.094043	-0.429347	-0.100590
O14	O	1.594043	0.070653	0.399410
O15	O	0.971979	-0.204088	-0.249297
O16	O	1.471979	0.295912	0.250703
O17	O	1.203785	-0.429323	-0.210336
O18	O	1.703785	0.070677	0.289664
O19	O	1.055129	-0.204069	-0.332450
O20	O	1.555129	0.295931	0.167550
O21	O	0.994119	-0.332255	-0.117385
O22	O	1.494119	0.167745	0.382615
O23	O	0.884402	-0.332211	-0.227106
O24	O	1.384402	0.167789	0.272894
O25	O	1.010938	-0.429246	-0.403192
O26	O	1.510938	0.070754	0.096808
O27	O	0.901196	-0.429270	-0.293446
O28	O	1.401196	0.070730	0.206554
O29	O	1.077294	-0.332168	-0.420005
O30	O	1.577294	0.167832	0.079995
O31	O	1.116208	-0.557446	-0.188146
O32	O	1.616208	-0.057446	0.311854
O33	O	1.033077	-0.557413	-0.271280
O34	O	1.533077	-0.057413	0.228720
C35	C	0.868240	-0.380739	-0.260274
C36	C	1.368240	0.119261	0.239726
C37	C	0.793010	-0.380751	-0.260278
C38	C	1.293010	0.119249	0.239722
C39	C	0.766441	-0.431366	-0.294738
C40	C	1.266441	0.068634	0.205262
C41	C	0.695753	-0.431367	-0.294747
C42	C	1.195753	0.068633	0.205253
C43	C	0.651635	-0.380758	-0.260292
C44	C	1.151635	0.119242	0.239708
C45	C	0.678208	-0.330137	-0.225832
C46	C	1.178208	0.169863	0.274168
C47	C	0.748894	-0.330133	-0.225827
C48	C	1.248894	0.169867	0.274173
C49	C	0.393138	-0.330155	-0.225851
C50	C	0.893138	0.169845	0.274149
C51	C	0.322447	-0.330165	-0.225857
C52	C	0.822447	0.169835	0.274143
C53	C	0.339996	-0.431390	-0.294771
C54	C	0.839996	0.068610	0.205229
C55	C	0.410683	-0.431385	-0.294767
C56	C	0.910683	0.068615	0.205233
C57	C	0.437249	-0.380762	-0.260309
C58	C	0.937249	0.119238	0.239691
C59	C	0.513897	-0.380760	-0.260301
C60	C	1.013897	0.119240	0.239699
C61	C	0.574989	-0.380763	-0.260296
C62	C	1.074989	0.119237	0.239704
C63	C	1.079619	-0.586108	-0.224764
C64	C	1.579619	-0.086108	0.275236
C65	C	1.094876	-0.673959	-0.209587
C66	C	1.594876	-0.173959	0.290413
C67	C	0.928465	-0.962942	-0.375837
C68	C	1.428465	-0.462942	0.124163
C69	C	0.942803	-1.045492	-0.361554
C70	C	1.442803	-0.545492	0.138446
C71	C	1.029421	-1.045461	-0.275074
C72	C	1.529421	-0.545461	0.224926
C73	C	1.015092	-0.962910	-0.289352
C74	C	1.515092	-0.462910	0.210648
C75	C	0.964613	-0.921657	-0.339734
C76	C	1.464613	-0.421657	0.160266
C77	C	1.051240	-0.921624	-0.253249
C78	C	1.551240	-0.421624	0.246751
C79	C	1.036910	-0.839080	-0.267523
C80	C	1.536910	-0.339080	0.232477
C81	C	0.986431	-0.797821	-0.317901
C82	C	1.486431	-0.297821	0.182099
C83	C	0.950282	-0.839113	-0.354008
C84	C	1.450282	-0.339113	0.145992
C85	C	1.101716	-0.962879	-0.202864
C86	C	1.601716	-0.462879	0.297136
C87	C	1.137864	-0.921593	-0.166761
C88	C	1.637864	-0.421593	0.333239
C89	C	1.123537	-0.839048	-0.181038
C90	C	1.623537	-0.339048	0.318962
C91	C	1.073059	-0.797789	-0.231416
C92	C	1.573059	-0.297789	0.268584
C93	C	1.159686	-0.797756	-0.144931
C94	C	1.659686	-0.297756	0.355069
C95	C	1.145356	-0.715212	-0.159205
C96	C	1.645356	-0.215212	0.340795
C97	C	1.058728	-0.715245	-0.245690
C98	C	1.558728	-0.215245	0.254310
C99	C	1.220644	-0.380770	-0.260313
C100	C	1.720644	0.119230	0.239687
C101	C	1.295877	-0.380776	-0.260321
C102	C	1.795877	0.119224	0.239679
C103	C	1.044118	-0.380699	-0.436845
C104	C	1.544118	0.119301	0.063155
C105	C	1.044127	-0.380676	-0.512081
C106	C	1.544127	0.119324	-0.012081
C107	C	1.008457	-0.174598	-0.295976
C108	C	1.508457	0.325402	0.204024
C109	C	0.993270	-0.086747	-0.311182
C110	C	1.493270	0.413253	0.188818
C111	C	0.992108	-0.330115	-0.556171
C112	C	1.492108	0.169885	-0.056171
C113	C	0.992115	-0.330100	-0.626862
C114	C	1.492115	0.169900	-0.126862
C115	C	1.044144	-0.380642	-0.653463
C116	C	1.544144	0.119358	-0.153463
C117	C	1.096166	-0.431208	-0.609367
C118	C	1.596166	0.068792	-0.109367
C119	C	1.096156	-0.431227	-0.538677
C120	C	1.596156	0.068773	-0.038677
C121	C	1.096207	-0.431134	-0.894454
C122	C	1.596207	0.068866	-0.394454
C123	C	1.096214	-0.431109	-0.965150
C124	C	1.596214	0.068891	-0.465150
C125	C	0.992165	-0.330007	-0.982639
C126	C	1.492165	0.169993	-0.482639
C127	C	0.992155	-0.330026	-0.911948
C128	C	1.492155	0.169974	-0.411948
C129	C	1.044175	-0.380595	-0.867859
C130	C	1.544175	0.119405	-0.367859
C131	C	1.044166	-0.380612	-0.791207
C132	C	1.544166	0.119388	-0.291207
C133	C	1.044156	-0.380621	-0.730114
C134	C	1.544156	0.119379	-0.230114
C135	C	1.044107	-0.380752	-0.084437
C136	C	1.544107	0.119248	0.415563
C137	C	1.044191	-0.380552	-0.009240
C138	C	1.544191	0.119448	0.490760
H139	H	0.802358	-0.472581	-0.322792
H140	H	1.302358	0.027419	0.177208
F141	F	1.151574	-0.484949	-0.847540
F142	F	1.651574	0.015051	-0.347540
F143	F	1.191586	-0.965506	-0.113143
F144	F	1.691586	-0.465506	0.386857
F145	F	1.005008	-0.671336	-0.299318
F146	F	1.505008	-0.171336	0.200682
F147	F	1.151520	-0.485043	-0.491753
F148	F	1.651520	0.014957	0.008247
H149	H	0.318358	-0.472606	-0.322831
H150	H	0.818358	0.027394	0.177169
H151	H	0.446601	-0.472599	-0.322820
H152	H	0.946601	0.027401	0.177180
F153	F	1.083143	-1.089374	-0.221457
F154	F	1.583143	-0.589374	0.278543
F155	F	0.275494	-0.276296	-0.189184
F156	F	0.775494	0.223704	0.310816
F157	F	0.971301	-0.709970	-0.333215
F158	F	1.471301	-0.209970	0.166785
H159	H	0.414760	-0.288941	-0.197788
H160	H	0.914760	0.211059	0.302212
H161	H	0.887364	-0.929352	-0.416868
H162	H	1.387364	-0.429352	0.083132
F163	F	0.896562	-0.795204	-0.407636
F164	F	1.396562	-0.295204	0.092364
H165	H	0.674125	-0.472584	-0.322807
H166	H	1.174125	0.027416	0.177193
F167	F	0.904319	-1.089428	-0.399979
F168	F	1.404319	-0.589428	0.100021
F169	F	1.116985	-1.050731	-0.187692
F170	F	1.616985	-0.550731	0.312308
H171	H	1.138526	-0.472364	-0.631031
H172	H	1.638526	0.027636	-0.131031
F173	F	1.183823	-0.671271	-0.120775
F174	F	1.683823	-0.171271	0.379225
H175	H	0.642281	-0.288927	-0.197781
H176	H	1.142281	0.211073	0.302219
F177	F	0.936733	-0.276317	-0.527868
F178	F	1.436733	0.223683	-0.027868
F179	F	0.936729	-0.276315	-0.673778
F180	F	1.436729	0.223685	-0.173778
H181	H	0.949807	-0.288834	-1.018545
H182	H	1.449807	0.211166	-0.518545
F183	F	0.777170	-0.276260	-0.189152
F184	F	1.277170	0.223740	0.310848
F185	F	1.213403	-0.841671	-0.091309
F186	F	1.713403	-0.341671	0.408691
H187	H	0.949790	-0.288867	-0.890295
H188	H	1.449790	0.211133	-0.390295
F189	F	1.151592	-0.484907	-0.993458
F190	F	1.651592	0.015093	-0.493458
