data_functionalizedCrystal
_audit_creation_method	'MofGen! by Chris Wilmer'
_symmetry_space_group_name_H-M	'P1'
_symmetry_Int_Tables_number	1
_symmetry_cell_setting	triclinic
loop_
_symmetry_equiv_pos_as_xyz
  x,y,z
_cell_length_a	10.654551
_cell_length_b	10.540510
_cell_length_c	9.730223
_cell_angle_alpha	90.001116
_cell_angle_beta	90.000351
_cell_angle_gamma	84.499291
loop_
_atom_site_label
_atom_site_type_symbol
_atom_site_fract_x
_atom_site_fract_y
_atom_site_fract_z
O1	O	1.667877	0.178303	-0.114264
O2	O	1.302403	0.195289	-0.114270
O3	O	1.493498	0.002084	-0.114266
O4	O	1.476783	0.371508	-0.114268
O5	O	1.493496	0.002089	0.114314
O6	O	1.302401	0.195294	0.114310
O7	O	1.667875	0.178308	0.114316
Zn8	Zn	1.485138	0.186802	0.150605
Zn9	Zn	1.485140	0.186795	-0.150559
O10	O	1.476780	0.371513	0.114312
C11	C	1.255604	0.194044	0.000019
C12	C	1.116160	0.190312	0.000017
C13	C	0.919625	0.185040	0.124617
C14	C	1.050646	0.188559	0.124618
C15	C	1.050643	0.188560	-0.124593
C16	C	0.919623	0.185051	-0.124592
C17	C	0.854121	0.183274	0.249226
C18	C	0.919628	0.185028	0.373836
C19	C	1.050649	0.188546	0.373837
C20	C	1.116163	0.190310	0.249227
C21	C	1.492251	-0.045217	0.000021
C22	C	1.488524	-0.186165	0.000012
C23	C	1.621277	-0.403668	0.000538
C24	C	1.625252	-0.257074	0.000016
C25	C	1.418534	-0.230902	-0.130516
C26	C	1.415527	-0.377662	-0.130619
C27	C	1.412677	-0.377464	0.129320
C28	C	1.419163	-0.231125	0.131038
C29	C	1.714674	0.179553	0.000024
C30	C	1.854119	0.183285	0.000017
C31	C	1.478027	0.418813	0.000022
C32	C	1.481754	0.559762	0.000021
N33	N	1.485145	0.186805	0.356141
N34	N	1.485143	0.186782	-0.356095
C35	C	1.569783	0.101283	0.428069
C36	C	1.569780	0.101268	0.571952
C37	C	1.400495	0.272308	0.571967
C38	C	1.400494	0.272316	0.428087
C39	C	1.654435	0.015773	0.356124
C40	C	1.739081	-0.069755	0.428051
C41	C	1.739078	-0.069771	0.571934
C42	C	1.654428	0.015742	0.643890
H43	H	1.103980	0.189988	0.475300
H44	H	1.222847	0.193190	0.249238
H45	H	1.103995	0.189995	-0.226044
F46	F	0.849901	0.183187	-0.257205
F47	F	0.849900	0.183166	0.506446
F48	F	1.278499	-0.406368	0.130470
H49	H	1.680335	-0.228690	-0.093712
H50	H	1.807993	-0.139384	0.369458
H51	H	1.674239	-0.447195	-0.092540
H52	H	1.680015	-0.227747	0.093582
F53	F	1.286970	-0.168911	-0.136872
H54	H	1.313263	-0.400620	-0.136534
F55	F	1.469091	-0.433031	0.258636
F56	F	1.482068	-0.190602	-0.257485
F57	F	1.478056	-0.430256	-0.258145
H58	H	1.654447	0.015780	0.238967
F59	F	1.829154	-0.160804	0.648483
F60	F	1.485720	-0.193740	0.257258
H61	H	1.319341	-0.182022	0.138918
F62	F	1.654421	0.015709	0.797024
H63	H	1.331578	0.341930	0.630562
F64	F	0.714677	0.179532	0.249236
F65	F	1.690905	-0.458526	0.122893
H66	H	1.331572	0.341955	0.369523
