data_functionalizedCrystal
_audit_creation_method	'MofGen! by Chris Wilmer'
_symmetry_space_group_name_H-M	'P1'
_symmetry_Int_Tables_number	1
_symmetry_cell_setting	triclinic
loop_
_symmetry_equiv_pos_as_xyz
  x,y,z
_cell_length_a	15.944551
_cell_length_b	23.532407
_cell_length_c	15.021413
_cell_angle_alpha	89.999348
_cell_angle_beta	89.997174
_cell_angle_gamma	83.173708
loop_
_atom_site_label
_atom_site_type_symbol
_atom_site_fract_x
_atom_site_fract_y
_atom_site_fract_z
O1	O	1.113910	0.073442	-0.073949
O2	O	0.869284	0.082498	-0.073972
O3	O	0.998974	-0.004933	-0.073943
O4	O	0.984220	0.160873	-0.073977
O5	O	0.998953	-0.004921	0.074121
O6	O	0.869263	0.082510	0.074092
O7	O	1.113889	0.073455	0.074116
Zn8	Zn	0.991573	0.077985	0.097612
Zn9	Zn	0.991600	0.077968	-0.097469
O10	O	0.984200	0.160886	0.074087
C11	C	0.837983	0.082128	0.000057
C12	C	0.744746	0.081001	0.000049
C13	C	0.530369	0.024113	0.000078
C14	C	0.469137	0.050524	-0.072931
C15	C	0.574038	0.078962	0.000060
C16	C	0.469138	0.050549	0.073049
C17	C	0.409142	0.076989	0.000075
C18	C	0.514033	0.105388	-0.073009
C19	C	0.514041	0.105405	0.073036
C20	C	0.452826	0.131856	0.000010
C21	C	0.669030	0.080097	0.000051
C22	C	0.314150	0.075858	0.000077
C23	C	0.998588	-0.026144	0.000091
C24	C	0.997458	-0.089366	0.000098
C25	C	1.067121	-0.488199	0.000056
C26	C	1.066072	-0.547603	0.000049
O27	O	1.130650	-0.584098	0.000022
N28	N	0.988971	-0.570528	0.000042
C29	C	0.912915	-0.534045	0.000033
O30	O	0.847239	-0.558999	0.000026
C31	C	0.913965	-0.474642	0.000034
C32	C	0.991071	-0.451721	0.000049
C33	C	1.144220	-0.465277	0.000070
C34	C	1.145269	-0.405877	0.000079
C35	C	1.069219	-0.369399	0.000073
C36	C	0.992120	-0.392320	0.000058
C37	C	0.837910	-0.438160	0.000018
C38	C	0.838967	-0.378754	0.000018
C39	C	0.916072	-0.355832	0.000034
C40	C	0.917118	-0.296442	0.000060
N41	N	0.994219	-0.273517	0.000067
C42	C	1.070269	-0.309995	0.000073
C43	C	0.910716	-0.658796	0.000031
C44	C	0.909664	-0.718198	0.000037
C45	C	1.062821	-0.731752	0.000050
C46	C	1.063872	-0.672349	0.000051
C47	C	0.987816	-0.635871	0.000037
C48	C	1.072466	-0.185250	0.000092
C49	C	1.073508	-0.125844	0.000104
C50	C	0.920352	-0.112295	0.000085
C51	C	0.919309	-0.171696	0.000078
C52	C	0.995373	-0.208173	0.000078
O53	O	0.852574	-0.259913	0.000083
O54	O	1.135935	-0.285033	0.000069
C55	C	1.145190	0.073824	0.000084
C56	C	1.238427	0.074951	0.000087
C57	C	0.984586	0.182097	0.000051
C58	C	0.985715	0.245318	0.000038
N59	N	0.991561	0.077995	0.230750
N60	N	0.991619	0.077953	-0.230606
C61	C	0.931583	0.118404	0.470420
C62	C	1.007390	0.129461	0.529759
C63	C	0.991582	0.077981	0.412357
C64	C	0.915796	0.066938	0.529760
C65	C	0.991596	0.077969	0.587781
C66	C	1.067428	0.089063	0.470389
C67	C	0.975783	0.026518	0.470385
C68	C	1.051645	0.037552	0.529697
C69	C	0.991573	0.077990	0.311300
C70	C	0.991614	0.077960	0.688836
H71	H	0.533969	0.128590	0.134754
H72	H	1.102446	0.003360	0.555561
H73	H	0.449239	0.027346	0.134770
H74	H	0.419284	0.177423	-0.000040
H75	H	0.962383	-0.016985	0.444284
H76	H	1.136300	-0.107185	0.000119
H77	H	1.131539	0.098450	0.444420
C78	C	0.823023	-0.584130	0.076143
C79	C	0.827109	-0.618700	0.000029
H80	H	0.771410	-0.559377	0.076136
H81	H	0.825792	-0.607587	0.127765
H82	H	0.869091	-0.561975	0.076137
H83	H	0.781044	-0.640859	0.000038
H84	H	0.824332	-0.595241	-0.051607
H85	H	0.775123	-0.456812	0.000000
C86	C	0.772557	-0.281675	0.000010
C87	C	0.755362	-0.338657	0.000004
H88	H	0.720943	-0.256923	-0.000003
H89	H	0.804175	-0.274727	0.051647
H90	H	0.804203	-0.274727	-0.051620
H91	H	0.723721	-0.345606	0.051638
H92	H	0.723731	-0.345607	-0.051638
H93	H	0.851698	0.057603	0.555841
H94	H	1.208056	-0.387220	0.000088
C95	C	0.553378	-0.065933	-0.076552
C96	C	0.575867	-0.037341	-0.000009
H97	H	0.581475	-0.103869	-0.076611
H98	H	0.494034	-0.067074	-0.077072
H99	H	0.569389	-0.046249	-0.127884
H100	H	0.559850	-0.057023	0.051324
H101	H	0.635224	-0.036203	0.000519
C102	C	0.768026	-0.152328	0.000056
C103	C	0.834555	-0.196895	0.000059
H104	H	0.715703	-0.167883	0.000031
H105	H	0.771608	-0.129450	0.051695
H106	H	0.771641	-0.129434	-0.051572
H107	H	0.830943	-0.219787	0.051691
H108	H	0.830971	-0.219783	-0.051585
H109	H	0.858434	-0.082584	0.000084
H110	H	0.846878	-0.736855	0.000039
C111	C	0.783955	0.153550	0.466534
C112	C	0.863158	0.164587	0.435273
H113	H	0.741718	0.182064	0.444838
H114	H	0.772596	0.117019	0.446199
H115	H	0.783835	0.154092	0.529768
H116	H	0.863280	0.164040	0.372039
H117	H	0.874520	0.201127	0.455604
H118	H	1.126658	-0.653691	0.000063
C119	C	1.295708	-0.472692	0.000100
C120	C	1.227825	-0.505368	0.000085
H121	H	1.347325	-0.497441	0.000120
H122	H	1.292938	-0.449244	-0.051533
H123	H	1.292905	-0.449235	0.051734
H124	H	1.230625	-0.528821	-0.051553
H125	H	1.230596	-0.528825	0.051723
C126	C	1.223962	-0.192665	0.000119
C127	C	1.156076	-0.225339	0.000100
H128	H	1.275577	-0.217415	0.000134
H129	H	1.221191	-0.169214	-0.051510
H130	H	1.221161	-0.169212	0.051757
H131	H	1.158873	-0.248789	-0.051542
H132	H	1.158848	-0.248800	0.051734
C133	C	1.129206	-0.828836	0.000029
C134	C	1.146420	-0.771858	0.000042
H135	H	1.180814	-0.853595	0.000017
H136	H	1.097574	-0.835784	0.051658
H137	H	1.097568	-0.835773	-0.051609
H138	H	1.178053	-0.764920	0.051683
H139	H	1.178065	-0.764907	-0.051593
C140	C	0.466055	0.047381	-0.232652
C141	C	0.442267	0.019201	-0.156245
H142	H	0.449476	0.028037	-0.284084
H143	H	0.439226	0.085643	-0.232738
H144	H	0.525599	0.047564	-0.232959
H145	H	0.382721	0.019021	-0.155935
H146	H	0.469094	-0.019072	-0.156160
C147	C	0.957630	0.211865	0.617591
C148	C	1.025446	0.188203	0.564977
H149	H	0.968776	0.248129	0.639335
H150	H	0.907536	0.216370	0.582805
H151	H	0.950597	0.187145	0.666327
H152	H	1.032474	0.212921	0.516238
H153	H	1.075554	0.183701	0.599765
C154	C	0.628435	0.137417	-0.155702
C155	C	0.540757	0.136670	-0.156431
H156	H	0.644933	0.156725	-0.207206
H157	H	0.644156	0.156773	-0.103935
H158	H	0.655679	0.099256	-0.155484
H159	H	0.513513	0.174831	-0.156642
H160	H	0.525028	0.117314	-0.208211
