data_functionalizedCrystal
_audit_creation_method	'MofGen! by Chris Wilmer'
_symmetry_space_group_name_H-M	'P1'
_symmetry_Int_Tables_number	1
_symmetry_cell_setting	triclinic
loop_
_symmetry_equiv_pos_as_xyz
  x,y,z
_cell_length_a	10.654550
_cell_length_b	10.654562
_cell_length_c	14.586319
_cell_angle_alpha	89.993678
_cell_angle_beta	89.997374
_cell_angle_gamma	84.487503
loop_
_atom_site_label
_atom_site_type_symbol
_atom_site_fract_x
_atom_site_fract_y
_atom_site_fract_z
O1	O	0.176473	1.667830	-0.076298
O2	O	0.193263	1.302354	-0.076287
O3	O	0.002129	1.493495	-0.076289
O4	O	0.367607	1.476689	-0.076295
O5	O	0.002126	1.493482	0.076192
O6	O	0.193260	1.302340	0.076194
O7	O	0.176470	1.667817	0.076183
Cu8	Cu	0.184865	1.485077	0.090111
Cu9	Cu	0.184868	1.485093	-0.090215
O10	O	0.367604	1.476676	0.076185
C11	C	0.192025	1.255549	-0.000045
C12	C	0.188327	1.116107	-0.000040
C13	C	0.186600	1.050569	0.083070
C14	C	0.183135	0.919547	0.083055
C15	C	0.183129	0.919611	-0.083188
C16	C	0.186585	1.050632	-0.083172
C17	C	0.188342	1.116044	0.166202
C18	C	0.186617	1.050505	0.249319
C19	C	0.183152	0.919483	0.249303
C20	C	0.181412	0.853999	0.166171
C21	C	-0.044671	1.492254	-0.000050
C22	C	-0.184114	1.488563	-0.000053
C23	C	-0.263595	1.601103	-0.000054
C24	C	-0.394615	1.597627	-0.000060
C25	C	-0.366662	1.369059	-0.000061
C26	C	-0.235644	1.372537	-0.000061
C27	C	-0.212064	1.717129	-0.000046
C28	C	-0.291546	1.829680	-0.000045
C29	C	-0.422567	1.826203	-0.000052
C30	C	-0.474106	1.710176	-0.000058
C31	C	0.414403	1.477916	-0.000056
C32	C	0.553847	1.481608	-0.000059
C33	C	0.177708	1.714621	-0.000061
C34	C	0.181406	1.854064	-0.000072
N35	N	0.184861	1.485075	0.216943
N36	N	0.184861	1.485105	-0.217047
C37	C	0.100256	1.569741	0.451948
C38	C	0.100253	1.569745	0.547929
C39	C	0.269471	1.400430	0.547941
C40	C	0.269466	1.400422	0.451962
C41	C	0.184861	1.485084	0.403968
C42	C	0.184862	1.485096	0.595928
C43	C	0.184859	1.485100	0.699996
C44	C	0.184862	1.485080	0.299894
H45	H	0.191167	1.222728	0.166223
H46	H	0.031364	1.638677	0.412874
C47	C	0.362600	1.307345	0.399180
N48	N	0.432765	1.237261	0.359425
H49	H	0.181716	0.866284	-0.150870
H50	H	0.031359	1.638679	0.586992
C51	C	-0.067940	1.720964	-0.000039
N52	N	0.040615	1.723851	-0.000032
C53	C	-0.234850	1.957302	-0.000039
N54	N	-0.192148	2.053430	-0.000033
C55	C	0.362529	1.307304	0.600744
N56	N	0.432623	1.237159	0.640514
H57	H	0.188024	1.103832	0.317002
C58	C	-0.509994	1.950009	-0.000051
N59	N	-0.575841	2.043264	-0.000044
H60	H	0.178588	0.747312	0.166166
H61	H	0.181737	0.866126	0.316981
H62	H	0.187997	1.103994	-0.150848
C63	C	-0.423362	1.241438	-0.000053
N64	N	-0.466067	1.145312	-0.000042
H65	H	-0.580794	1.707355	-0.000073
C66	C	-0.148211	1.248736	-0.000053
N67	N	-0.082355	1.155486	-0.000048
