data_functionalizedCrystal
_audit_creation_method	'MofGen! by Chris Wilmer'
_symmetry_space_group_name_H-M	'P1'
_symmetry_Int_Tables_number	1
_symmetry_cell_setting	triclinic
loop_
_symmetry_equiv_pos_as_xyz
  x,y,z
_cell_length_a	14.044220
_cell_length_b	16.992695
_cell_length_c	16.053802
_cell_angle_alpha	87.258926
_cell_angle_beta	87.189254
_cell_angle_gamma	88.071450
loop_
_atom_site_label
_atom_site_type_symbol
_atom_site_fract_x
_atom_site_fract_y
_atom_site_fract_z
O1	O	1.275866	-0.187009	-0.069341
O2	O	1.609200	0.146324	0.263992
O3	O	1.942533	0.479657	0.597326
O4	O	0.999379	-0.180151	-0.069362
O5	O	1.332712	0.153183	0.263971
O6	O	1.666046	0.486516	0.597304
O7	O	1.136514	-0.069360	-0.069345
O8	O	1.469847	0.263973	0.263988
O9	O	1.803181	0.597307	0.597322
O10	O	1.138731	-0.297800	-0.069358
O11	O	1.472065	0.035533	0.263975
O12	O	1.805398	0.368867	0.597308
O13	O	1.128964	-0.075431	0.069513
O14	O	1.462297	0.257902	0.402846
O15	O	1.795630	0.591236	0.736180
O16	O	0.991829	-0.186221	0.069496
O17	O	1.325162	0.147112	0.402829
O18	O	1.658495	0.480445	0.736162
O19	O	1.268316	-0.193080	0.069517
O20	O	1.601649	0.140253	0.402850
O21	O	1.934983	0.473586	0.736184
Zn22	Zn	1.128874	-0.190615	0.091553
Zn23	Zn	1.462207	0.142719	0.424886
Zn24	Zn	1.795540	0.476052	0.758220
Zn25	Zn	1.138822	-0.182616	-0.091398
Zn26	Zn	1.472155	0.150717	0.241935
Zn27	Zn	1.805488	0.484050	0.575268
O28	O	1.131181	-0.303871	0.069500
O29	O	1.464514	0.029463	0.402833
O30	O	1.797848	0.362796	0.736166
C31	C	0.960062	-0.180184	0.000064
C32	C	1.293395	0.153149	0.333397
C33	C	1.626729	0.486483	0.666731
C34	C	0.854158	-0.171230	0.000056
C35	C	1.187492	0.162104	0.333390
C36	C	1.520825	0.495437	0.666723
N37	N	1.122091	-0.196073	0.216412
N38	N	1.455425	0.137260	0.549746
N39	N	1.788758	0.470593	0.883079
C40	C	1.129887	-0.042984	0.000084
C41	C	1.463220	0.290350	0.333417
C42	C	1.796554	0.623683	0.666750
C43	C	1.121378	0.044656	0.000083
C44	C	1.454712	0.377989	0.333416
C45	C	1.788045	0.711322	0.666749
C46	C	0.660256	-0.154860	0.000074
C47	C	0.993589	0.178473	0.333407
C48	C	1.326923	0.511806	0.666740
C49	C	0.607434	-0.218367	0.000074
C50	C	0.940767	0.114967	0.333407
C51	C	1.274100	0.448300	0.666740
C52	C	0.499540	-0.209259	0.000083
C53	C	0.832873	0.124075	0.333417
C54	C	1.166206	0.457408	0.666750
C55	C	0.768160	-0.163967	0.000064
C56	C	1.101493	0.169366	0.333397
C57	C	1.434827	0.502699	0.666731
C58	C	1.307633	-0.193047	0.000089
C59	C	1.640966	0.140287	0.333422
C60	C	1.974300	0.473620	0.666755
C61	C	1.413537	-0.202001	0.000091
C62	C	1.746870	0.131332	0.333424
C63	C	2.080204	0.464666	0.666758
C64	C	1.137808	-0.330247	0.000069
C65	C	1.471141	0.003086	0.333403
C66	C	1.804475	0.336419	0.666736
C67	C	1.146317	-0.417886	0.000065
C68	C	1.479650	-0.084553	0.333398
C69	C	1.812984	0.248780	0.666731
C70	C	1.203475	0.089154	0.000090
C71	C	1.536808	0.422487	0.333423
C72	C	1.870142	0.755821	0.666756
C73	C	1.195475	0.171500	0.000081
C74	C	1.528808	0.504834	0.333415
C75	C	1.862142	0.838167	0.666748
C76	C	1.105377	0.209347	0.000072
C77	C	1.438711	0.542680	0.333405
C78	C	1.772044	0.876014	0.666738
C79	C	1.023275	0.164843	0.000062
C80	C	1.356608	0.498176	0.333395
C81	C	1.689942	0.831510	0.666729
C82	C	1.031276	0.082498	0.000065
C83	C	1.364610	0.415832	0.333398
C84	C	1.697943	0.749165	0.666731
C85	C	1.072216	0.455265	0.000058
C86	C	1.405549	0.788598	0.333391
C87	C	1.738882	1.121932	0.666724
C88	C	1.064221	0.537616	0.000058
C89	C	1.397554	0.870949	0.333391
C90	C	1.730887	1.204282	0.666724
C91	C	1.236421	0.544267	0.000075
C92	C	1.569755	0.877601	0.333409
C93	C	1.903088	1.210934	0.666742
C94	C	1.244414	0.461920	0.000083
C95	C	1.577748	0.795254	0.333416
C96	C	1.911081	1.128587	0.666750
C97	C	1.162312	0.417424	0.000069
C98	C	1.495646	0.750757	0.333402
C99	C	1.828979	1.084090	0.666735
N100	N	1.097198	0.293518	0.000066
N101	N	1.430531	0.626852	0.333399
N102	N	1.763865	0.960185	0.666732
N103	N	1.170493	0.333254	0.000069
N104	N	1.503826	0.666588	0.333402
N105	N	1.837160	0.999921	0.666736
N106	N	1.145611	-0.177152	-0.216258
N107	N	1.478944	0.156182	0.117076
N108	N	1.812278	0.489515	0.450409
C109	C	1.180467	-0.148952	0.260114
C110	C	1.513800	0.184382	0.593447
C111	C	1.847133	0.517715	0.926780
C112	C	1.175732	-0.152778	0.347520
C113	C	1.509065	0.180555	0.680853
C114	C	1.842398	0.513888	1.014187
C115	C	1.112626	-0.203731	0.391223
C116	C	1.445959	0.129602	0.724557
C117	C	1.779292	0.462935	1.057890
C118	C	1.054244	-0.250855	0.347516
C119	C	1.387577	0.082479	0.680849
C120	C	1.720911	0.415812	1.014183
C121	C	1.058975	-0.247023	0.260111
C122	C	1.392308	0.086310	0.593445
C123	C	1.725641	0.419643	0.926778
C124	C	1.091960	-0.220444	0.652630
C125	C	1.425293	0.112889	0.985964
C126	C	1.758627	0.446223	1.319297
C127	C	1.087236	-0.224273	0.740041
C128	C	1.420569	0.109060	1.073374
C129	C	1.753902	0.442393	1.406708
C130	C	1.208722	-0.126196	0.740039
C131	C	1.542056	0.207138	1.073372
C132	C	1.875389	0.540471	1.406706
C133	C	1.213452	-0.122372	0.652633
C134	C	1.546785	0.210961	0.985966
C135	C	1.880118	0.544294	1.319299
C136	C	1.155066	-0.169493	0.608933
C137	C	1.488400	0.163841	0.942266
C138	C	1.821733	0.497174	1.275600
N139	N	1.107787	-0.207646	0.480566
N140	N	1.441120	0.125688	0.813900
N141	N	1.774453	0.459021	1.147233
N142	N	1.159901	-0.165574	0.519591
N143	N	1.493235	0.167760	0.852925
N144	N	1.826568	0.501093	1.186258
H145	H	0.643242	-0.279576	0.000066
H146	H	0.976575	0.053757	0.333399
H147	H	1.309908	0.387090	0.666733
H148	H	0.624450	-0.093656	0.000082
H149	H	0.957783	0.239678	0.333415
H150	H	1.291117	0.573011	0.666748
H151	H	1.002857	-0.292339	0.383104
H152	H	1.336190	0.040995	0.716438
H153	H	1.669524	0.374328	1.049771
H154	H	1.005362	0.419046	0.000046
H155	H	1.338695	0.752379	0.333380
H156	H	1.672029	1.085712	0.666713
H157	H	1.276842	0.058345	0.000103
H158	H	1.610175	0.391678	0.333436
H159	H	1.943508	0.725012	0.666769
H160	H	1.303264	0.580505	0.000085
H161	H	1.636597	0.913838	0.333418
H162	H	1.969931	1.247172	0.666752
H163	H	1.231858	-0.107464	0.224536
H164	H	1.565192	0.225869	0.557869
H165	H	1.898525	0.559202	0.891203
H166	H	1.011438	-0.285394	0.224531
H167	H	1.344772	0.047939	0.557864
H168	H	1.678105	0.381273	0.891197
H169	H	1.262327	0.207727	0.000089
H170	H	1.595660	0.541061	0.333422
H171	H	1.928993	0.874394	0.666756
H172	H	0.990848	0.568427	0.000063
H173	H	1.324181	0.901760	0.333396
H174	H	1.657515	1.235094	0.666730
H175	H	1.317781	0.431112	0.000091
H176	H	1.651115	0.764445	0.333424
H177	H	1.984448	1.097778	0.666758
H178	H	0.949916	0.195665	0.000049
H179	H	1.283249	0.528998	0.333382
H180	H	1.616582	0.862331	0.666715
H181	H	1.223265	-0.114408	0.383101
H182	H	1.556598	0.218926	0.716434
H183	H	1.889931	0.552259	1.049768
H184	H	0.964424	0.046269	0.000059
H185	H	1.297758	0.379602	0.333392
H186	H	1.631091	0.712935	0.666725
H187	H	1.264837	-0.080883	0.617051
H188	H	1.598171	0.252451	0.950384
H189	H	1.931504	0.585784	1.283718
H190	H	1.256256	-0.087831	0.775627
H191	H	1.589589	0.245502	1.108960
H192	H	1.922923	0.578835	1.442294
H193	H	1.035845	-0.265768	0.775620
H194	H	1.369178	0.067565	1.108954
H195	H	1.702511	0.400898	1.442287
H196	H	1.044422	-0.258813	0.617057
H197	H	1.377755	0.074520	0.950390
H198	H	1.711089	0.407854	1.283724
