data_functionalizedCrystal
_audit_creation_method	'MofGen! by Chris Wilmer'
_symmetry_space_group_name_H-M	'P1'
_symmetry_Int_Tables_number	1
_symmetry_cell_setting	triclinic
loop_
_symmetry_equiv_pos_as_xyz
  x,y,z
_cell_length_a	14.044220
_cell_length_b	13.101018
_cell_length_c	14.853559
_cell_angle_alpha	86.634360
_cell_angle_beta	88.410166
_cell_angle_gamma	93.664297
loop_
_atom_site_label
_atom_site_type_symbol
_atom_site_fract_x
_atom_site_fract_y
_atom_site_fract_z
O1	O	1.263193	0.085096	0.212827
O2	O	0.987216	0.085123	0.204981
O3	O	1.132580	0.085108	0.078258
O4	O	1.117828	0.085111	0.339550
O5	O	1.122139	-0.085322	0.087358
O6	O	0.976774	-0.085307	0.214081
O7	O	1.252751	-0.085333	0.221927
Zn8	Zn	1.113105	-0.112379	0.219449
Zn9	Zn	1.126862	0.112169	0.207459
O10	O	1.107387	-0.085318	0.348650
C11	C	0.946676	-0.000089	0.206097
C12	C	0.841438	-0.000078	0.195855
C13	C	0.648751	-0.000099	0.177132
C14	C	0.591211	-0.000102	0.249771
C15	C	0.483993	-0.000114	0.239353
C16	C	0.755979	-0.000088	0.187548
N17	N	1.103723	-0.265627	0.227631
C18	C	1.149012	-0.525541	0.188133
C19	C	1.090966	-0.474662	0.238765
C20	C	1.098066	-0.358344	0.232569
C21	C	1.141913	-0.641870	0.194329
C22	C	1.293291	-0.000119	0.220810
C23	C	1.398530	-0.000123	0.231052
C24	C	1.126693	-0.000105	0.049166
C25	C	1.124694	-0.000099	-0.051076
N26	N	1.136252	0.265417	0.199270
C27	C	1.121907	0.092803	-0.479884
C28	C	1.110523	-0.093006	-0.469957
C29	C	1.112409	-0.093007	-0.375775
C30	C	1.119042	-0.000102	-0.333642
C31	C	1.123790	0.092805	-0.385692
C32	C	1.107651	-0.185911	-0.323717
C33	C	1.109536	-0.185916	-0.229528
C34	C	1.116176	-0.093010	-0.187394
C35	C	1.120925	-0.000100	-0.239451
C36	C	1.127559	0.092805	-0.197318
C37	C	1.132315	0.185717	-0.249373
C38	C	1.130431	0.185711	-0.343559
C39	C	1.118061	-0.093004	-0.093209
C40	C	1.129442	0.092807	-0.103127
C41	C	1.113275	-0.000103	0.377741
C42	C	1.115273	-0.000102	0.477984
H43	H	0.617491	-0.000105	0.107126
O44	O	1.214687	-0.473458	0.130801
C45	C	1.341728	-0.484467	0.020085
C46	C	1.267378	-0.543594	0.084955
H47	H	1.384363	-0.541146	-0.016985
H48	H	1.303784	-0.434260	-0.030938
H49	H	1.392128	-0.434209	0.060209
H50	H	1.216957	-0.593908	0.044907
H51	H	1.305386	-0.593736	0.135979
O52	O	1.135847	0.183150	-0.062345
C53	C	1.147005	0.367449	-0.082134
C54	C	1.139731	0.265212	-0.128433
H55	H	1.150167	0.433823	-0.135546
H56	H	1.081868	0.372175	-0.035396
H57	H	1.214440	0.372030	-0.041176
H58	H	1.072336	0.260562	-0.169438
H59	H	1.204916	0.260528	-0.175119
H60	H	1.137709	0.261360	-0.215056
H61	H	0.622472	-0.000096	0.319783
O62	O	1.134992	0.275866	-0.394256
C63	C	1.137180	0.358204	-0.543758
C64	C	1.131990	0.256033	-0.486448
H65	H	1.134774	0.342205	-0.618307
H66	H	1.074051	0.404037	-0.524830
H67	H	1.206632	0.404015	-0.530560
H68	H	1.062578	0.210139	-0.499616
H69	H	1.195167	0.210277	-0.505387
O70	O	1.025403	-0.527065	0.296018
C71	C	0.958402	-0.692463	0.354410
C72	C	1.032702	-0.633241	0.289550
H73	H	0.964264	-0.778317	0.349188
H74	H	0.972157	-0.671518	0.426539
H75	H	0.883723	-0.671386	0.335470
H76	H	1.107410	-0.654287	0.308407
H77	H	1.018864	-0.654191	0.217438
H78	H	1.125783	0.168449	-0.522271
H79	H	1.105667	-0.261570	-0.187153
H80	H	1.105116	-0.168645	-0.504267
H81	H	1.102245	-0.261550	-0.358028
H82	H	1.114167	-0.168651	-0.050829
