data_functionalizedCrystal
_audit_creation_method	'MofGen! by Chris Wilmer'
_symmetry_space_group_name_H-M	'P1'
_symmetry_Int_Tables_number	1
_symmetry_cell_setting	triclinic
loop_
_symmetry_equiv_pos_as_xyz
  x,y,z
_cell_length_a	12.594517
_cell_length_b	17.077402
_cell_length_c	17.077404
_cell_angle_alpha	89.990103
_cell_angle_beta	89.998969
_cell_angle_gamma	90.025089
loop_
_atom_site_label
_atom_site_type_symbol
_atom_site_fract_x
_atom_site_fract_y
_atom_site_fract_z
Zn1	Zn	-1.627073	0.312628	0.443696
Zn2	Zn	-1.293740	0.645962	0.777029
Zn3	Zn	-0.960407	0.979295	1.110362
Zn4	Zn	-1.626978	0.443863	0.312432
Zn5	Zn	-1.293644	0.777196	0.645765
Zn6	Zn	-0.960311	1.110530	0.979099
Zn7	Zn	-1.449116	0.312617	0.312460
Zn8	Zn	-1.115783	0.645950	0.645794
Zn9	Zn	-0.782450	0.979283	0.979127
Zn10	Zn	-1.449034	0.443858	0.443672
Zn11	Zn	-1.115700	0.777191	0.777006
Zn12	Zn	-0.782367	1.110524	1.110339
O13	O	-1.538050	0.378241	0.378065
O14	O	-1.204717	0.711575	0.711398
O15	O	-0.871384	1.044908	1.044732
O16	O	-1.776006	0.330044	0.426281
O17	O	-1.442673	0.663377	0.759614
O18	O	-1.109340	0.996710	1.092948
O19	O	-1.603378	0.426450	0.202589
O20	O	-1.270045	0.759784	0.535922
O21	O	-0.936712	1.093117	0.869256
O22	O	-1.472797	0.202771	0.329890
O23	O	-1.139464	0.536105	0.663224
O24	O	-0.806131	0.869438	0.996557
O25	O	-1.775936	0.426461	0.329842
O26	O	-1.442603	0.759795	0.663176
O27	O	-1.109269	1.093128	0.996509
O28	O	-1.603542	0.202780	0.426308
O29	O	-1.270208	0.536113	0.759642
O30	O	-0.936875	0.869446	1.092975
O31	O	-1.472704	0.330024	0.202610
O32	O	-1.139371	0.663358	0.535943
O33	O	-0.806038	0.996691	0.869276
O34	O	-1.300160	0.330019	0.329868
O35	O	-0.966826	0.663353	0.663201
O36	O	-0.633493	0.996686	0.996535
O37	O	-1.472656	0.426452	0.553522
O38	O	-1.139323	0.759786	0.886856
O39	O	-0.805990	1.093119	1.220189
O40	O	-1.300099	0.426441	0.426269
O41	O	-0.966765	0.759775	0.759602
O42	O	-0.633432	1.093108	1.092935
O43	O	-1.603461	0.330039	0.553539
O44	O	-1.270128	0.663372	0.886873
O45	O	-0.936795	0.996705	1.220206
O46	O	-1.603298	0.553709	0.329820
O47	O	-1.269965	0.887042	0.663153
O48	O	-0.936632	1.220376	0.996486
O49	O	-1.472564	0.553705	0.426241
O50	O	-1.139230	0.887039	0.759575
O51	O	-0.805897	1.220372	1.092908
C52	C	-1.261509	0.378229	0.378069
C53	C	-0.928176	0.711562	0.711403
C54	C	-0.594843	1.044896	1.044736
C55	C	-1.143204	0.378243	0.378090
C56	C	-0.809870	0.711576	0.711423
C57	C	-0.476537	1.044909	1.044756
C58	C	-1.003185	0.430783	0.430426
C59	C	-0.669852	0.764116	0.763759
C60	C	-0.336518	1.097450	1.097093
C61	C	-1.073973	0.449863	0.358783
C62	C	-0.740640	0.783197	0.692117
C63	C	-0.407306	1.116530	1.025450
C64	C	-1.073987	0.359197	0.449725
C65	C	-0.740654	0.692531	0.783058
C66	C	-0.407320	1.025864	1.116391
C67	C	-1.003206	0.397388	0.306387
C68	C	-0.669873	0.730721	0.639721
C69	C	-0.336540	1.064054	0.973054
C70	C	-1.003214	0.306688	0.397377
C71	C	-0.669881	0.640022	0.730710
C72	C	-0.336548	0.973355	1.064044
C73	C	-1.073970	0.325741	0.325685
C74	C	-0.740637	0.659075	0.659018
C75	C	-0.407304	0.992408	0.992351
C76	C	-1.537940	0.582189	0.378042
C77	C	-1.204607	0.915523	0.711375
C78	C	-0.871274	1.248856	1.044709
C79	C	-1.537991	0.669439	0.378058
C80	C	-1.204658	1.002772	0.711392
C81	C	-0.871324	1.336106	1.044725
C82	C	-0.815671	0.378257	0.378063
C83	C	-0.482338	0.711590	0.711397
C84	C	-0.149004	1.044924	1.044730
C85	C	-0.933976	0.378270	0.378068
C86	C	-0.600643	0.711603	0.711402
C87	C	-0.267310	1.044937	1.044735
C88	C	-1.606132	0.710405	0.327907
C89	C	-1.272799	1.043738	0.661241
C90	C	-0.939466	1.377072	0.994574
C91	C	-1.606182	0.792386	0.327931
C92	C	-1.272848	1.125719	0.661264
C93	C	-0.939515	1.459052	0.994597
C94	C	-1.538083	0.833398	0.378102
C95	C	-1.204750	1.166732	0.711435
C96	C	-0.871417	1.500065	1.044769
C97	C	-1.469939	0.792427	0.428259
C98	C	-1.136605	1.125760	0.761592
C99	C	-0.803272	1.459093	1.094925
C100	C	-1.469895	0.710448	0.428239
C101	C	-1.136562	1.043781	0.761572
C102	C	-0.803229	1.377114	1.094905
C103	C	-1.470031	0.963297	0.428295
C104	C	-1.136698	1.296630	0.761629
C105	C	-0.803365	1.629963	1.094962
C106	C	-1.470073	1.045281	0.428315
C107	C	-1.136739	1.378615	0.761648
C108	C	-0.803406	1.711948	1.094981
C109	C	-1.606318	1.045235	0.327988
C110	C	-1.272984	1.378568	0.661321
C111	C	-0.939651	1.711901	0.994654
C112	C	-1.606274	0.963256	0.327968
C113	C	-1.272941	1.296589	0.661301
C114	C	-0.939608	1.629922	0.994634
C115	C	-1.538128	0.922289	0.378123
C116	C	-1.204795	1.255623	0.711457
C117	C	-0.871461	1.588956	1.044790
C118	C	-1.538060	0.378246	0.582809
C119	C	-1.204727	0.711580	0.916143
C120	C	-0.871394	1.044913	1.249476
C121	C	-1.538065	0.378248	0.670059
C122	C	-1.204731	0.711582	1.003392
C123	C	-0.871398	1.044915	1.336726
C124	C	-1.538181	1.173497	0.378116
C125	C	-1.204847	1.506830	0.711449
C126	C	-0.871514	1.840164	1.044782
C127	C	-1.538214	1.086247	0.378163
C128	C	-1.204881	1.419581	0.711497
C129	C	-0.871548	1.752914	1.044830
C130	C	-1.606166	0.328054	0.711059
C131	C	-1.272833	0.661387	1.044393
C132	C	-0.939500	0.994721	1.377726
C133	C	-1.606158	0.328053	0.793040
C134	C	-1.272824	0.661386	1.126373
C135	C	-0.939491	0.994720	1.459706
C136	C	-1.538051	0.378251	0.834018
C137	C	-1.204718	0.711584	1.167352
C138	C	-0.871385	1.044917	1.500685
C139	C	-1.469942	0.428447	0.793012
C140	C	-1.136609	0.761781	1.126346
C141	C	-0.803276	1.095114	1.459679
C142	C	-1.469947	0.428444	0.711033
C143	C	-1.136613	0.761777	1.044367
C144	C	-0.803280	1.095110	1.377700
C145	C	-1.469940	0.428452	0.963882
C146	C	-1.136606	0.761786	1.297216
C147	C	-0.803273	1.095119	1.630549
C148	C	-1.469937	0.428457	1.045867
C149	C	-1.136603	0.761790	1.379200
C150	C	-0.803270	1.095124	1.712534
C151	C	-1.606151	0.328062	1.045889
C152	C	-1.272817	0.661395	1.379222
C153	C	-0.939484	0.994728	1.712555
C154	C	-1.606155	0.328058	0.963910
C155	C	-1.272822	0.661391	1.297243
C156	C	-0.939488	0.994725	1.630577
C157	C	-1.538047	0.378256	0.922909
C158	C	-1.204714	0.711589	1.256243
C159	C	-0.871380	1.044922	1.589576
C160	C	-1.538035	0.378257	1.174117
C161	C	-1.204701	0.711590	1.507450
C162	C	-0.871368	1.044923	1.840784
C163	C	-1.538038	0.378263	1.086867
C164	C	-1.204705	0.711596	1.420201
C165	C	-0.871372	1.044930	1.753534
H166	H	-1.105079	0.343077	0.510314
H167	H	-0.771745	0.676410	0.843648
H168	H	-0.438412	1.009743	1.176981
F169	F	-1.397454	0.481869	0.836627
F170	F	-1.064121	0.815202	1.169960
F171	F	-0.730787	1.148535	1.503294
F172	F	-1.397461	0.481865	0.667398
F173	F	-1.064127	0.815199	1.000732
F174	F	-0.730794	1.148532	1.334065
F175	F	-1.678607	0.666763	0.274503
F176	F	-1.345274	1.000097	0.607836
F177	F	-1.011940	1.333430	0.941169
F178	F	-1.678751	0.919608	0.274569
F179	F	-1.345418	1.252942	0.607902
F180	F	-1.012085	1.586275	0.941236
F181	F	-1.678711	0.835981	0.274555
F182	F	-1.345377	1.169314	0.607888
F183	F	-1.012044	1.502648	0.941222
F184	F	-0.962743	0.418551	0.227169
F185	F	-0.629409	0.751884	0.560502
F186	F	-0.296076	1.085217	0.893835
H187	H	-1.661808	1.078593	0.287151
H188	H	-1.328475	1.411926	0.620485
H189	H	-0.995142	1.745260	0.953818
F190	F	-1.397585	1.088929	0.481705
F191	F	-1.064252	1.422262	0.815038
F192	F	-0.730918	1.755595	1.148372
H193	H	-1.104854	0.281321	0.281365
H194	H	-0.771521	0.614654	0.614699
H195	H	-0.438188	0.947988	0.948032
F196	F	-1.397449	0.481877	0.920249
F197	F	-1.064115	0.815210	1.253582
F198	F	-0.730782	1.148544	1.586915
H199	H	-1.414543	0.929945	0.469140
H200	H	-1.081210	1.263278	0.802474
H201	H	-0.747876	1.596611	1.135807
H202	H	-0.972105	0.475237	0.474639
H203	H	-0.638772	0.808570	0.807972
H204	H	-0.305439	1.141904	1.141306
H205	H	-1.414496	0.825826	0.469112
H206	H	-1.081163	1.159159	0.802446
H207	H	-0.747829	1.492492	1.135779
H208	H	-1.105054	0.510387	0.342455
H209	H	-0.771720	0.843720	0.675788
H210	H	-0.438387	1.177054	1.009122
F211	F	-0.962554	0.227602	0.418746
F212	F	-0.629221	0.560935	0.752079
F213	F	-0.295887	0.894269	1.085412
F214	F	-1.397373	0.666849	0.481618
F215	F	-1.064039	1.000182	0.814952
F216	F	-0.730706	1.333516	1.148285
F217	F	-1.678661	0.274630	0.667454
F218	F	-1.345328	0.607963	1.000787
F219	F	-1.011994	0.941296	1.334121
H220	H	-1.661615	0.287182	0.826419
H221	H	-1.328282	0.620515	1.159752
H222	H	-0.994949	0.953848	1.493085
F223	F	-1.678647	0.274637	0.920299
F224	F	-1.345314	0.607970	1.253632
F225	F	-1.011981	0.941303	1.586966
H226	H	-1.661605	0.287188	1.079275
H227	H	-1.328272	0.620521	1.412609
H228	H	-0.994939	0.953854	1.745942
F229	F	-1.397442	0.481877	1.089478
F230	F	-1.064108	0.815210	1.422811
F231	F	-0.730775	1.148543	1.756145
