data_functionalizedCrystal
_audit_creation_method	'MofGen! by Chris Wilmer'
_symmetry_space_group_name_H-M	'P1'
_symmetry_Int_Tables_number	1
_symmetry_cell_setting	triclinic
loop_
_symmetry_equiv_pos_as_xyz
  x,y,z
_cell_length_a	10.654550
_cell_length_b	10.654550
_cell_length_c	13.448316
_cell_angle_alpha	89.989735
_cell_angle_beta	90.006836
_cell_angle_gamma	95.515097
loop_
_atom_site_label
_atom_site_type_symbol
_atom_site_fract_x
_atom_site_fract_y
_atom_site_fract_z
O1	O	-0.176402	1.667845	-0.082774
O2	O	-0.193208	1.302367	-0.082759
O3	O	-0.002065	1.493509	-0.082760
O4	O	-0.367544	1.476703	-0.082773
O5	O	-0.002053	1.493485	0.082624
O6	O	-0.193196	1.302342	0.082625
O7	O	-0.176390	1.667821	0.082609
Cu8	Cu	-0.184792	1.485079	0.097718
Cu9	Cu	-0.184806	1.485108	-0.097867
O10	O	-0.367532	1.476678	0.082610
C11	C	-0.191968	1.255556	-0.000065
C12	C	-0.188276	1.116113	-0.000058
C13	C	-0.300817	1.036627	-0.000077
C14	C	-0.297341	0.905607	-0.000094
C15	C	-0.068771	0.933570	-0.000078
C16	C	-0.072249	1.064588	-0.000054
C17	C	-0.432780	1.020482	-0.000091
C18	C	-0.429304	0.889461	-0.000108
C19	C	-0.414336	1.477925	-0.000083
C20	C	-0.553779	1.481616	-0.000089
C21	C	-0.633265	1.369075	-0.000075
C22	C	-0.764286	1.372551	-0.000068
C23	C	-0.736322	1.601121	-0.000086
C24	C	-0.605304	1.597643	-0.000100
C25	C	-0.649410	1.237112	-0.000061
C26	C	-0.780431	1.240589	-0.000054
C27	C	0.044739	1.492263	-0.000068
C28	C	0.184182	1.488571	-0.000068
C29	C	-0.177630	1.714631	-0.000087
C30	C	-0.181321	1.854074	-0.000100
N31	N	-0.184781	1.485068	0.235282
N32	N	-0.184807	1.485129	-0.235432
C33	C	-0.100178	1.569733	0.287322
C34	C	-0.100177	1.569741	0.391426
C35	C	-0.184786	1.485089	0.443487
C36	C	-0.269392	1.400415	0.391440
C37	C	-0.269386	1.400402	0.287339
C38	C	-0.269401	1.400450	0.608420
C39	C	-0.269409	1.400464	0.712528
C40	C	-0.100192	1.569788	0.712507
C41	C	-0.100186	1.569776	0.608406
C42	C	-0.184795	1.485103	0.556366
H43	H	-0.484386	1.049803	0.069124
H44	H	-0.613761	1.195069	0.071343
H45	H	-0.479030	0.847739	-0.069328
H46	H	-0.338277	1.331458	0.244969
H47	H	-0.338305	1.331531	0.754912
H48	H	0.019393	1.129302	-0.000024
H49	H	-0.031301	1.638731	0.754884
H50	H	-0.338278	1.331484	0.433834
H51	H	-0.338294	1.331497	0.566052
H52	H	-0.469179	0.843779	0.071291
H53	H	-0.826098	1.200724	-0.071458
H54	H	-0.474805	1.056148	-0.071495
H55	H	-0.540590	1.689285	-0.000123
H56	H	-0.620076	1.185505	-0.069269
H57	H	-0.778290	1.695586	-0.000111
H58	H	0.025694	0.891602	-0.000089
H59	H	-0.822167	1.190865	0.069167
H60	H	-0.031286	1.638671	0.244941
H61	H	-0.031298	1.638711	0.566017
H62	H	-0.031287	1.638680	0.433796
