data_functionalizedCrystal
_audit_creation_method	'MofGen! by Chris Wilmer'
_symmetry_space_group_name_H-M	'P1'
_symmetry_Int_Tables_number	1
_symmetry_cell_setting	triclinic
loop_
_symmetry_equiv_pos_as_xyz
  x,y,z
_cell_length_a	27.732048
_cell_length_b	23.532407
_cell_length_c	22.010155
_cell_angle_alpha	90.003069
_cell_angle_beta	90.000725
_cell_angle_gamma	82.745667
loop_
_atom_site_label
_atom_site_type_symbol
_atom_site_fract_x
_atom_site_fract_y
_atom_site_fract_z
O1	O	-0.058672	-0.755138	-0.050456
O2	O	0.274661	-0.421805	0.282878
O3	O	0.607995	-0.088472	0.616211
O4	O	-0.067162	-0.589257	-0.050475
O5	O	0.266171	-0.255924	0.282859
O6	O	0.599504	0.077410	0.616192
O7	O	0.007472	-0.677350	-0.050453
O8	O	0.340805	-0.344016	0.282880
O9	O	0.674138	-0.010683	0.616214
O10	O	-0.133306	-0.667046	-0.050477
O11	O	0.200028	-0.333712	0.282856
O12	O	0.533361	-0.000379	0.616189
O13	O	0.007461	-0.677334	0.050597
O14	O	0.340794	-0.344000	0.383931
O15	O	0.674127	-0.010667	0.717264
O16	O	-0.067173	-0.589241	0.050576
O17	O	0.266160	-0.255908	0.383909
O18	O	0.599493	0.077426	0.717242
O19	O	-0.058683	-0.755122	0.050595
O20	O	0.274650	-0.421789	0.383928
O21	O	0.607984	-0.088456	0.717261
Cu22	Cu	-0.062929	-0.672180	0.059812
Cu23	Cu	0.270404	-0.338847	0.393145
Cu24	Cu	0.603737	-0.005514	0.726479
Cu25	Cu	-0.062916	-0.672199	-0.059692
Cu26	Cu	0.270417	-0.338866	0.273641
Cu27	Cu	0.603751	-0.005532	0.606975
O28	O	-0.133317	-0.667030	0.050573
O29	O	0.200016	-0.333696	0.383906
O30	O	0.533350	-0.000363	0.717240
C31	C	-0.066952	-0.568033	0.000048
C32	C	0.266382	-0.234700	0.333382
C33	C	0.599715	0.098633	0.666715
C34	C	-0.066302	-0.504818	0.000042
C35	C	0.267032	-0.171484	0.333375
C36	C	0.600365	0.161849	0.666708
C37	C	0.025473	-0.677125	0.000074
C38	C	0.358807	-0.343792	0.333407
C39	C	0.692140	-0.010459	0.666740
C40	C	0.079129	-0.676474	0.000079
C41	C	0.412463	-0.343141	0.333412
C42	C	0.745796	-0.009807	0.666745
C43	C	-0.151319	-0.667254	0.000045
C44	C	0.182015	-0.333921	0.333378
C45	C	0.515348	-0.000587	0.666712
C46	C	-0.204975	-0.667905	0.000036
C47	C	0.128359	-0.334572	0.333369
C48	C	0.461692	-0.001239	0.666703
C49	C	0.417871	-0.724431	0.000053
C50	C	0.751204	-0.391097	0.333386
C51	C	1.084537	-0.057764	0.666720
C52	C	0.619534	-0.722014	0.000044
C53	C	0.952867	-0.388681	0.333378
C54	C	1.286201	-0.055348	0.666711
O55	O	0.650722	-0.765867	0.000023
O56	O	0.984055	-0.432534	0.333356
O57	O	1.317389	-0.099201	0.666689
N58	N	0.638738	-0.669779	0.000039
N59	N	0.972071	-0.336446	0.333372
N60	N	1.305405	-0.003112	0.666706
C61	C	0.607523	-0.618144	0.000032
C62	C	0.940856	-0.284811	0.333365
C63	C	1.274189	0.048523	0.666698
O64	O	0.628484	-0.573659	0.000021
O65	O	0.961818	-0.240326	0.333354
O66	O	1.295151	0.093007	0.666687
C67	C	0.405860	-0.620561	0.000036
C68	C	0.739194	-0.287228	0.333369
C69	C	1.072527	0.046105	0.666703
C70	C	0.386659	-0.672800	0.000048
C71	C	0.719993	-0.339467	0.333381
C72	C	1.053326	-0.006133	0.666714
C73	C	0.398669	-0.776665	0.000064
C74	C	0.732002	-0.443332	0.333397
C75	C	1.065336	-0.109999	0.666730
C76	C	0.348256	-0.777269	0.000069
C77	C	0.681589	-0.443935	0.333403
C78	C	1.014923	-0.110602	0.666736
C79	C	0.317045	-0.725638	0.000064
C80	C	0.650378	-0.392305	0.333397
C81	C	0.983712	-0.058971	0.666731
C82	C	0.336247	-0.673403	0.000053
C83	C	0.669580	-0.340070	0.333386
C84	C	1.002913	-0.006737	0.666720
C85	C	0.374646	-0.568927	0.000025
C86	C	0.707980	-0.235594	0.333358
C87	C	1.041313	0.097740	0.666691
C88	C	0.324228	-0.569536	0.000024
C89	C	0.657561	-0.236203	0.333358
C90	C	0.990895	0.097131	0.666691
C91	C	0.305027	-0.621775	0.000036
C92	C	0.638360	-0.288441	0.333369
C93	C	0.971694	0.044892	0.666702
C94	C	0.254622	-0.622376	0.000053
C95	C	0.587956	-0.289043	0.333387
C96	C	0.921289	0.044291	0.666720
N97	N	0.235418	-0.674611	0.000059
N98	N	0.568752	-0.341278	0.333392
N99	N	0.902085	-0.007945	0.666725
C100	C	0.266630	-0.726242	0.000064
C101	C	0.599963	-0.392909	0.333397
C102	C	0.933296	-0.059576	0.666731
C103	C	0.713399	-0.616879	0.000031
C104	C	1.046732	-0.283546	0.333364
C105	C	1.380066	0.049788	0.666697
C106	C	0.763814	-0.616274	0.000031
C107	C	1.097148	-0.282941	0.333364
C108	C	1.430481	0.050392	0.666697
C109	C	0.775822	-0.720145	0.000042
C110	C	1.109155	-0.386812	0.333375
C111	C	1.442489	-0.053478	0.666709
C112	C	0.725406	-0.720749	0.000046
C113	C	1.058739	-0.387415	0.333380
C114	C	1.392072	-0.054082	0.666713
C115	C	0.694195	-0.669114	0.000036
C116	C	1.027528	-0.335781	0.333369
C117	C	1.360861	-0.002447	0.666703
C118	C	0.160758	-0.727506	0.000076
C119	C	0.494092	-0.394173	0.333409
C120	C	0.827425	-0.060839	0.666743
C121	C	0.110341	-0.728105	0.000084
C122	C	0.443674	-0.394772	0.333417
C123	C	0.777007	-0.061438	0.666751
C124	C	0.098337	-0.624235	0.000069
C125	C	0.431671	-0.290901	0.333403
C126	C	0.765004	0.042432	0.666736
C127	C	0.148751	-0.623635	0.000065
C128	C	0.482084	-0.290302	0.333398
C129	C	0.815417	0.043031	0.666731
C130	C	0.179961	-0.675276	0.000066
C131	C	0.513294	-0.341942	0.333399
C132	C	0.846627	-0.008609	0.666733
O133	O	0.223406	-0.578547	0.000068
O134	O	0.556739	-0.245213	0.333401
O135	O	0.890072	0.088120	0.666735
O136	O	0.245659	-0.770721	0.000061
O137	O	0.578992	-0.437387	0.333395
O138	O	0.912325	-0.104054	0.666728
C139	C	0.468283	-0.723827	0.000047
C140	C	0.801617	-0.390494	0.333381
C141	C	1.134950	-0.057161	0.666714
C142	C	0.487485	-0.671593	0.000037
C143	C	0.820818	-0.338259	0.333370
C144	C	1.154152	-0.004926	0.666703
C145	C	0.456274	-0.619962	0.000031
C146	C	0.789607	-0.286629	0.333365
C147	C	1.122941	0.046705	0.666698
C148	C	0.537900	-0.670988	0.000037
C149	C	0.871234	-0.337655	0.333370
C150	C	1.204567	-0.004322	0.666703
C151	C	0.569112	-0.722619	0.000042
C152	C	0.902445	-0.389286	0.333375
C153	C	1.235778	-0.055953	0.666709
C154	C	0.549908	-0.774855	0.000047
C155	C	0.883241	-0.441521	0.333381
C156	C	1.216574	-0.108188	0.666714
C157	C	0.499495	-0.775458	0.000053
C158	C	0.832828	-0.442125	0.333386
C159	C	1.166161	-0.108791	0.666719
C160	C	0.475478	-0.567727	0.000026
C161	C	0.808811	-0.234393	0.333359
C162	C	1.142145	0.098940	0.666693
C163	C	0.525891	-0.567127	0.000021
C164	C	0.859225	-0.233794	0.333354
C165	C	1.192558	0.099539	0.666688
C166	C	0.557103	-0.618758	0.000026
C167	C	0.890436	-0.285425	0.333360
C168	C	1.223769	0.047908	0.666693
C169	C	-0.058894	-0.776346	0.000070
C170	C	0.274440	-0.443013	0.333404
C171	C	0.607773	-0.109679	0.666737
C172	C	-0.059544	-0.839562	0.000073
C173	C	0.273790	-0.506228	0.333406
C174	C	0.607123	-0.172895	0.666740
N175	N	-0.062938	-0.672171	0.143864
N176	N	0.270395	-0.338838	0.477198
N177	N	0.603728	-0.005504	0.810531
C178	C	-0.106391	-0.105629	0.000062
C179	C	0.226942	0.227704	0.333396
C180	C	0.560275	0.561038	0.666729
C181	C	-0.105787	-0.046230	0.000066
C182	C	0.227546	0.287103	0.333399
C183	C	0.560879	0.620437	0.666733
O184	O	-0.142951	-0.009406	0.000082
O185	O	0.190382	0.323927	0.333415
O186	O	0.523716	0.657261	0.666748
N187	N	-0.061418	-0.023699	0.000073
N188	N	0.271916	0.309635	0.333406
N189	N	0.605249	0.642968	0.666739
C190	C	-0.017649	-0.060570	0.000082
C191	C	0.315685	0.272764	0.333415
C192	C	0.649018	0.606097	0.666748
O193	O	0.020147	-0.035951	0.000088
O194	O	0.353480	0.297383	0.333422
O195	O	0.686813	0.630716	0.666755
C196	C	-0.018253	-0.119967	0.000082
C197	C	0.315080	0.213366	0.333416
C198	C	0.648414	0.546699	0.666749
C199	C	-0.062626	-0.142495	0.000070
C200	C	0.270708	0.190838	0.333403
C201	C	0.604041	0.524171	0.666736
C202	C	-0.150760	-0.128158	0.000050
C203	C	0.182573	0.205176	0.333384
C204	C	0.515906	0.538509	0.666717
C205	C	-0.151364	-0.187552	0.000045
C206	C	0.181969	0.145781	0.333379
C207	C	0.515303	0.479114	0.666712
C208	C	-0.107599	-0.224419	0.000052
C209	C	0.225735	0.108915	0.333386
C210	C	0.559068	0.442248	0.666719
C211	C	-0.063229	-0.201890	0.000065
C212	C	0.270104	0.131443	0.333398
C213	C	0.603437	0.464776	0.666731
C214	C	0.025515	-0.156837	0.000096
C215	C	0.358849	0.176496	0.333429
C216	C	0.692182	0.509829	0.666762
C217	C	0.024907	-0.216239	0.000097
C218	C	0.358240	0.117095	0.333430
C219	C	0.691574	0.450428	0.666763
C220	C	-0.019466	-0.238766	0.000084
C221	C	0.313868	0.094567	0.333417
C222	C	0.647201	0.427900	0.666751
C223	C	-0.020068	-0.298151	0.000067
C224	C	0.313266	0.035182	0.333400
C225	C	0.646599	0.368515	0.666733
N226	N	-0.064437	-0.320683	0.000060
N227	N	0.268896	0.012650	0.333393
N228	N	0.602229	0.345984	0.666727
C229	C	-0.108203	-0.283817	0.000053
C230	C	0.225130	0.049517	0.333386
C231	C	0.558464	0.382850	0.666720
C232	C	-0.016383	0.064170	0.000082
C233	C	0.316951	0.397503	0.333415
C234	C	0.650284	0.730837	0.666748
C235	C	-0.015778	0.123567	0.000077
C236	C	0.317555	0.456900	0.333410
C237	C	0.650889	0.790233	0.666744
C238	C	-0.103917	0.137902	0.000062
C239	C	0.229416	0.471236	0.333396
C240	C	0.562750	0.804569	0.666729
C241	C	-0.104521	0.078505	0.000063
C242	C	0.228812	0.411838	0.333396
C243	C	0.562145	0.745171	0.666730
C244	C	-0.060753	0.041639	0.000075
C245	C	0.272581	0.374972	0.333408
C246	C	0.605914	0.708305	0.666742
C247	C	-0.109467	-0.408551	0.000042
C248	C	0.223866	-0.075217	0.333375
C249	C	0.557199	0.258116	0.666709
C250	C	-0.110067	-0.467951	0.000035
C251	C	0.223266	-0.134618	0.333368
C252	C	0.556600	0.198715	0.666701
C253	C	-0.021928	-0.482282	0.000052
C254	C	0.311405	-0.148948	0.333386
C255	C	0.644738	0.184385	0.666719
C256	C	-0.021328	-0.422886	0.000057
C257	C	0.312005	-0.089553	0.333390
C258	C	0.645338	0.243780	0.666723
C259	C	-0.065102	-0.386021	0.000053
C260	C	0.268232	-0.052688	0.333387
C261	C	0.601565	0.280645	0.666720
O262	O	0.017077	-0.335010	0.000054
O263	O	0.350410	-0.001677	0.333387
O264	O	0.683743	0.331657	0.666720
O265	O	-0.145992	-0.308444	0.000054
O266	O	0.187341	0.024890	0.333388
O267	O	0.520675	0.358223	0.666721
N268	N	-0.062903	-0.672213	-0.143744
N269	N	0.270430	-0.338879	0.189589
N270	N	0.603764	-0.005546	0.522922
C271	C	-0.029873	-0.711209	0.563653
C272	C	0.303461	-0.377875	0.896987
C273	C	0.636794	-0.044542	1.230320
C274	C	-0.029869	-0.711211	0.627261
C275	C	0.303464	-0.377878	0.960594
C276	C	0.636797	-0.044545	1.293928
O277	O	-0.001762	-0.744380	0.660160
O278	O	0.331571	-0.411046	0.993494
O279	O	0.664904	-0.077713	1.326827
N280	N	-0.062906	-0.672199	0.659071
N281	N	0.270427	-0.338866	0.992405
N282	N	0.603761	-0.005532	1.325738
C283	C	-0.095945	-0.633177	0.627271
C284	C	0.237389	-0.299844	0.960604
C285	C	0.570722	0.033489	1.293938
O286	O	-0.124044	-0.599994	0.660169
O287	O	0.209289	-0.266661	0.993503
O288	O	0.542623	0.066673	1.326836
C289	C	-0.095945	-0.633172	0.563665
C290	C	0.237388	-0.299839	0.896998
C291	C	0.570721	0.033494	1.230331
C292	C	-0.062910	-0.672191	0.531857
C293	C	0.270423	-0.338858	0.865191
C294	C	0.603757	-0.005525	1.198524
C295	C	0.003160	-0.750224	0.531846
C296	C	0.336494	-0.416891	0.865179
C297	C	0.669827	-0.083557	1.198513
C298	C	0.003156	-0.750222	0.468243
C299	C	0.336490	-0.416889	0.801576
C300	C	0.669823	-0.083555	1.134909
C301	C	-0.029881	-0.711205	0.436447
C302	C	0.303452	-0.377871	0.769780
C303	C	0.636786	-0.044538	1.103113
C304	C	-0.062914	-0.672189	0.468254
C305	C	0.270419	-0.338856	0.801588
C306	C	0.603753	-0.005523	1.134921
C307	C	-0.128981	-0.594148	0.531866
C308	C	0.204352	-0.260815	0.865199
C309	C	0.537685	0.072518	1.198532
C310	C	-0.128979	-0.594147	0.468255
C311	C	0.204355	-0.260813	0.801588
C312	C	0.537688	0.072520	1.134921
C313	C	-0.095943	-0.633166	0.436447
C314	C	0.237390	-0.299832	0.769781
C315	C	0.570723	0.033501	1.103114
C316	C	-0.095955	-0.633170	0.372855
C317	C	0.237378	-0.299836	0.706188
C318	C	0.570712	0.033497	1.039522
N319	N	-0.062919	-0.672182	0.341045
N320	N	0.270415	-0.338849	0.674378
N321	N	0.603748	-0.005516	1.007711
C322	C	-0.029881	-0.711200	0.372840
C323	C	0.303452	-0.377866	0.706174
C324	C	0.636785	-0.044533	1.039507
C325	C	-0.095940	-0.633190	0.760849
C326	C	0.237393	-0.299857	1.094182
C327	C	0.570727	0.033477	1.427516
C328	C	-0.095942	-0.633197	0.824454
C329	C	0.237391	-0.299864	1.157788
C330	C	0.570724	0.033470	1.491121
C331	C	-0.029866	-0.711231	0.824440
C332	C	0.303467	-0.377897	1.157773
C333	C	0.636800	-0.044564	1.491106
C334	C	-0.029867	-0.711226	0.760833
C335	C	0.303466	-0.377892	1.094166
C336	C	0.636800	-0.044559	1.427500
C337	C	-0.062904	-0.672202	0.729038
C338	C	0.270430	-0.338869	1.062372
C339	C	0.603763	-0.005536	1.395705
C340	C	-0.029893	-0.711193	0.239269
C341	C	0.303441	-0.377859	0.572602
C342	C	0.636774	-0.044526	0.905936
C343	C	-0.029901	-0.711189	0.175660
C344	C	0.303432	-0.377855	0.508994
C345	C	0.636766	-0.044522	0.842327
C346	C	-0.095975	-0.633153	0.175680
C347	C	0.237358	-0.299820	0.509014
C348	C	0.570692	0.033513	0.842347
C349	C	-0.095969	-0.633159	0.239284
C350	C	0.237365	-0.299826	0.572617
C351	C	0.570698	0.033508	0.905950
C352	C	-0.062924	-0.672181	0.271076
C353	C	0.270410	-0.338848	0.604410
C354	C	0.603743	-0.005514	0.937743
O355	O	-0.124047	-0.600017	0.339915
O356	O	0.209287	-0.266683	0.673248
O357	O	0.542620	0.066650	1.006582
O358	O	-0.001783	-0.744372	0.339935
O359	O	0.331551	-0.411039	0.673268
O360	O	0.664884	-0.077706	1.006601
H361	H	0.094710	-0.770646	0.000095
H362	H	0.428044	-0.437312	0.333428
H363	H	0.761377	-0.103979	0.666762
H364	H	0.709776	-0.763286	0.000055
H365	H	1.043109	-0.429953	0.333388
H366	H	1.376443	-0.096619	0.666722
Cl367	Cl	0.172890	-0.557963	0.000062
Cl368	Cl	0.506223	-0.224630	0.333395
Cl369	Cl	0.839557	0.108703	0.666728
H370	H	0.687991	-0.574829	0.000022
H371	H	1.021324	-0.241496	0.333356
H372	H	1.354657	0.091837	0.666689
Cl373	Cl	-0.137480	-0.584150	0.864433
Cl374	Cl	0.195853	-0.250817	1.197767
Cl375	Cl	0.529186	0.082516	1.531100
H376	H	-0.139553	0.167930	0.000059
H377	H	0.193780	0.501263	0.333393
H378	H	0.527114	0.834597	0.666726
H379	H	-0.186402	-0.098146	0.000047
H380	H	0.146932	0.235187	0.333380
H381	H	0.480265	0.568521	0.666713
H382	H	0.541520	-0.524585	0.000017
H383	H	0.874853	-0.191252	0.333350
H384	H	1.208186	0.142082	0.666684
Cl385	Cl	0.815068	-0.785052	0.000046
Cl386	Cl	1.148401	-0.451719	0.333379
Cl387	Cl	1.481735	-0.118385	0.666712
Cl388	Cl	-0.164498	-0.362215	0.000037
Cl389	Cl	0.168836	-0.028882	0.333371
Cl390	Cl	0.502169	0.304451	0.666704
H391	H	0.014804	-0.404543	0.000058
H392	H	0.348137	-0.071210	0.333391
H393	H	0.681470	0.262123	0.666725
Cl394	Cl	0.436248	-0.502812	0.000018
Cl395	Cl	0.769581	-0.169479	0.333351
Cl396	Cl	1.102915	0.163855	0.666685
Cl397	Cl	0.475364	-0.841133	0.000062
Cl398	Cl	0.808698	-0.507800	0.333395
Cl399	Cl	1.142031	-0.174467	0.666729
H400	H	-0.155881	-0.562376	0.557754
H401	H	0.177452	-0.229042	0.891088
H402	H	0.510785	0.104291	1.224421
Cl403	Cl	-0.165854	-0.496268	0.000017
Cl404	Cl	0.167479	-0.162934	0.333350
Cl405	Cl	0.500813	0.170399	0.666683
Cl406	Cl	0.040007	0.151880	0.000078
Cl407	Cl	0.373341	0.485213	0.333411
Cl408	Cl	0.706674	0.818546	0.666744
Cl409	Cl	-0.160306	0.050190	0.000049
Cl410	Cl	0.173027	0.383524	0.333382
Cl411	Cl	0.506361	0.716857	0.666716
Cl412	Cl	0.398772	-0.503251	0.000006
Cl413	Cl	0.732105	-0.169918	0.333340
Cl414	Cl	1.065439	0.163416	0.666673
Cl415	Cl	0.199986	-0.792426	0.000079
Cl416	Cl	0.533319	-0.459093	0.333412
Cl417	Cl	0.866653	-0.125759	0.666745
H418	H	-0.002984	-0.742967	0.265148
H419	H	0.330349	-0.409634	0.598481
H420	H	0.663683	-0.076300	0.931814
H421	H	0.030065	-0.781997	0.557728
H422	H	0.363399	-0.448664	0.891062
H423	H	0.696732	-0.115330	1.224395
Cl424	Cl	0.081302	-0.128532	0.000102
Cl425	Cl	0.414635	0.204801	0.333435
Cl426	Cl	0.747968	0.538135	0.666768
H427	H	-0.122847	-0.601414	0.734965
H428	H	0.210487	-0.268080	1.068298
H429	H	0.543820	0.065253	1.401631
H430	H	0.779443	-0.573737	0.000032
H431	H	1.112776	-0.240403	0.333365
H432	H	1.446110	0.092930	0.666698
H433	H	0.019261	0.034156	0.000086
H434	H	0.352594	0.367490	0.333420
H435	H	0.685928	0.700823	0.666753
Cl436	Cl	-0.207150	-0.215864	0.000033
Cl437	Cl	0.126183	0.117470	0.333367
Cl438	Cl	0.459517	0.450803	0.666700
Cl439	Cl	0.079934	-0.262581	0.000113
Cl440	Cl	0.413268	0.070752	0.333446
Cl441	Cl	0.746601	0.404086	0.666780
H442	H	-0.155881	-0.562367	0.442371
H443	H	0.177452	-0.229034	0.775704
H444	H	0.510786	0.104299	1.109037
Cl445	Cl	0.033088	-0.528639	0.000064
Cl446	Cl	0.366421	-0.195305	0.333397
Cl447	Cl	0.699755	0.138028	0.666731
H448	H	-0.122874	-0.601392	0.265182
H449	H	0.210460	-0.268058	0.598515
H450	H	0.543793	0.065275	0.931848
Cl451	Cl	0.011631	-0.760245	0.135677
Cl452	Cl	0.344965	-0.426912	0.469011
Cl453	Cl	0.678298	-0.093579	0.802344
Cl454	Cl	0.044691	-0.799273	0.428263
Cl455	Cl	0.378024	-0.465939	0.761597
Cl456	Cl	0.711358	-0.132606	1.094930
H457	H	-0.002967	-0.742998	0.734939
H458	H	0.330367	-0.409665	1.068273
H459	H	0.663700	-0.076331	1.401606
H460	H	-0.002965	-0.743000	0.850339
H461	H	0.330368	-0.409667	1.183673
H462	H	0.663702	-0.076333	1.517006
H463	H	0.072916	-0.582198	0.000067
H464	H	0.406249	-0.248865	0.333401
H465	H	0.739583	0.084468	0.666734
Cl466	Cl	0.324126	-0.842944	0.000066
Cl467	Cl	0.657459	-0.509611	0.333400
Cl468	Cl	0.990792	-0.176277	0.666733
Cl469	Cl	0.437898	-0.841582	0.000072
Cl470	Cl	0.771231	-0.508249	0.333405
Cl471	Cl	1.104565	-0.174915	0.666738
Cl472	Cl	-0.137506	-0.584105	0.135698
Cl473	Cl	0.195827	-0.250772	0.469032
Cl474	Cl	0.529160	0.082562	0.802365
Cl475	Cl	0.589154	-0.839761	0.000057
Cl476	Cl	0.922488	-0.506428	0.333390
Cl477	Cl	1.255821	-0.173095	0.666723
Cl478	Cl	0.284994	-0.504619	0.000010
Cl479	Cl	0.618328	-0.171286	0.333344
Cl480	Cl	0.951661	0.162047	0.666677
