data_functionalizedCrystal
_audit_creation_method	'MofGen! by Chris Wilmer'
_symmetry_space_group_name_H-M	'P1'
_symmetry_Int_Tables_number	1
_symmetry_cell_setting	triclinic
loop_
_symmetry_equiv_pos_as_xyz
  x,y,z
_cell_length_a	10.489741
_cell_length_b	10.489741
_cell_length_c	8.965430
_cell_angle_alpha	90.000707
_cell_angle_beta	89.998843
_cell_angle_gamma	84.539174
loop_
_atom_site_label
_atom_site_type_symbol
_atom_site_fract_x
_atom_site_fract_y
_atom_site_fract_z
O1	O	1.694053	0.179958	-0.123946
O2	O	1.322858	0.196851	-0.123969
O3	O	1.516902	0.002807	-0.123948
O4	O	1.500009	0.374003	-0.123967
O5	O	1.516886	0.002820	0.124130
O6	O	1.322841	0.196864	0.124110
O7	O	1.694037	0.179971	0.124133
Cu8	Cu	1.508438	0.188419	0.146773
Cu9	Cu	1.508457	0.188404	-0.146609
O10	O	1.499993	0.374016	0.124112
C11	C	1.275318	0.195582	0.000067
C12	C	1.133688	0.191765	0.000059
C13	C	1.515618	-0.044718	0.000090
C14	C	1.511801	-0.186348	0.000087
C15	C	1.065548	0.068300	0.000079
C16	C	0.973430	0.126617	-0.122237
C17	C	0.973447	0.126659	0.122349
C18	C	1.043435	0.250133	-0.122358
C19	C	1.043462	0.250158	0.122338
C20	C	0.951371	0.308564	-0.000007
C21	C	1.388336	-0.254488	0.000069
C22	C	1.446652	-0.346604	0.122388
C23	C	1.446697	-0.346591	-0.122198
C24	C	1.570167	-0.276599	0.122508
C25	C	1.570195	-0.276576	-0.122189
C26	C	1.628600	-0.368665	0.000161
C27	C	1.741577	0.181241	0.000093
C28	C	1.883206	0.185058	0.000092
C29	C	1.501277	0.421541	0.000070
C30	C	1.505094	0.563170	0.000063
N31	N	1.508433	0.188429	0.353122
N32	N	1.508471	0.188384	-0.352958
C33	C	1.418666	0.278138	0.450418
C34	C	1.534163	0.303949	0.549838
C35	C	1.392986	0.162629	0.549830
C36	C	1.623988	0.214298	0.450352
C37	C	1.482735	0.072927	0.450336
C38	C	1.598314	0.098690	0.549711
H39	H	0.942422	0.074371	-0.225643
H40	H	0.942463	0.074402	0.225758
C41	C	1.050440	0.255799	0.389909
C42	C	1.085387	0.320625	0.261934
H43	H	1.076335	0.299292	0.476096
H44	H	0.960185	0.253212	0.391416
H45	H	1.091121	0.170930	0.389015
H46	H	1.044699	0.405491	0.262822
H47	H	1.175660	0.323226	0.260427
C48	C	1.556487	-0.111977	0.305324
C49	C	1.453313	-0.058863	0.391270
H50	H	1.538313	-0.193341	0.268866
H51	H	1.569578	-0.056987	0.223703
H52	H	1.631540	-0.121644	0.365129
H53	H	1.378262	-0.049187	0.331463
H54	H	1.440206	-0.113866	0.472903
C55	C	1.741696	0.355360	0.304816
C56	C	1.755833	0.243975	0.391679
H57	H	1.823087	0.373710	0.268616
H58	H	1.686655	0.343025	0.223016
H59	H	1.705775	0.424891	0.363919
H60	H	1.791745	0.174442	0.332573
H61	H	1.810894	0.256303	0.473491
C62	C	1.642378	-0.093184	0.694174
C63	C	1.700919	-0.003760	0.608206
H64	H	1.705725	-0.156431	0.730278
H65	H	1.599154	-0.050960	0.776036
H66	H	1.582569	-0.132821	0.634498
H67	H	1.760722	0.035885	0.667885
H68	H	1.744164	-0.045988	0.526333
C69	C	1.250367	-0.330220	-0.261561
C70	C	1.376166	-0.388415	-0.261807
H71	H	1.206824	-0.356031	-0.347750
H72	H	1.207336	-0.355368	-0.174720
H73	H	1.251630	-0.239791	-0.262071
H74	H	1.374903	-0.478845	-0.261286
H75	H	1.419207	-0.363276	-0.348671
C76	C	0.807237	0.463767	-0.127023
C77	C	0.884634	0.445718	-0.000098
H78	H	0.766030	0.548436	-0.127076
H79	H	0.858665	0.450967	-0.213917
H80	H	0.744512	0.404149	-0.126138
H81	H	0.947365	0.505329	-0.000988
H82	H	0.833203	0.458531	0.086819
H83	H	1.342824	0.354072	0.406821
H84	H	1.295338	0.140828	0.593530
H85	H	1.286824	-0.204837	0.000185
H86	H	1.394404	-0.377610	0.225794
C87	C	1.675484	0.421887	0.694760
C88	C	1.563540	0.435774	0.608864
H89	H	1.693614	0.503274	0.731190
H90	H	1.663965	0.366428	0.776400
H91	H	1.744799	0.386560	0.634931
H92	H	1.494223	0.471093	0.668695
H93	H	1.575051	0.491254	0.527212
H94	H	1.074270	0.302327	-0.225883
H95	H	1.622355	-0.245761	0.226035
H96	H	1.115238	-0.033196	-0.000069
H97	H	1.730204	-0.418089	0.000235
H98	H	1.622398	-0.245537	-0.225600
