data_functionalizedCrystal
_audit_creation_method	'MofGen! by Chris Wilmer'
_symmetry_space_group_name_H-M	'P1'
_symmetry_Int_Tables_number	1
_symmetry_cell_setting	triclinic
loop_
_symmetry_equiv_pos_as_xyz
  x,y,z
_cell_length_a	15.944551
_cell_length_b	23.532357
_cell_length_c	15.021413
_cell_angle_alpha	89.998468
_cell_angle_beta	89.997174
_cell_angle_gamma	83.163515
loop_
_atom_site_label
_atom_site_type_symbol
_atom_site_fract_x
_atom_site_fract_y
_atom_site_fract_z
O1	O	1.113891	0.073444	-0.073950
O2	O	0.869262	0.082500	-0.073974
O3	O	0.998975	-0.004933	-0.073943
O4	O	0.984178	0.160877	-0.073981
O5	O	0.998954	-0.004921	0.074121
O6	O	0.869242	0.082512	0.074090
O7	O	1.113870	0.073456	0.074114
Zn8	Zn	0.991552	0.077986	0.097611
Zn9	Zn	0.991580	0.077970	-0.097470
O10	O	0.984157	0.160889	0.074083
C11	C	0.837961	0.082130	0.000056
C12	C	0.744725	0.081003	0.000047
C13	C	0.998595	-0.026145	0.000092
C14	C	0.997482	-0.089368	0.000100
C15	C	0.530363	0.024114	0.000078
C16	C	0.469123	0.050525	-0.072932
C17	C	0.574017	0.078964	0.000058
C18	C	0.469125	0.050550	0.073048
C19	C	0.409121	0.076990	0.000073
C20	C	0.514005	0.105390	-0.073011
C21	C	0.514014	0.105408	0.073034
C22	C	0.452791	0.131859	0.000006
C23	C	0.669009	0.080099	0.000049
C24	C	0.314130	0.075859	0.000076
C25	C	0.990507	-0.481413	-0.080659
C26	C	0.989449	-0.540817	-0.080664
O27	O	0.988883	-0.571541	-0.149304
N28	N	0.988913	-0.570523	0.000045
C29	C	0.989427	-0.540822	0.080764
O30	O	0.988873	-0.571544	0.149413
C31	C	0.990479	-0.481419	0.080768
C32	C	0.991023	-0.451716	0.000054
C33	C	0.991050	-0.451710	-0.161366
C34	C	0.992110	-0.392311	-0.161360
C35	C	0.992626	-0.362614	-0.080647
C36	C	0.992082	-0.392317	0.000060
C37	C	0.990986	-0.451719	0.161486
C38	C	0.992037	-0.392312	0.161484
C39	C	0.992582	-0.362609	0.080770
C40	C	0.993658	-0.303221	0.080778
N41	N	0.994193	-0.273515	0.000070
C42	C	0.993677	-0.303211	-0.080643
C43	C	0.987217	-0.665572	0.080749
C44	C	0.986171	-0.724975	0.080746
C45	C	0.986192	-0.724965	-0.080682
C46	C	0.987243	-0.665562	-0.080678
C47	C	0.987752	-0.635866	0.000040
C48	C	0.995903	-0.178469	-0.080626
C49	C	0.996966	-0.119064	-0.080613
C50	C	0.996940	-0.119079	0.080815
C51	C	0.995882	-0.178478	0.080803
C52	C	0.995360	-0.208172	0.000075
O53	O	0.994221	-0.272459	0.149384
O54	O	0.994220	-0.272481	-0.149280
C55	C	1.145171	0.073826	0.000083
C56	C	1.238407	0.074953	0.000085
C57	C	0.984538	0.182101	0.000046
C58	C	0.985650	0.245324	0.000032
N59	N	0.991540	0.077997	0.230748
N60	N	0.991599	0.077954	-0.230608
C61	C	0.931552	0.118407	0.470417
C62	C	1.007356	0.129464	0.529756
C63	C	0.991562	0.077983	0.412355
C64	C	0.915778	0.066939	0.529758
C65	C	0.991576	0.077971	0.587779
C66	C	1.067404	0.089065	0.470387
C67	C	0.975776	0.026518	0.470384
C68	C	1.051635	0.037553	0.529696
C69	C	0.991552	0.077992	0.311298
C70	C	0.991594	0.077961	0.688834
H71	H	0.564091	-0.021407	-0.000002
H72	H	0.992439	-0.368135	0.227216
H73	H	0.990544	-0.475892	0.227213
H74	H	1.020721	0.172981	0.555835
H75	H	0.992550	-0.368132	-0.227086
F76	F	0.990501	-0.483307	-0.247279
H77	H	0.419237	0.177427	-0.000045
F78	F	0.540055	0.135713	0.153702
H79	H	0.997411	-0.094883	-0.146343
H80	H	0.995447	-0.202664	0.146526
H81	H	0.880854	0.152620	0.444390
H82	H	0.962388	-0.016985	0.444285
F83	F	0.985607	-0.756581	0.166652
F84	F	0.987821	-0.633955	-0.166584
F85	F	0.443124	0.020222	0.153724
F86	F	1.151200	0.101333	0.436447
F87	F	0.997491	-0.087463	0.166711
F88	F	0.995348	-0.210062	-0.166545
F89	F	1.118045	-0.007139	0.563508
F90	F	0.832002	0.054736	0.563847
F91	F	0.985637	-0.756580	-0.166585
H92	H	0.449223	0.027321	-0.134646
F93	F	0.539875	0.135684	-0.153778
H94	H	0.987634	-0.641397	0.146484
