data_functionalizedCrystal
_audit_creation_method	'MofGen! by Chris Wilmer'
_symmetry_space_group_name_H-M	'P1'
_symmetry_Int_Tables_number	1
_symmetry_cell_setting	triclinic
loop_
_symmetry_equiv_pos_as_xyz
  x,y,z
_cell_length_a	13.032831
_cell_length_b	12.759394
_cell_length_c	13.033109
_cell_angle_alpha	97.153824
_cell_angle_beta	76.665514
_cell_angle_gamma	82.819699
loop_
_atom_site_label
_atom_site_type_symbol
_atom_site_fract_x
_atom_site_fract_y
_atom_site_fract_z
Zn1	Zn	1.700152	-0.738596	-0.806419
Zn2	Zn	2.200152	-0.238596	-0.306419
Zn3	Zn	1.677492	-0.888729	-0.628805
Zn4	Zn	2.177492	-0.388729	-0.128805
Zn5	Zn	1.499974	-0.687494	-0.606312
Zn6	Zn	1.999974	-0.187494	-0.106312
Zn7	Zn	1.522507	-0.888636	-0.783849
Zn8	Zn	2.022507	-0.388636	-0.283849
O9	O	1.600031	-0.800864	-0.706346
O10	O	2.100031	-0.300864	-0.206346
O11	O	1.845783	-0.779936	-0.801718
O12	O	2.345783	-0.279936	-0.301718
O13	O	1.635030	-0.840687	-0.477189
O14	O	2.135030	-0.340687	0.022811
O15	O	1.526581	-0.547263	-0.632889
O16	O	2.026581	-0.047263	-0.132889
O17	O	1.829135	-0.890238	-0.671225
O18	O	2.329135	-0.390238	-0.171225
O19	O	1.673651	-0.584807	-0.779907
O20	O	2.173651	-0.084807	-0.279907
O21	O	1.504608	-0.692841	-0.460663
O22	O	2.004608	-0.192841	0.039337
O23	O	1.354325	-0.692751	-0.611003
O24	O	1.854325	-0.192751	-0.111003
O25	O	1.564985	-0.890081	-0.935475
O26	O	2.064985	-0.390081	-0.435475
O27	O	1.370880	-0.840530	-0.741439
O28	O	1.870880	-0.340530	-0.241439
O29	O	1.695501	-0.779846	-0.952057
O30	O	2.195501	-0.279846	-0.452057
O31	O	1.656879	-1.035727	-0.649339
O32	O	2.156879	-0.535727	-0.149339
O33	O	1.543013	-1.035659	-0.763249
O34	O	2.043013	-0.535659	-0.263249
C35	C	1.324063	-0.761086	-0.671332
C36	C	1.824063	-0.261086	-0.171332
C37	C	1.206006	-0.744098	-0.656377
C38	C	1.706006	-0.244098	-0.156377
C39	C	1.161579	-0.809730	-0.714151
C40	C	1.661579	-0.309730	-0.214151
C41	C	1.039561	-0.792174	-0.698696
C42	C	1.539561	-0.292174	-0.198696
C43	C	1.599964	-1.073818	-0.706312
C44	C	2.099964	-0.573818	-0.206312
C45	C	1.600037	-1.190609	-0.706346
C46	C	2.100037	-0.690609	-0.206346
C47	C	1.718721	-1.190655	-0.587846
C48	C	2.218721	-0.690655	-0.087846
C49	C	1.778093	-1.245545	-0.528612
C50	C	2.278093	-0.745545	-0.028612
C51	C	1.778159	-1.355280	-0.528649
C52	C	2.278159	-0.855280	-0.028649
C53	C	1.718849	-1.410128	-0.587928
C54	C	2.218849	-0.910128	-0.087928
C55	C	1.659478	-1.355238	-0.647162
C56	C	2.159478	-0.855238	-0.147162
C57	C	1.659416	-1.245500	-0.647116
C58	C	2.159416	-0.745500	-0.147116
C59	C	1.540801	-1.355193	-0.765667
C60	C	2.040801	-0.855193	-0.265667
C61	C	1.540728	-1.245457	-0.765625
C62	C	2.040728	-0.745457	-0.265625
C63	C	1.481492	-1.410041	-0.824946
C64	C	1.981492	-0.910041	-0.324946
C65	C	1.422113	-1.355149	-0.884176
C66	C	1.922113	-0.855149	-0.384176
C67	C	1.422048	-1.245408	-0.884136
C68	C	1.922048	-0.745408	-0.384136
C69	C	1.481356	-1.190567	-0.824859
C70	C	1.981356	-0.690567	-0.324859
C71	C	1.877077	-0.840798	-0.741498
C72	C	2.377077	-0.340798	-0.241498
C73	C	1.995137	-0.857815	-0.756478
C74	C	2.495137	-0.357815	-0.256478
C75	C	1.635284	-0.840653	-0.983382
C76	C	2.135284	-0.340653	-0.483382
C77	C	1.650307	-0.857609	-1.101439
C78	C	2.150307	-0.357609	-0.601439
C79	C	1.600130	-0.526851	-0.706407
C80	C	2.100130	-0.026851	-0.206407
C81	C	1.600172	-0.410083	-0.706433
C82	C	2.100172	0.089917	-0.206433
C83	C	1.592474	-0.792017	-1.145895
C84	C	2.092474	-0.292017	-0.645895
C85	C	1.608000	-0.809541	-1.267913
C86	C	2.108000	-0.309541	-0.767913
C87	C	1.564976	-0.761162	-0.430395
C88	C	2.064976	-0.261162	0.069605
C89	C	1.550159	-0.743940	-0.312366
C90	C	2.050159	-0.243940	0.187634
H91	H	0.987267	-0.722977	-0.637793
H92	H	1.487267	-0.222977	-0.137793
C93	C	1.510064	-0.698617	-1.075285
C94	C	2.010064	-0.198617	-0.575285
N95	N	1.447995	-0.628263	-1.022102
N96	N	1.947995	-0.128263	-0.522102
C97	C	1.481297	-1.069857	-0.824815
C98	C	1.981297	-0.569857	-0.324815
N99	N	1.481260	-0.978938	-0.824785
N100	N	1.981260	-0.478938	-0.324785
C101	C	1.732634	-0.951079	-1.172039
C102	C	2.232634	-0.451079	-0.672039
N103	N	1.794613	-1.021510	-1.225210
N104	N	2.294613	-0.521510	-0.725210
C105	C	1.690331	-0.903016	-1.338510
C106	C	2.190331	-0.403016	-0.838510
N107	N	1.752310	-0.973446	-1.391681
N108	N	2.252310	-0.473446	-0.891681
H109	H	1.826385	-1.200879	-0.480349
H110	H	2.326385	-0.700879	0.019651
H111	H	1.489146	-0.674808	-1.260099
H112	H	1.989146	-0.174808	-0.760099
C113	C	1.356877	-1.415488	-0.949374
C114	C	1.856877	-0.915488	-0.449374
N115	N	1.307738	-1.460938	-0.998479
N116	N	1.807738	-0.960938	-0.498479
C117	C	1.718644	-1.069941	-0.587789
C118	C	2.218644	-0.569941	-0.087789
N119	N	1.718586	-0.979018	-0.587744
N120	N	2.218586	-0.479018	-0.087744
C121	C	1.135359	-0.650624	-0.574099
C122	C	1.635359	-0.150624	-0.074099
N123	N	1.082148	-0.580219	-0.512123
N124	N	1.582148	-0.080219	-0.012123
C125	C	1.065779	-0.951293	-0.838762
C126	C	1.565779	-0.451293	-0.338762
N127	N	1.118986	-1.021701	-0.900737
N128	N	1.618986	-0.521701	-0.400737
C129	C	1.232225	-0.903205	-0.796428
C130	C	1.732225	-0.403205	-0.296428
N131	N	1.285435	-0.973614	-0.858399
N132	N	1.785435	-0.473614	-0.358399
H133	H	1.718919	-1.499482	-0.587963
H134	H	2.218919	-0.999482	-0.087963
C135	C	1.481563	-1.530751	-0.824983
C136	C	1.981563	-1.030751	-0.324983
N137	N	1.481611	-1.621671	-0.825006
N138	N	1.981611	-1.121671	-0.325006
C139	C	1.843469	-1.415660	-0.463488
C140	C	2.343469	-0.915660	0.036512
N141	N	1.892660	-1.461138	-0.414408
N142	N	2.392660	-0.961138	0.085592
C143	C	1.356743	-1.185040	-0.949308
C144	C	1.856743	-0.685040	-0.449308
N145	N	1.307555	-1.139575	-0.998400
N146	N	1.807555	-0.639575	-0.498400
