data_functionalizedCrystal
_audit_creation_method	'MofGen! by Chris Wilmer'
_symmetry_space_group_name_H-M	'P1'
_symmetry_Int_Tables_number	1
_symmetry_cell_setting	triclinic
loop_
_symmetry_equiv_pos_as_xyz
  x,y,z
_cell_length_a	25.639233
_cell_length_b	12.645331
_cell_length_c	12.645330
_cell_angle_alpha	90.016671
_cell_angle_beta	90.011740
_cell_angle_gamma	90.013590
loop_
_atom_site_label
_atom_site_type_symbol
_atom_site_fract_x
_atom_site_fract_y
_atom_site_fract_z
Zn1	Zn	-0.295648	-1.620636	0.422197
Zn2	Zn	0.204352	-1.120636	0.922197
Zn3	Zn	-0.208223	-1.620546	0.599445
Zn4	Zn	0.291777	-1.120546	1.099445
Zn5	Zn	-0.208225	-1.443379	0.422192
Zn6	Zn	0.291775	-0.943379	0.922192
Zn7	Zn	-0.295626	-1.443332	0.599416
Zn8	Zn	0.204374	-0.943332	1.099416
O9	O	-0.251931	-1.531973	0.510813
O10	O	0.248069	-1.031973	1.010813
O11	O	-0.284059	-1.768971	0.445723
O12	O	0.215941	-1.268971	0.945723
O13	O	-0.135058	-1.597026	0.575942
O14	O	0.364942	-1.097026	1.075942
O15	O	-0.219832	-1.466950	0.273846
O16	O	0.280168	-0.966950	0.773846
O17	O	-0.219829	-1.768905	0.575946
O18	O	0.280171	-1.268905	1.075946
O19	O	-0.284061	-1.597180	0.273849
O20	O	0.215939	-1.097180	0.773849
O21	O	-0.135060	-1.466862	0.445715
O22	O	0.364940	-0.966862	0.945715
O23	O	-0.219811	-1.295025	0.445688
O24	O	0.280189	-0.795025	0.945688
O25	O	-0.368794	-1.466871	0.575898
O26	O	0.131206	-0.966871	1.075898
O27	O	-0.284024	-1.294991	0.575893
O28	O	0.215976	-0.794991	1.075893
O29	O	-0.368810	-1.597135	0.445696
O30	O	0.131190	-1.097135	0.945696
O31	O	-0.219807	-1.596981	0.747788
O32	O	0.280193	-1.096981	1.247788
O33	O	-0.284022	-1.466783	0.747767
O34	O	0.215978	-0.966783	1.247767
C35	C	-0.251916	-1.256544	0.510787
C36	C	0.248084	-0.756544	1.010787
C37	C	-0.251921	-1.138714	0.510802
C38	C	0.248079	-0.638714	1.010802
C39	C	-0.388304	-1.532008	0.510794
C40	C	0.111696	-1.032008	1.010794
C41	C	-0.446418	-1.532022	0.510786
C42	C	0.053582	-1.032022	1.010786
C43	C	-0.251923	-1.531896	0.786242
C44	C	0.248077	-1.031896	1.286242
C45	C	-0.251938	-1.531960	0.904072
C46	C	0.248062	-1.031960	1.404072
C47	C	-0.806795	-1.599937	0.442789
C48	C	-0.306795	-1.099937	0.942789
C49	C	-0.861399	-1.599950	0.442759
C50	C	-0.361399	-1.099950	0.942759
O51	O	-0.889648	-1.657608	0.385070
O52	O	-0.389648	-1.157608	0.885070
N53	N	-0.888700	-1.532139	0.510538
N54	N	-0.388700	-1.032139	1.010538
C55	C	-0.861394	-1.464303	0.578342
C56	C	-0.361394	-0.964303	1.078342
O57	O	-0.889630	-1.406625	0.635989
O58	O	-0.389630	-0.906625	1.135989
C59	C	-0.806791	-1.464285	0.578365
C60	C	-0.306791	-0.964285	1.078365
C61	C	-0.779493	-1.532108	0.510590
C62	C	-0.279493	-1.032108	1.010590
C63	C	-0.779497	-1.667753	0.375018
C64	C	-0.279497	-1.167753	0.875018
C65	C	-0.724896	-1.667741	0.375049
C66	C	-0.224896	-1.167741	0.875049
C67	C	-0.697594	-1.599913	0.442850
C68	C	-0.197594	-1.099913	0.942850
C69	C	-0.724892	-1.532096	0.510621
C70	C	-0.224892	-1.032096	1.010621
C71	C	-0.779486	-1.396445	0.646163
C72	C	-0.279486	-0.896445	1.146163
C73	C	-0.724879	-1.396432	0.646180
C74	C	-0.224879	-0.896432	1.146180
C75	C	-0.697581	-1.464255	0.578405
C76	C	-0.197581	-0.964255	1.078405
C77	C	-0.642989	-1.464256	0.578453
C78	C	-0.142989	-0.964256	1.078453
N79	N	-0.615688	-1.532067	0.510675
N80	N	-0.115688	-1.032067	1.010675
C81	C	-0.642991	-1.599895	0.442874
C82	C	-0.142991	-1.099895	0.942874
C83	C	-0.976065	-1.464344	0.578287
C84	C	-0.476065	-0.964344	1.078287
C85	C	-1.030667	-1.464366	0.578270
C86	C	-0.530667	-0.964366	1.078270
C87	C	-1.030669	-1.600012	0.442685
C88	C	-0.530669	-1.100012	0.942685
C89	C	-0.976065	-1.599994	0.442708
C90	C	-0.476065	-1.099994	0.942708
C91	C	-0.948764	-1.532155	0.510508
C92	C	-0.448764	-1.032155	1.010508
C93	C	-0.528325	-1.599866	0.442944
C94	C	-0.028325	-1.099866	0.942944
C95	C	-0.473720	-1.599851	0.442985
C96	C	0.026280	-1.099851	0.942985
C97	C	-0.473724	-1.464202	0.578565
C98	C	0.026276	-0.964202	1.078565
C99	C	-0.528324	-1.464220	0.578529
C100	C	-0.028324	-0.964220	1.078529
C101	C	-0.555624	-1.532055	0.510710
C102	C	-0.055624	-1.032055	1.010710
O103	O	-0.614706	-1.406624	0.636110
O104	O	-0.114706	-0.906624	1.136110
O105	O	-0.614748	-1.657553	0.385226
O106	O	-0.114748	-1.157553	0.885226
C107	C	-0.116088	-1.532000	0.510755
C108	C	0.383912	-1.032000	1.010755
C109	C	-0.057974	-1.532191	0.510464
C110	C	0.442026	-1.032191	1.010464
C111	C	-0.251946	-1.808479	0.510839
C112	C	0.248054	-1.308479	1.010839
C113	C	-0.251953	-1.926309	0.510850
C114	C	0.248047	-1.426309	1.010850
C115	C	-0.211748	-0.971136	0.428513
C116	C	0.288252	-0.471136	0.928513
C117	C	-0.211571	-1.093695	0.428726
C118	C	0.288429	-0.593695	0.928726
C119	C	-0.236872	-1.094198	0.622469
C120	C	0.263128	-0.594198	1.122469
C121	C	-0.236597	-0.971600	0.622020
C122	C	0.263403	-0.471600	1.122020
C123	C	-0.307300	-0.971546	0.482487
C124	C	0.192700	-0.471546	0.982487
C125	C	-0.306993	-1.094152	0.479992
C126	C	0.193007	-0.594152	0.979992
C127	C	-0.251949	-1.532080	0.234307
C128	C	0.248051	-1.032080	0.734307
C129	C	-0.251957	-1.532125	0.116477
C130	C	0.248043	-1.032125	0.616477
C131	C	-0.292460	-1.450390	1.071667
C132	C	0.207540	-0.950390	1.571667
C133	C	-0.292329	-1.449973	0.949108
C134	C	0.207671	-0.949973	1.449108
C135	C	-0.196836	-1.501732	0.948640
C136	C	0.303164	-1.001732	1.448640
C137	C	-0.197082	-1.501234	1.071239
C138	C	0.302918	-1.001234	1.571239
C139	C	-0.266070	-1.644256	1.071170
C140	C	0.233930	-1.144256	1.571170
C141	C	-0.267275	-1.643568	0.948564
C142	C	0.232725	-1.143568	1.448564
H143	H	-0.451496	-1.655084	0.387793
H144	H	0.048504	-1.155084	0.887793
H145	H	-0.953840	-1.409100	0.633503
H146	H	-0.453840	-0.909100	1.133503
Cl147	Cl	-0.328431	-0.923844	0.358962
Cl148	Cl	0.171569	-0.423844	0.858962
Cl149	Cl	-0.355717	-1.141460	0.565835
Cl150	Cl	0.144283	-0.641460	1.065835
Cl151	Cl	-0.174127	-0.927388	0.659155
Cl152	Cl	0.325873	-0.427388	1.159155
Cl153	Cl	-0.355750	-1.479309	1.117111
Cl154	Cl	0.144250	-0.979309	1.617111
H155	H	-0.451484	-1.408981	0.633770
H156	H	0.048516	-0.908981	1.133770
Cl157	Cl	-0.690586	-1.753001	0.289833
Cl158	Cl	-0.190586	-1.253001	0.789833
H159	H	-0.550546	-1.655100	0.387717
H160	H	-0.050546	-1.155100	0.887717
H161	H	-0.221080	-0.941668	0.345458
H162	H	0.278920	-0.441668	0.845458
H163	H	-0.801720	-1.722988	0.319800
H164	H	-0.301720	-1.222988	0.819800
Cl165	Cl	-0.280666	-1.139204	0.719716
Cl166	Cl	0.219334	-0.639204	1.219716
H167	H	-0.307827	-1.666364	0.919433
H168	H	0.192173	-1.166364	1.419433
Cl169	Cl	-0.279832	-0.925812	0.719943
Cl170	Cl	0.220168	-0.425812	1.219943
Cl171	Cl	-0.941753	-1.685258	0.357500
Cl172	Cl	-0.441753	-1.185258	0.857500
Cl173	Cl	-0.278220	-1.322849	1.119389
Cl174	Cl	0.221780	-0.822849	1.619389
H175	H	-0.170556	-1.122986	0.447470
H176	H	0.329444	-0.622986	0.947470
Cl177	Cl	-0.175071	-1.141540	0.660251
Cl178	Cl	0.324929	-0.641540	1.160251
Cl179	Cl	-0.324522	-1.139099	0.353131
Cl180	Cl	0.175478	-0.639099	0.853131
H181	H	-0.184665	-1.420619	0.918022
H182	H	0.315335	-0.920619	1.418022
H183	H	-1.052908	-1.655239	0.387475
H184	H	-0.552908	-1.155239	0.887475
Cl185	Cl	-0.226133	-1.140169	0.300878
Cl186	Cl	0.273867	-0.640169	0.800878
Cl187	Cl	-1.064978	-1.379116	0.663493
Cl188	Cl	-0.564978	-0.879116	1.163493
Cl189	Cl	-0.277896	-1.321626	0.903955
Cl190	Cl	0.222104	-0.821626	1.403955
H191	H	-0.702653	-1.341177	0.701381
H192	H	-0.202653	-0.841177	1.201381
Cl193	Cl	-0.148798	-0.923510	0.457110
Cl194	Cl	0.351202	-0.423510	0.957110
Cl195	Cl	-0.353551	-0.926790	0.575074
Cl196	Cl	0.146449	-0.426790	1.075074
Cl197	Cl	-0.355411	-1.479164	0.902577
Cl198	Cl	0.144589	-0.979164	1.402577
Cl199	Cl	-0.813790	-1.311179	0.731376
Cl200	Cl	-0.313790	-0.811179	1.231376
Cl201	Cl	-0.148898	-1.589146	1.117012
Cl202	Cl	0.351102	-1.089146	1.617012
Cl203	Cl	-0.562643	-1.378962	0.663738
Cl204	Cl	-0.062643	-0.878962	1.163738
Cl205	Cl	-0.327051	-1.686834	1.118817
Cl206	Cl	0.172949	-1.186834	1.618817
H207	H	-0.185127	-1.419266	1.099923
H208	H	0.314873	-0.919266	1.599923
Cl209	Cl	-0.148969	-1.590729	0.903605
Cl210	Cl	0.351031	-1.090729	1.403605
H211	H	-0.236571	-1.705151	1.100146
H212	H	0.263429	-1.205151	1.600146
Cl213	Cl	-0.225050	-1.742544	0.901218
Cl214	Cl	0.274950	-1.242544	1.401218
