data_functionalizedCrystal
_audit_creation_method	'MofGen! by Chris Wilmer'
_symmetry_space_group_name_H-M	'P1'
_symmetry_Int_Tables_number	1
_symmetry_cell_setting	triclinic
loop_
_symmetry_equiv_pos_as_xyz
  x,y,z
_cell_length_a	21.295418
_cell_length_b	21.295417
_cell_length_c	10.686551
_cell_angle_alpha	85.587790
_cell_angle_beta	85.584998
_cell_angle_gamma	90.046319
loop_
_atom_site_label
_atom_site_type_symbol
_atom_site_fract_x
_atom_site_fract_y
_atom_site_fract_z
Zn1	Zn	0.989693	-0.222958	-0.714122
Zn2	Zn	0.981517	-0.336324	-0.503084
Zn3	Zn	0.876336	-0.231103	-0.503053
Zn4	Zn	0.884379	-0.328229	-0.713966
O5	O	0.932981	-0.279654	-0.608556
O6	O	1.076701	-0.237976	-0.686206
O7	O	0.960776	-0.329163	-0.326492
O8	O	0.891429	-0.141931	-0.531104
O9	O	1.070694	-0.321265	-0.531157
O10	O	0.974712	-0.135947	-0.686176
O11	O	0.883501	-0.251858	-0.326469
O12	O	0.789311	-0.244008	-0.530952
O13	O	0.905137	-0.307468	-0.890575
O14	O	0.795220	-0.315365	-0.685909
O15	O	0.982511	-0.230126	-0.890690
O16	O	0.968576	-0.423342	-0.531005
O17	O	0.897209	-0.417394	-0.685939
C18	C	0.769424	-0.279692	-0.608411
C19	C	0.699455	-0.279723	-0.608379
C20	C	0.669677	-0.316937	-0.688944
C21	C	0.603937	-0.316919	-0.689001
C22	C	0.567976	-0.279695	-0.608470
C23	C	0.597761	-0.242473	-0.527898
C24	C	0.663501	-0.242487	-0.527853
N25	N	0.460475	-0.279011	-0.498098
N26	N	0.398025	-0.279002	-0.498145
C27	C	0.369906	-0.279650	-0.608603
N28	N	0.406596	-0.280320	-0.719015
N29	N	0.469052	-0.280333	-0.718967
C30	C	0.496692	-0.279675	-0.608510
C31	C	0.268846	-0.316846	-0.689237
C32	C	0.203104	-0.316824	-0.689296
C33	C	0.196930	-0.242382	-0.528182
C34	C	0.262670	-0.242401	-0.528135
C35	C	0.298624	-0.279636	-0.608660
C36	C	0.932896	-0.443208	-0.608486
C37	C	0.932919	-0.513176	-0.608499
C38	C	0.970118	-0.549115	-0.527907
C39	C	0.970149	-0.614856	-0.527936
C40	C	0.932968	-0.644656	-0.608542
C41	C	0.895767	-0.608708	-0.689149
C42	C	0.895742	-0.542968	-0.689127
N43	N	0.878268	-0.747570	-0.618113
N44	N	0.878293	-0.810021	-0.618127
C45	C	0.933042	-0.842728	-0.608615
N46	N	0.987765	-0.810626	-0.599064
N47	N	0.987739	-0.748170	-0.599044
C48	C	0.932991	-0.715940	-0.608575
C49	C	0.970277	-0.949952	-0.528050
C50	C	0.970309	-1.015695	-0.528087
C51	C	0.895921	-1.009545	-0.689294
C52	C	0.895895	-0.943804	-0.689263
C53	C	0.933072	-0.914012	-0.608634
C54	C	1.097177	-0.279615	-0.608703
C55	C	1.167148	-0.279599	-0.608765
C56	C	0.945633	-0.266985	-0.937700
C57	C	0.951025	-0.261587	-1.077961
C58	C	0.933085	-0.115459	-0.608654
C59	C	0.933129	-0.045490	-0.608696
C60	C	0.920415	-0.292227	-0.280693
C61	C	0.915145	-0.297448	-0.140433
H62	H	0.687745	-0.212181	-0.462247
O63	O	0.704695	-0.353082	-0.767061
C64	C	0.808708	-0.386057	-0.838473
C65	C	0.769124	-0.345109	-0.749915
H66	H	0.860808	-0.379616	-0.824661
H67	H	0.794915	-0.437672	-0.816139
H68	H	0.799703	-0.371164	-0.940258
H69	H	0.778109	-0.359946	-0.648101
H70	H	0.782925	-0.293504	-0.772358
H71	H	0.865601	-0.914540	-0.754883
O72	O	0.859723	-0.637618	-0.767630
C73	C	0.837313	-0.649434	-0.982209
C74	C	0.878184	-0.616662	-0.893466
H75	H	0.852214	-0.632494	-1.083965
H76	H	0.843725	-0.702598	-0.968489
H77	H	0.785703	-0.637439	-0.959856
H78	H	0.929809	-0.628606	-0.915764
H79	H	0.871718	-0.563506	-0.907203
H80	H	1.000391	-0.524860	-0.462258
O81	O	0.575101	-0.353125	-0.767312
C82	C	0.588160	-0.426930	-0.927165
C83	C	0.620893	-0.385972	-0.838518
H84	H	0.625169	-0.453488	-0.984777
H85	H	0.555112	-0.462067	-0.869190
H86	H	0.559960	-0.395519	-0.993219
H87	H	0.649127	-0.417334	-0.772446
H88	H	0.653904	-0.350831	-0.896571
H89	H	1.000551	-0.925694	-0.462401
O90	O	0.873648	-0.339095	-1.076288
C91	C	0.841467	-0.447724	-1.035679
C92	C	0.888512	-0.400628	-1.108391
H93	H	0.853460	-0.497482	-1.061627
H94	H	0.844384	-0.444875	-0.930189
H95	H	0.791697	-0.435671	-1.061458
H96	H	0.938303	-0.412650	-1.082717
H97	H	0.885540	-0.403485	-1.213863
O98	O	0.992544	-0.220039	-1.142358
C99	C	1.035998	-0.176640	-1.345562
C100	C	0.988944	-0.223707	-1.272791
H101	H	1.033113	-0.179599	-1.451029
H102	H	1.023993	-0.126849	-1.319835
H103	H	1.085760	-0.188659	-1.319682
H104	H	0.939166	-0.211747	-1.298632
H105	H	1.001004	-0.273485	-1.298524
O106	O	1.006463	-1.050516	-0.449678
C107	C	1.080261	-1.049673	-0.289821
C108	C	1.039336	-1.010162	-0.378534
H109	H	1.106860	-1.017063	-0.232296
H110	H	1.048885	-1.083031	-0.223698
H111	H	1.115372	-1.078180	-0.347867
H112	H	1.004220	-0.981617	-0.320589
H113	H	1.070751	-0.976844	-0.444660
O114	O	1.006366	-0.649713	-0.449701
C115	C	1.111121	-0.672125	-0.388725
C116	C	1.070184	-0.632596	-0.477385
H117	H	1.162727	-0.658309	-0.411094
H118	H	1.096233	-0.663144	-0.286921
H119	H	1.104708	-0.724224	-0.402580
H120	H	1.076576	-0.580484	-0.463642
H121	H	1.085082	-0.641630	-0.579156
O122	O	0.562800	-0.206412	-0.449528
C123	C	0.481951	-0.204355	-0.279275
C124	C	0.521511	-0.245273	-0.367932
H125	H	0.448550	-0.235755	-0.213301
H126	H	0.514500	-0.177775	-0.221590
H127	H	0.453486	-0.169230	-0.337373
H128	H	0.549980	-0.280432	-0.309932
H129	H	0.488929	-0.271809	-0.425623
O130	O	0.174077	-0.352917	-0.767523
C131	C	0.075537	-0.385915	-0.838944
C132	C	0.108331	-0.344999	-0.750309
H133	H	0.022376	-0.379537	-0.825038
H134	H	0.092384	-0.371028	-0.940758
H135	H	0.087580	-0.437512	-0.816590
H136	H	0.096303	-0.293391	-0.772549
H137	H	0.091482	-0.359939	-0.648521
H138	H	0.865449	-0.513705	-0.754756
O139	O	0.859822	-1.038586	-0.767482
C140	C	0.826929	-1.137135	-0.839031
C141	C	0.867827	-1.104325	-0.750388
H142	H	0.833397	-1.190289	-0.825260
H143	H	0.775303	-1.125182	-0.816742
H144	H	0.841845	-1.120215	-0.940791
H145	H	0.852967	-1.121226	-0.648599
H146	H	0.919444	-1.116277	-0.772786
H147	H	0.298121	-0.347162	-0.754812
O148	O	0.291498	-0.206240	-0.449744
C149	C	0.278436	-0.132374	-0.290006
C150	C	0.245708	-0.173311	-0.378697
H151	H	0.241431	-0.105730	-0.232560
H152	H	0.306598	-0.163746	-0.223809
H153	H	0.311519	-0.097302	-0.348064
H154	H	0.212595	-0.208388	-0.320741
H155	H	0.217586	-0.141899	-0.444897
H156	H	0.167651	-0.212070	-0.462618
