data_functionalizedCrystal
_audit_creation_method	'MofGen! by Chris Wilmer'
_symmetry_space_group_name_H-M	'P1'
_symmetry_Int_Tables_number	1
_symmetry_cell_setting	triclinic
loop_
_symmetry_equiv_pos_as_xyz
  x,y,z
_cell_length_a	8.559649
_cell_length_b	13.339070
_cell_length_c	7.681481
_cell_angle_alpha	82.700297
_cell_angle_beta	94.913240
_cell_angle_gamma	92.703979
loop_
_atom_site_label
_atom_site_type_symbol
_atom_site_fract_x
_atom_site_fract_y
_atom_site_fract_z
O1	O	2.094922	-0.022785	-0.146401
O2	O	1.652108	0.027721	-0.146409
O3	O	1.822694	-0.140848	-0.146401
O4	O	1.924335	0.145783	-0.146409
O5	O	1.843672	-0.161637	0.146458
O6	O	1.673086	0.006931	0.146450
O7	O	2.115899	-0.043574	0.146458
Zn8	Zn	1.897823	-0.021623	0.192951
Zn9	Zn	1.870184	0.005769	-0.192903
O10	O	1.945313	0.124994	0.146449
C11	C	1.604764	0.021153	0.000020
C12	C	1.432434	0.032546	0.000017
C13	C	1.816014	-0.187598	0.000026
C14	C	1.764836	-0.295923	0.000018
C15	C	2.162764	-0.691632	0.000026
C16	C	2.210854	-0.589856	0.000043
C17	C	2.099353	-0.516368	0.000036
C18	C	1.939755	-0.544665	0.000013
C19	C	1.891662	-0.646451	0.000010
C20	C	1.828251	-0.471188	0.000020
C21	C	1.668653	-0.499485	-0.000003
C22	C	1.620567	-0.601262	-0.000008
C23	C	1.732068	-0.674750	-0.000001
C24	C	1.876344	-0.369401	0.000024
C25	C	1.605242	-0.324221	0.000008
C26	C	1.557152	-0.425997	-0.000010
C27	C	2.163243	-0.037007	0.000025
C28	C	2.335572	-0.048399	0.000017
C29	C	1.951993	0.171744	0.000019
C30	C	2.003170	0.280070	0.000015
N31	N	1.916697	-0.040318	0.456287
N32	N	1.851319	0.024455	-0.456238
H33	H	1.383518	0.110568	0.000005
H34	H	2.006290	-0.346373	0.000043
C35	C	2.152248	-0.404416	0.000033
H36	H	2.263265	-0.398087	0.000029
H37	H	2.120374	-0.380289	0.102147
H38	H	2.105758	-0.365803	-0.102119
H39	H	1.384481	-0.126415	0.000010
H40	H	1.983457	-0.106431	0.531496
C41	C	1.761149	0.113771	0.442190
H42	H	1.722031	0.152544	0.523374
H43	H	1.676072	0.088698	0.370279
H44	H	1.829734	0.155189	0.370265
H45	H	1.490613	-0.624297	-0.000013
H46	H	2.253531	-0.751474	0.000046
C47	C	1.679173	-0.786705	-0.000010
H48	H	1.768440	-0.826415	0.000002
H49	H	1.610916	-0.794137	-0.102135
H50	H	1.625554	-0.808640	0.102130
C51	C	1.482583	-0.243394	-0.000014
H52	H	1.534080	-0.178723	-0.000031
H53	H	1.426313	-0.258037	0.102105
H54	H	1.411701	-0.243542	-0.102161
H55	H	2.340798	-0.566825	0.000065
H56	H	1.427204	-0.449051	-0.000028
