data_functionalizedCrystal
_audit_creation_method	'MofGen! by Chris Wilmer'
_symmetry_space_group_name_H-M	'P1'
_symmetry_Int_Tables_number	1
_symmetry_cell_setting	triclinic
loop_
_symmetry_equiv_pos_as_xyz
  x,y,z
_cell_length_a	16.974829
_cell_length_b	15.500215
_cell_length_c	16.974755
_cell_angle_alpha	96.838510
_cell_angle_beta	83.158103
_cell_angle_gamma	96.836845
loop_
_atom_site_label
_atom_site_type_symbol
_atom_site_fract_x
_atom_site_fract_y
_atom_site_fract_z
O1	O	1.056014	0.153430	0.107793
O2	O	1.389347	0.486763	0.441126
O3	O	1.722680	0.820096	0.774460
O4	O	0.825095	0.138114	0.119926
O5	O	1.158429	0.471447	0.453259
O6	O	1.491762	0.804781	0.786592
O7	O	0.946631	0.138104	-0.001602
O8	O	1.279965	0.471438	0.331732
O9	O	1.613298	0.804771	0.665065
O10	O	0.934477	0.153439	0.229320
O11	O	1.267811	0.486773	0.562654
O12	O	1.601144	0.820106	0.895987
O13	O	0.940029	-0.006709	-0.008197
O14	O	1.273362	0.326624	0.325136
O15	O	1.606695	0.659957	0.658469
O16	O	0.818492	-0.006700	0.113330
O17	O	1.151826	0.326634	0.446663
O18	O	1.485159	0.659967	0.779997
O19	O	1.049411	0.008616	0.101197
O20	O	1.382744	0.341949	0.434531
O21	O	1.716077	0.675283	0.767864
Cu22	Cu	0.933349	-0.012265	0.106661
Cu23	Cu	1.266682	0.321069	0.439995
Cu24	Cu	1.600015	0.654402	0.773328
Cu25	Cu	0.941157	0.158995	0.114462
Cu26	Cu	1.274491	0.492328	0.447795
Cu27	Cu	1.607824	0.825661	0.781128
O28	O	0.927874	0.008626	0.222725
O29	O	1.261208	0.341959	0.556058
O30	O	1.594541	0.675292	0.889391
C31	C	0.792240	0.063597	0.116043
C32	C	1.125573	0.396930	0.449376
C33	C	1.458907	0.730264	0.782709
C34	C	0.704179	0.057309	0.114290
C35	C	1.037512	0.390643	0.447623
C36	C	1.370846	0.723976	0.780956
N37	N	0.927862	-0.132719	0.101175
N38	N	1.261196	0.200615	0.434508
N39	N	1.594529	0.533948	0.767841
C40	C	0.208098	0.013444	0.104062
C41	C	0.541431	0.346778	0.437395
C42	C	0.874765	0.680111	0.770729
C43	C	0.290841	0.019354	0.105709
C44	C	0.624174	0.352687	0.439043
C45	C	0.957507	0.686021	0.772376
C46	C	0.335812	0.101248	0.110122
C47	C	0.669146	0.434581	0.443456
C48	C	1.002479	0.767915	0.776789
C49	C	0.298036	0.177238	0.112896
C50	C	0.631369	0.510571	0.446230
C51	C	0.964703	0.843904	0.779563
C52	C	0.215294	0.171327	0.111255
C53	C	0.548627	0.504661	0.444588
C54	C	0.881961	0.837994	0.777922
C55	C	0.583660	0.127389	0.115422
C56	C	0.916994	0.460722	0.448756
C57	C	1.250327	0.794055	0.782089
C58	C	0.666408	0.133293	0.117061
C59	C	0.999742	0.466626	0.450395
C60	C	1.333075	0.799960	0.783728
C61	C	0.659207	-0.024591	0.109875
C62	C	0.992540	0.308742	0.443209
C63	C	1.325874	0.642076	0.776542
C64	C	0.576464	-0.030494	0.108229
C65	C	0.909798	0.302839	0.441563
C66	C	1.243131	0.636173	0.774896
C67	C	0.538695	0.045496	0.111008
C68	C	0.872028	0.378829	0.444341
C69	C	1.205361	0.712162	0.777675
N70	N	0.420389	0.107290	0.111804
N71	N	0.753723	0.440624	0.445137
N72	N	1.087056	0.773957	0.778470
N73	N	0.454119	0.039453	0.109332
N74	N	0.787452	0.372786	0.442666
N75	N	1.120785	0.706119	0.775999
C76	C	0.973992	-0.171526	0.147343
C77	C	1.307326	0.161807	0.480677
C78	C	1.640659	0.495141	0.814010
C79	C	0.969854	-0.262680	0.143189
C80	C	1.303187	0.070653	0.476522
C81	C	1.636520	0.403986	0.809855
C82	C	0.919580	-0.315025	0.092869
C83	C	1.252913	0.018308	0.426203
C84	C	1.586247	0.351641	0.759536
C85	C	0.873448	-0.276212	0.046695
C86	C	1.206782	0.057121	0.380029
C87	C	1.540115	0.390455	0.713362
C88	C	0.877592	-0.185059	0.050846
C89	C	1.210925	0.148274	0.384179
C90	C	1.544258	0.481607	0.717513
C91	C	0.904662	-0.590586	0.077919
C92	C	1.237995	-0.257252	0.411252
C93	C	1.571328	0.076081	0.744586
C94	C	0.900520	-0.681744	0.073773
C95	C	1.233853	-0.348411	0.407107
C96	C	1.567187	-0.015077	0.740440
C97	C	0.996927	-0.668206	0.170266
C98	C	1.330260	-0.334873	0.503600
C99	C	1.663593	-0.001539	0.836933
C100	C	1.001062	-0.577052	0.174416
C101	C	1.334396	-0.243719	0.507750
C102	C	1.667729	0.089614	0.841083
C103	C	0.954934	-0.538247	0.128239
C104	C	1.288267	-0.204914	0.461573
C105	C	1.621600	0.128420	0.794906
C106	C	0.915346	-0.408200	0.088623
C107	C	1.248680	-0.074866	0.421957
C108	C	1.582013	0.258467	0.755290
C109	C	0.959172	-0.445074	0.132481
C110	C	1.292505	-0.111741	0.465815
C111	C	1.625839	0.221593	0.799148
C112	C	1.082266	0.083135	0.105080
C113	C	1.415599	0.416468	0.438414
C114	C	1.748933	0.749801	0.771747
C115	C	1.170327	0.089428	0.106834
C116	C	1.503661	0.422761	0.440167
C117	C	1.836994	0.756095	0.773500
C118	C	0.942748	0.063587	-0.034454
C119	C	1.276081	0.396920	0.298879
C120	C	1.609414	0.730254	0.632213
C121	C	0.941003	0.057298	-0.122517
C122	C	1.274337	0.390631	0.210817
C123	C	1.607670	0.723964	0.544150
N124	N	0.946650	0.279449	0.119942
N125	N	1.279983	0.612782	0.453275
N126	N	1.613317	0.946115	0.786609
C127	C	0.930727	0.013453	-0.618594
C128	C	1.264060	0.346787	-0.285260
C129	C	1.597393	0.680120	0.048073
C130	C	0.932373	0.019359	-0.535851
C131	C	1.265707	0.352692	-0.202517
C132	C	1.599040	0.686026	0.130816
C133	C	0.936802	0.101252	-0.490876
C134	C	1.270135	0.434586	-0.157542
C135	C	1.603469	0.767919	0.175791
C136	C	0.939576	0.177244	-0.528647
C137	C	1.272910	0.510578	-0.195314
C138	C	1.606243	0.843911	0.138020
C139	C	0.937924	0.171337	-0.611388
C140	C	1.271257	0.504671	-0.278055
C141	C	1.604591	0.838004	0.055279
C142	C	0.942125	0.127383	-0.243029
C143	C	1.275458	0.460716	0.090304
C144	C	1.608792	0.794050	0.423638
C145	C	0.943780	0.133284	-0.160283
C146	C	1.277113	0.466617	0.173051
C147	C	1.610446	0.799951	0.506384
C148	C	0.936575	-0.024602	-0.167492
C149	C	1.269908	0.308732	0.165841
C150	C	1.603242	0.642065	0.499175
C151	C	0.934928	-0.030501	-0.250235
C152	C	1.268261	0.302832	0.083098
C153	C	1.601594	0.636166	0.416432
C154	C	0.937698	0.045490	-0.287998
C155	C	1.271031	0.378824	0.045335
C156	C	1.604365	0.712157	0.378668
N157	N	0.938488	0.107291	-0.406299
N158	N	1.271821	0.440624	-0.072966
N159	N	1.605155	0.773958	0.260368
N160	N	0.936006	0.039451	-0.372573
N161	N	1.269340	0.372784	-0.039240
N162	N	1.602673	0.706117	0.294094
C163	C	0.931758	0.083145	0.255577
C164	C	1.265092	0.416478	0.588910
C165	C	1.598425	0.749812	0.922244
C166	C	0.933503	0.089440	0.343640
C167	C	1.266836	0.422773	0.676973
C168	C	1.600170	0.756106	1.010307
H169	H	0.171487	-0.053242	0.100472
H170	H	0.504820	0.280091	0.433805
H171	H	0.838154	0.613424	0.767139
H172	H	0.943178	0.243923	-0.492021
H173	H	1.276511	0.577257	-0.158688
H174	H	1.609845	0.910590	0.174646
H175	H	1.000107	-0.402451	0.173448
H176	H	1.333441	-0.069118	0.506782
H177	H	1.666774	0.264216	0.840115
H178	H	1.014926	-0.128912	0.188324
H179	H	1.348259	0.204421	0.521657
H180	H	1.681592	0.537754	0.854990
H181	H	0.321590	-0.042520	0.103450
H182	H	0.654923	0.290813	0.436784
H183	H	0.988256	0.624147	0.770117
H184	H	0.931325	-0.097187	-0.286849
H185	H	1.264659	0.236146	0.046484
H186	H	1.597992	0.569480	0.379818
H187	H	0.539856	-0.097182	0.104619
H188	H	0.873189	0.236151	0.437952
H189	H	1.206523	0.569485	0.771285
H190	H	0.940180	0.233213	-0.642135
H191	H	1.273514	0.566547	-0.308802
H192	H	1.606847	0.899880	0.024532
H193	H	0.184542	0.233202	0.113514
H194	H	0.517876	0.566535	0.446847
H195	H	0.851209	0.899868	0.780181
H196	H	0.689968	-0.086457	0.107615
H197	H	1.023301	0.246876	0.440948
H198	H	1.356635	0.580209	0.774282
H199	H	0.703022	0.199985	0.120661
H200	H	1.036355	0.533318	0.453995
H201	H	1.369688	0.866651	0.787328
H202	H	0.934319	-0.086470	-0.136736
H203	H	1.267652	0.246864	0.196598
H204	H	1.600985	0.580197	0.529931
H205	H	1.007419	-0.294272	0.180783
H206	H	1.340753	0.039061	0.514116
H207	H	1.674086	0.372394	0.847450
H208	H	0.927124	-0.053233	-0.655207
H209	H	1.260457	0.280101	-0.321874
H210	H	1.593790	0.613434	0.011459
H211	H	0.930124	-0.042516	-0.505107
H212	H	1.263457	0.290817	-0.171774
H213	H	1.596791	0.624150	0.161560
H214	H	0.552919	0.189265	0.117682
H215	H	0.886252	0.522598	0.451015
H216	H	1.219586	0.855932	0.784348
H217	H	0.947385	0.199975	-0.123666
H218	H	1.280719	0.533308	0.209668
H219	H	1.614052	0.866641	0.543001
H220	H	0.334658	0.243918	0.116495
H221	H	0.667991	0.577251	0.449828
H222	H	1.001325	0.910584	0.783161
H223	H	0.944387	0.189261	-0.273767
H224	H	1.277721	0.522595	0.059567
H225	H	1.611054	0.855928	0.392900
H226	H	0.874413	-0.450829	0.047653
H227	H	1.207746	-0.117496	0.380987
H228	H	1.541080	0.215838	0.714320
H229	H	1.042003	-0.534438	0.215389
H230	H	1.375336	-0.201105	0.548723
H231	H	1.708669	0.132228	0.882056
H232	H	1.034483	-0.699811	0.207860
H233	H	1.367816	-0.366478	0.541194
H234	H	1.701149	-0.033145	0.874527
H235	H	0.867101	-0.559002	0.040318
H236	H	1.200434	-0.225668	0.373651
H237	H	1.533767	0.107665	0.706984
H238	H	0.832518	-0.318839	0.005720
H239	H	1.165852	0.014495	0.339053
H240	H	1.499185	0.347828	0.672387
H241	H	0.859577	-0.724362	0.032797
H242	H	1.192910	-0.391029	0.366131
H243	H	1.526244	-0.057695	0.699464
H244	H	0.840027	-0.153464	0.013251
H245	H	1.173361	0.179869	0.346584
H246	H	1.506694	0.513202	0.679917
