data_functionalizedCrystal
_audit_creation_method	'MofGen! by Chris Wilmer'
_symmetry_space_group_name_H-M	'P1'
_symmetry_Int_Tables_number	1
_symmetry_cell_setting	triclinic
loop_
_symmetry_equiv_pos_as_xyz
  x,y,z
_cell_length_a	12.759401
_cell_length_b	12.645330
_cell_length_c	12.759393
_cell_angle_alpha	89.969952
_cell_angle_beta	89.981504
_cell_angle_gamma	90.017853
loop_
_atom_site_label
_atom_site_type_symbol
_atom_site_fract_x
_atom_site_fract_y
_atom_site_fract_z
Zn1	Zn	1.606234	-0.421972	-0.593992
Zn2	Zn	1.606119	-0.599276	-0.418317
Zn3	Zn	1.430536	-0.422028	-0.418332
Zn4	Zn	1.430515	-0.599195	-0.593959
O5	O	1.518351	-0.510618	-0.506150
O6	O	1.753239	-0.445503	-0.570697
O7	O	1.582788	-0.575821	-0.271298
O8	O	1.453899	-0.273673	-0.441654
O9	O	1.753155	-0.575767	-0.441629
O10	O	1.582983	-0.273632	-0.570711
O11	O	1.453788	-0.445598	-0.271309
O12	O	1.283512	-0.445518	-0.441621
O13	O	1.453864	-0.575628	-0.740984
O14	O	1.283497	-0.575682	-0.570653
O15	O	1.582964	-0.445424	-0.741009
O16	O	1.582768	-0.747613	-0.441596
O17	O	1.453753	-0.747553	-0.570639
C18	C	1.245383	-0.510598	-0.506136
C19	C	1.128607	-0.510615	-0.506155
C20	C	1.073764	-0.578500	-0.573231
C21	C	0.964040	-0.578514	-0.573242
C22	C	0.964011	-0.442755	-0.439092
C23	C	1.073733	-0.442737	-0.439087
C24	C	1.073781	-0.656883	-0.650678
C25	C	0.964056	-0.656896	-0.650689
C26	C	1.518274	-0.786048	-0.506135
C27	C	1.518337	-0.903878	-0.506164
C28	C	1.437509	-1.071448	-0.587595
C29	C	1.437095	-0.948888	-0.587334
C30	C	1.488364	-0.948482	-0.395443
C31	C	1.487871	-1.071080	-0.395937
C32	C	1.629634	-1.070964	-0.534556
C33	C	1.628952	-0.948357	-0.536977
C34	C	1.792384	-0.510638	-0.506165
C35	C	1.909161	-0.510647	-0.506171
C36	C	1.518424	-0.510511	-0.780183
C37	C	1.518456	-0.510465	-0.896960
C38	C	1.518456	-0.234112	-0.506188
C39	C	1.518501	-0.116282	-0.506204
C40	C	1.585687	-0.442661	-0.951837
C41	C	1.585712	-0.442623	-1.061561
C42	C	1.451271	-0.578202	-1.061522
C43	C	1.451242	-0.578234	-0.951800
C44	C	1.663309	-0.364389	-0.951860
C45	C	1.663334	-0.364351	-1.061584
C46	C	1.518338	-0.510648	-0.233183
C47	C	1.518510	-0.510395	-0.116407
H48	H	1.103590	-0.634988	-0.732084
H49	H	0.930060	-0.627590	-0.728040
H50	H	0.934257	-0.738980	-0.628759
H51	H	1.354706	-0.919656	-0.568550
N52	N	1.382545	-0.647485	-0.895761
N53	N	1.322540	-0.707983	-0.944740
H54	H	1.274017	-0.756894	-0.905163
H55	H	1.651556	-0.919199	-0.618463
H56	H	1.455848	-0.918727	-0.669433
H57	H	1.107791	-0.734832	-0.621395
N58	N	1.382611	-0.647429	-1.117526
N59	N	1.322582	-0.707958	-1.068512
H60	H	1.274085	-0.756849	-1.108061
N61	N	1.663950	-1.109655	-0.634110
N62	N	1.674559	-1.206843	-0.648442
H63	H	1.698786	-1.234171	-0.718754
N64	N	1.559999	-0.911890	-0.317278
N65	N	1.527266	-0.858483	-0.241644
H66	H	1.577858	-0.832635	-0.186441
N67	N	1.387515	-0.910100	-0.364740
N68	N	1.378038	-0.856320	-0.283119
H69	H	1.306811	-0.829214	-0.261437
N70	N	1.129768	-0.373385	-0.370591
N71	N	1.191017	-0.305871	-0.407677
H72	H	1.230593	-0.256887	-0.359301
N73	N	1.635985	-0.261402	-0.914536
N74	N	1.616750	-0.188817	-0.978219
H75	H	1.597444	-0.116086	-0.951860
N76	N	1.460879	-1.108266	-0.690938
N77	N	1.537494	-1.167987	-0.705812
H78	H	1.554022	-1.193970	-0.778805
H79	H	1.692473	-0.917711	-0.482013
N80	N	1.385968	-1.107105	-0.365804
N81	N	1.375236	-1.163825	-0.286258
H82	H	1.303265	-1.189266	-0.264976
N83	N	1.626763	-0.266490	-1.104239
N84	N	1.536334	-0.234699	-1.083600
H85	H	1.510483	-0.165584	-1.113702
H86	H	1.355635	-1.102351	-0.569052
H87	H	1.744703	-0.386340	-1.091363
N88	N	1.558640	-1.108283	-0.317245
N89	N	1.608232	-1.043700	-0.262131
H90	H	1.658201	-1.069969	-0.206543
N91	N	1.705322	-1.107333	-0.460180
N92	N	1.677680	-1.166371	-0.386583
H93	H	1.731126	-1.192061	-0.334049
N94	N	1.760245	-0.401314	-0.909170
N95	N	1.832863	-0.428937	-0.968955
H96	H	1.901324	-0.455019	-0.938805
H97	H	0.919319	-0.387489	-0.384489
