data_functionalizedCrystal
_audit_creation_method	'MofGen! by Chris Wilmer'
_symmetry_space_group_name_H-M	'P1'
_symmetry_Int_Tables_number	1
_symmetry_cell_setting	triclinic
loop_
_symmetry_equiv_pos_as_xyz
  x,y,z
_cell_length_a	14.519731
_cell_length_b	13.596369
_cell_length_c	16.109301
_cell_angle_alpha	89.998185
_cell_angle_beta	96.424833
_cell_angle_gamma	90.006024
loop_
_atom_site_label
_atom_site_type_symbol
_atom_site_fract_x
_atom_site_fract_y
_atom_site_fract_z
O1	O	1.223626	0.081797	-0.109064
O2	O	1.723626	0.581797	0.390936
O3	O	0.955124	0.081799	-0.121880
O4	O	1.455124	0.581799	0.378120
O5	O	1.096751	0.081788	0.005545
O6	O	1.596751	0.581788	0.505545
O7	O	1.081999	0.081808	-0.236490
O8	O	1.581999	0.581808	0.263510
O9	O	1.096733	-0.081795	0.005538
O10	O	1.596733	0.418205	0.505538
O11	O	0.955107	-0.081784	-0.121887
O12	O	1.455107	0.418216	0.378113
O13	O	1.223608	-0.081786	-0.109071
O14	O	1.723608	0.418214	0.390929
Zn15	Zn	1.089355	-0.107758	-0.115480
Zn16	Zn	1.589355	0.392242	0.384520
Zn17	Zn	1.089378	0.107770	-0.115471
Zn18	Zn	1.589378	0.607770	0.384529
O19	O	1.081981	-0.081775	-0.236497
O20	O	1.581981	0.418225	0.263503
C21	C	0.920757	0.000007	-0.121283
C22	C	1.420757	0.500007	0.378717
C23	C	0.818381	0.000008	-0.119484
C24	C	1.318381	0.500008	0.380516
C25	C	0.735240	0.000012	-0.118022
C26	C	1.235240	0.500012	0.381978
C27	C	0.630935	0.000012	-0.116195
C28	C	1.130935	0.500012	0.383805
C29	C	0.547799	0.000012	-0.114745
C30	C	1.047799	0.500012	0.385255
C31	C	0.443487	0.000014	-0.112918
C32	C	0.943487	0.500014	0.387082
N33	N	1.089346	-0.254849	-0.115486
N34	N	1.589346	0.245151	0.384514
C35	C	1.089350	-0.343847	-0.115488
C36	C	1.589350	0.156153	0.384512
C37	C	1.089359	-0.455499	-0.115482
C38	C	1.589359	0.044501	0.384518
C39	C	1.089371	-0.544489	-0.115473
C40	C	1.589371	-0.044489	0.384527
C41	C	1.089382	-0.656148	-0.115468
C42	C	1.589382	-0.156148	0.384532
C43	C	1.257975	0.000007	-0.109668
C44	C	1.757975	0.500007	0.390332
C45	C	1.360352	0.000013	-0.111468
C46	C	1.860352	0.500013	0.388532
C47	C	1.096145	-0.000004	0.036518
C48	C	1.596145	0.499996	0.536518
C49	C	1.094353	-0.000006	0.128816
C50	C	1.594353	0.499994	0.628816
N51	N	1.089394	0.254862	-0.115459
N52	N	1.589394	0.754862	0.384541
C53	C	1.082588	0.000019	-0.267469
C54	C	1.582588	0.500019	0.232531
C55	C	1.084379	0.000027	-0.359768
C56	C	1.584379	0.500027	0.140232
C57	C	1.174226	0.000009	0.350945
C58	C	1.674226	0.500009	0.850945
C59	C	1.172535	0.000017	0.437668
C60	C	1.672535	0.500017	0.937668
C61	C	1.004500	0.000015	0.418097
C62	C	1.504500	0.500015	0.918097
C63	C	1.006192	0.000014	0.331375
C64	C	1.506192	0.500014	0.831375
C65	C	1.091057	0.000006	0.297802
C66	C	1.591057	0.500006	0.797802
C67	C	1.087675	0.000015	0.471247
C68	C	1.587675	0.500015	0.971247
C69	C	1.085842	0.000024	0.565276
C70	C	1.585842	0.500024	1.065276
C71	C	1.092891	-0.000001	0.203766
C72	C	1.592891	0.499999	0.703766
H73	H	1.243329	0.000005	0.323613
H74	H	1.743329	0.500005	0.823613
H75	H	1.240260	0.000022	0.480935
H76	H	1.740260	0.500022	0.980935
H77	H	0.935405	0.000019	0.445443
H78	H	1.435405	0.500019	0.945443
H79	H	0.938461	0.000014	0.288103
H80	H	1.438461	0.500014	0.788103
