data_functionalizedCrystal
_audit_creation_method	'MofGen! by Chris Wilmer'
_symmetry_space_group_name_H-M	'P1'
_symmetry_Int_Tables_number	1
_symmetry_cell_setting	triclinic
loop_
_symmetry_equiv_pos_as_xyz
  x,y,z
_cell_length_a	6.817900
_cell_length_b	12.840946
_cell_length_c	11.020342
_cell_angle_alpha	97.548071
_cell_angle_beta	108.079417
_cell_angle_gamma	88.344365
loop_
_atom_site_label
_atom_site_type_symbol
_atom_site_fract_x
_atom_site_fract_y
_atom_site_fract_z
V1	V	-3.919421	0.283164	-0.178851
O2	O	-3.887670	0.320317	0.005494
O3	O	-3.892165	0.240311	-0.351649
O4	O	-3.814857	0.425329	-0.177460
O5	O	-3.965515	0.134018	-0.169901
V6	V	-4.407587	0.270296	-0.156640
O7	O	-4.170495	0.311392	-0.227571
O8	O	-4.606711	0.242067	-0.107919
O9	O	-4.211637	0.313149	0.016159
O10	O	-4.556735	0.233143	-0.340985
O11	O	-4.478891	0.419442	-0.165590
O12	O	-4.288946	0.128131	-0.158031
C13	C	-3.744127	0.225286	-0.393731
C14	C	-3.802755	0.191197	-0.535005
C15	C	-4.011131	0.178864	-0.607877
C16	C	-4.066246	0.146848	-0.740623
C17	C	-3.912983	0.127158	-0.800492
C18	C	-3.704589	0.139496	-0.727611
C19	C	-3.649477	0.171518	-0.594869
C20	C	-3.645523	0.461295	-0.171529
C21	C	-3.641376	0.579427	-0.171533
C22	C	-4.104654	-0.025975	-0.164010
C23	C	-4.121652	0.092159	-0.163982
V24	V	-3.902397	0.769323	-0.178887
O25	O	-3.937887	0.922631	-0.169953
O26	O	-3.807964	0.622469	-0.177481
O27	O	-3.873604	0.770099	-0.351686
O28	O	-3.871792	0.773979	0.005458
V29	V	-4.388620	0.811988	-0.156687
O30	O	-4.155406	0.742341	-0.227609
O31	O	-4.585016	0.861655	-0.107974
O32	O	-4.260239	0.947595	-0.158090
O33	O	-4.470320	0.664596	-0.165624
O34	O	-4.536415	0.813247	-0.341035
O35	O	-4.194599	0.799966	0.016116
C36	C	-4.023019	0.328169	0.058234
C37	C	-3.943627	0.362265	0.199506
C38	C	-3.725116	0.767741	-0.393759
C39	C	-3.782410	0.771516	-0.535033
C40	C	-4.007019	0.785359	0.058202
C41	C	-3.929000	0.780547	0.199478
C42	C	-3.719080	0.764329	0.259340
C43	C	-3.645781	0.759817	0.392087
C44	C	-3.992348	0.787739	0.405097
C45	C	-4.065640	0.792258	0.272354
C46	C	-3.317697	0.797375	0.577909
C47	C	-3.107771	0.781138	0.637772
C48	C	-2.998315	0.709763	0.576718
C49	C	-3.098785	0.654599	0.455798
C50	C	-3.308714	0.670827	0.395941
C51	C	-3.418156	0.742226	0.456997
C52	C	-4.393717	0.754690	0.086527
C53	C	-4.603651	0.770911	0.026666
C54	C	-4.713127	0.842281	0.087717
C55	C	-4.612678	0.897431	0.208638
C56	C	-4.402743	0.881210	0.268499
C57	C	-4.293272	0.809842	0.207440
C58	C	-4.080238	0.374601	0.272378
C59	C	-4.005664	0.406621	0.405122
C60	C	-3.794480	0.426314	0.464992
C61	C	-3.657860	0.413974	0.392111
C62	C	-3.732433	0.381946	0.259371
H63	H	-3.579816	0.123459	-0.776377
H64	H	-4.320961	0.926118	0.366963
H65	H	-4.252201	0.358572	0.223650
C66	C	-3.584136	0.368345	0.180238
C67	C	-3.593848	0.264239	0.121632
C68	C	-3.457232	0.251668	0.048748
H69	H	-3.621347	0.414164	0.115918
H70	H	-3.447644	0.384602	0.234884
H71	H	-3.730311	0.247993	0.066990
H72	H	-3.556618	0.218399	0.185922
H73	H	-3.320739	0.267925	0.103394
H74	H	-3.494455	0.297492	-0.015565
H75	H	-3.463789	0.181030	0.008985
H76	H	-4.701829	0.955536	0.258356
H77	H	-4.135953	0.194886	-0.559148
H78	H	-4.235939	0.136805	-0.799944
H79	H	-3.485909	0.430011	0.440878
H80	H	-3.733785	0.452391	0.573079
H81	H	-3.957887	0.101084	-0.908580
C82	C	-3.417408	0.610892	0.264631
C83	C	-3.276612	0.544920	0.223957
C84	C	-3.376653	0.489707	0.102987
H85	H	-3.527202	0.569856	0.270290
H86	H	-3.470956	0.659231	0.204494
H87	H	-3.223096	0.496587	0.284079
H88	H	-3.166814	0.585929	0.218269
H89	H	-3.430201	0.538046	0.042849
H90	H	-3.486444	0.448678	0.108658
H91	H	-3.281134	0.444947	0.075368
H92	H	-3.479795	0.181551	-0.535545
H93	H	-3.406802	0.855508	0.627625
H94	H	-3.607811	0.754800	0.200010
H95	H	-4.116936	0.416665	0.464444
H96	H	-3.009645	0.596472	0.406101
H97	H	-2.827383	0.696543	0.625467
H98	H	-3.025978	0.826059	0.736227
H99	H	-4.884198	0.855280	0.039114
H100	H	-4.103586	0.797272	0.464448
H101	H	-4.685419	0.726024	-0.071814
H102	H	-4.304580	0.696578	0.036801
