data_functionalizedCrystal
_audit_creation_method	'MofGen! by Chris Wilmer'
_symmetry_space_group_name_H-M	'P1'
_symmetry_Int_Tables_number	1
_symmetry_cell_setting	triclinic
loop_
_symmetry_equiv_pos_as_xyz
  x,y,z
_cell_length_a	16.992695
_cell_length_b	16.956995
_cell_length_c	16.053802
_cell_angle_alpha	87.607939
_cell_angle_beta	92.741074
_cell_angle_gamma	83.361347
loop_
_atom_site_label
_atom_site_type_symbol
_atom_site_fract_x
_atom_site_fract_y
_atom_site_fract_z
O1	O	0.028856	1.063243	-0.069487
O2	O	0.056270	0.832832	-0.069477
O3	O	-0.071520	0.947113	-0.069475
O4	O	0.156645	0.948961	-0.069489
O5	O	-0.064513	0.940821	0.069384
O6	O	0.063276	0.826540	0.069382
O7	O	0.035862	1.056950	0.069372
Zn8	Zn	0.050682	0.940746	0.091424
Zn9	Zn	0.041450	0.949036	-0.091529
O10	O	0.163652	0.942669	0.069370
C11	C	0.061177	0.800067	-0.000046
C12	C	0.065350	0.711812	-0.000042
C13	C	0.096567	0.214503	-0.000074
C14	C	0.092640	0.297428	-0.000074
C15	C	0.018927	0.343818	-0.000063
C16	C	-0.050863	0.307280	-0.000062
C17	C	-0.046935	0.224357	-0.000069
C18	C	-0.000513	0.592351	-0.000047
C19	C	-0.004435	0.675280	-0.000038
C20	C	0.139068	0.665422	-0.000051
C21	C	0.142989	0.582497	-0.000053
C22	C	0.073199	0.545966	-0.000056
N23	N	0.014912	0.428581	-0.000059
N24	N	0.077215	0.461206	-0.000066
C25	C	-0.097075	0.941591	-0.000046
C26	C	-0.183660	0.934500	-0.000046
C27	C	-0.238334	1.002915	-0.000048
C28	C	-0.319689	0.996248	-0.000056
C29	C	-0.346367	0.921166	-0.000055
C30	C	-0.291686	0.852746	-0.000055
C31	C	-0.210333	0.859413	-0.000054
C32	C	-0.588175	0.893530	-0.000065
C33	C	-0.669534	0.886868	-0.000064
C34	C	-0.697531	1.030371	-0.000066
C35	C	-0.616175	1.037032	-0.000060
C36	C	-0.561502	0.968612	-0.000064
N37	N	-0.429525	0.914349	-0.000060
N38	N	-0.478346	0.975430	-0.000065
C39	C	0.189207	0.948192	-0.000061
C40	C	0.275791	0.955283	-0.000067
C41	C	0.030955	1.089715	-0.000061
C42	C	0.026782	1.177970	-0.000071
N43	N	0.056981	0.935094	0.216284
N44	N	0.035144	0.954694	-0.216389
C45	C	0.002624	0.983741	0.259979
C46	C	0.007037	0.979795	0.347385
C47	C	0.065812	0.927206	0.391096
C48	C	0.120173	0.878554	0.347395
C49	C	0.115755	0.882496	0.259990
C50	C	0.085087	0.909984	0.652505
C51	C	0.089502	0.906047	0.739917
C52	C	-0.023635	1.007288	0.739901
C53	C	-0.028045	1.011229	0.652494
C54	C	0.026313	0.962574	0.608801
N55	N	0.070327	0.923173	0.480440
N56	N	0.021795	0.966603	0.519459
H57	H	0.149465	0.327169	-0.000084
C58	C	0.184828	0.820704	0.395472
C59	C	0.189729	0.816404	0.491615
C60	C	0.254388	0.758554	0.539689
C61	C	0.314145	0.705005	0.491621
C62	C	0.309247	0.709303	0.395473
C63	C	0.244588	0.767153	0.347399
H64	H	0.145491	0.856046	0.527202
H65	H	0.258014	0.755372	0.610864
H66	H	0.362010	0.662181	0.527208
H67	H	0.353485	0.669661	0.359885
H68	H	0.240962	0.770334	0.276224
C69	C	-0.062031	1.041591	0.211901
C70	C	-0.121826	1.095098	0.259970
C71	C	-0.186485	1.152947	0.211895
C72	C	-0.191349	1.157290	0.115753
C73	C	-0.131552	1.103782	0.067680
C74	C	-0.066893	1.045932	0.115754
H75	H	-0.118228	1.091884	0.331145
H76	H	-0.230751	1.192557	0.247483
H77	H	-0.239213	1.200114	0.080166
H78	H	-0.135151	1.106995	-0.003495
H79	H	-0.022628	1.006322	0.080166
C80	C	-0.528037	0.818273	-0.000061
C81	C	-0.464622	0.799858	0.072045
C82	C	-0.404477	0.724597	0.072051
C83	C	-0.407747	0.667751	-0.000049
C84	C	-0.471164	0.686165	-0.072161
C85	C	-0.531309	0.761425	-0.072166
H86	H	-0.462199	0.841940	0.125423
H87	H	-0.357532	0.710967	0.125433
H88	H	-0.363225	0.612039	-0.000045
H89	H	-0.473587	0.644083	-0.125538
H90	H	-0.578254	0.775056	-0.125548
H91	H	0.160018	0.842881	0.224415
H92	H	-0.216620	1.064055	-0.000043
C93	C	-0.092700	1.069073	0.604409
C94	C	-0.152499	1.122588	0.652464
C95	C	-0.217152	1.180434	0.604376
C96	C	-0.222005	1.184766	0.508234
C97	C	-0.162203	1.131250	0.460174
C98	C	-0.097550	1.073404	0.508262
H99	H	-0.148909	1.119382	0.723639
H100	H	-0.261421	1.220050	0.639954
H101	H	-0.269864	1.227587	0.472637
H102	H	-0.165793	1.134455	0.388999
H103	H	-0.053281	1.033788	0.472684
C104	C	-0.379828	1.071508	-0.000050
C105	C	-0.435973	1.083387	0.072054
C106	C	-0.496111	1.158651	0.072060
C107	C	-0.500104	1.222038	-0.000039
C108	C	-0.443956	1.210161	-0.072149
C109	C	-0.383818	1.134897	-0.072155
H110	H	-0.433020	1.036462	0.125431
H111	H	-0.537675	1.167443	0.125441
H112	H	-0.544621	1.277753	-0.000035
H113	H	-0.446910	1.257085	-0.125526
H114	H	-0.342254	1.126105	-0.125536
H115	H	0.156592	0.176737	-0.000077
C116	C	-0.131948	0.358307	-0.000052
C117	C	-0.136273	0.449520	-0.000041
C118	C	-0.217360	0.500545	-0.000029
C119	C	-0.294123	0.460358	-0.000028
C120	C	-0.289801	0.369140	-0.000040
C121	C	-0.208714	0.318115	-0.000052
H122	H	-0.079446	0.479273	-0.000041
H123	H	-0.220559	0.568070	-0.000020
H124	H	-0.354149	0.498129	-0.000020
H125	H	-0.346628	0.339387	-0.000039
H126	H	-0.205515	0.250590	-0.000060
H127	H	0.203014	0.544731	-0.000064
H128	H	-0.313414	0.791612	-0.000060
C129	C	-0.083432	1.060800	0.787963
C130	C	-0.172875	1.054347	0.775957
C131	C	-0.232677	1.107859	0.824019
C132	C	-0.203036	1.167826	0.884085
C133	C	-0.113587	1.174282	0.896094
C134	C	-0.053785	1.120770	0.848032
H135	H	-0.194822	1.009954	0.731490
H136	H	-0.298893	1.103080	0.815129
H137	H	-0.247305	1.207439	0.919663
H138	H	-0.091641	1.218675	0.940561
H139	H	0.012430	1.125549	0.856922
C140	C	0.154158	0.848191	0.787997
C141	C	0.213946	0.794673	0.739933
C142	C	0.278600	0.736821	0.788011
C143	C	0.283466	0.732488	0.884154
C144	C	0.223675	0.786008	0.932223
C145	C	0.159021	0.843860	0.884144
H146	H	0.210346	0.797879	0.668758
H147	H	0.322861	0.697202	0.752427
H148	H	0.331327	0.689663	0.919744
H149	H	0.227275	0.782802	1.003398
H150	H	0.114760	0.883479	0.919729
H151	H	-0.165817	0.803702	-0.000052
H152	H	0.195887	0.695174	-0.000050
H153	H	-0.594461	1.098172	-0.000060
H154	H	-0.064464	0.713050	-0.000033
H155	H	-0.691250	0.825723	-0.000050
H156	H	-0.057341	0.562618	-0.000047
H157	H	-0.103762	0.194614	-0.000067
H158	H	-0.742055	1.086074	-0.000064
H159	H	-0.037226	1.019407	0.382961
H160	H	0.129349	0.870368	0.616937
