data_functionalizedCrystal
_audit_creation_method	'MofGen! by Chris Wilmer'
_symmetry_space_group_name_H-M	'P1'
_symmetry_Int_Tables_number	1
_symmetry_cell_setting	triclinic
loop_
_symmetry_equiv_pos_as_xyz
  x,y,z
_cell_length_a	26.374263
_cell_length_b	26.373608
_cell_length_c	26.370205
_cell_angle_alpha	60.005297
_cell_angle_beta	60.010839
_cell_angle_gamma	59.993700
loop_
_atom_site_label
_atom_site_type_symbol
_atom_site_fract_x
_atom_site_fract_y
_atom_site_fract_z
O1	O	0.070152	-0.740800	0.619517
O2	O	0.570152	-0.240800	1.119517
O3	O	0.026377	-0.576764	0.499159
O4	O	0.526377	-0.076764	0.999159
O5	O	0.130245	-0.680560	0.499088
O6	O	0.630245	-0.180560	0.999088
O7	O	-0.033715	-0.637003	0.619589
O8	O	0.466285	-0.137003	1.119589
O9	O	0.164701	-0.646107	0.533470
O10	O	0.664701	-0.146107	1.033470
O11	O	0.060833	-0.542310	0.533541
O12	O	0.560833	-0.042310	1.033541
O13	O	0.104608	-0.706346	0.653899
O14	O	0.604608	-0.206346	1.153899
Cu15	Cu	0.085867	-0.621182	0.596859
Cu16	Cu	0.585867	-0.121182	1.096859
Cu17	Cu	0.045119	-0.661927	0.556199
Cu18	Cu	0.545119	-0.161927	1.056199
O19	O	0.000741	-0.602549	0.653971
O20	O	0.500741	-0.102549	1.153971
N21	N	0.114528	-0.592529	0.625461
N22	N	0.614528	-0.092529	1.125461
N23	N	0.016463	-0.690587	0.527598
N24	N	0.516463	-0.190587	1.027598
C25	C	0.181428	-0.355400	0.692330
C26	C	0.681428	0.144600	1.192330
C27	C	0.181530	-0.525690	0.862573
C28	C	0.681530	-0.025690	1.362573
C29	C	0.181440	-0.525667	0.692313
C30	C	0.681440	-0.025667	1.192313
C31	C	0.351736	-0.525673	0.692271
C32	C	0.851736	-0.025673	1.192271
C33	C	0.200174	-0.411588	0.711047
C34	C	0.700174	0.088412	1.211047
C35	C	0.200232	-0.506954	0.806384
C36	C	0.700232	-0.006954	1.306384
C37	C	0.295546	-0.506943	0.711016
C38	C	0.795546	-0.006943	1.211016
C39	C	0.200182	-0.506940	0.711037
C40	C	0.700182	-0.006940	1.211037
C41	C	0.157567	-0.283881	0.668507
C42	C	0.657567	0.216119	1.168507
C43	C	0.157587	-0.549500	0.668479
C44	C	0.657587	-0.049500	1.168479
C45	C	0.224035	-0.483107	0.734871
C46	C	0.724035	0.016893	1.234871
C47	C	0.455739	-0.507754	0.637520
C48	C	0.955739	-0.007754	1.137520
C49	C	0.520749	-0.529425	0.615835
C50	C	1.020749	-0.029425	1.115835
C51	C	0.520768	-0.634611	0.655947
C52	C	1.020768	-0.134611	1.155947
C53	C	0.455759	-0.612939	0.677633
C54	C	0.955759	-0.112939	1.177633
C55	C	0.173240	-0.251367	0.604595
C56	C	0.673240	0.248633	1.104595
C57	C	0.151546	-0.186351	0.582941
C58	C	0.651546	0.313649	1.082941
C59	C	0.098512	-0.186369	0.689113
C60	C	0.598512	0.313631	1.189113
C61	C	0.120206	-0.251385	0.710768
C62	C	0.620206	0.248615	1.210768
C63	C	0.093669	-0.533798	0.684205
C64	C	0.593669	-0.033798	1.184205
C65	C	0.071992	-0.555464	0.662532
C66	C	0.571992	-0.055464	1.162532
C67	C	0.178144	-0.608536	0.609422
C68	C	0.678144	-0.108536	1.109422
C69	C	0.199825	-0.586869	0.631088
C70	C	0.699825	-0.086869	1.131088
C71	C	0.093821	-0.533842	0.966616
C72	C	0.593821	-0.033842	1.466616
C73	C	0.072187	-0.555526	1.031630
C74	C	0.572187	-0.055526	1.531630
C75	C	0.178370	-0.608608	1.031591
C76	C	0.678370	-0.108608	1.531591
C77	C	0.200004	-0.586926	0.966576
C78	C	0.700004	-0.086926	1.466576
C79	C	0.157728	-0.549541	0.934090
C80	C	0.657728	-0.049541	1.434090
C81	C	0.423247	-0.549509	0.668416
C82	C	0.923247	-0.049509	1.168416
C83	C	-0.097522	-0.709158	0.508557
C84	C	0.402478	-0.209158	1.008557
C85	C	-0.002050	-0.709295	0.413344
C86	C	0.497950	-0.209295	0.913344
C87	C	-0.002241	-0.804604	0.508735
C88	C	0.497759	-0.304604	1.008735
C89	C	-0.002225	-0.709288	0.508793
C90	C	0.497775	-0.209288	1.008793
C91	C	-0.026009	-0.733087	0.484858
C92	C	0.473991	-0.233087	0.984858
N93	N	0.552340	-0.592538	0.625346
N94	N	1.052340	-0.092538	1.125346
O95	O	0.750867	-0.598274	0.477076
O96	O	1.250867	-0.098274	0.977076
O97	O	0.751048	-0.718989	0.640960
O98	O	1.251048	-0.218989	1.140960
O99	O	0.750981	-0.718715	0.537020
O100	O	1.250981	-0.218715	1.037020
O101	O	0.750934	-0.598547	0.581017
O102	O	1.250934	-0.098547	1.081017
O103	O	0.647701	-0.684348	0.571512
O104	O	1.147701	-0.184348	1.071512
O105	O	0.647768	-0.684622	0.675452
O106	O	1.147768	-0.184622	1.175452
O107	O	0.647587	-0.563907	0.511569
O108	O	1.147587	-0.063907	1.011569
Cu109	Cu	0.638247	-0.621127	0.596660
Cu110	Cu	1.138247	-0.121127	1.096660
Cu111	Cu	0.760388	-0.661769	0.555869
Cu112	Cu	1.260388	-0.161769	1.055869
O113	O	0.647654	-0.564181	0.615509
O114	O	1.147654	-0.064181	1.115509
N115	N	0.846295	-0.690358	0.527176
N116	N	1.346295	-0.190358	1.027176
N117	N	0.114503	-0.154778	0.625499
N118	N	0.614503	0.345222	1.125499
O119	O	-0.033701	0.043855	0.619632
O120	O	0.466299	0.543855	1.119632
O121	O	0.130190	0.043858	0.498933
O122	O	0.630190	0.543858	0.998933
O123	O	0.026233	0.043841	0.499224
O124	O	0.526233	0.543841	0.999224
O125	O	0.070257	0.043872	0.619341
O126	O	0.570257	0.543872	1.119341
O127	O	0.060690	-0.059448	0.533654
O128	O	0.560690	0.440552	1.033654
O129	O	0.164647	-0.059431	0.533363
O130	O	0.664647	0.440569	1.033363
O131	O	0.000756	-0.059434	0.654062
O132	O	0.500756	0.440566	1.154062
Cu133	Cu	0.085848	-0.068863	0.596857
Cu134	Cu	0.585848	0.431137	1.096857
Cu135	Cu	0.045099	0.053287	0.556138
Cu136	Cu	0.545099	0.553287	1.056138
O137	O	0.104714	-0.059417	0.653771
O138	O	0.604714	0.440583	1.153771
N139	N	0.016435	0.139202	0.527497
N140	N	0.516435	0.639202	1.027497
N141	N	0.114760	-0.592585	1.063190
N142	N	0.614760	-0.092585	1.563190
O143	O	0.108896	-0.740779	1.261808
O144	O	0.608896	-0.240779	1.761808
O145	O	-0.011787	-0.576838	1.261822
O146	O	0.488213	-0.076838	1.761822
O147	O	-0.011509	-0.680779	1.261780
O148	O	0.488491	-0.180779	1.761780
O149	O	0.108618	-0.636838	1.261850
O150	O	0.608618	-0.136838	1.761850
O151	O	0.022916	-0.646341	1.158496
O152	O	0.522916	-0.146341	1.658496
O153	O	0.022638	-0.542399	1.158538
O154	O	0.522638	-0.042399	1.658538
O155	O	0.143321	-0.706341	1.158524
O156	O	0.643321	-0.206341	1.658524
Cu157	Cu	0.086123	-0.621225	1.149100
Cu158	Cu	0.586123	-0.121225	1.649100
Cu159	Cu	0.045411	-0.661953	1.271246
Cu160	Cu	0.545411	-0.161953	1.771246
O161	O	0.143044	-0.602399	1.158566
O162	O	0.643044	-0.102399	1.658566
N163	N	0.016774	-0.690600	1.357156
N164	N	0.516774	-0.190600	1.857156
C165	C	0.039504	-0.538867	0.499769
C166	C	0.539504	-0.038867	0.999769
C167	C	0.168130	-0.667407	0.499680
C168	C	0.668130	-0.167407	0.999680
C169	C	0.091482	-0.744243	0.653289
C170	C	0.591482	-0.244243	1.153289
C171	C	-0.037145	-0.615703	0.653378
C172	C	0.462855	-0.115703	1.153378
C173	C	0.699429	-0.718429	0.678853
C174	C	1.199429	-0.218429	1.178853
C175	C	0.699348	-0.718091	0.550135
C176	C	1.199348	-0.218091	1.050135
C177	C	0.699202	-0.564465	0.473677
C178	C	1.199202	-0.064465	0.973677
C179	C	0.699287	-0.564805	0.602393
C180	C	1.199287	-0.064805	1.102393
C181	C	0.168023	-0.007659	0.499484
C182	C	0.668023	0.492341	0.999484
C183	C	0.039327	-0.007807	0.499887
C184	C	0.539327	0.492193	0.999887
C185	C	-0.037119	-0.007789	0.653468
C186	C	0.462881	0.492211	1.153468
C187	C	0.091620	-0.007770	0.653109
C188	C	0.591620	0.492230	1.153109
C189	C	-0.011194	-0.538964	1.210181
C190	C	0.488806	-0.038964	1.710181
C191	C	-0.010843	-0.667676	1.210109
C192	C	0.489157	-0.167676	1.710109
C193	C	0.142729	-0.744214	1.210165
C194	C	0.642729	-0.244214	1.710165
C195	C	0.142386	-0.615494	1.210214
C196	C	0.642386	-0.115494	1.710214
H197	H	0.020147	-0.542732	1.058106
H198	H	0.520147	-0.042732	1.558106
H199	H	0.180125	-0.606093	1.210228
H200	H	0.680125	-0.106093	1.710228
C201	C	0.270097	-0.740526	0.470804
C202	C	0.770097	-0.240526	0.970804
C203	C	0.231702	-0.679937	0.448592
C204	C	0.731702	-0.179937	0.948592
H205	H	0.309345	-0.748259	0.439265
H206	H	0.809345	-0.248259	0.939265
H207	H	0.251483	-0.769217	0.482111
H208	H	0.751483	-0.269217	0.982111
H209	H	0.275512	-0.745189	0.506093
H210	H	0.775512	-0.245189	1.006093
H211	H	0.226283	-0.675275	0.413305
H212	H	0.726283	-0.175275	0.913305
H213	H	0.250321	-0.651237	0.437276
H214	H	0.750321	-0.151237	0.937276
C215	C	0.171773	-0.846222	1.210134
C216	C	0.671773	-0.346222	1.710134
C217	C	0.193881	-0.807774	1.210160
C218	C	0.693881	-0.307774	1.710160
H219	H	0.203352	-0.885462	1.210134
H220	H	0.703352	-0.385462	1.710134
H221	H	0.160495	-0.827635	1.174112
H222	H	0.660495	-0.327635	1.674112
H223	H	0.136483	-0.851653	1.246147
H224	H	0.636483	-0.351653	1.746147
H225	H	0.229169	-0.802340	1.174144
H226	H	0.729169	-0.302340	1.674144
H227	H	0.205168	-0.826366	1.246186
H228	H	0.705168	-0.326366	1.746186
C229	C	0.699438	-0.822339	0.590328
C230	C	1.199438	-0.322339	1.090328
C231	C	0.699371	-0.769056	0.537430
C232	C	1.199371	-0.269056	1.037430
H233	H	0.699456	-0.853803	0.582482
H234	H	1.199456	-0.353803	1.082482
H235	H	0.663440	-0.812694	0.624212
H236	H	1.163440	-0.312694	1.124212
H237	H	0.735472	-0.836661	0.600158
H238	H	1.235472	-0.336661	1.100158
H239	H	0.663334	-0.754731	0.527603
H240	H	1.163334	-0.254731	1.027603
H241	H	0.735373	-0.778701	0.503535
H242	H	1.235373	-0.278701	1.003535
H243	H	0.029900	-0.007810	0.462151
H244	H	0.529900	0.492190	0.962151
C245	C	-0.114363	-0.483423	1.263264
C246	C	0.385637	0.016577	1.763264
C247	C	-0.062347	-0.475404	1.210182
C248	C	0.437653	0.024596	1.710182
H249	H	-0.145943	-0.444183	1.263261
H250	H	0.354057	0.055817	1.763261
H251	H	-0.103080	-0.502002	1.299282
H252	H	0.396920	-0.002002	1.799282
H253	H	-0.129348	-0.509516	1.263242
H254	H	0.370652	-0.009516	1.763242
H255	H	-0.047360	-0.449315	1.210207
H256	H	0.452640	0.050685	1.710207
H257	H	-0.073631	-0.456816	1.174155
H258	H	0.426369	0.043184	1.674155
H259	H	0.699142	-0.526565	0.426612
H260	H	1.199142	-0.026565	0.926612
C261	C	-0.039390	-0.740946	1.209984
C262	C	0.460610	-0.240946	1.709984
C263	C	-0.061770	-0.680338	1.210019
C264	C	0.438230	-0.180338	1.710019
H265	H	-0.070830	-0.748759	1.209925
H266	H	0.429170	-0.248759	1.709925
H267	H	-0.028114	-0.769603	1.246017
H268	H	0.471886	-0.269603	1.746017
H269	H	-0.004054	-0.745573	1.173981
H270	H	0.495946	-0.245573	1.673981
H271	H	-0.097104	-0.675711	1.246024
H272	H	0.402896	-0.175711	1.746024
H273	H	-0.073055	-0.651672	1.173983
H274	H	0.426945	-0.151672	1.673983
H275	H	0.100832	-0.791364	0.691090
H276	H	0.600832	-0.291364	1.191090
C277	C	0.752606	-0.783960	0.753522
C278	C	1.252606	-0.283960	1.253522
C279	C	0.699498	-0.769593	0.742390
C280	C	1.199498	-0.269593	1.242390
H281	H	0.752649	-0.815549	0.792746
H282	H	1.252649	-0.315549	1.292746
H283	H	0.752578	-0.747905	0.753468
H284	H	1.252578	-0.247905	1.253468
H285	H	0.788607	-0.798179	0.721906
H286	H	1.288607	-0.298179	1.221906
H287	H	0.663496	-0.755370	0.774004
H288	H	1.163496	-0.255370	1.274004
H289	H	0.699520	-0.805656	0.742450
H290	H	1.199520	-0.305656	1.242450
H291	H	-0.084187	-0.007791	0.691362
H292	H	0.415813	0.492209	1.191362
C293	C	0.079834	-0.475021	0.395508
C294	C	0.579834	0.024979	0.895508
C295	C	0.026888	-0.475258	0.448734
C296	C	0.526888	0.024742	0.948734
H297	H	0.072046	-0.435750	0.364004
H298	H	0.572046	0.064250	0.864004
H299	H	0.089664	-0.506583	0.381220
H300	H	0.589664	-0.006583	0.881220
H301	H	0.113698	-0.482559	0.405203
H302	H	0.613698	0.017441	0.905203
H303	H	-0.006974	-0.467724	0.439041
H304	H	0.493026	0.032276	0.939041
H305	H	0.017051	-0.443687	0.463024
H306	H	0.517051	0.056313	0.963024
C307	C	-0.013314	-0.483547	0.973192
C308	C	0.486686	0.016453	1.473192
C309	C	0.047347	-0.492746	0.930911
C310	C	0.547347	0.007254	1.430911
H311	H	-0.042003	-0.458181	0.951147
H312	H	0.457997	0.041819	1.451147
H313	H	-0.019543	-0.463702	0.998550
H314	H	0.480457	0.036298	1.498550
H315	H	-0.019538	-0.522520	0.998547
H316	H	0.480462	-0.022520	1.498547
H317	H	0.053573	-0.453773	0.905560
H318	H	0.553573	0.046227	1.405560
H319	H	0.053579	-0.512590	0.905543
H320	H	0.553579	-0.012590	1.405543
H321	H	0.212798	-0.639038	1.058038
H322	H	0.712798	-0.139038	1.558038
C323	C	0.302790	-0.641566	0.973070
C324	C	0.802790	-0.141566	1.473070
C325	C	0.270255	-0.604181	0.930825
C326	C	0.770255	-0.104181	1.430825
H327	H	0.346159	-0.652214	0.950999
H328	H	0.846159	-0.152214	1.450999
H329	H	0.292149	-0.678326	0.998422
H330	H	0.792149	-0.178326	1.498422
H331	H	0.292132	-0.619507	0.998434
H332	H	0.792132	-0.119507	1.498434
H333	H	0.280909	-0.626242	0.905464
H334	H	0.780909	-0.126242	1.405464
H335	H	0.280901	-0.567415	0.905462
H336	H	0.780901	-0.067415	1.405462
C337	C	-0.139110	-0.542582	0.682256
C338	C	0.360890	-0.042582	1.182256
C339	C	-0.100715	-0.603173	0.704467
C340	C	0.399285	-0.103173	1.204467
H341	H	-0.178354	-0.534846	0.713799
H342	H	0.321646	-0.034846	1.213799
H343	H	-0.144531	-0.537918	0.646974
H344	H	0.355469	-0.037918	1.146974
H345	H	-0.120488	-0.513890	0.670943
H346	H	0.379512	-0.013890	1.170943
H347	H	-0.119336	-0.631865	0.715776
H348	H	0.380664	-0.131865	1.215776
H349	H	-0.095296	-0.607842	0.739760
H350	H	0.404704	-0.107842	1.239760
H351	H	0.699278	-0.527058	0.611808
H352	H	1.199278	-0.027058	1.111808
C353	C	0.278226	-0.060243	0.468958
C354	C	0.778226	0.439757	0.968958
C355	C	0.231433	-0.007270	0.448202
C356	C	0.731433	0.492730	0.948202
H357	H	0.317373	-0.060001	0.437301
H358	H	0.817373	0.439999	0.937301
H359	H	0.270852	-0.096337	0.478613
H360	H	0.770852	0.403663	0.978613
H361	H	0.278191	-0.060310	0.505033
H362	H	0.778191	0.439690	1.005033
H363	H	0.231465	-0.007206	0.412131
H364	H	0.731465	0.492794	0.912131
H365	H	0.238809	0.028833	0.438539
H366	H	0.738809	0.528833	0.938539
C367	C	-0.013439	-0.483503	0.734514
C368	C	0.486561	0.016497	1.234514
C369	C	0.047241	-0.492716	0.725298
C370	C	0.547241	0.007284	1.225298
H371	H	-0.042102	-0.458137	0.759881
H372	H	0.457898	0.041863	1.259881
H373	H	-0.019673	-0.522467	0.754362
H374	H	0.480327	-0.022467	1.254362
H375	H	-0.019697	-0.463648	0.695548
H376	H	0.480303	0.036352	1.195548
H377	H	0.053501	-0.512575	0.764264
H378	H	0.553501	-0.012575	1.264264
H379	H	0.053477	-0.453745	0.705452
H380	H	0.553477	0.046255	1.205452
C381	C	0.164955	-0.007776	0.681680
C382	C	0.664955	0.492224	1.181680
C383	C	0.104343	-0.007774	0.704058
C384	C	0.604343	0.492226	1.204058
H385	H	0.172810	-0.007786	0.713138
H386	H	0.672810	0.492214	1.213138
H387	H	0.169566	0.028244	0.646372
H388	H	0.669566	0.528244	1.146372
H389	H	0.193595	-0.043795	0.670365
H390	H	0.693595	0.456205	1.170365
H391	H	0.075702	0.028247	0.715369
H392	H	0.575702	0.528247	1.215369
H393	H	0.099725	-0.043798	0.739378
H394	H	0.599725	0.456202	1.239378
H395	H	0.212545	-0.638970	0.578981
H396	H	0.712545	-0.138970	1.078981
C397	C	0.302579	-0.641491	0.576397
C398	C	0.802579	-0.141491	1.076397
C399	C	0.270085	-0.604119	0.613796
C400	C	0.770085	-0.104119	1.113796
H401	H	0.345954	-0.652140	0.565723
H402	H	0.845954	-0.152140	1.065723
H403	H	0.291889	-0.619427	0.539655
H404	H	0.791889	-0.119427	1.039655
H405	H	0.291938	-0.678256	0.598457
H406	H	0.791938	-0.178256	1.098457
H407	H	0.280723	-0.567350	0.591734
H408	H	0.780723	-0.067350	1.091734
H409	H	0.280780	-0.626183	0.650545
H410	H	0.780780	-0.126183	1.150545
C411	C	0.462318	-0.719089	0.715095
C412	C	0.962318	-0.219089	1.215095
C413	C	0.420046	-0.658841	0.711594
C414	C	0.920046	-0.158841	1.211594
H415	H	0.440269	-0.747427	0.736058
H416	H	0.940269	-0.247427	1.236058
H417	H	0.487688	-0.729963	0.737239
H418	H	0.987688	-0.229963	1.237239
H419	H	0.487660	-0.720737	0.674360
H420	H	0.987660	-0.220737	1.174360
H421	H	0.394707	-0.657192	0.752329
H422	H	0.894707	-0.157192	1.252329
H423	H	0.394666	-0.647964	0.689450
H424	H	0.894666	-0.147964	1.189450
C425	C	-0.014006	-0.505676	0.625636
C426	C	0.485994	-0.005676	1.125636
C427	C	0.001731	-0.538205	0.679816
C428	C	0.501731	-0.038205	1.179816
H429	H	-0.057382	-0.495018	0.636309
H430	H	0.442618	0.004982	1.136309
H431	H	0.008041	-0.531030	0.600270
H432	H	0.508041	-0.031030	1.100270
H433	H	-0.003358	-0.468915	0.603592
H434	H	0.496642	0.031085	1.103592
H435	H	-0.008913	-0.574969	0.701858
H436	H	0.491087	-0.074969	1.201858
H437	H	-0.020324	-0.512851	0.705192
H438	H	0.479676	-0.012851	1.205192
H439	H	0.547237	-0.686258	0.663446
H440	H	1.047237	-0.186258	1.163446
H441	H	0.547206	-0.495421	0.590679
H442	H	1.047206	0.004579	1.090679
H443	H	0.429268	-0.456103	0.630015
H444	H	0.929268	0.043897	1.130015
H445	H	0.164306	-0.159876	0.530897
H446	H	0.664306	0.340124	1.030897
C447	C	0.223471	-0.244814	0.497468
C448	C	0.723471	0.255186	0.997468
C449	C	0.214304	-0.287085	0.558140
C450	C	0.714304	0.212915	1.058140
H451	H	0.248819	-0.266868	0.468791
H452	H	0.748819	0.233132	0.968791
H453	H	0.243318	-0.219456	0.491218
H454	H	0.743318	0.280544	0.991218
H455	H	0.184490	-0.219456	0.491244
H456	H	0.684490	0.280544	0.991244
H457	H	0.253284	-0.312440	0.564365
H458	H	0.753284	0.187560	1.064365
H459	H	0.194457	-0.312454	0.564392
H460	H	0.694457	0.187546	1.064392
H461	H	0.107441	-0.277854	0.762810
H462	H	0.607441	0.222146	1.262810
C463	C	0.048280	-0.192917	0.796239
C464	C	0.548280	0.307083	1.296239
C465	C	0.057448	-0.150646	0.735566
C466	C	0.557448	0.349354	1.235566
H467	H	0.022925	-0.170863	0.824916
H468	H	0.522925	0.329137	1.324916
H469	H	0.087254	-0.218270	0.802464
H470	H	0.587254	0.281730	1.302464
H471	H	0.028433	-0.218280	0.802485
H472	H	0.528433	0.281720	1.302485
H473	H	0.077299	-0.125286	0.729318
H474	H	0.577299	0.374714	1.229318
H475	H	0.018466	-0.125282	0.729338
H476	H	0.518466	0.374718	1.229338
