data_functionalizedCrystal
_audit_creation_method	'MofGen! by Chris Wilmer'
_symmetry_space_group_name_H-M	'P1'
_symmetry_Int_Tables_number	1
_symmetry_cell_setting	triclinic
loop_
_symmetry_equiv_pos_as_xyz
  x,y,z
_cell_length_a	19.121215
_cell_length_b	19.121063
_cell_length_c	19.121242
_cell_angle_alpha	94.950219
_cell_angle_beta	85.000193
_cell_angle_gamma	95.002544
loop_
_atom_site_label
_atom_site_type_symbol
_atom_site_fract_x
_atom_site_fract_y
_atom_site_fract_z
Zn1	Zn	1.082278	-0.252928	-0.454183
Zn2	Zn	1.072553	-0.365976	-0.341135
Zn3	Zn	0.959604	-0.252939	-0.331502
Zn4	Zn	0.959551	-0.375563	-0.454119
O5	O	1.018497	-0.311851	-0.395235
O6	O	1.179620	-0.263907	-0.443246
O7	O	1.053523	-0.346974	-0.241230
O8	O	0.979969	-0.154308	-0.343772
O9	O	1.172475	-0.346962	-0.360190
O10	O	1.070097	-0.154300	-0.433905
O11	O	0.970540	-0.263926	-0.234153
O12	O	0.860966	-0.273223	-0.343709
O13	O	0.979878	-0.363303	-0.552754
O14	O	0.860926	-0.363314	-0.433795
O15	O	1.070046	-0.273203	-0.552802
O16	O	1.053471	-0.465877	-0.360127
O17	O	0.970448	-0.472921	-0.443135
C18	C	0.835372	-0.319311	-0.387700
C19	C	0.757030	-0.322519	-0.384494
C20	C	0.313760	-0.342833	-0.364211
C21	C	0.387370	-0.339814	-0.367218
C22	C	0.427897	-0.295139	-0.412041
C23	C	0.394810	-0.253474	-0.453855
C24	C	0.321201	-0.256490	-0.450844
C25	C	0.650335	-0.283870	-0.423296
C26	C	0.723948	-0.280859	-0.426306
C27	C	0.716503	-0.367199	-0.339668
C28	C	0.642893	-0.370214	-0.336664
C29	C	0.609813	-0.328546	-0.378475
C30	C	0.503139	-0.292053	-0.415117
C31	C	0.534572	-0.331628	-0.375394
C32	C	1.010918	-0.494972	-0.402685
C33	C	1.007742	-0.573311	-0.405899
C34	C	1.049512	-0.606424	-0.364229
C35	C	1.046528	-0.680031	-0.367256
C36	C	1.001771	-0.720524	-0.411949
C37	C	0.960000	-0.687406	-0.453623
C38	C	0.962988	-0.613800	-0.450600
C39	C	0.990591	-0.942951	-0.423242
C40	C	0.987605	-1.016562	-0.426260
C41	C	1.074135	-1.009182	-0.339894
C42	C	1.077115	-0.935575	-0.336871
C43	C	1.035346	-0.902463	-0.378548
C44	C	0.998719	-0.795763	-0.415042
C45	C	1.038402	-0.827226	-0.375458
C46	C	1.202336	-0.304364	-0.402800
C47	C	1.280678	-0.301173	-0.406023
C48	C	1.026041	-0.319321	-0.579066
C49	C	1.029255	-0.322505	-0.657403
C50	C	1.026124	-0.128015	-0.387771
C51	C	1.029375	-0.049675	-0.384591
C52	C	1.049643	-0.342711	-1.100654
C53	C	1.046612	-0.339716	-1.027046
C54	C	1.001896	-0.294977	-0.986566
C55	C	0.960203	-0.253235	-1.019696
C56	C	0.963230	-0.256234	-1.093302
C57	C	0.990590	-0.283762	-0.764139
C58	C	0.987567	-0.280764	-0.690529
C59	C	1.073976	-0.367247	-0.697884
C60	C	1.077002	-0.370239	-0.771491
C61	C	1.035307	-0.328500	-0.804615
C62	C	0.998799	-0.291913	-0.911327
C63	C	1.038401	-0.331568	-0.879852
C64	C	1.011025	-0.304358	-0.212119
C65	C	1.007954	-0.300971	-0.133779
H66	H	0.623410	-0.249945	-0.457345
H67	H	1.113414	-0.406671	-0.804446
H68	H	0.929284	-0.222244	-1.120271
H69	H	0.928975	-0.586841	-0.484533
C70	C	1.092509	-0.385598	-0.990612
N71	N	1.127093	-0.420146	-0.963170
H72	H	0.609900	-0.406592	-0.300163
H73	H	1.074807	-0.367996	-0.912814
H74	H	1.080541	-0.706988	-0.333324
C75	C	0.269187	-0.391979	-0.314901
N76	N	0.235616	-0.428995	-0.277757
H77	H	0.956580	-0.915998	-0.457175
C78	C	0.439393	-0.204328	-0.503158
N79	N	0.472972	-0.167311	-0.540296
C80	C	0.284812	-0.210662	-0.496842
N81	N	0.257405	-0.176142	-0.531488
H82	H	0.743445	-0.401121	-0.305628
C83	C	0.423756	-0.385644	-0.321222
N84	N	0.451162	-0.420164	-0.286574
C85	C	0.944734	-0.237836	-0.800566
N86	N	0.910196	-0.203239	-0.828005
C87	C	0.547726	-0.242913	-0.464423
N88	N	0.581311	-0.205899	-0.501559
H89	H	1.086059	-0.379139	-1.133608
C90	C	0.949480	-0.840312	-0.464195
N91	N	0.912391	-0.873870	-0.501216
H92	H	0.501572	-0.368001	-0.338898
H93	H	1.085954	-0.573458	-0.327832
C94	C	1.120079	-1.045610	-0.294054
N95	N	1.154688	-1.073049	-0.259528
H96	H	1.113559	-0.902606	-0.300478
H97	H	0.951167	-1.049531	-0.462668
C98	C	0.910764	-0.731952	-0.502784
N99	N	0.873676	-0.765502	-0.539810
C100	C	1.087632	-0.782681	-0.326296
N101	N	1.124709	-0.749124	-0.289263
H102	H	1.107921	-0.401229	-0.670906
H103	H	0.951155	-0.244327	-0.657571
C104	C	0.911021	-0.204015	-0.975165
N105	N	0.873980	-0.166937	-0.941624
H106	H	0.756944	-0.244474	-0.462805
H107	H	0.962391	-0.255485	-0.878360
