data_functionalizedCrystal
_audit_creation_method	'MofGen! by Chris Wilmer'
_symmetry_space_group_name_H-M	'P1'
_symmetry_Int_Tables_number	1
_symmetry_cell_setting	triclinic
loop_
_symmetry_equiv_pos_as_xyz
  x,y,z
_cell_length_a	9.130313
_cell_length_b	10.654550
_cell_length_c	10.654550
_cell_angle_alpha	84.484931
_cell_angle_beta	89.998874
_cell_angle_gamma	90.002987
loop_
_atom_site_label
_atom_site_type_symbol
_atom_site_fract_x
_atom_site_fract_y
_atom_site_fract_z
O1	O	0.121690	-1.667834	-0.176393
O2	O	0.121716	-1.302356	-0.193199
O3	O	0.121693	-1.493498	-0.002057
O4	O	0.121713	-1.476692	-0.367536
O5	O	-0.121906	-1.493495	-0.002062
O6	O	-0.121882	-1.302353	-0.193205
O7	O	-0.121909	-1.667832	-0.176399
Cu8	Cu	-0.144138	-1.485092	-0.184802
Cu9	Cu	0.143946	-1.485095	-0.184796
O10	O	-0.121886	-1.476689	-0.367541
C11	C	-0.000080	-1.255556	-0.191968
C12	C	-0.000070	-1.116113	-0.188276
N13	N	-0.346761	-1.485099	-0.184806
C14	C	-0.000105	-1.492263	0.044738
C15	C	-0.000103	-1.488571	0.184181
C16	C	-0.423423	-1.569759	-0.100197
C17	C	-0.576760	-1.569756	-0.100182
C18	C	-0.576759	-1.400429	-0.269395
C19	C	-0.423425	-1.400427	-0.269403
C20	C	-0.346759	-1.654431	-0.015599
C21	C	-0.423422	-1.739099	0.069016
C22	C	-0.576759	-1.739095	0.069031
C23	C	-0.653433	-1.654424	-0.015569
N24	N	0.346568	-1.485098	-0.184783
C25	C	-0.000110	-1.714631	-0.177630
C26	C	-0.000110	-1.854074	-0.181322
C27	C	-0.000068	-1.036628	-0.300818
C28	C	-0.000093	-0.905607	-0.297341
C29	C	-0.000117	-0.933570	-0.068772
C30	C	-0.000101	-1.064588	-0.072250
C31	C	-0.000084	-1.477925	-0.414336
C32	C	-0.000077	-1.481617	-0.553779
C33	C	-0.000111	-1.601112	0.263667
C34	C	-0.000092	-1.597636	0.394688
C35	C	-0.000065	-1.369066	0.366725
C36	C	-0.000073	-1.372544	0.235706
H37	H	-0.221905	-1.654444	-0.015606
C38	C	-0.000097	-1.152028	0.051552
H39	H	-0.000096	-1.102579	0.121151
H40	H	-0.085038	-1.203732	0.054942
H41	H	0.084869	-1.203706	0.054944
H42	H	-0.000096	-1.689279	0.459401
C43	C	-0.000052	-1.241448	0.423407
H44	H	-0.000065	-1.255493	0.512821
H45	H	0.084897	-1.195058	0.396189
H46	H	-0.085011	-1.195065	0.396192
C47	C	-0.339087	-1.832234	0.162062
H48	H	-0.236787	-1.820123	0.149927
H49	H	-0.364200	-1.817883	0.246016
H50	H	-0.364233	-1.916166	0.147625
C51	C	-0.000084	-0.818172	-0.421133
H52	H	-0.000112	-0.732762	-0.402450
H53	H	0.084873	-0.833888	-0.468654
H54	H	-0.085034	-0.833914	-0.468664
H55	H	-0.000151	-0.891602	0.025693
C56	C	-0.000127	-1.728735	0.206993
H57	H	-0.000116	-1.795262	0.273101
H58	H	-0.085078	-1.734846	0.156468
H59	H	0.084830	-1.734842	0.156461
H60	H	-0.000053	-1.078574	-0.395294
C61	C	-0.661084	-1.832221	0.162102
H62	H	-0.593460	-1.882650	0.212474
H63	H	-0.720893	-1.786600	0.214814
H64	H	-0.720904	-1.884890	0.116428
C65	C	-0.661097	-1.307311	-0.362456
H66	H	-0.763397	-1.319447	-0.350342
H67	H	-0.635968	-1.223375	-0.348044
H68	H	-0.635970	-1.321686	-0.446409
C69	C	-0.822100	-1.654412	-0.015551
H70	H	-0.856780	-1.591860	-0.078049
H71	H	-0.856802	-1.734825	-0.033481
H72	H	-0.856772	-1.636520	0.064889
C73	C	-0.339091	-1.307310	-0.362477
H74	H	-0.406707	-1.256896	-0.412872
H75	H	-0.279267	-1.254644	-0.316814
H76	H	-0.279284	-1.352950	-0.415184
H77	H	-0.000062	-1.280893	0.170985
