data_functionalizedCrystal
_audit_creation_method	'MofGen! by Chris Wilmer'
_symmetry_space_group_name_H-M	'P1'
_symmetry_Int_Tables_number	1
_symmetry_cell_setting	triclinic
loop_
_symmetry_equiv_pos_as_xyz
  x,y,z
_cell_length_a	11.792254
_cell_length_b	17.000371
_cell_length_c	10.268362
_cell_angle_alpha	89.994238
_cell_angle_beta	89.995475
_cell_angle_gamma	79.898923
loop_
_atom_site_label
_atom_site_type_symbol
_atom_site_fract_x
_atom_site_fract_y
_atom_site_fract_z
O1	O	1.495055	0.109095	-0.108300
O2	O	1.995055	0.609095	0.391700
O3	O	1.163497	0.120323	-0.108303
O4	O	1.663497	0.620323	0.391697
O5	O	1.349863	-0.001068	-0.108292
O6	O	1.849863	0.498932	0.391708
O7	O	1.308689	0.230485	-0.108311
O8	O	1.808689	0.730485	0.391689
O9	O	1.349848	-0.001073	0.108309
O10	O	1.849848	0.498927	0.608309
O11	O	1.163482	0.120317	0.108298
O12	O	1.663482	0.620317	0.608298
O13	O	1.495040	0.109090	0.108301
O14	O	1.995040	0.609090	0.608301
Cu15	Cu	1.329260	0.114703	0.128077
Cu16	Cu	1.829260	0.614703	0.628077
Cu17	Cu	1.329277	0.114709	-0.128079
Cu18	Cu	1.829277	0.614709	0.371921
O19	O	1.308674	0.230480	0.108290
O20	O	1.808674	0.730480	0.608290
C21	C	1.121276	0.119613	-0.000003
C22	C	1.621276	0.619613	0.499997
C23	C	0.995492	0.117496	-0.000004
C24	C	1.495492	0.617496	0.499996
C25	C	1.352067	-0.030715	0.000008
C26	C	1.852067	0.469285	0.500008
C27	C	1.358643	-0.119045	0.000007
C28	C	1.858643	0.380955	0.500007
C29	C	0.893343	0.115776	-0.000009
C30	C	1.393343	0.615776	0.499991
C31	C	0.765190	0.113625	-0.000010
C32	C	1.265190	0.613625	0.499990
C33	C	1.257443	-0.151510	0.000000
C34	C	1.757443	0.348490	0.500000
C35	C	1.263629	-0.234506	0.000004
C36	C	1.763629	0.265494	0.500004
C37	C	1.371016	-0.285036	0.000005
C38	C	1.871016	0.214964	0.500005
C39	C	1.472224	-0.252565	0.000015
C40	C	1.972224	0.247435	0.500015
C41	C	1.466037	-0.169570	0.000021
C42	C	1.966037	0.330430	0.500021
C43	C	1.394915	-0.536078	-0.000004
C44	C	1.894915	-0.036078	0.499996
C45	C	1.401094	-0.619077	-0.000014
C46	C	1.901094	-0.119077	0.499986
C47	C	1.192498	-0.601013	-0.000023
C48	C	1.692498	-0.101013	0.499977
C49	C	1.186321	-0.518018	-0.000025
C50	C	1.686321	-0.018018	0.499975
C51	C	1.287528	-0.485554	-0.000007
C52	C	1.787528	0.014446	0.499993
C53	C	1.377342	-0.369871	0.000004
C54	C	1.877342	0.130129	0.500004
C55	C	1.281202	-0.400720	0.000002
C56	C	1.781202	0.099280	0.500002
C57	C	1.537262	0.109799	-0.000002
C58	C	2.037262	0.609799	0.499998
C59	C	1.663045	0.111916	-0.000010
C60	C	2.163045	0.611916	0.499990
C61	C	1.306470	0.260127	-0.000013
C62	C	1.806470	0.760127	0.499987
C63	C	1.299894	0.348457	-0.000020
C64	C	1.799894	0.848457	0.499980
N65	N	1.329256	0.114698	0.308243
N66	N	1.829256	0.614698	0.808243
N67	N	1.329291	0.114707	-0.308245
N68	N	1.829291	0.614707	0.191755
C69	C	1.329272	0.114707	0.573913
C70	C	1.829272	0.614707	1.073913
C71	C	1.329259	0.114705	0.426075
C72	C	1.829259	0.614705	0.926075
H73	H	1.169997	-0.110374	-0.000007
H74	H	1.669997	0.389626	0.499993
N75	N	1.154478	-0.269524	0.000022
N76	N	1.654478	0.230476	0.500022
H77	H	1.085511	-0.224920	0.000021
H78	H	1.585511	0.275080	0.500021
H79	H	1.152497	-0.303566	-0.080268
H80	H	1.652497	0.196434	0.419732
H81	H	1.098874	-0.476881	-0.000029
H82	H	1.598874	0.023119	0.499971
H83	H	1.110100	-0.627454	-0.000035
H84	H	1.610100	-0.127454	0.499965
H85	H	1.488546	-0.660218	-0.000022
H86	H	1.988546	-0.160218	0.499978
H87	H	1.477325	-0.509657	0.000007
H88	H	1.977325	-0.009657	0.500007
N89	N	1.588051	-0.307060	0.000033
N90	N	2.088051	0.192940	0.500033
H91	H	1.576617	-0.364564	0.000027
H92	H	2.076617	0.135436	0.500027
H93	H	1.632525	-0.296490	-0.080258
H94	H	2.132525	0.203510	0.419742
N95	N	1.575188	-0.134550	0.000037
N96	N	2.075188	0.365450	0.500037
H97	H	1.644157	-0.179152	0.000035
H98	H	2.144157	0.320848	0.500035
H99	H	1.577173	-0.100500	-0.080254
H100	H	2.077173	0.399500	0.419746
N101	N	1.165388	-0.346216	0.000001
N102	N	1.665388	0.153784	0.500001
H103	H	1.120872	-0.356698	-0.080298
H104	H	1.620872	0.143302	0.419702
H105	H	1.120946	-0.356736	0.080343
H106	H	1.620946	0.143264	0.580343
N107	N	1.493158	-0.424380	-0.000011
N108	N	1.993158	0.075620	0.499989
H109	H	1.537682	-0.413883	-0.080307
H110	H	2.037682	0.086117	0.419693
H111	H	1.537590	-0.413872	0.080334
H112	H	2.037590	0.086128	0.580334
