data_functionalizedCrystal
_audit_creation_method	'MofGen! by Chris Wilmer'
_symmetry_space_group_name_H-M	'P1'
_symmetry_Int_Tables_number	1
_symmetry_cell_setting	triclinic
loop_
_symmetry_equiv_pos_as_xyz
  x,y,z
_cell_length_a	19.121102
_cell_length_b	19.121368
_cell_length_c	19.121175
_cell_angle_alpha	90.088238
_cell_angle_beta	94.787032
_cell_angle_gamma	90.107979
loop_
_atom_site_label
_atom_site_type_symbol
_atom_site_fract_x
_atom_site_fract_y
_atom_site_fract_z
Zn1	Zn	-1.077443	-0.343939	-0.428419
Zn2	Zn	-1.067410	-0.455733	-0.305795
Zn3	Zn	-0.955227	-0.333525	-0.306219
Zn4	Zn	-0.954812	-0.455687	-0.418409
O5	O	-1.013723	-0.397221	-0.364711
O6	O	-1.174382	-0.363147	-0.416165
O7	O	-1.048504	-0.435183	-0.207581
O8	O	-0.975812	-0.236995	-0.326795
O9	O	-1.167011	-0.445281	-0.326073
O10	O	-1.065603	-0.244647	-0.416575
O11	O	-0.966084	-0.345397	-0.207892
O12	O	-0.856902	-0.345352	-0.317089
O13	O	-0.975104	-0.445203	-0.518008
O14	O	-0.856596	-0.435104	-0.399515
O15	O	-1.065200	-0.363102	-0.525362
O16	O	-1.048101	-0.553639	-0.316367
O17	O	-0.965375	-0.553605	-0.399104
C18	C	-0.831269	-0.389094	-0.357262
C19	C	-0.753214	-0.385635	-0.354092
C20	C	-1.005624	-0.579010	-0.356620
C21	C	-1.002224	-0.656785	-0.353185
C22	C	-1.021225	-0.405309	-0.547878
C23	C	-1.024422	-0.408756	-0.625933
C24	C	-1.196889	-0.405381	-0.372188
C25	C	-1.274944	-0.408858	-0.375375
C26	C	-0.716397	-0.430803	-0.395443
C27	C	-0.643057	-0.427543	-0.392468
C28	C	-0.606535	-0.379119	-0.348137
C29	C	-0.643357	-0.333946	-0.306784
C30	C	-0.716696	-0.337202	-0.309763
C31	C	-0.385105	-0.366942	-0.337001
C32	C	-0.311761	-0.363690	-0.334023
C33	C	-0.311466	-0.457287	-0.419709
C34	C	-0.384807	-0.460542	-0.422681
C35	C	-0.421623	-0.415367	-0.381331
C36	C	-0.531569	-0.375787	-0.345093
C37	C	-0.496587	-0.418695	-0.384379
C38	C	-1.021873	-0.214724	-0.372849
C39	C	-1.025347	-0.136954	-0.376317
C40	C	-0.980232	-0.096433	-0.331205
C41	C	-0.983494	-0.023361	-0.334470
C42	C	-1.031876	0.009190	-0.382846
C43	C	-1.076993	-0.031337	-0.427963
C44	C	-1.073726	-0.104408	-0.424701
C45	C	-1.044074	0.229618	-0.395039
C46	C	-1.047339	0.302695	-0.398297
C47	C	-0.953839	0.310666	-0.304805
C48	C	-0.950580	0.237593	-0.301543
C49	C	-0.995694	0.197073	-0.346663
C50	C	-1.035213	0.083881	-0.386184
C51	C	-0.992353	0.122382	-0.343328
C52	C	-0.983014	-0.363629	-0.662765
C53	C	-0.986015	-0.366873	-0.736105
C54	C	-1.030428	-0.415241	-0.772613
C55	C	-1.071837	-0.460372	-0.735776
C56	C	-1.068832	-0.457131	-0.662436
C57	C	-1.041645	-0.427369	-0.994043
C58	C	-1.044648	-0.430605	-1.067388
C59	C	-0.958825	-0.337107	-1.067712
C60	C	-0.955827	-0.333867	-0.994371
C61	C	-0.997233	-0.379001	-0.957540
C62	C	-1.033498	-0.418556	-0.847579
C63	C	-0.994159	-0.375688	-0.882575
C64	C	-1.006293	-0.389116	-0.182260
C65	C	-1.003240	-0.385479	-0.104220
H66	H	-0.746128	-0.470238	-0.431540
H67	H	-1.069658	-0.457938	-0.877312
H68	H	-0.414538	-0.499976	-0.458779
Cl69	Cl	-1.096030	0.124808	-0.447001
Cl70	Cl	-0.596776	-0.484329	-0.444456
Cl71	Cl	-0.265179	-0.514076	-0.471688
Cl72	Cl	-0.597443	-0.273064	-0.251058
Cl73	Cl	-0.933923	-0.310171	-0.782403
Cl74	Cl	-0.938330	-0.314883	-0.836679
Cl75	Cl	-1.137809	0.009584	-0.488786
H76	H	-0.946852	-0.324239	-0.633046
H77	H	-1.080818	-0.469993	-1.097110
H78	H	-0.282027	-0.324249	-0.297928
H79	H	-0.415072	-0.330161	-0.303325
H80	H	-0.946758	0.009631	-0.297737
Cl81	Cl	-0.919410	-0.137346	-0.270383
Cl82	Cl	-0.762980	-0.280415	-0.257778
H83	H	-0.911184	0.211096	-0.262149
H84	H	-0.925113	-0.300362	-1.097708
Cl85	Cl	-0.485649	-0.314912	-0.289364
Cl86	Cl	-0.542502	-0.479570	-0.440108
Cl87	Cl	-1.120887	-0.513867	-0.616133
Cl88	Cl	-0.897125	0.361609	-0.248089
H89	H	-1.110458	-0.137399	-0.461441
Cl90	Cl	-1.108168	0.343614	-0.459114
H91	H	-1.080817	0.196635	-0.431772
H92	H	-0.952958	0.095877	-0.303944
H93	H	-1.075353	-0.464127	-0.964063
Cl94	Cl	-0.899992	-0.273058	-0.948481
Cl95	Cl	-1.127666	-0.521182	-0.781671
