data_functionalizedCrystal
_audit_creation_method	'MofGen! by Chris Wilmer'
_symmetry_space_group_name_H-M	'P1'
_symmetry_Int_Tables_number	1
_symmetry_cell_setting	triclinic
loop_
_symmetry_equiv_pos_as_xyz
  x,y,z
_cell_length_a	6.817900
_cell_length_b	17.078472
_cell_length_c	16.255661
_cell_angle_alpha	96.262601
_cell_angle_beta	103.488922
_cell_angle_gamma	99.306020
loop_
_atom_site_label
_atom_site_type_symbol
_atom_site_fract_x
_atom_site_fract_y
_atom_site_fract_z
V1	V	-4.005724	-0.110408	-0.263786
O2	O	-4.015074	0.004646	-0.258852
O3	O	-3.936769	-0.218286	-0.261897
O4	O	-3.957554	-0.108999	-0.378870
O5	O	-3.994145	-0.105398	-0.141069
V6	V	-4.491986	-0.096612	-0.249118
O7	O	-4.260975	-0.140671	-0.295960
O8	O	-4.686932	-0.066349	-0.216943
O9	O	-4.337734	0.011266	-0.251006
O10	O	-4.600033	-0.211666	-0.254052
O11	O	-4.620962	-0.101622	-0.371834
O12	O	-4.316949	-0.098021	-0.134034
C13	C	-3.776761	-0.244575	-0.257714
C14	C	-3.801671	-0.332769	-0.256938
C15	C	-3.994710	-0.378254	-0.260791
C16	C	-4.018106	-0.461122	-0.260066
C17	C	-3.848456	-0.498502	-0.255482
C18	C	-3.655402	-0.453012	-0.251631
C19	C	-3.632012	-0.370147	-0.252362
C20	C	-3.898967	-0.745900	-0.252849
C21	C	-3.922372	-0.828771	-0.252116
C22	C	-4.285076	-0.836875	-0.260553
C23	C	-4.261666	-0.754007	-0.261278
C24	C	-4.068617	-0.708525	-0.257432
N25	N	-3.872364	-0.583206	-0.254738
N26	N	-4.044714	-0.623823	-0.258181
C27	C	-3.803274	-0.105168	-0.406923
C28	C	-3.845037	-0.104730	-0.501005
C29	C	-3.756589	-0.099496	-0.723828
C30	C	-3.900164	-0.167046	-0.793252
C31	C	-3.921578	-0.103908	-0.673254
C32	C	-3.852440	-0.035585	-0.771468
C33	C	-3.995497	-0.103111	-0.839638
C34	C	-4.064623	-0.171518	-0.741448
C35	C	-4.016849	-0.039998	-0.719649
C36	C	-4.160557	-0.107567	-0.789054
C37	C	-3.878989	-0.104368	-0.577405
C38	C	-4.038102	-0.102657	-0.935487
C39	C	-4.161083	0.037551	-0.255187
C40	C	-4.115412	0.125744	-0.255969
C41	C	-4.134570	-0.101855	-0.105976
C42	C	-4.072047	-0.102289	-0.011893
H43	H	-3.784222	-0.859207	-0.248403
O44	O	-4.205597	-0.505239	-0.263650
C45	C	-4.274046	-0.476488	-0.192772
H46	H	-4.136222	-0.443696	-0.139048
H47	H	-4.381690	-0.433380	-0.212466
C48	C	-4.558861	-0.587889	-0.227300
C49	C	-4.389581	-0.547618	-0.161313
H50	H	-4.630137	-0.631763	-0.207896
H51	H	-4.512752	-0.607257	-0.275054
H52	H	-4.648542	-0.551957	-0.243706
H53	H	-4.299892	-0.583547	-0.144915
H54	H	-4.435678	-0.528257	-0.113555
O55	O	-3.552482	-0.095668	-0.689906
C56	C	-3.491294	-0.162800	-0.727772
H57	H	-3.630763	-0.213448	-0.754272
H58	H	-3.421419	-0.145538	-0.782047
C59	C	-3.159150	-0.128824	-0.627476
C60	C	-3.330446	-0.191034	-0.660016
H61	H	-3.059924	-0.146239	-0.585683
H62	H	-3.200369	-0.083594	-0.601966
H63	H	-3.100946	-0.114445	-0.672712
H64	H	-3.388662	-0.205405	-0.614782
H65	H	-3.289232	-0.236267	-0.685517
O66	O	-3.711563	-0.701708	-0.249250
C67	C	-3.723304	-0.664455	-0.323034
H68	H	-3.858507	-0.699377	-0.376678
H69	H	-3.746136	-0.600270	-0.308076
C70	C	-3.356591	-0.620404	-0.285488
C71	C	-3.522639	-0.663299	-0.351377
H72	H	-3.232809	-0.619687	-0.302969
H73	H	-3.348680	-0.645499	-0.235776
H74	H	-3.375645	-0.566920	-0.273029
H75	H	-3.503595	-0.716784	-0.363827
H76	H	-3.530542	-0.638213	-0.401091
H77	H	-3.851280	-0.220759	-0.825296
O78	O	-4.074772	0.024170	-0.681405
C79	C	-3.961971	0.095685	-0.696216
H80	H	-3.813070	0.083547	-0.710810
H81	H	-4.057153	0.118249	-0.752962
C82	C	-4.094200	0.174630	-0.598099
C83	C	-3.911309	0.159723	-0.616017
H84	H	-4.062956	0.214133	-0.548631
H85	H	-4.170203	0.126449	-0.588123
H86	H	-4.173501	0.193429	-0.645394
H87	H	-3.832024	0.140915	-0.568728
H88	H	-3.835291	0.207902	-0.625984
H89	H	-4.132858	-0.347824	-0.264516
O90	O	-4.170816	-0.240183	-0.725299
C91	C	-4.031863	-0.282995	-0.680129
H92	H	-3.874353	-0.264495	-0.692576
H93	H	-4.019051	-0.268966	-0.608667
C94	C	-4.303610	-0.396427	-0.695224
C95	C	-4.110158	-0.373709	-0.710516
H96	H	-4.351908	-0.452384	-0.713964
H97	H	-4.397228	-0.367583	-0.725653
H98	H	-4.292908	-0.384729	-0.635671
H99	H	-4.120868	-0.385397	-0.770069
H100	H	-4.016543	-0.402558	-0.680098
O101	O	-4.472437	-0.881125	-0.264178
C102	C	-4.460705	-0.918342	-0.190371
H103	H	-4.294709	-0.923589	-0.162048
H104	H	-4.515878	-0.880743	-0.141179
C105	C	-4.801469	-0.996252	-0.249244
C106	C	-4.597593	-1.002703	-0.214461
H107	H	-4.885914	-1.048288	-0.264102
H108	H	-4.809378	-0.971176	-0.298968
H109	H	-4.847419	-0.964916	-0.208245
H110	H	-4.551638	-1.034029	-0.255464
H111	H	-4.589679	-1.027785	-0.164744
H112	H	-3.474823	-0.333114	-0.249227
H113	H	-3.517275	-0.483455	-0.247903
O114	O	-4.364747	-0.111511	-0.822889
C115	C	-4.393724	-0.042624	-0.861168
H116	H	-4.255778	0.008018	-0.831484
H117	H	-4.409769	-0.056922	-0.932864
C118	C	-4.759474	-0.078667	-0.882689
C119	C	-4.590054	-0.016466	-0.846225
H120	H	-4.880583	-0.062533	-0.873476
H121	H	-4.739954	-0.125080	-0.856903
H122	H	-4.772817	-0.090576	-0.942433
H123	H	-4.576698	-0.004565	-0.786481
H124	H	-4.609576	0.029949	-0.872002
H125	H	-3.763123	0.021847	-0.785122
H126	H	-4.399820	-0.723579	-0.265017
