data_functionalizedCrystal
_audit_creation_method	'MofGen! by Chris Wilmer'
_symmetry_space_group_name_H-M	'P1'
_symmetry_Int_Tables_number	1
_symmetry_cell_setting	triclinic
loop_
_symmetry_equiv_pos_as_xyz
  x,y,z
_cell_length_a	19.805407
_cell_length_b	21.395361
_cell_length_c	21.395364
_cell_angle_alpha	90.006881
_cell_angle_beta	90.016178
_cell_angle_gamma	90.028024
loop_
_atom_site_label
_atom_site_type_symbol
_atom_site_fract_x
_atom_site_fract_y
_atom_site_fract_z
Zn1	Zn	1.034704	-0.249646	0.354234
Zn2	Zn	1.284704	0.000354	0.604234
Zn3	Zn	1.534704	0.250354	0.854234
Zn4	Zn	1.784704	0.500354	1.104234
Zn5	Zn	1.034614	-0.354380	0.249451
Zn6	Zn	1.284614	-0.104380	0.499451
Zn7	Zn	1.534614	0.145620	0.749451
Zn8	Zn	1.784614	0.395620	0.999451
Zn9	Zn	0.921522	-0.249615	0.249473
Zn10	Zn	1.171522	0.000385	0.499473
Zn11	Zn	1.421522	0.250385	0.749473
Zn12	Zn	1.671522	0.500385	0.999473
Zn13	Zn	0.921474	-0.354385	0.354193
Zn14	Zn	1.171474	-0.104385	0.604193
Zn15	Zn	1.421474	0.145615	0.854193
Zn16	Zn	1.671474	0.395615	1.104193
O17	O	0.978079	-0.302007	0.301838
O18	O	1.228079	-0.052007	0.551838
O19	O	1.478079	0.197993	0.801838
O20	O	1.728079	0.447993	1.051838
O21	O	1.129409	-0.263550	0.340343
O22	O	1.379409	-0.013550	0.590343
O23	O	1.629409	0.236450	0.840343
O24	O	1.879409	0.486450	1.090343
O25	O	1.019595	-0.340467	0.161776
O26	O	1.269595	-0.090467	0.411776
O27	O	1.519595	0.159533	0.661776
O28	O	1.769595	0.409533	0.911776
O29	O	0.936594	-0.161941	0.263396
O30	O	1.186594	0.088059	0.513396
O31	O	1.436594	0.338059	0.763396
O32	O	1.686594	0.588059	1.013396
O33	O	1.129343	-0.340497	0.263359
O34	O	1.379343	-0.090497	0.513359
O35	O	1.629343	0.159503	0.763359
O36	O	1.879343	0.409503	1.013359
O37	O	1.019749	-0.161964	0.340364
O38	O	1.269749	0.088036	0.590364
O39	O	1.519749	0.338036	0.840364
O40	O	1.769749	0.588036	1.090364
O41	O	0.936507	-0.263497	0.161792
O42	O	1.186507	-0.013497	0.411792
O43	O	1.436507	0.236503	0.661792
O44	O	1.686507	0.486503	0.911792
O45	O	0.826799	-0.263502	0.263356
O46	O	1.076799	-0.013502	0.513356
O47	O	1.326799	0.236498	0.763356
O48	O	1.576799	0.486498	1.013356
O49	O	0.936512	-0.340507	0.441876
O50	O	1.186512	-0.090507	0.691876
O51	O	1.436512	0.159493	0.941876
O52	O	1.686512	0.409493	1.191876
O53	O	0.826764	-0.340476	0.340293
O54	O	1.076764	-0.090476	0.590293
O55	O	1.326764	0.159524	0.840293
O56	O	1.576764	0.409524	1.090293
O57	O	1.019702	-0.263556	0.441907
O58	O	1.269702	-0.013556	0.691907
O59	O	1.519702	0.236444	0.941907
O60	O	1.769702	0.486444	1.191907
O61	O	1.019548	-0.442058	0.263319
O62	O	1.269548	-0.192058	0.513319
O63	O	1.519548	0.057942	0.763319
O64	O	1.769548	0.307942	1.013319
O65	O	0.936424	-0.442062	0.340273
O66	O	1.186424	-0.192062	0.590273
O67	O	1.436424	0.057938	0.840273
O68	O	1.686424	0.307938	1.090273
C69	C	0.977989	-0.464794	0.301803
C70	C	1.227989	-0.214794	0.551803
C71	C	1.477989	0.035206	0.801803
C72	C	1.727989	0.285206	1.051803
C73	C	0.978013	-0.534435	0.301809
C74	C	1.228013	-0.284435	0.551809
C75	C	1.478013	-0.034435	0.801809
C76	C	1.728013	0.215565	1.051809
C77	C	0.802223	-0.301987	0.301823
C78	C	1.052223	-0.051987	0.551823
C79	C	1.302223	0.198013	0.801823
C80	C	1.552223	0.448013	1.051823
C81	C	0.726991	-0.301994	0.301831
C82	C	0.976991	-0.051994	0.551831
C83	C	1.226991	0.198006	0.801831
C84	C	1.476991	0.448006	1.051831
C85	C	1.021334	-0.567126	0.261780
C86	C	1.271334	-0.317126	0.511780
C87	C	1.521334	-0.067126	0.761780
C88	C	1.771334	0.182874	1.011780
C89	C	1.021365	-0.632561	0.261794
C90	C	1.271365	-0.382561	0.511794
C91	C	1.521365	-0.132561	0.761794
C92	C	1.771365	0.117439	1.011794
C93	C	0.978064	-0.665304	0.301830
C94	C	1.228064	-0.415304	0.551830
C95	C	1.478064	-0.165304	0.801830
C96	C	1.728064	0.084696	1.051830
C97	C	0.934740	-0.632606	0.341867
C98	C	1.184740	-0.382606	0.591867
C99	C	1.434740	-0.132606	0.841867
C100	C	1.684740	0.117394	1.091867
C101	C	0.934715	-0.567172	0.341856
C102	C	1.184715	-0.317172	0.591856
C103	C	1.434715	-0.067172	0.841856
C104	C	1.684715	0.182828	1.091856
C105	C	0.917120	-0.769017	0.306741
C106	C	1.167120	-0.519017	0.556741
C107	C	1.417120	-0.269017	0.806741
C108	C	1.667120	-0.019017	1.056741
C109	C	0.917144	-0.834450	0.306748
C110	C	1.167144	-0.584450	0.556748
C111	C	1.417144	-0.334450	0.806748
C112	C	1.667144	-0.084450	1.056748
C113	C	0.978143	-0.867124	0.301867
C114	C	1.228143	-0.617124	0.551867
C115	C	1.478143	-0.367124	0.801867
C116	C	1.728143	-0.117124	1.051867
C117	C	1.039119	-0.834357	0.296967
C118	C	1.289119	-0.584357	0.546967
C119	C	1.539119	-0.334357	0.796967
C120	C	1.789119	-0.084357	1.046967
C121	C	1.039094	-0.768923	0.296957
C122	C	1.289094	-0.518923	0.546957
C123	C	1.539094	-0.268923	0.796957
C124	C	1.789094	-0.018923	1.046957
C125	C	0.978087	-0.736256	0.301847
C126	C	1.228087	-0.486256	0.551847
C127	C	1.478087	-0.236256	0.801847
C128	C	1.728087	0.013744	1.051847
C129	C	1.021501	-0.970767	0.261852
C130	C	1.271501	-0.720767	0.511852
C131	C	1.521501	-0.470767	0.761852
C132	C	1.771501	-0.220767	1.011852
C133	C	1.021534	-1.036204	0.261870
C134	C	1.271534	-0.786204	0.511870
C135	C	1.521534	-0.536204	0.761870
C136	C	1.771534	-0.286204	1.011870
C137	C	0.934903	-1.036247	0.341939
C138	C	1.184903	-0.786247	0.591939
C139	C	1.434903	-0.536247	0.841939
C140	C	1.684903	-0.286247	1.091939
C141	C	0.934876	-0.970812	0.341924
C142	C	1.184876	-0.720812	0.591924
C143	C	1.434876	-0.470812	0.841924
C144	C	1.684876	-0.220812	1.091924
C145	C	0.978175	-0.938076	0.301877
C146	C	1.228175	-0.688076	0.551877
C147	C	1.478175	-0.438076	0.801877
C148	C	1.728175	-0.188076	1.051877
C149	C	0.691682	-0.261998	0.341977
C150	C	0.941682	-0.011998	0.591977
C151	C	1.191682	0.238002	0.841977
C152	C	1.441682	0.488002	1.091977
C153	C	0.620993	-0.262002	0.341980
C154	C	0.870993	-0.012002	0.591980
C155	C	1.120993	0.237998	0.841980
C156	C	1.370993	0.487998	1.091980
C157	C	0.585615	-0.302004	0.301838
C158	C	0.835615	-0.052004	0.551838
C159	C	1.085615	0.197996	0.801838
C160	C	1.335615	0.447996	1.051838
C161	C	0.620929	-0.342001	0.261688
C162	C	0.870929	-0.092001	0.511688
C163	C	1.120929	0.157999	0.761688
C164	C	1.370929	0.407999	1.011688
C165	C	0.691616	-0.341994	0.261683
C166	C	0.941616	-0.091994	0.511683
C167	C	1.191616	0.158006	0.761683
C168	C	1.441616	0.408006	1.011683
C169	C	0.335856	-0.342029	0.261707
C170	C	0.585856	-0.092029	0.511707
C171	C	0.835856	0.157971	0.761707
C172	C	1.085856	0.407971	1.011707
C173	C	0.265164	-0.342034	0.261717
C174	C	0.515164	-0.092034	0.511717
C175	C	0.765164	0.157966	0.761717
C176	C	1.015164	0.407966	1.011717
C177	C	0.265233	-0.262037	0.342004
C178	C	0.515233	-0.012037	0.592004
C179	C	0.765233	0.237963	0.842004
C180	C	1.015233	0.487963	1.092004
C181	C	0.335920	-0.262030	0.341999
C182	C	0.585920	-0.012030	0.591999
C183	C	0.835920	0.237970	0.841999
C184	C	1.085920	0.487970	1.091999
C185	C	0.371228	-0.302024	0.301846
C186	C	0.621228	-0.052024	0.551846
C187	C	0.871228	0.197976	0.801846
C188	C	1.121228	0.447976	1.051846
C189	C	0.447876	-0.302019	0.301843
C190	C	0.697876	-0.052019	0.551843
C191	C	0.947876	0.197981	0.801843
C192	C	1.197876	0.447981	1.051843
C193	C	0.508968	-0.302012	0.301844
C194	C	0.758968	-0.052012	0.551844
C195	C	1.008968	0.197988	0.801844
C196	C	1.258968	0.447988	1.051844
C197	C	1.154621	-0.302027	0.301853
C198	C	1.404621	-0.052027	0.551853
C199	C	1.654621	0.197973	0.801853
C200	C	1.904621	0.447973	1.051853
C201	C	1.229853	-0.302035	0.301860
C202	C	1.479853	-0.052035	0.551860
C203	C	1.729853	0.197965	0.801860
C204	C	1.979853	0.447965	1.051860
C205	C	0.978112	-0.302036	0.465261
C206	C	1.228112	-0.052036	0.715261
C207	C	1.478112	0.197964	0.965261
C208	C	1.728112	0.447964	1.215261
C209	C	0.978126	-0.302048	0.534902
C210	C	1.228126	-0.052048	0.784902
C211	C	1.478126	0.197952	1.034902
C212	C	1.728126	0.447952	1.284902
C213	C	0.978187	-0.138583	0.301887
C214	C	1.228187	0.111417	0.551887
C215	C	1.478187	0.361417	0.801887
C216	C	1.728187	0.611417	1.051887
C217	C	0.978233	-0.068942	0.301907
C218	C	1.228233	0.181058	0.551907
C219	C	1.478233	0.431058	0.801907
C220	C	1.728233	0.681058	1.051907
C221	C	1.021436	-0.261986	0.567632
C222	C	1.271436	-0.011986	0.817632
C223	C	1.521436	0.238014	1.067632
C224	C	1.771436	0.488014	1.317632
C225	C	1.021426	-0.261976	0.633068
C226	C	1.271426	-0.011976	0.883068
C227	C	1.521426	0.238024	1.133068
C228	C	1.771426	0.488024	1.383068
C229	C	0.978112	-0.302039	0.665771
C230	C	1.228112	-0.052039	0.915771
C231	C	1.478112	0.197961	1.165771
C232	C	1.728112	0.447961	1.415771
C233	C	0.934794	-0.342103	0.633033
C234	C	1.184794	-0.092103	0.883033
C235	C	1.434794	0.157897	1.133033
C236	C	1.684794	0.407897	1.383033
C237	C	0.934800	-0.342108	0.567599
C238	C	1.184800	-0.092108	0.817599
C239	C	1.434800	0.157892	1.067599
C240	C	1.684800	0.407892	1.317599
C241	C	0.972722	-0.358480	0.769433
C242	C	1.222722	-0.108480	1.019433
C243	C	1.472722	0.141520	1.269433
C244	C	1.722722	0.391520	1.519433
C245	C	0.972720	-0.358477	0.834866
C246	C	1.222720	-0.108477	1.084866
C247	C	1.472720	0.141523	1.334866
C248	C	1.722720	0.391523	1.584866
C249	C	0.978088	-0.302024	0.867591
C250	C	1.228088	-0.052024	1.117591
C251	C	1.478088	0.197976	1.367591
C252	C	1.728088	0.447976	1.617591
C253	C	0.983472	-0.245573	0.834876
C254	C	1.233472	0.004427	1.084876
C255	C	1.483472	0.254427	1.334876
C256	C	1.733472	0.504427	1.584876
C257	C	0.983478	-0.245578	0.769441
C258	C	1.233478	0.004422	1.019441
C259	C	1.483478	0.254422	1.269441
C260	C	1.733478	0.504422	1.519441
C261	C	0.978100	-0.302038	0.736723
C262	C	1.228100	-0.052038	0.986723
C263	C	1.478100	0.197962	1.236723
C264	C	1.728100	0.447962	1.486723
C265	C	1.021389	-0.261948	0.971274
C266	C	1.271389	-0.011948	1.221274
C267	C	1.521389	0.238052	1.471274
C268	C	1.771389	0.488052	1.721274
C269	C	1.021374	-0.261936	1.036710
C270	C	1.271374	-0.011936	1.286710
C271	C	1.521374	0.238064	1.536710
C272	C	1.771374	0.488064	1.786710
C273	C	0.934746	-0.342069	1.036674
C274	C	1.184746	-0.092069	1.286674
C275	C	1.434746	0.157931	1.536674
C276	C	1.684746	0.407931	1.786674
C277	C	0.934757	-0.342075	0.971239
C278	C	1.184757	-0.092075	1.221239
C279	C	1.434757	0.157925	1.471239
C280	C	1.684757	0.407925	1.721239
C281	C	0.978083	-0.302015	0.938543
C282	C	1.228083	-0.052015	1.188543
C283	C	1.478083	0.197985	1.438543
C284	C	1.728083	0.447985	1.688543
C285	C	0.978049	-0.301997	1.139050
C286	C	1.228049	-0.051997	1.389050
C287	C	1.478049	0.198003	1.639050
C288	C	1.728049	0.448003	1.889050
C289	C	0.978060	-0.301999	1.069409
C290	C	1.228060	-0.051999	1.319409
C291	C	1.478060	0.198001	1.569409
C292	C	1.728060	0.448001	1.819409
H293	H	1.056591	-0.540474	0.229173
H294	H	1.306591	-0.290474	0.479173
H295	H	1.556591	-0.040474	0.729173
H296	H	1.806591	0.209526	0.979173
Br297	Br	0.383930	-0.207743	0.396482
Br298	Br	0.633930	0.042257	0.646482
Br299	Br	0.883930	0.292257	0.896482
Br300	Br	1.133930	0.542257	1.146482
H301	H	1.088742	-0.742246	0.292969
H302	H	1.338742	-0.492246	0.542969
H303	H	1.588742	-0.242246	0.792969
H304	H	1.838742	0.007754	1.042969
H305	H	0.867443	-0.742421	0.310718
H306	H	1.117443	-0.492421	0.560718
H307	H	1.367443	-0.242421	0.810718
H308	H	1.617443	0.007579	1.060718
Br309	Br	0.875979	-0.677040	0.396207
Br310	Br	1.125979	-0.427040	0.646207
Br311	Br	1.375979	-0.177040	0.896207
Br312	Br	1.625979	0.072960	1.146207
H313	H	0.236477	-0.229469	0.374696
H314	H	0.486477	0.020531	0.624696
H315	H	0.736477	0.270531	0.874696
H316	H	0.986477	0.520531	1.124696
Br317	Br	0.573076	-0.207720	0.396467
Br318	Br	0.823076	0.042280	0.646467
Br319	Br	1.073076	0.292280	0.896467
Br320	Br	1.323076	0.542280	1.146467
H321	H	0.592119	-0.374568	0.229001
H322	H	0.842119	-0.124568	0.479001
H323	H	1.092119	0.125432	0.729001
H324	H	1.342119	0.375432	0.979001
H325	H	0.720482	-0.229425	0.374667
H326	H	0.970482	0.020575	0.624667
H327	H	1.220482	0.270575	0.874667
H328	H	1.470482	0.520575	1.124667
H329	H	0.720364	-0.374562	0.228991
H330	H	0.970364	-0.124562	0.478991
H331	H	1.220364	0.125438	0.728991
H332	H	1.470364	0.375438	0.978991
Br333	Br	0.217150	-0.396327	0.207235
Br334	Br	0.467150	-0.146327	0.457235
Br335	Br	0.717150	0.103673	0.707235
Br336	Br	0.967150	0.353673	0.957235
Br337	Br	1.080232	-0.207617	0.523261
Br338	Br	1.330232	0.042383	0.773261
Br339	Br	1.580232	0.292383	1.023261
Br340	Br	1.830232	0.542383	1.273261
Br341	Br	1.080192	-0.207587	0.677497
Br342	Br	1.330192	0.042413	0.927497
Br343	Br	1.580192	0.292413	1.177497
Br344	Br	1.830192	0.542413	1.427497
H345	H	1.056642	-0.229310	1.063358
H346	H	1.306642	0.020690	1.313358
H347	H	1.556642	0.270690	1.563358
H348	H	1.806642	0.520690	1.813358
Br349	Br	0.875919	-0.522803	0.396186
Br350	Br	1.125919	-0.272803	0.646186
Br351	Br	1.375919	-0.022803	0.896186
Br352	Br	1.625919	0.227197	1.146186
H353	H	1.056645	-0.659182	0.229199
H354	H	1.306645	-0.409182	0.479199
H355	H	1.556645	-0.159182	0.729199
H356	H	1.806645	0.090818	0.979199
H357	H	0.364595	-0.374596	0.229013
H358	H	0.614595	-0.124596	0.479013
H359	H	0.864595	0.125404	0.729013
H360	H	1.114595	0.375404	0.979013
Br361	Br	0.876006	-0.396470	0.677414
Br362	Br	1.126006	-0.146470	0.927414
Br363	Br	1.376006	0.103530	1.177414
Br364	Br	1.626006	0.353530	1.427414
H365	H	0.899493	-0.374702	0.944590
H366	H	1.149493	-0.124702	1.194590
H367	H	1.399493	0.125298	1.444590
H368	H	1.649493	0.375298	1.694590
Br369	Br	0.990781	-0.168970	0.725043
Br370	Br	1.240781	0.081030	0.975043
Br371	Br	1.490781	0.331030	1.225043
Br372	Br	1.740781	0.581030	1.475043
H373	H	0.987843	-0.199604	0.861519
H374	H	1.237843	0.050396	1.111519
H375	H	1.487843	0.300396	1.361519
H376	H	1.737843	0.550396	1.611519
H377	H	1.056664	-0.229325	0.944651
H378	H	1.306664	0.020675	1.194651
H379	H	1.556664	0.270675	1.444651
H380	H	1.806664	0.520675	1.694651
Br381	Br	0.965423	-0.435088	0.879260
Br382	Br	1.215423	-0.185088	1.129260
Br383	Br	1.465423	0.064912	1.379260
Br384	Br	1.715423	0.314912	1.629260
Br385	Br	0.875953	-0.396434	1.081050
Br386	Br	1.125953	-0.146434	1.331050
Br387	Br	1.375953	0.103566	1.581050
Br388	Br	1.625953	0.353566	1.831050
Br389	Br	0.965457	-0.435103	0.725027
Br390	Br	1.215457	-0.185103	0.975027
Br391	Br	1.465457	0.064897	1.225027
Br392	Br	1.715457	0.314897	1.475027
Br393	Br	0.834392	-0.878913	0.313394
Br394	Br	1.084392	-0.628913	0.563394
Br395	Br	1.334392	-0.378913	0.813394
Br396	Br	1.584392	-0.128913	1.063394
Br397	Br	1.121909	-0.878692	0.290334
Br398	Br	1.371909	-0.628692	0.540334
Br399	Br	1.621909	-0.378692	0.790334
Br400	Br	1.871909	-0.128692	1.040334
Br401	Br	1.080259	-0.926336	0.207502
Br402	Br	1.330259	-0.676336	0.457502
Br403	Br	1.580259	-0.426336	0.707502
Br404	Br	1.830259	-0.176336	0.957502
Br405	Br	0.876016	-0.396481	0.523176
Br406	Br	1.126016	-0.146481	0.773176
Br407	Br	1.376016	0.103519	1.023176
Br408	Br	1.626016	0.353519	1.273176
H409	H	1.056815	-1.062819	0.229275
H410	H	1.306815	-0.812819	0.479275
H411	H	1.556815	-0.562819	0.729275
H412	H	1.806815	-0.312819	0.979275
Br413	Br	0.876079	-0.926443	0.396250
Br414	Br	1.126079	-0.676443	0.646250
Br415	Br	1.376079	-0.426443	0.896250
Br416	Br	1.626079	-0.176443	1.146250
Br417	Br	0.876142	-1.080677	0.396281
Br418	Br	1.126142	-0.830677	0.646281
Br419	Br	1.376142	-0.580677	0.896281
Br420	Br	1.626142	-0.330677	1.146281
