data_functionalizedCrystal
_audit_creation_method	'MofGen! by Chris Wilmer'
_symmetry_space_group_name_H-M	'P1'
_symmetry_Int_Tables_number	1
_symmetry_cell_setting	triclinic
loop_
_symmetry_equiv_pos_as_xyz
  x,y,z
_cell_length_a	15.944551
_cell_length_b	11.792241
_cell_length_c	10.868271
_cell_angle_alpha	90.000107
_cell_angle_beta	89.993912
_cell_angle_gamma	96.153923
loop_
_atom_site_label
_atom_site_type_symbol
_atom_site_fract_x
_atom_site_fract_y
_atom_site_fract_z
O1	O	0.115128	-1.505960	-0.102206
O2	O	0.126993	-1.175521	-0.102235
O3	O	-0.001173	-1.349764	-0.102208
O4	O	0.243295	-1.331717	-0.102232
O5	O	-0.001178	-1.349750	0.102436
O6	O	0.126988	-1.175507	0.102410
O7	O	0.115123	-1.505946	0.102439
Zn8	Zn	0.121055	-1.340724	0.134916
Zn9	Zn	0.121062	-1.340743	-0.134712
O10	O	0.243290	-1.331703	0.102413
C11	C	0.126245	-1.133229	0.000084
C12	C	0.124015	-1.007234	0.000073
C13	C	-0.032473	-1.349008	0.000114
C14	C	-0.125729	-1.346761	0.000115
N15	N	0.121050	-1.340719	0.318930
C16	C	-0.341098	-1.233389	0.000088
C17	C	-0.401880	-1.286028	0.100995
C18	C	-0.296474	-1.342698	0.000105
C19	C	-0.401858	-1.286068	-0.100769
C20	C	-0.461404	-1.338765	0.000090
C21	C	-0.356028	-1.395368	0.101095
C22	C	-0.356000	-1.395392	-0.100759
C23	C	-0.416764	-1.448111	0.000172
C24	C	-0.201461	-1.344961	0.000114
C25	C	-0.556415	-1.336511	0.000089
C26	C	0.274590	-1.332459	0.000087
C27	C	0.367846	-1.334705	0.000079
C28	C	0.115871	-1.548237	0.000118
C29	C	0.118102	-1.674233	0.000120
C30	C	0.119913	-0.776555	0.000109
C31	C	0.122192	-0.904922	0.000090
N32	N	0.121060	-1.340756	-0.318726
C33	C	0.121060	-1.340737	0.569936
C34	C	0.121057	-1.340723	0.430259
H35	H	-0.308200	-1.142657	0.000181
C36	C	-0.328512	-1.457806	-0.215997
C37	C	-0.363325	-1.582843	-0.239396
C38	C	-0.335835	-1.645246	-0.354646
C39	C	-0.273532	-1.582612	-0.446498
C40	C	-0.238715	-1.457568	-0.423102
C41	C	-0.266205	-1.395165	-0.307852
H42	H	-0.409449	-1.629215	-0.171399
H43	H	-0.361608	-1.737813	-0.371964
H44	H	-0.253182	-1.628807	-0.531813
H45	H	-0.192591	-1.411196	-0.491099
H46	H	-0.240431	-1.302599	-0.290534
H47	H	-0.422199	-1.239789	0.186295
C48	C	-0.461011	-1.570788	0.000250
C49	C	-0.446228	-1.652100	0.107075
C50	C	-0.490475	-1.774775	0.107158
C51	C	-0.549505	-1.816137	0.000417
C52	C	-0.564291	-1.734823	-0.106416
C53	C	-0.520044	-1.612148	-0.106499
H54	H	-0.402528	-1.621483	0.186098
H55	H	-0.479530	-1.834968	0.186242
H56	H	-0.582260	-1.906948	0.000478
H57	H	-0.607991	-1.765441	-0.185439
H58	H	-0.530989	-1.551955	-0.185584
C59	C	-0.429275	-1.223601	-0.216015
C60	C	-0.395630	-1.097930	-0.238162
C61	C	-0.423043	-1.035454	-0.353400
C62	C	-0.484102	-1.098648	-0.446491
C63	C	-0.517750	-1.224325	-0.424346
C64	C	-0.490337	-1.286802	-0.309108
H65	H	-0.350428	-1.051144	-0.169248
H66	H	-0.398134	-0.942419	-0.369793
H67	H	-0.504395	-1.052399	-0.531798
H68	H	-0.562953	-1.271112	-0.493260
H69	H	-0.515247	-1.379837	-0.292716
H70	H	-0.335831	-1.441556	0.186497
