data_functionalizedCrystal
_audit_creation_method	'MofGen! by Chris Wilmer'
_symmetry_space_group_name_H-M	'P1'
_symmetry_Int_Tables_number	1
_symmetry_cell_setting	triclinic
loop_
_symmetry_equiv_pos_as_xyz
  x,y,z
_cell_length_a	10.654550
_cell_length_b	19.188930
_cell_length_c	9.730223
_cell_angle_alpha	89.993564
_cell_angle_beta	89.996251
_cell_angle_gamma	83.814841
loop_
_atom_site_label
_atom_site_type_symbol
_atom_site_fract_x
_atom_site_fract_y
_atom_site_fract_z
O1	O	1.665759	0.098059	-0.114420
O2	O	1.300083	0.107401	-0.114400
O3	O	1.493474	0.001144	-0.114384
O4	O	1.472368	0.204317	-0.114436
O5	O	1.493471	0.001146	0.114196
O6	O	1.300081	0.107404	0.114180
O7	O	1.665757	0.098061	0.114160
Zn8	Zn	1.482918	0.102733	0.150462
Zn9	Zn	1.482921	0.102730	-0.150702
O10	O	1.472366	0.204319	0.114144
C11	C	1.253298	0.106717	-0.000107
C12	C	1.113898	0.104664	-0.000098
C13	C	1.033089	0.167227	-0.000134
C14	C	0.902109	0.165295	-0.000157
C15	C	0.932761	0.038231	-0.000114
C16	C	1.063738	0.040164	-0.000081
C17	C	1.083249	0.231728	-0.000151
C18	C	1.002438	0.294296	-0.000189
C19	C	0.871458	0.292363	-0.000212
C20	C	0.821289	0.227863	-0.000198
C21	C	1.492789	-0.024871	-0.000090
C22	C	1.490737	-0.102389	-0.000078
C23	C	1.604213	-0.146570	-0.000078
C24	C	1.602285	-0.219407	-0.000099
C25	C	1.486876	-0.248058	-0.000094
C26	C	1.373386	-0.203867	-0.000102
C27	C	1.375316	-0.131032	-0.000094
N28	N	1.398658	-0.356639	0.077701
N29	N	1.396832	-0.425830	0.077696
C30	C	1.481052	-0.467505	-0.000121
N31	N	1.567186	-0.437377	-0.077917
N32	N	1.569016	-0.368180	-0.077906
C33	C	1.484770	-0.327034	-0.000104
C34	C	1.592445	-0.590665	-0.000147
C35	C	1.590513	-0.663502	-0.000177
C36	C	1.361610	-0.647960	-0.000166
C37	C	1.363545	-0.575125	-0.000149
C38	C	1.478966	-0.546481	-0.000133
C39	C	1.712541	0.098746	-0.000136
C40	C	1.851941	0.100798	-0.000154
C41	C	1.473051	0.230334	-0.000153
C42	C	1.475102	0.307852	-0.000174
N43	N	1.482925	0.102735	0.355998
N44	N	1.482924	0.102722	-0.356238
C45	C	1.568581	0.055700	0.427932
C46	C	1.568577	0.055692	0.571815
C47	C	1.397260	0.149759	0.571818
C48	C	1.397258	0.149764	0.427938
C49	C	1.654248	0.008672	0.355992
C50	C	1.739911	-0.038367	0.427925
C51	C	1.739908	-0.038375	0.571808
C52	C	1.654242	0.008655	0.643758
H53	H	0.805665	0.343309	-0.000229
C54	C	1.131966	0.370183	-0.117702
C55	C	1.057574	0.365194	-0.000206
H56	H	1.165994	0.413956	-0.117714
H57	H	1.198837	0.333206	-0.117668
H58	H	1.081510	0.366782	-0.197410
H59	H	1.108033	0.368589	0.079502
H60	H	0.990694	0.402182	-0.000227
H61	H	1.282908	-0.095058	-0.000094
C62	C	0.625346	0.259676	-0.117748
C63	C	0.677314	0.225734	-0.000224
H64	H	0.536465	0.258357	-0.117771
H65	H	0.643648	0.307037	-0.117742
H66	H	0.660668	0.236643	-0.197437
H67	H	0.641998	0.248770	0.079465
H68	H	0.659000	0.178364	-0.000218
C69	C	1.268792	-0.308618	-0.000088
C70	C	1.246525	-0.235357	-0.000090
H71	H	1.190469	-0.328056	-0.000077
H72	H	1.315493	-0.323737	-0.079796
H73	H	1.315500	-0.323744	0.079627
H74	H	1.199825	-0.220231	-0.079810
H75	H	1.199805	-0.220232	0.079626
C76	C	1.767639	-0.133260	0.266181
C77	C	1.834041	-0.090090	0.348873
H78	H	1.825746	-0.165198	0.217385
H79	H	1.715492	-0.158618	0.322335
H80	H	1.716659	-0.105239	0.202726
H81	H	1.885014	-0.118111	0.412336
H82	H	1.886209	-0.064730	0.292715
C83	C	0.918596	-0.070668	-0.117598
C84	C	0.877620	-0.032666	-0.000114
H85	H	0.884561	-0.114439	-0.117595
H86	H	0.890853	-0.044881	-0.197306
H87	H	1.008168	-0.078466	-0.117555
H88	H	0.788048	-0.024863	-0.000162
H89	H	0.905357	-0.058458	0.079614
H90	H	1.654261	0.008676	0.238835
H91	H	1.686428	-0.567342	-0.000140
C92	C	1.232925	-0.484196	-0.117639
C93	C	1.238806	-0.526557	-0.000137
H94	H	1.155908	-0.454216	-0.117636
H95	H	1.301925	-0.456711	-0.117627
H96	H	1.236934	-0.512934	-0.197343
H97	H	1.234806	-0.497819	0.079568
H98	H	1.169787	-0.554043	-0.000137
H99	H	1.129536	-0.010780	-0.000055
H100	H	1.698197	-0.123254	-0.000069
H101	H	1.682922	-0.699475	-0.000185
C102	C	1.828740	-0.227461	-0.000074
C103	C	1.727026	-0.267983	-0.000089
H104	H	1.905747	-0.257450	-0.000058
H105	H	1.824746	-0.198727	-0.079779
H106	H	1.824716	-0.198732	0.079643
H107	H	1.731044	-0.296709	-0.079812
H108	H	1.731021	-0.296729	0.079624
H109	H	1.809649	-0.076680	0.630375
C110	C	1.629266	-0.057275	0.849866
C111	C	1.654229	0.008642	0.801917
H112	H	1.629268	-0.057281	0.947505
H113	H	1.549070	-0.067235	0.817318
H114	H	1.692546	-0.092011	0.817308
H115	H	1.590943	0.043377	0.834467
H116	H	1.734436	0.018611	0.834479
H117	H	1.267641	-0.671287	-0.000168
H118	H	1.327515	0.188050	0.630409
C119	C	1.322847	0.270252	0.383609
C120	C	1.303114	0.201467	0.348852
H121	H	1.264726	0.302169	0.334775
H122	H	1.310578	0.276980	0.479581
H123	H	1.406615	0.278260	0.360019
H124	H	1.219347	0.193458	0.372452
H125	H	1.315372	0.194737	0.252859
H126	H	1.189898	0.233309	-0.000138
