data_functionalizedCrystal
_audit_creation_method	'MofGen! by Chris Wilmer'
_symmetry_space_group_name_H-M	'P1'
_symmetry_Int_Tables_number	1
_symmetry_cell_setting	triclinic
loop_
_symmetry_equiv_pos_as_xyz
  x,y,z
_cell_length_a	14.044220
_cell_length_b	14.472310
_cell_length_c	14.044220
_cell_angle_alpha	89.998762
_cell_angle_beta	86.811122
_cell_angle_gamma	90.008418
loop_
_atom_site_label
_atom_site_type_symbol
_atom_site_fract_x
_atom_site_fract_y
_atom_site_fract_z
O1	O	1.277180	0.076746	-0.230162
O2	O	1.610513	0.410080	0.103171
O3	O	1.943847	0.743413	0.436505
O4	O	1.000508	0.076770	-0.221856
O5	O	1.333842	0.410103	0.111477
O6	O	1.667175	0.743436	0.444810
O7	O	1.134691	0.076749	-0.087673
O8	O	1.468025	0.410083	0.245660
O9	O	1.801358	0.743416	0.578993
O10	O	1.142997	0.076767	-0.364345
O11	O	1.476330	0.410100	-0.031012
O12	O	1.809664	0.743433	0.302322
O13	O	1.134654	-0.076933	-0.087679
O14	O	1.467988	0.256401	0.245655
O15	O	1.801321	0.589734	0.578988
O16	O	1.000471	-0.076912	-0.221862
O17	O	1.333805	0.256421	0.111472
O18	O	1.667138	0.589754	0.444805
O19	O	1.277143	-0.076936	-0.230167
O20	O	1.610476	0.256398	0.103166
O21	O	1.943810	0.589731	0.436499
Cu22	Cu	1.138804	-0.090956	-0.226015
Cu23	Cu	1.472137	0.242377	0.107318
Cu24	Cu	1.805470	0.575710	0.440652
Cu25	Cu	1.138848	0.090790	-0.226009
Cu26	Cu	1.472181	0.424124	0.107325
Cu27	Cu	1.805514	0.757457	0.440658
O28	O	1.142960	-0.076915	-0.364350
O29	O	1.476293	0.256418	-0.031017
O30	O	1.809627	0.589751	0.302316
C31	C	0.964868	-0.000069	-0.218223
C32	C	1.298201	0.333265	0.115110
C33	C	1.631535	0.666598	0.448443
C34	C	0.858725	-0.000060	-0.207379
C35	C	1.192059	0.333273	0.125955
C36	C	1.525392	0.666607	0.459288
N37	N	1.138780	-0.218787	-0.226019
N38	N	1.472113	0.114546	0.107314
N39	N	1.805447	0.447879	0.440647
C40	C	0.664388	-0.000079	-0.187553
C41	C	0.997721	0.333254	0.145781
C42	C	1.331054	0.666587	0.479114
C43	C	0.613258	-0.000078	-0.264467
C44	C	0.946591	0.333255	0.068866
C45	C	1.279924	0.666588	0.402200
C46	C	0.505122	-0.000089	-0.253435
C47	C	0.838455	0.333244	0.079898
C48	C	1.171788	0.666577	0.413231
C49	C	0.772534	-0.000069	-0.198583
C50	C	1.105867	0.333265	0.134751
C51	C	1.439200	0.666598	0.468084
C52	C	1.138846	-0.592879	-0.226005
C53	C	1.472179	-0.259545	0.107329
C54	C	1.805513	0.073788	0.440662
C55	C	1.066762	-0.553702	-0.297518
C56	C	1.400095	-0.220368	0.035815
C57	C	1.733429	0.112965	0.369149
C58	C	1.066968	-0.446614	-0.297819
C59	C	1.400301	-0.113280	0.035515
C60	C	1.733634	0.220053	0.368848
C61	C	1.138812	-0.407287	-0.226012
C62	C	1.472146	-0.073954	0.107321
C63	C	1.805479	0.259379	0.440655
C64	C	1.240266	-0.446131	-0.256192
C65	C	1.573600	-0.112798	0.077141
C66	C	1.906933	0.220535	0.410475
C67	C	1.239871	-0.553253	-0.256710
C68	C	1.573205	-0.219920	0.076623
C69	C	1.906538	0.113414	0.409956
C70	C	1.110345	-0.553412	-0.124155
C71	C	1.443678	-0.220079	0.209178
C72	C	1.777012	0.113255	0.542512
C73	C	1.108117	-0.446285	-0.124630
C74	C	1.441450	-0.112951	0.208704
C75	C	1.774783	0.220382	0.542037
C76	C	1.138800	-0.302399	-0.226015
C77	C	1.472133	0.030934	0.107319
C78	C	1.805466	0.364267	0.440652
C79	C	1.138866	-0.697767	-0.226005
C80	C	1.472199	-0.364433	0.107329
C81	C	1.805532	-0.031100	0.440662
C82	C	1.312783	-0.000096	-0.233800
C83	C	1.646117	0.333238	0.099533
C84	C	1.979450	0.666571	0.432866
C85	C	1.418926	-0.000098	-0.244645
C86	C	1.752259	0.333235	0.088688
C87	C	2.085593	0.666569	0.422022
C88	C	1.131037	-0.000092	-0.052054
C89	C	1.464371	0.333241	0.281279
C90	C	1.797704	0.666575	0.614612
C91	C	1.120193	-0.000092	0.054088
C92	C	1.453526	0.333241	0.387422
C93	C	1.786859	0.666575	0.720755
N94	N	1.138878	0.218621	-0.225997
N95	N	1.472212	0.551955	0.107336
N96	N	1.805545	0.885288	0.440669
C97	C	1.146614	-0.000072	-0.399969
C98	C	1.479948	0.333261	-0.066636
C99	C	1.813281	0.666595	0.266697
C100	C	1.157459	-0.000066	-0.506112
C101	C	1.490792	0.333267	-0.172779
C102	C	1.824125	0.666601	0.160554
C103	C	1.100366	-0.000077	0.248426
C104	C	1.433700	0.333256	0.581759
C105	C	1.767033	0.666590	0.915093
C106	C	1.177281	-0.000081	0.299556
C107	C	1.510614	0.333253	0.632889
C108	C	1.843947	0.666586	0.966223
C109	C	1.166249	-0.000072	0.407692
C110	C	1.499582	0.333261	0.741026
C111	C	1.832916	0.666594	1.074359
C112	C	1.111397	-0.000085	0.140280
C113	C	1.444730	0.333248	0.473613
C114	C	1.778063	0.666581	0.806947
H115	H	0.650697	-0.000069	-0.338600
H116	H	0.984030	0.333264	-0.005267
H117	H	1.317364	0.666597	0.328066
H118	H	1.251414	-0.000025	0.262117
H119	H	1.584748	0.333308	0.595450
H120	H	1.918081	0.666642	0.928783
F121	F	1.003475	-0.000064	0.297359
F122	F	1.336808	0.333269	0.630692
F123	F	1.670141	0.666603	0.964025
F124	F	0.615455	-0.000088	-0.090661
F125	F	0.948788	0.333245	0.242673
F126	F	1.282122	0.666578	0.576006
H127	H	0.991826	-0.420352	-0.278595
H128	H	1.325160	-0.087019	0.054739
H129	H	1.658493	0.246314	0.388072
F130	F	1.171444	-0.411309	-0.050959
F131	F	1.504777	-0.077976	0.282374
F132	F	1.838110	0.255357	0.615708
F133	F	0.968250	-0.587383	-0.272633
F134	F	1.301584	-0.254050	0.060701
F135	F	1.634917	0.079284	0.394034
F136	F	1.091428	-0.588854	-0.395517
F137	F	1.424761	-0.255521	-0.062184
F138	F	1.758094	0.077813	0.271150
F139	F	1.091872	-0.413099	-0.396385
F140	F	1.425205	-0.079766	-0.063052
F141	F	1.758539	0.253567	0.270281
H142	H	1.263700	-0.578226	-0.331246
H143	H	1.597034	-0.244892	0.002087
H144	H	1.930367	0.088441	0.335421
F145	F	1.010512	-0.413103	-0.094947
F146	F	1.343845	-0.079770	0.238387
F147	F	1.677179	0.253563	0.571720
H148	H	1.295634	-0.579167	-0.207128
H149	H	1.628967	-0.245834	0.126205
H150	H	1.962301	0.087500	0.459539
H151	H	1.295538	-0.420656	-0.205843
H152	H	1.628871	-0.087323	0.127490
H153	H	1.962205	0.246011	0.460824
H154	H	1.264447	-0.419291	-0.329931
H155	H	1.597780	-0.085958	0.003403
H156	H	1.931114	0.247375	0.336736
F157	F	1.015135	-0.588759	-0.088969
F158	F	1.348468	-0.255425	0.244364
F159	F	1.681802	0.077908	0.577698
H160	H	1.162814	-0.578746	-0.070838
H161	H	1.496147	-0.245413	0.262496
H162	H	1.829480	0.087920	0.595829
