data_functionalizedCrystal
_audit_creation_method	'MofGen! by Chris Wilmer'
_symmetry_space_group_name_H-M	'P1'
_symmetry_Int_Tables_number	1
_symmetry_cell_setting	triclinic
loop_
_symmetry_equiv_pos_as_xyz
  x,y,z
_cell_length_a	12.759395
_cell_length_b	13.897447
_cell_length_c	13.897441
_cell_angle_alpha	90.028354
_cell_angle_beta	90.017364
_cell_angle_gamma	90.021067
loop_
_atom_site_label
_atom_site_type_symbol
_atom_site_fract_x
_atom_site_fract_y
_atom_site_fract_z
Zn1	Zn	1.606201	-0.383954	0.545358
Zn2	Zn	2.106201	0.116046	1.045358
Zn3	Zn	1.606086	-0.545273	0.384063
Zn4	Zn	2.106086	-0.045273	0.884063
Zn5	Zn	1.430509	-0.383998	0.384080
Zn6	Zn	1.930509	0.116002	0.884080
Zn7	Zn	1.430477	-0.545213	0.545319
Zn8	Zn	1.930477	-0.045213	1.045319
O9	O	1.518318	-0.464609	0.464705
O10	O	2.018318	0.035391	0.964705
O11	O	1.753207	-0.405360	0.523971
O12	O	2.253207	0.094640	1.023971
O13	O	1.582761	-0.523923	0.249084
O14	O	2.082761	-0.023923	0.749084
O15	O	1.453876	-0.249010	0.405497
O16	O	1.953876	0.250990	0.905497
O17	O	1.753123	-0.523880	0.405468
O18	O	2.253123	-0.023880	0.905468
O19	O	1.582956	-0.248978	0.523987
O20	O	2.082956	0.251022	1.023987
O21	O	1.453765	-0.405435	0.249096
O22	O	1.953765	0.094565	0.749096
O23	O	1.283483	-0.405377	0.405459
O24	O	1.783483	0.094623	0.905459
O25	O	1.453821	-0.523778	0.680306
O26	O	1.953821	-0.023778	1.180306
O27	O	1.283460	-0.523821	0.523921
O28	O	1.783460	-0.023821	1.023921
O29	O	1.582925	-0.405302	0.680335
O30	O	2.082925	0.094698	1.180335
O31	O	1.582730	-0.680247	0.405431
O32	O	2.082730	-0.180247	0.905431
O33	O	1.453710	-0.680202	0.523905
O34	O	1.953710	-0.180202	1.023905
C35	C	1.245351	-0.464598	0.464688
C36	C	1.745351	0.035402	0.964688
C37	C	1.128574	-0.464616	0.464704
C38	C	1.628574	0.035384	0.964704
C39	C	1.128588	-0.588151	0.587859
C40	C	1.628588	-0.088151	1.087859
C41	C	1.073734	-0.649926	0.649439
C42	C	1.573734	-0.149926	1.149439
C43	C	0.964013	-0.649938	0.649451
C44	C	1.464013	-0.149938	1.149451
C45	C	0.909142	-0.588166	0.587878
C46	C	1.409142	-0.088166	1.087878
C47	C	0.963996	-0.526391	0.526298
C48	C	1.463996	-0.026391	1.026298
C49	C	1.073720	-0.526388	0.526291
C50	C	1.573720	-0.026388	1.026291
C51	C	0.963982	-0.402852	0.403149
C52	C	1.463982	0.097148	0.903149
C53	C	1.073704	-0.402844	0.403131
C54	C	1.573704	0.097156	0.903131
C55	C	0.909112	-0.341080	0.341577
C56	C	1.409112	0.158920	0.841577
C57	C	0.963965	-0.279308	0.279990
C58	C	1.463965	0.220692	0.779990
C59	C	1.073694	-0.279299	0.279980
C60	C	1.573694	0.220701	0.779980
C61	C	1.128557	-0.341068	0.341551
C62	C	1.628557	0.158932	0.841551
C63	C	1.518233	-0.715224	0.464683
C64	C	2.018233	-0.215224	0.964683
C65	C	1.518292	-0.822438	0.464705
C66	C	2.018292	-0.322438	0.964705
C67	C	1.518343	-0.909507	0.464727
C68	C	2.018343	-0.409507	0.964727
C69	C	1.518417	-1.018740	0.464752
C70	C	2.018417	-0.518740	0.964752
C71	C	1.792351	-0.464622	0.464722
C72	C	2.292351	0.035378	0.964722
C73	C	1.909128	-0.464627	0.464730
C74	C	2.409128	0.035373	0.964730
C75	C	1.518382	-0.464528	0.716298
C76	C	2.018382	0.035472	1.216298
C77	C	1.518410	-0.464494	0.823512
C78	C	2.018410	0.035506	1.323512
C79	C	1.518432	-0.213016	0.464749
C80	C	2.018432	0.286984	0.964749
C81	C	1.518481	-0.105802	0.464767
C82	C	2.018481	0.394198	0.964767
C83	C	1.518314	-0.464620	0.214091
C84	C	2.018314	0.035380	0.714091
C85	C	1.518491	-0.464383	0.106877
C86	C	2.018491	0.035617	0.606877
C87	C	1.518431	-0.464467	0.910582
C88	C	2.018431	0.035533	1.410582
C89	C	1.518461	-0.464423	1.019815
C90	C	2.018461	0.035577	1.519815
H91	H	0.819801	-0.588173	0.587901
H92	H	1.319801	-0.088173	1.087901
H93	H	0.919351	-0.700236	0.699599
H94	H	1.419351	-0.200236	1.199599
Cl95	Cl	1.266525	-0.588155	0.587835
Cl96	Cl	1.766525	-0.088155	1.087835
Cl97	Cl	1.266494	-0.341067	0.341540
Cl98	Cl	1.766494	0.158933	0.841540
H99	H	0.819770	-0.341090	0.341595
H100	H	1.319770	0.158910	0.841595
Cl101	Cl	1.142643	-0.201629	0.202565
Cl102	Cl	1.642643	0.298371	0.702565
Cl103	Cl	1.142718	-0.727585	0.726834
Cl104	Cl	1.642718	-0.227585	1.226834
Cl105	Cl	0.894981	-0.201654	0.202600
Cl106	Cl	1.394981	0.298346	0.702600
