data_functionalizedCrystal
_audit_creation_method	'MofGen! by Chris Wilmer'
_symmetry_space_group_name_H-M	'P1'
_symmetry_Int_Tables_number	1
_symmetry_cell_setting	triclinic
loop_
_symmetry_equiv_pos_as_xyz
  x,y,z
_cell_length_a	8.559649
_cell_length_b	17.699083
_cell_length_c	16.776229
_cell_angle_alpha	89.998886
_cell_angle_beta	89.994739
_cell_angle_gamma	76.530840
loop_
_atom_site_label
_atom_site_type_symbol
_atom_site_fract_x
_atom_site_fract_y
_atom_site_fract_z
O1	O	0.202110	0.992507	-0.066174
O2	O	0.228404	0.770623	-0.066200
O3	O	-0.017421	0.901113	-0.066184
O4	O	0.447935	0.862017	-0.066190
O5	O	-0.017436	0.901098	0.066393
O6	O	0.228389	0.770608	0.066377
O7	O	0.202095	0.992492	0.066403
Zn8	Zn	0.215240	0.881548	0.087439
Zn9	Zn	0.215259	0.881567	-0.087236
O10	O	0.447920	0.862002	0.066387
C11	C	0.227455	0.742473	0.000085
C12	C	0.224628	0.658616	0.000075
C13	C	0.368922	0.601734	0.000074
C14	C	0.366257	0.522943	0.000084
C15	C	0.219296	0.501037	0.000090
C16	C	0.074990	0.557926	0.000094
C17	C	0.077657	0.636715	0.000090
C18	C	0.064231	0.240179	0.000114
C19	C	0.061575	0.161383	0.000116
C20	C	0.352831	0.126407	0.000108
C21	C	0.355498	0.205196	0.000104
C22	C	0.211193	0.262078	0.000112
C23	C	0.214085	0.347512	0.000102
C24	C	0.216402	0.415605	0.000094
C25	C	-0.076970	0.904069	0.000103
C26	C	-0.254384	0.912888	0.000100
C27	C	0.507469	0.859047	0.000098
C28	C	0.684883	0.850227	0.000096
C29	C	0.203044	1.020643	0.000116
C30	C	0.205871	1.104499	0.000120
N31	N	0.215225	0.881540	0.206650
N32	N	0.215261	0.881581	-0.206447
C33	C	0.106418	0.939335	0.248374
C34	C	0.106417	0.939339	0.331827
C35	C	0.215231	0.881552	0.373553
C36	C	0.324043	0.823752	0.331823
C37	C	0.324036	0.823745	0.248372
C38	C	0.324075	0.823777	0.668370
C39	C	0.324077	0.823790	0.751827
C40	C	0.106456	0.939371	0.751824
C41	C	0.106448	0.939364	0.668374
C42	C	0.215254	0.881563	0.626651
C43	C	0.215252	0.881558	0.536163
C44	C	0.215242	0.881559	0.464040
H45	H	0.488595	0.619562	0.000068
H46	H	-0.338124	0.973285	0.000113
H47	H	0.017855	0.986435	0.785804
H48	H	0.017816	0.986394	0.214406
C49	C	0.358982	0.718704	0.154540
C50	C	0.443642	0.760216	0.202507
H51	H	0.432824	0.679479	0.126230
H52	H	0.294191	0.753117	0.117751
H53	H	0.292533	0.695352	0.187114
H54	H	0.510083	0.783573	0.169933
H55	H	0.508461	0.725797	0.239300
C56	C	-0.108654	1.053606	0.323442
C57	C	-0.013163	1.002878	0.377690
H58	H	-0.182468	1.092838	0.351758
H59	H	-0.166082	1.025446	0.290907
H60	H	-0.042167	1.076947	0.290880
H61	H	-0.079649	0.979533	0.410248
H62	H	0.044270	1.031042	0.410239
H63	H	0.412690	0.776729	0.785799
H64	H	-0.231386	0.789834	0.000091
C65	C	-0.183197	0.294237	-0.068037
C66	C	-0.094389	0.302696	0.000115
H67	H	-0.281123	0.332838	-0.068038
H68	H	-0.205799	0.244181	-0.068030
H69	H	-0.122903	0.299968	-0.114265
H70	H	-0.154678	0.296958	0.046343
H71	H	-0.071791	0.352763	0.000115
H72	H	-0.058106	0.143552	0.000123
H73	H	0.475168	0.223027	0.000095
H74	H	0.017847	0.986422	0.634403
H75	H	0.412671	0.776714	0.634406
H76	H	0.470330	0.080083	0.000106
C77	C	-0.058428	0.452680	0.000098
C78	C	-0.086555	0.533848	0.000100
H79	H	-0.158164	0.437819	0.000094
H80	H	0.000954	0.432588	0.046327
H81	H	0.000979	0.432589	-0.046138
H82	H	-0.145952	0.553940	0.046339
H83	H	-0.145962	0.553949	-0.046134
H84	H	0.412637	0.776697	0.365802
H85	H	-0.039842	0.683029	0.000091
C86	C	0.613687	0.468870	-0.068084
C87	C	0.524873	0.460419	0.000076
H88	H	0.711610	0.430267	-0.068089
H89	H	0.636295	0.518925	-0.068085
H90	H	0.553394	0.463137	-0.114306
H91	H	0.585161	0.466158	0.046298
H92	H	0.502269	0.410352	0.000084
