data_functionalizedCrystal
_audit_creation_method	'MofGen! by Chris Wilmer'
_symmetry_space_group_name_H-M	'P1'
_symmetry_Int_Tables_number	1
_symmetry_cell_setting	triclinic
loop_
_symmetry_equiv_pos_as_xyz
  x,y,z
_cell_length_a	16.992694
_cell_length_b	10.654551
_cell_length_c	16.053802
_cell_angle_alpha	92.592286
_cell_angle_beta	87.249047
_cell_angle_gamma	87.576826
loop_
_atom_site_label
_atom_site_type_symbol
_atom_site_fract_x
_atom_site_fract_y
_atom_site_fract_z
O1	O	1.045117	0.261481	-0.069319
O2	O	0.816817	0.258556	-0.069344
O3	O	0.936215	0.077733	-0.069329
O4	O	0.925718	0.442304	-0.069334
O5	O	0.929643	0.087643	0.069529
O6	O	0.810244	0.268466	0.069514
O7	O	1.038544	0.271391	0.069539
Zn8	Zn	0.923351	0.271501	0.091573
Zn9	Zn	0.932010	0.258446	-0.091378
O10	O	0.919146	0.452214	0.069524
C11	C	0.784298	0.259751	0.000082
C12	C	0.697193	0.248531	0.000073
C13	C	0.647541	0.356781	0.000072
C14	C	0.565697	0.346233	0.000084
C15	C	0.533506	0.227432	0.000090
C16	C	0.583163	0.119174	0.000093
C17	C	0.665006	0.129724	0.000088
C18	C	0.289669	0.183707	0.000113
C19	C	0.207820	0.173165	0.000116
C20	C	0.190359	0.400226	0.000108
C21	C	0.272204	0.410765	0.000097
C22	C	0.321855	0.302506	0.000105
N23	N	0.449848	0.216647	0.000099
N24	N	0.405511	0.313293	0.000102
C25	C	0.932158	0.035823	0.000099
C26	C	0.929852	-0.103819	0.000094
C27	C	0.932352	-0.174818	-0.075598
C28	C	0.930178	-0.306027	-0.075599
C29	C	0.923007	-0.295225	0.075792
C30	C	0.925175	-0.164019	0.075792
C31	C	0.885639	-0.486810	-0.166543
C32	C	0.888153	-0.557815	-0.242240
C33	C	0.937911	-0.525017	-0.309064
C34	C	0.985175	-0.421218	-0.300195
C35	C	0.982668	-0.350220	-0.224497
C36	C	0.932892	-0.383014	-0.157676
C37	C	0.969721	0.016765	0.166731
C38	C	0.967220	0.087765	0.242429
C39	C	0.917466	0.054969	0.309261
C40	C	0.870213	-0.048835	0.300400
C41	C	0.872714	-0.119834	0.224702
C42	C	0.922467	-0.087029	0.157870
C43	C	1.071063	0.270196	0.000111
C44	C	1.158168	0.281416	0.000115
C45	C	0.923203	0.494123	0.000095
C46	C	0.925510	0.633766	0.000093
N47	N	0.917447	0.280411	0.216433
N48	N	0.937920	0.249526	-0.216238
C49	C	0.968270	0.203502	0.260133
C50	C	0.964147	0.209747	0.347539
C51	C	0.909205	0.292909	0.391244
C52	C	0.858377	0.369822	0.347538
C53	C	0.862496	0.363569	0.260133
C54	C	0.891211	0.320186	0.652651
C55	C	0.887097	0.326436	0.740062
C56	C	0.992868	0.166359	0.740058
C57	C	0.996985	0.160119	0.652652
C58	C	0.946154	0.237026	0.608953
N59	N	0.904992	0.299298	0.480587
N60	N	0.950364	0.230631	0.519611
H61	H	0.149925	0.488363	0.000103
H62	H	0.936157	-0.125808	-0.137236
H63	H	0.705432	0.041574	0.000088
H64	H	0.330085	0.095555	0.000120
H65	H	1.041724	0.092402	0.617069
Cl66	Cl	0.827314	0.416873	0.597722
Cl67	Cl	0.542694	-0.030176	0.000107
Cl68	Cl	0.813312	-0.250336	0.213563
Cl69	Cl	0.789301	0.474364	0.402478
Cl70	Cl	0.798598	0.460256	0.205196
H71	H	1.021151	-0.265710	-0.217276
Cl72	Cl	1.047741	-0.380005	-0.384205
Cl73	Cl	1.028040	0.113058	0.402478
H74	H	0.939957	-0.582838	-0.370698
H75	H	0.181614	0.076419	0.000120
Cl76	Cl	0.688002	0.506138	0.000058
Cl77	Cl	0.828734	-0.688297	-0.253389
Cl78	Cl	0.917129	-0.370914	0.170949
Cl79	Cl	0.823067	-0.528034	-0.082541
H80	H	0.915440	0.112782	0.370901
Cl81	Cl	0.503281	0.482327	0.000077
Cl82	Cl	0.312667	0.560120	0.000083
Cl83	Cl	0.807667	-0.090076	0.384420
Cl84	Cl	1.026633	0.218253	0.253572
Cl85	Cl	1.037348	0.098956	0.205200
H86	H	1.034251	0.103743	0.775645
Cl87	Cl	1.032288	0.057984	0.082719
Cl88	Cl	0.818021	0.430995	0.794999
