data_functionalizedCrystal
_audit_creation_method	'MofGen! by Chris Wilmer'
_symmetry_space_group_name_H-M	'P1'
_symmetry_Int_Tables_number	1
_symmetry_cell_setting	triclinic
loop_
_symmetry_equiv_pos_as_xyz
  x,y,z
_cell_length_a	17.699083
_cell_length_b	19.288840
_cell_length_c	16.176319
_cell_angle_alpha	89.989074
_cell_angle_beta	90.005533
_cell_angle_gamma	83.204515
loop_
_atom_site_label
_atom_site_type_symbol
_atom_site_fract_x
_atom_site_fract_y
_atom_site_fract_z
O1	O	0.094313	0.921472	-0.068886
O2	O	0.107070	0.719224	-0.068858
O3	O	-0.009506	0.826062	-0.068866
O4	O	0.210890	0.814634	-0.068879
O5	O	-0.009485	0.826051	0.068628
O6	O	0.107091	0.719213	0.068635
O7	O	0.094335	0.921461	0.068607
Cu8	Cu	0.100715	0.820336	0.081175
Cu9	Cu	0.100690	0.820349	-0.081426
O10	O	0.210911	0.814623	0.068615
C11	C	0.106673	0.693341	-0.000108
C12	C	0.105451	0.616235	-0.000096
C13	C	0.104852	0.580037	-0.075046
C14	C	0.103695	0.507588	-0.075056
C15	C	0.103121	0.471343	-0.000112
C16	C	0.103724	0.507550	0.074847
C17	C	0.104889	0.579996	0.074855
C18	C	0.056952	0.361957	0.057296
C19	C	0.055783	0.289513	0.057285
C20	C	0.099531	0.247895	-0.000134
C21	C	0.144440	0.278732	-0.057555
C22	C	0.145605	0.351178	-0.057548
C23	C	0.101858	0.392788	-0.000113
C24	C	0.097679	0.133140	-0.075099
C25	C	0.096526	0.060690	-0.075106
C26	C	0.096548	0.060654	0.074799
C27	C	0.097708	0.133102	0.074804
C28	C	0.098270	0.169341	-0.000148
C29	C	-0.037692	0.825647	-0.000119
C30	C	-0.121708	0.824418	-0.000118
C31	C	-0.170423	0.887130	-0.000126
C32	C	-0.249365	0.885972	-0.000133
C33	C	-0.279590	0.822101	-0.000127
C34	C	-0.230868	0.759384	-0.000121
C35	C	-0.151928	0.760544	-0.000120
C36	C	-0.549224	0.754708	-0.000128
C37	C	-0.628171	0.753554	-0.000126
C38	C	-0.646661	0.880136	-0.000140
C39	C	-0.567721	0.881296	-0.000139
C40	C	-0.519006	0.818580	-0.000138
C41	C	-0.433409	0.819836	-0.000132
C42	C	-0.365185	0.820843	-0.000127
C43	C	0.239096	0.815038	-0.000134
C44	C	0.323113	0.816266	-0.000140
C45	C	0.094731	0.947344	-0.000145
C46	C	0.095954	1.024450	-0.000162
N47	N	0.100732	0.820333	0.195541
N48	N	0.100667	0.820357	-0.195791
C49	C	0.054889	0.778309	0.760940
C50	C	0.054895	0.778308	0.674393
C51	C	0.100683	0.820351	0.631116
C52	C	0.146463	0.862405	0.674391
C53	C	0.146452	0.862409	0.760936
C54	C	0.146505	0.862387	0.325363
C55	C	0.146514	0.862378	0.238811
C56	C	0.054948	0.778286	0.238819
C57	C	0.054938	0.778291	0.325364
C58	C	0.100714	0.820346	0.368632
C59	C	0.100706	0.820348	0.462476
C60	C	0.100696	0.820346	0.537273
H61	H	0.180067	0.244848	-0.104309
H62	H	0.017673	0.744044	0.203580
Cl63	Cl	-0.666166	0.673253	-0.000120
H64	H	-0.509570	0.703641	-0.000127
H65	H	0.103259	0.478035	0.135867
Cl66	Cl	0.204059	0.915252	0.379745
H67	H	0.098144	0.162646	-0.136129
Cl68	Cl	0.102941	0.462072	-0.169286
H69	H	0.183741	0.896641	0.639148
Cl70	Cl	0.204081	0.915237	0.184407
Cl71	Cl	0.204000	0.915275	0.815332
Cl72	Cl	0.095780	0.015181	-0.169338
Cl73	Cl	0.095835	0.015095	0.169016
H74	H	0.105309	0.609538	-0.136078
Cl75	Cl	-0.002673	0.725448	0.815336
H76	H	0.098191	0.162576	0.135836
Cl77	Cl	-0.310604	0.964813	-0.000140
Cl78	Cl	-0.000654	0.250751	0.129488
Cl79	Cl	0.202062	0.389942	-0.129728
H80	H	0.021325	0.395836	0.104058
H81	H	-0.145821	0.939141	-0.000126
H82	H	0.105377	0.609469	0.135890
H83	H	0.017655	0.744052	0.360596
H84	H	-0.543117	0.933306	-0.000140
Cl85	Cl	-0.707907	0.958981	-0.000145
H86	H	-0.255483	0.707380	-0.000121
H87	H	-0.112264	0.709477	-0.000114
Cl88	Cl	-0.002633	0.725422	0.620001
