data_functionalizedCrystal
_audit_creation_method	'MofGen! by Chris Wilmer'
_symmetry_space_group_name_H-M	'P1'
_symmetry_Int_Tables_number	1
_symmetry_cell_setting	triclinic
loop_
_symmetry_equiv_pos_as_xyz
  x,y,z
_cell_length_a	26.455835
_cell_length_b	26.455273
_cell_length_c	26.451828
_cell_angle_alpha	60.005170
_cell_angle_beta	60.010757
_cell_angle_gamma	59.993435
loop_
_atom_site_label
_atom_site_type_symbol
_atom_site_fract_x
_atom_site_fract_y
_atom_site_fract_z
O1	O	0.069940	-0.738516	0.617604
O2	O	0.026299	-0.574986	0.497618
O3	O	0.129847	-0.678463	0.497546
O4	O	-0.033607	-0.635040	0.617676
O5	O	0.164197	-0.644116	0.531822
O6	O	0.060649	-0.540639	0.531894
O7	O	0.104290	-0.704170	0.651880
Cu8	Cu	0.085606	-0.619268	0.595016
Cu9	Cu	0.044984	-0.659887	0.554481
O10	O	0.000742	-0.600693	0.651952
N11	N	0.114179	-0.590703	0.623530
N12	N	0.016416	-0.688458	0.525968
C13	C	0.157553	-0.547535	0.933368
C14	C	0.424104	-0.547506	0.666656
C15	C	0.157413	-0.547503	0.666729
C16	C	0.157397	-0.280846	0.666749
C17	C	0.200330	-0.409550	0.709625
C18	C	0.200339	-0.504608	0.709615
C19	C	0.224118	-0.480848	0.733375
C20	C	0.327800	-0.462984	0.678792
C21	C	0.392611	-0.484588	0.657175
C22	C	0.392630	-0.589450	0.697162
C23	C	0.327821	-0.567844	0.718781
C24	C	0.215955	-0.377135	0.645910
C25	C	0.194327	-0.312320	0.624323
C26	C	0.141457	-0.312339	0.730169
C27	C	0.163084	-0.377154	0.751756
C28	C	0.136618	-0.488954	0.725292
C29	C	0.115007	-0.510553	0.703686
C30	C	0.220833	-0.563461	0.650740
C31	C	0.242447	-0.541861	0.672339
C32	C	0.136680	-0.488971	0.837094
C33	C	0.115112	-0.510589	0.901907
C34	C	0.220969	-0.563508	0.901868
C35	C	0.242535	-0.541892	0.837053
C36	C	0.200389	-0.504622	0.804668
C37	C	0.295409	-0.504610	0.709593
C38	C	0.132990	-0.570876	1.004655
C39	C	0.495389	-0.570440	0.642547
C40	C	0.132802	-0.570856	0.643399
C41	C	0.133212	-0.209553	0.643833
C42	C	-0.097217	-0.706972	0.506986
C43	C	-0.002040	-0.707108	0.412067
C44	C	-0.002230	-0.802124	0.507163
C45	C	-0.002214	-0.707101	0.507221
C46	C	-0.025925	-0.730827	0.483360
N47	N	0.553723	-0.590712	0.623415
O48	O	0.751638	-0.596429	0.475603
O49	O	0.751819	-0.716773	0.638980
O50	O	0.751753	-0.716500	0.535361
O51	O	0.751705	-0.596703	0.579222
O52	O	0.648791	-0.682239	0.569747
O53	O	0.648858	-0.682512	0.673366
O54	O	0.648676	-0.562169	0.509989
Cu55	Cu	0.639366	-0.619212	0.594817
Cu56	Cu	0.761130	-0.659729	0.554152
O57	O	0.648743	-0.562442	0.613609
N58	N	0.846773	-0.688230	0.525548
N59	N	0.114157	-0.151217	0.623565
O60	O	-0.033591	0.046803	0.617717
O61	O	0.129795	0.046806	0.497390
O62	O	0.026157	0.046789	0.497680
O63	O	0.070046	0.046819	0.617427
O64	O	0.060509	-0.056181	0.532004
O65	O	0.164146	-0.056164	0.531714
O66	O	0.000760	-0.056167	0.652041
Cu67	Cu	0.085590	-0.065568	0.595012
Cu68	Cu	0.044965	0.056206	0.554419
O69	O	0.104397	-0.056151	0.651751
N70	N	0.016390	0.141855	0.525867
N71	N	0.114410	-0.590756	1.062992
O72	O	0.108565	-0.738494	1.260998
O73	O	-0.011747	-0.575059	1.261012
O74	O	-0.011470	-0.678679	1.260970
O75	O	0.108287	-0.634874	1.261040
O76	O	0.022849	-0.644347	1.158004
O77	O	0.022572	-0.540726	1.158046
O78	O	0.142884	-0.704162	1.158033
Cu79	Cu	0.085861	-0.619309	1.148638
Cu80	Cu	0.045275	-0.659911	1.270406
O81	O	0.142606	-0.600541	1.158074
N82	N	0.016726	-0.688471	1.356052
C83	C	0.039385	-0.537207	0.498225
C84	C	0.167616	-0.665350	0.498136
C85	C	0.091204	-0.741950	0.651272
C86	C	-0.037027	-0.613806	0.651361
C87	C	0.700360	-0.716215	0.676756
C88	C	0.700279	-0.715877	0.548436
C89	C	0.700133	-0.562725	0.472214
C90	C	0.700218	-0.563065	0.600533
C91	C	0.167511	-0.004552	0.497940
C92	C	0.039211	-0.004699	0.498341
C93	C	-0.036999	-0.004682	0.651449
C94	C	0.091344	-0.004663	0.651090
C95	C	-0.011156	-0.537302	1.209530
C96	C	-0.010806	-0.665617	1.209458
C97	C	0.142293	-0.741918	1.209514
C98	C	0.141950	-0.613596	1.209563
H99	H	0.063231	-0.497836	0.928300
C100	C	0.026832	-0.474543	0.448042
C101	C	-0.033601	-0.436455	0.470390
C102	C	-0.045190	-0.378729	0.424176
H103	H	0.055362	-0.455877	0.436725
H104	H	0.031424	-0.479888	0.412852
H105	H	-0.038188	-0.431109	0.505570
H106	H	-0.062144	-0.455102	0.481703
H107	H	-0.040597	-0.384074	0.388986
H108	H	-0.016657	-0.360068	0.412862
H109	H	-0.086196	-0.352881	0.439331
C110	C	-0.099620	-0.004544	0.701757
C111	C	-0.145931	0.048438	0.680685
C112	C	-0.203624	0.048594	0.727014
H113	H	-0.107267	-0.040411	0.711546
H114	H	-0.099697	-0.004500	0.737690
H115	H	-0.145855	0.048389	0.644763
H116	H	-0.138305	0.084313	0.670901
H117	H	-0.203701	0.048638	0.762948
H118	H	-0.211265	0.012725	0.736800
H119	H	-0.235053	0.084545	0.712726
H120	H	0.100739	-0.004653	0.688708
C121	C	0.700104	-0.512794	0.612988
C122	C	0.647105	-0.460993	0.606166
C123	C	0.646985	-0.414669	0.617626
H124	H	0.700111	-0.527836	0.653970
H125	H	0.735967	-0.501457	0.584397
H126	H	0.611252	-0.472329	0.634757
H127	H	0.647088	-0.445933	0.565188
H128	H	0.682848	-0.403332	0.589034
H129	H	0.646993	-0.429717	0.658607
H130	H	0.611030	-0.379515	0.612993
C131	C	0.700331	-0.766150	0.536034
C132	C	0.700413	-0.819192	0.588838
C133	C	0.700469	-0.865519	0.577435
H134	H	0.664421	-0.751950	0.526251
H135	H	0.736235	-0.775802	0.502266
H136	H	0.664512	-0.809541	0.622596
H137	H	0.736321	-0.833410	0.598630
H138	H	0.736373	-0.875171	0.543666
H139	H	0.664558	-0.851313	0.567651
H140	H	0.700530	-0.901515	0.613258
C141	C	-0.061456	-0.474686	1.209565
C142	C	-0.039279	-0.436485	1.209605
C143	C	-0.085600	-0.378801	1.209646
H144	H	-0.072736	-0.456078	1.173662
H145	H	-0.096641	-0.480078	1.245479
H146	H	-0.004105	-0.431091	1.173695
H147	H	-0.028003	-0.455073	1.245506
H148	H	-0.120784	-0.384194	1.245560
H149	H	-0.096877	-0.360200	1.173742
H150	H	-0.070561	-0.352877	1.209679
H151	H	-0.048413	-0.674973	1.209396
H152	H	0.180068	-0.788855	1.209502
C153	C	0.192051	-0.600975	1.209550
C154	C	0.169611	-0.540524	1.209547
C155	C	0.215749	-0.528873	1.209526
H156	H	0.203362	-0.629484	1.245447
H157	H	0.227260	-0.605560	1.173630
H158	H	0.134413	-0.535945	1.245463
H159	H	0.158304	-0.512003	1.173652
H160	H	0.250958	-0.533458	1.173606
H161	H	0.227057	-0.557385	1.245424
H162	H	0.200531	-0.487855	1.209518
H163	H	0.102355	-0.458618	0.810728
C164	C	0.700456	-0.766526	0.739351
C165	C	0.700480	-0.744339	0.777562
C166	C	0.700577	-0.790671	0.835225
H167	H	0.664579	-0.777831	0.757963
H168	H	0.736394	-0.801700	0.733932
H169	H	0.664546	-0.709177	0.782983
H170	H	0.736354	-0.733039	0.758969
H171	H	0.736515	-0.825844	0.829807
H172	H	0.664699	-0.801972	0.853832
H173	H	0.700599	-0.775626	0.861157
C174	C	0.103734	-0.804636	0.701432
C175	C	0.164156	-0.842735	0.679073
C176	C	0.175718	-0.900488	0.725260
H177	H	0.099154	-0.799357	0.736649
H178	H	0.075174	-0.823255	0.712705
H179	H	0.192709	-0.824120	0.667809
H180	H	0.168751	-0.848032	0.643863
H181	H	0.147157	-0.919107	0.736533
H182	H	0.171135	-0.895203	0.760474
H183	H	0.216713	-0.926347	0.710095
C184	C	0.266827	-0.603978	0.936912
C185	C	0.327236	-0.613063	0.894639
C186	C	0.369499	-0.650349	0.926900
H187	H	0.260691	-0.584241	0.962199
H188	H	0.260658	-0.642853	0.962179
H189	H	0.333403	-0.574196	0.869383
H190	H	0.333392	-0.632808	0.869351
H191	H	0.363330	-0.689223	0.952166
H192	H	0.363358	-0.630607	0.952185
H193	H	0.410491	-0.656522	0.898222
C194	C	-0.099595	-0.601600	0.701734
C195	C	-0.099599	-0.654508	0.754673
C196	C	-0.157228	-0.643290	0.801086
H197	H	-0.107185	-0.567878	0.711498
H198	H	-0.131098	-0.591834	0.687544
H199	H	-0.068106	-0.664267	0.768861
H200	H	-0.092020	-0.688237	0.744929
H201	H	-0.188731	-0.633523	0.786896
H202	H	-0.164813	-0.609567	0.810844
H203	H	-0.157240	-0.679187	0.837009
C204	C	0.045801	-0.493525	0.720802
C205	C	0.013548	-0.456295	0.758088
C206	C	-0.050205	-0.440606	0.773876
H207	H	0.035063	-0.471497	0.684215
H208	H	0.035169	-0.530170	0.742818
H209	H	0.024176	-0.419656	0.736072
H210	H	0.024267	-0.478311	0.794683
H211	H	-0.060837	-0.477251	0.795892
H212	H	-0.060936	-0.418580	0.737286
H213	H	-0.072096	-0.415348	0.799181
C214	C	0.230263	-0.677797	0.447921
C215	C	0.268422	-0.738213	0.470210
C216	C	0.326139	-0.749698	0.423972
H217	H	0.224945	-0.673190	0.412714
H218	H	0.248855	-0.649214	0.436650
H219	H	0.249834	-0.766788	0.481472
H220	H	0.273758	-0.742834	0.505411
H221	H	0.344731	-0.721115	0.412701
H222	H	0.320815	-0.745089	0.388768
H223	H	0.352038	-0.790689	0.439090
H224	H	0.700073	-0.524942	0.425295
H225	H	0.214338	-0.004265	0.460069
C226	C	0.026588	-0.004763	0.448274
C227	C	-0.033845	-0.004793	0.470736
C228	C	-0.045490	-0.004869	0.424638
H229	H	0.031140	0.031127	0.413027
H230	H	0.055126	-0.040694	0.437023
H231	H	-0.062376	0.031135	0.481978
H232	H	-0.038412	-0.040679	0.505977
H233	H	-0.016951	-0.040801	0.413387
H234	H	-0.040934	0.031020	0.389393
H235	H	-0.086492	-0.004895	0.439873
H236	H	0.294416	-0.554643	0.810656
H237	H	0.294333	-0.554601	0.659567
C238	C	0.266591	-0.603797	0.610166
C239	C	0.303730	-0.571226	0.556206
C240	C	0.345890	-0.608357	0.518806
H241	H	0.291954	-0.640456	0.632063
H242	H	0.244629	-0.614413	0.599493
H243	H	0.325690	-0.560619	0.566879
H244	H	0.278384	-0.534570	0.534292
H245	H	0.323928	-0.618973	0.508133
H246	H	0.371248	-0.645014	0.540709
H247	H	0.371090	-0.586261	0.482188
C248	C	0.292763	-0.613136	0.752180
C249	C	0.335023	-0.673134	0.755578
C250	C	0.302751	-0.714871	0.786334
H251	H	0.267495	-0.611565	0.792809
H252	H	0.267478	-0.602323	0.730098
H253	H	0.360297	-0.683943	0.777660
H254	H	0.360293	-0.674724	0.714958
H255	H	0.277466	-0.704059	0.764253
H256	H	0.277484	-0.713295	0.826961
H257	H	0.331420	-0.755584	0.788639
H258	H	0.102328	-0.458621	0.755642
H259	H	0.419022	-0.640939	0.704632
H260	H	0.418982	-0.450689	0.632093
H261	H	0.246280	-0.403511	0.611604
C262	C	0.292690	-0.394301	0.668691
C263	C	0.308439	-0.361145	0.605133
C264	C	0.276113	-0.297872	0.595804
H265	H	0.249443	-0.387304	0.685921
H266	H	0.303337	-0.380866	0.688240
H267	H	0.297788	-0.374576	0.585591
H268	H	0.351681	-0.368123	0.587889
H269	H	0.286760	-0.284436	0.615353
H270	H	0.232867	-0.290881	0.613037
H271	H	0.286798	-0.275367	0.552680
C272	C	0.211256	-0.277200	0.555126
C273	C	0.189220	-0.292971	0.528455
C274	C	0.204811	-0.260638	0.464712
H275	H	0.193054	-0.233950	0.548218
H276	H	0.254987	-0.287830	0.536883
H277	H	0.145498	-0.282337	0.546692
H278	H	0.207419	-0.336216	0.535346
H279	H	0.248542	-0.271268	0.446470
H280	H	0.186608	-0.217389	0.457811
H281	H	0.189867	-0.271338	0.446607
C282	C	0.101105	-0.277235	0.775973
C283	C	0.133671	-0.293007	0.813145
C284	C	0.096514	-0.260688	0.855351
H285	H	0.090443	-0.233983	0.754065
H286	H	0.064472	-0.287877	0.801306
H287	H	0.170293	-0.282361	0.787815
H288	H	0.144333	-0.336253	0.835067
H289	H	0.059881	-0.271329	0.880683
H290	H	0.085855	-0.217437	0.833437
H291	H	0.118603	-0.271388	0.880580
H292	H	0.150353	-0.403547	0.803641
