data_functionalizedCrystal
_audit_creation_method	'MofGen! by Chris Wilmer'
_symmetry_space_group_name_H-M	'P1'
_symmetry_Int_Tables_number	1
_symmetry_cell_setting	triclinic
loop_
_symmetry_equiv_pos_as_xyz
  x,y,z
_cell_length_a	27.440280
_cell_length_b	19.377369
_cell_length_c	19.377574
_cell_angle_alpha	82.425876
_cell_angle_beta	104.494453
_cell_angle_gamma	48.634130
loop_
_atom_site_label
_atom_site_type_symbol
_atom_site_fract_x
_atom_site_fract_y
_atom_site_fract_z
Zr1	Zr	0.381019	0.779799	0.049397
O2	O	0.269366	0.928458	-0.037200
O3	O	0.424760	0.631153	0.057062
O4	O	0.384763	0.779800	-0.064415
O5	O	0.330092	0.779807	0.201578
O6	O	0.464970	0.779786	-0.064402
O7	O	0.309362	0.779811	0.084276
O8	O	0.536517	0.513885	0.152897
O9	O	0.258545	1.045708	-0.015721
O10	O	0.491779	0.692279	0.083153
O11	O	0.447392	0.692286	0.170685
O12	O	0.400301	0.867298	0.027662
O13	O	0.355913	0.867305	0.115194
Zr14	Zr	0.542001	0.779770	0.236500
Zr15	Zr	0.508940	0.779777	0.049417
Zr16	Zr	0.414080	0.779792	0.236481
Zr17	Zr	0.363761	0.966800	0.083655
Zr18	Zr	0.559259	0.592770	0.202243
O19	O	0.498260	0.928417	0.228836
O20	O	0.451252	0.928427	-0.037173
O21	O	0.316374	0.928448	0.228808
O22	O	0.653654	0.631112	0.323098
O23	O	0.606646	0.631122	0.057089
O24	O	0.471768	0.631143	0.323070
O25	O	0.592928	0.779763	0.084319
O26	O	0.538257	0.779770	0.350312
O27	O	0.458050	0.779784	0.350300
O28	O	0.613658	0.779758	0.201621
O29	O	0.360224	1.045691	-0.015705
O30	O	0.562796	0.513879	0.301603
O31	O	0.664475	0.513862	0.301618
O32	O	0.638197	0.513867	0.152912
O33	O	0.284824	1.045703	0.132986
O34	O	0.386503	1.045685	0.133001
O35	O	0.522719	0.692272	0.258235
O36	O	0.567107	0.692265	0.170703
O37	O	0.475628	0.867284	0.115213
O38	O	0.431241	0.867291	0.202745
C39	C	0.483097	0.545875	0.100098
C40	C	0.490424	0.466488	0.085555
C41	C	0.398969	0.205104	0.266427
C42	C	0.405946	0.130418	0.252823
C43	C	0.452283	0.130420	0.161447
C44	C	0.445313	0.205105	0.175045
C45	C	0.418655	0.242442	0.227535
C46	C	0.464999	0.242442	0.136153
C47	C	0.458026	0.317124	0.149748
C48	C	0.431367	0.354469	0.202234
C49	C	0.411682	0.317124	0.241130
C50	C	0.491652	0.205108	0.083659
C51	C	0.511338	0.242446	0.044768
C52	C	0.504370	0.317124	0.058366
C53	C	0.477711	0.354469	0.110852
C54	C	0.524055	0.354469	0.019470
C55	C	0.517082	0.429151	0.033065
C56	C	0.470738	0.429151	0.124447
C57	C	0.301501	0.779812	0.142924
C58	C	0.247196	0.779822	0.142916
C59	C	-0.041735	0.688410	0.171935
C60	C	-0.092752	0.688405	0.171942
O61	O	-0.078525	0.610708	0.196603
N62	N	-0.166019	0.779762	0.142975
C63	C	-0.188269	0.871130	0.114008
O64	O	-0.255274	0.948836	0.089370
C65	C	-0.137252	0.871135	0.114006
C66	C	-0.063986	0.779772	0.142967
C67	C	0.031528	0.597055	0.200895
C68	C	0.082541	0.597061	0.200887
C69	C	0.060290	0.688422	0.171919
C70	C	-0.012973	0.779778	0.142959
C71	C	-0.159502	0.962502	0.085044
C72	C	-0.108477	0.962499	0.085046
C73	C	-0.035210	0.871136	0.114007
C74	C	0.015789	0.871145	0.113983
N75	N	0.089057	0.779788	0.142950
C76	C	0.111307	0.688427	0.171918
C77	C	-0.295405	0.871114	0.114014
C78	C	-0.346423	0.871110	0.114010
C79	C	-0.250901	0.688384	0.171945
C80	C	-0.199884	0.688389	0.171944
C81	C	-0.222137	0.779757	0.142980
C82	C	0.218434	0.688446	0.171898
C83	C	0.269446	0.688460	0.171884
C84	C	0.173921	0.871185	0.113952
C85	C	0.122912	0.871172	0.113962
C86	C	0.145174	0.779794	0.142940
O87	O	0.001616	0.948802	0.089338
O88	O	0.178312	0.610734	0.196560
C89	C	0.621519	0.779758	0.142973
C90	C	0.675824	0.779748	0.142981
C91	C	0.420156	0.779794	-0.091064
C92	C	0.406121	0.779797	-0.170486
C93	C	0.439923	1.013695	0.185799
C94	C	0.432596	1.093081	0.200342
C95	C	0.580878	0.779762	-0.431680
C96	C	0.567674	0.779766	-0.506310
C97	C	0.479306	0.779781	-0.506305
C98	C	0.492500	0.779782	-0.431675
C99	C	0.543288	0.779771	-0.394369
C100	C	0.454910	0.779791	-0.394364
C101	C	0.468106	0.779786	-0.319739
C102	C	0.518893	0.779772	-0.282427
C103	C	0.556484	0.779766	-0.319744
C104	C	0.404127	0.779795	-0.431670
C105	C	0.366536	0.779804	-0.394358
C106	C	0.379728	0.779806	-0.319735
C107	C	0.430515	0.779792	-0.282422
C108	C	0.342137	0.779812	-0.282417
C109	C	0.355333	0.779808	-0.207792
C110	C	0.443711	0.779787	-0.207797
C111	C	0.502864	0.779776	0.376961
C112	C	0.516899	0.779773	0.456383
C113	C	0.643106	0.545848	0.100122
C114	C	0.704738	0.466452	0.085588
C115	C	0.524451	0.545867	0.334111
C116	C	0.545813	0.466477	0.398990
C117	C	0.684460	0.545839	0.334135
C118	C	0.760128	0.466440	0.399022
C119	C	0.238560	1.013731	-0.048238
C120	C	0.162893	1.093130	-0.113125
C121	C	0.279914	1.013722	0.185775
C122	C	0.218282	1.093118	0.200310
C123	C	0.398569	1.013703	-0.048213
C124	C	0.377207	1.093093	-0.113092
C125	C	0.694360	0.429174	0.033054
C126	C	0.752261	0.354583	0.019381
C127	C	0.820541	0.317267	0.058247
C128	C	0.830918	0.354552	0.110784
C129	C	0.773016	0.429147	0.124452
C130	C	0.595166	0.429188	0.475165
C131	C	0.615236	0.354603	0.536135
C132	C	0.585956	0.317304	0.520926
C133	C	0.536596	0.354600	0.444743
C134	C	0.516524	0.429189	0.383776
C135	C	0.818837	0.429150	0.383803
C136	C	0.889937	0.354556	0.444766
C137	C	0.902327	0.317249	0.520946
C138	C	0.843610	0.354547	0.536165
C139	C	0.772511	0.429144	0.475204
C140	C	0.104182	1.130429	-0.097904
C141	C	0.033080	1.205046	-0.158862
C142	C	0.020690	1.242357	-0.235042
C143	C	0.079407	1.205054	-0.250262
C144	C	0.150507	1.130444	-0.189303
C145	C	0.228658	1.130404	0.252837
C146	C	0.170752	1.205015	0.266493
C147	C	0.102471	1.242334	0.227625
C148	C	0.092095	1.205045	0.175091
C149	C	0.149999	1.130440	0.161432
C150	C	0.406501	1.130368	-0.097859
C151	C	0.386443	1.204954	-0.158814
C152	C	0.337087	1.242267	-0.235001
C153	C	0.307794	1.204984	-0.250233
C154	C	0.327856	1.130395	-0.189279
H155	H	0.377262	0.235506	0.309170
O156	O	0.784224	0.469330	0.181130
H157	H	0.746737	0.551618	0.150086
H158	H	0.602306	0.256569	0.570576
O159	O	0.459745	1.090122	-0.015694
H160	H	0.437263	1.152737	0.003366
O161	O	0.856979	0.314292	0.618330
H162	H	0.916284	0.256144	0.658154
O163	O	0.608218	0.779766	-0.546554
H164	H	0.640029	0.711454	-0.558891
H165	H	0.425687	0.415283	0.213298
H166	H	0.655429	0.324245	0.598161
O167	O	-0.132501	1.061052	0.053719
H168	H	-0.084726	1.045716	0.058553
O169	O	0.424526	0.779802	-0.546551
H170	H	0.370170	0.848119	-0.553880
H171	H	0.142194	0.522663	0.224466
H172	H	0.055327	1.303082	0.238754
H173	H	0.476339	0.459540	0.321750
O174	O	-0.030237	1.245247	-0.142435
H175	H	-0.032146	1.279200	-0.099955
O176	O	0.181959	1.245207	0.323168
H177	H	0.144479	1.327491	0.292117
O178	O	-0.055998	1.322828	-0.300790
H179	H	-0.069202	1.390800	-0.327735
O180	O	0.254561	1.245217	-0.332402
H181	H	0.206037	1.327506	-0.353517
O182	O	0.505039	0.314339	0.428337
H183	H	0.527307	0.256193	0.483531
O184	O	0.953270	0.314324	0.428361
H185	H	0.955206	0.280321	0.385914
H186	H	0.473986	0.100014	0.118707
H187	H	0.036493	1.235442	0.143448
O188	O	0.540085	0.202181	-0.011850
H189	H	0.541628	0.143975	-0.014769
O190	O	0.138807	1.090217	0.104783
H191	H	0.081600	1.128699	0.080061
O192	O	0.979015	0.236779	0.586694
H193	H	1.017755	0.217113	0.563303
H194	H	0.808762	0.459514	0.321777
H195	H	0.867682	0.256526	0.047112
H196	H	0.724713	0.459496	0.487606
H197	H	0.497324	0.144303	0.072589
H198	H	0.619014	0.459548	0.487564
H199	H	0.389974	0.347526	0.283873
O200	O	0.348470	0.589911	0.203121
H201	H	0.380210	0.605256	0.198243
O202	O	-0.226910	0.589843	0.203189
H203	H	-0.167394	0.526310	0.223325
H204	H	0.638765	0.459556	0.001393
H205	H	0.410300	1.235301	-0.146396
O206	O	0.315449	1.322722	-0.300739
H207	H	0.255685	1.390701	-0.327701
H208	H	0.114258	1.100055	-0.035880
H209	H	0.069309	1.235442	-0.312295
O210	O	0.302298	1.090169	0.294766
H211	H	0.340829	1.032019	0.276455
O212	O	0.213831	1.090202	-0.205726
H213	H	0.193264	1.128678	-0.268943
H214	H	0.303995	1.100054	-0.201693
O215	O	0.311755	0.779825	-0.434599
H216	H	0.308889	0.779835	-0.492762
H217	H	-0.313535	0.945521	0.090424
O218	O	0.442006	0.469434	0.181072
H219	H	0.386197	0.503371	0.160904
H220	H	0.743799	0.324234	-0.023398
H221	H	0.545754	0.324066	-0.023273
O222	O	0.384718	0.090137	0.294778
H223	H	0.365016	0.128644	0.333564
O224	O	0.287361	0.779824	-0.322657
H225	H	0.284499	0.779829	-0.380817
O226	O	0.538318	0.469426	-0.008875
H227	H	0.558034	0.430908	-0.047651
O228	O	0.904567	0.314292	0.152709
H229	H	0.943082	0.256150	0.134382
H230	H	0.236570	0.614037	0.195495
H231	H	-0.140228	0.613993	0.195535
O232	O	0.055532	0.498507	0.232130
H233	H	0.115049	0.434993	0.252257
H234	H	-0.219152	1.036900	0.061461
O235	O	-0.425445	0.969651	0.082765
H236	H	-0.432338	1.033175	0.062627
H237	H	0.063251	0.945567	0.090368
H238	H	0.485062	0.779789	-0.177424
O239	O	0.149908	0.969724	0.082603
H240	H	0.197690	0.954370	0.087436
H241	H	0.529638	0.779764	-0.221661
H242	H	0.597834	0.779768	-0.289371
H243	H	0.393387	0.779794	-0.492432
O244	O	0.635661	0.779735	-0.391416
H245	H	0.618628	0.848035	-0.427382
O246	O	0.314788	0.779826	-0.167543
H247	H	0.277250	0.779847	-0.206026
