data_functionalizedCrystal
_audit_creation_method	'MofGen! by Chris Wilmer'
_symmetry_space_group_name_H-M	'P1'
_symmetry_Int_Tables_number	1
_symmetry_cell_setting	triclinic
loop_
_symmetry_equiv_pos_as_xyz
  x,y,z
_cell_length_a	12.594516
_cell_length_b	16.625548
_cell_length_c	16.625548
_cell_angle_alpha	90.002903
_cell_angle_beta	90.007202
_cell_angle_gamma	90.024258
loop_
_atom_site_label
_atom_site_type_symbol
_atom_site_fract_x
_atom_site_fract_y
_atom_site_fract_z
Zn1	Zn	-0.423746	1.232606	0.455817
Zn2	Zn	-0.090413	1.565940	0.789151
Zn3	Zn	0.242921	1.899273	1.122484
Zn4	Zn	-0.601694	1.232549	0.320994
Zn5	Zn	-0.268361	1.565882	0.654328
Zn6	Zn	0.064972	1.899215	0.987661
Zn7	Zn	-0.423749	1.097797	0.321011
Zn8	Zn	-0.090416	1.431131	0.654344
Zn9	Zn	0.242917	1.764464	0.987677
Zn10	Zn	-0.601702	1.097749	0.455797
Zn11	Zn	-0.268368	1.431082	0.789130
Zn12	Zn	0.064965	1.764415	1.122463
O13	O	-0.512723	1.165175	0.388405
O14	O	-0.179390	1.498509	0.721738
O15	O	0.153944	1.831842	1.055071
O16	O	-0.447347	1.345431	0.437935
O17	O	-0.114013	1.678764	0.771268
O18	O	0.219320	2.012098	1.104601
O19	O	-0.578088	1.214670	0.208164
O20	O	-0.244755	1.548003	0.541497
O21	O	0.088579	1.881337	0.874831
O22	O	-0.274803	1.115724	0.338908
O23	O	0.058530	1.449058	0.672242
O24	O	0.391864	1.782391	1.005575
O25	O	-0.578085	1.345389	0.338881
O26	O	-0.244751	1.678722	0.672214
O27	O	0.088582	2.012055	1.005547
O28	O	-0.274801	1.214768	0.437950
O29	O	0.058533	1.548101	0.771284
O30	O	0.391866	1.881435	1.104617
O31	O	-0.447352	1.115668	0.208176
O32	O	-0.114019	1.449002	0.541509
O33	O	0.219314	1.782335	0.874843
O34	O	-0.447359	0.984958	0.338888
O35	O	-0.114026	1.318292	0.672222
O36	O	0.219307	1.651625	1.005555
O37	O	-0.578097	1.115642	0.568632
O38	O	-0.244764	1.448975	0.901965
O39	O	0.088570	1.782308	1.235298
O40	O	-0.578100	0.984923	0.437915
O41	O	-0.244767	1.318256	0.771248
O42	O	0.088566	1.651589	1.104582
O43	O	-0.447354	1.214721	0.568647
O44	O	-0.114020	1.548054	0.901980
O45	O	0.219313	1.881388	1.235314
O46	O	-0.750641	1.214623	0.338861
O47	O	-0.417308	1.547956	0.672194
O48	O	-0.083975	1.881289	1.005527
O49	O	-0.750647	1.115586	0.437899
O50	O	-0.417313	1.448919	0.771233
O51	O	-0.083980	1.782252	1.104566
C52	C	-0.512732	0.955684	0.388402
C53	C	-0.179399	1.289018	0.721735
C54	C	0.153935	1.622351	1.055068
C55	C	-0.512761	0.866063	0.388420
C56	C	-0.179428	1.199397	0.721753
C57	C	0.153905	1.532730	1.055086
C58	C	-0.789264	1.165115	0.388394
C59	C	-0.455931	1.498448	0.721727
C60	C	-0.122597	1.831781	1.055060
C61	C	-0.907569	1.165163	0.388416
C62	C	-0.574236	1.498496	0.721749
C63	C	-0.240903	1.831829	1.055083
C64	C	-0.512726	1.165182	0.598714
C65	C	-0.179393	1.498516	0.932047
C66	C	0.153941	1.831849	1.265380
C67	C	-0.512727	1.165185	0.688335
C68	C	-0.179394	1.498519	1.021668
C69	C	0.153939	1.831852	1.355001
C70	C	-1.047628	1.111340	0.442256
C71	C	-0.714294	1.444673	0.775589
C72	C	-0.380961	1.778007	1.108922
C73	C	-0.976715	1.184844	0.462031
C74	C	-0.643382	1.518177	0.795364
C75	C	-0.310048	1.851510	1.128698
C76	C	-0.976910	1.091666	0.368676
C77	C	-0.643577	1.425000	0.702010
C78	C	-0.310244	1.758333	1.035343
C79	C	-1.047442	1.238836	0.408259
C80	C	-0.714109	1.572170	0.741593
C81	C	-0.380775	1.905503	1.074926
C82	C	-1.047644	1.145610	0.314870
C83	C	-0.714310	1.478943	0.648204
C84	C	-0.380977	1.812276	0.981537
C85	C	-0.976763	1.219164	0.334618
C86	C	-0.643430	1.552497	0.667951
C87	C	-0.310096	1.885831	1.001285
C88	C	-0.235102	1.165258	0.388434
C89	C	0.098231	1.498591	0.721767
C90	C	0.431565	1.831925	1.055100
C91	C	-0.116797	1.165293	0.388446
C92	C	0.216537	1.498627	0.721779
C93	C	0.549870	1.831960	1.055112
C94	C	-0.512715	1.375484	0.388408
C95	C	-0.179381	1.708817	0.721742
C96	C	0.153952	2.042151	1.055075
C97	C	-0.512711	1.465105	0.388410
C98	C	-0.179378	1.798439	0.721743
C99	C	0.153956	2.131772	1.055076
C100	C	-0.512761	1.793281	0.388415
C101	C	-0.179427	2.126614	0.721748
C102	C	0.153906	2.459948	1.055081
C103	C	-0.512750	1.701972	0.388411
C104	C	-0.179417	2.035306	0.721744
C105	C	0.153917	2.368639	1.055077
C106	C	-0.512735	1.629196	0.388412
C107	C	-0.179402	1.962529	0.721745
C108	C	0.153931	2.295863	1.055078
C109	C	-0.512726	1.537882	0.388409
C110	C	-0.179392	1.871215	0.721742
C111	C	0.153941	2.204548	1.055076
C112	C	-0.512737	1.165152	1.016510
C113	C	-0.179403	1.498485	1.349844
C114	C	0.153930	1.831819	1.683177
C115	C	-0.512737	1.165159	0.925202
C116	C	-0.179404	1.498492	1.258535
C117	C	0.153929	1.831826	1.591869
C118	C	-0.512733	1.165169	0.852425
C119	C	-0.179399	1.498502	1.185759
C120	C	0.153934	1.831836	1.519092
C121	C	-0.512732	1.165175	0.761111
C122	C	-0.179399	1.498509	1.094444
C123	C	0.153935	1.831842	1.427778
C124	C	-0.512741	1.165160	1.178914
C125	C	-0.179408	1.498494	1.512247
C126	C	0.153925	1.831827	1.845581
C127	C	-0.512733	1.165152	1.089293
C128	C	-0.179400	1.498486	1.422626
C129	C	0.153933	1.831819	1.755959
H130	H	-1.078738	1.065826	0.487809
H131	H	-0.745405	1.399159	0.821142
H132	H	-0.412072	1.732492	1.154475
F133	F	-0.935995	1.206540	0.543341
F134	F	-0.602661	1.539874	0.876674
F135	F	-0.269328	1.873207	1.210008
F136	F	-0.936348	1.278794	0.275122
F137	F	-0.603014	1.612128	0.608456
F138	F	-0.269681	1.945461	0.941789
F139	F	-1.088397	1.123887	0.233582
F140	F	-0.755064	1.457221	0.566916
F141	F	-0.421730	1.790554	0.900249
H142	H	-1.078298	1.301065	0.425040
H143	H	-0.744964	1.634398	0.758373
H144	H	-0.411631	1.967732	1.091706
F145	F	-0.936407	1.010354	0.346836
F146	F	-0.603073	1.343687	0.680170
F147	F	-0.269740	1.677020	1.013503
