data_functionalizedCrystal
_audit_creation_method	'MofGen! by Chris Wilmer'
_symmetry_space_group_name_H-M	'P1'
_symmetry_Int_Tables_number	1
_symmetry_cell_setting	triclinic
loop_
_symmetry_equiv_pos_as_xyz
  x,y,z
_cell_length_a	16.109302
_cell_length_b	15.995292
_cell_length_c	14.586319
_cell_angle_alpha	89.999401
_cell_angle_beta	89.994552
_cell_angle_gamma	83.465199
loop_
_atom_site_label
_atom_site_type_symbol
_atom_site_fract_x
_atom_site_fract_y
_atom_site_fract_z
O1	O	1.103137	0.107630	-0.076275
O2	O	0.861076	0.121023	-0.076267
O3	O	0.988749	-0.007566	-0.076273
O4	O	0.975465	0.236219	-0.076269
O5	O	0.988740	-0.007568	0.076208
O6	O	0.861067	0.121021	0.076214
O7	O	1.103128	0.107628	0.076206
Cu8	Cu	0.982097	0.114325	0.090133
Cu9	Cu	0.982107	0.114327	-0.090194
O10	O	0.975456	0.236218	0.076211
C11	C	0.830097	0.120480	-0.000026
C12	C	0.737801	0.118853	-0.000023
C13	C	0.525455	0.115090	0.083085
C14	C	0.438735	0.113552	0.083082
C15	C	0.438755	0.113559	-0.083161
C16	C	0.525475	0.115090	-0.083157
C17	C	0.568822	0.115860	-0.000031
C18	C	0.395382	0.112791	-0.000038
C19	C	0.301357	0.111124	-0.000042
C20	C	0.662854	0.117526	-0.000026
C21	C	0.988204	-0.038763	-0.000034
C22	C	0.986583	-0.131715	-0.000041
C23	C	0.980624	-0.469452	-0.000033
C24	C	1.072774	-0.446164	0.000305
C25	C	1.074526	-0.349489	-0.000042
C26	C	0.983581	-0.301897	-0.000036
C27	C	0.937515	-0.330984	-0.087106
C28	C	0.936405	-0.427774	-0.087176
C29	C	0.934513	-0.427633	0.086224
C30	C	0.937928	-0.331142	0.087371
C31	C	0.985247	-0.207201	-0.000042
C32	C	0.978955	-0.564147	-0.000034
C33	C	1.134108	0.108172	-0.000037
C34	C	1.226403	0.109799	-0.000046
C35	C	0.976001	0.267414	-0.000029
C36	C	0.977622	0.360366	-0.000028
N37	N	0.982096	0.114322	0.216964
N38	N	0.982115	0.114322	-0.217025
C39	C	1.038648	0.057402	0.451968
C40	C	1.038650	0.057400	0.547950
C41	C	0.925557	0.171245	0.547964
C42	C	0.925551	0.171243	0.451984
C43	C	0.982101	0.114322	0.403989
C44	C	0.982110	0.114323	0.595950
C45	C	0.982112	0.114321	0.700017
C46	C	0.982098	0.114323	0.299915
H47	H	0.403451	0.112933	-0.150839
H48	H	0.968316	-0.454599	-0.152266
H49	H	1.084693	0.011053	0.412893
H50	H	0.879517	0.217590	0.587051
C51	C	0.847111	-0.287905	-0.091492
H52	H	0.820411	-0.306386	-0.144648
H53	H	0.847606	-0.228624	-0.094104
H54	H	0.817537	-0.302143	-0.038429
H55	H	0.868840	-0.442306	-0.091116
C56	C	0.863349	0.233860	0.399204
H57	H	0.829679	0.267768	0.441533
H58	H	0.828748	0.203727	0.361769
H59	H	0.893253	0.268724	0.361756
H60	H	0.403430	0.112926	0.150764
C61	C	0.573181	0.115941	-0.174589
H62	H	0.534944	0.115275	-0.224096
H63	H	0.613363	0.067740	-0.178045
H64	H	0.600657	0.165345	-0.178036
H65	H	1.110604	-0.330475	0.062371
C66	C	1.123564	-0.324628	-0.084503
H67	H	1.124813	-0.265392	-0.084998
H68	H	1.097086	-0.341215	-0.138669
H69	H	1.179059	-0.351933	-0.081940
C70	C	0.573138	0.115912	0.174519
H71	H	0.534889	0.115221	0.224019
H72	H	0.600622	0.165304	0.177994
H73	H	0.613312	0.067699	0.177960
H74	H	0.969511	-0.310932	-0.151907
H75	H	1.108290	-0.474172	0.062746
C76	C	1.120498	-0.485365	-0.083580
H77	H	1.084506	-0.515860	-0.118809
H78	H	1.167276	-0.522393	-0.063561
H79	H	1.139138	-0.442020	-0.120134
H80	H	0.963530	-0.455730	0.152222
H81	H	0.971471	-0.312586	0.151784
H82	H	0.871547	-0.298154	0.092634
C83	C	1.100854	-0.005209	0.600723
H84	H	1.134534	-0.039102	0.558389
H85	H	1.070961	-0.040075	0.638171
H86	H	1.135458	0.024930	0.638156
H87	H	0.866684	-0.441605	0.086814
