data_functionalizedCrystal
_audit_creation_method	'MofGen! by Chris Wilmer'
_symmetry_space_group_name_H-M	'P1'
_symmetry_Int_Tables_number	1
_symmetry_cell_setting	triclinic
loop_
_symmetry_equiv_pos_as_xyz
  x,y,z
_cell_length_a	17.699083
_cell_length_b	8.559649
_cell_length_c	16.776229
_cell_angle_alpha	89.994739
_cell_angle_beta	89.998886
_cell_angle_gamma	76.530840
loop_
_atom_site_label
_atom_site_type_symbol
_atom_site_fract_x
_atom_site_fract_y
_atom_site_fract_z
O1	O	0.992507	0.202110	-0.066174
O2	O	1.492507	0.702110	0.433826
O3	O	0.770623	0.228404	-0.066200
O4	O	1.270623	0.728404	0.433800
O5	O	0.901113	-0.017421	-0.066184
O6	O	1.401113	0.482579	0.433816
O7	O	0.862017	0.447935	-0.066190
O8	O	1.362017	0.947935	0.433810
O9	O	0.901098	-0.017436	0.066393
O10	O	1.401098	0.482564	0.566393
O11	O	0.770608	0.228389	0.066377
O12	O	1.270608	0.728389	0.566377
O13	O	0.992492	0.202095	0.066403
O14	O	1.492492	0.702095	0.566403
Zn15	Zn	0.881548	0.215240	0.087439
Zn16	Zn	1.381548	0.715240	0.587439
Zn17	Zn	0.881567	0.215259	-0.087236
Zn18	Zn	1.381567	0.715259	0.412764
O19	O	0.862002	0.447920	0.066387
O20	O	1.362002	0.947920	0.566387
C21	C	0.742473	0.227455	0.000085
C22	C	1.242473	0.727455	0.500085
C23	C	0.658616	0.224628	0.000075
C24	C	1.158616	0.724628	0.500075
C25	C	0.601734	0.368922	0.000074
C26	C	1.101734	0.868922	0.500074
C27	C	0.522943	0.366257	0.000084
C28	C	1.022943	0.866257	0.500084
C29	C	0.501037	0.219296	0.000090
C30	C	1.001037	0.719296	0.500090
C31	C	0.557926	0.074990	0.000094
C32	C	1.057926	0.574990	0.500094
C33	C	0.636715	0.077657	0.000090
C34	C	1.136715	0.577657	0.500090
C35	C	0.240179	0.064231	0.000114
C36	C	0.740179	0.564231	0.500114
C37	C	0.161383	0.061575	0.000116
C38	C	0.661383	0.561575	0.500116
C39	C	0.126407	0.352831	0.000108
C40	C	0.626407	0.852831	0.500108
C41	C	0.205196	0.355498	0.000104
C42	C	0.705196	0.855498	0.500104
C43	C	0.262078	0.211193	0.000112
C44	C	0.762078	0.711193	0.500112
C45	C	0.347512	0.214085	0.000102
C46	C	0.847512	0.714085	0.500102
C47	C	0.415605	0.216402	0.000094
C48	C	0.915605	0.716402	0.500094
C49	C	0.904069	-0.076970	0.000103
C50	C	1.404069	0.423030	0.500103
C51	C	0.912888	-0.254384	0.000100
C52	C	1.412888	0.245616	0.500100
C53	C	1.020643	0.203044	0.000116
C54	C	1.520643	0.703044	0.500116
C55	C	1.104499	0.205871	0.000120
C56	C	1.604499	0.705871	0.500120
C57	C	0.859047	0.507469	0.000098
C58	C	1.359047	1.007469	0.500098
C59	C	0.850227	0.684883	0.000096
C60	C	1.350227	1.184883	0.500096
N61	N	0.881540	0.215225	0.206650
N62	N	1.381540	0.715225	0.706650
N63	N	0.881581	0.215261	-0.206447
N64	N	1.381581	0.715261	0.293553
C65	C	0.939335	0.106418	0.248374
C66	C	1.439335	0.606418	0.748374
C67	C	0.939339	0.106417	0.331827
C68	C	1.439339	0.606417	0.831827
C69	C	0.881552	0.215231	0.373553
C70	C	1.381552	0.715231	0.873553
C71	C	0.823752	0.324043	0.331823
C72	C	1.323752	0.824043	0.831823
C73	C	0.823745	0.324036	0.248372
C74	C	1.323745	0.824036	0.748372
C75	C	0.823777	0.324075	0.668370
C76	C	1.323777	0.824075	1.168370
C77	C	0.823790	0.324077	0.751827
C78	C	1.323790	0.824077	1.251827
C79	C	0.939371	0.106456	0.751824
C80	C	1.439371	0.606456	1.251824
C81	C	0.939364	0.106448	0.668374
C82	C	1.439364	0.606448	1.168374
C83	C	0.881563	0.215254	0.626651
C84	C	1.381563	0.715254	1.126651
C85	C	0.881558	0.215252	0.536163
C86	C	1.381558	0.715252	1.036163
C87	C	0.881559	0.215242	0.464040
C88	C	1.381559	0.715242	0.964040
H89	H	0.619562	0.488595	0.000068
H90	H	1.119562	0.988595	0.500068
Br91	Br	0.234922	0.554952	0.000088
Br92	Br	0.734922	1.054952	0.500088
H93	H	0.776714	0.412671	0.634406
H94	H	1.276714	0.912671	1.134406
H95	H	0.789834	-0.231386	0.000091
H96	H	1.289834	0.268614	0.500091
Br97	Br	1.013556	-0.393944	0.000126
Br98	Br	1.513556	0.106056	0.500126
Br99	Br	1.017770	-0.041256	0.191754
Br100	Br	1.517770	0.458744	0.691754
H101	H	0.286484	-0.053271	0.000122
H102	H	0.786484	0.446729	0.500122
H103	H	0.540084	-0.044668	0.000111
H104	H	1.040084	0.455332	0.500111
Br105	Br	1.017772	-0.041257	0.388455
Br106	Br	1.517772	0.458743	0.888455
H107	H	0.986422	0.017847	0.634403
H108	H	1.486422	0.517847	1.134403
Br109	Br	0.745359	0.471765	0.808456
Br110	Br	1.245359	0.971765	1.308456
Br111	Br	1.017818	-0.041215	0.808452
Br112	Br	1.517818	0.458785	1.308452
H113	H	0.080083	0.470330	0.000106
H114	H	0.580083	0.970330	0.500106
Br115	Br	0.745319	0.471713	0.388449
Br116	Br	1.245319	0.971713	0.888449
H117	H	0.476631	0.483756	0.000082
H118	H	0.976631	0.983756	0.500082
Br119	Br	0.745302	0.471699	0.191747
Br120	Br	1.245302	0.971699	0.691747
Br121	Br	0.131654	-0.137886	0.000123
Br122	Br	0.631654	0.362114	0.500123
H123	H	0.683029	-0.039842	0.000091
H124	H	1.183029	0.460158	0.500091
