data_functionalizedCrystal
_audit_creation_method	'MofGen! by Chris Wilmer'
_symmetry_space_group_name_H-M	'P1'
_symmetry_Int_Tables_number	1
_symmetry_cell_setting	triclinic
loop_
_symmetry_equiv_pos_as_xyz
  x,y,z
_cell_length_a	13.897449
_cell_length_b	16.625545
_cell_length_c	16.625539
_cell_angle_alpha	90.028234
_cell_angle_beta	90.024767
_cell_angle_gamma	90.023964
loop_
_atom_site_label
_atom_site_type_symbol
_atom_site_fract_x
_atom_site_fract_y
_atom_site_fract_z
Zn1	Zn	-1.474648	0.321002	-0.456000
Zn2	Zn	-1.141314	0.654335	-0.122667
Zn3	Zn	-0.807981	0.987668	0.210667
Zn4	Zn	-1.474528	0.455845	-0.321167
Zn5	Zn	-1.141194	0.789178	0.012166
Zn6	Zn	-0.807861	1.122511	0.345499
Zn7	Zn	-1.313341	0.321030	-0.321171
Zn8	Zn	-0.980007	0.654363	0.012163
Zn9	Zn	-0.646674	0.987696	0.345496
Zn10	Zn	-1.313301	0.455796	-0.455947
Zn11	Zn	-0.979967	0.789129	-0.122614
Zn12	Zn	-0.646634	1.122463	0.210719
O13	O	-1.393954	0.388418	-0.388571
O14	O	-1.060621	0.721751	-0.055238
O15	O	-0.727287	1.055085	0.278095
O16	O	-1.609613	0.338898	-0.438135
O17	O	-1.276280	0.672231	-0.104802
O18	O	-0.942947	1.005564	0.228532
O19	O	-1.453112	0.437994	-0.208335
O20	O	-1.119779	0.771327	0.124998
O21	O	-0.786445	1.104660	0.458331
O22	O	-1.334805	0.208194	-0.339080
O23	O	-1.001472	0.541527	-0.005746
O24	O	-0.668139	0.874860	0.327587
O25	O	-1.609525	0.437966	-0.339074
O26	O	-1.276192	0.771300	-0.005741
O27	O	-0.942858	1.104633	0.327593
O28	O	-1.453317	0.208173	-0.438138
O29	O	-1.119984	0.541506	-0.104805
O30	O	-0.786650	0.874840	0.228529
O31	O	-1.334689	0.338945	-0.208338
O32	O	-1.001355	0.672279	0.124996
O33	O	-0.668022	1.005612	0.458329
O34	O	-1.178354	0.338898	-0.339028
O35	O	-0.845020	0.672231	-0.005695
O36	O	-0.511687	1.005565	0.327638
O37	O	-1.334737	0.437883	-0.568787
O38	O	-1.001404	0.771216	-0.235454
O39	O	-0.668071	1.104550	0.097880
O40	O	-1.178324	0.437910	-0.438048
O41	O	-0.844991	0.771243	-0.104715
O42	O	-0.511658	1.104577	0.228618
O43	O	-1.453278	0.338850	-0.568826
O44	O	-1.119945	0.672184	-0.235492
O45	O	-0.786612	1.005517	0.097841
O46	O	-1.453073	0.568671	-0.339023
O47	O	-1.119740	0.902004	-0.005690
O48	O	-0.786407	1.235337	0.327644
O49	O	-1.334621	0.568635	-0.438045
O50	O	-1.001288	0.901968	-0.104712
O51	O	-0.667954	1.235301	0.228621
C52	C	-1.143340	0.388402	-0.388534
C53	C	-0.810006	0.721736	-0.055200
C54	C	-0.476673	1.055069	0.278133
C55	C	-1.036126	0.388415	-0.388536
C56	C	-0.702793	0.721748	-0.055203
C57	C	-0.369459	1.055082	0.278130
C58	C	-0.949056	0.388417	-0.388546
C59	C	-0.615723	0.721750	-0.055213
C60	C	-0.282389	1.055083	0.278120
C61	C	-0.839824	0.388421	-0.388567
C62	C	-0.506490	0.721754	-0.055233
C63	C	-0.173157	1.055087	0.278100
C64	C	-1.393856	0.597909	-0.388546
C65	C	-1.060523	0.931242	-0.055212
C66	C	-0.727189	1.264576	0.278121
C67	C	-1.393902	0.687530	-0.388561
C68	C	-1.060569	1.020863	-0.055228
C69	C	-0.727236	1.354197	0.278105
C70	C	-1.394017	0.388358	-0.598880
C71	C	-1.060684	0.721691	-0.265547
C72	C	-0.727350	1.055025	0.067786
C73	C	-1.394044	0.388332	-0.688502
C74	C	-1.060710	0.721666	-0.355168
C75	C	-0.727377	1.054999	-0.021835
C76	C	-0.645547	0.388431	-0.388600
C77	C	-0.312214	0.721764	-0.055267
C78	C	0.021120	1.055098	0.278067
C79	C	-0.752761	0.388428	-0.388587
C80	C	-0.419428	0.721762	-0.055254
C81	C	-0.086094	1.055095	0.278079
C82	C	-1.394060	1.015706	-0.388658
C83	C	-1.060726	1.349039	-0.055325
C84	C	-0.727393	1.682372	0.278009
C85	C	-1.394013	0.924397	-0.388633
C86	C	-1.060680	1.257730	-0.055300
C87	C	-0.727346	1.591064	0.278033
C88	C	-1.393980	0.851621	-0.388609
C89	C	-1.060647	1.184954	-0.055276
C90	C	-0.727314	1.518287	0.278057
C91	C	-1.393935	0.760306	-0.388585
C92	C	-1.060602	1.093640	-0.055252
C93	C	-0.727268	1.426973	0.278081
C94	C	-1.394071	1.178109	-0.388625
C95	C	-1.060737	1.511442	-0.055291
C96	C	-0.727404	1.844776	0.278042
C97	C	-1.394099	1.088488	-0.388671
C98	C	-1.060766	1.421821	-0.055338
C99	C	-0.727433	1.755155	0.277995
C100	C	-1.394088	0.388242	-1.016677
C101	C	-1.060755	0.721575	-0.683344
C102	C	-0.727421	1.054909	-0.350011
C103	C	-1.394073	0.388270	-0.925369
C104	C	-1.060740	0.721603	-0.592036
C105	C	-0.727406	1.054936	-0.258702
C106	C	-1.394066	0.388288	-0.852592
C107	C	-1.060733	0.721621	-0.519259
C108	C	-0.727400	1.054955	-0.185926
C109	C	-1.394050	0.388314	-0.761278
C110	C	-1.060717	0.721648	-0.427945
C111	C	-0.727384	1.054981	-0.094611
C112	C	-1.393947	0.388420	-0.179081
C113	C	-1.060614	0.721753	0.154253
C114	C	-0.727281	1.055086	0.487586
C115	C	-1.394107	0.388218	-0.089460
C116	C	-1.060774	0.721551	0.243873
C117	C	-0.727441	1.054885	0.577207
