data_functionalizedCrystal
_audit_creation_method	'MofGen! by Chris Wilmer'
_symmetry_space_group_name_H-M	'P1'
_symmetry_Int_Tables_number	1
_symmetry_cell_setting	triclinic
loop_
_symmetry_equiv_pos_as_xyz
  x,y,z
_cell_length_a	15.944545
_cell_length_b	15.944551
_cell_length_c	16.053802
_cell_angle_alpha	92.564789
_cell_angle_beta	87.421421
_cell_angle_gamma	83.497455
loop_
_atom_site_label
_atom_site_type_symbol
_atom_site_fract_x
_atom_site_fract_y
_atom_site_fract_z
O1	O	1.118068	0.104773	-0.069377
O2	O	0.873518	0.118134	-0.069391
O3	O	1.002471	-0.010821	-0.069376
O4	O	0.989116	0.233728	-0.069392
O5	O	0.995373	-0.003752	0.069482
O6	O	0.866421	0.125203	0.069468
O7	O	1.110970	0.111842	0.069481
Zn8	Zn	0.987568	0.119645	0.091521
Zn9	Zn	0.996920	0.110331	-0.091430
O10	O	0.982018	0.240797	0.069467
C11	C	0.838676	0.121115	0.000037
C12	C	0.745430	0.119454	0.000032
C13	C	0.998368	-0.038580	0.000053
C14	C	0.996705	-0.131826	0.000054
C15	C	0.474796	0.034561	0.000046
C16	C	0.521878	0.078976	0.068510
C17	C	0.409785	0.113534	0.000047
C18	C	0.528857	0.072027	-0.068393
C19	C	0.574699	0.116439	0.000038
C20	C	0.455636	0.157930	0.068567
C21	C	0.462614	0.150968	-0.068398
C22	C	0.509662	0.195440	0.000082
C23	C	0.314783	0.111859	0.000052
C24	C	0.669698	0.118120	0.000038
C25	C	0.912802	-0.346682	0.000038
C26	C	0.948264	-0.404215	0.068505
C27	C	0.993698	-0.302553	0.000047
C28	C	0.955281	-0.411167	-0.068398
C29	C	0.990788	-0.467466	0.000037
C30	C	1.029180	-0.358854	0.068571
C31	C	1.036189	-0.365804	-0.068393
C32	C	1.071710	-0.423318	0.000091
C33	C	0.995373	-0.207550	0.000054
C34	C	0.989120	-0.562467	0.000037
C35	C	1.145813	0.108861	0.000052
C36	C	1.239060	0.110522	0.000052
C37	C	0.986121	0.268557	0.000036
C38	C	0.987784	0.361802	0.000030
N39	N	0.981192	0.126000	0.216381
N40	N	1.003303	0.103969	-0.216290
C41	C	1.036082	0.071149	0.260081
C42	C	1.031629	0.075603	0.347487
C43	C	0.972291	0.134913	0.391192
C44	C	0.917396	0.189766	0.347485
C45	C	0.921845	0.185308	0.260081
C46	C	0.952857	0.154364	0.652599
C47	C	0.948414	0.158820	0.740010
C48	C	1.062647	0.044656	0.740006
C49	C	1.067094	0.040206	0.652599
C50	C	1.012196	0.095056	0.608901
N51	N	0.967740	0.139469	0.480535
N52	N	1.016743	0.090496	0.519559
H53	H	0.547850	0.048570	0.126395
H54	H	0.877147	0.229972	0.224501
H55	H	0.459139	-0.033447	0.000117
H56	H	0.423865	0.194207	0.126509
H57	H	0.560733	0.035715	-0.126271
O58	O	0.903787	-0.424640	0.137494
C59	C	0.769778	-0.408397	0.215522
C60	C	0.820049	-0.385220	0.137353
H61	H	0.702072	-0.376522	0.215443
H62	H	0.769400	-0.479868	0.215174
H63	H	0.800673	-0.385913	0.273856
H64	H	0.789193	-0.407649	0.078978
H65	H	0.820432	-0.313747	0.137775
O66	O	0.918108	-0.438625	-0.137540
C67	C	0.921443	-0.449126	-0.287884
C68	C	0.963644	-0.418009	-0.209657
H69	H	0.958231	-0.432454	-0.346210
H70	H	0.921119	-0.520576	-0.287606
H71	H	0.853692	-0.417330	-0.287744
H72	H	1.031412	-0.449743	-0.209745
H73	H	0.963901	-0.346553	-0.209965
O74	O	0.528250	0.276610	0.000232
C75	C	0.593459	0.386354	0.071911
C76	C	0.572479	0.294412	0.071829
H77	H	0.629205	0.400781	0.129799
H78	H	0.634303	0.395292	0.013571
H79	H	0.532338	0.431079	0.072447
H80	H	0.633555	0.249630	0.071322
H81	H	0.531600	0.285544	0.130164
O82	O	0.431662	0.187081	-0.137539
C83	C	0.434155	0.182621	-0.287872
C84	C	0.469264	0.141636	-0.209631
H85	H	0.464554	0.145907	-0.346178
H86	H	0.362751	0.181534	-0.286932
H87	H	0.449213	0.250811	-0.288423
H88	H	0.454268	0.073432	-0.209028
H89	H	0.540660	0.142791	-0.210601
H90	H	1.060406	-0.335915	0.126519
H91	H	1.138915	-0.456476	0.000133
O92	O	1.124494	-0.017477	0.609924
C93	C	1.243661	-0.040965	0.510584
C94	C	1.178929	0.024566	0.558998
H95	H	1.287677	-0.007000	0.469386
H96	H	1.282229	-0.079659	0.556577
H97	H	1.208952	-0.084760	0.469902
H98	H	1.213570	0.068416	0.599682
H99	H	1.140363	0.063198	0.512960
O100	O	0.832659	-0.307040	-0.000001
C101	C	0.702587	-0.289712	-0.071467
C102	C	0.793321	-0.334679	-0.071522
H103	H	0.670762	-0.312028	-0.129294
H104	H	0.665207	-0.305263	-0.013066
H105	H	0.704642	-0.218502	-0.072023
H106	H	0.791344	-0.405899	-0.070995
H107	H	0.830664	-0.319060	-0.129917
H108	H	1.073335	-0.348621	-0.126277
H109	H	1.084405	0.022857	0.224503
O110	O	1.085046	0.022292	0.389808
C111	C	1.198807	-0.091426	0.380580
C112	C	1.138370	-0.031090	0.332549
H113	H	1.241922	-0.134612	0.334307
H114	H	1.238736	-0.053080	0.421460
H115	H	1.160456	-0.131293	0.421541
H116	H	1.176654	0.008790	0.291543
H117	H	1.098439	-0.069485	0.291721
O118	O	1.115932	-0.008750	0.782366
C119	C	1.163732	-0.153414	0.809164
C120	C	1.103360	-0.093021	0.761125
H121	H	1.153577	-0.221559	0.792022
H122	H	1.231903	-0.143382	0.791953
H123	H	1.150370	-0.139999	0.879137
H124	H	1.116646	-0.106399	0.691141
H125	H	1.035209	-0.103065	0.778405
H126	H	0.900090	0.207121	0.775590
O127	O	0.899497	0.207736	0.610287
C128	C	0.785693	0.321411	0.619523
C129	C	0.846088	0.261028	0.667550
H130	H	0.742485	0.364501	0.665799
H131	H	0.823992	0.361368	0.578609
H132	H	0.745852	0.283017	0.578596
H133	H	0.885943	0.299356	0.708522
H134	H	0.807740	0.221068	0.708410
O135	O	0.859714	0.247268	0.390031
C136	C	0.739954	0.270107	0.488697
C137	C	0.805238	0.204895	0.440582
H138	H	0.695882	0.235873	0.529565
H139	H	0.774088	0.314170	0.529658
H140	H	0.701523	0.308561	0.442433
H141	H	0.843689	0.166382	0.486786
H142	H	0.771054	0.160890	0.399608
