data_functionalizedCrystal
_audit_creation_method	'MofGen! by Chris Wilmer'
_symmetry_space_group_name_H-M	'P1'
_symmetry_Int_Tables_number	1
_symmetry_cell_setting	triclinic
loop_
_symmetry_equiv_pos_as_xyz
  x,y,z
_cell_length_a	17.699083
_cell_length_b	17.666332
_cell_length_c	17.699083
_cell_angle_alpha	89.992629
_cell_angle_beta	96.716985
_cell_angle_gamma	90.003324
loop_
_atom_site_label
_atom_site_type_symbol
_atom_site_fract_x
_atom_site_fract_y
_atom_site_fract_z
O1	O	1.004081	0.062844	-0.095712
O2	O	0.783703	0.062869	-0.108165
O3	O	0.900118	0.062849	0.008250
O4	O	0.887666	0.062864	-0.212128
O5	O	0.900098	-0.063048	0.008257
O6	O	0.783682	-0.063028	-0.108159
O7	O	1.004061	-0.063053	-0.095706
Cu8	Cu	0.893870	-0.074536	-0.101932
Cu9	Cu	0.893894	0.074352	-0.101939
O10	O	0.887645	-0.063033	-0.212122
C11	C	0.755495	-0.000077	-0.107716
C12	C	0.671477	-0.000067	-0.106377
N13	N	0.893858	-0.179255	-0.101926
C14	C	0.622856	-0.000063	-0.174710
C15	C	0.543913	-0.000073	-0.173448
C16	C	0.513592	-0.000082	-0.103852
C17	C	0.562219	-0.000088	-0.035513
C18	C	0.641161	-0.000084	-0.036776
C19	C	0.243856	-0.000107	-0.030418
C20	C	0.164908	-0.000109	-0.029160
C21	C	0.146608	-0.000096	-0.167090
C22	C	0.225550	-0.000092	-0.168353
C23	C	0.274170	-0.000102	-0.100015
C24	C	0.359769	-0.000093	-0.101384
C25	C	0.427995	-0.000085	-0.102481
C26	C	0.945424	-0.218874	-0.050403
C27	C	0.945428	-0.298121	-0.050399
C28	C	0.893874	-0.337748	-0.101932
C29	C	0.842299	-0.298119	-0.153460
C30	C	0.842291	-0.218873	-0.153457
N31	N	0.884117	-0.462161	-0.168921
N32	N	0.884129	-0.537441	-0.168921
C33	C	0.893894	-0.576512	-0.101943
N34	N	0.903662	-0.537457	-0.034962
N35	N	0.903653	-0.462170	-0.034962
C36	C	0.893877	-0.423677	-0.101941
C37	C	0.945467	-0.702059	-0.050411
C38	C	0.945466	-0.781308	-0.050406
C39	C	0.842341	-0.781305	-0.153473
C40	C	0.842338	-0.702057	-0.153471
C41	C	0.893905	-0.662439	-0.101941
C42	C	1.032268	-0.000106	-0.096156
C43	C	1.116286	-0.000110	-0.097494
C44	C	0.899662	-0.000100	0.036451
C45	C	0.898323	-0.000100	0.120469
N46	N	0.893911	0.179071	-0.101939
C47	C	0.888102	-0.000083	-0.240322
C48	C	0.889440	-0.000078	-0.324340
C49	C	0.966656	-0.000109	0.169090
C50	C	0.965394	-0.000102	0.248033
C51	C	0.895798	-0.000092	0.278354
C52	C	0.827459	-0.000080	0.229727
C53	C	0.828722	-0.000082	0.150785
C54	C	0.822364	-0.000074	0.548090
C55	C	0.821106	-0.000075	0.627038
C56	C	0.959036	-0.000094	0.645338
C57	C	0.960299	-0.000095	0.566396
C58	C	0.891961	-0.000080	0.517776
C59	C	0.893330	-0.000086	0.432177
C60	C	0.894427	-0.000091	0.363951
H61	H	0.647537	-0.000055	-0.231384
H62	H	0.283434	-0.000116	0.025228
C63	C	0.785570	-0.175287	-0.210140
C64	C	0.728880	-0.218867	-0.266849
C65	C	0.672160	-0.175279	-0.323534
C66	C	0.672130	-0.088111	-0.323510
C67	C	0.728822	-0.044527	-0.266799
C68	C	0.785542	-0.088115	-0.210114
H69	H	0.728900	-0.283398	-0.266868
H70	H	0.630193	-0.207543	-0.365515
H71	H	0.630142	-0.055845	-0.365471
H72	H	0.728802	0.020004	-0.266779
H73	H	0.827509	-0.055850	-0.168133
C74	C	0.747196	-0.000066	0.494611
C75	C	0.729088	-0.065438	0.437828
C76	C	0.653917	-0.065431	0.384343
C77	C	0.596855	-0.000052	0.387640
C78	C	0.614961	0.065325	0.444425
C79	C	0.690132	0.065318	0.497910
H80	H	0.771331	-0.113839	0.435386
H81	H	0.640514	-0.113827	0.342308
H82	H	0.541209	-0.000047	0.348047
H83	H	0.572719	0.113726	0.446867
H84	H	0.703535	0.113715	0.539945
C85	C	1.002138	-0.175292	0.006285
C86	C	1.058859	-0.218875	0.062967
C87	C	1.115571	-0.175289	0.119655
C88	C	1.115562	-0.088122	0.119661
C89	C	1.058839	-0.044534	0.062977
C90	C	1.002127	-0.088120	0.006289
H91	H	1.058867	-0.283406	0.062964
H92	H	1.157561	-0.207556	0.161617
H93	H	1.157544	-0.055857	0.161625
H94	H	1.058831	0.019997	0.062980
H95	H	0.960137	-0.055853	-0.035673
H96	H	0.800352	-0.669798	-0.195430
H97	H	0.987455	-0.813566	-0.008445
H98	H	0.800362	-0.813568	-0.195430
H99	H	0.680748	-0.000087	0.018868
C100	C	0.490430	-0.000071	-0.248616
C101	C	0.523780	-0.000058	-0.325171
C102	C	0.470297	-0.000060	-0.400343
C103	C	0.383463	-0.000075	-0.398960
C104	C	0.350108	-0.000088	-0.322402
C105	C	0.403592	-0.000086	-0.247231
H106	H	0.588064	-0.000047	-0.326197
H107	H	0.494988	-0.000051	-0.457016
H108	H	0.343871	-0.000077	-0.454607
H109	H	0.285825	-0.000099	-0.321376
H110	H	0.378900	-0.000095	-0.190558
H111	H	1.021038	-0.000111	0.287618
H112	H	0.800322	-0.330387	-0.195417
C113	C	0.528869	-0.000097	0.041045
C114	C	0.442037	-0.000096	0.042439
C115	C	0.408689	-0.000101	0.118999
C116	C	0.462174	-0.000107	0.194165
C117	C	0.549011	-0.000108	0.192774
C118	C	0.582359	-0.000103	0.116214
H119	H	0.402440	-0.000092	-0.013206
H120	H	0.344406	-0.000101	0.120028
H121	H	0.437488	-0.000111	0.250839
H122	H	0.588608	-0.000112	0.248419
H123	H	0.646642	-0.000103	0.115185
C124	C	1.002182	-0.658475	0.006278
C125	C	1.058896	-0.702062	0.062963
C126	C	1.115611	-0.658481	0.119652
C127	C	1.115612	-0.571314	0.119656
C128	C	1.058896	-0.527722	0.062969
C129	C	1.002181	-0.571303	0.006280
H130	H	1.058897	-0.766593	0.062961
H131	H	1.157596	-0.690751	0.161616
H132	H	1.157596	-0.539053	0.161621
H133	H	1.058895	-0.463191	0.062970
H134	H	0.960196	-0.539033	-0.035684
H135	H	1.023330	-0.000122	0.144409
C136	C	1.036856	-0.000102	0.533044
C137	C	1.112024	-0.000105	0.586526
C138	C	1.188582	-0.000107	0.553175
C139	C	1.189973	-0.000107	0.466343
C140	C	1.114802	-0.000104	0.412855
C141	C	1.038244	-0.000102	0.446206
H142	H	1.110997	-0.000105	0.650809
H143	H	1.244229	-0.000109	0.592771
H144	H	1.246646	-0.000109	0.441654
H145	H	1.115829	-0.000104	0.348572
H146	H	0.982598	-0.000100	0.406611
H147	H	0.250232	-0.000081	-0.225025
H148	H	0.107012	-0.000092	-0.222734
H149	H	0.140225	-0.000118	0.027517
H150	H	0.987420	-0.330385	-0.008441
H151	H	0.770792	-0.000067	0.254420
H152	H	1.014680	-0.000102	0.684934
H153	H	0.764429	-0.000068	0.651721
H154	H	0.773078	-0.000074	0.111198
