data_functionalizedCrystal
_audit_creation_method	'MofGen! by Chris Wilmer'
_symmetry_space_group_name_H-M	'P1'
_symmetry_Int_Tables_number	1
_symmetry_cell_setting	triclinic
loop_
_symmetry_equiv_pos_as_xyz
  x,y,z
_cell_length_a	21.395362
_cell_length_b	21.395361
_cell_length_c	21.395356
_cell_angle_alpha	90.028721
_cell_angle_beta	89.964122
_cell_angle_gamma	89.953589
loop_
_atom_site_label
_atom_site_type_symbol
_atom_site_fract_x
_atom_site_fract_y
_atom_site_fract_z
Zn1	Zn	0.957810	0.249186	-0.354583
Zn2	Zn	1.207810	0.499186	-0.104583
Zn3	Zn	1.457810	0.749186	0.145417
Zn4	Zn	1.707810	0.999186	0.395417
Zn5	Zn	0.957728	0.353963	-0.249805
Zn6	Zn	1.207728	0.603963	0.000195
Zn7	Zn	1.457728	0.853963	0.250195
Zn8	Zn	1.707728	1.103963	0.500195
Zn9	Zn	0.853040	0.249233	-0.249785
Zn10	Zn	1.103040	0.499233	0.000215
Zn11	Zn	1.353040	0.749233	0.250215
Zn12	Zn	1.603040	0.999233	0.500215
Zn13	Zn	0.852995	0.353959	-0.354510
Zn14	Zn	1.102995	0.603959	-0.104510
Zn15	Zn	1.352995	0.853959	0.145490
Zn16	Zn	1.602995	1.103959	0.395490
O17	O	0.905393	0.301585	-0.302171
O18	O	1.155393	0.551585	-0.052171
O19	O	1.405393	0.801585	0.197829
O20	O	1.655393	1.051585	0.447829
O21	O	1.045477	0.263067	-0.340724
O22	O	1.295477	0.513067	-0.090724
O23	O	1.545477	0.763067	0.159276
O24	O	1.795477	1.013067	0.409276
O25	O	0.943825	0.340092	-0.162124
O26	O	1.193825	0.590092	0.087876
O27	O	1.443825	0.840092	0.337876
O28	O	1.693825	1.090092	0.587876
O29	O	0.866992	0.161548	-0.263709
O30	O	1.116992	0.411548	-0.013709
O31	O	1.366992	0.661548	0.236291
O32	O	1.616992	0.911548	0.486291
O33	O	1.045417	0.340047	-0.263743
O34	O	1.295417	0.590047	-0.013743
O35	O	1.545417	0.840047	0.236257
O36	O	1.795417	1.090047	0.486257
O37	O	0.943966	0.161514	-0.340704
O38	O	1.193966	0.411514	-0.090704
O39	O	1.443966	0.661514	0.159296
O40	O	1.693966	0.911514	0.409296
O41	O	0.866912	0.263147	-0.162109
O42	O	1.116912	0.513147	0.087891
O43	O	1.366912	0.763147	0.337891
O44	O	1.616912	1.013147	0.587891
O45	O	0.765356	0.263142	-0.263637
O46	O	1.015356	0.513142	-0.013637
O47	O	1.265356	0.763142	0.236363
O48	O	1.515356	1.013142	0.486363
O49	O	0.866914	0.340039	-0.442197
O50	O	1.116914	0.590039	-0.192197
O51	O	1.366914	0.840039	0.057803
O52	O	1.616914	1.090039	0.307803
O53	O	0.765323	0.340084	-0.340578
O54	O	1.015323	0.590084	-0.090578
O55	O	1.265323	0.840084	0.159422
O56	O	1.515323	1.090084	0.409422
O57	O	0.943922	0.263062	-0.442251
O58	O	1.193922	0.513062	-0.192251
O59	O	1.443922	0.763062	0.057749
O60	O	1.693922	1.013062	0.307749
O61	O	0.943781	0.441641	-0.263672
O62	O	1.193781	0.691641	-0.013672
O63	O	1.443781	0.941641	0.236328
O64	O	1.693781	1.191641	0.486328
O65	O	0.866834	0.441637	-0.340598
O66	O	1.116834	0.691637	-0.090598
O67	O	1.366834	0.941637	0.159402
O68	O	1.616834	1.191637	0.409402
C69	C	0.742606	0.301618	-0.302098
C70	C	0.992606	0.551618	-0.052098
C71	C	1.242606	0.801618	0.197902
C72	C	1.492606	1.051618	0.447902
C73	C	0.672964	0.301647	-0.302082
C74	C	0.922964	0.551647	-0.052082
C75	C	1.172964	0.801647	0.197918
C76	C	1.422964	1.051647	0.447918
C77	C	0.640250	0.341764	-0.342085
C78	C	0.890250	0.591764	-0.092085
C79	C	1.140250	0.841764	0.157915
C80	C	1.390250	1.091764	0.407915
C81	C	0.574815	0.341749	-0.342113
C82	C	0.824815	0.591749	-0.092113
C83	C	1.074815	0.841749	0.157887
C84	C	1.324815	1.091749	0.407887
C85	C	0.542096	0.301623	-0.302126
C86	C	0.792096	0.551623	-0.052126
C87	C	1.042096	0.801623	0.197874
C88	C	1.292096	1.051623	0.447874
C89	C	0.574818	0.261499	-0.262120
C90	C	0.824818	0.511499	-0.012120
C91	C	1.074818	0.761499	0.237880
C92	C	1.324818	1.011499	0.487880
C93	C	0.640252	0.261511	-0.262098
C94	C	0.890252	0.511511	-0.012098
C95	C	1.140252	0.761511	0.237902
C96	C	1.390252	1.011511	0.487902
C97	C	0.438379	0.296585	-0.245721
C98	C	0.688379	0.546585	0.004279
C99	C	0.938379	0.796585	0.254279
C100	C	1.188379	1.046585	0.504279
C101	C	0.372946	0.296578	-0.245742
C102	C	0.622946	0.546578	0.004258
C103	C	0.872946	0.796578	0.254258
C104	C	1.122946	1.046578	0.504258
C105	C	0.340275	0.301582	-0.302195
C106	C	0.590275	0.551582	-0.052195
C107	C	0.840275	0.801582	0.197805
C108	C	1.090275	1.051582	0.447805
C109	C	0.373045	0.306608	-0.358629
C110	C	0.623045	0.556608	-0.108629
C111	C	0.873045	0.806608	0.141371
C112	C	1.123045	1.056608	0.391371
C113	C	0.438480	0.306620	-0.358607
C114	C	0.688480	0.556620	-0.108607
C115	C	0.938480	0.806620	0.141393
C116	C	1.188480	1.056620	0.391393
C117	C	0.471144	0.301605	-0.302146
C118	C	0.721144	0.551605	-0.052146
C119	C	0.971144	0.801605	0.197854
C120	C	1.221144	1.051605	0.447854
C121	C	0.236609	0.341685	-0.342232
C122	C	0.486609	0.591685	-0.092232
C123	C	0.736609	0.841685	0.157768
C124	C	0.986609	1.091685	0.407768
C125	C	0.171172	0.341665	-0.342261
C126	C	0.421172	0.591665	-0.092261
C127	C	0.671172	0.841665	0.157739
C128	C	0.921172	1.091665	0.407739
C129	C	0.171177	0.261418	-0.262263
C130	C	0.421177	0.511418	-0.012263
C131	C	0.671177	0.761418	0.237737
C132	C	0.921177	1.011418	0.487737
C133	C	0.236612	0.261435	-0.262240
C134	C	0.486612	0.511435	-0.012240
C135	C	0.736612	0.761435	0.237760
C136	C	0.986612	1.011435	0.487760
C137	C	0.269324	0.301571	-0.302223
C138	C	0.519324	0.551571	-0.052223
C139	C	0.769324	0.801571	0.197777
C140	C	1.019324	1.051571	0.447777
C141	C	0.905311	0.464373	-0.302143
C142	C	1.155311	0.714373	-0.052143
C143	C	1.405311	0.964373	0.197857
C144	C	1.655311	1.214373	0.447857
C145	C	0.905333	0.534014	-0.302152
C146	C	1.155333	0.784014	-0.052152
C147	C	1.405333	1.034014	0.197848
C148	C	1.655333	1.284014	0.447848
C149	C	0.945435	0.566708	-0.262139
C150	C	1.195435	0.816708	-0.012139
C151	C	1.445435	1.066708	0.237861
C152	C	1.695435	1.316708	0.487861
C153	C	0.945464	0.632143	-0.262156
C154	C	1.195464	0.882143	-0.012156
C155	C	1.445464	1.132143	0.237844
C156	C	1.695464	1.382143	0.487844
C157	C	0.905381	0.664882	-0.302179
C158	C	1.155381	0.914882	-0.052179
C159	C	1.405381	1.164882	0.197821
C160	C	1.655381	1.414882	0.447821
C161	C	0.865276	0.632180	-0.342200
C162	C	1.115276	0.882180	-0.092200
C163	C	1.365276	1.132180	0.157800
C164	C	1.615276	1.382180	0.407800
C165	C	0.865252	0.566746	-0.342186
C166	C	1.115252	0.816746	-0.092186
C167	C	1.365252	1.066746	0.157814
C168	C	1.615252	1.316746	0.407814
C169	C	0.848966	0.768612	-0.307074
C170	C	1.098966	1.018612	-0.057074
C171	C	1.348966	1.268612	0.192926
C172	C	1.598966	1.518612	0.442926
C173	C	0.848988	0.834045	-0.307083
C174	C	1.098988	1.084045	-0.057083
C175	C	1.348988	1.334045	0.192917
C176	C	1.598988	1.584045	0.442917
C177	C	0.905454	0.866703	-0.302224
C178	C	1.155454	1.116703	-0.052224
C179	C	1.405454	1.366703	0.197776
C180	C	1.655454	1.616703	0.447776
C181	C	0.961899	0.833920	-0.297343
C182	C	1.211899	1.083920	-0.047343
C183	C	1.461899	1.333920	0.202657
C184	C	1.711899	1.583920	0.452657
C185	C	0.961876	0.768486	-0.297329
C186	C	1.211876	1.018486	-0.047329
C187	C	1.461876	1.268486	0.202671
C188	C	1.711876	1.518486	0.452671
C189	C	0.905402	0.735835	-0.302198
C190	C	1.155402	0.985835	-0.052198
C191	C	1.405402	1.235835	0.197802
C192	C	1.655402	1.485835	0.447802
C193	C	0.945591	0.970350	-0.262227
C194	C	1.195591	1.220350	-0.012227
C195	C	1.445591	1.470350	0.237773
C196	C	1.695591	1.720350	0.487773
C197	C	0.945622	1.035786	-0.262249
C198	C	1.195622	1.285786	-0.012249
C199	C	1.445622	1.535786	0.237751
C200	C	1.695622	1.785786	0.487751
C201	C	0.865428	1.035822	-0.342289
C202	C	1.115428	1.285822	-0.092289
C203	C	1.365428	1.535822	0.157711
C204	C	1.615428	1.785822	0.407711
C205	C	0.865403	0.970386	-0.342271
C206	C	1.115403	1.220386	-0.092271
C207	C	1.365403	1.470386	0.157729
C208	C	1.615403	1.720386	0.407729
C209	C	0.905484	0.937654	-0.302237
C210	C	1.155484	1.187654	-0.052237
C211	C	1.405484	1.437654	0.197763
C212	C	1.655484	1.687654	0.447763
C213	C	1.068817	0.301552	-0.302244
C214	C	1.318817	0.551552	-0.052244
C215	C	1.568817	0.801552	0.197756
C216	C	1.818817	1.051552	0.447756
C217	C	1.138458	0.301538	-0.302275
C218	C	1.388458	0.551538	-0.052275
C219	C	1.638458	0.801538	0.197725
C220	C	1.888458	1.051538	0.447725
C221	C	0.905422	0.301545	-0.465594
C222	C	1.155422	0.551545	-0.215594
C223	C	1.405422	0.801545	0.034406
C224	C	1.655422	1.051545	0.284406
C225	C	0.905435	0.301528	-0.535235
C226	C	1.155435	0.551528	-0.285235
C227	C	1.405435	0.801528	-0.035235
C228	C	1.655435	1.051528	0.214765
C229	C	0.905494	1.138162	-0.302223
C230	C	1.155494	1.388162	-0.052223
C231	C	1.405494	1.638162	0.197777
C232	C	1.655494	1.888162	0.447777
C233	C	0.905538	1.068520	-0.302273
C234	C	1.155538	1.318520	-0.052273
C235	C	1.405538	1.568520	0.197727
C236	C	1.655538	1.818520	0.447727
C237	C	0.945591	0.261346	-1.037061
C238	C	1.195591	0.511346	-0.787061
C239	C	1.445591	0.761346	-0.537061
C240	C	1.695591	1.011346	-0.287061
C241	C	0.945587	0.261361	-0.971625
C242	C	1.195587	0.511361	-0.721625
C243	C	1.445587	0.761361	-0.471625
C244	C	1.695587	1.011361	-0.221625
C245	C	0.905488	0.301444	-0.938874
C246	C	1.155488	0.551444	-0.688874
C247	C	1.405488	0.801444	-0.438874
C248	C	1.655488	1.051444	-0.188874
C249	C	0.865404	0.341526	-0.971563
C250	C	1.115404	0.591526	-0.721563
C251	C	1.365404	0.841526	-0.471563
C252	C	1.615404	1.091526	-0.221563
C253	C	0.865414	0.341514	-1.036997
C254	C	1.115414	0.591514	-0.786997
C255	C	1.365414	0.841514	-0.536997
C256	C	1.615414	1.091514	-0.286997
C257	C	0.849019	0.306422	-0.835179
C258	C	1.099019	0.556422	-0.585179
C259	C	1.349019	0.806422	-0.335179
C260	C	1.599019	1.056422	-0.085179
C261	C	0.849008	0.306429	-0.769746
C262	C	1.099008	0.556429	-0.519746
C263	C	1.349008	0.806429	-0.269746
C264	C	1.599008	1.056429	-0.019746
C265	C	0.905456	0.301484	-0.737053
C266	C	1.155456	0.551484	-0.487053
C267	C	1.405456	0.801484	-0.237053
C268	C	1.655456	1.051484	0.012947
C269	C	0.961918	0.296519	-0.769801
C270	C	1.211918	0.546519	-0.519801
C271	C	1.461918	0.796519	-0.269801
C272	C	1.711918	1.046519	-0.019801
C273	C	0.961929	0.296507	-0.835235
C274	C	1.211929	0.546507	-0.585235
C275	C	1.461929	0.796507	-0.335235
C276	C	1.711929	1.046507	-0.085235
C277	C	0.905473	0.301462	-0.867921
C278	C	1.155473	0.551462	-0.617921
C279	C	1.405473	0.801462	-0.367921
C280	C	1.655473	1.051462	-0.117921
C281	C	0.945536	0.261424	-0.633419
C282	C	1.195536	0.511424	-0.383419
C283	C	1.445536	0.761424	-0.133419
C284	C	1.695536	1.011424	0.116581
C285	C	0.945532	0.261444	-0.567982
C286	C	1.195532	0.511444	-0.317982
C287	C	1.445532	0.761444	-0.067982
C288	C	1.695532	1.011444	0.182018
C289	C	0.865344	0.341605	-0.567921
C290	C	1.115344	0.591605	-0.317921
C291	C	1.365344	0.841605	-0.067921
C292	C	1.615344	1.091605	0.182079
C293	C	0.865354	0.341589	-0.633356
C294	C	1.115354	0.591589	-0.383356
C295	C	1.365354	0.841589	-0.133356
C296	C	1.615354	1.091589	0.116644
C297	C	0.905449	0.301495	-0.666101
C298	C	1.155449	0.551495	-0.416101
C299	C	1.405449	0.801495	-0.166101
C300	C	1.655449	1.051495	0.083899
C301	C	0.905400	0.301580	-0.139383
C302	C	1.155400	0.551580	0.110617
C303	C	1.405400	0.801580	0.360617
C304	C	1.655400	1.051580	0.610617
C305	C	0.905510	0.301421	-0.069742
C306	C	1.155510	0.551421	0.180258
C307	C	1.405510	0.801421	0.430258
C308	C	1.655510	1.051421	0.680258
H309	H	0.465158	0.310710	-0.404557
H310	H	0.715158	0.560710	-0.154557
H311	H	0.965158	0.810710	0.095443
H312	H	1.215158	1.060710	0.345443
F313	F	0.822771	1.070660	-0.384889
F314	F	1.072771	1.320660	-0.134889
F315	F	1.322771	1.570660	0.115111
F316	F	1.572771	1.820660	0.365111
F317	F	0.136356	0.384361	-0.384844
F318	F	0.386356	0.634361	-0.134844
F319	F	0.636356	0.884361	0.115156
F320	F	0.886356	1.134361	0.365156
F321	F	0.988199	0.218792	-0.533201
F322	F	1.238199	0.468792	-0.283201
F323	F	1.488199	0.718792	-0.033201
F324	F	1.738199	0.968792	0.216799
H325	H	0.978230	0.943698	-0.229631
H326	H	1.228230	1.193698	0.020369
H327	H	1.478230	1.443698	0.270369
H328	H	1.728230	1.693698	0.520369
H329	H	0.832641	0.658840	-0.374788
H330	H	1.082641	0.908840	-0.124788
H331	H	1.332641	1.158840	0.125212
H332	H	1.582641	1.408840	0.375212
H333	H	0.346446	0.310682	-0.404599
H334	H	0.596446	0.560682	-0.154599
H335	H	0.846446	0.810682	0.095401
H336	H	1.096446	1.060682	0.345401
H337	H	0.978281	1.062405	-0.229666
H338	H	1.228281	1.312405	0.020334
H339	H	1.478281	1.562405	0.270334
H340	H	1.728281	1.812405	0.520334
H341	H	0.548174	0.374416	-0.374690
H342	H	0.798174	0.624416	-0.124690
H343	H	1.048174	0.874416	0.125310
H344	H	1.298174	1.124416	0.375310
H345	H	0.832596	0.540126	-0.374770
H346	H	1.082596	0.790126	-0.124770
H347	H	1.332596	1.040126	0.125230
H348	H	1.582596	1.290126	0.375230
H349	H	0.832774	0.374149	-1.063606
H350	H	1.082774	0.624149	-0.813606
H351	H	1.332774	0.874149	-0.563606
H352	H	1.582774	1.124149	-0.313606
H353	H	0.832746	0.943765	-0.374851
H354	H	1.082746	1.193765	-0.124851
H355	H	1.332746	1.443765	0.125149
H356	H	1.582746	1.693765	0.375149
F357	F	0.988284	0.218694	-1.071907
F358	F	1.238284	0.468694	-0.821907
F359	F	1.488284	0.718694	-0.571907
F360	F	1.738284	0.968694	-0.321907
F361	F	0.788915	0.868929	-0.312276
F362	F	1.038915	1.118929	-0.062276
F363	F	1.288915	1.368929	0.187724
F364	F	1.538915	1.618929	0.437724
F365	F	0.988249	0.218707	-0.936836
F366	F	1.238249	0.468707	-0.686836
F367	F	1.488249	0.718707	-0.436836
F368	F	1.738249	0.968707	-0.186836
H369	H	0.832712	0.374219	-0.659966
H370	H	1.082712	0.624219	-0.409966
H371	H	1.332712	0.874219	-0.159966
H372	H	1.582712	1.124219	0.090034
H373	H	0.802981	0.742029	-0.311033
H374	H	1.052981	0.992029	-0.061033
H375	H	1.302981	1.242029	0.188967
H376	H	1.552981	1.492029	0.438967
F377	F	1.022018	0.291229	-0.870086
F378	F	1.272018	0.541229	-0.620086
F379	F	1.522018	0.791229	-0.370086
F380	F	1.772018	1.041229	-0.120086
F381	F	0.822674	0.384270	-0.533069
F382	F	1.072674	0.634270	-0.283069
F383	F	1.322674	0.884270	-0.033069
F384	F	1.572674	1.134270	0.216931
H385	H	0.263245	0.374363	-0.374793
H386	H	0.513245	0.624363	-0.124793
H387	H	0.763245	0.874363	0.125207
H388	H	1.013245	1.124363	0.375207
F389	F	0.136359	0.218710	-0.219709
F390	F	0.386359	0.468710	0.030291
F391	F	0.636359	0.718710	0.280291
F392	F	0.886359	0.968710	0.530291
F393	F	0.271430	0.218738	-0.219661
F394	F	0.521430	0.468738	0.030339
F395	F	0.771430	0.718738	0.280339
F396	F	1.021430	0.968738	0.530339
F397	F	0.338076	0.291229	-0.185682
F398	F	0.588076	0.541229	0.064318
F399	F	0.838076	0.791229	0.314318
F400	F	1.088076	1.041229	0.564318
H401	H	0.803033	0.310472	-0.743087
H402	H	1.053033	0.560472	-0.493087
H403	H	1.303033	0.810472	-0.243087
H404	H	1.553033	1.060472	0.006913
F405	F	1.022001	0.291265	-0.735013
F406	F	1.272001	0.541265	-0.485013
F407	F	1.522001	0.791265	-0.235013
F408	F	1.772001	1.041265	0.014987
H409	H	0.978184	0.228777	-0.660081
H410	H	1.228184	0.478777	-0.410081
H411	H	1.478184	0.728777	-0.160081
H412	H	1.728184	0.978777	0.089919
H413	H	0.464975	0.292507	-0.199747
H414	H	0.714975	0.542507	0.050253
H415	H	0.964975	0.792507	0.300253
H416	H	1.214975	1.042507	0.550253
F417	F	0.788934	0.311678	-0.869966
F418	F	1.038934	0.561678	-0.619966
F419	F	1.288934	0.811678	-0.369966
F420	F	1.538934	1.061678	-0.119966
H421	H	0.666881	0.374445	-0.374644
H422	H	0.916881	0.624445	-0.124644
H423	H	1.166881	0.874445	0.125356
H424	H	1.416881	1.124445	0.375356
F425	F	0.539996	0.218792	-0.219566
F426	F	0.789996	0.468792	0.030434
F427	F	1.039996	0.718792	0.280434
F428	F	1.289996	0.968792	0.530434
H429	H	0.666888	0.228841	-0.229522
H430	H	0.916888	0.478841	0.020478
H431	H	1.166888	0.728841	0.270478
H432	H	1.416888	0.978841	0.520478
F433	F	0.988100	0.531876	-0.219537
F434	F	1.238100	0.781876	0.030463
F435	F	1.488100	1.031876	0.280463
F436	F	1.738100	1.281876	0.530463
H437	H	0.978122	0.658768	-0.229572
H438	H	1.228122	0.908768	0.020428
H439	H	1.478122	1.158768	0.270428
H440	H	1.728122	1.408768	0.520428
H441	H	1.007834	0.741795	-0.293357
H442	H	1.257834	0.991795	-0.043357
H443	H	1.507834	1.241795	0.206643
H444	H	1.757834	1.491795	0.456643
H445	H	1.007879	0.860508	-0.293386
H446	H	1.257879	1.110508	-0.043386
H447	H	1.507879	1.360508	0.206614
H448	H	1.757879	1.610508	0.456614
H449	H	0.832757	0.374163	-0.944892
H450	H	1.082757	0.624163	-0.694892
H451	H	1.332757	0.874163	-0.444892
H452	H	1.582757	1.124163	-0.194892
