data_functionalizedCrystal
_audit_creation_method	'MofGen! by Chris Wilmer'
_symmetry_space_group_name_H-M	'P1'
_symmetry_Int_Tables_number	1
_symmetry_cell_setting	triclinic
loop_
_symmetry_equiv_pos_as_xyz
  x,y,z
_cell_length_a	25.639243
_cell_length_b	25.639239
_cell_length_c	11.169409
_cell_angle_alpha	89.960719
_cell_angle_beta	89.974266
_cell_angle_gamma	90.041410
loop_
_atom_site_label
_atom_site_type_symbol
_atom_site_fract_x
_atom_site_fract_y
_atom_site_fract_z
Zn1	Zn	0.799276	-0.208070	-0.678674
Zn2	Zn	0.799184	-0.295521	-0.477967
Zn3	Zn	0.711837	-0.208105	-0.477988
Zn4	Zn	0.711797	-0.295481	-0.678591
O5	O	0.755523	-0.251794	-0.578305
O6	O	0.872429	-0.219673	-0.652076
O7	O	0.787576	-0.283956	-0.310020
O8	O	0.723491	-0.134935	-0.504653
O9	O	0.872361	-0.283922	-0.504617
O10	O	0.787732	-0.134910	-0.652096
O11	O	0.723402	-0.219732	-0.310035
O12	O	0.638666	-0.219694	-0.504572
O13	O	0.723423	-0.283854	-0.846552
O14	O	0.638637	-0.283888	-0.651954
O15	O	0.787693	-0.219634	-0.846613
O16	O	0.787537	-0.368681	-0.504536
O17	O	0.723334	-0.368651	-0.651934
C18	C	0.619681	-0.251791	-0.578257
C19	C	0.561567	-0.251802	-0.578265
C20	C	0.201233	-0.218392	-0.655215
C21	C	0.146629	-0.218392	-0.655222
O22	O	0.118417	-0.189976	-0.720588
N23	N	0.119284	-0.251793	-0.578338
C24	C	0.146547	-0.285193	-0.501432
O25	O	0.118274	-0.313602	-0.436036
C26	C	0.201150	-0.285190	-0.501420
C27	C	0.228492	-0.251791	-0.578318
C28	C	0.228575	-0.184995	-0.732105
C29	C	0.283175	-0.184996	-0.732099
C30	C	0.310434	-0.218395	-0.655202
C31	C	0.283093	-0.251792	-0.578312
C32	C	0.228412	-0.318587	-0.424509
C33	C	0.283019	-0.318581	-0.424503
C34	C	0.310361	-0.285182	-0.501401
C35	C	0.364952	-0.285191	-0.501408
N36	N	0.392296	-0.251790	-0.578293
C37	C	0.365038	-0.218392	-0.655190
C38	C	0.031876	-0.285195	-0.501463
C39	C	-0.022726	-0.285200	-0.501481
C40	C	-0.022640	-0.218399	-0.655269
C41	C	0.031963	-0.218396	-0.655257
C42	C	0.059221	-0.251794	-0.578348
C43	C	0.479703	-0.218398	-0.655172
C44	C	0.534308	-0.218403	-0.655162
C45	C	0.534218	-0.285203	-0.501370
C46	C	0.479617	-0.285199	-0.501383
C47	C	0.452361	-0.251792	-0.578288
O48	O	0.393198	-0.313591	-0.436073
O49	O	0.393317	-0.189982	-0.720564
C50	C	0.755435	-0.387637	-0.578250
C51	C	0.755446	-0.445751	-0.578266
C52	C	0.789041	-0.806116	-0.501686
C53	C	0.789061	-0.860721	-0.501702
O54	O	0.817534	-0.888960	-0.436530
N55	N	0.755615	-0.888033	-0.578384
C56	C	0.722151	-0.860739	-0.655065
O57	O	0.693704	-0.888984	-0.720291
C58	C	0.722133	-0.806135	-0.655054
C59	C	0.755578	-0.778826	-0.578357
C60	C	0.822483	-0.778807	-0.424996
C61	C	0.822462	-0.724206	-0.424979
C62	C	0.788999	-0.696915	-0.501651
C63	C	0.755557	-0.724225	-0.578340
C64	C	0.688672	-0.778842	-0.731739
C65	C	0.688657	-0.724235	-0.731722
C66	C	0.722102	-0.696925	-0.655026
C67	C	0.722072	-0.642334	-0.654994
N68	N	0.755518	-0.615021	-0.578312
C69	C	0.788982	-0.642312	-0.501640
C70	C	0.722190	-0.975409	-0.655083
C71	C	0.722204	-1.030011	-0.655089
C72	C	0.789116	-1.029990	-0.501727
C73	C	0.789099	-0.975387	-0.501716
C74	C	0.755636	-0.948097	-0.578400
C75	C	0.788935	-0.527647	-0.501609
C76	C	0.788909	-0.473042	-0.501595
C77	C	0.721999	-0.473068	-0.654960
C78	C	0.722023	-0.527669	-0.654970
C79	C	0.755495	-0.554957	-0.578291
O80	O	0.693616	-0.614060	-0.720137
O81	O	0.817428	-0.614060	-0.436435
C82	C	0.891896	-0.251798	-0.578353
C83	C	0.950010	-0.251800	-0.578374
C84	C	0.755564	-0.251736	-0.891347
C85	C	0.755581	-0.251711	-1.024747
C86	C	0.755626	-0.115421	-0.578386
C87	C	0.755670	-0.057307	-0.578421
C88	C	0.755513	-0.251814	-0.266480
C89	C	0.755598	-0.251692	-0.133081
H90	H	0.206160	-0.345784	-0.361889
Cl91	Cl	0.864517	-0.689882	-0.328574
H92	H	0.457517	-0.191193	-0.717791
H93	H	0.661409	-0.702018	-0.794172
Cl94	Cl	0.646630	-0.813160	-0.828178
Cl95	Cl	0.831184	-1.064309	-0.405337
Cl96	Cl	0.317283	-0.360571	-0.327813
Cl97	Cl	0.066138	-0.327188	-0.404774
H98	H	0.816192	-0.549859	-0.439171
Cl99	Cl	0.680152	-1.064337	-0.751497
H100	H	0.694791	-0.549905	-0.717426
Cl101	Cl	0.317540	-0.143004	-0.828771
H102	H	0.206387	-0.157795	-0.794724
H103	H	0.556567	-0.191205	-0.717786
Cl104	Cl	0.066330	-0.176406	-0.751929
Cl105	Cl	0.679936	-0.438749	-0.751349
H106	H	0.457354	-0.312402	-0.438781
H107	H	-0.044844	-0.191203	-0.717880
H108	H	0.556422	-0.312396	-0.438765
H109	H	0.849736	-0.801021	-0.362561
H110	H	0.816143	-0.450808	-0.439135
H111	H	0.694936	-0.953192	-0.717525
Cl112	Cl	-0.057092	-0.327195	-0.404817
Cl113	Cl	0.831145	-0.941060	-0.405296
