data_functionalizedCrystal
_audit_creation_method	'MofGen! by Chris Wilmer'
_symmetry_space_group_name_H-M	'P1'
_symmetry_Int_Tables_number	1
_symmetry_cell_setting	triclinic
loop_
_symmetry_equiv_pos_as_xyz
  x,y,z
_cell_length_a	17.077404
_cell_length_b	18.050590
_cell_length_c	17.077396
_cell_angle_alpha	89.970225
_cell_angle_beta	89.980499
_cell_angle_gamma	90.018777
loop_
_atom_site_label
_atom_site_type_symbol
_atom_site_fract_x
_atom_site_fract_y
_atom_site_fract_z
Zn1	Zn	1.200078	-0.295655	-0.443836
Zn2	Zn	1.199995	-0.419852	-0.312567
Zn3	Zn	1.068810	-0.295681	-0.312584
Zn4	Zn	1.068788	-0.419808	-0.443790
O5	O	1.134418	-0.357749	-0.378194
O6	O	1.309914	-0.312138	-0.426434
O7	O	1.182568	-0.403410	-0.202722
O8	O	1.086267	-0.191753	-0.330021
O9	O	1.309853	-0.403385	-0.329992
O10	O	1.182709	-0.191734	-0.426451
O11	O	1.086187	-0.312182	-0.202734
O12	O	0.958960	-0.312139	-0.329977
O13	O	1.086229	-0.403310	-0.553643
O14	O	0.958944	-0.403335	-0.426374
O15	O	1.182688	-0.312095	-0.553677
O16	O	1.182546	-0.523771	-0.329948
O17	O	1.086149	-0.523739	-0.426357
C18	C	0.930470	-0.357736	-0.378172
C19	C	0.843220	-0.357748	-0.378182
C20	C	0.802242	-0.405305	-0.428295
C21	C	0.720262	-0.405307	-0.428308
C22	C	0.679261	-0.357754	-0.378202
C23	C	0.720245	-0.310192	-0.328087
C24	C	0.802224	-0.310187	-0.328079
C25	C	0.549375	-0.310206	-0.328106
C26	C	0.467390	-0.310212	-0.328112
C27	C	0.467413	-0.405326	-0.428335
C28	C	0.549392	-0.405321	-0.428327
C29	C	0.590370	-0.357760	-0.378210
C30	C	1.134358	-0.550701	-0.378163
C31	C	1.134404	-0.633247	-0.378176
C32	C	1.186934	-0.832688	-0.325821
C33	C	1.206108	-0.882019	-0.397464
C34	C	1.134448	-0.784377	-0.378207
C35	C	1.115353	-0.882128	-0.306596
C36	C	1.134493	-0.930362	-0.378231
C37	C	1.153660	-0.832621	-0.449887
C38	C	1.062871	-0.832726	-0.358971
C39	C	1.082019	-0.882034	-0.430663
C40	C	1.134424	-0.700279	-0.378192
C41	C	1.134516	-1.014459	-0.378254
C42	C	1.339162	-0.357763	-0.378216
C43	C	1.426412	-0.357769	-0.378226
C44	C	1.134465	-0.357694	-0.582938
C45	C	1.134486	-0.357671	-0.670188
C46	C	1.134500	-0.164043	-0.378243
C47	C	1.134535	-0.081498	-0.378263
C48	C	1.184713	-0.310172	-0.711197
C49	C	1.184723	-0.310147	-0.793178
C50	C	1.134508	-0.357626	-0.834148
C51	C	1.084275	-0.405127	-0.793133
C52	C	1.084262	-0.405148	-0.711154
C53	C	1.084306	-0.405083	-0.964003
C54	C	1.084320	-0.405064	-1.045988
C55	C	1.184767	-0.310082	-1.046027
C56	C	1.184754	-0.310102	-0.964048
C57	C	1.134522	-0.357605	-0.923039
C58	C	1.134416	-0.357750	-0.174246
C59	C	1.134548	-0.357564	-0.086997
H60	H	0.686901	-0.444033	-0.469114
N61	N	0.986944	-0.805518	-0.338508
N62	N	0.974654	-0.737306	-0.335798
H63	H	0.921031	-0.718087	-0.321336
H64	H	0.582736	-0.271470	-0.287302
H65	H	1.231334	-0.811021	-0.281566
H66	H	0.686855	-0.271471	-0.287293
N67	N	1.026363	-0.909059	-0.486307
N68	N	1.016979	-0.977242	-0.494984
H69	H	0.977673	-0.996329	-0.534282
H70	H	1.043429	-0.443724	-1.079344
H71	H	0.835587	-0.271457	-0.287275
H72	H	0.582772	-0.444047	-0.469122
N73	N	0.425504	-0.261625	-0.276949
N74	N	0.379783	-0.214345	-0.304674
H75	H	0.350199	-0.180029	-0.268541
H76	H	1.099184	-0.903874	-0.246026
H77	H	0.434044	-0.444050	-0.469144
H78	H	1.266659	-0.903674	-0.413749
H79	H	1.043389	-0.443753	-0.930617
N80	N	1.174032	-0.805475	-0.525900
N81	N	1.132717	-0.821780	-0.583790
H82	H	1.147107	-0.802607	-0.637473
N83	N	1.236018	-0.261672	-0.669363
N84	N	1.280859	-0.219264	-0.705992
H85	H	1.317093	-0.185008	-0.676449
H86	H	1.043353	-0.443819	-0.677766
N87	N	1.236034	-0.261622	-0.835055
N88	N	1.280869	-0.219238	-0.798465
H89	H	1.317111	-0.184965	-0.828040
N90	N	0.844132	-0.453881	-0.479466
N91	N	0.889852	-0.501168	-0.451753
H92	H	0.919436	-0.535475	-0.487894
N93	N	1.236060	-0.261608	-0.922208
N94	N	1.280907	-0.219200	-0.958830
H95	H	1.317142	-0.184949	-0.929281
N96	N	1.236076	-0.261564	-1.087924
N97	N	1.236081	-0.261548	-1.161119
H98	H	1.272318	-0.227286	-1.190713
H99	H	1.043386	-0.443783	-0.826498
