data_functionalizedCrystal
_audit_creation_method	'MofGen! by Chris Wilmer'
_symmetry_space_group_name_H-M	'P1'
_symmetry_Int_Tables_number	1
_symmetry_cell_setting	triclinic
loop_
_symmetry_equiv_pos_as_xyz
  x,y,z
_cell_length_a	23.532407
_cell_length_b	9.130313
_cell_length_c	10.654550
_cell_angle_alpha	89.995631
_cell_angle_beta	83.666804
_cell_angle_gamma	90.001817
loop_
_atom_site_label
_atom_site_type_symbol
_atom_site_fract_x
_atom_site_fract_y
_atom_site_fract_z
O1	O	0.756252	-0.121616	0.152438
O2	O	0.590532	-0.121659	0.174495
O3	O	0.677202	-0.121628	-0.019393
O4	O	0.669582	-0.121648	0.346327
O5	O	0.677196	0.121971	-0.019399
O6	O	0.590526	0.121940	0.174489
O7	O	0.756246	0.121983	0.152433
Cu8	Cu	0.673386	0.144204	0.163461
Cu9	Cu	0.673393	-0.143880	0.163467
O10	O	0.669576	0.121951	0.346321
C11	C	0.569310	0.000135	0.173931
C12	C	0.506082	0.000119	0.172242
N13	N	0.673385	0.346826	0.163455
N14	N	0.673398	-0.346503	0.163462
C15	C	0.107657	0.000179	0.276389
C16	C	0.048247	0.000188	0.274820
O17	O	0.012131	0.000236	0.371366
N18	N	0.024869	0.000192	0.159554
C19	C	0.060906	0.000202	0.045849
O20	O	0.035567	0.000208	-0.052339
C21	C	0.120315	0.000203	0.047419
C22	C	0.143689	0.000185	0.162693
C23	C	0.131031	0.000162	0.391654
C24	C	0.190438	0.000150	0.393222
C25	C	0.226470	0.000156	0.279525
C26	C	0.203095	0.000173	0.164261
C27	C	0.156351	0.000224	-0.066285
C28	C	0.215764	0.000226	-0.064705
C29	C	0.239138	0.000207	0.050569
C30	C	0.298534	0.000166	0.052133
N31	N	0.321911	0.000162	0.167399
C32	C	0.285879	0.000157	0.281095
C33	C	-0.063858	0.000202	0.042560
C34	C	-0.123266	0.000190	0.040989
C35	C	-0.135922	0.000179	0.269961
C36	C	-0.076512	0.000180	0.271531
C37	C	-0.040481	0.000198	0.157827
C38	C	0.410637	0.000131	0.284380
C39	C	0.470049	0.000113	0.285938
C40	C	0.482700	0.000132	0.056967
C41	C	0.423293	0.000142	0.055408
C42	C	0.387262	0.000147	0.169125
O43	O	0.334684	0.000125	-0.044362
O44	O	0.311227	0.000171	0.379267
C45	C	0.777469	0.000185	0.152997
C46	C	0.840697	0.000192	0.154686
C47	C	0.676640	0.000171	-0.066176
C48	C	0.674966	0.000168	-0.205567
C49	C	0.711775	0.423492	0.077637
C50	C	0.711781	0.576829	0.077637
C51	C	0.635003	0.576821	0.249285
C52	C	0.634995	0.423486	0.249278
C53	C	0.725996	0.000181	-0.286669
C54	C	0.724419	0.000163	-0.417640
C55	C	0.620779	0.000125	-0.386393
C56	C	0.622356	0.000133	-0.255425
C57	C	0.670138	0.000149	0.393104
C58	C	0.671812	0.000142	0.532494
H59	H	0.489077	0.000097	0.379812
H60	H	0.765973	0.000170	-0.483669
H61	H	0.381308	0.000139	0.376980
H62	H	0.768834	0.000207	-0.246079
H63	H	0.743041	0.639246	0.007755
H64	H	0.404261	0.000136	-0.038457
H65	H	0.603748	0.639253	0.319161
H66	H	0.580798	0.000118	-0.189387
H67	H	0.603731	0.361061	0.319162
H68	H	0.137331	0.000240	-0.160153
H69	H	0.577945	0.000099	-0.427004
H70	H	0.209463	0.000134	0.487090
H71	H	0.101699	0.000163	0.484244
H72	H	0.512048	0.000131	-0.035602
H73	H	0.245099	0.000242	-0.157299
H74	H	-0.057486	0.000173	0.365397
H75	H	-0.165270	0.000181	0.362539
H76	H	-0.142291	0.000182	-0.052879
H77	H	-0.034524	0.000203	-0.050038
H78	H	0.743033	0.361079	0.007754
