data_functionalizedCrystal
_audit_creation_method	'MofGen! by Chris Wilmer'
_symmetry_space_group_name_H-M	'P1'
_symmetry_Int_Tables_number	1
_symmetry_cell_setting	triclinic
loop_
_symmetry_equiv_pos_as_xyz
  x,y,z
_cell_length_a	12.759395
_cell_length_b	16.120531
_cell_length_c	12.759387
_cell_angle_alpha	87.139831
_cell_angle_beta	89.983849
_cell_angle_gamma	87.068019
loop_
_atom_site_label
_atom_site_type_symbol
_atom_site_fract_x
_atom_site_fract_y
_atom_site_fract_z
Zn1	Zn	1.584900	0.331868	-0.615114
Zn2	Zn	2.084900	0.831868	-0.115114
Zn3	Zn	1.575837	0.471303	-0.448316
Zn4	Zn	2.075837	0.971303	0.051684
Zn5	Zn	1.409206	0.331908	-0.439457
Zn6	Zn	1.909206	0.831908	0.060543
Zn7	Zn	1.400231	0.471240	-0.623954
Zn8	Zn	1.900231	0.971240	-0.123954
O9	O	1.492543	0.401580	-0.531710
O10	O	1.992543	0.901580	-0.031710
O11	O	1.730718	0.350373	-0.592996
O12	O	2.230718	0.850373	-0.092996
O13	O	1.553696	0.452855	-0.300122
O14	O	2.053696	0.952855	0.199878
O15	O	1.440061	0.215238	-0.455350
O16	O	1.940061	0.715238	0.044650
O17	O	1.724060	0.452816	-0.470450
O18	O	2.224060	0.952816	0.029550
O19	O	1.569143	0.215208	-0.584405
O20	O	2.069143	0.715208	-0.084405
O21	O	1.431273	0.350443	-0.293613
O22	O	1.931273	0.850443	0.206387
O23	O	1.260995	0.350382	-0.463923
O24	O	1.760995	0.850382	0.036077
O25	O	1.424764	0.452709	-0.769800
O26	O	1.924764	0.952709	-0.269800
O27	O	1.254401	0.452748	-0.599472
O28	O	1.754401	0.952748	-0.099472
O29	O	1.560440	0.350312	-0.763305
O30	O	2.060440	0.850312	-0.263305
O31	O	1.544993	0.587960	-0.479022
O32	O	2.044993	1.087960	0.020978
O33	O	1.415976	0.587914	-0.608063
O34	O	1.915976	1.087914	-0.108063
C35	C	1.219577	0.401563	-0.531696
C36	C	1.719577	0.901563	-0.031696
C37	C	1.102799	0.401576	-0.531716
C38	C	1.602799	0.901576	-0.031716
C39	C	1.109703	0.295075	-0.659551
C40	C	1.609703	0.795075	-0.159551
C41	C	1.058293	0.241835	-0.723478
C42	C	1.558293	0.741835	-0.223478
C43	C	0.948570	0.241849	-0.723492
C44	C	1.448570	0.741849	-0.223492
C45	C	0.890255	0.295109	-0.659570
C46	C	1.390255	0.795109	-0.159570
C47	C	0.941664	0.348349	-0.595644
C48	C	1.441664	0.848349	-0.095644
C49	C	1.051390	0.348330	-0.595639
C50	C	1.551390	0.848330	-0.095639
C51	C	0.934762	0.454845	-0.467805
C52	C	1.434762	0.954845	0.032195
C53	C	1.044484	0.454836	-0.467795
C54	C	1.544484	0.954836	0.032205
C55	C	0.876446	0.508104	-0.403883
C56	C	1.376446	1.008104	0.096117
C57	C	0.927855	0.561350	-0.339960
C58	C	1.427855	1.061350	0.160040
C59	C	1.037585	0.561334	-0.339950
C60	C	1.537585	1.061334	0.160050
C61	C	1.095894	0.508076	-0.403868
C62	C	1.595894	1.008076	0.096132
C63	C	1.478556	0.618187	-0.545486
C64	C	1.978556	1.118187	-0.045486
C65	C	1.472668	0.710853	-0.551415
C66	C	1.972668	1.210853	-0.051415
C67	C	1.461925	0.880513	-0.562260
C68	C	1.961925	1.380513	-0.062260
C69	C	1.523201	0.921806	-0.501101
C70	C	2.023201	1.421806	-0.001101
C71	C	1.517224	1.016211	-0.507135
C72	C	2.017224	1.516211	-0.007135
C73	C	1.467901	0.786100	-0.556227
C74	C	1.967901	1.286100	-0.056227
C75	C	1.766576	0.401597	-0.531725
C76	C	2.266576	0.901597	-0.031725
C77	C	1.883352	0.401604	-0.531731
C78	C	2.383352	0.901604	-0.031731
C79	C	1.492612	0.401499	-0.805739
C80	C	1.992612	0.901499	-0.305739
C81	C	1.492641	0.401465	-0.922513
C82	C	1.992641	0.901465	-0.422513
C83	C	1.506576	1.184127	-0.517884
C84	C	2.006576	1.684127	-0.017884
C85	C	1.512461	1.091461	-0.511943
C86	C	2.012461	1.591461	-0.011943
C87	C	1.620198	0.508049	-1.148712
C88	C	2.120198	1.008049	-0.648712
C89	C	1.683917	0.561388	-1.097231
C90	C	2.183917	1.061388	-0.597231
C91	C	1.683880	0.561419	-0.987511
C92	C	2.183880	1.061419	-0.487511
C93	C	1.620115	0.508109	-0.929270
C94	C	2.120115	1.008109	-0.429270
C95	C	1.556397	0.454771	-0.980752
C96	C	2.056397	0.954771	-0.480752
C97	C	1.556443	0.454743	-1.090474
C98	C	2.056443	0.954743	-0.590474
C99	C	1.428923	0.348127	-0.973994
C100	C	1.928923	0.848127	-0.473994
C101	C	1.428964	0.348089	-1.083714
C102	C	1.928964	0.848089	-0.583714
C103	C	1.365158	0.294816	-0.915753
C104	C	1.865158	0.794816	-0.415753
C105	C	1.301444	0.241473	-0.967234
C106	C	1.801444	0.741473	-0.467234
C107	C	1.301484	0.241443	-1.076961
C108	C	1.801484	0.741443	-0.576961
C109	C	1.365245	0.294751	-1.135195
C110	C	1.865245	0.794751	-0.635195
C111	C	1.492539	0.401600	-0.258744
C112	C	1.992539	0.901600	0.241256
C113	C	1.492728	0.401400	-0.141955
C114	C	1.992728	0.901400	0.358045
H115	H	0.880367	0.604706	-0.287916
H116	H	1.380367	1.104706	0.212084
H117	H	1.404978	0.916060	-0.619147
H118	H	1.904978	1.416060	-0.119147
H119	H	1.580151	0.886257	-0.444208
H120	H	2.080151	1.386257	0.055792
O121	O	1.214238	0.508055	-0.403862
O122	O	1.714238	1.008055	0.096138
H123	H	1.240193	0.554026	-0.348677
H124	H	1.740193	1.054026	0.151323
O125	O	1.620307	0.507959	-1.267049
O126	O	2.120307	1.007959	-0.767049
H127	H	1.675369	0.553972	-1.298898
H128	H	2.175369	1.053972	-0.798898
O129	O	1.228047	0.295056	-0.659546
O130	O	1.728047	0.795056	-0.159546
H131	H	1.252935	0.357954	-0.684646
H132	H	1.752935	0.857954	-0.184646
O133	O	1.752695	0.618883	-1.160044
O134	O	2.252695	1.118883	-0.660044
H135	H	1.742028	0.609897	-1.244988
H136	H	2.242028	1.109897	-0.744988
O137	O	1.121186	0.184391	-0.792422
O138	O	1.621186	0.684391	-0.292422
H139	H	1.206120	0.193328	-0.781683
H140	H	1.706120	0.693328	-0.281683
O141	O	1.232763	0.183901	-1.132474
O142	O	1.732763	0.683901	-0.632474
H143	H	1.282559	0.141477	-1.179763
H144	H	1.782559	0.641477	-0.679763
O145	O	1.620076	0.508143	-0.810930
O146	O	2.120076	1.008143	-0.310930
H147	H	1.594766	0.571032	-0.785992
H148	H	2.094766	1.071032	-0.285992
O149	O	0.893110	0.184429	-0.792439
O150	O	1.393110	0.684429	-0.292439
H151	H	0.952088	0.147395	-0.836890
H152	H	1.452088	0.647395	-0.336890
H153	H	0.787104	0.508110	-0.403896
H154	H	1.287104	1.008110	0.096104
O155	O	0.771911	0.295117	-0.659568
O156	O	1.271911	0.795117	-0.159568
H157	H	0.741908	0.312052	-0.739849
H158	H	1.241908	0.812052	-0.239849
O159	O	1.365409	0.294689	-1.253534
O160	O	1.865409	0.794689	-0.753534
H161	H	1.340154	0.357552	-1.286517
H162	H	1.840154	0.857552	-0.786517
O163	O	1.093035	0.618756	-0.270997
O164	O	1.593035	1.118756	0.229003
H165	H	1.034047	0.655792	-0.226560
H166	H	1.534047	1.155792	0.273440
O167	O	1.752610	0.618939	-0.931974
O168	O	2.252610	1.118939	-0.431974
H169	H	1.796963	0.655999	-0.990899
H170	H	2.296963	1.155999	-0.490899
H171	H	1.365129	0.294849	-0.826414
H172	H	1.865129	0.794849	-0.326414
O173	O	1.232683	0.183974	-0.904420
O174	O	1.732683	0.683974	-0.404420
H175	H	1.176797	0.221296	-0.856799
H176	H	1.676797	0.721296	-0.356799
