data_functionalizedCrystal
_audit_creation_method	'MofGen! by Chris Wilmer'
_symmetry_space_group_name_H-M	'P1'
_symmetry_Int_Tables_number	1
_symmetry_cell_setting	triclinic
loop_
_symmetry_equiv_pos_as_xyz
  x,y,z
_cell_length_a	13.930277
_cell_length_b	14.971486
_cell_length_c	14.971486
_cell_angle_alpha	96.385871
_cell_angle_beta	90.004761
_cell_angle_gamma	89.997740
loop_
_atom_site_label
_atom_site_type_symbol
_atom_site_fract_x
_atom_site_fract_y
_atom_site_fract_z
O1	O	0.079721	-1.186948	0.116562
O2	O	0.579721	-0.686948	0.616562
O3	O	0.079747	-0.926548	0.130521
O4	O	0.579747	-0.426548	0.630521
O5	O	0.079726	-1.063728	-0.006659
O6	O	0.579726	-0.563728	0.493341
O7	O	0.079742	-1.049769	0.253741
O8	O	0.579742	-0.549769	0.753741
O9	O	-0.079935	-1.063709	-0.006662
O10	O	0.420065	-0.563709	0.493338
O11	O	-0.079915	-0.926529	0.130518
O12	O	0.420085	-0.426529	0.630518
O13	O	-0.079941	-1.186929	0.116559
O14	O	0.420059	-0.686929	0.616559
Zn15	Zn	-0.105278	-1.056726	0.123538
Zn16	Zn	0.394722	-0.556726	0.623538
Zn17	Zn	0.105084	-1.056751	0.123542
Zn18	Zn	0.605084	-0.556751	0.623542
O19	O	-0.079920	-1.049750	0.253739
O20	O	0.420080	-0.549750	0.753739
C21	C	-0.000080	-0.893214	0.129895
C22	C	0.499920	-0.393214	0.629895
C23	C	-0.000071	-0.793917	0.128024
C24	C	0.499929	-0.293917	0.628024
N25	N	-0.248844	-1.056716	0.123535
N26	N	0.251156	-0.556716	0.623535
C27	C	-0.000104	-1.063094	-0.039985
C28	C	0.499896	-0.563094	0.460015
C29	C	-0.000103	-1.061223	-0.139282
C30	C	0.499897	-0.561223	0.360718
C31	C	-0.701104	-0.996006	0.184261
C32	C	-0.201104	-0.496006	0.684261
C33	C	-0.701091	-1.117521	0.062816
C34	C	-0.201091	-0.617521	0.562816
C35	C	-0.600596	-1.117511	0.062813
C36	C	-0.100596	-0.617511	0.562813
C37	C	-0.550349	-1.056748	0.123536
C38	C	-0.050349	-0.556748	0.623536
C39	C	-0.600599	-0.995995	0.184262
C40	C	-0.100599	-0.495995	0.684262
C41	C	-0.550339	-1.178268	0.002094
C42	C	-0.050339	-0.678268	0.502094
C43	C	-0.449837	-1.178261	0.002090
C44	C	0.050163	-0.678261	0.502090
C45	C	-0.399589	-1.117492	0.062809
C46	C	0.100411	-0.617492	0.562809
C47	C	-0.449844	-1.056737	0.123537
C48	C	0.050156	-0.556737	0.623537
C49	C	-0.399598	-0.995974	0.184260
C50	C	0.100402	-0.495974	0.684260
C51	C	-0.449852	-0.935213	0.244984
C52	C	0.050148	-0.435213	0.744984
C53	C	-0.550351	-0.935227	0.244981
C54	C	-0.050351	-0.435227	0.744981
C55	C	-0.299090	-1.117479	0.062812
C56	C	0.200910	-0.617479	0.562812
C57	C	-0.299093	-0.995963	0.184261
C58	C	0.200907	-0.495963	0.684261
N59	N	0.248650	-1.056769	0.123538
N60	N	0.748650	-0.556769	0.623538
C61	C	-0.000111	-1.220263	0.117185
C62	C	0.499889	-0.720263	0.617185
C63	C	-0.000115	-1.319561	0.119056
C64	C	0.499885	-0.819561	0.619056
C65	C	-0.000067	-0.736691	0.208614
C66	C	0.499933	-0.236691	0.708614
C67	C	-0.000082	-0.643392	0.206850
C68	C	0.499918	-0.143392	0.706850
C69	C	-0.000093	-0.607320	0.124497
C70	C	0.499907	-0.107320	0.624497
C71	C	-0.000099	-0.664552	0.043902
C72	C	0.499901	-0.164552	0.543902
C73	C	-0.000091	-0.757850	0.045666
C74	C	0.499909	-0.257850	0.545666
C75	C	-0.000112	-0.470090	0.040231
C76	C	0.499888	0.029910	0.540231
C77	C	-0.000118	-0.376786	0.038466
C78	C	0.499882	0.123214	0.538466
C79	C	-0.000103	-0.355632	0.201415
C80	C	0.499897	0.144368	0.701415
C81	C	-0.000095	-0.448930	0.203179
C82	C	0.499905	0.051070	0.703179
C83	C	-0.000100	-0.506156	0.122584
C84	C	0.499900	-0.006156	0.622584
C85	C	-0.000112	-1.141812	-0.196507
C86	C	0.499888	-0.641812	0.303493
C87	C	-0.000102	-1.140049	-0.289807
C88	C	0.499898	-0.640049	0.210193
C89	C	-0.000090	-1.057696	-0.325879
C90	C	0.499910	-0.557696	0.174121
C91	C	-0.000079	-0.977101	-0.268646
C92	C	0.499921	-0.477101	0.231354
C93	C	-0.000082	-0.978865	-0.175349
C94	C	0.499918	-0.478865	0.324651
C95	C	-0.000075	-0.973430	-0.463109
C96	C	0.499925	-0.473430	0.036891
C97	C	-0.000074	-0.971665	-0.556413
C98	C	0.499926	-0.471665	-0.056413
C99	C	-0.000095	-1.134614	-0.577567
C100	C	0.499905	-0.634614	-0.077567
C101	C	-0.000098	-1.136378	-0.484269
C102	C	0.499902	-0.636378	0.015731
C103	C	-0.000088	-1.055782	-0.427043
C104	C	0.499912	-0.555782	0.072957
C105	C	-0.000088	-1.050384	0.287065
C106	C	0.499912	-0.550384	0.787065
C107	C	-0.000082	-1.052254	0.386362
C108	C	0.499918	-0.552254	0.886362
H109	H	-0.258188	-0.946479	0.233706
H110	H	0.241812	-0.446479	0.733706
H111	H	-0.000100	-1.200238	-0.624165
H112	H	0.499900	-0.700238	-0.124165
Br113	Br	-0.000062	-0.859899	-0.605368
Br114	Br	0.499938	-0.359899	-0.105368
Br115	Br	-0.000046	-0.865334	-0.317600
Br116	Br	0.499954	-0.365334	0.182400
Br117	Br	-0.618553	-0.852774	0.327388
Br118	Br	-0.118553	-0.352774	0.827388
H119	H	-0.258178	-1.166953	0.013375
H120	H	0.241822	-0.666953	0.513375
Br121	Br	-0.000104	-0.835515	-0.063710
Br122	Br	0.499896	-0.335515	0.436290
Br123	Br	-0.618526	-1.260738	-0.080305
Br124	Br	-0.118526	-0.760738	0.419695
H125	H	-0.000074	-0.913240	-0.128756
H126	H	0.499926	-0.413240	0.371244
Br127	Br	-0.000142	-1.253584	-0.147562
Br128	Br	0.499858	-0.753584	0.352438
Br129	Br	-0.000095	-0.277969	0.310796
Br130	Br	0.499905	0.222031	0.810796
Br131	Br	-0.381641	-1.260717	-0.080320
Br132	Br	0.118359	-0.760717	0.419680
H133	H	-0.000064	-0.907800	-0.416517
H134	H	0.499936	-0.407800	0.083483
H135	H	-0.000058	-0.766054	0.275675
H136	H	0.499942	-0.266054	0.775675
H137	H	-0.000115	-1.203437	-0.454903
H138	H	0.499885	-0.703437	0.045097
Br139	Br	-0.000114	-1.249425	-0.367467
Br140	Br	0.499886	-0.749425	0.132533
H141	H	-0.742023	-0.946533	0.233700
H142	H	-0.242023	-0.446533	0.733700
Br143	Br	-0.000066	-0.497885	0.314946
Br144	Br	0.499934	0.002115	0.814946
Br145	Br	-0.381650	-0.852760	0.327400
Br146	Br	0.118350	-0.352760	0.827400
Br147	Br	-0.000123	-0.615598	-0.067865
Br148	Br	0.499877	-0.115598	0.432135
Br149	Br	-0.000165	-0.327830	-0.073300
Br150	Br	0.499835	0.172170	0.426700
Br151	Br	-0.000074	-0.565731	0.316227
Br152	Br	0.499926	-0.065731	0.816227
H153	H	-0.000117	-0.516682	-0.025399
H154	H	0.499883	-0.016682	0.474601
H155	H	-0.742005	-1.166997	0.013381
H156	H	-0.242005	-0.666997	0.513381
