data_functionalizedCrystal
_audit_creation_method	'MofGen! by Chris Wilmer'
_symmetry_space_group_name_H-M	'P1'
_symmetry_Int_Tables_number	1
_symmetry_cell_setting	triclinic
loop_
_symmetry_equiv_pos_as_xyz
  x,y,z
_cell_length_a	12.594517
_cell_length_b	29.839131
_cell_length_c	12.594517
_cell_angle_alpha	90.010103
_cell_angle_beta	90.002075
_cell_angle_gamma	90.041220
loop_
_atom_site_label
_atom_site_type_symbol
_atom_site_fract_x
_atom_site_fract_y
_atom_site_fract_z
Zn1	Zn	1.626877	-0.178952	0.601810
Zn2	Zn	2.126877	0.321048	1.101810
Zn3	Zn	1.626749	-0.254055	0.423810
Zn4	Zn	2.126749	0.245945	0.923810
Zn5	Zn	1.448941	-0.178939	0.423839
Zn6	Zn	1.948941	0.321061	0.923839
Zn7	Zn	1.448784	-0.254056	0.601740
Zn8	Zn	1.948784	0.245944	1.101740
O9	O	1.537838	-0.216501	0.512800
O10	O	2.037838	0.283499	1.012800
O11	O	1.775806	-0.188920	0.578215
O12	O	2.275806	0.311080	1.078215
O13	O	1.603174	-0.244084	0.274868
O14	O	2.103174	0.255916	0.774868
O15	O	1.472663	-0.116074	0.447488
O16	O	1.972663	0.383926	0.947488
O17	O	1.775712	-0.244097	0.447440
O18	O	2.275712	0.255903	0.947440
O19	O	1.603392	-0.116084	0.578242
O20	O	2.103392	0.383916	1.078242
O21	O	1.472539	-0.188897	0.274889
O22	O	1.972539	0.311103	0.774889
O23	O	1.299974	-0.188898	0.447420
O24	O	1.799974	0.311102	0.947420
O25	O	1.472397	-0.244099	0.750695
O26	O	1.972397	0.255901	1.250695
O27	O	1.299859	-0.244086	0.578124
O28	O	1.799859	0.255914	1.078124
O29	O	1.603241	-0.188921	0.750746
O30	O	2.103241	0.311079	1.250746
O31	O	1.603022	-0.316922	0.447372
O32	O	2.103022	0.183078	0.947372
O33	O	1.472273	-0.316923	0.578096
O34	O	1.972273	0.183077	1.078096
C35	C	1.261297	-0.216491	0.512768
C36	C	1.761297	0.283509	1.012768
C37	C	1.142991	-0.216498	0.512780
C38	C	1.642991	0.283502	1.012780
C39	C	1.073770	-0.186441	0.441826
C40	C	1.573770	0.313559	0.941826
C41	C	1.002925	-0.227415	0.415635
C42	C	1.502925	0.272585	0.915635
C43	C	1.003037	-0.175544	0.538990
C44	C	1.503037	0.324456	1.038990
C45	C	1.073704	-0.257494	0.486538
C46	C	1.573704	0.242506	0.986538
C47	C	1.073823	-0.205596	0.609938
C48	C	1.573823	0.294404	1.109938
C49	C	1.003010	-0.246598	0.583784
C50	C	1.503010	0.253402	1.083784
C51	C	1.537645	-0.333223	0.512747
C52	C	2.037645	0.166777	1.012747
C53	C	1.537661	-0.383158	0.512760
C54	C	2.037661	0.116842	1.012760
C55	C	1.606043	-0.692788	0.444831
C56	C	2.106043	-0.192788	0.944831
C57	C	1.606174	-0.880461	0.444872
C58	C	2.106174	-0.380461	0.944872
O59	O	1.664163	-0.904714	0.387076
O60	O	2.164163	-0.404714	0.887076
N61	N	1.538058	-0.903943	0.512880
N62	N	2.038058	-0.403943	1.012880
C63	C	1.469910	-0.880503	0.580887
C64	C	1.969910	-0.380503	1.080887
O65	O	1.411984	-0.904782	0.638740
O66	O	1.911984	-0.404782	1.138740
C67	C	1.469785	-0.692831	0.580850
C68	C	1.969785	-0.192831	1.080850
C69	C	1.537897	-0.669352	0.512831
C70	C	2.037897	-0.169352	1.012831
C71	C	1.674151	-0.669308	0.376818
C72	C	2.174151	-0.169308	0.876818
C73	C	1.674113	-0.622393	0.376804
C74	C	2.174113	-0.122393	0.876804
C75	C	1.605968	-0.598957	0.444804
C76	C	2.105968	-0.098957	0.944804
C77	C	1.537860	-0.622436	0.512817
C78	C	2.037860	-0.122436	1.012817
C79	C	1.401642	-0.669393	0.648862
C80	C	1.901642	-0.169393	1.148862
C81	C	1.401619	-0.622472	0.648849
C82	C	1.901619	-0.122472	1.148849
C83	C	1.469731	-0.598992	0.580829
C84	C	1.969731	-0.098992	1.080829
C85	C	1.469676	-0.552085	0.580803
C86	C	1.969676	-0.052085	1.080803
N87	N	1.537792	-0.528603	0.512795
N88	N	2.037792	-0.028603	1.012795
C89	C	1.605938	-0.552039	0.444796
C90	C	2.105938	-0.052039	0.944796
C91	C	1.469979	-0.979034	0.580900
C92	C	1.969979	-0.479034	1.080900
C93	C	1.470009	-1.025952	0.580908
C94	C	1.970009	-0.525952	1.080908
C95	C	1.606275	-1.025906	0.444894
C96	C	2.106275	-0.525906	0.944894
C97	C	1.606239	-0.978987	0.444882
C98	C	2.106239	-0.478987	0.944882
C99	C	1.538095	-0.955552	0.512892
C100	C	2.038095	-0.455552	1.012892
C101	C	1.605853	-0.453513	0.444771
C102	C	2.105853	0.046487	0.944771
C103	C	1.605806	-0.406594	0.444760
C104	C	2.105806	0.093406	0.944760
C105	C	1.469545	-0.406643	0.580777
C106	C	1.969545	0.093357	1.080777
C107	C	1.469587	-0.453559	0.580785
C108	C	1.969587	0.046441	1.080785
C109	C	1.537750	-0.476993	0.512778
C110	C	2.037750	0.023007	1.012778
O111	O	1.411727	-0.527802	0.638577
O112	O	1.911727	-0.027802	1.138577
O113	O	1.663872	-0.527752	0.386967
O114	O	2.163872	-0.027752	0.886967
C115	C	1.606080	-0.739703	0.444845
C116	C	2.106080	-0.239703	0.944845
C117	C	1.537972	-0.763183	0.512858
C118	C	2.037972	-0.263183	1.012858
C119	C	1.469827	-0.739747	0.580858
C120	C	1.969827	-0.239747	1.080858
C121	C	1.538002	-0.810100	0.512866
C122	C	2.038002	-0.310100	1.012866
C123	C	1.606148	-0.833536	0.444867
C124	C	2.106148	-0.333536	0.944867
C125	C	1.674264	-0.810055	0.376859
C126	C	2.174264	-0.310055	0.876859
C127	C	1.674226	-0.763139	0.376845
C128	C	2.174226	-0.263139	0.876845
C129	C	1.401711	-0.763228	0.648865
C130	C	1.901711	-0.263228	1.148865
C131	C	1.401753	-0.810144	0.648873
C132	C	1.901753	-0.310144	1.148873
C133	C	1.469899	-0.833580	0.580873
C134	C	1.969899	-0.333580	1.080873
C135	C	1.815458	-0.216510	0.512832
C136	C	2.315458	0.283490	1.012832
C137	C	1.933764	-0.216514	0.512845
C138	C	2.433764	0.283486	1.012845
C139	C	1.537816	-0.216512	0.790420
C140	C	2.037816	0.283488	1.290420
C141	C	1.537806	-0.216517	0.908726
C142	C	2.037806	0.283483	1.408726
C143	C	1.538060	-0.099322	0.512876
C144	C	2.038060	0.400678	1.012876
C145	C	1.538154	-0.049388	0.512908
C146	C	2.038154	0.450612	1.012908
C147	C	1.466639	-0.246524	0.977951
C148	C	1.966639	0.253476	1.477951
C149	C	1.563725	-0.257514	1.048739
C150	C	2.063725	0.242486	1.548739
C151	C	1.440726	-0.205539	1.048738
C152	C	1.940726	0.294461	1.548738
C153	C	1.634943	-0.227528	0.977955
C154	C	2.134943	0.272472	1.477955
C155	C	1.511879	-0.175534	0.977948
C156	C	2.011879	0.324466	1.477948
C157	C	1.609031	-0.186508	1.048703
C158	C	2.109031	0.313492	1.548703
C159	C	1.537836	-0.216503	1.236259
C160	C	2.037836	0.283497	1.736259
C161	C	1.537800	-0.216508	1.117953
C162	C	2.037800	0.283492	1.617953
H163	H	0.971784	-0.236647	0.333498
H164	H	1.471784	0.263353	0.833498
Br165	Br	1.698754	-1.057721	0.352606
Br166	Br	2.198754	-0.557721	0.852606
Br167	Br	1.766572	-0.590535	0.284502
Br168	Br	2.266572	-0.090535	0.784502
H169	H	1.717064	-0.236849	0.946993
H170	H	2.217064	0.263151	1.446993
Br171	Br	0.951550	-0.289022	0.683844
Br172	Br	1.451550	0.210978	1.183844
Br173	Br	1.125219	-0.315249	0.449478
Br174	Br	1.625219	0.184751	0.949478
H175	H	1.104837	-0.161047	0.381749
H176	H	1.604837	0.338953	0.881749
H177	H	1.346220	-0.744150	0.704240
H178	H	1.846220	-0.244150	1.204240
Br179	Br	1.125767	-0.190191	0.746803
Br180	Br	1.625767	0.309809	1.246803
Br181	Br	0.951285	-0.117809	0.575889
Br182	Br	1.451285	0.382191	1.075889
H183	H	1.729649	-0.688385	0.321444
H184	H	2.229649	-0.188385	0.821444
Br185	Br	1.303895	-0.190068	1.100565
Br186	Br	1.803895	0.309932	1.600565
H187	H	1.406533	-0.271923	0.946887
H188	H	1.906533	0.228077	1.446887
H189	H	1.661272	-0.387478	0.389367
H190	H	2.161272	0.112522	0.889367
H191	H	1.414058	-0.387554	0.636139
H192	H	1.914058	0.112446	1.136139
Br193	Br	1.600288	-0.315273	1.100567
Br194	Br	2.100288	0.184727	1.600567
Br195	Br	1.698360	-0.485309	0.352476
Br196	Br	2.198360	0.014691	0.852476
H197	H	1.661702	-0.959873	0.389495
H198	H	2.161702	-0.459873	0.889495
Br199	Br	1.709446	-0.144206	1.100162
Br200	Br	2.209446	0.355794	1.600162
Br201	Br	1.377551	-1.057811	0.673208
Br202	Br	1.877551	-0.557811	1.173208
Br203	Br	1.309302	-0.842003	0.741191
Br204	Br	1.809302	-0.342003	1.241191
H205	H	1.489915	-0.140889	0.946829
H206	H	1.989915	0.359111	1.446829
H207	H	1.414485	-0.959956	0.636284
H208	H	1.914485	-0.459956	1.136284
H209	H	1.346172	-0.688501	0.704246
H210	H	1.846172	-0.188501	1.204246
H211	H	1.346129	-0.603393	0.704235
H212	H	1.846129	-0.103393	1.204235
Br213	Br	1.377122	-0.485425	0.673072
Br214	Br	1.877122	0.014575	1.173072
H215	H	1.729747	-0.829144	0.321488
H216	H	2.229747	-0.329144	0.821488
Br217	Br	1.766672	-0.731282	0.284530
Br218	Br	2.266672	-0.231282	0.784530
