data_functionalizedCrystal
_audit_creation_method	'MofGen! by Chris Wilmer'
_symmetry_space_group_name_H-M	'P1'
_symmetry_Int_Tables_number	1
_symmetry_cell_setting	triclinic
loop_
_symmetry_equiv_pos_as_xyz
  x,y,z
_cell_length_a	15.538191
_cell_length_b	14.519709
_cell_length_c	14.185569
_cell_angle_alpha	76.819419
_cell_angle_beta	97.875798
_cell_angle_gamma	65.476119
loop_
_atom_site_label
_atom_site_type_symbol
_atom_site_fract_x
_atom_site_fract_y
_atom_site_fract_z
O1	O	1.228085	-0.271310	-0.083424
O2	O	0.954005	-0.164884	-0.083426
O3	O	1.098314	-0.354783	-0.083416
O4	O	1.083776	-0.081411	-0.083434
O5	O	1.140944	-0.410876	0.083422
O6	O	0.996635	-0.220977	0.083412
O7	O	1.270715	-0.327403	0.083414
Cu8	Cu	1.137568	-0.279312	0.098646
Cu9	Cu	1.087153	-0.212975	-0.098658
O10	O	1.126406	-0.137505	0.083404
C11	C	0.940243	-0.181796	-0.000007
C12	C	0.835725	-0.148628	-0.000007
C13	C	0.547381	-0.478139	-0.000001
C14	C	0.449167	-0.446949	-0.000004
C15	C	0.427017	-0.271514	-0.000015
C16	C	0.525232	-0.302691	-0.000008
C17	C	0.585407	-0.406004	-0.000002
C18	C	0.563258	-0.230557	-0.000008
C19	C	0.661463	-0.261730	-0.000006
C20	C	0.721643	-0.365037	-0.000003
C21	C	0.683612	-0.437177	0.000001
C22	C	0.503080	-0.127242	-0.000021
C23	C	0.541106	-0.055107	-0.000022
C24	C	0.639314	-0.086282	-0.000012
C25	C	0.699494	-0.189590	-0.000009
C26	C	0.677345	-0.014142	-0.000016
C27	C	0.775551	-0.045315	-0.000013
C28	C	0.797700	-0.220763	-0.000007
C29	C	1.118952	-0.416961	0.000003
C30	C	1.116922	-0.518660	0.000004
C31	C	1.109444	-0.891034	-0.000022
C32	C	1.111520	-0.787426	-0.000015
C33	C	1.113183	-0.704851	-0.000008
C34	C	1.115260	-0.601236	-0.000003
C35	C	1.284476	-0.310491	-0.000007
C36	C	1.388993	-0.343656	-0.000014
C37	C	1.105768	-0.075325	-0.000017
C38	C	1.107796	0.026376	-0.000025
N39	N	1.173034	-0.325973	0.237420
N40	N	1.051694	-0.166324	-0.237432
C41	C	0.947494	-0.029276	0.605054
C42	C	0.974366	-0.064616	0.710078
C43	C	1.102177	-0.232734	0.710047
C44	C	1.075313	-0.197409	0.605022
C45	C	0.997972	-0.095679	0.552534
C46	C	1.125791	-0.263812	0.552501
C47	C	1.098932	-0.228488	0.447485
C48	C	1.021596	-0.126760	0.394989
C49	C	0.971113	-0.060354	0.447517
C50	C	1.203137	-0.365540	0.604991
C51	C	1.253615	-0.431943	0.552471
C52	C	1.226752	-0.396622	0.447452
C53	C	1.149415	-0.294894	0.394957
C54	C	1.277234	-0.463027	0.394924
C55	C	1.250375	-0.427703	0.289908
C56	C	1.122556	-0.259569	0.289940
H57	H	0.732612	-0.521307	0.000012
C58	C	0.475922	0.057039	0.000129
C59	C	0.515073	0.073524	0.085952
C60	C	0.455064	0.176825	0.086120
H61	H	0.411968	0.065402	0.000177
H62	H	0.472626	0.107571	-0.058020
H63	H	0.518358	0.023006	0.144086
H64	H	0.579020	0.065183	0.085922
H65	H	0.451768	0.227358	0.027971
H66	H	0.391113	0.185179	0.086166
H67	H	0.481624	0.188027	0.144345
C68	C	1.337522	-0.542376	0.609644
C69	C	1.350228	-0.559111	0.712855
C70	C	1.427504	-0.660837	0.765551
H71	H	1.396037	-0.547689	0.592537
H72	H	1.322797	-0.594721	0.592495
H73	H	1.364959	-0.506780	0.729997
H74	H	1.291733	-0.553820	0.729992
H75	H	1.412779	-0.713182	0.748403
H76	H	1.486013	-0.666141	0.748436
H77	H	1.436129	-0.672209	0.835585
H78	H	0.378009	-0.187395	-0.000024
H79	H	0.418212	-0.505697	-0.000005
C80	C	0.863393	0.081080	0.548006
C81	C	0.790264	0.071501	0.487752
C82	C	0.712774	0.173130	0.435196
H83	H	0.886706	0.122008	0.506947
H84	H	0.837109	0.115583	0.594295
H85	H	0.816545	0.037013	0.441468
H86	H	0.766924	0.030591	0.528786
H87	H	0.686490	0.207634	0.481485
H88	H	0.736096	0.214051	0.394143
H89	H	0.663143	0.166645	0.394315
H90	H	0.423115	-0.101863	-0.000026
H91	H	0.846700	-0.304892	0.000004
H92	H	0.801605	-0.390412	-0.000014
C93	C	0.612157	0.098006	0.000126
C94	C	0.651298	0.114505	0.085944
C95	C	0.591282	0.217809	0.086100
H96	H	0.548203	0.106368	0.000170
H97	H	0.608864	0.148534	-0.058026
H98	H	0.654580	0.063992	0.144081
H99	H	0.715245	0.106165	0.085919
H100	H	0.587989	0.268337	0.027948
H101	H	0.527331	0.226162	0.086141
H102	H	0.617835	0.229021	0.144322
H103	H	1.059570	-0.176735	0.247202
H104	H	0.596381	-0.562268	0.000010
C105	C	0.816679	0.033157	-0.000165
C106	C	0.764167	0.122539	-0.085987
C107	C	0.802018	0.194857	-0.086158
H108	H	0.883768	-0.000059	-0.000216
H109	H	0.810869	0.054815	0.057985
H110	H	0.769986	0.100882	-0.144121
H111	H	0.697079	0.155784	-0.085954
H112	H	0.796208	0.216515	-0.028008
H113	H	0.869107	0.161631	-0.086206
H114	H	0.766390	0.255515	-0.144382
H115	H	0.999731	-0.097999	0.309478
H116	H	1.291481	-0.481776	0.247145
H117	H	1.340213	-0.545854	0.437674
H118	H	0.933254	-0.010533	0.752835
C119	C	1.232129	-0.403927	0.719011
C120	C	1.152231	-0.404603	0.753781
C121	C	1.178905	-0.439973	0.858808
H122	H	1.251155	-0.357360	0.742894
H123	H	1.285390	-0.474044	0.742788
H124	H	1.098987	-0.334497	0.730014
H125	H	1.133194	-0.451172	0.729925
H126	H	1.232165	-0.510090	0.882585
H127	H	1.197931	-0.393402	0.882681
H128	H	1.124702	-0.440446	0.882413
C129	C	0.887252	0.050132	0.390388
C130	C	0.922063	0.110074	0.330064
C131	C	0.844840	0.211847	0.277411
H132	H	0.860970	0.084763	0.436588
H133	H	0.837540	0.043875	0.349374
H134	H	0.971758	0.116334	0.371075
H135	H	0.948337	0.075476	0.283845
H136	H	0.795128	0.205591	0.236396
H137	H	0.818564	0.246468	0.323618
H138	H	0.868447	0.252527	0.236468
H139	H	1.165152	-0.315563	0.752795
