data_functionalizedCrystal
_audit_creation_method	'MofGen! by Chris Wilmer'
_symmetry_space_group_name_H-M	'P1'
_symmetry_Int_Tables_number	1
_symmetry_cell_setting	triclinic
loop_
_symmetry_equiv_pos_as_xyz
  x,y,z
_cell_length_a	9.198806
_cell_length_b	14.971486
_cell_length_c	14.971494
_cell_angle_alpha	96.384157
_cell_angle_beta	90.001467
_cell_angle_gamma	90.001013
loop_
_atom_site_label
_atom_site_type_symbol
_atom_site_fract_x
_atom_site_fract_y
_atom_site_fract_z
O1	O	0.120720	-1.186948	0.116560
O2	O	0.120759	-0.926548	0.130519
O3	O	0.120735	-1.063723	-0.006660
O4	O	0.120743	-1.049772	0.253739
O5	O	-0.121050	-1.063712	-0.006660
O6	O	-0.121027	-0.926537	0.130519
O7	O	-0.121065	-1.186937	0.116560
Cu8	Cu	-0.143123	-1.056736	0.123539
Cu9	Cu	0.142816	-1.056749	0.123540
O10	O	-0.121042	-1.049761	0.253739
C11	C	-0.000129	-0.893218	0.129895
C12	C	-0.000114	-0.793921	0.128024
N13	N	-0.344237	-1.056733	0.123538
C14	C	-0.000155	-1.063093	-0.039985
C15	C	-0.000148	-1.061219	-0.139281
C16	C	-0.416444	-1.114331	0.065689
C17	C	-0.583856	-1.114345	0.065686
N18	N	0.343930	-1.056758	0.123533
C19	C	-0.000175	-1.220267	0.117184
C20	C	-0.000180	-1.319564	0.119055
C21	C	-0.000113	-0.736698	0.208613
C22	C	-0.000135	-0.643398	0.206850
C23	C	-0.000147	-0.607323	0.124497
C24	C	-0.000152	-0.664554	0.043902
C25	C	-0.000141	-0.757851	0.045666
C26	C	-0.000172	-0.470091	0.040231
C27	C	-0.000181	-0.376787	0.038466
C28	C	-0.000167	-0.355638	0.201415
C29	C	-0.000155	-0.448936	0.203179
C30	C	-0.000158	-0.506160	0.122583
C31	C	0.131650	-1.060347	-0.185926
C32	C	0.131652	-1.058580	-0.279225
C33	C	-0.000146	-1.057693	-0.325879
C34	C	-0.131955	-1.058562	-0.279227
C35	C	-0.131955	-1.060322	-0.185929
C36	C	-0.131945	-1.054896	-0.473690
C37	C	-0.131945	-1.053138	-0.566995
C38	C	0.131663	-1.053154	-0.566986
C39	C	0.131663	-1.054914	-0.473688
C40	C	-0.000147	-1.055786	-0.427043
C41	C	-0.000148	-1.050392	0.287064
C42	C	-0.000146	-1.052266	0.386360
H43	H	-0.354326	-1.163630	0.016160
O44	O	-0.000161	-0.487843	0.292003
H45	H	0.098376	-0.464856	0.330742
H46	H	-0.645951	-1.163660	0.016161
H47	H	-0.593985	-1.007447	0.173067
H48	H	-0.406356	-1.007429	0.173060
O49	O	0.273836	-1.052205	-0.617286
H50	H	0.251700	-1.050819	-0.689998
O51	O	0.273808	-1.061305	-0.135611
H52	H	0.280113	-1.001193	-0.085194
H53	H	-0.000176	-0.516681	-0.025399
O54	O	-0.000177	-0.625651	-0.044925
H55	H	0.098371	-0.583652	-0.049635
O56	O	-0.000180	-0.293926	0.288347
H57	H	-0.000212	-0.222989	0.273289
O58	O	0.273812	-1.055877	-0.423364
H59	H	0.280112	-0.995765	-0.372946
H60	H	-0.000103	-0.766062	0.275674
H61	H	-0.000133	-0.596810	0.272473
H62	H	-0.000140	-0.804442	-0.019958
O63	O	0.273805	-1.057595	-0.329532
H64	H	0.365452	-1.058502	-0.281416
O65	O	-0.274093	-1.052167	-0.617319
H66	H	-0.365749	-1.053052	-0.569209
H67	H	-0.239278	-1.055586	-0.435712
H68	H	-0.239267	-1.057834	-0.317219
H69	H	-0.239280	-1.061020	-0.147951
H70	H	-0.000192	-0.347418	-0.028593
