data_functionalizedCrystal
_audit_creation_method	'MofGen! by Chris Wilmer'
_symmetry_space_group_name_H-M	'P1'
_symmetry_Int_Tables_number	1
_symmetry_cell_setting	triclinic
loop_
_symmetry_equiv_pos_as_xyz
  x,y,z
_cell_length_a	21.395364
_cell_length_b	16.625545
_cell_length_c	16.625539
_cell_angle_alpha	89.971893
_cell_angle_beta	89.979410
_cell_angle_gamma	90.040509
loop_
_atom_site_label
_atom_site_type_symbol
_atom_site_fract_x
_atom_site_fract_y
_atom_site_fract_z
Zn1	Zn	0.957857	-0.320679	-0.455911
Zn2	Zn	0.957776	-0.455522	-0.321079
Zn3	Zn	0.853079	-0.320742	-0.321092
Zn4	Zn	0.853051	-0.455508	-0.455869
O5	O	0.905441	-0.388113	-0.388487
O6	O	1.045524	-0.338545	-0.438038
O7	O	0.943866	-0.437675	-0.208248
O8	O	0.867024	-0.207901	-0.338999
O9	O	1.045465	-0.437614	-0.338977
O10	O	0.944004	-0.207855	-0.438050
O11	O	0.866946	-0.338653	-0.208257
O12	O	0.765398	-0.338640	-0.338958
O13	O	0.866975	-0.437590	-0.568707
O14	O	0.765377	-0.437652	-0.437978
O15	O	0.943976	-0.338532	-0.568738
O16	O	0.943838	-0.568352	-0.338936
O17	O	0.866897	-0.568342	-0.437965
C18	C	0.742653	-0.388152	-0.388465
C19	C	0.673012	-0.388188	-0.388474
C20	C	0.640352	-0.336687	-0.440135
C21	C	0.574917	-0.336666	-0.440138
C22	C	0.542144	-0.388159	-0.388489
C23	C	0.574811	-0.439664	-0.336818
C24	C	0.640246	-0.439678	-0.336811
C25	C	0.438425	-0.460774	-0.382009
C26	C	0.372992	-0.460761	-0.382022
C27	C	0.340323	-0.388115	-0.388507
C28	C	0.373095	-0.315480	-0.394996
C29	C	0.438529	-0.315494	-0.394988
C30	C	0.471191	-0.388149	-0.388491
C31	C	0.236711	-0.336587	-0.440174
C32	C	0.171274	-0.336564	-0.440171
C33	C	0.171170	-0.439569	-0.336856
C34	C	0.236605	-0.439585	-0.336854
C35	C	0.269372	-0.388095	-0.388517
C36	C	0.905373	-0.597603	-0.388462
C37	C	0.905401	-0.687225	-0.388478
C38	C	0.905425	-0.760007	-0.388494
C39	C	0.905462	-0.851315	-0.388512
C40	C	0.905494	-0.924092	-0.388522
C41	C	0.905530	-1.015406	-0.388539
C42	C	1.068864	-0.388074	-0.388511
C43	C	1.138505	-0.388057	-0.388521
C44	C	0.905482	-0.388052	-0.598796
C45	C	0.905499	-0.388027	-0.688418
C46	C	0.905526	-0.177804	-0.388531
C47	C	0.905563	-0.088182	-0.388549
C48	C	0.905528	-0.387937	-1.016593
C49	C	0.905518	-0.387964	-0.925285
C50	C	0.905514	-0.387982	-0.852508
C51	C	0.905503	-0.388009	-0.761194
C52	C	0.905436	-0.388114	-0.178997
C53	C	0.905540	-0.387913	-0.089376
H54	H	0.144487	-0.481496	-0.294802
H55	H	0.465018	-0.519935	-0.376728
H56	H	0.548123	-0.481590	-0.294765
N57	N	0.539685	-0.281119	-0.495868
H58	H	0.512529	-0.313936	-0.533173
H59	H	0.512585	-0.243714	-0.463117
N60	N	0.675470	-0.495235	-0.281091
H61	H	0.702603	-0.532649	-0.313790
H62	H	0.702594	-0.462370	-0.243791
H63	H	0.263197	-0.481525	-0.294789
H64	H	0.667027	-0.294759	-0.482203
N65	N	0.272055	-0.281063	-0.495902
H66	H	0.318464	-0.288896	-0.488070
H67	H	0.260618	-0.293700	-0.553459
N68	N	0.473878	-0.237160	-0.401983
H69	H	0.443258	-0.191134	-0.406093
H70	H	0.501014	-0.229621	-0.352864
N71	N	0.337870	-0.237119	-0.401997
H72	H	0.291446	-0.248128	-0.401014
H73	H	0.349319	-0.201014	-0.355433
H74	H	0.144683	-0.294621	-0.482238
H75	H	0.346314	-0.519904	-0.376742
