data_functionalizedCrystal
_audit_creation_method	'MofGen! by Chris Wilmer'
_symmetry_space_group_name_H-M	'P1'
_symmetry_Int_Tables_number	1
_symmetry_cell_setting	triclinic
loop_
_symmetry_equiv_pos_as_xyz
  x,y,z
_cell_length_a	19.288856
_cell_length_b	13.448316
_cell_length_c	14.971486
_cell_angle_alpha	90.006811
_cell_angle_beta	96.626555
_cell_angle_gamma	89.991245
loop_
_atom_site_label
_atom_site_type_symbol
_atom_site_fract_x
_atom_site_fract_y
_atom_site_fract_z
O1	O	-0.921718	0.082738	0.111545
O2	O	-0.719505	0.082730	0.126605
O3	O	-0.826031	0.082727	-0.011154
O4	O	-0.815192	0.082741	0.249305
O5	O	-0.826018	-0.082657	-0.011163
O6	O	-0.719492	-0.082654	0.126597
O7	O	-0.921704	-0.082646	0.111537
Cu8	Cu	-0.820597	-0.097751	0.119066
Cu9	Cu	-0.820613	0.097835	0.119076
O10	O	-0.815178	-0.082643	0.249296
C11	C	-0.693621	0.000037	0.126118
C12	C	-0.616512	0.000034	0.124667
N13	N	-0.820591	-0.235315	0.119059
C14	C	-0.052702	0.000023	0.195683
C15	C	-0.125153	0.000031	0.197054
C16	C	-0.169596	0.000025	0.116223
C17	C	-0.141583	0.000039	0.034015
C18	C	-0.069134	0.000041	0.032647
C19	C	-0.290666	-0.057919	0.055936
C20	C	-0.363114	-0.057928	0.057308
C21	C	-0.393056	0.000022	0.120442
C22	C	-0.350540	0.057968	0.182218
C23	C	-0.278090	0.057970	0.180849
C24	C	-0.248157	0.000023	0.117698
C25	C	-0.499621	0.000024	0.204131
C26	C	-0.572074	0.000037	0.205499
C27	C	-0.588503	0.000035	0.042457
C28	C	-0.516051	0.000032	0.041092
C29	C	-0.471614	0.000021	0.121931
C30	C	-0.867775	-0.287357	0.058084
C31	C	-0.867780	-0.391460	0.058083
C32	C	-0.820602	-0.443520	0.119062
C33	C	-0.773413	-0.391471	0.180040
C34	C	-0.773406	-0.287369	0.180036
C35	C	-0.773432	-0.608451	0.180046
C36	C	-0.773440	-0.712559	0.180051
C37	C	-0.867806	-0.712541	0.058093
C38	C	-0.867799	-0.608440	0.058089
C39	C	-0.820610	-0.556398	0.119068
C40	C	0.052411	0.000042	0.112027
C41	C	-0.024697	0.000031	0.113486
C42	C	-0.825540	0.000035	-0.044481
C43	C	-0.824087	0.000036	-0.143770
N44	N	-0.820624	0.235399	0.119076
C45	C	-0.886668	0.000038	-0.201336
C46	C	-0.885299	0.000048	-0.294628
C47	C	-0.821348	0.000049	-0.330352
C48	C	-0.758762	0.000050	-0.272778
C49	C	-0.760132	0.000047	-0.179488
C50	C	-0.755912	0.000054	-0.467225
C51	C	-0.754541	0.000055	-0.560522
C52	C	-0.881079	0.000054	-0.582365
C53	C	-0.882449	0.000051	-0.489075
C54	C	-0.819862	0.000051	-0.431508
C55	C	-0.815670	0.000051	0.282623
C56	C	-0.817123	0.000056	0.381912
H57	H	-0.016526	0.000019	0.261509
H58	H	-0.702467	0.000040	-0.589605
H59	H	-0.936259	0.000047	-0.341495
H60	H	-0.934523	0.000043	-0.459992
H61	H	-0.147960	0.000015	0.263991
Br62	Br	-0.709362	-0.216741	0.262786
H63	H	-0.906195	-0.244977	0.008431
H64	H	-0.624688	0.000039	-0.023357
H65	H	-0.266294	-0.105111	0.004521
Br66	Br	-0.478041	0.000050	-0.070468
Br67	Br	-0.031123	0.000058	-0.078916
Br68	Br	-0.931831	-0.537784	-0.024661
H69	H	-0.397725	-0.105116	0.007011
Br70	Br	-0.709411	-0.783204	0.262813
H71	H	-0.243477	0.105154	0.231148
Br72	Br	-0.675197	0.000053	-0.101361
H73	H	-0.594873	0.000039	0.272436
Br74	Br	-0.973464	0.000022	-0.152863
H75	H	-0.906228	-0.754920	0.008442
Br76	Br	-0.391165	0.136604	0.267917
H77	H	-0.463438	0.000017	0.269955
H78	H	-0.177774	0.000037	-0.031798
H79	H	-0.932039	0.000058	-0.629241
H80	H	-0.734997	-0.433864	0.229688
Br81	Br	-0.931814	-0.462091	-0.024673
Br82	Br	-0.671970	0.000068	-0.321260
Br83	Br	-0.709386	-0.537826	0.262801
H84	H	-0.704947	0.000056	-0.420356
