data_functionalizedCrystal
_audit_creation_method	'MofGen! by Chris Wilmer'
_symmetry_space_group_name_H-M	'P1'
_symmetry_Int_Tables_number	1
_symmetry_cell_setting	triclinic
loop_
_symmetry_equiv_pos_as_xyz
  x,y,z
_cell_length_a	18.215407
_cell_length_b	19.076808
_cell_length_c	18.215399
_cell_angle_alpha	92.328322
_cell_angle_beta	90.019833
_cell_angle_gamma	92.323864
loop_
_atom_site_label
_atom_site_type_symbol
_atom_site_fract_x
_atom_site_fract_y
_atom_site_fract_z
Zn1	Zn	1.113298	-0.280216	0.404332
Zn2	Zn	1.108261	-0.397924	0.276316
Zn3	Zn	0.990230	-0.280239	0.281279
Zn4	Zn	0.985252	-0.397885	0.399343
O5	O	1.049260	-0.339066	0.340318
O6	O	1.215614	-0.295837	0.387362
O7	O	1.092578	-0.382339	0.173989
O8	O	1.010746	-0.181739	0.301767
O9	O	1.211913	-0.382316	0.293309
O10	O	1.101164	-0.181722	0.392174
O11	O	1.005861	-0.295876	0.177635
O12	O	0.886585	-0.295838	0.296929
O13	O	1.002263	-0.382250	0.502990
O14	O	0.882928	-0.382272	0.383670
O15	O	1.096338	-0.295799	0.506656
O16	O	1.087752	-0.496415	0.288471
O17	O	0.997378	-0.496386	0.378858
C18	C	0.858054	-0.339054	0.340297
C19	C	0.776255	-0.339065	0.340305
C20	C	0.586173	-0.384142	0.385409
C21	C	0.509314	-0.384145	0.385418
C22	C	0.513098	-0.294002	0.295242
C23	C	0.589956	-0.293996	0.295237
C24	C	0.626491	-0.339071	0.340319
C25	C	0.472775	-0.339078	0.340333
C26	C	0.389441	-0.339080	0.340343
C27	C	0.709830	-0.339068	0.340311
C28	C	1.041498	-0.521940	0.332601
C29	C	1.038245	-0.600174	0.329324
C30	C	1.083757	-0.636859	0.374893
C31	C	1.080698	-0.710369	0.371815
C32	C	1.032129	-0.747192	0.323165
C33	C	0.986612	-0.710501	0.277594
C34	C	0.989668	-0.636993	0.280676
C35	C	1.017940	-0.967045	0.308900
C36	C	1.014889	-1.040558	0.305820
C37	C	1.108974	-1.040420	0.400043
C38	C	1.112029	-0.966911	0.403117
C39	C	1.066510	-0.930227	0.357549
N40	N	1.029002	-0.822330	0.320016
N41	N	1.069633	-0.855090	0.360702
C42	C	1.241212	-0.339078	0.340339
C43	C	1.323011	-0.339084	0.340348
C44	C	1.049307	-0.339017	0.532273
C45	C	1.049327	-0.338996	0.614072
C46	C	1.057072	-0.155477	0.348081
C47	C	1.060401	-0.077243	0.351389
C48	C	1.049258	-0.339063	0.149111
C49	C	1.049389	-0.338886	0.067320
C50	C	1.098330	-0.293939	0.804178
C51	C	1.098340	-0.293919	0.881038
C52	C	1.000380	-0.383945	0.877209
C53	C	1.000368	-0.383961	0.800351
C54	C	1.049347	-0.338959	0.763838
C55	C	1.049369	-0.338923	0.917555
C56	C	1.049379	-0.338901	1.000890
C57	C	1.049336	-0.338980	0.680498
H58	H	1.123310	-0.606883	0.414506
C59	C	0.939606	-0.596635	0.230549
C60	C	0.945236	-0.606782	0.146466
C61	C	0.895170	-0.566424	0.096341
C62	C	0.839473	-0.515921	0.130297
C63	C	0.833840	-0.505772	0.214384
C64	C	0.883907	-0.546130	0.264510
H65	H	0.986469	-0.644169	0.121326
H66	H	0.899339	-0.573937	0.034094
H67	H	0.802410	-0.486046	0.093191
H68	H	0.792608	-0.468385	0.239525
H69	H	0.879737	-0.538617	0.326756
C70	C	0.472907	-0.244428	0.245647
C71	C	0.388367	-0.244434	0.245645
C72	C	0.348178	-0.194861	0.196047
C73	C	0.392529	-0.145281	0.146450
C74	C	0.477074	-0.145273	0.146449
C75	C	0.517264	-0.194847	0.196048
H76	H	0.355531	-0.281137	0.282362
H77	H	0.285592	-0.194867	0.196047
H78	H	0.362779	-0.108584	0.109734
H79	H	0.509910	-0.108570	0.109733
H80	H	0.579850	-0.194840	0.196047
H81	H	0.947063	-0.740488	0.237985
H82	H	1.151578	-0.936931	0.442732
H83	H	0.960505	-0.420585	0.906948
C84	C	0.464964	-0.433727	0.435014
C85	C	0.380424	-0.433734	0.435027
C86	C	0.336074	-0.483319	0.484626
C87	C	0.376265	-0.532896	0.534212
C88	C	0.460810	-0.532891	0.534201
C89	C	0.505159	-0.483307	0.484603
H90	H	0.350668	-0.397032	0.398318
H91	H	0.273488	-0.483322	0.484634
H92	H	0.343434	-0.569602	0.570928
H93	H	0.490565	-0.569593	0.570910
H94	H	0.567745	-0.483303	0.484595
C95	C	0.946477	-0.433481	0.755971
C96	C	0.946457	-0.433492	0.671430
C97	C	0.892564	-0.483004	0.627049
C98	C	0.838690	-0.532506	0.667209
C99	C	0.838708	-0.532497	0.751754
C100	C	0.892601	-0.482985	0.796135
H101	H	0.986339	-0.396846	0.641697
H102	H	0.892551	-0.483010	0.564463
H103	H	0.798795	-0.569158	0.634356
H104	H	0.798826	-0.569143	0.781487
H105	H	0.892614	-0.482979	0.858721
C106	C	1.159038	-1.080773	0.450171
C107	C	1.153404	-1.070617	0.534252
C108	C	1.203468	-1.110968	0.584386
C109	C	1.259166	-1.161475	0.550439
C110	C	1.264803	-1.171633	0.466353
C111	C	1.214739	-1.131282	0.416219
H112	H	1.112170	-1.033226	0.559386
H113	H	1.199295	-1.103448	0.646632
H114	H	1.296227	-1.191346	0.587551
H115	H	1.306036	-1.209024	0.441220
H116	H	1.218912	-1.138802	0.353974
C117	C	1.152225	-0.244398	0.925413
C118	C	1.122695	-0.189121	0.980581
C119	C	1.176582	-0.139598	1.024956
C120	C	1.259997	-0.145351	1.014165
C121	C	1.289531	-0.200631	0.958995
C122	C	1.235644	-0.250154	0.914619
H123	H	1.060942	-0.184860	0.988571
H124	H	1.154719	-0.098677	1.065797
H125	H	1.299887	-0.108691	1.047015
H126	H	1.351284	-0.204892	0.951005
H127	H	1.257508	-0.291075	0.873779
C128	C	0.626363	-0.433716	0.435004
C129	C	0.676845	-0.488938	0.400693
C130	C	0.717033	-0.538512	0.450292
C131	C	0.706740	-0.532864	0.534202
C132	C	0.656256	-0.477639	0.568518
C133	C	0.616068	-0.428066	0.518919
H134	H	0.684466	-0.493122	0.338574
H135	H	0.754404	-0.579393	0.424889
H136	H	0.736489	-0.569561	0.570918
H137	H	0.648634	-0.473456	0.630637
H138	H	0.578697	-0.387185	0.544322
C139	C	0.634310	-0.244415	0.245633
C140	C	0.689501	-0.189189	0.279943
C141	C	0.733855	-0.139608	0.230343
C142	C	0.723018	-0.145253	0.146434
C143	C	0.667824	-0.200481	0.112120
C144	C	0.623470	-0.250062	0.161719
H145	H	0.697526	-0.185008	0.342061
H146	H	0.774713	-0.098724	0.255745
H147	H	0.755851	-0.108550	0.109718
H148	H	0.659799	-0.204662	0.050001
H149	H	0.582612	-0.290946	0.136317
C150	C	1.130768	-0.750718	0.421940
C151	C	1.214855	-0.740542	0.416428
C152	C	1.264929	-0.780889	0.466557
C153	C	1.230915	-0.831412	0.522197
C154	C	1.146823	-0.841590	0.527711
C155	C	1.096750	-0.801243	0.477583
H156	H	1.240038	-0.703140	0.375238
H157	H	1.327179	-0.773355	0.462474
H158	H	1.267982	-0.861280	0.559305
H159	H	1.121641	-0.878993	0.568901
H160	H	1.034500	-0.808778	0.481665
H161	H	0.975335	-1.070537	0.266202
C162	C	0.967875	-0.926703	0.258767
C163	C	0.973513	-0.936862	0.174687
C164	C	0.923445	-0.896519	0.124549
C165	C	0.867739	-0.846017	0.158491
C166	C	0.862097	-0.835857	0.242576
C167	C	0.912165	-0.876200	0.292714
H168	H	1.014753	-0.974248	0.149556
H169	H	0.927622	-0.904041	0.062303
H170	H	0.830675	-0.816153	0.121376
H171	H	0.820858	-0.798471	0.267707
H172	H	0.907989	-0.868678	0.354960
C173	C	1.152201	-0.244434	0.764013
C174	C	1.152193	-0.244450	0.679472
C175	C	1.206063	-0.194941	0.639309
C176	C	1.259941	-0.145417	0.683687
C177	C	1.259951	-0.145400	0.768232
C178	C	1.206081	-0.194908	0.808395
H179	H	1.112307	-0.281112	0.646616
H180	H	1.206056	-0.194954	0.576722
H181	H	1.299819	-0.108768	0.653955
H182	H	1.299837	-0.108737	0.801088
H183	H	1.206088	-0.194895	0.870982
