data_functionalizedCrystal
_audit_creation_method	'MofGen! by Chris Wilmer'
_symmetry_space_group_name_H-M	'P1'
_symmetry_Int_Tables_number	1
_symmetry_cell_setting	triclinic
loop_
_symmetry_equiv_pos_as_xyz
  x,y,z
_cell_length_a	16.974800
_cell_length_b	14.044220
_cell_length_c	16.053802
_cell_angle_alpha	92.799619
_cell_angle_beta	91.074188
_cell_angle_gamma	88.279480
loop_
_atom_site_label
_atom_site_type_symbol
_atom_site_fract_x
_atom_site_fract_y
_atom_site_fract_z
O1	O	1.057574	0.120850	0.002053
O2	O	0.829132	0.135362	-0.013390
O3	O	0.939924	-0.009887	-0.005892
O4	O	0.946782	0.266099	-0.005445
O5	O	0.933823	-0.001925	0.132554
O6	O	0.823032	0.143324	0.125056
O7	O	1.051473	0.128812	0.140499
Zn8	Zn	0.936284	0.137332	0.154759
Zn9	Zn	0.944322	0.126842	-0.027650
O10	O	0.940682	0.274061	0.133001
C11	C	0.796670	0.138646	0.053845
C12	C	0.709030	0.136555	0.047921
C13	C	0.664536	0.139911	0.120606
C14	C	0.582190	0.137932	0.115042
C15	C	0.544339	0.132603	0.036791
C16	C	0.588839	0.129245	-0.035900
C17	C	0.671184	0.131217	-0.030335
C18	C	0.298421	0.126232	0.012055
C19	C	0.216069	0.124263	0.006496
C20	C	0.209426	0.132948	0.157438
C21	C	0.291772	0.134926	0.162996
C22	C	0.336266	0.131562	0.090305
N23	N	0.460168	0.130583	0.031102
N24	N	0.420436	0.133576	0.095995
C25	C	0.933871	-0.041228	0.063129
C26	C	0.924917	-0.146476	0.062524
C27	C	0.908548	-0.339179	0.061406
C28	C	0.972054	-0.396653	0.065696
C29	C	0.962946	-0.503879	0.065074
C30	C	0.917655	-0.231942	0.062028
C31	C	1.083935	0.125528	0.073263
C32	C	1.171575	0.127619	0.079181
C33	C	0.946734	0.305402	0.063979
C34	C	0.955688	0.410650	0.064578
N35	N	0.930804	0.144491	0.279248
N36	N	0.949807	0.119676	-0.152139
C37	C	0.977966	0.082709	0.326134
C38	C	0.974141	0.087726	0.413282
C39	C	0.923157	0.154529	0.453543
C40	C	0.875989	0.216314	0.406651
C41	C	0.879811	0.211292	0.319504
C42	C	0.906461	0.176438	0.713823
C43	C	0.902645	0.181457	0.800976
C44	C	1.000796	0.052868	0.807601
C45	C	1.004616	0.047856	0.720453
C46	C	0.957446	0.109637	0.673568
N47	N	0.919248	0.159661	0.542622
N48	N	0.961352	0.104500	0.584490
H49	H	0.334637	0.123490	-0.047135
H50	H	1.019486	0.028315	0.293360
H51	H	0.707411	0.128486	-0.089523
H52	H	1.039199	0.002568	0.845782
Br53	Br	0.806532	-0.391387	0.054502
H54	H	1.033267	-0.365331	0.069778
H55	H	0.322585	0.139260	0.226716
H56	H	1.012543	0.037418	0.451456
Br57	Br	0.149039	0.137511	0.256085
H58	H	0.861126	0.235861	0.833751
H59	H	0.695348	0.144257	0.184326
Br60	Br	0.164700	0.117038	-0.099708
Br61	Br	1.073812	-0.042803	0.665812
Br62	Br	0.842448	0.260283	0.650198
Br63	Br	0.806789	0.306971	0.461287
Br64	Br	0.815797	0.295136	0.255873
H65	H	0.558015	0.124900	-0.099613
Br66	Br	0.521807	0.142502	0.213692
