data_functionalizedCrystal
_audit_creation_method	'MofGen! by Chris Wilmer'
_symmetry_space_group_name_H-M	'P1'
_symmetry_Int_Tables_number	1
_symmetry_cell_setting	triclinic
loop_
_symmetry_equiv_pos_as_xyz
  x,y,z
_cell_length_a	14.971486
_cell_length_b	19.188930
_cell_length_c	14.048226
_cell_angle_alpha	89.988446
_cell_angle_beta	89.998499
_cell_angle_gamma	83.379455
loop_
_atom_site_label
_atom_site_type_symbol
_atom_site_fract_x
_atom_site_fract_y
_atom_site_fract_z
O1	O	1.186466	0.090988	-0.079062
O2	O	0.926009	0.101884	-0.079090
O3	O	1.063754	-0.005196	-0.079057
O4	O	1.048721	0.198067	-0.079095
O5	O	1.063737	-0.005202	0.079265
O6	O	0.925992	0.101878	0.079232
O7	O	1.186450	0.090982	0.079259
Zn8	Zn	1.056218	0.096429	0.104382
Zn9	Zn	1.056240	0.096437	-0.104213
O10	O	1.048705	0.198061	0.079226
C11	C	0.892678	0.101393	0.000068
C12	C	0.793389	0.099933	0.000058
C13	C	0.735831	0.162839	0.000048
C14	C	0.642539	0.161463	0.000062
C15	C	0.606806	0.097180	0.000080
C16	C	0.664371	0.034269	0.000094
C17	C	0.757662	0.035646	0.000086
C18	C	0.469924	0.031403	0.000108
C19	C	0.376627	0.030026	0.000113
C20	C	0.354801	0.157221	0.000083
C21	C	0.448092	0.158598	0.000076
C22	C	0.505650	0.095686	0.000088
C23	C	1.063259	-0.031211	0.000107
C24	C	1.061797	-0.108721	0.000115
C25	C	1.142622	-0.153384	0.000128
C26	C	1.141249	-0.226213	0.000112
C27	C	1.059047	-0.254374	0.000103
C28	C	0.978212	-0.209700	0.000085
C29	C	0.979587	-0.136874	0.000091
N30	N	0.996208	-0.362583	0.053976
N31	N	0.994907	-0.431766	0.053973
C32	C	1.054899	-0.473796	0.000084
N33	N	1.116254	-0.444031	-0.053790
N34	N	1.117558	-0.374842	-0.053782
C35	C	1.057547	-0.333341	0.000096
C36	C	1.134240	-0.597429	0.000078
C37	C	1.132864	-0.670258	0.000057
C38	C	0.969825	-0.653744	0.000039
C39	C	0.971203	-0.580916	0.000051
C40	C	1.053413	-0.552763	0.000075
C41	C	1.219780	0.091472	0.000100
C42	C	1.319070	0.092932	0.000103
C43	C	1.049200	0.224077	0.000061
C44	C	1.050661	0.301586	0.000046
N45	N	1.056210	0.096422	0.246743
N46	N	1.056256	0.096437	-0.246573
C47	C	1.117223	0.049027	0.296576
C48	C	1.117229	0.049027	0.396233
C49	C	1.056226	0.096426	0.446057
C50	C	0.995207	0.143823	0.396217
C51	C	0.995197	0.143819	0.296561
C52	C	0.995233	0.143828	0.603931
C53	C	0.995243	0.143833	0.703594
C54	C	1.117264	0.049035	0.703603
C55	C	1.117255	0.049032	0.603948
C56	C	1.056236	0.096430	0.554115
H57	H	0.764917	0.215186	0.000032
H58	H	0.477182	0.210943	0.000052
H59	H	0.347537	-0.022319	0.000130
H60	H	0.635271	-0.018072	0.000122
C61	C	1.282020	-0.145029	-0.081239
C62	C	1.232986	-0.122440	0.000143
H63	H	1.337805	-0.125921	-0.081232
H64	H	1.292763	-0.194789	-0.081233
H65	H	1.248750	-0.129687	-0.136447
H66	H	1.266254	-0.137787	0.055351
H67	H	1.222247	-0.072670	0.000144
H68	H	0.945567	0.182429	0.744155
H69	H	0.945542	0.182423	0.563361
C70	C	0.307472	0.265213	-0.081329
C71	C	0.291538	0.226376	0.000074
H72	H	0.268409	0.307903	-0.081339
H73	H	0.368139	0.275229	-0.081332
H74	H	0.296658	0.238849	-0.136522
H75	H	0.302359	0.252738	0.055268
H76	H	0.230856	0.216362	0.000086
C77	C	0.874595	0.237528	0.306555
C78	C	0.928134	0.195921	0.241781
H79	H	0.833195	0.269696	0.272735
H80	H	0.842543	0.208425	0.345437
H81	H	0.911739	0.262691	0.345412
H82	H	0.890991	0.170754	0.202929
H83	H	0.960188	0.225028	0.202883
C84	C	0.903714	-0.314007	0.000083
C85	C	0.887854	-0.240652	0.000079
H86	H	0.847927	-0.333113	0.000082
H87	H	0.936982	-0.329321	-0.055120
H88	H	0.936977	-0.329335	0.055301
H89	H	0.854596	-0.225324	-0.055143
H90	H	0.854572	-0.225331	0.055287
C91	C	0.482132	-0.094465	0.000118
C92	C	0.533194	-0.037750	0.000110
H93	H	0.521195	-0.137155	0.000108
H94	H	0.445301	-0.092364	0.055330
H95	H	0.445282	-0.092344	-0.055091
H96	H	0.570040	-0.039867	0.055323
H97	H	0.570041	-0.039852	-0.055108
C98	C	0.630336	0.287325	0.000019
C99	C	0.579272	0.230612	0.000046
H100	H	0.591275	0.330016	0.000004
H101	H	0.667179	0.285217	0.055221
H102	H	0.667175	0.285210	-0.055199
H103	H	0.542437	0.232724	0.055268
H104	H	0.542413	0.232721	-0.055162
H105	H	1.198683	-0.706623	0.000063
H106	H	1.166947	0.010442	0.744183
H107	H	0.902894	-0.676672	0.000027
C108	C	0.878167	-0.489448	0.081434
C109	C	0.882360	-0.531813	0.000047
H110	H	0.823318	-0.459131	0.081424
H111	H	0.881006	-0.518212	0.136632
H112	H	0.927327	-0.462261	0.081432
H113	H	0.833203	-0.559005	0.000052
H114	H	0.879512	-0.503047	-0.055166
H115	H	0.804525	-0.015579	0.000094
C116	C	1.237828	-0.044680	0.306605
C117	C	1.184279	-0.003077	0.241815
H118	H	1.279221	-0.076851	0.272798
H119	H	1.269888	-0.015574	0.345457
H120	H	1.200690	-0.069838	0.345492
H121	H	1.221416	0.022085	0.202933
H122	H	1.152216	-0.032187	0.202947
H123	H	1.207068	-0.262585	0.000119
H124	H	0.945533	0.182414	0.436789
H125	H	0.913768	-0.100507	0.000080
H126	H	1.201180	-0.574506	0.000094
H127	H	1.166909	0.010434	0.436807
H128	H	1.166932	0.010440	0.563382
