data_functionalizedCrystal
_audit_creation_method	'MofGen! by Chris Wilmer'
_symmetry_space_group_name_H-M	'P1'
_symmetry_Int_Tables_number	1
_symmetry_cell_setting	triclinic
loop_
_symmetry_equiv_pos_as_xyz
  x,y,z
_cell_length_a	16.625548
_cell_length_b	13.897448
_cell_length_c	13.897441
_cell_angle_alpha	90.030599
_cell_angle_beta	89.978130
_cell_angle_gamma	89.981240
loop_
_atom_site_label
_atom_site_type_symbol
_atom_site_fract_x
_atom_site_fract_y
_atom_site_fract_z
Zn1	Zn	1.232718	0.383957	-0.545410
Zn2	Zn	1.732718	0.883957	-0.045410
Zn3	Zn	1.232629	0.545278	-0.384112
Zn4	Zn	1.732629	1.045278	0.115888
Zn5	Zn	1.097876	0.384002	-0.384126
Zn6	Zn	1.597876	0.884002	0.115874
Zn7	Zn	1.097861	0.545214	-0.545361
Zn8	Zn	1.597861	1.045214	-0.045361
O9	O	1.165271	0.464613	-0.464752
O10	O	1.665271	0.964613	0.035248
O11	O	1.345538	0.405364	-0.524029
O12	O	1.845538	0.905364	-0.024029
O13	O	1.214723	0.523930	-0.249132
O14	O	1.714723	1.023930	0.250868
O15	O	1.115807	0.249014	-0.405547
O16	O	1.615807	0.749014	0.094453
O17	O	1.345473	0.523886	-0.405523
O18	O	1.845473	1.023886	0.094477
O19	O	1.214874	0.248981	-0.524042
O20	O	1.714874	0.748981	-0.024042
O21	O	1.115721	0.405441	-0.249142
O22	O	1.615721	0.905441	0.250858
O23	O	0.985042	0.405379	-0.405499
O24	O	1.485042	0.905379	0.094501
O25	O	1.115781	0.523777	-0.680349
O26	O	1.615781	1.023777	-0.180349
O27	O	0.985031	0.523821	-0.523958
O28	O	1.485031	1.023821	-0.023958
O29	O	1.214859	0.405302	-0.680386
O30	O	1.714859	0.905302	-0.180386
O31	O	1.214708	0.680251	-0.405476
O32	O	1.714708	1.180251	0.094524
O33	O	1.115695	0.680204	-0.523945
O34	O	1.615695	1.180204	-0.023945
C35	C	1.165212	0.715227	-0.464724
C36	C	1.665212	1.215227	0.035276
C37	C	1.165261	0.822441	-0.464745
C38	C	1.665261	1.322441	0.035255
C39	C	0.955780	0.464599	-0.464725
C40	C	1.455780	0.964599	0.035275
C41	C	0.866159	0.464616	-0.464737
C42	C	1.366159	0.964616	0.035263
C43	C	1.165328	0.464528	-0.716345
C44	C	1.665328	0.964528	-0.216345
C45	C	1.165353	0.464491	-0.823559
C46	C	1.665353	0.964491	-0.323559
C47	C	0.537983	0.464623	-0.464778
C48	C	1.037983	0.964623	0.035222
C49	C	0.629292	0.464618	-0.464763
C50	C	1.129292	0.964618	0.035237
C51	C	0.702068	0.464620	-0.464757
C52	C	1.202068	0.964620	0.035243
C53	C	0.793383	0.464615	-0.464743
C54	C	1.293383	0.964615	0.035257
C55	C	1.375580	0.464627	-0.464780
C56	C	1.875580	0.964627	0.035220
C57	C	1.465201	0.464634	-0.464792
C58	C	1.965201	0.964634	0.035208
C59	C	1.165352	0.213020	-0.464801
C60	C	1.665352	0.713020	0.035199
C61	C	1.165387	0.105806	-0.464822
C62	C	1.665387	0.605806	0.035178
C63	C	1.165345	1.018736	-0.464805
C64	C	1.665345	1.518736	0.035195
C65	C	1.165296	0.909504	-0.464774
C66	C	1.665296	1.409504	0.035226
C67	C	1.165374	0.464426	-1.019855
C68	C	1.665374	0.964426	-0.519855
C69	C	1.165360	0.464465	-0.910622
C70	C	1.665360	0.964465	-0.410622
C71	C	1.165260	0.464628	-0.214138
C72	C	1.665260	0.964628	0.285862
C73	C	1.165392	0.464393	-0.106925
C74	C	1.665392	0.964393	0.393075
