data_functionalizedCrystal
_audit_creation_method	'MofGen! by Chris Wilmer'
_symmetry_space_group_name_H-M	'P1'
_symmetry_Int_Tables_number	1
_symmetry_cell_setting	triclinic
loop_
_symmetry_equiv_pos_as_xyz
  x,y,z
_cell_length_a	18.050589
_cell_length_b	21.395362
_cell_length_c	21.395355
_cell_angle_alpha	90.043940
_cell_angle_beta	89.987098
_cell_angle_gamma	89.955899
loop_
_atom_site_label
_atom_site_type_symbol
_atom_site_fract_x
_atom_site_fract_y
_atom_site_fract_z
Zn1	Zn	-0.295431	-0.957870	-0.354610
Zn2	Zn	-0.419603	-0.957777	-0.249843
Zn3	Zn	-0.295465	-0.853085	-0.249811
Zn4	Zn	-0.419618	-0.853059	-0.354548
O5	O	-0.357529	-0.905448	-0.302203
O6	O	-0.311882	-1.045536	-0.340752
O7	O	-0.403144	-0.943862	-0.162161
O8	O	-0.191536	-0.867035	-0.263726
O9	O	-0.403110	-1.045468	-0.263780
O10	O	-0.191511	-0.944020	-0.340721
O11	O	-0.311940	-0.866945	-0.162138
O12	O	-0.311955	-0.765404	-0.263665
O13	O	-0.403136	-0.866990	-0.442234
O14	O	-0.403170	-0.765385	-0.340615
O15	O	-0.311896	-0.943995	-0.442280
O16	O	-0.523529	-0.943836	-0.263719
O17	O	-0.523540	-0.866900	-0.340645
C18	C	-0.550481	-0.905372	-0.302192
C19	C	-0.633027	-0.905397	-0.302209
C20	C	-0.357568	-0.742660	-0.302130
C21	C	-0.357603	-0.673019	-0.302114
C22	C	-0.357514	-0.905500	-0.465626
C23	C	-0.357508	-0.905522	-0.535268
C24	C	-0.832511	-0.863601	-0.344027
C25	C	-0.881943	-0.848322	-0.286848
C26	C	-0.784157	-0.905459	-0.302217
C27	C	-0.881806	-0.920768	-0.359402
C28	C	-0.930142	-0.905517	-0.302230
C29	C	-0.832503	-0.890151	-0.245009
C30	C	-0.832361	-0.962623	-0.317601
C31	C	-0.881772	-0.947366	-0.260383
C32	C	-0.700059	-0.905424	-0.302211
C33	C	-1.014239	-0.905552	-0.302230
C34	C	-0.163823	-0.905541	-0.302227
C35	C	-0.081278	-0.905581	-0.302237
C36	C	-0.357490	-1.068871	-0.302276
C37	C	-0.357474	-1.138513	-0.302307
C38	C	-0.405161	-0.640312	-0.342121
C39	C	-0.405143	-0.574877	-0.342149
C40	C	-0.357574	-0.542151	-0.302159
C41	C	-0.310007	-0.574865	-0.262148
C42	C	-0.310021	-0.640300	-0.262126
C43	C	-0.351592	-0.438426	-0.245753
C44	C	-0.351583	-0.372993	-0.245774
C45	C	-0.357526	-0.340330	-0.302228
C46	C	-0.363494	-0.373108	-0.358662
C47	C	-0.363508	-0.438542	-0.358640
C48	C	-0.357553	-0.471198	-0.302179
C49	C	-0.405067	-0.236671	-0.342269
C50	C	-0.405044	-0.171234	-0.342298
C51	C	-0.309911	-0.171224	-0.262291
C52	C	-0.309931	-0.236659	-0.262268
C53	C	-0.357513	-0.269379	-0.302256
C54	C	-0.309997	-0.945617	-0.568006
C55	C	-0.309965	-0.945616	-0.633441
C56	C	-0.357457	-0.905527	-0.666136
C57	C	-0.404971	-0.865425	-0.633390
C58	C	-0.404996	-0.865422	-0.567956
C59	C	-0.424328	-0.900554	-0.769805
C60	C	-0.424304	-0.900560	-0.835238
C61	C	-0.357379	-0.905531	-0.867957
C62	C	-0.290475	-0.910508	-0.835234
C63	C	-0.290501	-0.910505	-0.769800
C64	C	-0.357435	-0.905525	-0.737088
C65	C	-0.309829	-0.945627	-0.971647
C66	C	-0.309796	-0.945621	-1.037084
C67	C	-0.404809	-0.865434	-1.037032
C68	C	-0.404835	-0.865436	-0.971596
C69	C	-0.357347	-0.905535	-0.938908
C70	C	-0.357490	-0.905432	-0.139415
C71	C	-0.357288	-0.905531	-0.069774
H72	H	-0.810879	-0.828150	-0.379334
N73	N	-0.261407	-0.541450	-0.221299
N74	N	-0.192889	-0.548818	-0.225553
H75	H	-0.158560	-0.525219	-0.196703
H76	H	-0.271272	-0.978264	-0.660102
N77	N	-0.453542	-0.824476	-0.534511
N78	N	-0.500876	-0.846498	-0.498021
H79	H	-0.535164	-0.817580	-0.474398
N80	N	-0.453370	-0.824490	-0.938142
N81	N	-0.453386	-0.824493	-0.879719
H82	H	-0.487663	-0.795571	-0.856091
N83	N	-0.261271	-0.986579	-1.070537
N84	N	-0.261252	-0.986574	-1.128960
H85	H	-0.226981	-1.015501	-1.152588
H86	H	-0.810935	-0.877170	-0.196640
N87	N	-0.261481	-0.986560	-0.534607
N88	N	-0.261502	-0.986550	-0.476184
H89	H	-0.227235	-1.015464	-0.452594
H90	H	-0.346749	-0.465014	-0.199778
N91	N	-0.345480	-0.339526	-0.188125
N92	N	-0.289755	-0.346845	-0.154230
H93	H	-0.285444	-0.323212	-0.113512
N94	N	-0.908990	-0.936979	-0.420059
N95	N	-0.949537	-0.899686	-0.449249
H96	H	-0.968735	-0.911129	-0.492089
N97	N	-0.908757	-0.991797	-0.215986
N98	N	-0.976933	-0.999323	-0.209080
H99	H	-0.995994	-1.030699	-0.177723
N100	N	-0.453764	-0.673740	-0.382961
N101	N	-0.501057	-0.710188	-0.360832
H102	H	-0.535384	-0.733798	-0.389674
N103	N	-0.453728	-0.541468	-0.383023
N104	N	-0.496205	-0.570689	-0.418723
H105	H	-0.530519	-0.547097	-0.447590
N106	N	-0.453624	-0.137832	-0.383177
N107	N	-0.496099	-0.167057	-0.418876
H108	H	-0.530409	-0.143467	-0.447748
H109	H	-0.271291	-0.666929	-0.229547
H110	H	-0.810569	-1.010926	-0.330628
H111	H	-0.236026	-0.914556	-0.743160
H112	H	-0.903738	-0.800008	-0.273849
H113	H	-0.235979	-0.914556	-0.861872
N114	N	-0.369605	-0.472015	-0.416286
N115	N	-0.374914	-0.442851	-0.466689
H116	H	-0.379218	-0.466491	-0.507404
H117	H	-0.271157	-0.978275	-0.945031
H118	H	-0.443470	-0.832786	-1.063651
N119	N	-0.369575	-0.339769	-0.416342
N120	N	-0.425301	-0.347077	-0.450233
H121	H	-0.429599	-0.323532	-0.490970
H122	H	-0.443807	-0.263312	-0.374833
H123	H	-0.271177	-0.144579	-0.229733
H124	H	-0.271208	-0.263290	-0.229686
H125	H	-0.478780	-0.896512	-0.861876
H126	H	-0.478812	-0.896338	-0.743171
H127	H	-0.443637	-0.832782	-0.660014
