data_functionalizedCrystal
_audit_creation_method	'MofGen! by Chris Wilmer'
_symmetry_space_group_name_H-M	'P1'
_symmetry_Int_Tables_number	1
_symmetry_cell_setting	triclinic
loop_
_symmetry_equiv_pos_as_xyz
  x,y,z
_cell_length_a	25.639242
_cell_length_b	29.839132
_cell_length_c	25.639233
_cell_angle_alpha	89.978200
_cell_angle_beta	90.022166
_cell_angle_gamma	89.959210
loop_
_atom_site_label
_atom_site_type_symbol
_atom_site_fract_x
_atom_site_fract_y
_atom_site_fract_z
Zn1	Zn	0.799201	0.178962	0.295731
Zn2	Zn	1.049201	0.428962	0.545731
Zn3	Zn	1.299201	0.678962	0.795731
Zn4	Zn	1.549201	0.928962	1.045731
Zn5	Zn	0.799115	0.254076	0.208291
Zn6	Zn	1.049115	0.504076	0.458291
Zn7	Zn	1.299115	0.754076	0.708291
Zn8	Zn	1.549115	1.004076	0.958291
Zn9	Zn	0.711777	0.178955	0.208295
Zn10	Zn	0.961777	0.428955	0.458295
Zn11	Zn	1.211777	0.678955	0.708295
Zn12	Zn	1.461777	0.928955	0.958295
Zn13	Zn	0.711713	0.254059	0.295681
Zn14	Zn	0.961713	0.504059	0.545681
Zn15	Zn	1.211713	0.754059	0.795681
Zn16	Zn	1.461713	1.004059	1.045681
O17	O	0.755451	0.216513	0.251999
O18	O	1.005451	0.466513	0.501999
O19	O	1.255451	0.716513	0.751999
O20	O	1.505451	0.966513	1.001999
O21	O	0.872355	0.188935	0.284151
O22	O	1.122355	0.438935	0.534151
O23	O	1.372355	0.688935	0.784151
O24	O	1.622355	0.938935	1.034151
O25	O	0.787520	0.244115	0.135126
O26	O	1.037520	0.494115	0.385126
O27	O	1.287520	0.744115	0.635126
O28	O	1.537520	0.994115	0.885126
O29	O	0.723438	0.116089	0.219917
O30	O	0.973438	0.366089	0.469917
O31	O	1.223438	0.616089	0.719917
O32	O	1.473438	0.866089	0.969917
O33	O	0.872291	0.244122	0.219909
O34	O	1.122291	0.494122	0.469909
O35	O	1.372291	0.744122	0.719909
O36	O	1.622291	0.994122	0.969909
O37	O	0.787668	0.116094	0.284156
O38	O	1.037668	0.366094	0.534156
O39	O	1.287668	0.616094	0.784156
O40	O	1.537668	0.866094	1.034156
O41	O	0.723354	0.188924	0.135129
O42	O	0.973354	0.438924	0.385129
O43	O	1.223354	0.688924	0.635129
O44	O	1.473354	0.938924	0.885129
O45	O	0.638604	0.188908	0.219868
O46	O	0.888604	0.438908	0.469868
O47	O	1.138604	0.688908	0.719868
O48	O	1.388604	0.938908	0.969868
O49	O	0.723327	0.244093	0.368853
O50	O	0.973327	0.494093	0.618853
O51	O	1.223327	0.744093	0.868853
O52	O	1.473327	0.994093	1.118853
O53	O	0.638556	0.244087	0.284070
O54	O	0.888556	0.494087	0.534070
O55	O	1.138556	0.744087	0.784070
O56	O	1.388556	0.994087	1.034070
O57	O	0.787605	0.188919	0.368890
O58	O	1.037605	0.438919	0.618890
O59	O	1.287605	0.688919	0.868890
O60	O	1.537605	0.938919	1.118890
O61	O	0.787457	0.316941	0.219860
O62	O	1.037457	0.566941	0.469860
O63	O	1.287457	0.816941	0.719860
O64	O	1.537457	1.066941	0.969860
O65	O	0.723243	0.316929	0.284065
O66	O	0.973243	0.566929	0.534065
O67	O	1.223243	0.816929	0.784065
O68	O	1.473243	1.066929	1.034065
C69	C	0.619609	0.216495	0.251964
C70	C	0.869609	0.466495	0.501964
C71	C	1.119609	0.716495	0.751964
C72	C	1.369609	0.966495	1.001964
C73	C	0.561495	0.216499	0.251961
C74	C	0.811495	0.466499	0.501961
C75	C	1.061495	0.716499	0.751961
C76	C	1.311495	0.966499	1.001961
C77	C	0.201116	0.245293	0.285398
C78	C	0.451116	0.495293	0.535398
C79	C	0.701116	0.745293	0.785398
C80	C	0.951116	0.995293	1.035398
C81	C	0.146511	0.245295	0.285406
C82	C	0.396511	0.495295	0.535406
C83	C	0.646511	0.745295	0.785406
C84	C	0.896511	0.995295	1.035406
O85	O	0.118261	0.269755	0.313805
O86	O	0.368261	0.519755	0.563805
O87	O	0.618261	0.769755	0.813805
O88	O	0.868261	1.019755	1.063805
N89	N	0.119212	0.216525	0.252034
N90	N	0.369212	0.466525	0.502034
N91	N	0.619212	0.716525	0.752034
N92	N	0.869212	0.966525	1.002034
C93	C	0.146520	0.187748	0.218655
C94	C	0.396520	0.437748	0.468655
C95	C	0.646520	0.687748	0.718655
C96	C	0.896520	0.937748	0.968655
O97	O	0.118286	0.163276	0.190270
O98	O	0.368286	0.413276	0.440270
O99	O	0.618286	0.663276	0.690270
O100	O	0.868286	0.913276	0.940270
C101	C	0.201124	0.187743	0.218649
C102	C	0.451124	0.437743	0.468649
C103	C	0.701124	0.687743	0.718649
C104	C	0.951124	0.937743	0.968649
C105	C	0.228420	0.216518	0.252020
C106	C	0.478420	0.466518	0.502020
C107	C	0.728420	0.716518	0.752020
C108	C	0.978420	0.966518	1.002020
C109	C	0.228412	0.274065	0.318766
C110	C	0.478412	0.524065	0.568766
C111	C	0.728412	0.774065	0.818766
C112	C	0.978412	1.024065	1.068766
C113	C	0.283013	0.274063	0.318757
C114	C	0.533013	0.524063	0.568757
C115	C	0.783013	0.774063	0.818757
C116	C	1.033013	1.024063	1.068757
C117	C	0.310317	0.245288	0.285379
C118	C	0.560317	0.495288	0.535379
C119	C	0.810317	0.745288	0.785379
C120	C	1.060317	0.995288	1.035379
C121	C	0.283021	0.216516	0.252011
C122	C	0.533021	0.466516	0.502011
C123	C	0.783021	0.716516	0.752011
C124	C	1.033021	0.966516	1.002011
C125	C	0.228431	0.158963	0.185273
C126	C	0.478431	0.408963	0.435273
C127	C	0.728431	0.658963	0.685273
C128	C	0.978431	0.908963	0.935273
C129	C	0.283038	0.158961	0.185271
C130	C	0.533038	0.408961	0.435271
C131	C	0.783038	0.658961	0.685271
C132	C	1.033038	0.908961	0.935271
C133	C	0.310334	0.187736	0.218642
C134	C	0.560334	0.437736	0.468642
C135	C	0.810334	0.687736	0.718642
C136	C	1.060334	0.937736	0.968642
C137	C	0.364925	0.187739	0.218624
C138	C	0.614925	0.437739	0.468624
C139	C	0.864925	0.687739	0.718624
C140	C	1.114925	0.937739	0.968624
N141	N	0.392224	0.216509	0.251997
N142	N	0.642224	0.466509	0.501997
N143	N	0.892224	0.716509	0.751997
N144	N	1.142224	0.966509	1.001997
C145	C	0.364920	0.245283	0.285374
C146	C	0.614920	0.495283	0.535374
C147	C	0.864920	0.745283	0.785374
C148	C	1.114920	0.995283	1.035374
C149	C	0.031850	0.187759	0.218669
C150	C	0.281850	0.437759	0.468669
C151	C	0.531850	0.687759	0.718669
C152	C	0.781850	0.937759	0.968669
C153	C	-0.022753	0.187766	0.218671
C154	C	0.227247	0.437766	0.468671
C155	C	0.477247	0.687766	0.718671
C156	C	0.727247	0.937766	0.968671
C157	C	-0.022758	0.245313	0.285423
C158	C	0.227242	0.495313	0.535423
C159	C	0.477242	0.745313	0.785423
C160	C	0.727242	0.995313	1.035423
C161	C	0.031846	0.245308	0.285418
C162	C	0.281846	0.495308	0.535418
C163	C	0.531846	0.745308	0.785418
C164	C	0.781846	0.995308	1.035418
C165	C	0.059149	0.216529	0.252041
C166	C	0.309149	0.466529	0.502041
C167	C	0.559149	0.716529	0.752041
C168	C	0.809149	0.966529	1.002041
C169	C	0.479585	0.245277	0.285352
C170	C	0.729585	0.495277	0.535352
C171	C	0.979585	0.745277	0.785352
C172	C	1.229585	0.995277	1.035352
C173	C	0.534191	0.245273	0.285339
C174	C	0.784191	0.495273	0.535339
C175	C	1.034191	0.745273	0.785339
C176	C	1.284191	0.995273	1.035339
C177	C	0.534191	0.187724	0.218589
C178	C	0.784191	0.437724	0.468589
C179	C	1.034191	0.687724	0.718589
C180	C	1.284191	0.937724	0.968589
C181	C	0.479590	0.187729	0.218600
C182	C	0.729590	0.437729	0.468600
C183	C	0.979590	0.687729	0.718600
C184	C	1.229590	0.937729	0.968600
C185	C	0.452289	0.216507	0.251986
C186	C	0.702289	0.466507	0.501986
C187	C	0.952289	0.716507	0.751986
C188	C	1.202289	0.966507	1.001986
O189	O	0.393210	0.163290	0.190242
O190	O	0.643210	0.413290	0.440242
O191	O	0.893210	0.663290	0.690242
O192	O	1.143210	0.913290	0.940242
O193	O	0.393161	0.269746	0.313759
O194	O	0.643161	0.519746	0.563759
O195	O	0.893161	0.769746	0.813759
O196	O	1.143161	1.019746	1.063759
C197	C	0.755348	0.333236	0.251968
C198	C	1.005348	0.583236	0.501968
C199	C	1.255348	0.833236	0.751968
C200	C	1.505348	1.083236	1.001968
C201	C	0.755351	0.383170	0.251972
C202	C	1.005351	0.633170	0.501972
C203	C	1.255351	0.883170	0.751972
C204	C	1.505351	1.133170	1.001972
C205	C	0.788911	0.692807	0.218595
C206	C	1.038911	0.942807	0.468595
C207	C	1.288911	1.192807	0.718595
C208	C	1.538911	1.442807	0.968595
C209	C	0.788961	0.880480	0.218607
C210	C	1.038961	1.130480	0.468607
C211	C	1.288961	1.380480	0.718607
C212	C	1.538961	1.630480	0.968607
O213	O	0.817439	0.904740	0.190220
O214	O	1.067439	1.154740	0.440220
O215	O	1.317439	1.404740	0.690220
O216	O	1.567439	1.654740	0.940220
N217	N	0.755506	0.903955	0.252008
N218	N	1.005506	1.153955	0.502008
N219	N	1.255506	1.403955	0.752008
N220	N	1.505506	1.653955	1.002008
C221	C	0.722039	0.880509	0.285411
C222	C	0.972039	1.130509	0.535411
C223	C	1.222039	1.380509	0.785411
C224	C	1.472039	1.630509	1.035411
O225	O	0.693588	0.904782	0.313824
O226	O	0.943588	1.154782	0.563824
O227	O	1.193588	1.404782	0.813824
O228	O	1.443588	1.654782	1.063824
C229	C	0.721992	0.692837	0.285401
C230	C	0.971992	0.942837	0.535401
C231	C	1.221992	1.192837	0.785401
C232	C	1.471992	1.442837	1.035401
C233	C	0.755445	0.669364	0.251994
C234	C	1.005445	0.919364	0.501994
C235	C	1.255445	1.169364	0.751994
C236	C	1.505445	1.419364	1.001994
C237	C	0.822362	0.669335	0.185192
C238	C	1.072362	0.919335	0.435192
C239	C	1.322362	1.169335	0.685192
C240	C	1.572362	1.419335	0.935192
C241	C	0.822347	0.622419	0.185187
C242	C	1.072347	0.872419	0.435187
C243	C	1.322347	1.122419	0.685187
C244	C	1.572347	1.372419	0.935187
C245	C	0.788882	0.598976	0.218586
C246	C	1.038882	0.848976	0.468586
C247	C	1.288882	1.098976	0.718586
C248	C	1.538882	1.348976	0.968586
C249	C	0.755430	0.622449	0.251990
C250	C	1.005430	0.872449	0.501990
C251	C	1.255430	1.122449	0.751990
C252	C	1.505430	1.372449	1.001990
C253	C	0.688528	0.669391	0.318806
C254	C	0.938528	0.919391	0.568806
C255	C	1.188528	1.169391	0.818806
C256	C	1.438528	1.419391	1.068806
C257	C	0.688520	0.622470	0.318801
C258	C	0.938520	0.872470	0.568801
C259	C	1.188520	1.122470	0.818801
C260	C	1.438520	1.372470	1.068801
C261	C	0.721973	0.598998	0.285395
C262	C	0.971973	0.848998	0.535395
C263	C	1.221973	1.098998	0.785395
C264	C	1.471973	1.348998	1.035395
C265	C	0.721950	0.552090	0.285384
C266	C	0.971950	0.802090	0.535384
C267	C	1.221950	1.052090	0.785384
C268	C	1.471950	1.302090	1.035384
N269	N	0.755405	0.528615	0.251983
N270	N	1.005405	0.778615	0.501983
N271	N	1.255405	1.028615	0.751983
N272	N	1.505405	1.278615	1.001983
C273	C	0.788871	0.552058	0.218584
C274	C	1.038871	0.802058	0.468584
C275	C	1.288871	1.052058	0.718584
C276	C	1.538871	1.302058	0.968584
C277	C	0.722065	0.979039	0.285412
C278	C	0.972065	1.229039	0.535412
C279	C	1.222065	1.479039	0.785412
C280	C	1.472065	1.729039	1.035412
C281	C	0.722076	1.025957	0.285414
C282	C	0.972076	1.275957	0.535414
C283	C	1.222076	1.525957	0.785414
C284	C	1.472076	1.775957	1.035414
C285	C	0.788999	1.025925	0.218612
C286	C	1.038999	1.275925	0.468612
C287	C	1.288999	1.525925	0.718612
C288	C	1.538999	1.775925	0.968612
C289	C	0.788985	0.979007	0.218607
C290	C	1.038985	1.229007	0.468607
C291	C	1.288985	1.479007	0.718607
C292	C	1.538985	1.729007	0.968607
C293	C	0.755520	0.955565	0.252012
C294	C	1.005520	1.205565	0.502012
C295	C	1.255520	1.455565	0.752012
C296	C	1.505520	1.705565	1.002012
C297	C	0.788837	0.453533	0.218577
C298	C	1.038837	0.703533	0.468577
C299	C	1.288837	0.953533	0.718577
C300	C	1.538837	1.203533	0.968577
C301	C	0.788817	0.406613	0.218573
C302	C	1.038817	0.656613	0.468573
C303	C	1.288817	0.906613	0.718573
C304	C	1.538817	1.156613	0.968573
C305	C	0.721896	0.406649	0.285378
C306	C	0.971896	0.656649	0.535378
C307	C	1.221896	0.906649	0.785378
C308	C	1.471896	1.156649	1.035378
C309	C	0.721914	0.453564	0.285379
C310	C	0.971914	0.703564	0.535379
C311	C	1.221914	0.953564	0.785379
C312	C	1.471914	1.203564	1.035379
C313	C	0.755388	0.477005	0.251977
C314	C	1.005388	0.727005	0.501977
C315	C	1.255388	0.977005	0.751977
C316	C	1.505388	1.227005	1.001977
O317	O	0.693491	0.527802	0.313761
O318	O	0.943491	0.777802	0.563761
O319	O	1.193491	1.027802	0.813761
O320	O	1.443491	1.277802	1.063761
O321	O	0.817325	0.527777	0.190183
O322	O	1.067325	0.777777	0.440183
O323	O	1.317325	1.027777	0.690183
O324	O	1.567325	1.277777	0.940183
C325	C	0.788926	0.739723	0.218600
C326	C	1.038926	0.989723	0.468600
C327	C	1.288926	1.239723	0.718600
C328	C	1.538926	1.489723	0.968600
C329	C	0.755475	0.763195	0.252004
C330	C	1.005475	1.013195	0.502004
C331	C	1.255475	1.263195	0.752004
C332	C	1.505475	1.513195	1.002004
C333	C	0.722009	0.739752	0.285402
C334	C	0.972009	0.989752	0.535402
C335	C	1.222009	1.239752	0.785402
C336	C	1.472009	1.489752	1.035402
C337	C	0.755486	0.810113	0.252005
C338	C	1.005486	1.060113	0.502005
C339	C	1.255486	1.310113	0.752005
C340	C	1.505486	1.560113	1.002005
C341	C	0.788952	0.833556	0.218606
C342	C	1.038952	1.083556	0.468606
C343	C	1.288952	1.333556	0.718606
C344	C	1.538952	1.583556	0.968606
C345	C	0.822407	0.810081	0.185206
C346	C	1.072407	1.060081	0.435206
C347	C	1.322407	1.310081	0.685206
C348	C	1.572407	1.560081	0.935206
C349	C	0.822392	0.763166	0.185201
C350	C	1.072392	1.013166	0.435201
C351	C	1.322392	1.263166	0.685201
C352	C	1.572392	1.513166	0.935201
C353	C	0.688554	0.763227	0.318803
C354	C	0.938554	1.013227	0.568803
C355	C	1.188554	1.263227	0.818803
C356	C	1.438554	1.513227	1.068803
C357	C	0.688571	0.810143	0.318805
C358	C	0.938571	1.060143	0.568805
C359	C	1.188571	1.310143	0.818805
C360	C	1.438571	1.560143	1.068805
C361	C	0.722037	0.833586	0.285406
C362	C	0.972037	1.083586	0.535406
C363	C	1.222037	1.333586	0.785406
C364	C	1.472037	1.583586	1.035406
C365	C	0.891824	0.216531	0.252035
C366	C	1.141824	0.466531	0.502035
C367	C	1.391824	0.716531	0.752035
C368	C	1.641824	0.966531	1.002035
C369	C	0.949938	0.216539	0.252051
C370	C	1.199938	0.466539	0.502051
C371	C	1.449938	0.716539	0.752051
C372	C	1.699938	0.966539	1.002051
C373	C	0.755468	0.216505	0.388372
C374	C	1.005468	0.466505	0.638372
C375	C	1.255468	0.716505	0.888372
C376	C	1.505468	0.966505	1.138372
C377	C	0.755475	0.216502	0.446487
C378	C	1.005475	0.466502	0.696487
C379	C	1.255475	0.716502	0.946487
C380	C	1.505475	0.966502	1.196487
C381	C	0.755550	1.099335	0.252031
C382	C	1.005550	1.349335	0.502031
C383	C	1.255550	1.599335	0.752031
C384	C	1.505550	1.849335	1.002031
C385	C	0.755542	1.049400	0.252015
C386	C	1.005542	1.299400	0.502015
C387	C	1.255542	1.549400	0.752015
C388	C	1.505542	1.799400	1.002015
C389	C	0.755465	0.216488	0.116157
C390	C	1.005465	0.466488	0.366157
C391	C	1.255465	0.716488	0.616157
C392	C	1.505465	0.966488	0.866157
C393	C	0.755559	0.216365	0.058043
C394	C	1.005559	0.466365	0.308043
C395	C	1.255559	0.716365	0.558043
C396	C	1.505559	0.966365	0.808043
C397	C	0.788987	0.187687	0.806875
C398	C	1.038987	0.437687	1.056875
C399	C	1.288987	0.687687	1.306875
C400	C	1.538987	0.937687	1.556875
C401	C	0.788994	0.187675	0.861479
C402	C	1.038994	0.437675	1.111479
C403	C	1.288994	0.687675	1.361479
C404	C	1.538994	0.937675	1.611479
O405	O	0.817444	0.163229	0.889737
O406	O	1.067444	0.413229	1.139737
O407	O	1.317444	0.663229	1.389737
O408	O	1.567444	0.913229	1.639737
N409	N	0.755533	0.216396	0.888769
N410	N	1.005533	0.466396	1.138769
N411	N	1.255533	0.716396	1.388769
N412	N	1.505533	0.966396	1.638769
C413	C	0.722060	0.245129	0.861452
C414	C	0.972060	0.495129	1.111452
C415	C	1.222060	0.745129	1.361452
C416	C	1.472060	0.995129	1.611452
O417	O	0.693600	0.269558	0.889679
O418	O	0.943600	0.519558	1.139679
O419	O	1.193600	0.769558	1.389679
O420	O	1.443600	1.019558	1.639679
C421	C	0.722051	0.245139	0.806849
C422	C	0.972051	0.495139	1.056849
C423	C	1.222051	0.745139	1.306849
C424	C	1.472051	0.995139	1.556849
C425	C	0.755518	0.216419	0.779562
C426	C	1.005518	0.466419	1.029562
C427	C	1.255518	0.716419	1.279562
C428	C	1.505518	0.966419	1.529562
C429	C	0.822451	0.158969	0.779587
C430	C	1.072451	0.408969	1.029587
C431	C	1.322451	0.658969	1.279587
C432	C	1.572451	0.908969	1.529587
C433	C	0.822445	0.158982	0.724987
C434	C	1.072445	0.408982	0.974987
C435	C	1.322445	0.658982	1.224987
C436	C	1.572445	0.908982	1.474987
C437	C	0.788975	0.187714	0.697674
C438	C	1.038975	0.437714	0.947674
C439	C	1.288975	0.687714	1.197674
C440	C	1.538975	0.937714	1.447674
C441	C	0.755512	0.216432	0.724961
C442	C	1.005512	0.466432	0.974961
C443	C	1.255512	0.716432	1.224961
C444	C	1.505512	0.966432	1.474961
C445	C	0.688576	0.273869	0.779533
C446	C	0.938576	0.523869	1.029533
C447	C	1.188576	0.773869	1.279533
C448	C	1.438576	1.023869	1.529533
C449	C	0.688570	0.273876	0.724926
C450	C	0.938570	0.523876	0.974926
C451	C	1.188570	0.773876	1.224926
C452	C	1.438570	1.023876	1.474926
C453	C	0.722037	0.245156	0.697639
C454	C	0.972037	0.495156	0.947639
C455	C	1.222037	0.745156	1.197639
C456	C	1.472037	0.995156	1.447639
C457	C	0.722037	0.245176	0.643047
C458	C	0.972037	0.495176	0.893047
C459	C	1.222037	0.745176	1.143047
C460	C	1.472037	0.995176	1.393047
N461	N	0.755497	0.216455	0.615757
N462	N	1.005497	0.466455	0.865757
N463	N	1.255497	0.716455	1.115757
N464	N	1.505497	0.966455	1.365757
C465	C	0.788967	0.187723	0.643070
C466	C	1.038967	0.437723	0.893070
C467	C	1.288967	0.687723	1.143070
C468	C	1.538967	0.937723	1.393070
C469	C	0.722080	0.245106	0.976123
C470	C	0.972080	0.495106	1.226123
C471	C	1.222080	0.745106	1.476123
C472	C	1.472080	0.995106	1.726123
C473	C	0.722091	0.245099	1.030725
C474	C	0.972091	0.495099	1.280725
C475	C	1.222091	0.745099	1.530725
C476	C	1.472091	0.995099	1.780725
C477	C	0.789024	0.187644	1.030748
C478	C	1.039024	0.437644	1.280748
C479	C	1.289024	0.687644	1.530748
C480	C	1.539024	0.937644	1.780748
C481	C	0.789016	0.187653	0.976145
C482	C	1.039016	0.437653	1.226145
C483	C	1.289016	0.687653	1.476145
C484	C	1.539016	0.937653	1.726145
C485	C	0.755541	0.216384	0.948833
C486	C	1.005541	0.466384	1.198833
C487	C	1.255541	0.716384	1.448833
C488	C	1.505541	0.966384	1.698833
C489	C	0.788952	0.187753	0.528405
C490	C	1.038952	0.437753	0.778405
C491	C	1.288952	0.687753	1.028405
C492	C	1.538952	0.937753	1.278405
C493	C	0.788945	0.187770	0.473800
C494	C	1.038945	0.437770	0.723800
C495	C	1.288945	0.687770	0.973800
C496	C	1.538945	0.937770	1.223800
C497	C	0.722010	0.245224	0.473781
C498	C	0.972010	0.495224	0.723781
C499	C	1.222010	0.745224	0.973781
C500	C	1.472010	0.995224	1.223781
C501	C	0.722019	0.245208	0.528382
C502	C	0.972019	0.495208	0.778382
C503	C	1.222019	0.745208	1.028382
C504	C	1.472019	0.995208	1.278382
C505	C	0.755492	0.216470	0.555693
C506	C	1.005492	0.466470	0.805693
C507	C	1.255492	0.716470	1.055693
C508	C	1.505492	0.966470	1.305693
O509	O	0.693599	0.269609	0.614755
O510	O	0.943599	0.519609	0.864755
O511	O	1.193599	0.769609	1.114755
O512	O	1.443599	1.019609	1.364755
O513	O	0.817418	0.163295	0.614837
O514	O	1.067418	0.413295	0.864837
O515	O	1.317418	0.663295	1.114837
O516	O	1.567418	0.913295	1.364837
H517	H	0.305265	0.135522	0.158094
H518	H	0.555265	0.385522	0.408094
H519	H	0.805265	0.635522	0.658094
H520	H	1.055265	0.885522	0.908094
H521	H	0.661325	0.829250	0.346008
H522	H	0.911325	1.079250	0.596008
H523	H	1.161325	1.329250	0.846008
H524	H	1.411325	1.579250	1.096008
H525	H	0.694821	0.268504	0.953889
H526	H	0.944821	0.518504	1.203889
H527	H	1.194821	0.768504	1.453889
H528	H	1.444821	1.018504	1.703889
O529	O	0.821466	0.159687	0.949665
O530	O	1.071466	0.409687	1.199665
O531	O	1.321466	0.659687	1.449665
O532	O	1.571466	0.909687	1.699665
C533	C	0.810093	0.114910	0.963031
C534	C	1.060093	0.364910	1.213031
C535	C	1.310093	0.614910	1.463031
C536	C	1.560093	0.864910	1.713031
H537	H	0.768328	0.112637	0.978030
H538	H	1.018328	0.362637	1.228030
H539	H	1.268328	0.612637	1.478030
H540	H	1.518328	0.862637	1.728030
H541	H	0.814616	0.092717	0.927132
H542	H	1.064616	0.342717	1.177132
H543	H	1.314616	0.592717	1.427132
H544	H	1.564616	0.842717	1.677132
H545	H	0.838139	0.103169	0.994739
H546	H	1.088139	0.353169	1.244739
H547	H	1.338139	0.603169	1.494739
H548	H	1.588139	0.853169	1.744739
H549	H	-0.044973	0.164338	0.191492
H550	H	0.205027	0.414338	0.441492
H551	H	0.455027	0.664338	0.691492
H552	H	0.705027	0.914338	0.941492
H553	H	0.661269	0.603386	0.346005
H554	H	0.911269	0.853386	0.596005
H555	H	1.161269	1.103386	0.846005
H556	H	1.411269	1.353386	1.096005
H557	H	0.457363	0.268709	0.312540
H558	H	0.707363	0.518709	0.562540
H559	H	0.957363	0.768709	0.812540
H560	H	1.207363	1.018709	1.062540
H561	H	0.661324	0.297256	0.801741
H562	H	0.911324	0.547256	1.051741
H563	H	1.161324	0.797256	1.301741
H564	H	1.411324	1.047256	1.551741
O565	O	0.821608	0.159778	1.057264
O566	O	1.071608	0.409778	1.307264
O567	O	1.321608	0.659778	1.557264
O568	O	1.571608	0.909778	1.807264
C569	C	0.873709	0.169592	1.043931
C570	C	1.123709	0.419592	1.293931
C571	C	1.373709	0.669592	1.543931
C572	C	1.623709	0.919592	1.793931
H573	H	0.876318	0.205484	1.028912
H574	H	1.126318	0.455484	1.278912
H575	H	1.376318	0.705484	1.528912
H576	H	1.626318	0.955484	1.778912
H577	H	0.899541	0.165719	1.079852
H578	H	1.149541	0.415719	1.329852
H579	H	1.399541	0.665719	1.579852
H580	H	1.649541	0.915719	1.829852
H581	H	0.887398	0.145511	1.012249
H582	H	1.137398	0.395511	1.262249
H583	H	1.387398	0.645511	1.512249
H584	H	1.637398	0.895511	1.762249
H585	H	0.849654	0.829176	0.158010
H586	H	1.099654	1.079176	0.408010
H587	H	1.349654	1.329176	0.658010
H588	H	1.599654	1.579176	0.908010
H589	H	0.849705	0.135570	0.801820
H590	H	1.099705	0.385570	1.051820
H591	H	1.349705	0.635570	1.301820
H592	H	1.599705	0.885570	1.551820
H593	H	0.305233	0.297494	0.345932
H594	H	0.555233	0.547494	0.595932
H595	H	0.805233	0.797494	0.845932
H596	H	1.055233	1.047494	1.095932
O597	O	0.689318	0.383894	0.317770
O598	O	0.939318	0.633894	0.567770
O599	O	1.189318	0.883894	0.817770
O600	O	1.439318	1.133894	1.067770
C601	C	0.637215	0.395408	0.306308
C602	C	0.887215	0.645408	0.556308
C603	C	1.137215	0.895408	0.806308
C604	C	1.387215	1.145408	1.056308
H605	H	0.634596	0.408323	0.264538
H606	H	0.884596	0.658323	0.514538
H607	H	1.134596	0.908323	0.764538
H608	H	1.384596	1.158323	1.014538
H609	H	0.611378	0.364570	0.310789
H610	H	0.861378	0.614570	0.560789
H611	H	1.111378	0.864570	0.810789
H612	H	1.361378	1.114570	1.060789
H613	H	0.623539	0.422642	0.334330
H614	H	0.873539	0.672642	0.584330
H615	H	1.123539	0.922642	0.834330
H616	H	1.373539	1.172642	1.084330
H617	H	0.816226	0.959898	0.191405
H618	H	1.066226	1.209898	0.441405
H619	H	1.316226	1.459898	0.691405
H620	H	1.566226	1.709898	0.941405
O621	O	0.655991	0.740528	0.351262
O622	O	0.905991	0.990528	0.601262
O623	O	1.155991	1.240528	0.851262
O624	O	1.405991	1.490528	1.101262
C625	C	0.626479	0.771313	0.380749
C626	C	0.876479	1.021313	0.630749
C627	C	1.126479	1.271313	0.880749
C628	C	1.376479	1.521313	1.130749
H629	H	0.624703	0.804767	0.359332
H630	H	0.874703	1.054767	0.609332
H631	H	1.124703	1.304767	0.859332
H632	H	1.374703	1.554767	1.109332
H633	H	0.585274	0.757796	0.386277
H634	H	0.835274	1.007796	0.636277
H635	H	1.085274	1.257796	0.886277
H636	H	1.335274	1.507796	1.136277
H637	H	0.645596	0.776271	0.420481
H638	H	0.895596	1.026271	0.670481
H639	H	1.145596	1.276271	0.920481
H640	H	1.395596	1.526271	1.170481
H641	H	0.054077	0.164324	0.191486
H642	H	0.304077	0.414324	0.441486
H643	H	0.554077	0.664324	0.691486
H644	H	0.804077	0.914324	0.941486
H645	H	0.816199	0.164383	0.451585
H646	H	1.066199	0.414383	0.701585
H647	H	1.316199	0.664383	0.951585
H648	H	1.566199	0.914383	1.201585
H649	H	0.556432	0.164298	0.191412
H650	H	0.806432	0.414298	0.441412
H651	H	1.056432	0.664298	0.691412
H652	H	1.306432	0.914298	0.941412
H653	H	0.661305	0.297268	0.702691
H654	H	0.911305	0.547268	0.952691
H655	H	1.161305	0.797268	1.202691
H656	H	1.411305	1.047268	1.452691
O657	O	0.854889	0.692033	0.152695
O658	O	1.104889	0.942033	0.402695
O659	O	1.354889	1.192033	0.652695
O660	O	1.604889	1.442033	0.902695
C661	C	0.884417	0.661246	0.123226
C662	C	1.134417	0.911246	0.373226
C663	C	1.384417	1.161246	0.623226
C664	C	1.634417	1.411246	0.873226
H665	H	0.862990	0.627821	0.121401
H666	H	1.112990	0.877821	0.371401
H667	H	1.362990	1.127821	0.621401
H668	H	1.612990	1.377821	0.871401
H669	H	0.890023	0.674804	0.082035
H670	H	1.140023	0.924804	0.332035
H671	H	1.390023	1.174804	0.582035
H672	H	1.640023	1.424804	0.832035
H673	H	0.924112	0.656217	0.142413
H674	H	1.174112	0.906217	0.392413
H675	H	1.424112	1.156217	0.642413
H676	H	1.674112	1.406217	0.892413
H677	H	0.694773	0.268599	0.550601
H678	H	0.944773	0.518599	0.800601
H679	H	1.194773	0.768599	1.050601
H680	H	1.444773	1.018599	1.300601
H681	H	0.556413	0.268707	0.312514
H682	H	0.806413	0.518707	0.562514
H683	H	1.056413	0.768707	0.812514
H684	H	1.306413	1.018707	1.062514
O685	O	-0.049229	0.273241	0.317923
O686	O	0.200771	0.523241	0.567923
O687	O	0.450771	0.773241	0.817923
O688	O	0.700771	1.023241	1.067923
C689	C	-0.035864	0.263480	0.370053
C690	C	0.214136	0.513480	0.620053
C691	C	0.464136	0.763480	0.870053
C692	C	0.714136	1.013480	1.120053
H693	H	0.003797	0.246212	0.371171
H694	H	0.253797	0.496212	0.621171
H695	H	0.503797	0.746212	0.871171
H696	H	0.753797	0.996212	1.121171
H697	H	-0.034014	0.295931	0.393430
H698	H	0.215986	0.545931	0.643430
H699	H	0.465986	0.795931	0.893430
H700	H	0.715986	1.045931	1.143430
H701	H	-0.066568	0.240403	0.387714
H702	H	0.183432	0.490403	0.637714
H703	H	0.433432	0.740403	0.887714
H704	H	0.683432	0.990403	1.137714
H705	H	0.849590	0.603311	0.157986
H706	H	1.099590	0.853311	0.407986
H707	H	1.349590	1.103311	0.657986
H708	H	1.599590	1.353311	0.907986
O709	O	0.821523	1.048772	0.186248
O710	O	1.071523	1.298772	0.436248
O711	O	1.321523	1.548772	0.686248
O712	O	1.571523	1.798772	0.936248
C713	C	0.814362	1.095215	0.193424
C714	C	1.064362	1.345215	0.443424
C715	C	1.314362	1.595215	0.693424
C716	C	1.564362	1.845215	0.943424
H717	H	0.797165	1.101607	0.233739
H718	H	1.047165	1.351607	0.483739
H719	H	1.297165	1.601607	0.733739
H720	H	1.547165	1.851607	0.983739
H721	H	0.853544	1.113006	0.189982
H722	H	1.103544	1.363006	0.439982
H723	H	1.353544	1.613006	0.689982
H724	H	1.603544	1.863006	0.939982
H725	H	0.786588	1.108586	0.162357
H726	H	1.036588	1.358586	0.412357
H727	H	1.286588	1.608586	0.662357
H728	H	1.536588	1.858586	0.912357
H729	H	0.694830	1.045065	0.312613
H730	H	0.944830	1.295065	0.562613
H731	H	1.194830	1.545065	0.812613
H732	H	1.444830	1.795065	1.062613
H733	H	0.694845	0.268490	1.052938
H734	H	0.944845	0.518490	1.302938
H735	H	1.194845	0.768490	1.552938
H736	H	1.444845	1.018490	1.802938
H737	H	0.816207	0.164350	0.550635
H738	H	1.066207	0.414350	0.800635
H739	H	1.316207	0.664350	1.050635
H740	H	1.566207	0.914350	1.300635
H741	H	0.694762	0.268617	0.451533
H742	H	0.944762	0.518617	0.701533
H743	H	1.194762	0.768617	0.951533
H744	H	1.444762	1.018617	1.201533
H745	H	0.694675	0.472677	0.312584
H746	H	0.944675	0.722677	0.562584
H747	H	1.194675	0.972677	0.812584
H748	H	1.444675	1.222677	1.062584
H749	H	0.816096	0.472612	0.191378
H750	H	1.066096	0.722612	0.441378
H751	H	1.316096	0.972612	0.691378
H752	H	1.566096	1.222612	0.941378
H753	H	0.206187	0.297497	0.345949
H754	H	0.456187	0.547497	0.595949
H755	H	0.706187	0.797497	0.845949
H756	H	0.956187	1.047497	1.095949
O757	O	0.655980	0.692206	0.351186
O758	O	0.905980	0.942206	0.601186
O759	O	1.155980	1.192206	0.851186
O760	O	1.405980	1.442206	1.101186
C761	C	0.622239	0.719396	0.321398
C762	C	0.872239	0.969396	0.571398
C763	C	1.122239	1.219396	0.821398
C764	C	1.372239	1.469396	1.071398
H765	H	0.619026	0.705281	0.280213
H766	H	0.869026	0.955281	0.530213
H767	H	1.119026	1.205281	0.780213
H768	H	1.369026	1.455281	1.030213
H769	H	0.581993	0.719949	0.340274
H770	H	0.831993	0.969949	0.590274
H771	H	1.081993	1.219949	0.840274
H772	H	1.331993	1.469949	1.090274
H773	H	0.638413	0.754942	0.319621
H774	H	0.888413	1.004942	0.569621
H775	H	1.138413	1.254942	0.819621
H776	H	1.388413	1.504942	1.069621
H777	H	0.849696	0.135594	0.702774
H778	H	1.099696	0.385594	0.952774
H779	H	1.349696	0.635594	1.202774
H780	H	1.599696	0.885594	1.452774
H781	H	0.054067	0.268739	0.312592
H782	H	0.304067	0.518739	0.562592
H783	H	0.554067	0.768739	0.812592
H784	H	0.804067	1.018739	1.062592
O785	O	0.201911	0.131081	0.152784
O786	O	0.451911	0.381081	0.402784
O787	O	0.701911	0.631081	0.652784
O788	O	0.951911	0.881081	0.902784
C789	C	0.170293	0.156622	0.118965
C790	C	0.420293	0.406622	0.368965
C791	C	0.670293	0.656622	0.618965
C792	C	0.920293	0.906622	0.868965
H793	H	0.186713	0.192004	0.115682
H794	H	0.436713	0.442004	0.365682
H795	H	0.686713	0.692004	0.615682
H796	H	0.936713	0.942004	0.865682
H797	H	0.169693	0.140335	0.078756
H798	H	0.419693	0.390335	0.328756
H799	H	0.669693	0.640335	0.578756
H800	H	0.919693	0.890335	0.828756
H801	H	0.128908	0.158179	0.135108
H802	H	0.378908	0.408179	0.385108
H803	H	0.628908	0.658179	0.635108
H804	H	0.878908	0.908179	0.885108
H805	H	0.457365	0.164299	0.191426
H806	H	0.707365	0.414299	0.441426
H807	H	0.957365	0.664299	0.691426
H808	H	1.207365	0.914299	0.941426
H809	H	0.816059	0.387503	0.191368
H810	H	1.066059	0.637503	0.441368
H811	H	1.316059	0.887503	0.691368
H812	H	1.566059	1.137503	0.941368
H813	H	0.694812	0.959956	0.312615
H814	H	0.944812	1.209956	0.562615
H815	H	1.194812	1.459956	0.812615
H816	H	1.444812	1.709956	1.062615
H817	H	0.849633	0.744058	0.157998
H818	H	1.099633	0.994058	0.407998
H819	H	1.349633	1.244058	0.657998
H820	H	1.599633	1.494058	0.907998
