data_functionalizedCrystal
_audit_creation_method	'MofGen! by Chris Wilmer'
_symmetry_space_group_name_H-M	'P1'
_symmetry_Int_Tables_number	1
_symmetry_cell_setting	triclinic
loop_
_symmetry_equiv_pos_as_xyz
  x,y,z
_cell_length_a	16.992694
_cell_length_b	8.597249
_cell_length_c	15.455313
_cell_angle_alpha	100.404067
_cell_angle_beta	87.142206
_cell_angle_gamma	87.973121
loop_
_atom_site_label
_atom_site_type_symbol
_atom_site_fract_x
_atom_site_fract_y
_atom_site_fract_z
O1	O	1.045172	0.328871	-0.047438
O2	O	0.816872	0.325189	-0.047739
O3	O	0.936321	0.097597	-0.064733
O4	O	0.925723	0.556463	-0.030444
O5	O	0.929490	0.110554	0.080497
O6	O	0.810042	0.338147	0.097491
O7	O	1.038341	0.341828	0.097792
Cu8	Cu	0.923567	0.341171	0.110902
Cu9	Cu	0.931646	0.325847	-0.060849
O10	O	0.918892	0.569421	0.114786
C11	C	0.784225	0.326935	0.024519
C12	C	0.697124	0.312813	0.023454
C13	C	0.932148	0.045089	0.003472
C14	C	0.929880	-0.130672	-0.009668
C15	C	0.647442	0.449062	0.033636
C16	C	0.565600	0.435786	0.032655
C17	C	0.533442	0.286258	0.021487
C18	C	0.583130	0.149998	0.011307
C19	C	0.664970	0.163277	0.012294
C20	C	0.289618	0.231223	0.017398
C21	C	0.207772	0.217954	0.016410
C22	C	0.190247	0.503743	0.037760
C23	C	0.272090	0.517008	0.038740
C24	C	0.321770	0.380749	0.028564
N25	N	0.449787	0.272683	0.020482
N26	N	0.405423	0.394326	0.029576
C27	C	1.070988	0.340082	0.025532
C28	C	1.158090	0.354204	0.026591
C29	C	0.923065	0.621928	0.046579
C30	C	0.925333	0.797688	0.059713
N31	N	0.917891	0.351948	0.231702
N32	N	0.937328	0.315057	-0.181650
C33	C	0.968655	0.255299	0.269880
C34	C	0.964370	0.263465	0.361297
C35	C	0.909324	0.368290	0.414536
C36	C	0.858555	0.464943	0.376353
C37	C	0.862837	0.456767	0.284936
C38	C	0.890841	0.403535	0.688750
C39	C	0.886564	0.411706	0.780172
C40	C	0.992379	0.210226	0.765110
C41	C	0.996659	0.202067	0.673693
C42	C	0.945887	0.298714	0.635517
N43	N	0.904944	0.376643	0.507980
N44	N	0.950264	0.290351	0.542074
H45	H	0.673618	0.570824	0.042729
H46	H	1.033714	0.131539	0.796202
C47	C	1.057205	0.086750	0.615135
H48	H	1.086821	0.030347	0.650965
H49	H	1.091763	0.144612	0.584025
H50	H	1.030380	0.014125	0.574296
C51	C	0.344259	0.081347	0.006193
H52	H	0.397607	0.110661	0.008387
H53	H	0.336820	0.015945	-0.049002
H54	H	0.332071	0.024979	0.052294
C55	C	0.922412	-0.103538	0.153533
H56	H	0.919261	-0.172048	0.195299
H57	H	0.877421	-0.032536	0.162059
H58	H	0.968766	-0.045103	0.161128
C59	C	0.932800	-0.229459	-0.103491
H60	H	0.930840	-0.338594	-0.100310
H61	H	0.980346	-0.211650	-0.134489
H62	H	0.889001	-0.199093	-0.133554
H63	H	0.525152	0.546735	0.040946
C64	C	1.029205	0.139989	0.211324
H65	H	1.058819	0.083588	0.247157
H66	H	1.063765	0.197848	0.180214
H67	H	1.002382	0.067362	0.170484
C68	C	0.547762	-0.014483	-0.000979
H69	H	0.589074	-0.093726	-0.006894
H70	H	0.518576	-0.030124	-0.052453
H71	H	0.513826	-0.021082	0.048843
C72	C	1.020218	0.157167	0.403290
H73	H	1.053623	0.093585	0.358491
H74	H	0.990068	0.090914	0.433773
H75	H	1.051433	0.221433	0.443504
C76	C	0.307458	0.681490	0.051038
H77	H	0.266146	0.760737	0.056971
H78	H	0.341396	0.688100	0.001225
H79	H	0.336641	0.697118	0.102520
H80	H	0.841737	0.497073	0.823517
H81	H	0.849501	0.482232	0.657674
C82	C	0.135598	0.653615	0.048963
H83	H	0.082251	0.624298	0.046784
H84	H	0.147783	0.709989	0.002869
H85	H	0.143037	0.719013	0.104164
H86	H	0.813731	0.550287	0.419705
H87	H	0.181592	0.096184	0.007314
H88	H	0.705420	0.052328	0.004002
H89	H	0.821498	0.535467	0.253853
