data_functionalizedCrystal
_audit_creation_method	'MofGen! by Chris Wilmer'
_symmetry_space_group_name_H-M	'P1'
_symmetry_Int_Tables_number	1
_symmetry_cell_setting	triclinic
loop_
_symmetry_equiv_pos_as_xyz
  x,y,z
_cell_length_a	16.109301
_cell_length_b	14.044220
_cell_length_c	15.186229
_cell_angle_alpha	89.995248
_cell_angle_beta	89.999006
_cell_angle_gamma	88.325231
loop_
_atom_site_label
_atom_site_type_symbol
_atom_site_fract_x
_atom_site_fract_y
_atom_site_fract_z
O1	O	1.112195	0.121836	-0.073182
O2	O	0.871261	0.136998	-0.073195
O3	O	0.988112	-0.008567	-0.073180
O4	O	0.995345	0.267400	-0.073197
O5	O	0.988103	-0.008569	0.073277
O6	O	0.871253	0.136995	0.073262
O7	O	1.112186	0.121834	0.073275
Zn8	Zn	0.991718	0.129414	0.096522
Zn9	Zn	0.991730	0.129417	-0.096442
O10	O	0.995336	0.267398	0.073260
C11	C	0.984941	-0.043881	0.000049
C12	C	0.975498	-0.149104	0.000049
C13	C	0.840236	0.136382	0.000032
C14	C	0.747804	0.134541	0.000028
C15	C	0.444784	0.214896	0.000038
C16	C	0.531634	0.216635	0.000033
C17	C	0.538658	0.043928	0.000032
C18	C	0.451810	0.042190	0.000031
C19	C	0.404875	0.127677	0.000038
C20	C	0.578573	0.131154	0.000034
C21	C	0.672739	0.133039	0.000028
C22	C	0.310703	0.125792	0.000042
C23	C	0.958232	-0.341760	0.000036
C24	C	1.025212	-0.399414	0.000037
C25	C	1.015605	-0.506615	0.000029
C26	C	0.967838	-0.234550	0.000043
C27	C	1.143211	0.122449	0.000046
C28	C	1.235644	0.124290	0.000045
C29	C	0.998506	0.302713	0.000029
C30	C	1.007950	0.407935	0.000023
N31	N	0.991716	0.129412	0.228215
N32	N	0.991737	0.129412	-0.228135
C33	C	1.043479	0.064978	0.453944
C34	C	1.043481	0.064975	0.546134
C35	C	0.939969	0.193849	0.546130
C36	C	0.939963	0.193846	0.453942
C37	C	0.991723	0.129411	0.407851
C38	C	0.991731	0.129412	0.592229
C39	C	0.991733	0.129410	0.692185
C40	C	0.991719	0.129412	0.307889
H41	H	0.564124	0.287658	0.000032
H42	H	1.089769	-0.368263	-0.000019
H43	H	0.897813	0.246316	0.416410
H44	H	0.419315	-0.028839	0.000028
H45	H	0.576882	-0.025672	0.000028
O46	O	1.093836	0.002350	0.590771
C47	C	1.196471	-0.125510	0.581040
C48	C	1.139498	-0.054620	0.530380
H49	H	1.233391	-0.171603	0.532236
H50	H	1.241093	-0.084622	0.624171
H51	H	1.157056	-0.172834	0.624230
H52	H	1.178846	-0.007279	0.487142
H53	H	1.094872	-0.095567	0.487305
H54	H	0.893680	-0.372910	0.000030
O55	O	1.093689	0.002436	0.409035
C56	C	1.139433	-0.054818	0.267018
C57	C	1.082569	0.016105	0.317764
H58	H	1.130450	-0.043805	0.193217
H59	H	1.206975	-0.042505	0.285043
H60	H	1.122930	-0.130707	0.285236
H61	H	1.098998	0.092021	0.299573
H62	H	1.015043	0.003709	0.299735
O63	O	0.399317	0.298022	-0.000003
C64	C	0.401521	0.469508	0.000040
C65	C	0.453110	0.375436	0.000070
H66	H	0.444991	0.532121	0.000118
H67	H	0.360707	0.473080	-0.061268
H68	H	0.360662	0.472959	0.061317
H69	H	0.494016	0.371922	-0.061165
H70	H	0.493869	0.371903	0.061418
O71	O	0.889776	0.256408	0.591040
C72	C	0.843878	0.313496	0.733058
C73	C	0.900775	0.242608	0.682310
H74	H	0.852738	0.302350	0.806859
H75	H	0.860343	0.389439	0.714986
H76	H	0.776380	0.301134	0.714889
H77	H	0.968291	0.254883	0.700452
H78	H	0.884240	0.166690	0.700387
