data_functionalizedCrystal
_audit_creation_method	'MofGen! by Chris Wilmer'
_symmetry_space_group_name_H-M	'P1'
_symmetry_Int_Tables_number	1
_symmetry_cell_setting	triclinic
loop_
_symmetry_equiv_pos_as_xyz
  x,y,z
_cell_length_a	12.827885
_cell_length_b	19.805407
_cell_length_c	19.805406
_cell_angle_alpha	89.998223
_cell_angle_beta	89.978849
_cell_angle_gamma	90.028705
loop_
_atom_site_label
_atom_site_type_symbol
_atom_site_fract_x
_atom_site_fract_y
_atom_site_fract_z
Zn1	Zn	-0.591174	-1.034863	-0.269455
Zn2	Zn	-0.091174	-0.534863	0.230545
Zn3	Zn	-0.416461	-1.034818	-0.382658
Zn4	Zn	0.083539	-0.534818	0.117342
Zn5	Zn	-0.416419	-0.921672	-0.269486
Zn6	Zn	0.083581	-0.421672	0.230514
Zn7	Zn	-0.591132	-0.921687	-0.382605
Zn8	Zn	-0.091132	-0.421687	0.117395
O9	O	-0.503797	-0.978260	-0.326051
O10	O	-0.003797	-0.478260	0.173949
O11	O	-0.568033	-1.129573	-0.284481
O12	O	-0.068033	-0.629573	0.215519
O13	O	-0.270219	-1.019784	-0.367680
O14	O	0.229781	-0.519784	0.132320
O15	O	-0.439601	-0.936700	-0.174765
O16	O	0.060399	-0.436700	0.325235
O17	O	-0.439672	-1.129541	-0.367651
O18	O	0.060328	-0.629541	0.132349
O19	O	-0.567993	-1.019860	-0.174743
O20	O	-0.067993	-0.519860	0.325257
O21	O	-0.270189	-0.936656	-0.284533
O22	O	0.229811	-0.436656	0.215467
O23	O	-0.439560	-0.826957	-0.284482
O24	O	0.060440	-0.326957	0.215518
O25	O	-0.737374	-0.936724	-0.367560
O26	O	-0.237374	-0.436724	0.132440
O27	O	-0.567921	-0.826968	-0.367590
O28	O	-0.067921	-0.326968	0.132410
O29	O	-0.737405	-1.019874	-0.284430
O30	O	-0.237405	-0.519874	0.215570
O31	O	-0.439631	-1.019799	-0.477367
O32	O	0.060369	-0.519799	0.022633
O33	O	-0.567962	-0.936681	-0.477328
O34	O	-0.067962	-0.436681	0.022672
C35	C	-0.503732	-0.802404	-0.326034
C36	C	-0.003732	-0.302404	0.173966
C37	C	-0.503729	-0.727172	-0.326043
C38	C	-0.003729	-0.227172	0.173957
C39	C	-0.776367	-0.978306	-0.325986
C40	C	-0.276367	-0.478306	0.174014
C41	C	-0.892520	-0.978326	-0.325958
C42	C	-0.392520	-0.478326	0.174042
C43	C	-0.570560	-0.265404	-0.369399
C44	C	-0.070560	0.234596	0.130601
C45	C	-0.570542	-0.336093	-0.369399
C46	C	-0.070542	0.163907	0.130601
C47	C	-0.503807	-0.371410	-0.326061
C48	C	-0.003807	0.128590	0.173939
C49	C	-0.437079	-0.336036	-0.282725
C50	C	0.062921	0.163964	0.217275
C51	C	-0.437093	-0.265348	-0.282729
C52	C	0.062907	0.234652	0.217271
C53	C	-0.437020	-0.621109	-0.282707
C54	C	0.062980	-0.121109	0.217293
C55	C	-0.437013	-0.691801	-0.282705
C56	C	0.062987	-0.191801	0.217295
C57	C	-0.570469	-0.691853	-0.369377
C58	C	-0.070469	-0.191853	0.130623
C59	C	-0.570483	-0.621166	-0.369381
C60	C	-0.070483	-0.121166	0.130619
C61	C	-0.503751	-0.585798	-0.326048
C62	C	-0.003751	-0.085798	0.173952
C63	C	-0.503771	-0.509149	-0.326050
C64	C	-0.003771	-0.009149	0.173950
C65	C	-0.503792	-0.448057	-0.326055
C66	C	-0.003792	0.051943	0.173945
C67	C	-0.944320	-1.019475	-0.284814
C68	C	-0.444320	-0.519475	0.215186
C69	C	-1.064371	-1.019496	-0.284785
C70	C	-0.564371	-0.519496	0.215215
C71	C	-0.232287	-0.978253	-0.326067
C72	C	0.267713	-0.478253	0.173933
C73	C	-0.116134	-0.978364	-0.325904
C74	C	0.383866	-0.478364	0.174096
C75	C	-0.503819	-0.978255	-0.501907
C76	C	-0.003819	-0.478255	-0.001907
C77	C	-0.503864	-0.978315	-0.577139
C78	C	-0.003864	-0.478315	-0.077139
C79	C	-0.503850	-0.154803	-0.326066
C80	C	-0.003850	0.345197	0.173934
C81	C	-0.503840	-0.230035	-0.326065
C82	C	-0.003840	0.269965	0.173935
C83	C	-0.503797	-0.978283	-0.149508
C84	C	-0.003797	-0.478283	0.350492
C85	C	-0.503797	-0.978293	-0.074276
C86	C	-0.003797	-0.478293	0.425724
C87	C	-0.570675	-0.935041	0.387533
C88	C	-0.070675	-0.435041	0.887533
C89	C	-0.570663	-0.935035	0.316844
C90	C	-0.070663	-0.435035	0.816844
C91	C	-0.503844	-0.978307	0.281486
C92	C	-0.003844	-0.478307	0.781486
C93	C	-0.437025	-1.021583	0.316819
C94	C	0.062975	-0.521583	0.816819
C95	C	-0.437033	-1.021585	0.387506
C96	C	0.062967	-0.521585	0.887506
C97	C	-0.436991	-1.021575	0.031746
C98	C	0.063009	-0.521575	0.531746
C99	C	-0.436990	-1.021571	-0.038947
C100	C	0.063010	-0.521571	0.461053
C101	C	-0.570621	-0.935025	-0.038916
C102	C	-0.070621	-0.435025	0.461084
C103	C	-0.570629	-0.935027	0.031771
C104	C	-0.070629	-0.435027	0.531771
C105	C	-0.503807	-0.978300	0.067098
C106	C	-0.003807	-0.478300	0.567098
C107	C	-0.503819	-0.978305	0.143747
C108	C	-0.003819	-0.478305	0.643747
C109	C	-0.503835	-0.978306	0.204838
C110	C	-0.003835	-0.478306	0.704838
H111	H	-0.624909	-0.236654	-0.404686
H112	H	-0.124909	0.263346	0.095314
H113	H	-0.382584	-1.056811	0.060503
H114	H	0.117416	-0.556811	0.560503
N115	N	-0.365126	-0.227196	-0.235994
N116	N	0.134874	0.272804	0.264006
H117	H	-0.322847	-0.260294	-0.208538
H118	H	0.177153	0.239706	0.291462
H119	H	-0.407740	-0.197882	-0.204705
H120	H	0.092260	0.302118	0.295295
H121	H	-0.624829	-0.592414	-0.404669
H122	H	-0.124829	-0.092414	0.095331
N123	N	-0.642696	-0.888349	0.069903
N124	N	-0.142696	-0.388349	0.569903
H125	H	-0.600214	-0.856979	0.099222
H126	H	-0.100214	-0.356979	0.599222
H127	H	-0.691126	-0.915910	0.099202
H128	H	-0.191126	-0.415910	0.599202
N129	N	-0.642693	-0.888346	-0.077019
N130	N	-0.142693	-0.388346	0.422981
H131	H	-0.632550	-0.894906	-0.127164
H132	H	-0.132550	-0.394906	0.372836
H133	H	-0.626414	-0.840004	-0.064663
H134	H	-0.126414	-0.340004	0.435337
N135	N	-0.951505	-0.931681	-0.372587
N136	N	-0.451505	-0.431681	0.127413
H137	H	-0.932574	-0.942171	-0.420966
H138	H	-0.432574	-0.442171	0.079034
H139	H	-0.932527	-0.883325	-0.362029
H140	H	-0.432527	-0.383325	0.137971
H141	H	-0.625092	-0.899806	0.416317
H142	H	-0.125092	-0.399806	0.916317
N143	N	-0.364981	-1.068267	0.425611
N144	N	0.135019	-0.568267	0.925611
H145	H	-0.375123	-1.061702	0.475756
H146	H	0.124877	-0.561702	0.975756
H147	H	-0.290341	-1.057720	0.413241
H148	H	0.209659	-0.557720	0.913241
N149	N	-0.364940	-1.068248	0.278686
N150	N	0.135060	-0.568248	0.778686
H151	H	-0.375071	-1.061681	0.228545
H152	H	0.124929	-0.561681	0.728545
H153	H	-0.381214	-1.116593	0.291043
H154	H	0.118786	-0.616593	0.791043
H155	H	-0.625058	-0.899790	0.288083
H156	H	-0.125058	-0.399790	0.788083
H157	H	-1.071594	-0.943135	-0.361133
H158	H	-0.571594	-0.443135	0.138867
H159	H	-0.624870	-0.364888	-0.404687
H160	H	-0.124870	0.135112	0.095313
N161	N	-0.365084	-0.582956	-0.235958
N162	N	0.134916	-0.082956	0.264042
H163	H	-0.316591	-0.553604	-0.263420
H164	H	0.183409	-0.053604	0.236580
H165	H	-0.322880	-0.616092	-0.208502
H166	H	0.177120	-0.116092	0.291498
N167	N	-0.642439	-0.730000	-0.416121
N168	N	-0.142439	-0.230000	0.083879
H169	H	-0.632304	-0.780139	-0.409548
H170	H	-0.132304	-0.280139	0.090452
H171	H	-0.626061	-0.717635	-0.464448
H172	H	-0.126061	-0.217635	0.035552
N173	N	-0.885351	-1.066139	-0.238196
N174	N	-0.385351	-0.566139	0.261804
H175	H	-0.807949	-1.059517	-0.244834
H176	H	-0.307949	-0.559517	0.255166
H177	H	-0.904407	-1.114485	-0.248740
H178	H	-0.404407	-0.614485	0.251260
H179	H	-0.382668	-0.720555	-0.247411
H180	H	0.117332	-0.220555	0.252589
N181	N	-0.364917	-1.068246	-0.077086
N182	N	0.135083	-0.568246	0.422914
H183	H	-0.322584	-1.095659	-0.043981
H184	H	0.177416	-0.595659	0.456019
H185	H	-0.316552	-1.040681	-0.106426
H186	H	0.183448	-0.540681	0.393574
H187	H	-0.382738	-0.364797	-0.247441
H188	H	0.117262	0.135203	0.252559
N189	N	-1.123366	-1.066170	-0.238126
N190	N	-0.623366	-0.566170	0.261874
H191	H	-1.200763	-1.059570	-0.244720
H192	H	-0.700763	-0.559570	0.255280
H193	H	-1.104340	-1.055649	-0.189779
H194	H	-0.604340	-0.555649	0.310221
