data_functionalizedCrystal
_audit_creation_method	'MofGen! by Chris Wilmer'
_symmetry_space_group_name_H-M	'P1'
_symmetry_Int_Tables_number	1
_symmetry_cell_setting	triclinic
loop_
_symmetry_equiv_pos_as_xyz
  x,y,z
_cell_length_a	11.026607
_cell_length_b	13.596369
_cell_length_c	11.026607
_cell_angle_alpha	89.996407
_cell_angle_beta	71.413983
_cell_angle_gamma	90.004310
loop_
_atom_site_label
_atom_site_type_symbol
_atom_site_fract_x
_atom_site_fract_y
_atom_site_fract_z
O1	O	1.726735	0.081789	-0.533626
O2	O	1.360155	0.081791	-0.472862
O3	O	1.513063	0.081786	-0.319954
O4	O	1.573827	0.081793	-0.686534
O5	O	1.513042	-0.081797	-0.319940
O6	O	1.360133	-0.081792	-0.472848
O7	O	1.726713	-0.081794	-0.533611
Zn8	Zn	1.543420	-0.107765	-0.503227
Zn9	Zn	1.543449	0.107762	-0.503247
O10	O	1.573805	-0.081790	-0.686520
C11	C	1.312485	-0.000001	-0.461645
C12	C	1.170471	-0.000000	-0.428228
C13	C	1.116821	0.000002	-0.520498
C14	C	0.970043	0.000003	-0.485962
N15	N	1.543410	-0.254857	-0.503215
C16	C	1.543447	-0.656148	-0.503248
C17	C	1.543434	-0.544497	-0.503242
C18	C	1.543429	-0.455506	-0.503233
C19	C	1.543414	-0.343848	-0.503225
C20	C	1.774384	-0.000001	-0.544828
C21	C	1.916398	0.000005	-0.578245
C22	C	1.501843	-0.000004	-0.272287
C23	C	1.468426	-0.000000	-0.130273
N24	N	1.543467	0.254854	-0.503251
C25	C	1.585026	0.000003	-0.734187
C26	C	1.618443	0.000006	-0.876200
C27	C	1.560695	0.000001	-0.076624
C28	C	1.526160	0.000005	0.070155
H29	H	1.179555	-0.000001	-0.625061
H30	H	0.907314	0.000026	-0.381393
C31	C	1.001126	0.000013	-0.719511
H32	H	1.088663	0.000021	-0.724194
H33	H	0.983494	-0.057027	-0.760745
H34	H	0.983505	0.057070	-0.760738
H35	H	1.107738	0.000023	-0.323666
H36	H	1.665258	-0.000006	-0.139357
H37	H	1.421590	0.000011	0.132884
H38	H	1.723013	0.000079	0.061072
H39	H	1.363863	0.000007	-0.067540
