data_functionalizedCrystal
_audit_creation_method	'MofGen! by Chris Wilmer'
_symmetry_space_group_name_H-M	'P1'
_symmetry_Int_Tables_number	1
_symmetry_cell_setting	triclinic
loop_
_symmetry_equiv_pos_as_xyz
  x,y,z
_cell_length_a	19.188964
_cell_length_b	19.288865
_cell_length_c	18.366186
_cell_angle_alpha	90.011479
_cell_angle_beta	89.997799
_cell_angle_gamma	96.852527
loop_
_atom_site_label
_atom_site_type_symbol
_atom_site_fract_x
_atom_site_fract_y
_atom_site_fract_z
O1	O	0.926128	-0.086830	-0.060442
O2	O	0.722819	-0.098479	-0.060470
O3	O	0.830348	0.008474	-0.060441
O4	O	0.818598	-0.193784	-0.060471
O5	O	0.830330	0.008480	0.060659
O6	O	0.722800	-0.098474	0.060629
O7	O	0.926109	-0.086825	0.060657
Zn8	Zn	0.824452	-0.092649	0.079870
Zn9	Zn	0.824476	-0.092656	-0.079683
O10	O	0.818580	-0.193779	0.060628
C11	C	0.696799	-0.098095	0.000076
C12	C	0.619296	-0.096951	0.000066
C13	C	0.829961	0.034353	0.000111
C14	C	0.828826	0.111457	0.000117
C15	C	0.952129	-0.087209	0.000109
C16	C	1.029632	-0.088353	0.000115
C17	C	1.066035	-0.088892	-0.065898
C18	C	1.138860	-0.089949	-0.065906
C19	C	1.175277	-0.090481	0.000103
C20	C	1.138866	-0.089937	0.066124
C21	C	1.066043	-0.088874	0.066130
N22	N	1.284303	-0.131675	0.049222
N23	N	1.353481	-0.132687	0.049211
C24	C	1.394688	-0.093684	0.000088
N25	N	1.364102	-0.053640	-0.049035
N26	N	1.294917	-0.052631	-0.049027
C27	C	1.254241	-0.091634	0.000103
C28	C	1.510057	-0.095368	-0.065938
C29	C	1.582884	-0.096421	-0.065943
C30	C	1.582887	-0.096416	0.066089
C31	C	1.510062	-0.095357	0.066092
C32	C	1.473651	-0.094836	0.000077
C33	C	0.818967	-0.219658	0.000075
C34	C	0.820102	-0.296762	0.000064
N35	N	0.824441	-0.092644	0.188762
C36	C	0.891919	0.156141	0.000130
C37	C	0.890853	0.228588	0.000118
C38	C	0.826690	0.256349	0.000109
C39	C	0.763588	0.211655	0.000092
C40	C	0.764656	0.139209	0.000097
C41	C	0.776244	0.364648	0.042520
C42	C	0.775179	0.437092	0.042520
C43	C	0.823393	0.479795	0.000092
C44	C	0.872685	0.450045	-0.042327
C45	C	0.873753	0.377600	-0.042323
C46	C	0.825525	0.334903	0.000103
C47	C	0.885335	0.603035	0.000090
C48	C	0.884266	0.675483	0.000074
C49	C	0.757000	0.658548	0.000056
C50	C	0.758070	0.586101	0.000065
C51	C	0.822240	0.558349	0.000085
N52	N	0.824493	-0.092655	-0.188574
C53	C	0.872070	-0.045308	0.226875
C54	C	0.872075	-0.045305	0.303103
C55	C	0.824456	-0.092649	0.341214
C56	C	0.776818	-0.139989	0.303092
C57	C	0.776810	-0.139986	0.226865
C58	C	0.815110	-0.155935	0.461964
C59	C	0.815122	-0.155939	0.538189
C60	C	0.824476	-0.092658	0.576322
C61	C	0.833832	-0.029370	0.538220
C62	C	0.833824	-0.029368	0.461994
C63	C	0.824459	-0.092657	0.423869
C64	C	0.872113	-0.045315	0.697090
C65	C	0.872112	-0.045311	0.773319
C66	C	0.776859	-0.140001	0.773307
C67	C	0.776856	-0.139999	0.697079
C68	C	0.824487	-0.092657	0.658975
H69	H	1.036394	-0.088466	-0.119653
H70	H	0.841440	0.022163	0.430974
Cl71	Cl	0.678748	0.529924	0.000053
Cl72	Cl	1.184647	-0.090603	0.149106
H73	H	0.711346	0.234262	0.000083
Cl74	Cl	1.184634	-0.090629	-0.148900
Cl75	Cl	0.931943	0.014210	0.178974
H76	H	0.738045	-0.178537	0.334126
H77	H	0.807481	-0.207470	0.430923
Cl78	Cl	1.020277	-0.088199	0.149124
Cl79	Cl	1.464280	-0.094709	-0.148926
Cl80	Cl	1.628649	-0.097092	-0.148938
Cl81	Cl	1.628663	-0.097073	0.149072
H82	H	0.738085	-0.178547	0.804337
H83	H	1.480422	-0.094920	0.119847
Cl84	Cl	0.931958	0.014208	0.351025
H85	H	0.735039	0.461308	0.077056
H86	H	0.841448	0.022159	0.569266
H87	H	0.910895	-0.006764	0.666065
H88	H	0.944171	0.133551	0.000144
H89	H	0.942232	0.264977	0.000125
H90	H	0.913887	0.353380	-0.076863
H91	H	0.713277	0.102827	0.000087
Cl92	Cl	0.963591	0.731659	0.000085
H93	H	0.704757	0.681149	0.000045
Cl94	Cl	0.933301	0.503720	-0.095671
H95	H	0.910896	-0.006761	0.804352
H96	H	0.738075	-0.178547	0.666045
Cl97	Cl	0.966003	0.568143	0.000121
H98	H	0.807509	-0.207472	0.569206
H99	H	0.736980	0.329884	0.077074
Cl100	Cl	0.716929	-0.199499	0.178948
