data_functionalizedCrystal
_audit_creation_method	'MofGen! by Chris Wilmer'
_symmetry_space_group_name_H-M	'P1'
_symmetry_Int_Tables_number	1
_symmetry_cell_setting	triclinic
loop_
_symmetry_equiv_pos_as_xyz
  x,y,z
_cell_length_a	19.188900
_cell_length_b	17.666332
_cell_length_c	14.519709
_cell_angle_alpha	90.007412
_cell_angle_beta	96.593683
_cell_angle_gamma	89.982262
loop_
_atom_site_label
_atom_site_type_symbol
_atom_site_fract_x
_atom_site_fract_y
_atom_site_fract_z
O1	O	-0.926572	0.063097	0.115005
O2	O	-0.426572	0.563097	0.615005
O3	O	-0.723314	0.063066	0.130533
O4	O	-0.223314	0.563066	0.630533
O5	O	-0.830332	0.063076	-0.011504
O6	O	-0.330332	0.563076	0.488496
O7	O	-0.819554	0.063088	0.257042
O8	O	-0.319554	0.563088	0.757042
O9	O	-0.830313	-0.062821	-0.011511
O10	O	-0.330313	0.437179	0.488489
O11	O	-0.723295	-0.062830	0.130525
O12	O	-0.223295	0.437170	0.630525
O13	O	-0.926554	-0.062800	0.114997
O14	O	-0.426554	0.437200	0.614997
Cu15	Cu	-0.824922	-0.074311	0.122761
Cu16	Cu	-0.324922	0.425689	0.622761
Cu17	Cu	-0.824945	0.074577	0.122770
Cu18	Cu	-0.324945	0.574577	0.622770
O19	O	-0.819535	-0.062809	0.257034
O20	O	-0.319535	0.437191	0.757034
C21	C	-0.697291	0.000114	0.130031
C22	C	-0.197291	0.500114	0.630031
C23	C	-0.619780	0.000102	0.128535
C24	C	-0.119780	0.500102	0.628535
N25	N	-0.824912	-0.179030	0.122754
N26	N	-0.324912	0.320970	0.622754
C27	C	-0.583396	0.068730	0.127821
C28	C	-0.083396	0.568730	0.627821
C29	C	-0.510567	0.068737	0.126406
C30	C	-0.010567	0.568737	0.626406
C31	C	-0.474127	0.000113	0.125686
C32	C	0.025873	0.500113	0.625686
C33	C	-0.510519	-0.068523	0.126405
C34	C	-0.010519	0.431477	0.626405
C35	C	-0.583346	-0.068529	0.127830
C36	C	-0.083346	0.431471	0.627830
N37	N	-0.364904	-0.050961	0.070964
N38	N	0.135096	0.449039	0.570964
N39	N	-0.295722	-0.050951	0.069609
N40	N	0.204278	0.449049	0.569609
C41	C	-0.254704	0.000126	0.121395
C42	C	0.245296	0.500126	0.621395
N43	N	-0.285484	0.051205	0.174576
N44	N	0.214516	0.551205	0.674576
N45	N	-0.354672	0.051197	0.175927
N46	N	0.145328	0.551197	0.675927
C47	C	-0.395159	0.000112	0.124141
C48	C	0.104841	0.500112	0.624141
C49	C	-0.139351	0.068767	0.119147
C50	C	0.360649	0.568767	0.619147
C51	C	-0.066520	0.068771	0.117737
C52	C	0.433480	0.568771	0.617737
C53	C	-0.066475	-0.068491	0.117728
C54	C	0.433525	0.431509	0.617728
C55	C	-0.139303	-0.068494	0.119147
C56	C	0.360697	0.431506	0.619147
C57	C	-0.175737	0.000137	0.119852
C58	C	0.324263	0.500137	0.619852
C59	C	-0.872315	-0.218636	0.059891
C60	C	-0.372315	0.281364	0.559891
C61	C	-0.872319	-0.297883	0.059886
C62	C	-0.372319	0.202117	0.559886
C63	C	-0.824927	-0.337522	0.122761
C64	C	-0.324927	0.162478	0.622761
C65	C	-0.777515	-0.297907	0.185629
C66	C	-0.277515	0.202093	0.685629
C67	C	-0.777507	-0.218661	0.185625
C68	C	-0.277507	0.281339	0.685625
N69	N	-0.816141	-0.461938	0.204400
N70	N	-0.316141	0.038062	0.704400
N71	N	-0.816152	-0.537218	0.204401
N72	N	-0.316152	-0.037218	0.704401
C73	C	-0.824945	-0.576286	0.122774
C74	C	-0.324945	-0.076286	0.622774
N75	N	-0.833740	-0.537230	0.041144
N76	N	-0.333740	-0.037230	0.541144
N77	N	-0.833732	-0.461942	0.041144
N78	N	-0.333732	0.038058	0.541144
C79	C	-0.824929	-0.423451	0.122771
C80	C	-0.324929	0.076549	0.622771
C81	C	-0.872355	-0.701821	0.059900
C82	C	-0.372355	-0.201821	0.559900
C83	C	-0.872355	-0.781070	0.059895
C84	C	-0.372355	-0.281070	0.559895
C85	C	-0.777553	-0.781092	0.185645
C86	C	-0.277553	-0.281092	0.685645
C87	C	-0.777551	-0.701845	0.185643
C88	C	-0.277551	-0.201845	0.685643
C89	C	-0.824955	-0.662214	0.122772
C90	C	-0.324955	-0.162214	0.622772
C91	C	0.047424	0.000148	0.115505
C92	C	0.547424	0.500148	0.615505
C93	C	-0.030085	0.000147	0.117019
C94	C	0.469915	0.500147	0.617019
C95	C	-0.829820	0.000127	-0.045864
C96	C	-0.329820	0.500127	0.454136
C97	C	-0.828315	0.000126	-0.148236
C98	C	-0.328315	0.500126	0.351764
N99	N	-0.824961	0.179296	0.122769
N100	N	-0.324961	0.679296	0.622769
C101	C	-0.822774	0.000145	-0.523096
C102	C	-0.322774	0.500145	-0.023096
C103	C	-0.824313	0.000140	-0.418798
C104	C	-0.324313	0.500140	0.081202
C105	C	-0.825544	0.000135	-0.335669
C106	C	-0.325544	0.500135	0.164331
C107	C	-0.827083	0.000131	-0.231365
C108	C	-0.327083	0.500131	0.268635
C109	C	-0.820047	0.000141	0.291394
C110	C	-0.320047	0.500141	0.791394
C111	C	-0.821552	0.000147	0.393766
C112	C	-0.321552	0.500147	0.893766
H113	H	-0.613056	0.124614	0.128395
H114	H	-0.113056	0.624614	0.628395
N115	N	-0.473289	-0.138614	0.125680
N116	N	0.026711	0.361386	0.625680
N117	N	-0.408266	-0.138600	0.124408
N118	N	0.091734	0.361400	0.624408
H119	H	-0.381970	-0.188104	0.123900
H120	H	0.118030	0.311896	0.623900
H121	H	-0.910953	-0.669552	0.008704
H122	H	-0.410953	-0.169552	0.508704
N123	N	-0.920778	-0.821517	-0.004336
N124	N	-0.420778	-0.321517	0.495664
N125	N	-0.963095	-0.786119	-0.060464
N126	N	-0.463095	-0.286119	0.439536
H127	H	-0.997295	-0.814685	-0.105829
H128	H	-0.497295	-0.314685	0.394171
N129	N	-0.920721	-0.178143	-0.004337
N130	N	-0.420721	0.321857	0.495663
N131	N	-0.920707	-0.107389	-0.004339
N132	N	-0.420707	0.392611	0.495661
H133	H	-0.954891	-0.078788	-0.049702
H134	H	-0.454891	0.421212	0.450298
H135	H	-0.480937	0.124624	0.125825
H136	H	0.019063	0.624624	0.625825
N137	N	-0.729104	-0.338405	0.249842
N138	N	-0.229104	0.161595	0.749842
N139	N	-0.729117	-0.409160	0.249838
N140	N	-0.229117	0.090840	0.749838
H141	H	-0.694924	-0.437762	0.295187
H142	H	-0.194924	0.062238	0.795187
H143	H	-0.612969	-0.124415	0.128413
H144	H	-0.112969	0.375585	0.628413
N145	N	-0.729140	-0.821584	0.249856
N146	N	-0.229140	-0.321584	0.749856
N147	N	-0.729148	-0.892339	0.249848
N148	N	-0.229148	-0.392339	0.749848
H149	H	-0.694953	-0.920941	0.295195
H150	H	-0.194953	-0.420941	0.795195
N151	N	-0.920736	-0.338355	-0.004335
N152	N	-0.420736	0.161645	0.495665
N153	N	-0.919685	-0.329529	-0.089578
N154	N	-0.419685	0.170471	0.410422
H155	H	-0.953879	-0.358112	-0.134934
H156	H	-0.453879	0.141888	0.365066
N157	N	-0.176562	0.138874	0.119867
N158	N	0.323438	0.638874	0.619867
N159	N	-0.144062	0.200146	0.119237
N160	N	0.355938	0.700146	0.619237
H161	H	-0.170340	0.249661	0.119745
H162	H	0.329660	0.749661	0.619745
N163	N	-0.029361	0.138884	0.117021
N164	N	0.470639	0.638884	0.617021
N165	N	-0.061904	0.200151	0.117654
N166	N	0.438096	0.700151	0.617654
H167	H	-0.035660	0.249670	0.117150
H168	H	0.464340	0.749670	0.617150
N169	N	-0.029249	-0.138583	0.117012
N170	N	0.470751	0.361417	0.617012
N171	N	0.035776	-0.138570	0.115752
N172	N	0.535776	0.361430	0.615752
H173	H	0.062071	-0.188074	0.115254
H174	H	0.562071	0.311926	0.615254
H175	H	-0.168928	-0.124377	0.119722
H176	H	0.331072	0.375623	0.619722
N177	N	-0.729077	-0.178212	0.249846
N178	N	-0.229077	0.321788	0.749846
N179	N	-0.686760	-0.213608	0.305975
N180	N	-0.186760	0.286392	0.805975
H181	H	-0.652555	-0.185041	0.351333
H182	H	-0.152555	0.314959	0.851333
N183	N	-0.729124	-0.661396	0.249864
N184	N	-0.229124	-0.161396	0.749864
N185	N	-0.686809	-0.696793	0.305995
N186	N	-0.186809	-0.196793	0.805995
H187	H	-0.652604	-0.668227	0.351353
H188	H	-0.152604	-0.168227	0.851353
