data_functionalizedCrystal
_audit_creation_method	'MofGen! by Chris Wilmer'
_symmetry_space_group_name_H-M	'P1'
_symmetry_Int_Tables_number	1
_symmetry_cell_setting	triclinic
loop_
_symmetry_equiv_pos_as_xyz
  x,y,z
_cell_length_a	23.532407
_cell_length_b	23.532407
_cell_length_c	7.540329
_cell_angle_alpha	89.991770
_cell_angle_beta	90.002386
_cell_angle_gamma	82.848678
loop_
_atom_site_label
_atom_site_type_symbol
_atom_site_fract_x
_atom_site_fract_y
_atom_site_fract_z
O1	O	0.755258	0.069134	-0.147279
O2	O	1.088592	0.402467	0.186054
O3	O	1.421925	0.735801	0.519388
O4	O	0.589395	0.079137	-0.147334
O5	O	0.922728	0.412471	0.186000
O6	O	1.256062	0.745804	0.519333
O7	O	0.677328	-0.008796	-0.147272
O8	O	1.010662	0.324537	0.186061
O9	O	1.343995	0.657871	0.519395
O10	O	0.667325	0.157067	-0.147340
O11	O	1.000658	0.490401	0.185993
O12	O	1.333992	0.823734	0.519326
O13	O	0.677323	-0.008797	0.147693
O14	O	1.010656	0.324536	0.481026
O15	O	1.343990	0.657870	0.814360
O16	O	0.589390	0.079136	0.147632
O17	O	0.922723	0.412470	0.480965
O18	O	1.256056	0.745803	0.814298
O19	O	0.755253	0.069133	0.147686
O20	O	1.088586	0.402466	0.481019
O21	O	1.421920	0.735800	0.814353
Cu22	Cu	0.672321	0.074134	0.174591
Cu23	Cu	1.005654	0.407468	0.507925
Cu24	Cu	1.338988	0.740801	0.841258
Cu25	Cu	0.672327	0.074136	-0.174239
Cu26	Cu	1.005660	0.407469	0.159094
Cu27	Cu	1.338994	0.740802	0.492428
O28	O	0.667320	0.157066	0.147625
O29	O	1.000653	0.490400	0.480958
O30	O	1.333987	0.823733	0.814291
C31	C	0.568176	0.078882	0.000142
C32	C	0.901510	0.412215	0.333476
C33	C	1.234843	0.745549	0.666809
C34	C	0.504959	0.078116	0.000123
C35	C	0.838293	0.411449	0.333456
C36	C	1.171626	0.744783	0.666790
C37	C	0.677071	-0.030013	0.000215
C38	C	1.010404	0.303321	0.333548
C39	C	1.343738	0.636654	0.666882
C40	C	0.676305	-0.093230	0.000228
C41	C	1.009638	0.240104	0.333562
C42	C	1.342972	0.573437	0.666895
C43	C	0.723539	-0.492333	0.000147
C44	C	1.056872	-0.158999	0.333480
C45	C	1.390205	0.174334	0.666813
C46	C	0.722827	-0.551733	0.000133
C47	C	1.056160	-0.218400	0.333466
C48	C	1.389494	0.114934	0.666800
O49	O	0.766613	-0.588478	0.000082
O50	O	1.099946	-0.255144	0.333415
O51	O	1.433280	0.078189	0.666749
N52	N	0.670551	-0.574359	0.000117
N53	N	1.003884	-0.241026	0.333450
N54	N	1.337217	0.092307	0.666784
C55	C	0.618983	-0.537582	0.000097
C56	C	0.952316	-0.204248	0.333430
C57	C	1.285649	0.129085	0.666763
O58	O	0.574452	-0.562281	0.000080
O59	O	0.907785	-0.228948	0.333414
O60	O	1.241119	0.104385	0.666747
C61	C	0.619695	-0.478182	0.000098
C62	C	0.953028	-0.144849	0.333431
C63	C	1.286361	0.188484	0.666764
C64	C	0.671974	-0.455560	0.000132
C65	C	1.005308	-0.122227	0.333465
C66	C	1.338641	0.211107	0.666798
C67	C	0.775814	-0.469710	0.000179
C68	C	1.109147	-0.136376	0.333512
C69	C	1.442481	0.196957	0.666845
C70	C	0.776525	-0.410313	0.000196
C71	C	1.109859	-0.076980	0.333529
C72	C	1.443192	0.256353	0.666862
C73	C	0.724961	-0.373540	0.000181
C74	C	1.058294	-0.040207	0.333514
C75	C	1.391628	0.293126	0.666847
C76	C	0.672685	-0.396164	0.000149
C77	C	1.006019	-0.062830	0.333482
C78	C	1.339352	0.270503	0.666815
C79	C	0.568127	-0.441406	0.000065
C80	C	0.901460	-0.108073	0.333398
C81	C	1.234794	0.225261	0.666731
C82	C	0.568844	-0.382004	0.000064
C83	C	0.902177	-0.048670	0.333398
C84	C	1.235510	0.284663	0.666731
C85	C	0.621123	-0.359381	0.000098
C86	C	0.954457	-0.026048	0.333432
C87	C	1.287790	0.307286	0.666765
C88	C	0.621832	-0.299995	0.000151
C89	C	0.955166	0.033339	0.333484
C90	C	1.288499	0.366672	0.666817
N91	N	0.674109	-0.277368	0.000167
N92	N	1.007442	0.055965	0.333500
N93	N	1.340775	0.389298	0.666833
C94	C	0.725673	-0.314141	0.000182
C95	C	1.059006	0.019192	0.333515
C96	C	1.392340	0.352525	0.666848
C97	C	0.617491	-0.662324	0.000091
C98	C	0.950824	-0.328991	0.333425
C99	C	1.284158	0.004343	0.666758
C100	C	0.616778	-0.721722	0.000103
C101	C	0.950112	-0.388389	0.333437
C102	C	1.283445	-0.055055	0.666770
C103	C	0.720623	-0.735869	0.000136
C104	C	1.053957	-0.402536	0.333469
C105	C	1.387290	-0.069203	0.666803
C106	C	0.721335	-0.676470	0.000137
C107	C	1.054669	-0.343137	0.333470
C108	C	1.388002	-0.009804	0.666804
C109	C	0.669767	-0.639698	0.000107
C110	C	1.003101	-0.306365	0.333441
C111	C	1.336434	0.026969	0.666774
C112	C	0.727163	-0.189405	0.000219
C113	C	1.060496	0.143929	0.333552
C114	C	1.393829	0.477262	0.666886
C115	C	0.727869	-0.130003	0.000243
C116	C	1.061203	0.203331	0.333577
C117	C	1.394536	0.536664	0.666910
C118	C	0.624025	-0.115860	0.000201
C119	C	0.957358	0.217473	0.333534
C120	C	1.290692	0.550806	0.666868
C121	C	0.623318	-0.175257	0.000186
C122	C	0.956651	0.158076	0.333519
C123	C	1.289985	0.491409	0.666853
C124	C	0.674891	-0.212029	0.000189
C125	C	1.008225	0.121305	0.333522
C126	C	1.341558	0.454638	0.666856
O127	O	0.578070	-0.263215	0.000194
O128	O	0.911403	0.070118	0.333528
O129	O	1.244736	0.403451	0.666861
O130	O	0.770196	-0.289433	0.000175
O131	O	1.103529	0.043900	0.333508
O132	O	1.436863	0.377233	0.666841
C133	C	0.105856	0.125350	0.000184
C134	C	0.439190	0.458683	0.333517
C135	C	0.772523	0.792016	0.666851
C136	C	0.046456	0.124638	0.000195
C137	C	0.379789	0.457971	0.333528
C138	C	0.713123	0.791305	0.666862
O139	O	0.009711	0.168424	0.000241
O140	O	0.343045	0.501757	0.333575
O141	O	0.676378	0.835091	0.666908
N142	N	0.023830	0.072362	0.000214
N143	N	0.357163	0.405695	0.333547
N144	N	0.690496	0.739028	0.666880
C145	C	0.060607	0.020794	0.000239
C146	C	0.393941	0.354127	0.333572
C147	C	0.727274	0.687460	0.666906
O148	O	0.035908	-0.023737	0.000258
O149	O	0.369241	0.309596	0.333591
O150	O	0.702574	0.642930	0.666924
C151	C	0.120006	0.021506	0.000241
C152	C	0.453340	0.354839	0.333574
C153	C	0.786673	0.688172	0.666907
C154	C	0.142629	0.073785	0.000204
C155	C	0.475962	0.407119	0.333537
C156	C	0.809296	0.740452	0.666871
C157	C	0.128479	0.177625	0.000149
C158	C	0.461813	0.510958	0.333483
C159	C	0.795146	0.844292	0.666816
C160	C	0.187876	0.178336	0.000135
C161	C	0.521209	0.511670	0.333468
C162	C	0.854542	0.845003	0.666802
C163	C	0.224649	0.126772	0.000155
C164	C	0.557982	0.460105	0.333488
C165	C	0.891315	0.793439	0.666822
C166	C	0.202025	0.074496	0.000190
C167	C	0.535359	0.407830	0.333523
C168	C	0.868692	0.741163	0.666856
C169	C	0.156783	-0.030062	0.000279
C170	C	0.490116	0.303271	0.333612
C171	C	0.823450	0.636605	0.666945
C172	C	0.216185	-0.029345	0.000282
C173	C	0.549519	0.303988	0.333615
C174	C	0.882852	0.637321	0.666948
C175	C	0.238808	0.022934	0.000245
C176	C	0.572141	0.356268	0.333578
C177	C	0.905475	0.689601	0.666912
C178	C	0.298194	0.023643	0.000195
C179	C	0.631528	0.356977	0.333529
C180	C	0.964861	0.690310	0.666862
N181	N	0.320820	0.075920	0.000177
N182	N	0.654154	0.409253	0.333510
N183	N	0.987487	0.742586	0.666843
C184	C	0.284048	0.127484	0.000157
C185	C	0.617381	0.460817	0.333490
C186	C	0.950714	0.794151	0.666823
C187	C	-0.064135	0.019302	0.000239
C188	C	0.269198	0.352635	0.333572
C189	C	0.602532	0.685969	0.666906
C190	C	-0.123533	0.018589	0.000225
C191	C	0.209800	0.351923	0.333558
C192	C	0.543134	0.685256	0.666891
C193	C	-0.137680	0.122434	0.000184
C194	C	0.195653	0.455768	0.333517
C195	C	0.528986	0.789101	0.666851
C196	C	-0.078281	0.123146	0.000186
C197	C	0.255052	0.456480	0.333519
C198	C	0.588385	0.789813	0.666852
C199	C	-0.041509	0.071578	0.000220
C200	C	0.291824	0.404912	0.333554
C201	C	0.625158	0.738245	0.666887
C202	C	0.408784	0.128974	0.000125
C203	C	0.742118	0.462307	0.333458
C204	C	1.075451	0.795640	0.666791
C205	C	0.468186	0.129680	0.000103
C206	C	0.801520	0.463014	0.333436
C207	C	1.134853	0.796347	0.666770
C208	C	0.482329	0.025836	0.000153
C209	C	0.815662	0.359169	0.333486
C210	C	1.148995	0.692503	0.666820
C211	C	0.422932	0.025129	0.000165
C212	C	0.756265	0.358462	0.333499
C213	C	1.089598	0.691796	0.666832
C214	C	0.386160	0.076702	0.000157
C215	C	0.719494	0.410036	0.333491
C216	C	1.052827	0.743369	0.666824
O217	O	0.334974	-0.020119	0.000156
O218	O	0.668307	0.313214	0.333490
O219	O	1.001640	0.646547	0.666823
O220	O	0.308755	0.172007	0.000161
O221	O	0.642089	0.505340	0.333495
O222	O	0.975422	0.838674	0.666828
C223	C	0.776472	0.069388	0.000206
C224	C	1.109805	0.402722	0.333540
C225	C	1.443138	0.736055	0.666873
C226	C	0.839689	0.070154	0.000214
C227	C	1.173022	0.403487	0.333547
C228	C	1.506355	0.736821	0.666881
C229	C	0.667577	0.178283	0.000134
C230	C	1.000910	0.511616	0.333467
C231	C	1.334244	0.844949	0.666800
C232	C	0.668343	0.241500	0.000109
C233	C	1.001676	0.574833	0.333442
C234	C	1.335010	0.908167	0.666775
N235	N	0.672321	0.074133	0.419940
N236	N	1.005654	0.407467	0.753273
N237	N	1.338987	0.740800	1.086607
N238	N	0.672332	0.074132	-0.419587
N239	N	1.005665	0.407466	-0.086254
N240	N	1.338998	0.740799	0.247079
H241	H	0.770443	-0.111587	0.000275
H242	H	1.103777	0.221746	0.333609
H243	H	1.437110	0.555080	0.666942
H244	H	0.582043	-0.085909	0.000195
H245	H	0.915376	0.247424	0.333528
H246	H	1.248709	0.580757	0.666862
H247	H	-0.141947	-0.023982	0.000227
H248	H	0.191387	0.309352	0.333560
H249	H	0.524720	0.642685	0.666893
H250	H	0.769159	-0.219337	0.000214
H251	H	1.102492	0.113996	0.333548
H252	H	1.435826	0.447329	0.666881
H253	H	0.819097	-0.391900	0.000216
H254	H	1.152430	-0.058567	0.333549
H255	H	1.485763	0.274767	0.666883
O256	O	0.492588	0.186069	0.000092
O257	O	0.825921	0.519403	0.333425
O258	O	1.159254	0.852736	0.666759
H259	H	0.457034	0.221804	0.000107
H260	H	0.790368	0.555137	0.333441
H261	H	1.123701	0.888471	0.666774
O262	O	0.369128	0.184597	0.000101
O263	O	0.702461	0.517931	0.333434
O264	O	1.035794	0.851264	0.666767
H265	H	0.394847	0.221063	0.000057
H266	H	0.728180	0.554396	0.333390
H267	H	1.061513	0.887729	0.666724
H268	H	-0.059867	0.165717	0.000166
H269	H	0.273467	0.499050	0.333499
H270	H	0.606800	0.832384	0.666832
O271	O	0.255849	-0.084966	0.000312
O272	O	0.589182	0.248367	0.333645
O273	O	0.922515	0.581701	0.666979
H274	H	0.230134	-0.121435	0.000325
H275	H	0.563467	0.211899	0.333658
H276	H	0.896800	0.545232	0.666991
H277	H	0.404512	-0.017441	0.000169
H278	H	0.737845	0.315892	0.333503
H279	H	1.071178	0.649225	0.666836
H280	H	0.762610	-0.765821	0.000141
H281	H	1.095943	-0.432488	0.333475
H282	H	1.429276	-0.099154	0.666808
O283	O	0.566929	-0.199656	0.000171
O284	O	0.900262	0.133677	0.333504
O285	O	1.233595	0.467011	0.666837
H286	H	0.564115	-0.226386	0.120389
H287	H	0.897448	0.106948	0.453723
H288	H	1.230781	0.440281	0.787056
O289	O	0.521995	-0.029779	0.000200
O290	O	0.855329	0.303554	0.333533
O291	O	1.188662	0.636888	0.666867
H292	H	0.567098	-0.020496	0.000213
H293	H	0.900432	0.312837	0.333546
H294	H	1.233765	0.646170	0.666880
O295	O	0.212273	0.234723	0.000148
O296	O	0.545606	0.568057	0.333482
O297	O	0.878940	0.901390	0.666815
H298	H	0.176716	0.270455	0.000166
H299	H	0.510049	0.603788	0.333499
H300	H	0.843383	0.937121	0.666833
O301	O	0.513220	-0.342345	0.000052
O302	O	0.846553	-0.009012	0.333385
O303	O	1.179887	0.324322	0.666719
H304	H	0.511057	-0.314938	-0.120170
H305	H	0.844390	0.018395	0.213163
H306	H	1.177724	0.351728	0.546496
O307	O	0.831434	-0.509368	0.000220
O308	O	1.164767	-0.176035	0.333553
O309	O	1.498101	0.157298	0.666887
H310	H	0.867898	-0.483648	0.000260
H311	H	1.201232	-0.150314	0.333593
H312	H	1.534565	0.183019	0.666927
O313	O	0.132396	-0.086452	0.000355
O314	O	0.465729	0.246881	0.333689
O315	O	0.799063	0.580214	0.667022
H316	H	0.147194	-0.111221	-0.119835
H317	H	0.480528	0.222112	0.213498
H318	H	0.813861	0.555446	0.546832
O319	O	0.560391	-0.746118	0.000105
O320	O	0.893724	-0.412785	0.333439
O321	O	1.227057	-0.079452	0.666772
H322	H	0.557580	-0.772838	-0.120115
H323	H	0.890914	-0.439504	0.213219
H324	H	1.224247	-0.106171	0.546552
H325	H	-0.167632	0.164421	0.000176
H326	H	0.165701	0.497754	0.333509
H327	H	0.499035	0.831087	0.666843
O328	O	0.777721	-0.652071	0.000140
O329	O	1.111055	-0.318737	0.333474
O330	O	1.444388	0.014596	0.666807
H331	H	0.813454	-0.687626	0.000136
H332	H	1.146788	-0.354292	0.333470
H333	H	1.480121	-0.020959	0.666803
O334	O	0.561868	-0.622662	0.000107
O335	O	0.895202	-0.289329	0.333440
O336	O	1.228535	0.044004	0.666774
H337	H	0.525402	-0.648380	0.000118
H338	H	0.858735	-0.315047	0.333451
H339	H	1.192069	0.018287	0.666785
H340	H	0.525555	-0.459814	0.000026
H341	H	0.858889	-0.126481	0.333360
H342	H	1.192222	0.206852	0.666693
H343	H	0.098544	0.219617	0.000139
H344	H	0.431877	0.552951	0.333473
H345	H	0.765211	0.886284	0.666806
H346	H	-0.034198	-0.022693	0.000252
H347	H	0.299136	0.310640	0.333585
H348	H	0.632469	0.643973	0.666918
