data_functionalizedCrystal
_audit_creation_method	'MofGen! by Chris Wilmer'
_symmetry_space_group_name_H-M	'P1'
_symmetry_Int_Tables_number	1
_symmetry_cell_setting	triclinic
loop_
_symmetry_equiv_pos_as_xyz
  x,y,z
_cell_length_a	10.723023
_cell_length_b	10.723022
_cell_length_c	14.048226
_cell_angle_alpha	89.997857
_cell_angle_beta	89.995098
_cell_angle_gamma	84.467387
loop_
_atom_site_label
_atom_site_type_symbol
_atom_site_fract_x
_atom_site_fract_y
_atom_site_fract_z
O1	O	1.657190	0.175020	-0.079148
O2	O	2.157190	0.675020	0.420852
O3	O	1.294037	0.191774	-0.079152
O4	O	1.794037	0.691774	0.420848
O5	O	1.483991	0.001821	-0.079147
O6	O	1.983991	0.501821	0.420853
O7	O	1.467236	0.364973	-0.079154
O8	O	1.967236	0.864973	0.420846
O9	O	1.483971	0.001820	0.079175
O10	O	1.983971	0.501820	0.579175
O11	O	1.294017	0.191774	0.079169
O12	O	1.794017	0.691774	0.579169
O13	O	1.657170	0.175019	0.079173
O14	O	2.157170	0.675019	0.579173
Zn15	Zn	1.475590	0.183396	0.104308
Zn16	Zn	1.975590	0.683396	0.604308
Zn17	Zn	1.475617	0.183397	-0.104287
Zn18	Zn	1.975617	0.683397	0.395713
O19	O	1.467216	0.364973	0.079168
O20	O	1.967216	0.864973	0.579168
C21	C	1.247528	0.190555	0.000008
C22	C	1.747528	0.690555	0.500008
C23	C	1.108973	0.186908	0.000007
C24	C	1.608973	0.686908	0.500007
C25	C	0.904016	0.181512	-0.082008
C26	C	1.404016	0.681512	0.417992
C27	C	1.047219	0.185282	-0.082009
C28	C	1.547219	0.685282	0.417991
C29	C	1.482762	-0.044679	0.000013
C30	C	1.982762	0.455321	0.500013
C31	C	1.479115	-0.183233	0.000010
C32	C	1.979115	0.316767	0.500010
C33	C	1.369575	-0.231794	0.000007
C34	C	1.869575	0.268206	0.500007
C35	C	1.365804	-0.374997	0.000003
C36	C	1.865804	0.125003	0.500003
C37	C	1.703679	0.176239	0.000011
C38	C	2.203679	0.676239	0.500011
C39	C	1.842234	0.179886	0.000006
C40	C	2.342234	0.679886	0.500006
C41	C	1.468445	0.411473	0.000006
C42	C	1.968445	0.911473	0.500006
C43	C	1.472092	0.550027	0.000003
C44	C	1.972092	1.050027	0.500003
N45	N	1.475581	0.183395	0.246669
N46	N	1.975581	0.683395	0.746669
C47	C	1.551908	0.259777	0.296482
C48	C	2.051908	0.759777	0.796482
C49	C	1.551923	0.259773	0.396140
C50	C	2.051923	0.759773	0.896140
C51	C	1.475603	0.183392	0.445982
C52	C	1.975603	0.683392	0.945982
C53	C	1.399273	0.107001	0.396162
C54	C	1.899273	0.607001	0.896162
C55	C	1.399265	0.107000	0.296506
C56	C	1.899265	0.607000	0.796506
C57	C	1.399291	0.107012	0.603876
C58	C	1.899291	0.607012	1.103876
C59	C	1.399296	0.107014	0.703539
C60	C	1.899296	0.607014	1.203539
C61	C	1.551948	0.259784	0.703510
C62	C	2.051948	0.759784	1.203510
C63	C	1.551941	0.259783	0.603854
C64	C	2.051941	0.759783	1.103854
C65	C	1.475609	0.183394	0.554041
C66	C	1.975609	0.683394	1.054041
N67	N	1.475623	0.183396	0.753352
N68	N	1.975623	0.683396	1.253352
H69	H	0.895357	0.181279	0.070221
H70	H	1.395357	0.681279	0.570221
F71	F	1.250642	-0.147569	0.000012
F72	F	1.750642	0.352431	0.500012
H73	H	0.850894	0.180106	-0.152224
H74	H	1.350894	0.680106	0.347776
H75	H	1.570104	-0.247676	0.000014
H76	H	2.070104	0.252324	0.500014
H77	H	1.272016	-0.416809	-0.000004
H78	H	1.772016	0.083191	0.499996
H79	H	1.100350	0.186688	-0.152224
H80	H	1.600350	0.686688	0.347776
H81	H	1.565884	-0.408170	-0.000030
H82	H	2.065884	0.091830	0.499970
H83	H	1.614049	0.321983	0.255907
H84	H	2.114049	0.821983	0.755907
F85	F	1.633159	0.341071	0.449150
F86	F	2.133159	0.841071	0.949150
H87	H	1.055849	0.185516	0.070226
H88	H	1.555849	0.685516	0.570226
H89	H	1.614082	0.321985	0.563275
H90	H	2.114082	0.821985	1.063275
F91	F	1.633192	0.341080	0.756525
F92	F	2.133192	0.841080	1.256525
F93	F	1.318074	0.025716	0.756584
F94	F	1.818074	0.525716	1.256584
H95	H	1.337135	0.044806	0.563321
H96	H	1.837135	0.544806	1.063321
H97	H	1.337138	0.044805	0.436752
H98	H	1.837138	0.544805	0.936752
F99	F	1.318038	0.025694	0.243492
F100	F	1.818038	0.525694	0.743492
