data_functionalizedCrystal
_audit_creation_method	'MofGen! by Chris Wilmer'
_symmetry_space_group_name_H-M	'P1'
_symmetry_Int_Tables_number	1
_symmetry_cell_setting	triclinic
loop_
_symmetry_equiv_pos_as_xyz
  x,y,z
_cell_length_a	11.792254
_cell_length_b	11.792253
_cell_length_c	14.421503
_cell_angle_alpha	90.003475
_cell_angle_beta	90.007906
_cell_angle_gamma	95.801402
loop_
_atom_site_label
_atom_site_type_symbol
_atom_site_fract_x
_atom_site_fract_y
_atom_site_fract_z
O1	O	1.506888	-0.155626	-0.077123
O2	O	1.756888	0.094374	0.172877
O3	O	2.006888	0.344374	0.422877
O4	O	2.256888	0.594374	0.672877
O5	O	1.176549	-0.171644	-0.077127
O6	O	1.426549	0.078356	0.172873
O7	O	1.676549	0.328356	0.422873
O8	O	1.926549	0.578356	0.672873
O9	O	1.349728	0.001534	-0.077106
O10	O	1.599728	0.251534	0.172894
O11	O	1.849728	0.501534	0.422894
O12	O	2.099728	0.751534	0.672894
O13	O	1.333710	-0.328804	-0.077144
O14	O	1.583710	-0.078804	0.172856
O15	O	1.833710	0.171196	0.422856
O16	O	2.083710	0.421196	0.672856
O17	O	1.349751	0.001521	0.077118
O18	O	1.599751	0.251521	0.327118
O19	O	1.849751	0.501521	0.577118
O20	O	2.099751	0.751521	0.827118
O21	O	1.176573	-0.171657	0.077097
O22	O	1.426573	0.078343	0.327097
O23	O	1.676573	0.328343	0.577097
O24	O	1.926573	0.578343	0.827097
O25	O	1.506912	-0.155639	0.077100
O26	O	1.756912	0.094361	0.327100
O27	O	2.006912	0.344361	0.577100
O28	O	2.256912	0.594361	0.827100
Cu29	Cu	1.341745	-0.163649	0.091180
Cu30	Cu	1.591745	0.086351	0.341180
Cu31	Cu	1.841745	0.336351	0.591180
Cu32	Cu	2.091745	0.586351	0.841180
Cu33	Cu	1.341716	-0.163634	-0.091207
Cu34	Cu	1.591716	0.086366	0.158793
Cu35	Cu	1.841716	0.336366	0.408793
Cu36	Cu	2.091716	0.586366	0.658793
O37	O	1.333733	-0.328817	0.077079
O38	O	1.583733	-0.078817	0.327079
O39	O	1.833733	0.171183	0.577079
O40	O	2.083733	0.421183	0.827079
C41	C	1.134271	-0.170642	-0.000015
C42	C	1.384271	0.079358	0.249985
C43	C	1.634271	0.329358	0.499985
C44	C	1.884271	0.579358	0.749985
C45	C	1.008257	-0.167621	-0.000015
C46	C	1.258257	0.082379	0.249985
C47	C	1.508257	0.332379	0.499985
C48	C	1.758257	0.582379	0.749985
C49	C	1.348730	0.043818	0.000009
C50	C	1.598730	0.293818	0.250009
C51	C	1.848730	0.543818	0.500009
C52	C	2.098730	0.793818	0.750009
C53	C	1.345710	0.169832	0.000018
C54	C	1.595710	0.419832	0.250018
C55	C	1.845710	0.669832	0.500018
C56	C	2.095710	0.919832	0.750018
C57	C	0.905921	-0.165168	-0.000019
C58	C	1.155921	0.084832	0.249981
C59	C	1.405921	0.334832	0.499981
C60	C	1.655921	0.584832	0.749981
C61	C	0.777534	-0.162099	-0.000019
C62	C	1.027534	0.087901	0.249981
C63	C	1.277534	0.337901	0.499981
C64	C	1.527534	0.587901	0.749981
C65	C	1.549190	-0.156642	-0.000013
C66	C	1.799190	0.093358	0.249987
C67	C	2.049190	0.343358	0.499987
C68	C	2.299190	0.593358	0.749987
C69	C	1.675204	-0.159662	-0.000019
C70	C	1.925204	0.090338	0.249981
C71	C	2.175204	0.340338	0.499981
C72	C	2.425204	0.590338	0.749981
C73	C	1.343256	0.272168	0.000022
C74	C	1.593256	0.522168	0.250022
C75	C	1.843256	0.772168	0.500022
C76	C	2.093256	1.022168	0.750022
C77	C	1.340188	0.400555	0.000024
C78	C	1.590188	0.650555	0.250024
C79	C	1.840188	0.900555	0.500024
C80	C	2.090188	1.150555	0.750024
N81	N	1.341772	-0.163660	0.219462
N82	N	1.591772	0.086340	0.469462
N83	N	1.841772	0.336340	0.719462
N84	N	2.091772	0.586340	0.969462
C85	C	1.334731	0.628898	-0.000018
C86	C	1.584731	0.878898	0.249982
C87	C	1.834731	1.128898	0.499982
C88	C	2.084731	1.378898	0.749982
C89	C	1.337751	0.502885	0.000024
C90	C	1.587751	0.752885	0.250024
C91	C	1.837751	1.002885	0.500024
C92	C	2.087751	1.252885	0.750024
C93	C	1.421871	-0.083567	0.469100
C94	C	1.671871	0.166433	0.719100
C95	C	1.921871	0.416433	0.969100
C96	C	2.171871	0.666433	1.219100
C97	C	1.319177	-0.060889	0.530899
C98	C	1.569177	0.189111	0.780899
C99	C	1.819177	0.439111	1.030899
C100	C	2.069177	0.689111	1.280899
C101	C	1.341750	-0.163648	0.408623
C102	C	1.591750	0.086352	0.658623
C103	C	1.841750	0.336352	0.908623
C104	C	2.091750	0.586352	1.158623
C105	C	1.444423	-0.186261	0.530918
C106	C	1.694423	0.063739	0.780918
C107	C	1.944423	0.313739	1.030918
C108	C	2.194423	0.563739	1.280918
C109	C	1.341738	-0.163634	0.591344
C110	C	1.591738	0.086366	0.841344
C111	C	1.841738	0.336366	1.091344
C112	C	2.091738	0.586366	1.341344
C113	C	1.239004	-0.140919	0.469061
C114	C	1.489004	0.109081	0.719061
C115	C	1.739004	0.359081	0.969061
C116	C	1.989004	0.609081	1.219061
C117	C	1.364317	-0.266336	0.469074
C118	C	1.614317	-0.016336	0.719074
C119	C	1.864317	0.233664	0.969074
C120	C	2.114317	0.483664	1.219074
C121	C	1.261549	-0.243701	0.530846
C122	C	1.511549	0.006299	0.780846
C123	C	1.761549	0.256299	1.030846
C124	C	2.011549	0.506299	1.280846
C125	C	1.341759	-0.163653	0.303362
C126	C	1.591759	0.086347	0.553362
C127	C	1.841759	0.336347	0.803362
C128	C	2.091759	0.586347	1.053362
C129	C	1.341717	-0.163630	0.696603
C130	C	1.591717	0.086370	0.946603
C131	C	1.841717	0.336370	1.196603
C132	C	2.091717	0.586370	1.446603
N133	N	1.341713	-0.163626	0.780512
N134	N	1.591713	0.086374	1.030512
N135	N	1.841713	0.336374	1.280512
N136	N	2.091713	0.586374	1.530512
H137	H	1.489554	-0.015806	0.441988
H138	H	1.739554	0.234194	0.691988
H139	H	1.989554	0.484194	0.941988
H140	H	2.239554	0.734194	1.191988
H141	H	1.152149	-0.121687	0.442005
H142	H	1.402149	0.128313	0.692005
H143	H	1.652149	0.378313	0.942005
H144	H	1.902149	0.628313	1.192005
H145	H	1.193714	-0.311420	0.557786
H146	H	1.443714	-0.061420	0.807786
H147	H	1.693714	0.188580	1.057786
H148	H	1.943714	0.438580	1.307786
H149	H	1.383450	-0.353156	0.441898
H150	H	1.633450	-0.103156	0.691898
H151	H	1.883450	0.146844	0.941898
H152	H	2.133450	0.396844	1.191898
H153	H	1.531256	-0.205395	0.558089
H154	H	1.781256	0.044605	0.808089
H155	H	2.031256	0.294605	1.058089
H156	H	2.281256	0.544605	1.308089
H157	H	1.300076	0.025958	0.558056
H158	H	1.550076	0.275958	0.808056
H159	H	1.800076	0.525958	1.058056
H160	H	2.050076	0.775958	1.308056
