data_functionalizedCrystal
_audit_creation_method	'MofGen! by Chris Wilmer'
_symmetry_space_group_name_H-M	'P1'
_symmetry_Int_Tables_number	1
_symmetry_cell_setting	triclinic
loop_
_symmetry_equiv_pos_as_xyz
  x,y,z
_cell_length_a	19.077105
_cell_length_b	18.101395
_cell_length_c	19.076919
_cell_angle_alpha	92.272317
_cell_angle_beta	90.076224
_cell_angle_gamma	87.727498
loop_
_atom_site_label
_atom_site_type_symbol
_atom_site_fract_x
_atom_site_fract_y
_atom_site_fract_z
Zn1	Zn	1.058231	-0.358271	-0.440421
Zn2	Zn	1.062857	-0.477344	-0.322915
Zn3	Zn	0.945450	-0.348351	-0.318214
Zn4	Zn	0.940679	-0.476897	-0.435668
O5	O	1.001804	-0.415216	-0.379305
O6	O	1.157176	-0.378405	-0.428790
O7	O	1.051216	-0.456268	-0.223960
O8	O	0.960470	-0.246037	-0.334447
O9	O	1.160575	-0.465887	-0.342459
O10	O	1.043330	-0.253326	-0.424232
O11	O	0.964957	-0.361497	-0.220507
O12	O	0.846486	-0.361064	-0.329838
O13	O	0.952340	-0.465126	-0.534630
O14	O	0.842981	-0.455506	-0.416131
O15	O	1.038704	-0.377972	-0.538122
O16	O	1.046590	-0.580914	-0.337850
O17	O	0.956826	-0.580586	-0.420689
C18	C	0.819237	-0.407161	-0.371959
C19	C	0.741133	-0.403733	-0.368833
C20	C	0.702636	-0.451363	-0.412222
C21	C	0.629249	-0.448133	-0.409288
C22	C	0.594361	-0.397276	-0.362962
C23	C	0.632863	-0.349642	-0.319571
C24	C	0.706248	-0.352869	-0.322509
C25	C	0.375075	-0.382341	-0.349369
C26	C	0.301684	-0.379119	-0.346433
C27	C	0.298076	-0.477610	-0.436152
C28	C	0.371463	-0.480836	-0.439082
C29	C	0.409959	-0.433198	-0.395694
N30	N	0.519348	-0.393975	-0.359960
N31	N	0.484970	-0.436497	-0.398700
C32	C	1.001711	-0.607621	-0.379280
C33	C	1.001735	-0.689937	-0.379296
C34	C	1.001887	-0.989036	-0.379340
C35	C	0.945531	-0.957547	-0.431600
C36	C	0.945280	-0.871910	-0.431419
C37	C	1.001811	-0.840650	-0.379319
C38	C	0.984741	-0.867911	-0.304458
C39	C	0.984379	-0.953554	-0.304770
C40	C	1.075459	-0.961424	-0.401293
C41	C	1.074956	-0.875820	-0.402900
C42	C	1.001770	-0.756788	-0.379302
C43	C	1.001927	-1.072898	-0.379351
C44	C	1.185084	-0.423303	-0.386679
C45	C	1.263188	-0.426749	-0.389822
C46	C	0.994474	-0.422606	-0.562585
C47	C	0.991350	-0.425755	-0.640688
C48	C	1.001916	-0.222060	-0.379345
C49	C	1.001964	-0.139749	-0.379363
C50	C	1.034846	-0.381860	-0.679200
C51	C	1.031902	-0.384816	-0.752586
C52	C	0.985466	-0.431671	-0.787458
C53	C	0.941966	-0.475568	-0.748941
C54	C	0.944906	-0.472608	-0.675556
C55	C	0.971847	-0.445387	-1.006740
C56	C	0.968911	-0.448346	-1.080130
C57	C	1.058847	-0.357593	-1.083770
C58	C	1.061786	-0.354640	-1.010384
C59	C	1.018283	-0.398533	-0.971872
N60	N	0.982458	-0.434696	-0.862471
N61	N	1.021289	-0.395505	-0.896861
C62	C	1.009146	-0.407803	-0.196739
C63	C	1.012406	-0.404451	-0.118642
H64	H	0.266725	-0.516393	-0.471476
C65	C	0.871533	-0.840344	-0.411456
H66	H	0.871126	-0.787838	-0.411284
H67	H	0.859592	-0.855714	-0.366107
H68	H	0.838383	-0.857998	-0.444672
H69	H	0.891266	-0.976217	-0.416994
H70	H	1.067323	-0.349074	-0.783940
H71	H	0.904154	-0.513715	-0.777340
H72	H	0.406410	-0.343557	-0.314034
C73	C	0.897079	-0.520911	-0.633193
H74	H	0.869011	-0.549250	-0.664472
H75	H	0.867621	-0.490092	-0.603330
H76	H	0.925105	-0.553207	-0.605652
H77	H	1.099601	-0.316487	-0.981996
C78	C	0.959246	-0.989152	-0.506677
H79	H	0.999469	-1.021829	-0.506828
H80	H	0.966991	-0.949806	-0.536888
H81	H	0.919721	-1.015362	-0.522623
H82	H	1.118927	-0.854786	-0.367848
H83	H	1.072661	-0.343708	-0.650813
C84	C	1.037636	-0.981494	-0.250158
H85	H	1.037779	-1.033976	-0.249983
H86	H	1.024865	-0.961447	-0.204987
H87	H	1.083125	-0.966302	-0.261824
C88	C	1.106690	-0.309309	-1.126133
H89	H	1.098286	-0.317776	-1.174832
H90	H	1.154378	-0.321742	-1.116006
H91	H	1.096910	-0.258611	-1.113701
C92	C	1.132135	-0.989004	-0.349930
H93	H	1.176472	-0.972139	-0.363462
H94	H	1.133765	-1.041551	-0.350788
H95	H	1.121133	-0.970326	-0.303847
H96	H	0.930687	-0.970551	-0.286519
H97	H	0.273280	-0.337698	-0.308713
H98	H	0.731037	-0.492778	-0.449944
C99	C	1.092423	-0.852211	-0.477347
H100	H	1.136726	-0.873668	-0.491318
H101	H	1.093970	-0.799832	-0.477576
H102	H	1.057348	-0.868582	-0.509083
C103	C	1.038618	-0.840378	-0.250242
H104	H	1.072080	-0.811941	-0.272834
H105	H	1.061820	-0.881603	-0.229732
H106	H	1.015191	-0.810588	-0.214718
H107	H	0.936434	-0.481139	-0.975393
C108	C	0.917825	-0.499881	-1.118491
H109	H	0.922311	-0.495361	-1.167712
H110	H	0.871101	-0.486471	-1.104567
H111	H	0.928559	-0.549611	-1.106869
C112	C	0.748595	-0.300475	-0.274783
H113	H	0.717307	-0.269728	-0.246768
H114	H	0.776164	-0.270599	-0.302866
H115	H	0.778431	-0.328776	-0.245260
C116	C	0.586907	-0.500569	-0.456973
H117	H	0.618197	-0.531338	-0.484965
H118	H	0.557051	-0.472312	-0.486507
H119	H	0.559360	-0.530432	-0.428850
C120	C	0.594491	-0.293698	-0.268614
H121	H	0.627930	-0.265789	-0.243198
H122	H	0.567070	-0.319478	-0.236802
H123	H	0.564807	-0.261301	-0.294407
C124	C	0.409840	-0.536803	-0.490014
H125	H	0.459060	-0.531916	-0.485536
H126	H	0.395955	-0.527450	-0.536774
H127	H	0.398189	-0.585587	-0.479132
C128	C	0.959216	-0.847208	-0.506282
H129	H	0.965081	-0.889541	-0.537080
H130	H	1.000570	-0.819664	-0.506511
H131	H	0.920575	-0.817190	-0.521450
H132	H	0.931637	-0.843494	-0.285943
C133	C	1.097267	-0.994526	-0.473993
H134	H	1.061702	-1.025499	-0.491639
H135	H	1.140007	-1.022802	-0.470012
H136	H	1.103528	-0.955694	-0.505187
