data_functionalizedCrystal
_audit_creation_method	'MofGen! by Chris Wilmer'
_symmetry_space_group_name_H-M	'P1'
_symmetry_Int_Tables_number	1
_symmetry_cell_setting	triclinic
loop_
_symmetry_equiv_pos_as_xyz
  x,y,z
_cell_length_a	27.440280
_cell_length_b	27.440280
_cell_length_c	19.851628
_cell_angle_alpha	59.998058
_cell_angle_beta	90.005450
_cell_angle_gamma	60.007024
loop_
_atom_site_label
_atom_site_type_symbol
_atom_site_fract_x
_atom_site_fract_y
_atom_site_fract_z
Zr1	Zr	0.469581	0.533349	-0.088379
O2	O	0.391779	0.635015	-0.195959
O3	O	0.493421	0.431683	-0.055391
O4	O	0.493439	0.533337	-0.195929
O5	O	0.391759	0.533371	0.055428
O6	O	0.573642	0.533328	-0.195915
O7	O	0.391761	0.533361	-0.055421
O8	O	0.573610	0.351488	0.055481
O9	O	0.391791	0.715211	-0.195969
O10	O	0.563456	0.473493	-0.041322
O11	O	0.503600	0.473507	0.041392
O12	O	0.503621	0.593191	-0.124073
O13	O	0.443764	0.593205	-0.041358
Zr14	Zr	0.597492	0.533349	0.088434
Zr15	Zr	0.597495	0.533334	-0.088357
Zr16	Zr	0.469577	0.533364	0.088412
Zr17	Zr	0.469600	0.661252	-0.088394
Zr18	Zr	0.597473	0.405446	0.088450
O19	O	0.573651	0.635015	0.055447
O20	O	0.573657	0.634994	-0.195927
O21	O	0.391774	0.635036	0.055415
O22	O	0.675293	0.431683	0.196014
O23	O	0.675299	0.431662	-0.055360
O24	O	0.493416	0.431705	0.195983
O25	O	0.675314	0.533328	-0.055372
O26	O	0.573633	0.533361	0.195984
O27	O	0.493431	0.533371	0.195970
O28	O	0.675311	0.533337	0.055477
O29	O	0.493466	0.715199	-0.195951
O30	O	0.573607	0.351500	0.196006
O31	O	0.675282	0.351488	0.196024
O32	O	0.675285	0.351476	0.055499
O33	O	0.391788	0.715223	-0.055443
O34	O	0.493463	0.715211	-0.055426
O35	O	0.563452	0.473507	0.124128
O36	O	0.623308	0.473493	0.041413
O37	O	0.563473	0.593191	-0.041337
O38	O	0.503617	0.593205	0.041378
C39	C	0.533513	0.373362	0.000047
C40	C	0.533505	0.319064	0.000054
C41	C	0.373535	0.533368	-0.000000
C42	C	0.319232	0.533374	-0.000009
C43	C	0.577719	0.040181	0.061112
C44	C	0.577713	0.091203	0.061115
O45	O	0.615292	0.080026	0.113045
N46	N	0.533531	0.160894	0.000037
C47	C	0.489354	0.179563	-0.061053
O48	O	0.451773	0.243525	-0.113004
C49	C	0.489362	0.128541	-0.061058
C50	C	0.533544	0.058850	0.000028
C51	C	0.621898	-0.029507	0.122193
C52	C	0.621902	-0.080525	0.122190
C53	C	0.577728	-0.061856	0.061107
C54	C	0.533549	0.007832	0.000026
C55	C	0.445189	0.147211	-0.122151
C56	C	0.445201	0.096182	-0.122152
C57	C	0.489383	0.026491	-0.061065
C58	C	0.489379	-0.024517	-0.061061
N59	N	0.533562	-0.094208	0.000017
C60	C	0.577737	-0.112877	0.061101
C61	C	0.489340	0.286708	-0.061036
C62	C	0.489329	0.337729	-0.061028
C63	C	0.577689	0.249365	0.061139
C64	C	0.577697	0.198344	0.061133
C65	C	0.533523	0.217017	0.000041
C66	C	0.577743	-0.220016	0.061091
C67	C	0.577742	-0.271035	0.061085
C68	C	0.489384	-0.182667	-0.061084
C69	C	0.489382	-0.131652	-0.061076
C70	C	0.533567	-0.150332	0.000016
O71	O	0.451821	-0.013392	-0.112966
O72	O	0.615316	-0.176840	0.113037
C73	C	0.013768	0.470857	0.043245
C74	C	-0.037251	0.470853	0.043252
O75	O	-0.037076	0.417715	0.080013
N76	N	-0.094001	0.533333	0.000057
C77	C	-0.099732	0.595822	-0.043142
O78	O	-0.152687	0.648966	-0.079882
C79	C	-0.048714	0.595825	-0.043144
C80	C	0.008036	0.533340	0.000048
C81	C	0.070515	0.408377	0.086434
C82	C	0.121530	0.408381	0.086425
C83	C	0.115798	0.470865	0.043228
C84	C	0.059051	0.533344	0.000039
C85	C	-0.054445	0.658313	-0.086337
C86	C	-0.003421	0.658310	-0.086335
C87	C	0.053328	0.595826	-0.043144
C88	C	0.104333	0.595832	-0.043167
N89	N	0.161083	0.533351	0.000028
C90	C	0.166815	0.470868	0.043226
C91	C	-0.206870	0.595811	-0.043133
C92	C	-0.257887	0.595808	-0.043137
C93	C	-0.195403	0.470839	0.043259
C94	C	-0.144385	0.470842	0.043257
C95	C	-0.150120	0.533330	0.000062
C96	C	0.273948	0.470881	0.043203
C97	C	0.324964	0.470891	0.043188
C98	C	0.262476	0.595860	-0.043204
C99	C	0.211463	0.595850	-0.043192
C100	C	0.217203	0.533356	0.000017
O101	O	0.104204	0.648943	-0.079906
O102	O	0.219772	0.417732	0.079968
C103	C	0.693537	0.533330	0.000055
C104	C	0.747840	0.533324	0.000065
C105	C	0.533541	0.533330	-0.221111
C106	C	0.533543	0.533324	-0.296163
C107	C	0.533560	0.693336	0.000008
C108	C	0.533568	0.747634	0.000002
C109	C	0.566166	0.468075	-0.432411
C110	C	0.509891	0.500703	-0.499877
C111	C	0.533537	0.533342	-0.433595
C112	C	0.589800	0.500709	-0.499863
C113	C	0.533536	0.533354	-0.566344
C114	C	0.477229	0.565971	-0.500073
C115	C	0.557179	0.565967	-0.500048
C116	C	0.500871	0.598643	-0.567528
C117	C	0.533538	0.533333	-0.357120
C118	C	0.533529	0.533368	-0.642821
C119	C	0.533532	0.533368	0.221166
C120	C	0.533530	0.533374	0.296219
C121	C	0.693514	0.373343	0.000075
C122	C	0.747809	0.319039	0.000091
C123	C	0.533508	0.373381	0.221186
C124	C	0.533499	0.319089	0.296245
C125	C	0.693509	0.373362	0.221213
C126	C	0.747803	0.319064	0.296282
C127	C	0.373563	0.693336	-0.221158
C128	C	0.319270	0.747634	-0.296226
C129	C	0.373559	0.693355	-0.000019
C130	C	0.319264	0.747660	-0.000035
C131	C	0.533565	0.693318	-0.221130
C132	C	0.533574	0.747609	-0.296189
C133	C	0.742064	0.293537	-0.043096
C134	C	0.793075	0.242519	-0.043098
C135	C	0.849831	0.217001	0.000093
C136	C	0.855574	0.242508	0.043281
C137	C	0.804564	0.293528	0.043278
C138	C	0.564737	0.293593	0.374688
C139	C	0.564725	0.242587	0.445220
C140	C	0.533479	0.217075	0.437308
C141	C	0.502237	0.242576	0.358857
C142	C	0.502246	0.293584	0.288326
C143	C	0.804549	0.293558	0.288358
C144	C	0.855568	0.242546	0.358886
C145	C	0.849840	0.217038	0.437337
C146	C	0.793087	0.242549	0.445259
C147	C	0.742069	0.293564	0.374732
C148	C	0.262524	0.773147	-0.288303
C149	C	0.211504	0.824175	-0.358831
C150	C	0.217233	0.849685	-0.437282
C151	C	0.273985	0.824171	-0.445203
C152	C	0.325003	0.773147	-0.374676
C153	C	0.325009	0.773167	0.043144
C154	C	0.273998	0.824199	0.043126
C155	C	0.217242	0.849719	-0.000067
C156	C	0.211498	0.824210	-0.043252
C157	C	0.262509	0.773182	-0.043238
C158	C	0.564826	0.773105	-0.288251
C159	C	0.564847	0.824112	-0.358770
C160	C	0.533612	0.849624	-0.437227
C161	C	0.502358	0.824123	-0.445164
C162	C	0.502342	0.773114	-0.374645
H163	H	0.613721	-0.327782	0.110833
F164	F	0.385396	0.745997	-0.383122
F165	F	0.256385	0.746037	-0.089194
F166	F	0.597980	0.215455	0.528706
F167	F	0.385407	0.746017	0.089118
F168	F	0.904144	0.162743	0.512392
H169	H	0.901791	0.221723	0.078446
F170	F	0.483748	0.464656	-0.500761
H171	H	0.590262	0.752341	-0.224373
F172	F	0.533476	0.162786	0.512382
H173	H	0.409229	0.111395	-0.171903
F174	F	0.469072	0.745990	-0.383107
H175	H	0.613722	-0.235235	0.110838
H176	H	0.278686	0.844960	0.078296
F177	F	0.533634	0.903914	-0.512272
F178	F	0.442371	-0.162809	-0.126087
F179	F	0.668929	-0.154693	0.187206
H180	H	0.809225	0.314319	0.224486
H181	H	0.165299	0.844940	-0.352365
H182	H	0.590296	0.844869	-0.352291
F183	F	0.681677	0.320701	0.383177
F184	F	0.256413	0.746004	-0.204817
H185	H	0.476798	0.221796	0.352427
F186	F	0.256386	0.662356	-0.089166
F187	F	0.398162	0.221374	-0.187168
H188	H	-0.211548	0.646699	-0.078312
H189	H	0.165281	0.844996	-0.078419
H190	H	0.901774	0.221780	0.352422
H191	H	0.278642	0.844948	-0.509086
F192	F	0.162929	0.903989	-0.512337
F193	F	0.469113	0.851287	-0.528670
H194	H	0.453363	0.301923	-0.110784
F195	F	0.162957	0.904027	-0.000073
H196	H	-0.190743	0.419961	0.078430
H197	H	0.657873	-0.044720	0.171936
H198	H	0.476810	0.314337	0.224457
H199	H	0.788432	0.221773	0.509143
F200	F	0.624705	0.229504	0.126148
F201	F	0.624722	0.124176	0.126148
H202	H	0.453344	0.394472	-0.110762
H203	H	0.371172	0.420006	0.078362
F204	F	0.442355	-0.057479	-0.126085
F205	F	0.415007	0.602005	-0.499312
H206	H	-0.100645	0.709195	-0.121508
H207	H	0.278631	0.419992	0.078390
H208	H	0.167734	0.357499	0.121593
H209	H	0.075192	0.357492	0.121615
F210	F	-0.318281	0.662313	-0.089118
F211	F	-0.083991	0.404338	0.089228
F212	F	0.602172	0.395944	-0.356801
H213	H	-0.008098	0.709197	-0.121500
H214	H	0.165254	0.646731	-0.078373
H215	H	0.473239	0.653875	-0.625280
F216	F	0.583337	0.601988	-0.499126
H217	H	0.637384	0.473111	-0.500503
H218	H	0.695856	0.314313	-0.078277
H219	H	0.891362	0.175456	0.000090
F220	F	0.786950	0.215380	-0.089064
H221	H	0.809250	0.314285	0.078450
H222	H	0.590181	0.314360	0.381146
