data_functionalizedCrystal
_audit_creation_method	'MofGen! by Chris Wilmer'
_symmetry_space_group_name_H-M	'P1'
_symmetry_Int_Tables_number	1
_symmetry_cell_setting	triclinic
loop_
_symmetry_equiv_pos_as_xyz
  x,y,z
_cell_length_a	12.759401
_cell_length_b	19.805405
_cell_length_c	12.759393
_cell_angle_alpha	89.965008
_cell_angle_beta	89.981425
_cell_angle_gamma	90.027152
loop_
_atom_site_label
_atom_site_type_symbol
_atom_site_fract_x
_atom_site_fract_y
_atom_site_fract_z
Zn1	Zn	1.606167	-0.269415	-0.593960
Zn2	Zn	2.106167	0.230585	-0.093960
Zn3	Zn	1.606025	-0.382620	-0.418270
Zn4	Zn	2.106025	0.117380	0.081730
Zn5	Zn	1.430469	-0.269451	-0.418299
Zn6	Zn	1.930469	0.230549	0.081701
Zn7	Zn	1.430421	-0.382568	-0.593911
Zn8	Zn	1.930421	0.117432	-0.093911
O9	O	1.518271	-0.326014	-0.506110
O10	O	2.018271	0.173986	-0.006110
O11	O	1.753169	-0.284439	-0.570663
O12	O	2.253169	0.215561	-0.070663
O13	O	1.582698	-0.367645	-0.271253
O14	O	2.082698	0.132355	0.228747
O15	O	1.453856	-0.174730	-0.441634
O16	O	1.953856	0.325270	0.058366
O17	O	1.753065	-0.367610	-0.441584
O18	O	2.253065	0.132390	0.058416
O19	O	1.582940	-0.174703	-0.570691
O20	O	2.082940	0.325297	-0.070691
O21	O	1.453718	-0.284500	-0.271274
O22	O	1.953718	0.215500	0.228726
O23	O	1.283442	-0.284450	-0.441586
O24	O	1.783442	0.215550	0.058414
O25	O	1.453773	-0.367522	-0.740939
O26	O	1.953773	0.132478	-0.240939
O27	O	1.283406	-0.367557	-0.570607
O28	O	1.783406	0.132443	-0.070607
O29	O	1.582893	-0.284389	-0.740975
O30	O	2.082893	0.215611	-0.240975
O31	O	1.582651	-0.477330	-0.441536
O32	O	2.082651	0.022670	0.058464
O33	O	1.453635	-0.477292	-0.570579
O34	O	1.953635	0.022708	-0.070579
C35	C	1.245303	-0.326002	-0.506095
C36	C	1.745303	0.173998	-0.006095
C37	C	1.128527	-0.326013	-0.506114
C38	C	1.628527	0.173987	-0.006114
C39	C	1.073720	-0.282784	-0.573429
C40	C	1.573720	0.217216	-0.073429
C41	C	0.963996	-0.282791	-0.573436
C42	C	1.463996	0.217209	-0.073436
C43	C	0.963895	-0.369262	-0.438810
C44	C	1.463895	0.130738	0.061190
C45	C	1.073617	-0.369251	-0.438798
C46	C	1.573617	0.130749	0.061202
C47	C	1.518151	-0.501870	-0.506072
C48	C	2.018151	-0.001870	-0.006072
C49	C	1.518196	-0.577102	-0.506091
C50	C	2.018196	-0.077102	-0.006091
C51	C	1.585370	-0.612374	-0.573344
C52	C	2.085370	-0.112374	-0.073344
C53	C	1.585408	-0.683062	-0.573363
C54	C	2.085408	-0.183062	-0.073363
C55	C	1.518276	-0.718477	-0.506124
C56	C	2.018276	-0.218477	-0.006124
C57	C	1.451094	-0.683200	-0.438868
C58	C	1.951094	-0.183200	0.061132
C59	C	1.451052	-0.612513	-0.438855
C60	C	1.951052	-0.112513	0.061145
C61	C	1.451263	-0.968274	-0.438922
C62	C	1.951263	-0.468274	0.061078
C63	C	1.451313	-1.038966	-0.438938
C64	C	1.951313	-0.538966	0.061062
C65	C	1.585619	-1.038823	-0.573431
C66	C	2.085619	-0.538823	-0.073431
C67	C	1.585577	-0.968136	-0.573417
C68	C	2.085577	-0.468136	-0.073417
C69	C	1.518392	-0.932865	-0.506166
C70	C	2.018392	-0.432865	-0.006166
C71	C	1.518350	-0.856216	-0.506147
C72	C	2.018350	-0.356216	-0.006147
C73	C	1.518322	-0.795124	-0.506137
C74	C	2.018322	-0.295124	-0.006137
C75	C	1.792304	-0.326026	-0.506126
C76	C	2.292304	0.173974	-0.006126
C77	C	1.909080	-0.326031	-0.506132
C78	C	2.409080	0.173969	-0.006132
C79	C	1.518344	-0.325945	-0.780143
C80	C	2.018344	0.174055	-0.280143
C81	C	1.518375	-0.325916	-0.896920
C82	C	2.018375	0.174084	-0.396920
C83	C	1.518419	-0.149471	-0.506171
C84	C	2.018419	0.350529	-0.006171
C85	C	1.518483	-0.074239	-0.506197
C86	C	2.018483	0.425761	-0.006197
C87	C	1.451239	-0.282615	-0.951793
C88	C	1.951239	0.217385	-0.451793
C89	C	1.451264	-0.282594	-1.061517
C90	C	1.951264	0.217406	-0.561517
C91	C	1.585569	-0.369178	-1.061486
C92	C	2.085569	0.130822	-0.561486
C93	C	1.585538	-0.369201	-0.951764
C94	C	2.085538	0.130799	-0.451764
C95	C	1.518258	-0.326033	-0.233143
C96	C	2.018258	0.173967	0.266857
C97	C	1.518430	-0.325872	-0.116367
C98	C	2.018430	0.174128	0.383633
H99	H	1.118424	-0.247575	-0.628238
H100	H	1.618424	0.252425	-0.128238
Cl101	Cl	1.366599	-0.568171	-0.354306
Cl102	Cl	1.866599	-0.068171	0.145694
H103	H	1.118242	-0.404454	-0.383977
H104	H	1.618242	0.095546	0.116023
H105	H	1.396551	-0.247369	-0.907142
H106	H	1.896551	0.252631	-0.407142
H107	H	1.640041	-0.583544	-0.628093
H108	H	2.140041	-0.083544	-0.128093
H109	H	1.396594	-0.247334	-1.106190
H110	H	1.896594	0.252666	-0.606190
H111	H	1.640251	-0.404419	-1.106153
H112	H	2.140251	0.095581	-0.606153
H113	H	1.640211	-0.404465	-0.907085
H114	H	2.140211	0.095535	-0.407085
Cl115	Cl	1.669977	-0.923618	-0.657947
Cl116	Cl	2.169977	-0.423618	-0.157947
Cl117	Cl	0.894858	-0.423617	-0.354193
Cl118	Cl	1.394858	0.076383	0.145807
Cl119	Cl	0.895100	-0.228443	-0.658063
Cl120	Cl	1.395100	0.271557	-0.158063
H121	H	1.640322	-1.067549	-0.628193
H122	H	2.140322	-0.567549	-0.128193
Cl123	Cl	1.366910	-1.083487	-0.354404
Cl124	Cl	1.866910	-0.583487	0.145596
Cl125	Cl	1.669846	-0.727402	-0.657928
Cl126	Cl	2.169846	-0.227402	-0.157928
H127	H	1.396560	-0.939562	-0.384162
H128	H	1.896560	-0.439562	0.115838
H129	H	1.396430	-0.712041	-0.384125
H130	H	1.896430	-0.212041	0.115875
