data_functionalizedCrystal
_audit_creation_method	'MofGen! by Chris Wilmer'
_symmetry_space_group_name_H-M	'P1'
_symmetry_Int_Tables_number	1
_symmetry_cell_setting	triclinic
loop_
_symmetry_equiv_pos_as_xyz
  x,y,z
_cell_length_a	15.944551
_cell_length_b	17.038272
_cell_length_c	15.021413
_cell_angle_alpha	90.004029
_cell_angle_beta	89.997174
_cell_angle_gamma	87.305147
loop_
_atom_site_label
_atom_site_type_symbol
_atom_site_fract_x
_atom_site_fract_y
_atom_site_fract_z
O1	O	1.121728	0.100827	-0.073940
O2	O	0.878066	0.113259	-0.073962
O3	O	0.998449	-0.006773	-0.073944
O4	O	1.001345	0.220859	-0.073958
O5	O	0.998429	-0.006755	0.074120
O6	O	0.878046	0.113277	0.074102
O7	O	1.121708	0.100844	0.074125
Zn8	Zn	0.999874	0.107063	0.097622
Zn9	Zn	0.999900	0.107041	-0.097459
O10	O	1.001326	0.220876	0.074107
C11	C	0.846725	0.112752	0.000067
C12	C	0.753369	0.111205	0.000059
C13	C	0.995805	-0.035893	0.000088
C14	C	0.987945	-0.122688	0.000087
C15	C	0.532936	0.033105	0.000081
C16	C	0.474515	0.069363	-0.072924
C17	C	0.582443	0.108405	0.000070
C18	C	0.474519	0.069398	0.073055
C19	C	0.417337	0.105696	0.000084
C20	C	0.525252	0.144684	-0.072996
C21	C	0.525262	0.144709	0.073049
C22	C	0.466862	0.181022	0.000026
C23	C	0.677557	0.109964	0.000061
C24	C	0.322225	0.104143	0.000087
C25	C	1.060103	-0.172781	0.000094
C26	C	1.052713	-0.254334	0.000085
C27	C	0.973165	-0.285792	0.000075
C28	C	0.901002	-0.235693	0.000065
C29	C	0.908393	-0.154142	0.000068
C30	C	0.947056	-0.531558	0.000061
C31	C	0.939671	-0.613115	0.000060
C32	C	1.091383	-0.631751	0.000079
C33	C	1.098766	-0.550197	0.000087
C34	C	1.026603	-0.500105	0.000072
C35	C	0.965610	-0.369152	0.000069
C36	C	1.034159	-0.416747	0.000073
C37	C	1.153049	0.101352	0.000093
C38	C	1.246405	0.102899	0.000096
C39	C	1.003969	0.249997	0.000073
C40	C	1.011829	0.336792	0.000068
N41	N	0.999863	0.107078	0.230759
N42	N	0.999917	0.107019	-0.230597
C43	C	0.944187	0.162555	0.470434
C44	C	1.021171	0.177734	0.529775
C45	C	0.999883	0.107059	0.412366
C46	C	0.922921	0.091897	0.529768
C47	C	0.999896	0.107041	0.587790
C48	C	1.076908	0.122273	0.470400
C49	C	0.978606	0.036405	0.470388
C50	C	1.055643	0.051554	0.529702
C51	C	0.999875	0.107070	0.311309
C52	C	0.999913	0.107029	0.688846
H53	H	0.561807	-0.029389	-0.000005
C54	C	0.852166	-0.647728	0.000031
C55	C	0.826206	-0.701230	0.076906
C56	C	0.738708	-0.735847	0.076873
C57	C	0.677171	-0.716962	-0.000035
C58	C	0.703130	-0.663457	-0.076916
C59	C	0.790627	-0.628840	-0.076883
H60	H	0.871761	-0.715212	0.133843
H61	H	0.719492	-0.775455	0.133785
H62	H	0.612399	-0.742587	-0.000060
H63	H	0.657575	-0.649475	-0.133853
H64	H	0.809844	-0.589232	-0.133795
C65	C	0.867681	-0.476460	0.000054
C66	C	0.851892	-0.417826	0.076938
C67	C	0.772515	-0.362721	0.076933
C68	C	0.708927	-0.366251	0.000045
C69	C	0.724714	-0.424888	-0.076845
C70	C	0.804091	-0.479992	-0.076840
H71	H	0.898966	-0.415211	0.133861
H72	H	0.760828	-0.319315	0.133852
H73	H	0.650167	-0.325460	0.000041
H74	H	0.677641	-0.427503	-0.133768
H75	H	0.815778	-0.523398	-0.133759
H76	H	0.849634	-0.113356	0.000061
C77	C	0.834989	0.074575	0.564996
C78	C	0.759126	0.130010	0.541603
C79	C	0.671193	0.112695	0.576828
C80	C	0.659123	0.039945	0.635447
C81	C	0.734989	-0.015495	0.658843
C82	C	0.822921	0.001820	0.623618
H83	H	0.768059	0.183868	0.498207
H84	H	0.615033	0.153736	0.559508
H85	H	0.594030	0.027128	0.661522
H86	H	0.726056	-0.069353	0.702238
H87	H	0.879082	-0.039221	0.640938
H88	H	0.547657	0.176539	0.134769
H89	H	0.452150	0.037542	0.134774
C90	C	0.444182	0.026299	-0.156235
C91	C	0.472126	-0.060300	-0.172221
C92	C	0.441751	-0.103385	-0.255496
C93	C	0.383432	-0.059871	-0.322785
C94	C	0.355484	0.026733	-0.306801
C95	C	0.385859	0.069818	-0.223526
H96	H	0.515300	-0.092516	-0.122407
H97	H	0.462440	-0.167495	-0.267328
H98	H	0.360946	-0.091765	-0.384431
H99	H	0.312310	0.058949	-0.356614
H100	H	0.365170	0.133928	-0.211694
H101	H	0.836233	-0.261313	0.000051
H102	H	0.900842	-0.394774	0.000062
H103	H	0.547520	0.176503	-0.134784
C104	C	1.186274	-0.515601	0.000093
C105	C	1.212212	-0.462099	0.076984
C106	C	1.299721	-0.427506	0.076993
C107	C	1.361292	-0.446414	0.000112
C108	C	1.335356	-0.499918	-0.076785
C109	C	1.247847	-0.534511	-0.076794
H110	H	1.166631	-0.448100	0.133901
H111	H	1.318920	-0.387898	0.133917
H112	H	1.426072	-0.420805	0.000119
H113	H	1.380936	-0.513917	-0.133702
H114	H	1.228647	-0.574119	-0.133718
H115	H	1.150134	-0.672544	0.000090
C116	C	0.954251	-0.044276	0.435112
C117	C	1.016095	-0.093399	0.376456
C118	C	0.991729	-0.174080	0.341178
C119	C	0.905519	-0.205638	0.364556
C120	C	0.843669	-0.156515	0.423215
C121	C	0.868035	-0.075834	0.458493
H122	H	1.079918	-0.070038	0.359148
H123	H	1.037515	-0.210444	0.297755
H124	H	0.887482	-0.265363	0.338441
H125	H	0.779847	-0.179876	0.440523
H126	H	0.822250	-0.039470	0.501916
C127	C	0.880631	0.226002	0.435267
C128	C	0.891031	0.312988	0.458733
C129	C	0.827480	0.376436	0.423564
C130	C	0.753531	0.352897	0.364930
C131	C	0.743128	0.265907	0.341461
C132	C	0.806678	0.202459	0.376630
H133	H	0.945776	0.330416	0.502140
H134	H	0.835181	0.440832	0.440938
H135	H	0.706487	0.399865	0.338896
H136	H	0.688383	0.248479	0.298054
H137	H	0.798977	0.138063	0.359257
C138	C	1.119347	-0.011860	0.564649
C139	C	1.109870	-0.098682	0.539802
C140	C	1.173576	-0.162091	0.574753
C141	C	1.246758	-0.138680	0.634552
C142	C	1.256238	-0.051854	0.659403
C143	C	1.192532	0.011556	0.624452
H144	H	1.055693	-0.116016	0.495532
H145	H	1.166558	-0.226366	0.556356
H146	H	1.293917	-0.185619	0.660426
H147	H	1.310415	-0.034519	0.703673
H148	H	1.199550	0.075830	0.642848
C149	C	1.045490	0.258441	0.565023
C150	C	0.984240	0.306903	0.625006
C151	C	1.008547	0.387613	0.660250
C152	C	1.094104	0.419861	0.635513
C153	C	1.155359	0.371398	0.575527
C154	C	1.131053	0.290688	0.540282
H155	H	0.920900	0.283032	0.643321
H156	H	0.963201	0.423489	0.704656
H157	H	1.112097	0.479607	0.661603
H158	H	1.218699	0.395269	0.557212
H159	H	1.176398	0.254812	0.495877
C160	C	0.428086	0.265528	-0.000027
C161	C	0.331996	0.279764	0.000698
C162	C	0.293216	0.364267	0.000642
C163	C	0.350527	0.434534	-0.000139
C164	C	0.446623	0.420300	-0.000865
C165	C	0.485403	0.335797	-0.000809
H166	H	0.289566	0.227746	0.001277
H167	H	0.222079	0.374803	0.001179
H168	H	0.321820	0.497088	-0.000181
H169	H	0.489053	0.472318	-0.001443
H170	H	0.556540	0.325261	-0.001346
C171	C	1.164869	0.139687	0.435328
C172	C	1.181107	0.142948	0.334369
C173	C	1.269065	0.160364	0.299295
C174	C	1.340786	0.174520	0.365180
C175	C	1.324550	0.171259	0.466146
C176	C	1.236592	0.153843	0.501220
H177	H	1.128014	0.132468	0.285590
H178	H	1.281084	0.162778	0.224553
H179	H	1.405898	0.187413	0.339217
H180	H	1.377644	0.181739	0.514924
H181	H	1.224573	0.151429	0.575962
H182	H	1.124879	-0.147175	0.000108
C183	C	1.121660	-0.382145	0.000086
C184	C	1.147579	-0.328637	0.076978
C185	C	1.235080	-0.294026	0.076995
C186	C	1.296662	-0.312924	0.000120
C187	C	1.270745	-0.366435	-0.076777
C188	C	1.183244	-0.401045	-0.076795
H189	H	1.101992	-0.314645	0.133890
H190	H	1.254266	-0.254413	0.133920
H191	H	1.361436	-0.287303	0.000133
H192	H	1.316332	-0.380427	-0.133690
H193	H	1.164058	-0.440658	-0.133720
H194	H	1.111472	-0.295117	0.000093
