data_functionalizedCrystal
_audit_creation_method	'MofGen! by Chris Wilmer'
_symmetry_space_group_name_H-M	'P1'
_symmetry_Int_Tables_number	1
_symmetry_cell_setting	triclinic
loop_
_symmetry_equiv_pos_as_xyz
  x,y,z
_cell_length_a	15.944551
_cell_length_b	11.026607
_cell_length_c	10.065875
_cell_angle_alpha	79.268236
_cell_angle_beta	81.256662
_cell_angle_gamma	83.957623
loop_
_atom_site_label
_atom_site_type_symbol
_atom_site_fract_x
_atom_site_fract_y
_atom_site_fract_z
O1	O	1.147764	-0.138698	-0.113343
O2	O	0.906134	-0.157989	-0.113377
O3	O	1.006922	0.028311	-0.113358
O4	O	1.046975	-0.324998	-0.113362
O5	O	0.987725	-0.007357	0.113627
O6	O	0.886936	-0.193656	0.113609
O7	O	1.128566	-0.174365	0.113642
Zn8	Zn	1.004703	-0.189674	0.149664
Zn9	Zn	1.029997	-0.142680	-0.149399
O10	O	1.027778	-0.360665	0.113623
C11	C	0.865120	-0.175021	0.000112
C12	C	0.771512	-0.172617	0.000099
C13	C	0.989935	0.055689	0.000132
C14	C	0.967908	0.190406	0.000124
N15	N	0.987447	-0.221745	0.353766
C16	C	0.538329	-0.051402	0.000127
C17	C	0.495283	-0.090106	-0.111789
C18	C	0.600128	-0.168275	0.000115
C19	C	0.476383	-0.125299	0.112000
C20	C	0.434578	-0.164073	0.000137
C21	C	0.558324	-0.206997	-0.111894
C22	C	0.539418	-0.242189	0.111996
C23	C	0.496406	-0.280974	0.000053
C24	C	0.695497	-0.170692	0.000101
C25	C	0.339212	-0.161664	0.000141
C26	C	1.169580	-0.157333	0.000151
C27	C	1.263189	-0.159735	0.000154
C28	C	1.044765	-0.388043	0.000130
C29	C	1.066792	-0.522759	0.000129
C30	C	1.028728	0.264206	0.000131
C31	C	1.005964	0.403443	0.000123
N32	N	1.047258	-0.110600	-0.353501
C33	C	1.023986	-0.153831	0.421552
C34	C	1.010713	-0.178523	0.578717
H35	H	0.557011	0.045616	-0.000010
O36	O	0.469330	-0.004942	-0.237112
H37	H	0.485892	0.090294	-0.236881
H38	H	0.898987	0.230306	0.000106
O39	O	0.605308	-0.252689	-0.237369
H40	H	0.588213	-0.347638	-0.237671
H41	H	0.440819	-0.090712	0.206613
H42	H	0.477930	-0.378061	-0.000011
O43	O	1.101711	-0.009355	0.569265
H44	H	1.126452	0.036642	0.642829
H45	H	0.559014	-0.306450	0.206617
O46	O	0.933006	-0.322992	0.431017
H47	H	0.960494	-0.413249	0.403657
H48	H	0.937038	0.443338	0.000104
H49	H	1.097649	0.224306	0.000149
H50	H	1.135728	0.437366	0.000036
H51	H	1.065092	-0.077403	0.363235
O52	O	0.956259	-0.279770	0.655942
H53	H	0.954385	-0.283284	0.767266
