data_functionalizedCrystal
_audit_creation_method	'MofGen! by Chris Wilmer'
_symmetry_space_group_name_H-M	'P1'
_symmetry_Int_Tables_number	1
_symmetry_cell_setting	triclinic
loop_
_symmetry_equiv_pos_as_xyz
  x,y,z
_cell_length_a	12.827893
_cell_length_b	16.959454
_cell_length_c	16.959455
_cell_angle_alpha	90.010582
_cell_angle_beta	90.000711
_cell_angle_gamma	90.020236
loop_
_atom_site_label
_atom_site_type_symbol
_atom_site_fract_x
_atom_site_fract_y
_atom_site_fract_z
Zn1	Zn	1.597444	-0.314789	0.446910
Zn2	Zn	1.597381	-0.446944	0.314740
Zn3	Zn	1.422742	-0.314784	0.314750
Zn4	Zn	1.422657	-0.446929	0.446880
O5	O	1.510056	-0.380861	0.380820
O6	O	1.743672	-0.332327	0.429386
O7	O	1.574224	-0.429416	0.204130
O8	O	1.445979	-0.204173	0.332297
O9	O	1.743625	-0.429421	0.332281
O10	O	1.574332	-0.204177	0.429395
O11	O	1.445918	-0.332319	0.204137
O12	O	1.276495	-0.332305	0.332269
O13	O	1.445833	-0.429397	0.557495
O14	O	1.276432	-0.429392	0.429345
O15	O	1.574249	-0.332313	0.557517
O16	O	1.574141	-0.557553	0.332252
O17	O	1.445772	-0.557542	0.429335
C18	C	1.238546	-0.380847	0.380805
C19	C	1.122393	-0.380860	0.380817
C20	C	1.070631	-0.332900	0.428943
C21	C	0.950581	-0.332912	0.428956
C22	C	1.509968	-0.586228	0.380806
C23	C	1.510026	-0.674084	0.380827
C24	C	1.443311	-1.045584	0.431366
C25	C	1.577092	-1.045535	0.330355
C26	C	1.577055	-0.962989	0.330347
C27	C	1.510145	-0.921737	0.380849
C28	C	1.443270	-0.963031	0.431358
C29	C	1.643921	-0.921690	0.279834
C30	C	1.643886	-0.839139	0.279824
C31	C	1.576980	-0.797885	0.330330
C32	C	1.510104	-0.839184	0.380842
C33	C	1.443193	-0.797931	0.431344
C34	C	1.376321	-0.839228	0.481860
C35	C	1.376364	-0.921777	0.481865
C36	C	1.576937	-0.715336	0.330325
C37	C	1.443152	-0.715378	0.431336
C38	C	1.782626	-0.380877	0.380836
C39	C	1.898779	-0.380883	0.380842
C40	C	1.510039	-0.380854	0.586988
C41	C	1.510031	-0.380851	0.674845
C42	C	1.510172	-0.174693	0.380851
C43	C	1.510222	-0.086836	0.380864
C44	C	1.443187	-0.431419	1.046311
C45	C	1.576907	-0.330326	1.046329
C46	C	1.576904	-0.330319	0.963783
C47	C	1.510042	-0.380864	0.922498
C48	C	1.443183	-0.431416	0.963758
C49	C	1.643768	-0.279774	0.922517
C50	C	1.643768	-0.279766	0.839966
C51	C	1.576900	-0.330308	0.798679
C52	C	1.510038	-0.380861	0.839944
C53	C	1.443176	-0.431406	0.798658
C54	C	1.376308	-0.481956	0.839922
C55	C	1.376315	-0.481957	0.922471
C56	C	1.576893	-0.330306	0.716130
C57	C	1.443173	-0.431403	0.716105
C58	C	1.510059	-0.380882	1.175454
C59	C	1.510049	-0.380874	1.087597
H60	H	1.388669	-0.681795	0.472464
H61	H	0.943286	-0.421950	0.339642
O62	O	0.897531	-0.284010	0.478227
C63	C	0.864023	-0.245839	0.612725
C64	C	0.924149	-0.301283	0.557015
H65	H	0.885537	-0.259774	0.676436
H66	H	0.776651	-0.254580	0.604048
H67	H	0.885423	-0.182070	0.598924
H68	H	0.902837	-0.365074	0.570781
H69	H	1.011506	-0.292474	0.565702
O70	O	1.311476	-0.799115	0.531000
C71	C	1.297260	-0.705838	0.637652
C72	C	1.370812	-0.751235	0.582066
H73	H	1.345202	-0.667103	0.678942
H74	H	1.249489	-0.749490	0.673820
H75	H	1.242622	-0.667269	0.601300
H76	H	1.425513	-0.789805	0.618357
H77	H	1.418509	-0.707541	0.545895
H78	H	1.077831	-0.421927	0.339624
H79	H	1.321920	-0.955408	0.522991
H80	H	1.388869	-1.079212	0.472497
H81	H	1.631561	-1.079128	0.289234
O82	O	1.708788	-0.961883	0.230785
C83	C	1.767882	-1.089038	0.185844
C84	C	1.694441	-1.043613	0.241491
H85	H	1.756293	-1.155125	0.194469
H86	H	1.852191	-1.072867	0.199683
H87	H	1.749481	-1.072740	0.122136
H88	H	1.712748	-1.059886	0.305218
H89	H	1.610154	-1.059787	0.227584
H90	H	1.698337	-0.805520	0.238692
H91	H	1.631378	-0.681716	0.289192
O92	O	1.378194	-0.480583	0.676125
C93	C	1.245525	-0.580829	0.684820
C94	C	1.319072	-0.525184	0.730194
H95	H	1.197690	-0.616891	0.728514
H96	H	1.293436	-0.622214	0.646191
H97	H	1.190947	-0.544528	0.646153
H98	H	1.373665	-0.561420	0.768904
H99	H	1.271096	-0.483796	0.768773
O100	O	1.311483	-0.531172	0.799845
C101	C	1.260668	-0.665623	0.774577
C102	C	1.334152	-0.609976	0.820006
H103	H	1.278955	-0.729347	0.790873
H104	H	1.272176	-0.657004	0.708482
H105	H	1.176411	-0.651706	0.790785
H106	H	1.418437	-0.623858	0.803864
H107	H	1.322554	-0.618606	0.886090
O108	O	1.641951	-0.281204	1.086309
C109	C	1.774533	-0.180891	1.077621
C110	C	1.700940	-0.236499	1.032243
H111	H	1.822229	-0.144721	1.033928
H112	H	1.829229	-0.217147	1.116236
H113	H	1.726560	-0.139598	1.116302
H114	H	1.748829	-0.277803	0.993519
H115	H	1.646241	-0.200194	0.993678
O116	O	1.123733	-0.283790	0.478006
C117	C	1.157327	-0.149419	0.516620
C118	C	1.097149	-0.204945	0.460991
H119	H	1.135839	-0.085662	0.502894
H120	H	1.244691	-0.158069	0.507853
H121	H	1.135948	-0.163429	0.580343
H122	H	1.118441	-0.190969	0.397247
H123	H	1.009800	-0.196285	0.469826
O124	O	1.311465	-0.531033	0.962676
C125	C	1.252169	-0.575805	1.089842
C126	C	1.325678	-0.520200	1.044404
H127	H	1.263619	-0.567054	1.155927
H128	H	1.270481	-0.639559	1.073656
H129	H	1.167923	-0.561926	1.073571
H130	H	1.409949	-0.534008	1.060650
H131	H	1.307277	-0.456462	1.060594
O132	O	1.378333	-0.480496	1.086512
C133	C	1.319013	-0.525270	1.213670
C134	C	1.392530	-0.469664	1.168242
H135	H	1.330450	-0.516520	1.279757
H136	H	1.337329	-0.589024	1.197485
H137	H	1.234770	-0.511392	1.197391
H138	H	1.476798	-0.483472	1.184497
H139	H	1.374124	-0.405927	1.184430
H140	H	1.698210	-0.238628	0.956138
H141	H	1.698215	-0.238605	0.806376
O142	O	1.641729	-0.281097	0.676082
C143	C	1.692588	-0.146650	0.650889
C144	C	1.619077	-0.202293	0.696279
H145	H	1.674315	-0.082926	0.667215
H146	H	1.681095	-0.155260	0.584789
H147	H	1.776837	-0.160583	0.667104
H148	H	1.534800	-0.188394	0.680131
H149	H	1.630662	-0.193673	0.762369
