data_functionalizedCrystal
_audit_creation_method	'MofGen! by Chris Wilmer'
_symmetry_space_group_name_H-M	'P1'
_symmetry_Int_Tables_number	1
_symmetry_cell_setting	triclinic
loop_
_symmetry_equiv_pos_as_xyz
  x,y,z
_cell_length_a	19.805407
_cell_length_b	19.805405
_cell_length_c	19.805399
_cell_angle_alpha	90.029301
_cell_angle_beta	90.017803
_cell_angle_gamma	90.023727
loop_
_atom_site_label
_atom_site_type_symbol
_atom_site_fract_x
_atom_site_fract_y
_atom_site_fract_z
Zn1	Zn	1.034736	-0.269527	0.382680
Zn2	Zn	1.034650	-0.382716	0.269488
Zn3	Zn	0.921550	-0.269541	0.269508
Zn4	Zn	0.921514	-0.382674	0.382638
O5	O	0.978113	-0.326115	0.326078
O6	O	1.129441	-0.284554	0.367674
O7	O	1.019627	-0.367726	0.174774
O8	O	0.936615	-0.174822	0.284546
O9	O	1.129378	-0.367713	0.284512
O10	O	1.019772	-0.174813	0.367693
O11	O	0.936533	-0.284576	0.174788
O12	O	0.826829	-0.284536	0.284506
O13	O	0.936553	-0.367642	0.477360
O14	O	0.826802	-0.367655	0.367622
O15	O	1.019737	-0.284514	0.477391
O16	O	1.019592	-0.477427	0.284472
O17	O	0.936471	-0.477397	0.367603
C18	C	0.802257	-0.326093	0.326062
C19	C	0.727025	-0.326101	0.326071
C20	C	0.691714	-0.282876	0.369439
C21	C	0.621025	-0.282880	0.369442
C22	C	0.585649	-0.326112	0.326079
C23	C	0.620965	-0.369338	0.282706
C24	C	0.691652	-0.369330	0.282701
C25	C	0.335892	-0.369368	0.282727
C26	C	0.265199	-0.369374	0.282737
C27	C	0.265265	-0.282918	0.369468
C28	C	0.335952	-0.282910	0.369462
C29	C	0.371262	-0.326134	0.326087
C30	C	0.447910	-0.326128	0.326084
C31	C	0.509002	-0.326121	0.326085
C32	C	0.978036	-0.501971	0.326046
C33	C	0.978066	-0.577203	0.326054
C34	C	1.021389	-0.612540	0.282813
C35	C	1.021418	-0.683228	0.282828
C36	C	0.978119	-0.718578	0.326081
C37	C	0.934794	-0.683236	0.369327
C38	C	0.934769	-0.612549	0.369315
C39	C	0.934894	-0.968309	0.369377
C40	C	0.934921	-1.039001	0.369384
C41	C	1.021542	-1.038989	0.282890
C42	C	1.021517	-0.968302	0.282878
C43	C	0.978195	-0.932965	0.326126
C44	C	0.978165	-0.856317	0.326110
C45	C	0.978145	-0.795225	0.326094
C46	C	1.154655	-0.326136	0.326095
C47	C	1.229887	-0.326146	0.326102
C48	C	0.978151	-0.326072	0.502621
C49	C	0.978167	-0.326054	0.577853
C50	C	0.978207	-0.149572	0.326126
C51	C	0.978248	-0.074340	0.326146
C52	C	0.978114	-0.326108	0.150222
C53	C	0.978229	-0.325936	0.074991
C54	C	1.021481	-0.282767	0.613214
C55	C	1.021488	-0.282747	0.683903
C56	C	0.978184	-0.326018	0.719229
C57	C	0.934864	-0.369308	0.683863
C58	C	0.934854	-0.369323	0.613176
C59	C	0.934902	-0.369244	0.968936
C60	C	0.934917	-0.369227	1.039628
C61	C	1.021536	-0.282668	1.039663
C62	C	1.021527	-0.282684	0.968976
C63	C	0.978205	-0.325970	0.933616
C64	C	0.978197	-0.325990	0.856968
C65	C	0.978194	-0.326002	0.795876
H66	H	0.592156	-0.404535	0.247397
O67	O	0.227181	-0.236291	0.416249
H68	H	0.240769	-0.183154	0.404741
H69	H	0.899602	-0.404538	0.712631
H70	H	1.056773	-0.939522	0.247655
H71	H	0.592278	-0.247684	0.404757
O72	O	0.888135	-0.416010	0.575031
H73	H	0.853711	-0.385710	0.542837
O74	O	0.888198	-0.415894	1.077729
H75	H	0.918473	-0.450335	1.109925
O76	O	0.888096	-0.721363	0.415980
H77	H	0.857971	-0.684913	0.446051
O78	O	0.729869	-0.236243	0.416205
H79	H	0.693436	-0.206182	0.446355
O80	O	1.068192	-0.236098	0.575112
H81	H	1.056611	-0.182971	0.588687
O82	O	1.068144	-0.721341	0.236187
H83	H	1.037880	-0.753598	0.201735
H84	H	1.056792	-0.247450	0.940217
O85	O	1.068208	-0.236060	0.722044
H86	H	1.121321	-0.247688	0.708487
O87	O	0.374110	-0.236276	0.416225
H88	H	0.337679	-0.206213	0.446376
O89	O	0.373965	-0.415988	0.235944
H90	H	0.406178	-0.450461	0.266166
O91	O	0.729743	-0.415951	0.235927
H92	H	0.693270	-0.446019	0.205778
H93	H	0.236398	-0.404580	0.247424
O94	O	1.068246	-0.235958	1.077800
H95	H	1.060970	-0.243203	1.132888
O96	O	1.068092	-0.574413	0.236164
H97	H	1.098228	-0.610865	0.206105
H98	H	0.899637	-0.404501	0.940155
O99	O	1.068291	-1.077100	0.236260
H100	H	1.061047	-1.132192	0.243543
H101	H	0.899663	-1.067781	0.404611
O102	O	0.888150	-0.930199	0.416000
H103	H	0.858036	-0.966658	0.446065
O104	O	0.888035	-0.574429	0.415945
H105	H	0.857924	-0.610884	0.446018
