data_functionalizedCrystal
_audit_creation_method	'MofGen! by Chris Wilmer'
_symmetry_space_group_name_H-M	'P1'
_symmetry_Int_Tables_number	1
_symmetry_cell_setting	triclinic
loop_
_symmetry_equiv_pos_as_xyz
  x,y,z
_cell_length_a	30.711293
_cell_length_b	30.700791
_cell_length_c	30.700862
_cell_angle_alpha	89.998029
_cell_angle_beta	59.999649
_cell_angle_gamma	60.000191
loop_
_atom_site_label
_atom_site_type_symbol
_atom_site_fract_x
_atom_site_fract_y
_atom_site_fract_z
O1	O	-0.311648	-0.371257	0.012946
O2	O	-0.222486	-0.307915	-0.012905
O3	O	-0.311647	-0.307914	0.076286
O4	O	-0.222487	-0.371258	-0.076244
O5	O	-0.384064	-0.235471	0.076281
O6	O	-0.294903	-0.235472	-0.012909
O7	O	-0.384065	-0.298814	0.012941
Cu8	Cu	-0.346097	-0.260528	0.000016
Cu9	Cu	-0.260455	-0.346201	0.000021
O10	O	-0.294905	-0.298815	-0.076249
C11	C	-0.215946	-0.155921	-0.018773
C12	C	-0.246517	-0.098464	-0.015067
C13	C	-0.241901	-0.182377	-0.019145
C14	C	-0.137093	-0.234800	-0.018780
C15	C	-0.083353	-0.261680	-0.015083
C16	C	-0.163168	-0.261136	-0.019153
C17	C	-0.215940	-0.234800	-0.018783
C18	C	-0.246504	-0.261681	-0.015089
C19	C	-0.163173	-0.182377	-0.019143
C20	C	-0.535506	-0.574966	0.039266
C21	C	-0.588276	-0.548513	0.039633
C22	C	-0.535503	-0.496092	0.039261
C23	C	-0.588273	-0.469758	0.039628
C24	C	-0.614351	-0.496093	0.039261
C25	C	-0.509547	-0.548512	0.039633
C26	C	-0.393517	-0.765171	0.024998
C27	C	-0.364490	-0.819035	0.020964
C28	C	-0.389408	-0.846056	0.018939
C29	C	-0.357931	-0.904462	0.014555
C30	C	-0.443357	-0.819209	0.020953
C31	C	-0.472384	-0.765347	0.024994
C32	C	-0.447462	-0.738328	0.027016
C33	C	-0.790217	-0.447931	0.024977
C34	C	-0.840027	-0.423106	0.020938
C35	C	-0.865011	-0.371162	0.018906
C36	C	-0.919010	-0.344244	0.014518
C37	C	-0.840185	-0.344042	0.020919
C38	C	-0.790385	-0.368863	0.024968
C39	C	-0.765401	-0.420813	0.026993
C40	C	-0.393506	-0.447926	0.024978
C41	C	-0.364472	-0.423102	0.020932
C42	C	-0.389387	-0.371157	0.018902
C43	C	-0.357907	-0.344239	0.014513
C44	C	-0.443332	-0.344040	0.020913
C45	C	-0.472361	-0.368866	0.024957
C46	C	-0.447446	-0.420809	0.026994
C47	C	-0.478939	-0.679924	0.031393
C48	C	-0.504029	-0.633370	0.034884
C49	C	-0.504023	-0.469176	0.034874
C50	C	-0.478931	-0.447722	0.031379
C51	C	-0.668351	-0.469178	0.034874
C52	C	-0.711396	-0.447725	0.031378
C53	C	-0.071062	-0.496430	-0.503877
C54	C	-0.018292	-0.548850	-0.530210
C55	C	-0.071062	-0.496430	-0.425001
C56	C	-0.018292	-0.548851	-0.451454
C57	C	0.007785	-0.575305	-0.503874
C58	C	-0.097019	-0.470095	-0.451457
C59	C	-0.213054	-0.368667	-0.552046
C60	C	-0.242083	-0.343666	-0.576874
C61	C	-0.217167	-0.370617	-0.628819
C62	C	-0.248645	-0.343515	-0.655738
C63	C	-0.163218	-0.422570	-0.655937
C64	C	-0.134190	-0.447564	-0.631112
C65	C	-0.159110	-0.420611	-0.579165
C66	C	0.183647	-0.765510	-0.631630
C67	C	0.233456	-0.819374	-0.656629
C68	C	0.258441	-0.846398	-0.629678
C69	C	0.312440	-0.904802	-0.656775
C70	C	0.233618	-0.819550	-0.577726
C71	C	0.183818	-0.765686	-0.552731
C72	C	0.158832	-0.738669	-0.579689
C73	C	-0.213052	-0.368669	-0.234798
C74	C	-0.242085	-0.343671	-0.180932
C75	C	-0.217169	-0.370623	-0.153909
C76	C	-0.248646	-0.343521	-0.095503
C77	C	-0.163224	-0.422573	-0.180754
C78	C	-0.134196	-0.447569	-0.234618
C79	C	-0.159113	-0.420610	-0.261638
C80	C	-0.127632	-0.447719	-0.552248
C81	C	-0.102540	-0.469326	-0.530793
C82	C	-0.102539	-0.469327	-0.366598
C83	C	-0.127630	-0.447721	-0.320044
C84	C	0.061784	-0.633709	-0.530976
C85	C	0.104829	-0.680263	-0.552580
O86	O	0.063309	-0.298819	0.012947
O87	O	-0.063337	-0.235469	-0.012895
O88	O	-0.063332	-0.235483	0.076292
O89	O	0.063304	-0.298804	-0.076240
O90	O	-0.063327	-0.307931	0.076282
O91	O	-0.063332	-0.307917	-0.012905
O92	O	0.063314	-0.371267	0.012938
Cu93	Cu	-0.000009	-0.346207	0.000016
Cu94	Cu	-0.000014	-0.260529	0.000027
O95	O	0.063309	-0.371252	-0.076249
O96	O	-0.384087	0.076278	0.012980
O97	O	-0.294919	-0.076256	-0.012883
O98	O	-0.384078	0.012923	0.076312
O99	O	-0.294928	-0.012900	-0.076216
O100	O	-0.311659	0.012923	0.076315
O101	O	-0.222500	-0.076255	-0.012880
O102	O	-0.311668	0.076279	0.012982
Cu103	Cu	-0.260471	0.000012	0.000051
Cu104	Cu	-0.346115	0.000011	0.000048
O105	O	-0.222509	-0.012900	-0.076213
O106	O	0.456756	-1.076592	-0.692373
O107	O	0.330119	-0.924062	-0.629035
O108	O	0.330115	-1.013250	-0.629031
O109	O	0.456760	-0.987404	-0.692377
O110	O	0.330114	-1.013248	-0.701476
O111	O	0.330117	-0.924060	-0.701479
O112	O	0.456755	-1.076591	-0.764818
Cu113	Cu	0.393436	-1.000325	-0.739763
Cu114	Cu	0.393438	-1.000327	-0.654089
O115	O	0.456758	-0.987402	-0.764821
O116	O	-0.311647	-0.307914	-0.764507
O117	O	-0.222491	-0.371255	-0.701160
O118	O	-0.311650	-0.371255	-0.701160
O119	O	-0.222488	-0.307914	-0.764507
O120	O	-0.384068	-0.298811	-0.628718
O121	O	-0.294909	-0.298811	-0.628719
O122	O	-0.384066	-0.235470	-0.692065
Cu123	Cu	-0.346100	-0.260525	-0.653777
Cu124	Cu	-0.260456	-0.346199	-0.739448
O125	O	-0.294906	-0.235469	-0.692065
C126	C	-0.469459	-0.155927	0.234817
C127	C	-0.523196	-0.098472	0.261693
C128	C	-0.443383	-0.182382	0.261154
C129	C	-0.390613	-0.234802	0.155945
C130	C	-0.360047	-0.261680	0.098491
C131	C	-0.364656	-0.261137	0.182401
C132	C	-0.390613	-0.234802	0.234821
C133	C	-0.360047	-0.261680	0.261701
C134	C	-0.443383	-0.182382	0.182398
C135	C	-0.215937	-0.234835	0.234815
C136	C	-0.246501	-0.261718	0.261687
C137	C	-0.241898	-0.182415	0.261154
C138	C	-0.137088	-0.234825	0.155948
C139	C	-0.083347	-0.261698	0.098494
C140	C	-0.163169	-0.182405	0.182407
C141	C	-0.215942	-0.155956	0.234826
C142	C	-0.246513	-0.098501	0.261708
C143	C	-0.163163	-0.261164	0.182396
C144	C	-0.390614	0.018780	0.234847
C145	C	-0.360045	0.015077	0.261724
C146	C	-0.443383	0.019144	0.261180
C147	C	-0.390620	0.018793	0.155974
C148	C	-0.360058	0.015103	0.098520
C149	C	-0.443389	0.019157	0.182427
C150	C	-0.469462	0.018780	0.234845
C151	C	-0.523197	0.015076	0.261721
C152	C	-0.364661	0.019157	0.182428
C153	C	0.464517	-0.574918	-0.503872
C154	C	0.490473	-0.548459	-0.530201
C155	C	0.385663	-0.496049	-0.424994
C156	C	0.411739	-0.469710	-0.451443
C157	C	0.464512	-0.496040	-0.503862
C158	C	0.411744	-0.548469	-0.451453
C159	C	0.526952	-0.765127	-0.552055
C160	C	0.555809	-0.818991	-0.576885
C161	C	0.609766	-0.846007	-0.628829
C162	C	0.641064	-0.904413	-0.655751
C163	C	0.634860	-0.819155	-0.655943
C164	C	0.605999	-0.765293	-0.631116
C165	C	0.552042	-0.738279	-0.579169
C166	C	0.606502	-0.447857	-0.631603
C167	C	0.635529	-0.423027	-0.656598
C168	C	0.610613	-0.371084	-0.629644
C169	C	0.642085	-0.344159	-0.656737
C170	C	0.556661	-0.343969	-0.577693
C171	C	0.527630	-0.368794	-0.552703
C172	C	0.552560	-0.420744	-0.579664
C173	C	0.209790	-0.447905	-0.234797
C174	C	0.159982	-0.423087	-0.180932
C175	C	0.134993	-0.371141	-0.153906
C176	C	0.080990	-0.344230	-0.095501
C177	C	0.159816	-0.344019	-0.180746
C178	C	0.209624	-0.368840	-0.234610
C179	C	0.234604	-0.420783	-0.261633
C180	C	0.520753	-0.679876	-0.552249
C181	C	0.495810	-0.633322	-0.530792
C182	C	0.331660	-0.469140	-0.366591
C183	C	0.288612	-0.447690	-0.320038
C184	C	0.495988	-0.469120	-0.530959
C185	C	0.521078	-0.447662	-0.552560
O186	O	-0.311682	0.076246	0.298846
O187	O	-0.222503	-0.076287	0.235498
O188	O	-0.311678	0.012896	0.235508
O189	O	-0.222507	-0.012937	0.298837
O190	O	-0.384084	0.012882	0.307954
O191	O	-0.294908	-0.076301	0.307945
O192	O	-0.384088	0.076231	0.371293
Cu193	Cu	-0.346109	-0.000036	0.346234
Cu194	Cu	-0.260481	-0.000019	0.260557
O195	O	-0.294913	-0.012952	0.371283
C196	C	0.007393	-0.039139	-0.503833
C197	C	-0.018687	-0.039504	-0.530167
C198	C	-0.071449	-0.039152	-0.424962
C199	C	-0.097408	-0.039517	-0.451416
C200	C	-0.071456	-0.039140	-0.503834
C201	C	-0.018680	-0.039516	-0.451415
C202	C	0.183255	-0.024850	-0.551992
C203	C	0.233063	-0.020808	-0.576817
C204	C	0.258044	-0.018773	-0.628760
C205	C	0.312042	-0.014380	-0.655676
C206	C	0.233217	-0.020784	-0.655880
C207	C	0.183418	-0.024833	-0.631058
C208	C	0.158437	-0.026866	-0.579112
C209	C	-0.133891	-0.024840	-0.631591
C210	C	-0.162748	-0.020798	-0.656591
C211	C	-0.216700	-0.018774	-0.629643
C212	C	-0.247997	-0.014384	-0.656741
C213	C	-0.241792	-0.020797	-0.577692
C214	C	-0.212931	-0.024848	-0.552697
C215	C	-0.158978	-0.026866	-0.579652
C216	C	-0.133856	-0.024902	-0.234761
C217	C	-0.162710	-0.020866	-0.180895
C218	C	-0.216662	-0.018844	-0.153875
C219	C	-0.247951	-0.014466	-0.095471
C220	C	-0.241761	-0.020853	-0.180721
C221	C	-0.212907	-0.024887	-0.234584
C222	C	-0.158950	-0.026916	-0.261601
C223	C	0.104434	-0.031251	-0.552199
C224	C	0.061391	-0.034749	-0.530746
C225	C	-0.102733	-0.034776	-0.366559
C226	C	-0.127669	-0.031290	-0.320006
C227	C	-0.102748	-0.034750	-0.530937
C228	C	-0.127690	-0.031253	-0.552542
H229	H	-0.610092	-0.426688	0.040215
O230	O	-0.139100	-0.448762	-0.706358
C231	C	-0.182515	-0.453498	-0.706239
H232	H	-0.216396	-0.450418	-0.664550
H233	H	-0.208557	-0.420147	-0.718244
C234	C	-0.107381	-0.511668	-0.797411
C235	C	-0.148990	-0.507889	-0.746209
H236	H	-0.086702	-0.545218	-0.822068
H237	H	-0.078132	-0.508476	-0.797492
H238	H	-0.129089	-0.483873	-0.807407
H239	H	-0.127281	-0.535680	-0.736211
H240	H	-0.178235	-0.511087	-0.746127
O241	O	-0.292606	-0.157003	0.312513
C242	C	-0.341217	-0.111033	0.315431
H243	H	-0.321561	-0.097799	0.280036
H244	H	-0.372306	-0.120444	0.314480
C245	C	-0.403014	-0.082235	0.411190
C246	C	-0.378872	-0.065978	0.367719
H247	H	-0.426244	-0.054443	0.443445
H248	H	-0.370265	-0.113206	0.409225
H249	H	-0.428918	-0.090077	0.410390
H250	H	-0.352963	-0.058142	0.368516
H251	H	-0.411618	-0.035004	0.369686
O252	O	0.257172	-0.018924	-0.550445
C253	C	0.278651	-0.065755	-0.537187
H254	H	0.253745	-0.083972	-0.536020
H255	H	0.330276	-0.095567	-0.568434
C256	C	0.296608	-0.029652	-0.483505
C257	C	0.266014	-0.052025	-0.482067
H258	H	0.288817	-0.021185	-0.449505
H259	H	0.282140	0.001897	-0.492438
H260	H	0.339627	-0.054500	-0.509547
H261	H	0.222996	-0.027176	-0.456030
H262	H	0.280475	-0.083571	-0.473128
O263	O	-0.137079	-0.312576	0.157103
C264	C	-0.119457	-0.345005	0.185654
H265	H	-0.113012	-0.324836	0.210905
H266	H	-0.156780	-0.351064	0.212721
C267	C	-0.066413	-0.424259	0.115157
C268	C	-0.058492	-0.399489	0.146167
H269	H	-0.028809	-0.457868	0.090800
H270	H	-0.078287	-0.402411	0.095923
H271	H	-0.097518	-0.429303	0.137718
H272	H	-0.027394	-0.394439	0.123607
H273	H	-0.046612	-0.421338	0.165397
H274	H	-0.860531	-0.301746	0.019268
H275	H	0.139780	-0.445177	-0.159080
O276	O	-0.469472	0.019961	0.157104
C277	C	-0.487100	0.066145	0.142313
H278	H	-0.493550	0.097840	0.168937
H279	H	-0.449779	0.055886	0.098922
C280	C	-0.540138	0.048710	0.116109
C281	C	-0.548064	0.087640	0.148811
H282	H	-0.577741	0.061969	0.120114
H283	H	-0.528259	0.017594	0.126071
H284	H	-0.509035	0.040165	0.079952
H285	H	-0.579161	0.096180	0.184967
H286	H	-0.559949	0.118759	0.138854
O287	O	0.687210	-0.845351	-0.706433
C288	C	0.675237	-0.820093	-0.741263
H289	H	0.623926	-0.796749	-0.723087
H290	H	0.689682	-0.791626	-0.747690
C291	C	0.774979	-0.891161	-0.817501
C292	C	0.711958	-0.862494	-0.795180
H293	H	0.797632	-0.917315	-0.850761
H294	H	0.783047	-0.908177	-0.794036
H295	H	0.787008	-0.867433	-0.822853
H296	H	0.699929	-0.886220	-0.789822
H297	H	0.703889	-0.845482	-0.818645
H298	H	-0.465211	-0.161141	0.304225
O299	O	0.007790	-0.574144	-0.426132
C300	C	0.025419	-0.545599	-0.411335
H301	H	0.031869	-0.520350	-0.437954
H302	H	-0.011902	-0.518531	-0.367943
C303	C	0.078456	-0.616099	-0.385137
C304	C	0.086383	-0.585092	-0.417834
H305	H	0.116059	-0.640459	-0.389143
H306	H	0.066577	-0.635330	-0.395104
H307	H	0.047353	-0.593537	-0.348979
H308	H	0.117480	-0.607653	-0.453991
H309	H	0.098268	-0.565865	-0.407874
H310	H	-0.465197	0.019723	0.304247
H311	H	0.389910	-0.426640	-0.430197
H312	H	-0.320546	-0.445187	0.019291
H313	H	-0.322198	0.019752	0.161192
H314	H	-0.770177	-0.346778	0.026608
O315	O	0.007454	-0.040256	-0.426163
C316	C	0.059703	-0.040476	-0.460762
H317	H	0.077699	-0.056838	-0.503859
H318	H	0.046618	0.001958	-0.451942
C319	C	0.088042	-0.055840	-0.399321
C320	C	0.110148	-0.075941	-0.452253
H321	H	0.119158	-0.077714	-0.394071
H322	H	0.052839	-0.055690	-0.376010
H323	H	0.077137	-0.020479	-0.391977
H324	H	0.121044	-0.111299	-0.459594
H325	H	0.145354	-0.076097	-0.475566
H326	H	0.230128	-0.490201	-0.256797
O327	O	0.541164	-0.573883	-0.581567
C328	C	0.558596	-0.625923	-0.599247
H329	H	0.539924	-0.638952	-0.563374
H330	H	0.538996	-0.626390	-0.622325
C331	C	0.652273	-0.648536	-0.679903
C332	C	0.629343	-0.664540	-0.635843
H333	H	0.695912	-0.672357	-0.702479
H334	H	0.640527	-0.613475	-0.667993
H335	H	0.635933	-0.648925	-0.699128
H336	H	0.645677	-0.664145	-0.616615
H337	H	0.641093	-0.699603	-0.647750
H338	H	-0.284361	-0.161138	-0.019745
H339	H	0.483018	-0.743137	-0.509759
O340	O	0.385773	-0.573880	-0.426203
C341	C	0.420144	-0.625925	-0.460805
H342	H	0.446856	-0.627557	-0.503901
H343	H	0.453757	-0.655268	-0.451993
C344	C	0.343389	-0.638933	-0.399359
C345	C	0.376193	-0.640935	-0.452291
H346	H	0.316279	-0.648193	-0.394105
H347	H	0.320233	-0.603870	-0.376046
H348	H	0.371406	-0.663385	-0.392022
H349	H	0.348176	-0.616479	-0.459625
H350	H	0.399343	-0.675994	-0.475605
H351	H	-0.285693	-0.019206	-0.158718
H352	H	-0.141350	-0.161136	-0.019736
H353	H	-0.463617	-0.301742	0.019258
H354	H	-0.516285	-0.346783	0.026595
H355	H	0.003137	-0.040091	-0.573237
H356	H	-0.090264	-0.489862	-0.653196
H357	H	-0.610099	-0.569754	0.040226
H358	H	-0.373212	-0.490223	0.026632
H359	H	0.003536	-0.570083	-0.573284
H360	H	-0.285717	-0.019156	-0.555752
H361	H	0.163310	-0.743516	-0.653584
O362	O	0.135542	-0.293531	-0.154572
C363	C	0.113974	-0.258699	-0.179816
H364	H	0.138934	-0.282346	-0.222999
H365	H	0.062372	-0.238415	-0.158019
C366	C	0.095743	-0.187065	-0.125463
C367	C	0.126404	-0.216108	-0.178503
H368	H	0.103408	-0.160791	-0.124652
H369	H	0.110272	-0.210531	-0.108454
H370	H	0.052744	-0.170166	-0.107305
H371	H	0.169403	-0.233012	-0.196658
H372	H	0.111883	-0.192644	-0.195515
O373	O	-0.458901	-0.573919	0.040359
C374	C	-0.441460	-0.625965	0.040581
H375	H	-0.482909	-0.627601	0.056961
H376	H	-0.403323	-0.655306	-0.001855
C377	C	-0.367028	-0.638964	0.055905
C378	C	-0.417937	-0.640972	0.076027
H379	H	-0.352515	-0.648223	0.077768
H380	H	-0.378776	-0.603900	0.055754
H381	H	-0.335253	-0.663415	0.020542
H382	H	-0.449713	-0.616517	0.111387
H383	H	-0.406193	-0.676033	0.076186
O384	O	-0.312074	-0.845040	0.018985
C385	C	-0.296311	-0.809639	0.021648
H386	H	-0.317974	-0.775705	0.007776
H387	H	-0.314109	-0.792640	0.064533
C388	C	-0.199181	-0.881452	0.002405
C389	C	-0.225784	-0.839776	-0.014638
H390	H	-0.155676	-0.900041	-0.019976
H391	H	-0.209801	-0.905302	0.000612
H392	H	-0.214019	-0.867279	0.038142
H393	H	-0.210952	-0.853949	-0.050372
H394	H	-0.215159	-0.815929	-0.012852
O395	O	-0.467548	-0.845493	0.019053
C396	C	-0.482107	-0.864502	0.062556
H397	H	-0.453183	-0.868447	0.077235
H398	H	-0.533043	-0.835284	0.096203
C399	C	-0.503802	-0.914558	0.026765
C400	C	-0.468273	-0.919409	0.044791
H401	H	-0.495272	-0.948427	0.015809
H402	H	-0.493996	-0.901750	-0.002542
H403	H	-0.546246	-0.890208	0.054808
H404	H	-0.425831	-0.943754	0.016747
H405	H	-0.478072	-0.932222	0.074094
O406	O	-0.138246	-0.019012	-0.154867
C407	C	-0.078168	-0.065830	-0.180236
H408	H	-0.073112	-0.098966	-0.203482
H409	H	-0.043324	-0.057817	-0.208808
C410	C	-0.072652	-0.042340	-0.109398
C411	C	-0.066443	-0.083039	-0.137946
H412	H	-0.065417	-0.052954	-0.083313
H413	H	-0.113127	-0.010796	-0.092307
H414	H	-0.043614	-0.035666	-0.133214
H415	H	-0.095486	-0.089707	-0.114131
H416	H	-0.025973	-0.114584	-0.155032
H417	H	0.535374	-0.840851	-0.554804
H418	H	0.483702	-0.346714	-0.510406
O419	O	0.257469	-0.845380	-0.707080
C420	C	0.224745	-0.809981	-0.725514
H421	H	0.176959	-0.776045	-0.689973
H422	H	0.250623	-0.792984	-0.750600
C423	C	0.277283	-0.881795	-0.803424
C424	C	0.218589	-0.840116	-0.759772
H425	H	0.273488	-0.900384	-0.824558
H426	H	0.299332	-0.905644	-0.791007
H427	H	0.298843	-0.867624	-0.824323
H428	H	0.197034	-0.854288	-0.738871
H429	H	0.196537	-0.816270	-0.772187
O430	O	-0.524767	-0.739355	0.026920
C431	C	-0.540546	-0.774748	0.024280
H432	H	-0.497704	-0.817558	0.004651
H433	H	-0.576427	-0.769254	0.066304
C434	C	-0.619804	-0.710424	0.015255
C435	C	-0.567184	-0.763003	-0.008859
H436	H	-0.636238	-0.703178	-0.005185
H437	H	-0.609175	-0.686578	0.017035
H438	H	-0.649698	-0.705851	0.050273
H439	H	-0.537288	-0.767573	-0.043874
H440	H	-0.577808	-0.786850	-0.010646
O441	O	-0.469311	-0.157048	0.156984
C442	C	-0.426237	-0.154436	0.111000
H443	H	-0.390296	-0.157863	0.115843
H444	H	-0.402618	-0.188585	0.074674
C445	C	-0.503785	-0.096617	0.097350
C446	C	-0.459645	-0.100821	0.103300
H447	H	-0.524392	-0.063546	0.092598
H448	H	-0.532805	-0.098378	0.128329
H449	H	-0.484096	-0.125077	0.067078
H450	H	-0.479335	-0.072365	0.133575
H451	H	-0.430629	-0.099054	0.072326
H452	H	-0.141347	-0.161163	0.161169
O453	O	0.630778	-0.498308	-0.657879
C454	C	0.684623	-0.516918	-0.709083
H455	H	0.683163	-0.481472	-0.721489
H456	H	0.726676	-0.542039	-0.708268
C457	C	0.690400	-0.594730	-0.734123
C458	C	0.688604	-0.551194	-0.749362
H459	H	0.692858	-0.615876	-0.758968
H460	H	0.654125	-0.582194	-0.699625
H461	H	0.725445	-0.615658	-0.733443
H462	H	0.653556	-0.530264	-0.750034
H463	H	0.724873	-0.563728	-0.783861
O464	O	0.687986	-0.449336	-0.707028
C465	C	0.736104	-0.454189	-0.706981
H466	H	0.715863	-0.421763	-0.670851
H467	H	0.764664	-0.495060	-0.705018
C468	C	0.802284	-0.487910	-0.802764
C469	C	0.777425	-0.448081	-0.758390
H470	H	0.827776	-0.484144	-0.834476
H471	H	0.769868	-0.484642	-0.802796
H472	H	0.826081	-0.521965	-0.801120
H473	H	0.753623	-0.414027	-0.760031
H474	H	0.809839	-0.451343	-0.758360
H475	H	-0.373220	-0.743176	0.026647
H476	H	-0.141336	-0.304210	-0.019753
O477	O	0.532535	-0.293546	-0.551495
C478	C	0.575945	-0.293662	-0.546752
H479	H	0.609825	-0.335351	-0.549832
H480	H	0.601988	-0.281656	-0.580100
C481	C	0.500804	-0.202491	-0.488580
C482	C	0.542413	-0.253693	-0.492359
H483	H	0.480121	-0.177835	-0.455029
H484	H	0.471558	-0.202412	-0.491777
H485	H	0.522514	-0.192494	-0.516374
H486	H	0.520702	-0.263692	-0.464570
H487	H	0.571655	-0.253773	-0.489156
H488	H	0.626432	-0.743433	-0.653196
O489	O	-0.081849	-0.498062	-0.260696
C490	C	-0.091662	-0.531729	-0.279721
H491	H	-0.143037	-0.513592	-0.255050
H492	H	-0.073710	-0.536260	-0.323311
C493	C	0.005865	-0.609162	-0.305248
C494	C	-0.057233	-0.586888	-0.274944
H495	H	0.027104	-0.643187	-0.302304
H496	H	0.012478	-0.586480	-0.292432
H497	H	0.020817	-0.612932	-0.341570
H498	H	-0.072186	-0.583112	-0.238622
H499	H	-0.063848	-0.609571	-0.287753
O500	O	-0.294544	-0.293243	-0.154809
C501	C	-0.342673	-0.293261	-0.111506
H502	H	-0.331810	-0.334952	-0.119200
H503	H	-0.347525	-0.281110	-0.073405
C504	C	-0.416706	-0.202172	-0.095828
C505	C	-0.403366	-0.253376	-0.105280
H506	H	-0.454146	-0.177567	-0.091986
H507	H	-0.384281	-0.202158	-0.125001
H508	H	-0.420746	-0.192053	-0.064079
H509	H	-0.399319	-0.263496	-0.137032
H510	H	-0.435792	-0.253391	-0.076113
H511	H	-0.769881	-0.490228	0.026630
O512	O	-0.237287	-0.026748	-0.502212
C513	C	-0.251951	0.016751	-0.468542
H514	H	-0.222978	0.031426	-0.493432
H515	H	-0.302869	0.050402	-0.446907
C516	C	-0.273910	-0.019038	-0.396796
C517	C	-0.238321	-0.001017	-0.427365
H518	H	-0.265505	-0.029996	-0.371394
H519	H	-0.264033	-0.048343	-0.419479
H520	H	-0.316339	0.009008	-0.378772
H521	H	-0.195893	-0.029064	-0.445394
H522	H	-0.248190	0.028283	-0.404684
O523	O	-0.313932	-0.312487	0.157066
C524	C	-0.265344	-0.315393	0.154447
H525	H	-0.273604	-0.274599	0.157873
H526	H	-0.263161	-0.328100	0.188592
C527	C	-0.193917	-0.406612	0.096623
C528	C	-0.204060	-0.356509	0.100827
H529	H	-0.156113	-0.431977	0.063550
H530	H	-0.226652	-0.404656	0.098389
H531	H	-0.192101	-0.417194	0.125081
H532	H	-0.205883	-0.345926	0.072374
H533	H	-0.171324	-0.358465	0.099055
H534	H	-0.860233	-0.445191	0.019296
O535	O	0.233823	-0.342549	-0.260680
C536	C	0.296308	-0.371391	-0.279698
H537	H	0.304884	-0.398118	-0.255029
H538	H	0.326465	-0.397016	-0.323290
C539	C	0.301709	-0.299352	-0.305210
C540	C	0.312241	-0.332175	-0.274908
H541	H	0.311539	-0.275163	-0.302258
H542	H	0.259612	-0.279921	-0.292400
H543	H	0.326841	-0.320712	-0.341534
H544	H	0.287105	-0.310816	-0.238585
H545	H	0.354335	-0.351602	-0.287713
O546	O	0.257431	-0.018709	-0.706299
C547	C	0.252573	0.029459	-0.706173
H548	H	0.213981	0.060264	-0.664483
H549	H	0.297911	0.022163	-0.718178
C550	C	0.285553	0.012486	-0.797344
C551	C	0.238150	0.050322	-0.746139
H552	H	0.276659	0.025354	-0.821998
H553	H	0.288828	-0.019967	-0.797429
H554	H	0.323330	0.006409	-0.807340
H555	H	0.200375	0.056393	-0.736141
H556	H	0.234868	0.082776	-0.746053
H557	H	-0.139870	-0.040113	-0.430176
H558	H	-0.139480	-0.427024	-0.430222
O559	O	-0.237347	-0.342412	-0.260962
C560	C	-0.291173	-0.291195	-0.225725
H561	H	-0.310910	-0.291102	-0.182864
H562	H	-0.279535	-0.260807	-0.231263
C563	C	-0.314788	-0.276539	-0.290292
C564	C	-0.339033	-0.276425	-0.237650
H565	H	-0.344310	-0.267427	-0.297649
H566	H	-0.278523	-0.311044	-0.314033
H567	H	-0.305091	-0.251216	-0.294901
H568	H	-0.348723	-0.301753	-0.233043
H569	H	-0.375300	-0.241924	-0.213908
H570	H	-0.089923	-0.026552	-0.256755
H571	H	0.162921	-0.026506	-0.509696
H572	H	0.163208	-0.026470	-0.653142
H573	H	-0.089960	-0.026487	-0.653543
H574	H	-0.142316	-0.019148	-0.698888
H575	H	-0.233346	-0.026524	-0.256439
H576	H	-0.142937	-0.444519	-0.158749
O577	O	-0.237229	-0.342414	-0.501624
C578	C	-0.239338	-0.295459	-0.500504
H579	H	-0.203985	-0.299910	-0.542236
H580	H	-0.287320	-0.260160	-0.486469
C581	C	-0.268002	-0.280368	-0.410608
C582	C	-0.224577	-0.285837	-0.461864
H583	H	-0.258900	-0.274432	-0.386772
H584	H	-0.266583	-0.312002	-0.411362
H585	H	-0.307983	-0.250954	-0.398920
H586	H	-0.184598	-0.315255	-0.473554
H587	H	-0.225989	-0.254208	-0.461111
O588	O	-0.294427	-0.293171	-0.550594
C589	C	-0.284602	-0.259512	-0.579445
H590	H	-0.233226	-0.277655	-0.606164
H591	H	-0.302552	-0.254983	-0.605079
C592	C	-0.382126	-0.182069	-0.507425
C593	C	-0.319025	-0.204351	-0.540238
H594	H	-0.403362	-0.148042	-0.483241
H595	H	-0.388747	-0.204746	-0.487987
H596	H	-0.397076	-0.178300	-0.528792
H597	H	-0.304076	-0.208126	-0.518872
H598	H	-0.312403	-0.181674	-0.559671
H599	H	0.253967	-0.841552	-0.555784
H600	H	0.163613	-0.743829	-0.510434
