data_functionalizedCrystal
_audit_creation_method	'MofGen! by Chris Wilmer'
_symmetry_space_group_name_H-M	'P1'
_symmetry_Int_Tables_number	1
_symmetry_cell_setting	triclinic
loop_
_symmetry_equiv_pos_as_xyz
  x,y,z
_cell_length_a	14.446369
_cell_length_b	19.377372
_cell_length_c	19.377372
_cell_angle_alpha	86.406704
_cell_angle_beta	72.113854
_cell_angle_gamma	72.109496
loop_
_atom_site_label
_atom_site_type_symbol
_atom_site_fract_x
_atom_site_fract_y
_atom_site_fract_z
Zr1	Zr	1.219426	-0.172970	0.607304
O2	O	1.333413	-0.256321	0.523961
O3	O	1.050567	-0.147414	0.632852
O4	O	1.191991	-0.276221	0.652762
O5	O	1.232765	-0.025914	0.488348
O6	O	1.232769	-0.291923	0.754364
O7	O	1.191989	-0.127515	0.504051
O8	O	0.979787	-0.061511	0.718749
O9	O	1.485747	-0.256326	0.523963
O10	O	1.170776	-0.148238	0.719574
O11	O	1.170775	-0.060697	0.632030
O12	O	1.337284	-0.212350	0.655471
O13	O	1.337283	-0.124809	0.567928
Zr14	Zr	1.349496	-0.035972	0.744302
Zr15	Zr	1.284462	-0.198013	0.769348
Zr16	Zr	1.284460	-0.010929	0.582259
Zr17	Zr	1.462382	-0.172978	0.607307
Zr18	Zr	1.106540	-0.035964	0.744300
O19	O	1.518355	-0.061528	0.718755
O20	O	1.425886	-0.291929	0.754366
O21	O	1.425882	-0.025920	0.488350
O22	O	1.235509	0.047379	0.827646
O23	O	1.143040	-0.183022	0.863257
O24	O	1.143036	0.082987	0.597241
O25	O	1.336157	-0.183028	0.863259
O26	O	1.376931	0.067279	0.698845
O27	O	1.336153	0.082981	0.597243
O28	O	1.376933	-0.081428	0.847555
O29	O	1.537442	-0.276232	0.652766
O30	O	1.031480	0.067290	0.698841
O31	O	1.083175	0.047384	0.827644
O32	O	1.031482	-0.081417	0.847552
O33	O	1.537440	-0.127526	0.504055
O34	O	1.589135	-0.147431	0.632858
O35	O	1.231638	0.003408	0.696135
O36	O	1.231639	-0.084133	0.783679
O37	O	1.398147	-0.148245	0.719576
O38	O	1.398146	-0.060704	0.632033
C39	C	0.980561	-0.104461	0.675800
C40	C	0.877420	-0.104458	0.675799
C41	C	1.203111	-0.073146	0.473112
C42	C	1.175501	-0.062515	0.404320
C43	C	1.365808	0.098217	0.644475
C44	C	1.393417	0.167008	0.633843
C45	C	0.730589	-0.049062	0.620780
C46	C	0.838027	-0.049217	0.620552
C47	C	0.879346	-0.181462	0.653648
C48	C	0.772069	-0.181157	0.653252
C49	C	0.690582	-0.083564	0.753112
C50	C	0.797359	-0.081864	0.752731
C51	C	1.588361	-0.104481	0.675807
C52	C	1.691502	-0.104484	0.675808
C53	C	1.203114	-0.307159	0.707131
C54	C	1.175506	-0.375950	0.717764
C55	C	1.049663	0.560572	0.766204
C56	C	1.075631	0.625201	0.756210
C57	C	1.249452	0.558264	0.689292
C58	C	1.223497	0.493628	0.699277
C59	C	1.123602	0.494788	0.737734
C60	C	1.297436	0.427844	0.670807
C61	C	1.271485	0.363213	0.680795
C62	C	1.171595	0.364366	0.719252
C63	C	1.097650	0.430157	0.747722
C64	C	1.397333	0.426684	0.632355
C65	C	1.471272	0.360900	0.603885
C66	C	1.445319	0.296269	0.613868
C67	C	1.345429	0.297422	0.652325
C68	C	1.519264	0.230478	0.585398
C69	C	1.493312	0.165847	0.595386
C70	C	1.319478	0.232791	0.662313
C71	C	1.519261	-0.194881	0.010773
C72	C	1.493295	-0.184881	-0.053858
C73	C	1.319474	-0.117953	0.013069
C74	C	1.345426	-0.127944	0.077708
C75	C	1.445321	-0.166409	0.076553
C76	C	1.271487	-0.099472	0.143487
C77	C	1.297436	-0.109465	0.208120
C78	C	1.397326	-0.147930	0.206973
C79	C	1.471271	-0.176402	0.141186
C80	C	1.171591	-0.061012	0.144641
C81	C	1.097651	-0.032540	0.210421
C82	C	1.123602	-0.042529	0.275054
C83	C	1.223491	-0.080994	0.273907
C84	C	1.049657	-0.014057	0.340842
C85	C	1.075606	-0.024050	0.405474
C86	C	1.249441	-0.090987	0.338540
C87	C	1.365811	-0.135796	0.878495
C88	C	1.393421	-0.146427	0.947287
C89	C	1.061911	-0.135786	0.878492
C90	C	0.986380	-0.146414	0.947282
C91	C	1.061908	0.098227	0.644472
C92	C	0.986375	0.167020	0.633839
C93	C	1.143258	0.066902	0.847164
C94	C	1.095335	0.125065	0.905322
C95	C	1.425664	-0.275844	0.504443
C96	C	1.473587	-0.334007	0.446285
C97	C	1.507011	-0.073156	0.473115
C98	C	1.582543	-0.062528	0.404324
C99	C	1.507014	-0.307169	0.707135
C100	C	1.582547	-0.375963	0.717768
C101	C	0.919137	-0.184874	0.946126
C102	C	0.848172	-0.194874	1.010758
C103	C	0.844446	-0.166410	1.076545
C104	C	0.911699	-0.127948	1.077700
C105	C	0.982667	-0.117953	1.013069
C106	C	0.982677	0.232796	0.662306
C107	C	0.911721	0.297441	0.652311
C108	C	0.844459	0.296310	0.613852
C109	C	0.848162	0.230528	0.585381
C110	C	0.919122	0.165884	0.595372
C111	C	1.072833	0.106682	0.978337
C112	C	1.027818	0.161324	1.032990
C113	C	1.005299	0.234349	1.014626
C114	C	1.027806	0.252732	0.941603
C115	C	1.072827	0.198090	0.886952
C116	C	1.496101	-0.315624	0.373269
C117	C	1.541146	-0.370266	0.318616
C118	C	1.563670	-0.443292	0.336981
C119	C	1.541156	-0.461674	0.410003
C120	C	1.496118	-0.407032	0.464655
C121	C	1.649793	-0.024075	0.405482
C122	C	1.720778	-0.014092	0.340852
C123	C	1.724505	-0.042559	0.275066
C124	C	1.657249	-0.081018	0.273911
C125	C	1.586271	-0.091004	0.338540
C126	C	1.649791	-0.374808	0.756230
C127	C	1.720757	-0.439443	0.766236
C128	C	1.724483	-0.505231	0.737773
C129	C	1.657230	-0.506385	0.699310
C130	C	1.586260	-0.441751	0.689309
H131	H	0.835060	0.007840	0.634575
H132	H	0.786654	-0.174553	1.129166
H133	H	1.559502	-0.521138	0.424948
Br134	Br	1.465563	-0.431994	0.563747
Br135	Br	1.571689	-0.345302	0.219521
H136	H	1.553512	-0.208071	-0.107419
H137	H	1.531514	-0.442701	0.657987
Br138	Br	1.654835	0.228912	0.533221
H139	H	1.646768	-0.000887	0.459042
Br140	Br	1.624794	-0.517441	0.262801
Br141	Br	1.136373	0.276652	0.732816
Br142	Br	1.812021	-0.437860	0.818434
H143	H	1.775530	0.017226	0.341807
Br144	Br	0.924124	0.076620	0.556735
Br145	Br	0.756870	0.229004	0.533189
Br146	Br	0.748162	0.384048	0.600299
Br147	Br	0.756910	-0.247071	1.009174
Br148	Br	0.906628	-0.089320	1.166989
H149	H	1.037412	-0.086631	1.014020
Br150	Br	1.103392	0.007581	1.003280
H151	H	1.553521	0.112282	0.572203
H152	H	1.009495	0.146344	1.092445
H153	H	1.531513	-0.122313	0.337587
H154	H	1.330794	-0.122287	0.337595
Br155	Br	0.914086	0.038132	0.342399
Br156	Br	1.654839	-0.247072	0.009211
H157	H	0.664924	-0.123913	0.794128
Br158	Br	0.944198	0.308499	1.088805
H159	H	1.009465	0.312196	0.926661
Br160	Br	1.136368	-0.047459	0.056925
Br161	Br	1.820840	-0.028999	0.187360
H162	H	1.660296	-0.104193	0.220338
Br163	Br	1.103355	0.223052	0.787860
H164	H	1.646773	-0.321246	0.779409
H165	H	1.782276	-0.557855	0.745921
Br166	Br	0.962083	0.019658	0.211980
Br167	Br	1.465538	-0.216523	0.348327
Br168	Br	1.073945	0.234351	0.714507
H169	H	1.660275	-0.559958	0.676138
H170	H	0.821705	-0.119174	0.796031
H171	H	0.632509	-0.028330	0.773025
Br172	Br	0.906713	0.386706	0.690957
Br173	Br	0.924174	-0.223515	0.856853
Br174	Br	0.638748	0.046328	0.643920
H175	H	0.732779	-0.062860	0.563857
H176	H	0.893033	-0.063154	0.563299
H177	H	0.936626	-0.199308	0.597709
Br178	Br	0.781251	-0.210444	0.559002
H179	H	0.747963	-0.223927	0.691517
H180	H	1.015402	-0.000853	0.459034
H181	H	0.906382	-0.223923	0.692426
H182	H	1.238129	0.233739	0.693620
Br183	Br	0.962072	0.431727	0.799904
Br184	Br	0.914084	0.562142	0.818386
Br185	Br	0.975284	0.714478	0.794879
Br186	Br	0.789387	0.012597	0.780535
Br187	Br	1.606849	-0.228593	0.139624
Br188	Br	1.385021	0.556696	0.637106
H189	H	1.418459	0.479313	0.624225
H190	H	1.238139	-0.086637	0.013999
H191	H	1.552608	0.359966	0.572576
Br192	Br	1.432546	-0.161499	0.294690
