data_functionalizedCrystal
_audit_creation_method	'MofGen! by Chris Wilmer'
_symmetry_space_group_name_H-M	'P1'
_symmetry_Int_Tables_number	1
_symmetry_cell_setting	triclinic
loop_
_symmetry_equiv_pos_as_xyz
  x,y,z
_cell_length_a	11.792241
_cell_length_b	15.538191
_cell_length_c	14.750779
_cell_angle_alpha	82.427217
_cell_angle_beta	102.734008
_cell_angle_gamma	65.732755
loop_
_atom_site_label
_atom_site_type_symbol
_atom_site_fract_x
_atom_site_fract_y
_atom_site_fract_z
O1	O	1.419922	0.149089	-0.079737
O2	O	1.084003	0.162374	-0.079760
O3	O	1.317354	0.018934	-0.079739
O4	O	1.186571	0.292529	-0.079757
O5	O	1.383318	-0.021611	0.079917
O6	O	1.149966	0.121829	0.079897
O7	O	1.485886	0.108545	0.079919
Zn8	Zn	1.328399	0.108750	0.105257
Zn9	Zn	1.241489	0.162169	-0.105097
O10	O	1.252535	0.251985	0.079899
C11	C	1.075042	0.141268	0.000066
C12	C	0.950072	0.138774	0.000057
N13	N	1.387722	0.072292	0.248818
C14	C	1.364018	-0.036364	0.000089
C15	C	1.404774	-0.140730	0.000089
C16	C	0.721297	0.134176	0.000085
C17	C	0.848606	0.136730	0.000070
C18	C	1.494845	0.129651	0.000092
C19	C	1.619813	0.132147	0.000094
C20	C	1.205869	0.307283	0.000068
C21	C	1.165111	0.411650	0.000062
C22	C	1.570025	0.701499	0.000099
C23	C	1.531698	0.799570	0.000096
C24	C	1.316124	0.820916	0.000081
C25	C	1.354430	0.722846	0.000080
C26	C	1.481382	0.663145	0.000090
C27	C	1.265788	0.684492	0.000070
C28	C	1.304094	0.586429	0.000074
C29	C	1.431042	0.526721	0.000087
C30	C	1.519688	0.565082	0.000094
C31	C	1.138839	0.744193	0.000067
C32	C	1.050197	0.705838	0.000057
C33	C	1.088499	0.607776	0.000054
C34	C	1.215447	0.548068	0.000067
C35	C	0.999853	0.569414	0.000048
C36	C	1.038159	0.471352	0.000051
C37	C	1.253753	0.450005	0.000071
N38	N	1.182179	0.198619	-0.248658
C39	C	1.016517	0.300398	0.600603
C40	C	1.058092	0.274857	0.701106
C41	C	1.264737	0.147888	0.701087
C42	C	1.223177	0.173415	0.600582
C43	C	1.099067	0.249671	0.550348
C44	C	1.305726	0.122689	0.550327
C45	C	1.264171	0.148217	0.449831
C46	C	1.140068	0.224472	0.399590
C47	C	1.057512	0.275200	0.449852
C48	C	1.429840	0.046437	0.600563
C49	C	1.512389	-0.004289	0.550308
C50	C	1.470831	0.021235	0.449810
C51	C	1.346727	0.097490	0.399569
C52	C	1.553387	-0.029493	0.399548
C53	C	1.511832	-0.003964	0.299051
C54	C	1.305172	0.123019	0.299073
H55	H	1.357124	0.401396	0.000065
Cl56	Cl	1.643159	0.847778	0.000130
H57	H	1.462226	0.446873	0.000086
H58	H	1.579054	-0.045270	0.258133
Cl59	Cl	0.890606	0.780899	0.000045
Cl60	Cl	1.149136	0.218877	0.235918
Cl61	Cl	1.729618	0.626443	0.000095
H62	H	1.613443	-0.066375	0.591219
H63	H	1.623059	0.516473	0.000088
Cl64	Cl	1.156533	0.895977	0.000069
H65	H	1.106238	0.245260	0.317760
H66	H	1.654444	-0.091575	0.440461
Cl67	Cl	1.090689	0.867470	0.000075
H68	H	0.896492	0.618035	0.000049
H69	H	0.956443	0.337289	0.408950
Cl70	Cl	0.860481	0.396256	0.537448
Cl71	Cl	0.926725	0.423129	0.000046
Cl72	Cl	0.954298	0.338641	0.764277
H73	H	1.365791	0.085802	0.741999
H74	H	1.463671	0.025658	0.682393
