data_functionalizedCrystal
_audit_creation_method	'MofGen! by Chris Wilmer'
_symmetry_space_group_name_H-M	'P1'
_symmetry_Int_Tables_number	1
_symmetry_cell_setting	triclinic
loop_
_symmetry_equiv_pos_as_xyz
  x,y,z
_cell_length_a	14.971486
_cell_length_b	10.489741
_cell_length_c	13.448316
_cell_angle_alpha	89.993703
_cell_angle_beta	89.998199
_cell_angle_gamma	84.076651
loop_
_atom_site_label
_atom_site_type_symbol
_atom_site_fract_x
_atom_site_fract_y
_atom_site_fract_z
O1	O	1.187893	0.166222	-0.082577
O2	O	0.927607	0.186128	-0.082604
O3	O	1.063673	-0.009491	-0.082584
O4	O	1.051827	0.361841	-0.082597
O5	O	1.063655	-0.009503	0.082800
O6	O	0.927589	0.186116	0.082780
O7	O	1.187876	0.166210	0.082807
Cu8	Cu	1.057731	0.176162	0.097894
Cu9	Cu	1.057752	0.176176	-0.097691
O10	O	1.051810	0.361829	0.082787
C11	C	0.894268	0.185232	0.000085
C12	C	0.794956	0.182564	0.000074
C13	C	1.062769	-0.057019	0.000107
C14	C	1.060093	-0.198617	0.000105
C15	C	0.738385	0.297485	0.000072
C16	C	0.645071	0.294971	0.000087
C17	C	0.608330	0.177534	0.000097
C18	C	0.664909	0.062604	0.000103
C19	C	0.758221	0.065120	0.000095
C20	C	0.470416	0.057369	0.000117
C21	C	0.377098	0.054853	0.000123
C22	C	0.357267	0.287220	0.000108
C23	C	0.450579	0.289736	0.000101
C24	C	0.507151	0.174805	0.000104
C25	C	0.973518	-0.265755	0.000089
C26	C	1.014406	-0.358357	0.081636
C27	C	1.014444	-0.358320	-0.081419
C28	C	1.101017	-0.289354	0.081720
C29	C	1.101043	-0.289307	-0.081409
C30	C	1.141994	-0.381882	0.000158
C31	C	1.221215	0.167106	0.000116
C32	C	1.320527	0.169774	0.000120
C33	C	1.052713	0.409357	0.000094
C34	C	1.055390	0.550955	0.000089
N35	N	1.057723	0.176151	0.235459
N36	N	1.057766	0.176177	-0.235255
C37	C	1.117992	0.089567	0.287508
C38	C	1.117998	0.089566	0.391611
C39	C	1.057738	0.176156	0.443663
C40	C	0.997462	0.262745	0.391607
C41	C	0.997453	0.262739	0.287505
C42	C	0.997487	0.262753	0.608587
C43	C	0.997497	0.262761	0.712695
C44	C	1.118032	0.089580	0.712693
C45	C	1.118023	0.089574	0.608591
C46	C	1.057748	0.176165	0.556542
H47	H	0.768291	0.393115	0.000063
H48	H	1.167095	0.019072	0.566211
H49	H	0.948375	0.333243	0.245128
C50	C	0.337088	-0.072559	0.000301
C51	C	0.284080	-0.080764	0.085379
C52	C	0.247201	-0.198113	0.085573
H53	H	0.384052	-0.140754	0.000361
H54	H	0.301047	-0.078390	-0.057339
H55	H	0.320118	-0.074946	0.143004
H56	H	0.237101	-0.012597	0.085337
H57	H	0.211160	-0.203944	0.027933
H58	H	0.294171	-0.266298	0.085631
H59	H	0.211224	-0.203690	0.143292
H60	H	0.902336	-0.215280	0.000164
H61	H	1.137610	-0.258951	0.150739
H62	H	1.213239	-0.432131	0.000211
C63	C	0.583800	0.419882	0.000032
C64	C	0.635948	0.523265	-0.000011
C65	C	0.579537	0.638358	-0.000072
H66	H	0.546973	0.423914	0.057694
H67	H	0.546995	0.423802	-0.057660
H68	H	0.672737	0.519347	0.057674
H69	H	0.672774	0.519276	-0.057669
H70	H	0.542732	0.642278	-0.057764
H71	H	0.542712	0.642376	0.057591
H72	H	0.614911	0.708517	-0.000111
C73	C	0.932010	0.356912	0.552254
C74	C	0.879257	0.432774	0.620117
C75	C	0.818944	0.519541	0.568259
H76	H	0.894394	0.311092	0.511649
H77	H	0.964503	0.410151	0.511655
H78	H	0.846766	0.379542	0.660698
H79	H	0.916848	0.478622	0.660723
H80	H	0.851437	0.572779	0.527661
H81	H	0.781335	0.473710	0.527657
H82	H	0.783150	0.571031	0.614296
C83	C	0.819495	-0.059791	0.000041
C84	C	0.767350	-0.163177	0.000023
C85	C	0.823763	-0.278267	-0.000036
H86	H	0.856330	-0.063827	0.057696
H87	H	0.856292	-0.063705	-0.057658
H88	H	0.730568	-0.159266	0.057717
H89	H	0.730517	-0.159184	-0.057627
H90	H	0.860561	-0.282181	-0.057735
H91	H	0.860596	-0.282290	0.057619
H92	H	0.788391	-0.348428	-0.000057
C93	C	0.965389	-0.399058	0.173467
C94	C	0.877216	-0.339735	0.173074
C95	C	0.832027	-0.377204	0.257642
H96	H	0.995458	-0.374302	0.231448
H97	H	0.964465	-0.489481	0.173108
H98	H	0.878145	-0.249331	0.173443
H99	H	0.847123	-0.364483	0.115113
H100	H	0.831102	-0.467627	0.257283
H101	H	0.862102	-0.352446	0.315617
H102	H	0.772194	-0.336969	0.257382
C103	C	0.624970	-0.064862	-0.000091
C104	C	0.571997	-0.073102	-0.085187
C105	C	0.535203	-0.190514	-0.085410
H106	H	0.588919	-0.070803	0.057516
H107	H	0.672003	-0.132985	-0.000143
H108	H	0.524971	-0.004999	-0.085127
H109	H	0.608028	-0.067184	-0.142808
H110	H	0.582236	-0.258637	-0.085461
H111	H	0.499157	-0.196445	-0.027799
H112	H	0.499264	-0.196126	-0.143151
H113	H	1.137650	-0.258681	-0.150347
H114	H	0.516476	-0.036219	0.000121
H115	H	0.977809	-0.388855	-0.150368
C116	C	1.183546	-0.004482	0.447942
C117	C	1.236341	-0.080280	0.380076
C118	C	1.296747	-0.166917	0.431930
H119	H	1.151152	-0.057786	0.488571
H120	H	1.221118	0.041477	0.488515
H121	H	1.198773	-0.126236	0.339520
H122	H	1.268755	-0.027011	0.339445
H123	H	1.334319	-0.120958	0.472504
H124	H	1.264346	-0.220212	0.472558
H125	H	1.332581	-0.218348	0.385892
H126	H	0.480489	0.385363	0.000083
C127	C	0.295896	0.412048	-0.000095
C128	C	0.312591	0.482734	-0.085204
C129	C	0.256063	0.597719	-0.085437
H130	H	0.307069	0.460348	0.057504
H131	H	0.235047	0.393792	-0.000138
H132	H	0.373426	0.500993	-0.085152
H133	H	0.301412	0.434472	-0.142816
H134	H	0.195214	0.579464	-0.085480
H135	H	0.267240	0.646009	-0.027834
H136	H	0.267377	0.645689	-0.143186
H137	H	1.167067	0.019060	0.245134
C138	C	1.183431	-0.004641	0.769067
C139	C	1.168147	-0.130020	0.743738
C140	C	1.228386	-0.216839	0.795643
H141	H	1.174873	0.007576	0.838537
H142	H	1.243227	0.009288	0.751972
H143	H	1.108366	-0.143943	0.760841
H144	H	1.176713	-0.142277	0.674278
H145	H	1.288182	-0.202911	0.778548
H146	H	1.219822	-0.204611	0.865110
H147	H	1.218030	-0.301918	0.778458
H148	H	0.948426	0.333271	0.755071
H149	H	0.948393	0.333244	0.433993
