data_functionalizedCrystal
_audit_creation_method	'MofGen! by Chris Wilmer'
_symmetry_space_group_name_H-M	'P1'
_symmetry_Int_Tables_number	1
_symmetry_cell_setting	triclinic
loop_
_symmetry_equiv_pos_as_xyz
  x,y,z
_cell_length_a	6.817900
_cell_length_b	14.858329
_cell_length_c	14.858572
_cell_angle_alpha	94.733148
_cell_angle_beta	104.524003
_cell_angle_gamma	104.519616
loop_
_atom_site_label
_atom_site_type_symbol
_atom_site_fract_x
_atom_site_fract_y
_atom_site_fract_z
V1	V	-4.043543	-0.129256	-0.290226
V2	V	-3.710210	0.204077	0.043107
V3	V	-3.376877	0.537410	0.376440
O4	O	-4.025386	0.005609	-0.284429
O5	O	-3.692052	0.338942	0.048904
O6	O	-3.358719	0.672276	0.382238
O7	O	-4.000092	-0.255714	-0.288504
O8	O	-3.666759	0.077619	0.044830
O9	O	-3.333426	0.410953	0.378163
O10	O	-4.000114	-0.127532	-0.416685
O11	O	-3.666780	0.205801	-0.083351
O12	O	-3.333447	0.539134	0.249982
O13	O	-4.025364	-0.123460	-0.155361
O14	O	-3.692031	0.209873	0.177972
O15	O	-3.358698	0.543206	0.511306
V16	V	-4.525886	-0.113094	-0.274064
V17	V	-4.192553	0.220240	0.059270
V18	V	-3.859219	0.553573	0.392603
O19	O	-4.307391	-0.164710	-0.325681
O20	O	-3.974058	0.168623	0.007652
O21	O	-3.640724	0.501956	0.340986
O22	O	-4.712236	-0.077639	-0.238609
O23	O	-4.378902	0.255694	0.094724
O24	O	-4.045569	0.589027	0.428058
O25	O	-4.346130	0.013364	-0.275786
O26	O	-4.012797	0.346698	0.057547
O27	O	-3.679464	0.680031	0.390880
O28	O	-4.661440	-0.247959	-0.279861
O29	O	-4.328107	0.085375	0.053472
O30	O	-3.994774	0.418708	0.386806
O31	O	-4.661462	-0.118890	-0.408929
O32	O	-4.328129	0.214444	-0.075596
O33	O	-3.994795	0.547777	0.257738
O34	O	-4.346109	-0.114818	-0.147605
O35	O	-4.012776	0.218516	0.185728
O36	O	-3.679442	0.551849	0.519061
C37	C	-3.846136	-0.286534	-0.283993
C38	C	-3.512803	0.046800	0.049340
C39	C	-3.179470	0.380133	0.382674
C40	C	-3.891930	-0.389916	-0.283428
C41	C	-3.558597	-0.056583	0.049906
C42	C	-3.225263	0.276750	0.383239
C43	C	-3.846162	-0.123024	-0.447499
C44	C	-3.512829	0.210310	-0.114166
C45	C	-3.179496	0.543643	0.219168
C46	C	-3.891970	-0.122451	-0.550881
C47	C	-3.558637	0.210882	-0.217548
C48	C	-3.225303	0.544216	0.115786
C49	C	-3.929113	-0.473873	-0.282959
C50	C	-3.595780	-0.140540	0.050374
C51	C	-3.262447	0.192793	0.383707
C52	C	-3.975781	-0.579202	-0.282377
C53	C	-3.642447	-0.245868	0.050956
C54	C	-3.309114	0.087465	0.384290
C55	C	-4.012992	-0.663153	-0.281914
C56	C	-3.679658	-0.329820	0.051420
C57	C	-3.346325	0.003514	0.384753
C58	C	-4.059662	-0.768488	-0.281329
C59	C	-3.726329	-0.435155	0.052004
C60	C	-3.392996	-0.101821	0.385337
C61	C	-4.059628	-0.120358	-0.929445
C62	C	-3.726294	0.212976	-0.596111
C63	C	-3.392961	0.546309	-0.262778
C64	C	-4.012972	-0.120940	-0.824117
C65	C	-3.679638	0.212393	-0.490783
C66	C	-3.346305	0.545727	-0.157450
C67	C	-3.975800	-0.121405	-0.740166
C68	C	-3.642467	0.211928	-0.406833
C69	C	-3.309134	0.545262	-0.073500
C70	C	-3.929142	-0.121986	-0.634831
C71	C	-3.595808	0.211347	-0.301498
C72	C	-3.262475	0.544681	0.031835
C73	C	-4.163428	0.044179	-0.280294
C74	C	-3.830095	0.377512	0.053039
C75	C	-3.496762	0.710846	0.386372
C76	C	-4.096873	0.147561	-0.280866
C77	C	-3.763540	0.480894	0.052467
C78	C	-3.430207	0.814227	0.385801
C79	C	-4.163402	-0.119329	-0.116786
C80	C	-3.830069	0.214004	0.216547
C81	C	-3.496736	0.547338	0.549881
C82	C	-4.096833	-0.119897	-0.013403
C83	C	-3.763500	0.213436	0.319930
C84	C	-3.430166	0.546769	0.653263
