data_functionalizedCrystal
_audit_creation_method	'MofGen! by Chris Wilmer'
_symmetry_space_group_name_H-M	'P1'
_symmetry_Int_Tables_number	1
_symmetry_cell_setting	triclinic
loop_
_symmetry_equiv_pos_as_xyz
  x,y,z
_cell_length_a	19.188930
_cell_length_b	14.044220
_cell_length_c	13.101039
_cell_angle_alpha	93.667477
_cell_angle_beta	86.639939
_cell_angle_gamma	88.166828
loop_
_atom_site_label
_atom_site_type_symbol
_atom_site_fract_x
_atom_site_fract_y
_atom_site_fract_z
O1	O	0.937307	0.113041	-0.085551
O2	O	1.437307	0.613041	0.414449
O3	O	0.735021	0.128972	-0.085481
O4	O	1.235021	0.628972	0.414519
O5	O	0.833127	-0.016965	-0.085505
O6	O	1.333127	0.483035	0.414495
O7	O	0.839201	0.258978	-0.085527
O8	O	1.339201	0.758978	0.414473
O9	O	0.826089	-0.006477	0.084927
O10	O	1.326089	0.493523	0.584927
O11	O	0.727983	0.139460	0.084950
O12	O	1.227983	0.639460	0.584950
O13	O	0.930269	0.123529	0.084881
O14	O	1.430269	0.623529	0.584881
Zn15	Zn	0.828009	0.133160	0.111975
Zn16	Zn	1.328009	0.633160	0.611975
Zn17	Zn	0.837282	0.119341	-0.112576
Zn18	Zn	1.337282	0.619341	0.387424
O19	O	0.832163	0.269466	0.084904
O20	O	1.332163	0.769466	0.584904
C21	C	0.826950	-0.047024	-0.000288
C22	C	1.326950	0.452976	0.499712
C23	C	0.819021	-0.152217	-0.000284
C24	C	1.319021	0.347783	0.499716
C25	C	0.705457	0.133701	-0.000256
C26	C	1.205457	0.633701	0.499744
C27	C	0.627852	0.132154	-0.000229
C28	C	1.127852	0.632154	0.499771
C29	C	0.804526	-0.344819	-0.000293
C30	C	1.304526	0.155181	0.499707
C31	C	0.860762	-0.402686	-0.000316
C32	C	1.360762	0.097314	0.499684
C33	C	0.852696	-0.509857	-0.000321
C34	C	1.352696	-0.009857	0.499679
C35	C	0.812590	-0.237638	-0.000288
C36	C	1.312590	0.262362	0.499712
C37	C	0.588454	0.217783	-0.000252
C38	C	1.088454	0.717783	0.499748
C39	C	0.515537	0.216328	-0.000263
C40	C	1.015537	0.716328	0.499737
C41	C	0.482021	0.129238	-0.000272
C42	C	0.982021	0.629238	0.499728
C43	C	0.521427	0.043598	-0.000243
C44	C	1.021427	0.543598	0.499757
C45	C	0.594343	0.045056	-0.000222
C46	C	1.094343	0.545056	0.499778
N47	N	0.372142	0.059097	-0.058313
N48	N	0.872142	0.559097	0.441687
N49	N	0.302875	0.057717	-0.058336
N50	N	0.802875	0.557717	0.441664
C51	C	0.262331	0.124839	-0.000335
C52	C	0.762331	0.624839	0.499665
N53	N	0.293671	0.193406	0.057677
N54	N	0.793671	0.693406	0.557677
N55	N	0.362944	0.194788	0.057695
N56	N	0.862944	0.694788	0.557695
C57	C	0.402957	0.127647	-0.000295
C58	C	0.902957	0.627647	0.499705
C59	C	0.143869	0.208896	-0.000368
C60	C	0.643869	0.708896	0.499632
C61	C	0.070950	0.207437	-0.000373
C62	C	0.570950	0.707437	0.499627
C63	C	0.076842	0.034705	-0.000363
C64	C	0.576842	0.534705	0.499637
C65	C	0.149759	0.036166	-0.000348
C66	C	0.649759	0.536166	0.499652
C67	C	0.183268	0.123264	-0.000355
C68	C	0.683268	0.623264	0.499645
C69	C	0.959833	0.118800	-0.000346
C70	C	1.459833	0.618800	0.499654
C71	C	1.037439	0.120346	-0.000380
C72	C	1.537439	0.620346	0.499620
C73	C	0.838340	0.299525	-0.000315
C74	C	1.338340	0.799525	0.499685
C75	C	0.846269	0.404717	-0.000326
C76	C	1.346269	0.904717	0.499674
N77	N	0.821685	0.142590	0.265225
N78	N	1.321685	0.642590	0.765225
N79	N	0.843610	0.109904	-0.265826
N80	N	1.343610	0.609904	0.234174
C81	C	0.813083	0.155429	0.474270
C82	C	1.313083	0.655429	0.974270
C83	C	0.852211	0.097068	0.525136
C84	C	1.352211	0.597068	1.025136
C85	C	0.847424	0.104212	0.641456
C86	C	1.347424	0.604212	1.141456
C87	C	0.817868	0.148286	0.357940
C88	C	1.317868	0.648286	0.857940
H89	H	0.914967	-0.371745	-0.000403
H90	H	1.414967	0.128255	0.499597
H91	H	0.750328	-0.375762	-0.000277
H92	H	1.250328	0.124238	0.499723
C93	C	0.472627	0.309201	-0.000243
C94	C	0.972627	0.809201	0.499757
C95	C	0.401598	0.289281	-0.000238
C96	C	0.901598	0.789281	0.499762
C97	C	0.362051	0.374812	-0.000207
C98	C	0.862051	0.874812	0.499793
H99	H	0.485752	0.341332	-0.059663
H100	H	0.985752	0.841332	0.440337
H101	H	0.480850	0.348599	0.059211
H102	H	0.980850	0.848599	0.559211
H103	H	0.393380	0.249899	-0.059687
H104	H	0.893380	0.749899	0.440313
H105	H	0.388453	0.257163	0.059177
H106	H	0.888453	0.757163	0.559177
H107	H	0.370274	0.414209	0.059247
H108	H	0.870274	0.914209	0.559247
H109	H	0.375181	0.406937	-0.059628
H110	H	0.875181	0.906937	0.440372
H111	H	0.313853	0.361308	-0.000194
H112	H	0.813853	0.861308	0.499806
H113	H	0.615733	0.288704	-0.000260
H114	H	1.115733	0.788704	0.499740
H115	H	0.889304	0.041740	0.481325
H116	H	1.389304	0.541740	0.981325
C117	C	0.484915	-0.050865	-0.000308
C118	C	0.984915	0.449135	0.499692
C119	C	0.412627	-0.033817	-0.000362
C120	C	0.912627	0.466183	0.499638
C121	C	0.378971	-0.120817	-0.000430
C122	C	0.878971	0.379183	0.499570
H123	H	0.495519	-0.082527	0.059116
H124	H	0.995519	0.417473	0.559116
H125	H	0.500509	-0.089778	-0.059758
H126	H	1.000509	0.410222	0.440242
H127	H	0.397038	0.005081	0.059083
H128	H	0.897038	0.505081	0.559083
H129	H	0.402002	-0.002169	-0.059781
H130	H	0.902002	0.497831	0.440219
H131	H	0.394565	-0.159730	-0.059880
H132	H	0.894565	0.340270	0.440120
H133	H	0.389581	-0.152472	0.058995
H134	H	0.889581	0.347528	0.558995
H135	H	0.329921	-0.109263	-0.000476
H136	H	0.829921	0.390737	0.499524
C137	C	0.637001	-0.048023	-0.000258
C138	C	1.137001	0.451977	0.499742
C139	C	0.592048	-0.124609	-0.000289
C140	C	1.092048	0.375391	0.499711
C141	C	0.631322	-0.210369	-0.000339
C142	C	1.131322	0.289631	0.499661
H143	H	0.663107	-0.047523	0.059165
H144	H	1.163107	0.452477	0.559165
H145	H	0.668025	-0.054753	-0.059709
H146	H	1.168025	0.445247	0.440291
H147	H	0.561037	-0.117881	0.059157
H148	H	1.061037	0.382119	0.559157
H149	H	0.565941	-0.125140	-0.059707
H150	H	1.065941	0.374860	0.440293
H151	H	0.662345	-0.217100	-0.059791
H152	H	1.162345	0.282900	0.440209
H153	H	0.657426	-0.209860	0.059085
H154	H	1.157426	0.290140	0.559085
H155	H	0.600828	-0.262344	-0.000370
H156	H	1.100828	0.237656	0.499630
C157	C	0.763511	0.229092	0.532627
C158	C	1.263511	0.729092	1.032627
C159	C	0.694987	0.212542	0.506684
C160	C	1.194987	0.712542	1.006684
C161	C	0.649305	0.280373	0.560446
C162	C	1.149305	0.780373	1.060446
H163	H	0.775726	0.291268	0.515144
H164	H	1.275726	0.791268	1.015144
H165	H	0.766782	0.224141	0.604185
H166	H	1.266782	0.724141	1.104185
H167	H	0.691718	0.217501	0.435142
H168	H	1.191718	0.717501	0.935142
H169	H	0.682750	0.150379	0.524169
H170	H	1.182750	0.650379	1.024169
H171	H	0.652576	0.275422	0.632004
H172	H	1.152576	0.775422	1.132004
H173	H	0.661526	0.342545	0.542959
H174	H	1.161526	0.842545	1.042959
H175	H	0.602805	0.269148	0.542859
H176	H	1.102805	0.769148	1.042859
H177	H	0.171153	0.279817	-0.000359
H178	H	0.671153	0.779817	0.499641
H179	H	0.038873	0.277170	-0.000386
H180	H	0.538873	0.777170	0.499614
H181	H	0.049557	-0.036210	-0.000434
H182	H	0.549557	0.463790	0.499566
H183	H	0.181837	-0.033562	-0.000335
H184	H	0.681837	0.466438	0.499665
