data_functionalizedCrystal
_audit_creation_method	'MofGen! by Chris Wilmer'
_symmetry_space_group_name_H-M	'P1'
_symmetry_Int_Tables_number	1
_symmetry_cell_setting	triclinic
loop_
_symmetry_equiv_pos_as_xyz
  x,y,z
_cell_length_a	15.995350
_cell_length_b	15.995350
_cell_length_c	15.072220
_cell_angle_alpha	89.998899
_cell_angle_beta	89.991149
_cell_angle_gamma	96.507625
loop_
_atom_site_label
_atom_site_type_symbol
_atom_site_fract_x
_atom_site_fract_y
_atom_site_fract_z
O1	O	1.110996	-0.107921	-0.073703
O2	O	1.610996	0.392079	0.426297
O3	O	0.867221	-0.121249	-0.073721
O4	O	1.367221	0.378751	0.426279
O5	O	0.995772	0.007303	-0.073710
O6	O	1.495772	0.507303	0.426290
O7	O	0.982444	-0.236472	-0.073713
O8	O	1.482444	0.263528	0.426287
O9	O	0.995740	0.007296	0.073855
O10	O	1.495740	0.507296	0.573855
O11	O	0.867189	-0.121256	0.073844
O12	O	1.367189	0.378744	0.573844
O13	O	1.110964	-0.107928	0.073862
O14	O	1.610964	0.392072	0.573862
Zn15	Zn	0.989071	-0.114593	0.097283
Zn16	Zn	1.489071	0.385407	0.597283
Zn17	Zn	0.989113	-0.114584	-0.097141
Zn18	Zn	1.489113	0.385416	0.402859
O19	O	0.982413	-0.236480	0.073852
O20	O	1.482413	0.263520	0.573852
C21	C	0.836010	-0.120701	0.000060
C22	C	1.336010	0.379299	0.500060
C23	C	0.743060	-0.119049	0.000053
C24	C	1.243060	0.380951	0.500053
C25	C	0.405312	-0.113117	0.000071
C26	C	0.905312	0.386883	0.500071
C27	C	0.452746	-0.021565	0.000401
C28	C	0.952746	0.478435	0.500401
C29	C	0.549436	-0.023217	0.000063
C30	C	1.049436	0.476783	0.500063
C31	C	0.572873	-0.116060	0.000063
C32	C	1.072873	0.383940	0.500063
C33	C	0.531804	-0.161212	-0.084201
C34	C	1.031804	0.338788	0.415799
C35	C	0.435168	-0.158912	-0.084266
C36	C	0.935168	0.341088	0.415734
C37	C	0.434793	-0.160812	0.083543
C38	C	0.934793	0.339188	0.583543
C39	C	0.531738	-0.160790	0.084651
C40	C	1.031738	0.339210	0.584651
C41	C	0.667570	-0.117727	0.000055
C42	C	1.167570	0.382273	0.500055
C43	C	0.310614	-0.111452	0.000073
C44	C	0.810614	0.388548	0.500073
C45	C	0.995205	0.038494	0.000070
C46	C	1.495205	0.538494	0.500070
C47	C	0.993553	0.131444	0.000065
C48	C	1.493553	0.631444	0.500065
C49	C	1.142175	-0.108476	0.000080
C50	C	1.642175	0.391524	0.500080
C51	C	1.235125	-0.110127	0.000081
C52	C	1.735125	0.389873	0.500081
C53	C	0.982980	-0.267671	0.000069
C54	C	1.482980	0.232329	0.500069
C55	C	0.984631	-0.360621	0.000069
C56	C	1.484631	0.139379	0.500069
N57	N	0.989049	-0.114599	0.229971
N58	N	1.489049	0.385401	0.729971
C59	C	0.987621	0.469192	0.000068
C60	C	1.487621	0.969192	0.500068
C61	C	0.896069	0.421758	-0.000270
C62	C	1.396069	0.921758	0.499730
C63	C	0.897721	0.325068	0.000063
C64	C	1.397721	0.825068	0.500063
C65	C	0.990564	0.301631	0.000066
C66	C	1.490564	0.801631	0.500066
C67	C	1.035702	0.342705	0.084335
C68	C	1.535702	0.842705	0.584335
C69	C	1.033402	0.439341	0.084405
C70	C	1.533402	0.939341	0.584405
C71	C	1.035330	0.439707	-0.083404
C72	C	1.535330	0.939707	0.416596
C73	C	1.035308	0.342761	-0.084518
C74	C	1.535308	0.842761	0.415482
C75	C	0.992231	0.206934	0.000068
C76	C	1.492231	0.706934	0.500068
C77	C	0.985956	0.563890	0.000072
C78	C	1.485956	1.063890	0.500072
N79	N	0.989142	-0.114571	-0.229830
N80	N	1.489142	0.385429	0.270170
C81	C	0.989112	-0.114580	0.589173
C82	C	1.489112	0.385420	1.089173
C83	C	0.920095	-0.183135	0.551560
C84	C	1.420095	0.316865	1.051560
C85	C	0.920254	-0.183385	0.448735
C86	C	1.420254	0.316615	0.948735
C87	C	0.989080	-0.114590	0.410969
C88	C	1.489080	0.385410	0.910969
C89	C	1.076445	-0.133671	0.448266
C90	C	1.576445	0.366329	0.948266
C91	C	1.076058	-0.134159	0.551124
C92	C	1.576058	0.365841	1.051124
C93	C	0.971542	-0.026741	0.551272
C94	C	1.471542	0.473259	1.051272
C95	C	0.969537	-0.027327	0.448409
C96	C	1.469537	0.472673	0.948409
C97	C	0.989067	-0.114593	0.310255
C98	C	1.489067	0.385407	0.810255
C99	C	0.989130	-0.114579	0.689886
C100	C	1.489130	0.385421	1.189886
H101	H	0.577307	0.012521	-0.060446
H102	H	1.077307	0.512521	0.439554
N103	N	0.833793	-0.168334	0.584352
N104	N	1.333793	0.331666	1.084352
H105	H	0.838592	-0.117048	0.623910
H106	H	1.338592	0.382952	1.123910
H107	H	0.808542	-0.219054	0.619021
H108	H	1.308542	0.280946	1.119021
H109	H	1.102831	0.471468	-0.083968
H110	H	1.602831	0.971468	0.416032
N111	N	1.124995	0.322424	-0.091261
N112	N	1.624995	0.822424	0.408739
H113	H	1.125503	0.259440	-0.095019
H114	H	1.625503	0.759440	0.404981
H115	H	1.157422	0.344593	-0.037083
H116	H	1.657422	0.844593	0.462917
N117	N	0.426789	0.026693	-0.079189
N118	N	0.926789	0.526693	0.420811
H119	H	0.441300	-0.003000	-0.135318
H120	H	0.941300	0.497000	0.364682
H121	H	0.457546	0.085427	-0.078398
H122	H	0.957546	0.585427	0.421602
H123	H	1.002306	0.315516	-0.146857
H124	H	1.502306	0.815516	0.353143
H125	H	0.434211	0.015027	0.060830
H126	H	0.934211	0.515027	0.560830
N127	N	1.126062	0.324028	0.088479
N128	N	1.626062	0.824028	0.588479
H129	H	1.138635	0.288672	0.035648
H130	H	1.638635	0.788672	0.535648
H131	H	1.135370	0.292376	0.144949
H132	H	1.635370	0.792376	0.644949
H133	H	0.545929	-0.229421	-0.087335
H134	H	1.045929	0.270579	0.412665
H135	H	0.861974	0.297200	0.060568
H136	H	1.361974	0.797200	0.560568
N137	N	1.031803	0.043417	0.414374
N138	N	1.531803	0.543417	0.914374
H139	H	1.000940	0.084763	0.380222
H140	H	1.500940	0.584763	0.880222
H141	H	1.073729	0.019725	0.374061
H142	H	1.573729	0.519725	0.874061
H143	H	0.416873	-0.125979	-0.147255
H144	H	0.916873	0.374021	0.352745
N145	N	1.097443	-0.217563	0.414146
N146	N	1.597443	0.282437	0.914146
H147	H	1.153768	-0.229278	0.438516
H148	H	1.653768	0.270722	0.938516
H149	H	1.099939	-0.216168	0.347200
H150	H	1.599939	0.283832	0.847200
N151	N	0.994156	0.305102	0.167403
N152	N	1.494156	0.805102	0.667403
H153	H	0.946104	0.261472	0.150641
H154	H	1.446104	0.761472	0.650641
H155	H	0.971923	0.350961	0.203523
H156	H	1.471923	0.850961	0.703523
N157	N	0.989766	0.463580	0.167840
N158	N	1.489766	0.963580	0.667840
H159	H	0.930528	0.434036	0.169260
H160	H	1.430528	0.934036	0.669260
H161	H	0.987897	0.526477	0.168673
H162	H	1.487897	1.026477	0.668673
N163	N	0.834236	-0.168330	0.415324
N164	N	1.334236	0.331670	0.915324
H165	H	0.795873	-0.161472	0.467415
H166	H	1.295873	0.338528	0.967415
H167	H	0.810176	-0.217868	0.378201
H168	H	1.310176	0.282132	0.878201
N169	N	0.934772	-0.269003	0.585740
N170	N	1.434772	0.230997	1.085740
H171	H	0.985929	-0.263687	0.625487
H172	H	1.485929	0.236313	1.125487
H173	H	0.944212	-0.306955	0.534009
H174	H	1.444212	0.193045	1.034009
H175	H	0.931473	-0.248570	0.424121
H176	H	1.431473	0.251430	0.924121
H177	H	0.577852	0.012275	0.060467
H178	H	1.077852	0.512275	0.560467
H179	H	1.091540	-0.198219	0.575106
H180	H	1.591540	0.301781	1.075106
N181	N	0.567900	-0.117134	0.167229
N182	N	1.067900	0.382866	0.667229
H183	H	0.556017	-0.056453	0.166697
H184	H	1.056017	0.443547	0.666697
H185	H	0.630698	-0.119579	0.168847
H186	H	1.130698	0.380421	0.668847
N187	N	1.146100	-0.070509	0.584089
N188	N	1.646100	0.429491	1.084089
H189	H	1.177096	-0.042265	0.531801
H190	H	1.677096	0.457735	1.031801
H191	H	1.186446	-0.099913	0.621235
H192	H	1.686446	0.400087	1.121235
N193	N	0.392444	-0.247943	-0.089296
N194	N	0.892444	0.252057	0.410704
H195	H	0.436411	-0.288508	-0.091471
H196	H	0.936411	0.211492	0.408529
H197	H	0.356552	-0.254668	-0.144516
H198	H	0.856552	0.245332	0.355484
H199	H	0.547102	-0.228494	0.089741
H200	H	1.047102	0.271506	0.589741
H201	H	1.129029	-0.085068	0.423801
H202	H	1.629029	0.414932	0.923801
N203	N	0.569400	-0.119670	-0.167274
N204	N	1.069400	0.380330	0.332726
H205	H	0.613025	-0.071612	-0.150517
H206	H	1.113025	0.428388	0.349483
H207	H	0.523533	-0.097445	-0.203380
H208	H	1.023533	0.402555	0.296620
N209	N	0.392728	-0.250225	0.084304
N210	N	0.892728	0.249775	0.584304
H211	H	0.354756	-0.259827	0.030872
H212	H	0.854756	0.240173	0.530872
H213	H	0.358279	-0.260228	0.140246
H214	H	0.858279	0.239772	0.640246
H215	H	0.909219	-0.008392	0.577258
H216	H	1.409219	0.491608	1.077258
N217	N	0.884381	-0.008168	0.416183
N218	N	1.384381	0.491832	0.916183
H219	H	0.858566	-0.055806	0.377484
H220	H	1.358566	0.444194	0.877484
H221	H	0.891054	0.045771	0.380754
H222	H	1.391054	0.545771	0.880754
H223	H	0.414244	-0.130885	0.147414
H224	H	0.914244	0.369115	0.647414
H225	H	0.862238	0.296649	-0.060344
H226	H	1.362238	0.796649	0.439656
N227	N	1.038197	0.040848	0.583487
N228	N	1.538197	0.540848	1.083487
H229	H	1.095318	0.027782	0.562672
H230	H	1.595318	0.527782	1.062672
H231	H	1.037278	0.042874	0.650450
H232	H	1.537278	0.542874	1.150450
N233	N	0.847606	0.446307	-0.080312
N234	N	1.347606	0.946307	0.419688
H235	H	0.884522	0.488416	-0.117133
H236	H	1.384522	0.988416	0.382867
H237	H	0.796127	0.472243	-0.060131
H238	H	1.296127	0.972243	0.439869
H239	H	0.859626	0.441349	0.059819
H240	H	1.359626	0.941349	0.559819
H241	H	1.100617	0.471588	0.088231
H242	H	1.600617	0.971588	0.588231
N243	N	0.995706	0.466917	-0.168011
N244	N	1.495706	0.966917	0.331989
H245	H	0.946423	0.498639	-0.153085
H246	H	1.446423	0.998639	0.346915
H247	H	0.975545	0.415664	-0.204579
H248	H	1.475545	0.915664	0.295421
