data_functionalizedCrystal
_audit_creation_method	'MofGen! by Chris Wilmer'
_symmetry_space_group_name_H-M	'P1'
_symmetry_Int_Tables_number	1
_symmetry_cell_setting	triclinic
loop_
_symmetry_equiv_pos_as_xyz
  x,y,z
_cell_length_a	10.686220
_cell_length_b	13.897448
_cell_length_c	10.685986
_cell_angle_alpha	85.588833
_cell_angle_beta	99.031303
_cell_angle_gamma	94.399460
loop_
_atom_site_label
_atom_site_type_symbol
_atom_site_fract_x
_atom_site_fract_y
_atom_site_fract_z
Zn1	Zn	1.885508	-0.239863	-0.569019
Zn2	Zn	2.218842	0.093470	-0.235685
Zn3	Zn	2.552175	0.426804	0.097648
Zn4	Zn	1.901630	-0.412700	-0.356776
Zn5	Zn	2.234964	-0.079366	-0.023443
Zn6	Zn	2.568297	0.253967	0.309891
Zn7	Zn	1.689507	-0.262920	-0.373048
Zn8	Zn	2.022840	0.070413	-0.039714
Zn9	Zn	2.356173	0.403747	0.293619
Zn10	Zn	1.673228	-0.412631	-0.585220
Zn11	Zn	2.006561	-0.079298	-0.251887
Zn12	Zn	2.339894	0.254036	0.081447
O13	O	1.787468	-0.332028	-0.471016
O14	O	2.120802	0.001305	-0.137682
O15	O	2.454135	0.334638	0.195651
O16	O	2.065262	-0.253169	-0.527274
O17	O	2.398595	0.080164	-0.193941
O18	O	2.731928	0.413497	0.139393
O19	O	1.887052	-0.402509	-0.181315
O20	O	2.220385	-0.069176	0.152018
O21	O	2.553718	0.264157	0.485351
O22	O	1.715573	-0.124874	-0.399073
O23	O	2.048906	0.208459	-0.065740
O24	O	2.382239	0.541792	0.267594
O25	O	2.077106	-0.380152	-0.371340
O26	O	2.410440	-0.046818	-0.038007
O27	O	2.743773	0.286515	0.295326
O28	O	1.859574	-0.107934	-0.543052
O29	O	2.192907	0.225399	-0.209719
O30	O	2.526241	0.558732	0.123615
O31	O	1.731206	-0.292467	-0.193270
O32	O	2.064539	0.040866	0.140063
O33	O	2.397872	0.374200	0.473397
O34	O	1.509733	-0.292400	-0.414783
O35	O	1.843066	0.040933	-0.081450
O36	O	2.176399	0.374266	0.251884
O37	O	1.687827	-0.380035	-0.760690
O38	O	2.021160	-0.046701	-0.427357
O39	O	2.354494	0.286632	-0.094023
O40	O	1.497772	-0.402392	-0.570665
O41	O	1.831106	-0.069059	-0.237332
O42	O	2.164439	0.264274	0.096002
O43	O	1.843789	-0.253103	-0.748787
O44	O	2.177122	0.080231	-0.415454
O45	O	2.510455	0.413564	-0.082120
O46	O	1.871266	-0.547678	-0.387050
O47	O	2.204600	-0.214344	-0.053717
O48	O	2.537933	0.118989	0.279617
O49	O	1.703460	-0.547627	-0.554887
O50	O	2.036793	-0.214294	-0.221554
O51	O	2.370127	0.119039	0.111780
C52	C	1.457699	-0.349892	-0.496249
C53	C	1.791032	-0.016558	-0.162915
C54	C	2.124366	0.316775	0.170418
C55	C	1.316620	-0.357555	-0.507073
C56	C	1.649953	-0.024222	-0.173740
C57	C	1.983286	0.309112	0.159593
C58	C	1.787378	-0.582650	-0.470986
C59	C	2.120712	-0.249316	-0.137653
C60	C	2.454045	0.084017	0.195681
C61	C	1.787453	-0.689858	-0.471007
C62	C	2.120786	-0.356525	-0.137673
C63	C	2.454120	-0.023191	0.195660
C64	C	1.787580	-0.886142	-0.471076
C65	C	2.120913	-0.552808	-0.137743
C66	C	2.454247	-0.219475	0.195590
C67	C	1.787505	-0.776916	-0.471042
C68	C	2.120839	-0.443582	-0.137708
C69	C	2.454172	-0.110249	0.195625
C70	C	2.118525	-0.314096	-0.445685
C71	C	2.451859	0.019237	-0.112351
C72	C	2.785192	0.352571	0.220982
C73	C	2.259602	-0.306454	-0.434890
C74	C	2.592935	0.026879	-0.101557
C75	C	2.926269	0.360212	0.231776
C76	C	1.762194	-0.313989	-0.802081
C77	C	2.095527	0.019344	-0.468748
C78	C	2.428860	0.352677	-0.135414
C79	C	1.751423	-0.306302	-0.943161
C80	C	2.084756	0.027031	-0.609828
C81	C	2.418090	0.360365	-0.276494
C82	C	1.787591	-0.080425	-0.471070
C83	C	2.120924	0.252908	-0.137737
C84	C	2.454258	0.586242	0.195596
C85	C	1.787643	0.026793	-0.471094
C86	C	2.120976	0.360127	-0.137761
C87	C	2.454310	0.693460	0.195573
C88	C	1.812718	-0.349924	-0.141233
C89	C	2.146051	-0.016591	0.192101
C90	C	2.479384	0.316743	0.525434
C91	C	1.823734	-0.357326	-0.000134
C92	C	2.157067	-0.023993	0.333199
C93	C	2.490401	0.309341	0.666532
H94	H	1.318717	-0.256843	-0.364809
H95	H	1.652050	0.076490	-0.031475
H96	H	1.985383	0.409824	0.301858
F97	F	1.239350	-0.422416	-0.598670
F98	F	1.572684	-0.089083	-0.265337
F99	F	1.906017	0.244250	0.067996
H100	H	1.681281	-0.256737	-1.002314
H101	H	2.014614	0.076596	-0.668981
H102	H	2.347948	0.409929	-0.335648
F103	F	1.915436	-0.422105	-0.922813
F104	F	2.248769	-0.088772	-0.589479
F105	F	2.582102	0.244562	-0.256146
