data_functionalizedCrystal
_audit_creation_method	'MofGen! by Chris Wilmer'
_symmetry_space_group_name_H-M	'P1'
_symmetry_Int_Tables_number	1
_symmetry_cell_setting	triclinic
loop_
_symmetry_equiv_pos_as_xyz
  x,y,z
_cell_length_a	10.489741
_cell_length_b	10.654549
_cell_length_c	9.130313
_cell_angle_alpha	89.994521
_cell_angle_beta	89.998131
_cell_angle_gamma	84.511976
loop_
_atom_site_label
_atom_site_type_symbol
_atom_site_fract_x
_atom_site_fract_y
_atom_site_fract_z
O1	O	-1.693968	-0.177195	0.121705
O2	O	-1.322764	-0.193828	0.121728
O3	O	-1.516901	-0.002776	0.121710
O4	O	-1.499831	-0.368247	0.121723
O5	O	-1.516884	-0.002764	-0.121889
O6	O	-1.322747	-0.193815	-0.121871
O7	O	-1.693951	-0.177183	-0.121893
Cu8	Cu	-1.508348	-0.185498	-0.144125
Cu9	Cu	-1.508367	-0.185513	0.143959
O10	O	-1.499814	-0.368234	-0.121876
C11	C	-1.275225	-0.192565	-0.000069
C12	C	-1.133597	-0.188807	-0.000060
C13	C	-1.515639	0.044029	-0.000088
C14	C	-1.511890	0.183474	-0.000083
C15	C	-1.741490	-0.178445	-0.000094
C16	C	-1.883118	-0.182204	-0.000093
C17	C	-1.065516	-0.067246	-0.000078
C18	C	-0.973369	-0.124677	0.120028
C19	C	-0.973387	-0.124693	-0.120142
C20	C	-1.043316	-0.246287	0.120145
C21	C	-1.043343	-0.246287	-0.120132
C22	C	-0.951224	-0.303805	0.000003
C23	C	-1.501076	-0.415039	-0.000075
C24	C	-1.504825	-0.554484	-0.000070
C25	C	-1.622662	0.393936	-0.000080
C26	C	-1.626194	0.262914	-0.000091
C27	C	-1.394044	0.235061	-0.000078
C28	C	-1.390513	0.366081	-0.000076
N29	N	-1.508343	-0.185487	-0.346747
C30	C	-1.430342	-0.108590	-0.576792
C31	C	-1.430326	-0.108573	-0.423455
C32	C	-1.586392	-0.262414	-0.423385
C33	C	-1.586414	-0.262423	-0.576719
N34	N	-1.508382	-0.185514	0.346582
H35	H	-1.115254	0.032684	0.000068
O36	O	-1.079973	-0.307802	0.241321
C37	C	-1.020233	-0.432103	0.241620
H38	H	-0.992265	-0.461185	0.124944
H39	H	-1.089347	-0.498703	0.287064
H40	H	-0.930783	-0.436935	0.313091
O41	O	-1.733785	0.470972	0.000110
C42	C	-1.805259	0.447438	0.126281
H43	H	-1.774821	0.348346	0.168344
H44	H	-1.911563	0.455695	0.097895
H45	H	-1.787192	0.519240	0.214628
O46	O	-1.282971	0.157950	-0.000325
C47	C	-1.211465	0.181521	-0.126460
H48	H	-1.278399	0.225687	-0.214653
H49	H	-1.161128	0.089043	-0.168795
H50	H	-1.137046	0.248891	-0.097931
H51	H	-0.901752	-0.403841	0.000072
O52	O	-1.080323	-0.307407	-0.241418
C53	C	-1.045048	-0.243004	-0.367813
H54	H	-1.033874	-0.140521	-0.339041
H55	H	-1.122412	-0.246762	-0.454965
H56	H	-0.950339	-0.289650	-0.411640
H57	H	-0.942387	-0.073247	0.221567
H58	H	-1.722148	0.220925	-0.000102
H59	H	-1.294551	0.408076	-0.000075
O60	O	-0.936407	-0.063129	-0.241132
C61	C	-0.873595	0.042119	-0.198022
H62	H	-0.904929	0.071614	-0.082501
H63	H	-0.899473	0.123530	-0.276902
H64	H	-0.765596	0.016320	-0.199805
H65	H	-1.366804	-0.045965	-0.639236
H66	H	-1.366779	-0.045933	-0.361072
O67	O	-1.662107	-0.337307	-0.349036
C68	C	-1.627866	-0.464452	-0.386461
H69	H	-1.578462	-0.469371	-0.497804
H70	H	-1.717623	-0.516753	-0.391671
H71	H	-1.559827	-0.510045	-0.300172
O72	O	-1.662408	-0.337083	-0.651000
C73	C	-1.791569	-0.303506	-0.613537
H74	H	-1.796601	-0.254845	-0.502213
H75	H	-1.844582	-0.391943	-0.608265
H76	H	-1.837967	-0.236581	-0.699835
