data_functionalizedCrystal
_audit_creation_method	'MofGen! by Chris Wilmer'
_symmetry_space_group_name_H-M	'P1'
_symmetry_Int_Tables_number	1
_symmetry_cell_setting	triclinic
loop_
_symmetry_equiv_pos_as_xyz
  x,y,z
_cell_length_a	11.792254
_cell_length_b	11.792254
_cell_length_c	8.140239
_cell_angle_alpha	89.996301
_cell_angle_beta	89.997328
_cell_angle_gamma	84.198598
loop_
_atom_site_label
_atom_site_type_symbol
_atom_site_fract_x
_atom_site_fract_y
_atom_site_fract_z
O1	O	1.506905	0.155634	-0.136613
O2	O	1.756905	0.405634	0.113387
O3	O	2.006905	0.655634	0.363387
O4	O	2.256905	0.905634	0.613387
O5	O	1.176566	0.171652	-0.136617
O6	O	1.426566	0.421652	0.113383
O7	O	1.676566	0.671652	0.363383
O8	O	1.926566	0.921652	0.613383
O9	O	1.349744	-0.001527	-0.136603
O10	O	1.599744	0.248473	0.113397
O11	O	1.849744	0.498473	0.363397
O12	O	2.099744	0.748473	0.613397
O13	O	1.333726	0.328812	-0.136626
O14	O	1.583726	0.578812	0.113374
O15	O	1.833726	0.828812	0.363374
O16	O	2.083726	1.078812	0.613374
O17	O	1.349735	-0.001529	0.136624
O18	O	1.599735	0.248471	0.386624
O19	O	1.849735	0.498471	0.636624
O20	O	2.099735	0.748471	0.886624
O21	O	1.176556	0.171649	0.136611
O22	O	1.426556	0.421649	0.386611
O23	O	1.676556	0.671649	0.636611
O24	O	1.926556	0.921649	0.886611
O25	O	1.506895	0.155632	0.136614
O26	O	1.756895	0.405632	0.386614
O27	O	2.006895	0.655632	0.636614
O28	O	2.256895	0.905632	0.886614
Zn29	Zn	1.341724	0.163640	0.179993
Zn30	Zn	1.591724	0.413640	0.429993
Zn31	Zn	1.841724	0.663640	0.679993
Zn32	Zn	2.091724	0.913640	0.929993
Zn33	Zn	1.341737	0.163643	-0.179995
Zn34	Zn	1.591737	0.413643	0.070005
Zn35	Zn	1.841737	0.663643	0.320005
Zn36	Zn	2.091737	0.913643	0.570005
O37	O	1.333717	0.328810	0.136601
O38	O	1.583717	0.578810	0.386601
O39	O	1.833717	0.828810	0.636601
O40	O	2.083717	1.078810	0.886601
C41	C	1.134271	0.170642	-0.000003
C42	C	1.384271	0.420642	0.249997
C43	C	1.634271	0.670642	0.499997
C44	C	1.884271	0.920642	0.749997
C45	C	1.008257	0.167621	-0.000005
C46	C	1.258257	0.417621	0.249995
C47	C	1.508257	0.667621	0.499995
C48	C	1.758257	0.917621	0.749995
C49	C	0.905921	0.165168	-0.000011
C50	C	1.155921	0.415168	0.249989
C51	C	1.405921	0.665168	0.499989
C52	C	1.655921	0.915168	0.749989
C53	C	0.777534	0.162099	-0.000012
C54	C	1.027534	0.412099	0.249988
C55	C	1.277534	0.662099	0.499988
C56	C	1.527534	0.912099	0.749988
C57	C	1.348730	-0.043818	0.000010
C58	C	1.598730	0.206182	0.250010
C59	C	1.848730	0.456182	0.500010
C60	C	2.098730	0.706182	0.750010
C61	C	1.345710	-0.169832	0.000008
C62	C	1.595710	0.080168	0.250008
C63	C	1.845710	0.330168	0.500008
C64	C	2.095710	0.580168	0.750008
C65	C	1.343256	-0.272168	0.000003
C66	C	1.593256	-0.022168	0.250003
C67	C	1.843256	0.227832	0.500003
C68	C	2.093256	0.477832	0.750003
C69	C	1.340188	-0.400555	-0.000013
C70	C	1.590188	-0.150555	0.249987
C71	C	1.840188	0.099445	0.499987
C72	C	2.090188	0.349445	0.749987
C73	C	1.549190	0.156642	-0.000003
C74	C	1.799190	0.406642	0.249997
C75	C	2.049190	0.656642	0.499997
C76	C	2.299190	0.906642	0.749997
C77	C	1.675204	0.159662	-0.000012
C78	C	1.925204	0.409662	0.249988
C79	C	2.175204	0.659662	0.499988
C80	C	2.425204	0.909662	0.749988
C81	C	1.334731	0.371102	-0.000016
C82	C	1.584731	0.621102	0.249984
C83	C	1.834731	0.871102	0.499984
C84	C	2.084731	1.121102	0.749984
C85	C	1.337751	0.497115	-0.000025
C86	C	1.587751	0.747115	0.249975
C87	C	1.837751	0.997115	0.499975
C88	C	2.087751	1.247115	0.749975
N89	N	1.341724	0.163638	0.425676
N90	N	1.591724	0.413638	0.675676
N91	N	1.841724	0.663638	0.925676
N92	N	2.091724	0.913638	1.175676
N93	N	1.341746	0.163636	-0.425678
N94	N	1.591746	0.413636	-0.175678
N95	N	1.841746	0.663636	0.074322
N96	N	2.091746	0.913636	0.324322
