data_functionalizedCrystal
_audit_creation_method	'MofGen! by Chris Wilmer'
_symmetry_space_group_name_H-M	'P1'
_symmetry_Int_Tables_number	1
_symmetry_cell_setting	triclinic
loop_
_symmetry_equiv_pos_as_xyz
  x,y,z
_cell_length_a	27.732048
_cell_length_b	27.731996
_cell_length_c	16.053802
_cell_angle_alpha	92.537600
_cell_angle_beta	87.445675
_cell_angle_gamma	82.632022
loop_
_atom_site_label
_atom_site_type_symbol
_atom_site_fract_x
_atom_site_fract_y
_atom_site_fract_z
O1	O	0.642968	0.055471	-0.069332
O2	O	1.142968	0.555471	0.430668
O3	O	0.502174	0.064216	-0.069358
O4	O	1.002174	0.564216	0.430642
O5	O	0.576957	-0.010555	-0.069326
O6	O	1.076957	0.489445	0.430674
O7	O	0.568186	0.130241	-0.069364
O8	O	1.068186	0.630241	0.430636
O9	O	0.572840	-0.006456	0.069531
O10	O	1.072840	0.493544	0.569531
O11	O	0.498058	0.068314	0.069499
O12	O	0.998058	0.568314	0.569499
O13	O	0.638852	0.059570	0.069526
O14	O	1.138852	0.559570	0.569526
Zn15	Zn	0.567802	0.064593	0.091559
Zn16	Zn	1.067802	0.564593	0.591559
Zn17	Zn	0.573225	0.059193	-0.091392
Zn18	Zn	1.073225	0.559193	0.408608
O19	O	0.564070	0.134340	0.069493
O20	O	1.064070	0.634340	0.569493
C21	C	0.482109	0.066081	0.000067
C22	C	0.982109	0.566081	0.500067
C23	C	0.428455	0.065528	0.000058
C24	C	0.928455	0.565528	0.500058
C25	C	0.089631	0.106234	0.000083
C26	C	0.589631	0.606234	0.500083
C27	C	-0.112028	0.104183	0.000091
C28	C	0.387972	0.604183	0.500091
O29	O	-0.143292	0.141406	0.000117
O30	O	0.356708	0.641406	0.500117
N31	N	-0.131144	0.059847	0.000101
N32	N	0.368856	0.559847	0.500101
C33	C	-0.099842	0.016021	0.000115
C34	C	0.400158	0.516021	0.500115
O35	O	-0.120728	-0.021737	0.000133
O36	O	0.379272	0.478263	0.500133
C37	C	0.101817	0.018072	0.000113
C38	C	0.601817	0.518072	0.500113
C39	C	0.120930	0.062411	0.000094
C40	C	0.620930	0.562411	0.500094
C41	C	0.108745	0.150569	0.000065
C42	C	0.608745	0.650569	0.500065
C43	C	0.159157	0.151081	0.000058
C44	C	0.659157	0.651081	0.500058
C45	C	0.190455	0.107258	0.000070
C46	C	0.690455	0.607258	0.500070
C47	C	0.171342	0.062923	0.000088
C48	C	0.671342	0.562923	0.500088
C49	C	0.133118	-0.025753	0.000133
C50	C	0.633118	0.474247	0.500133
C51	C	0.183535	-0.025236	0.000135
C52	C	0.683535	0.474764	0.500135
C53	C	0.202648	0.019102	0.000116
C54	C	0.702648	0.519102	0.500116
C55	C	0.253052	0.019612	0.000093
C56	C	0.753052	0.519612	0.500093
N57	N	0.272168	0.063948	0.000082
N58	N	0.772168	0.563948	0.500082
C59	C	0.240870	0.107771	0.000071
C60	C	0.740870	0.607771	0.500071
C61	C	-0.205715	0.014947	0.000115
C62	C	0.294285	0.514947	0.500115
C63	C	-0.256130	0.014434	0.000114
C64	C	0.243870	0.514434	0.500114
C65	C	-0.268313	0.102596	0.000091
C66	C	0.231687	0.602596	0.500091
C67	C	-0.217898	0.103109	0.000086
C68	C	0.282102	0.603109	0.500086
C69	C	-0.186600	0.059283	0.000104
C70	C	0.313400	0.559283	0.500104
C71	C	0.346739	0.108843	0.000056
C72	C	0.846739	0.608843	0.500056
C73	C	0.397156	0.109351	0.000046
C74	C	0.897156	0.609351	0.500046
C75	C	0.409335	0.021189	0.000073
C76	C	0.909335	0.521189	0.500073
C77	C	0.358922	0.020681	0.000079
C78	C	0.858922	0.520681	0.500079
C79	C	0.327625	0.064512	0.000073
C80	C	0.827625	0.564512	0.500073
O81	O	0.284344	-0.017590	0.000076
O82	O	0.784344	0.482410	0.500076
O83	O	0.261765	0.145524	0.000072
O84	O	0.761765	0.645524	0.500072
C85	C	0.039219	0.105722	0.000089
C86	C	0.539219	0.605722	0.500089
C87	C	0.020106	0.061387	0.000107
C88	C	0.520106	0.561387	0.500107
C89	C	0.051404	0.017564	0.000119
C90	C	0.551404	0.517564	0.500119
C91	C	-0.030309	0.060874	0.000106
C92	C	0.469691	0.560874	0.500106
C93	C	-0.061607	0.104697	0.000095
C94	C	0.438393	0.604697	0.500095
C95	C	-0.042491	0.149033	0.000085
C96	C	0.457509	0.649033	0.500085
C97	C	0.007921	0.149545	0.000078
C98	C	0.507921	0.649545	0.500078
C99	C	0.032288	-0.026772	0.000129
C100	C	0.532288	0.473228	0.500129
C101	C	-0.018124	-0.027281	0.000135
C102	C	0.481876	0.472719	0.500135
C103	C	-0.049423	0.016542	0.000123
C104	C	0.450577	0.516542	0.500123
C105	C	0.574718	-0.026513	0.000105
C106	C	1.074718	0.473487	0.500105
C107	C	0.574175	-0.080169	0.000114
C108	C	1.074175	0.419831	0.500114
C109	C	0.573005	-0.415120	-0.075619
C110	C	1.073005	0.084880	0.424381
C111	C	0.570945	-0.616779	-0.075634
C112	C	1.070945	-0.116779	0.424366
O113	O	0.572566	-0.644750	-0.140007
O114	O	1.072566	-0.144750	0.359993
N115	N	0.568445	-0.639762	0.000056
N116	N	1.068445	-0.139762	0.500056
C117	C	0.566457	-0.612327	0.075756
C118	C	1.066457	-0.112327	0.575756
O119	O	0.564279	-0.636501	0.140135
O120	O	1.064279	-0.136501	0.640135
C121	C	0.568514	-0.410668	0.075770
C122	C	1.068514	0.089332	0.575770
C123	C	0.571019	-0.387689	0.000075
C124	C	1.071019	0.112311	0.500075
C125	C	0.575509	-0.392141	-0.151308
C126	C	1.075509	0.107859	0.348692
C127	C	0.576027	-0.341729	-0.151303
C128	C	1.076027	0.158271	0.348697
C129	C	0.574041	-0.314298	-0.075610
C130	C	1.074041	0.185702	0.424390
C131	C	0.571537	-0.337278	0.000079
C132	C	1.071537	0.162722	0.500079
C133	C	0.566523	-0.383233	0.151469
C134	C	1.066523	0.116767	0.651469
C135	C	0.567036	-0.332816	0.151465
C136	C	1.067036	0.167184	0.651465
C137	C	0.569541	-0.309836	0.075770
C138	C	1.069541	0.190164	0.575770
C139	C	0.570068	-0.259435	0.075777
C140	C	1.070068	0.240565	0.575777
N141	N	0.572568	-0.236452	0.000087
N142	N	1.072568	0.263548	0.500087
C143	C	0.574554	-0.263883	-0.075606
C144	C	1.074554	0.236117	0.424394
C145	C	0.565378	-0.718200	0.075743
C146	C	1.065378	-0.218200	0.575743
C147	C	0.564865	-0.768615	0.075740
C148	C	1.064865	-0.268615	0.575740
C149	C	0.569352	-0.773064	-0.075650
C150	C	1.069352	-0.273064	0.424350
C151	C	0.569869	-0.722649	-0.075646
C152	C	1.069869	-0.222649	0.424354
C153	C	0.567878	-0.695217	0.000053
C154	C	1.067878	-0.195217	0.500053
C155	C	0.575642	-0.158016	-0.075591
C156	C	1.075642	0.341984	0.424409
C157	C	0.576161	-0.107600	-0.075580
C158	C	1.076161	0.392400	0.424420
C159	C	0.571672	-0.103155	0.075810
C160	C	1.071672	0.396845	0.575810
C161	C	0.571155	-0.153567	0.075799
C162	C	1.071155	0.346433	0.575799
C163	C	0.573139	-0.180996	0.000092
C164	C	1.073139	0.319004	0.500092
O165	O	0.568443	-0.231433	0.140117
O166	O	1.068443	0.268567	0.640117
O167	O	0.576722	-0.239698	-0.139976
O168	O	1.076722	0.260302	0.360024
C169	C	0.572488	-0.465532	-0.075623
C170	C	1.072488	0.034468	0.424377
C171	C	0.569984	-0.488511	0.000066
C172	C	1.069984	0.011489	0.500066
C173	C	0.567997	-0.461080	0.075759
C174	C	1.067997	0.038920	0.575759
C175	C	0.569470	-0.538926	0.000062
C176	C	1.069470	-0.038926	0.500062
C177	C	0.571457	-0.566357	-0.075631
C178	C	1.071457	-0.066357	0.424369
C179	C	0.573956	-0.543374	-0.151321
C180	C	1.073956	-0.043374	0.348679
C181	C	0.574474	-0.492963	-0.151317
C182	C	1.074474	0.007037	0.348683
C183	C	0.565498	-0.484063	0.151450
C184	C	1.065498	0.015937	0.651450
C185	C	0.564981	-0.534474	0.151439
C186	C	1.064981	-0.034474	0.651439
C187	C	0.566967	-0.561906	0.075745
C188	C	1.066967	-0.061906	0.575745
C189	C	0.658917	0.057704	0.000098
C190	C	1.158917	0.557704	0.500098
C191	C	0.712572	0.058257	0.000102
C192	C	1.212572	0.558257	0.500102
C193	C	0.566308	0.150298	0.000060
C194	C	1.066308	0.650298	0.500060
C195	C	0.566851	0.203954	0.000046
C196	C	1.066851	0.703954	0.500046
N197	N	0.564104	0.068278	0.216417
N198	N	1.064104	0.568278	0.716417
N199	N	0.576926	0.055503	-0.216250
N200	N	1.076926	0.555503	0.283750
C201	C	0.595935	0.036474	0.260125
C202	C	1.095935	0.536474	0.760125
C203	C	0.593353	0.039057	0.347531
C204	C	1.093353	0.539057	0.847531
C205	C	0.558942	0.073445	0.391227
C206	C	1.058942	0.573445	0.891227
C207	C	0.527107	0.105251	0.347513
C208	C	1.027107	0.605251	0.847513
C209	C	0.529687	0.102666	0.260109
C210	C	1.029687	0.602666	0.760109
C211	C	0.547671	0.084724	0.652632
C212	C	1.047671	0.584724	1.152632
C213	C	0.545095	0.087307	0.740042
C214	C	1.045095	0.587307	1.240042
C215	C	0.611341	0.021112	0.740053
C216	C	1.111341	0.521112	1.240053
C217	C	0.613920	0.018532	0.652648
C218	C	1.113920	0.518532	1.152648
C219	C	0.582083	0.050336	0.608942
C220	C	1.082083	0.550336	1.108942
N221	N	0.556303	0.076087	0.480570
N222	N	1.056303	0.576087	0.980570
N223	N	0.584721	0.047692	0.519601
N224	N	1.084721	0.547692	1.019601
H225	H	-0.180236	-0.020744	0.000130
H226	H	0.319764	0.479256	0.500130
H227	H	0.517071	0.115313	0.775616
H228	H	1.017071	0.615313	1.275616
C229	C	0.481936	0.150417	0.661412
C230	C	0.981936	0.650417	1.161412
C231	C	0.512681	0.119686	0.604598
C232	C	1.012681	0.619686	1.104598
H233	H	0.460336	0.172004	0.631754
H234	H	0.960336	0.672004	1.131754
H235	H	0.463700	0.131423	0.695515
H236	H	0.963700	0.631423	1.195515
H237	H	0.500924	0.168672	0.695491
H238	H	1.000924	0.668672	1.195491
H239	H	0.493693	0.101428	0.570523
H240	H	0.993693	0.601428	1.070523
H241	H	0.530919	0.138682	0.570480
H242	H	1.030919	0.638682	1.070480
H243	H	0.619273	0.013159	0.383117
H244	H	1.119273	0.513159	0.883117
H245	H	0.578065	-0.323024	-0.212942
H246	H	1.078065	0.176976	0.287058
C247	C	0.523437	-0.267791	0.239287
C248	C	1.023437	0.232209	0.739287
C249	C	0.564848	-0.302662	0.234676
C250	C	1.064848	0.197338	0.734676
H251	H	0.522086	-0.249178	0.290659
H252	H	1.022086	0.250822	0.790659
H253	H	0.525007	-0.246892	0.194215
H254	H	1.025007	0.253108	0.694215
H255	H	0.495134	-0.283657	0.236128
H256	H	0.995134	0.216343	0.736128
H257	H	0.593151	-0.286795	0.237829
H258	H	1.093151	0.213205	0.737829
H259	H	0.563282	-0.323564	0.279760
H260	H	1.063282	0.176436	0.779760
H261	H	0.562833	-0.787321	0.137378
H262	H	1.062833	-0.287321	0.637378
C263	C	0.664686	0.022591	0.161778
C264	C	1.164686	0.522591	0.661778
C265	C	0.633741	-0.001340	0.212076
C266	C	1.133741	0.498660	0.712076
H267	H	0.688020	-0.000759	0.132115
H268	H	1.188020	0.499241	0.632115
H269	H	0.646097	0.041170	0.123257
H270	H	1.146097	0.541170	0.623257
H271	H	0.680934	0.043587	0.195856
H272	H	1.180934	0.543587	0.695856
H273	H	0.617490	-0.022333	0.177998
H274	H	1.117490	0.477667	0.677998
H275	H	0.652332	-0.019927	0.250602
H276	H	1.152332	0.480073	0.750602
C277	C	0.497275	0.189926	0.374382
C278	C	0.997275	0.689926	0.874382
C279	C	0.489277	0.143051	0.395537
C280	C	0.989277	0.643051	0.895537
H281	H	0.473918	0.213262	0.404025
H282	H	0.973918	0.713262	0.904025
H283	H	0.529066	0.195377	0.388704
H284	H	1.029066	0.695377	0.888704
H285	H	0.494257	0.192929	0.316069
H286	H	0.994257	0.692929	0.816069
H287	H	0.492299	0.140046	0.453849
H288	H	0.992299	0.640046	0.953849
H289	H	0.457479	0.137598	0.381221
H290	H	0.957479	0.637598	0.881221
C291	C	0.679138	-0.046644	0.661442
C292	C	1.179138	0.453356	1.161442
C293	C	0.651744	-0.019272	0.604619
C294	C	1.151744	0.480728	1.104619
H295	H	0.702487	-0.069984	0.631789
H296	H	1.202487	0.430016	1.131789
H297	H	0.695363	-0.025634	0.695517
H298	H	1.195363	0.474366	1.195517
H299	H	0.658139	-0.062884	0.695548
H300	H	1.158139	0.437116	1.195548
H301	H	0.672741	-0.003029	0.570518
H302	H	1.172741	0.496971	1.070518
H303	H	0.635517	-0.040285	0.570530
H304	H	1.135517	0.459715	1.070530
C305	C	0.580004	-0.391462	-0.300943
C306	C	1.080004	0.108538	0.199057
C307	C	0.577697	-0.422288	-0.234520
C308	C	1.077697	0.077712	0.265480
H309	H	0.581361	-0.410073	-0.352318
H310	H	1.081361	0.089927	0.147682
H311	H	0.551912	-0.367811	-0.297798
H312	H	1.051912	0.132189	0.202202
H313	H	0.608310	-0.375601	-0.297767
H314	H	1.108310	0.124399	0.202233
H315	H	0.549389	-0.438147	-0.237693
H316	H	1.049389	0.061853	0.262307
H317	H	0.605792	-0.445948	-0.237667
H318	H	1.105792	0.054052	0.262333
H319	H	0.503766	0.128563	0.224523
H320	H	1.003766	0.628563	0.724523
H321	H	0.563760	-0.695870	0.137390
H322	H	1.063760	-0.195870	0.637390
H323	H	0.412715	0.145459	0.000030
H324	H	0.912715	0.645459	0.500030
C325	C	0.562124	-0.373748	0.301105
C326	C	1.062124	0.126252	0.801105
C327	C	0.563764	-0.408483	0.234677
C328	C	1.063764	0.091517	0.734677
H329	H	0.560416	-0.389336	0.352477
H330	H	1.060416	0.110664	0.852477
H331	H	0.590617	-0.358080	0.297966
H332	H	1.090617	0.141920	0.797966
H333	H	0.534220	-0.350276	0.297930
H334	H	1.034220	0.149724	0.797930
H335	H	0.591671	-0.431953	0.237849
H336	H	1.091671	0.068047	0.737849
H337	H	0.535268	-0.424158	0.237818
H338	H	1.035268	0.075842	0.737818
H339	H	0.321262	0.144535	0.000054
H340	H	0.821262	0.644535	0.500054
H341	H	0.637260	-0.004781	0.775647
H342	H	1.137260	0.495219	1.275647
H343	H	0.571907	-0.703942	-0.137284
H344	H	1.071907	-0.203942	0.362716
H345	H	0.570969	-0.795407	-0.137283
H346	H	1.070969	-0.295407	0.362717
H347	H	-0.293805	0.138279	0.000082
H348	H	0.206195	0.638279	0.500082
C349	C	0.566772	-0.144103	0.225441
C350	C	1.066772	0.355897	0.725441
C351	C	0.568404	-0.178829	0.159003
C352	C	1.068404	0.321171	0.659003
H353	H	0.565067	-0.159696	0.276808
H354	H	1.065067	0.340304	0.776808
H355	H	0.595266	-0.128437	0.222302
H356	H	1.095266	0.371563	0.722302
H357	H	0.538868	-0.120628	0.222279
H358	H	1.038868	0.379372	0.722279
H359	H	0.596310	-0.202302	0.162162
H360	H	1.096310	0.297698	0.662162
H361	H	0.539907	-0.194503	0.162144
H362	H	1.039907	0.305497	0.662144
C363	C	0.538561	-0.090150	-0.204617
C364	C	1.038561	0.409850	0.295383
C365	C	0.578903	-0.082352	-0.158802
C366	C	1.078903	0.417648	0.341198
H367	H	0.540250	-0.074565	-0.255994
H368	H	1.040250	0.425435	0.244006
H369	H	0.538543	-0.124099	-0.215424
H370	H	1.038543	0.375901	0.284576
H371	H	0.509532	-0.077066	-0.173508
H372	H	1.009532	0.422934	0.326492
H373	H	0.607933	-0.095440	-0.189909
H374	H	1.107933	0.404560	0.310091
H375	H	0.578926	-0.048396	-0.147997
H376	H	1.078926	0.451604	0.352003
H377	H	0.570057	-0.080812	0.137437
H378	H	1.070057	0.419188	0.637437
C379	C	0.093941	-0.075247	0.071512
C380	C	0.593941	0.424753	0.571512
C381	C	0.066688	-0.074947	0.000135
C382	C	0.566688	0.425053	0.500135
H383	H	0.115174	-0.104992	0.071512
H384	H	0.615174	0.395008	0.571512
H385	H	0.112542	-0.048776	0.071498
H386	H	0.612542	0.451224	0.571498
H387	H	0.072586	-0.072185	0.119932
H388	H	0.572586	0.427815	0.619932
H389	H	0.088043	-0.078005	-0.048285
H390	H	0.588043	0.421995	0.451715
H391	H	0.048085	-0.101426	0.000141
H392	H	0.548085	0.398574	0.500141
H393	H	-0.202340	0.139213	0.000075
H394	H	0.297660	0.639213	0.500075
H395	H	0.576513	-0.474258	-0.212956
H396	H	1.076513	0.025742	0.287044
H397	H	0.174714	0.187186	0.000043
H398	H	0.674714	0.687186	0.500043
C399	C	0.101780	0.237761	0.000027
C400	C	0.601780	0.737761	0.500027
C401	C	0.074347	0.198745	0.000045
C402	C	0.574347	0.698745	0.500045
H403	H	0.080546	0.267504	0.000005
H404	H	0.580546	0.767504	0.500005
H405	H	0.120261	0.237556	0.048451
H406	H	0.620261	0.737556	0.548451
H407	H	0.123134	0.234687	-0.048395
H408	H	0.623134	0.734687	0.451605
H409	H	0.052995	0.201818	0.048471
H410	H	0.552995	0.701818	0.548471
H411	H	0.055858	0.198951	-0.048383
H412	H	0.555858	0.698951	0.451617
H413	H	0.117566	-0.061859	0.000149
H414	H	0.617566	0.438141	0.500149
C415	C	-0.239011	-0.072658	0.000142
C416	C	0.260989	0.427342	0.500142
C417	C	-0.277135	-0.034305	0.000127
C418	C	0.222865	0.465695	0.500127
H419	H	-0.251979	-0.102747	0.000159
H420	H	0.248021	0.397253	0.500159
H421	H	-0.218171	-0.072052	-0.048279
H422	H	0.281829	0.427948	0.451721
H423	H	-0.221033	-0.069187	0.048566
H424	H	0.278967	0.430813	0.548566
H425	H	-0.295111	-0.037773	-0.048301
H426	H	0.204889	0.462227	0.451699
H427	H	-0.297983	-0.034911	0.048553
H428	H	0.202017	0.465089	0.548553
C429	C	-0.125186	0.187384	0.000086
C430	C	0.374814	0.687384	0.500086
C431	C	-0.076902	0.197204	0.000075
C432	C	0.423098	0.697204	0.500075
H433	H	-0.146430	0.217122	0.000089
H434	H	0.353570	0.717122	0.500089
H435	H	-0.129509	0.167763	-0.048329
H436	H	0.370491	0.667763	0.451671
H437	H	-0.132367	0.170614	0.048516
H438	H	0.367633	0.670614	0.548516
H439	H	-0.069720	0.213971	-0.048358
H440	H	0.430280	0.713971	0.451642
H441	H	-0.072577	0.216833	0.048496
H442	H	0.427423	0.716833	0.548496
H443	H	0.575576	-0.565718	-0.212954
H444	H	1.075576	-0.065718	0.287046
H445	H	0.562945	-0.553180	0.213084
H446	H	1.062945	-0.053180	0.713084
C447	C	0.190510	-0.112434	0.000159
C448	C	0.690510	0.387566	0.500159
C449	C	0.217938	-0.073413	0.000146
C450	C	0.717938	0.426587	0.500146
H451	H	0.211749	-0.142175	0.000158
H452	H	0.711749	0.357825	0.500158
H453	H	0.169165	-0.109370	0.048581
H454	H	0.669165	0.390630	0.548581
H455	H	0.172021	-0.112224	-0.048264
H456	H	0.672021	0.387776	0.451736
H457	H	0.236424	-0.073621	0.048572
H458	H	0.736424	0.426379	0.548572
H459	H	0.239292	-0.076478	-0.048282
H460	H	0.739292	0.423522	0.451718
H461	H	0.343360	-0.015424	0.000082
H462	H	0.843360	0.484576	0.500082
H463	H	0.434827	-0.014490	0.000079
H464	H	0.934827	0.485510	0.500079
C465	C	-0.001005	-0.114376	0.000172
C466	C	0.498995	0.385624	0.500172
C467	C	-0.039129	-0.076023	0.000158
C468	C	0.460871	0.423977	0.500158
H469	H	-0.013973	-0.144465	0.000197
H470	H	0.486027	0.355535	0.500197
H471	H	0.019832	-0.113773	-0.048254
H472	H	0.519832	0.386227	0.451746
H473	H	0.016976	-0.110903	0.048592
H474	H	0.516976	0.389097	0.548592
H475	H	-0.057108	-0.079494	-0.048265
H476	H	0.442892	0.420506	0.451735
H477	H	-0.059974	-0.076626	0.048589
H478	H	0.440026	0.423374	0.548589
H479	H	0.577254	-0.180342	-0.137239
H480	H	1.077254	0.319658	0.362761
H481	H	0.023477	0.185650	0.000064
H482	H	0.523477	0.685650	0.500064
H483	H	0.563881	-0.461733	0.213090
H484	H	1.063881	0.038267	0.713090
