data_functionalizedCrystal
_audit_creation_method	'MofGen! by Chris Wilmer'
_symmetry_space_group_name_H-M	'P1'
_symmetry_Int_Tables_number	1
_symmetry_cell_setting	triclinic
loop_
_symmetry_equiv_pos_as_xyz
  x,y,z
_cell_length_a	23.096457
_cell_length_b	21.606444
_cell_length_c	21.606444
_cell_angle_alpha	60.001331
_cell_angle_beta	90.000061
_cell_angle_gamma	59.998565
loop_
_atom_site_label
_atom_site_type_symbol
_atom_site_fract_x
_atom_site_fract_y
_atom_site_fract_z
Zr1	Zr	0.557754	0.677461	-0.081223
O2	O	0.465300	0.806582	-0.180042
O3	O	0.586097	0.548342	-0.050932
O4	O	0.586090	0.677466	-0.180051
O5	O	0.465312	0.677454	0.050931
O6	O	0.681370	0.677468	-0.180054
O7	O	0.465307	0.677458	-0.050923
O8	O	0.681383	0.446488	0.050915
O9	O	0.465299	0.908433	-0.180038
O10	O	0.669291	0.601451	-0.038013
O11	O	0.598188	0.601447	0.038002
O12	O	0.598179	0.753473	-0.114018
O13	O	0.527076	0.753469	-0.038002
Zr14	Zr	0.709723	0.677457	0.081217
Zr15	Zr	0.709715	0.677464	-0.081229
Zr16	Zr	0.557762	0.677454	0.081223
Zr17	Zr	0.557753	0.839901	-0.081217
Zr18	Zr	0.709725	0.515017	0.081212
O19	O	0.681380	0.806576	0.050927
O20	O	0.681369	0.806586	-0.180050
O21	O	0.465311	0.806572	0.050935
O22	O	0.802177	0.548336	0.180036
O23	O	0.802167	0.548346	-0.050941
O24	O	0.586108	0.548332	0.180044
O25	O	0.802165	0.677464	-0.050936
O26	O	0.681387	0.677452	0.180045
O27	O	0.586107	0.677450	0.180049
O28	O	0.802170	0.677460	0.050918
O29	O	0.586088	0.908435	-0.180043
O30	O	0.681390	0.446483	0.180037
O31	O	0.802178	0.446485	0.180033
O32	O	0.802172	0.446491	0.050910
O33	O	0.465305	0.908427	-0.050916
O34	O	0.586094	0.908429	-0.050921
O35	O	0.669298	0.601445	0.114012
O36	O	0.740401	0.601449	0.037997
O37	O	0.669289	0.753471	-0.038008
O38	O	0.598186	0.753467	0.038007
C39	C	0.633741	0.474271	-0.000009
C40	C	0.633741	0.405311	-0.000012
C41	C	0.670855	0.372916	-0.039692
C42	C	0.670857	0.308116	-0.039687
C43	C	0.633742	0.275716	-0.000005
C44	C	0.596627	0.308114	0.039680
C45	C	0.596629	0.372909	0.039679
C46	C	0.596619	0.046805	0.039686
C47	C	0.596618	-0.017992	0.039682
C48	C	0.670847	-0.017988	-0.039679
C49	C	0.670849	0.046806	-0.039681
C50	C	0.633738	0.079195	0.000008
C51	C	0.633736	0.149458	0.000003
C52	C	0.633738	0.205460	-0.000005
C53	C	0.443658	0.677456	0.000005
C54	C	0.379147	0.677454	0.000007
C55	C	0.385961	0.598103	0.039674
C56	C	0.325345	0.598101	0.039677
C57	C	0.257916	0.677456	-0.000001
C58	C	0.251105	0.756819	-0.039669
C59	C	0.311720	0.756818	-0.039665
N60	N	0.135117	0.736526	-0.064577
N61	N	0.077537	0.736522	-0.064580
C62	C	0.075283	0.677464	-0.000015
N63	N	0.132790	0.618398	0.064552
N64	N	0.190376	0.618400	0.064553
C65	C	0.192185	0.677466	-0.000010
C66	C	0.016374	0.598106	0.039659
C67	C	-0.044244	0.598108	0.039665
C68	C	-0.118485	0.756827	-0.039689
C69	C	-0.057867	0.756823	-0.039687
C70	C	0.009560	0.677460	-0.000015
C71	C	0.823819	0.677462	-0.000010
C72	C	0.888330	0.677464	-0.000013
C73	C	0.633729	0.677468	-0.203197
C74	C	0.633726	0.677471	-0.272160
C75	C	0.633737	0.880647	0.000004
C76	C	0.633736	0.949607	0.000006
C77	C	0.596606	0.756824	-0.344232
C78	C	0.596612	0.756822	-0.409027
C79	C	0.633734	0.677465	-0.401748
C80	C	0.670859	0.598105	-0.329668
C81	C	0.670856	0.598109	-0.264875
C82	C	0.670870	0.598090	-0.590971
C83	C	0.670868	0.598093	-0.655772
C84	C	0.596625	0.756803	-0.735123
C85	C	0.596623	0.756806	-0.670330
C86	C	0.633750	0.677447	-0.598256
C87	C	0.633744	0.677451	-0.527999
C88	C	0.633736	0.677460	-0.472004
C89	C	0.633748	0.677450	0.203192
C90	C	0.633751	0.677447	0.272154
C91	C	0.823821	0.474274	-0.000017
C92	C	0.888333	0.405315	-0.000022
C93	C	0.633750	0.474262	0.203185
C94	C	0.633754	0.405299	0.272145
C95	C	0.823831	0.474266	0.203178
C96	C	0.888346	0.405304	0.272135
C97	C	0.443647	0.880652	-0.203183
C98	C	0.379131	0.949614	-0.272141
C99	C	0.443656	0.880644	0.000011
C100	C	0.379144	0.949603	0.000016
C101	C	0.633727	0.880656	-0.203191
C102	C	0.633723	0.949619	-0.272151
C103	C	0.881510	0.372933	-0.039707
C104	C	0.942120	0.308147	-0.039727
C105	C	1.009553	0.275741	-0.000056
C106	C	1.016375	0.308131	0.039631
C107	C	0.955765	0.372919	0.039645
C108	C	0.670875	0.372912	0.344213
C109	C	0.670876	0.308123	0.409015
C110	C	0.633760	0.275718	0.401747
C111	C	0.596635	0.308111	0.329672
C112	C	0.596630	0.372903	0.264872
C113	C	0.955765	0.372921	0.264839
C114	C	1.016390	0.308133	0.329626
C115	C	1.009594	0.275724	0.401708
C116	C	0.942169	0.308114	0.409003
C117	C	0.881545	0.372905	0.344217
C118	C	0.311713	0.982005	-0.264845
C119	C	0.251088	1.046813	-0.329632
C120	C	0.257883	1.079225	-0.401714
C121	C	0.325308	1.046832	-0.409008
C122	C	0.385932	0.982029	-0.344222
C123	C	0.385967	0.981992	0.039695
C124	C	0.325357	1.046795	0.039696
C125	C	0.257924	1.079203	0.000023
C126	C	0.251102	1.046811	-0.039660
C127	C	0.311712	0.982013	-0.039666
C128	C	0.670846	0.982004	-0.264859
C129	C	0.670856	1.046793	-0.329648
C130	C	0.633739	1.079201	-0.401729
C131	C	0.596614	1.046810	-0.409019
C132	C	0.596609	0.982017	-0.344231
H133	H	0.701068	-0.044369	-0.071993
F134	F	0.934948	0.273613	0.485724
F135	F	0.710384	0.407386	0.351965
H136	H	0.566394	1.073206	-0.467716
F137	F	0.193424	1.148167	0.000037
F138	F	0.557089	0.947564	-0.352003
H139	H	0.701075	0.399295	-0.072009
H140	H	0.330894	0.533482	0.071979
F141	F	0.179330	1.081309	-0.081878
H142	H	0.961311	0.399298	0.206152
F143	F	0.710346	0.273655	-0.081934
H144	H	0.961331	0.399277	0.071966
F145	F	0.557135	0.273621	0.081922
F146	F	0.633749	1.148162	-0.470676
H147	H	0.306146	0.955644	-0.071975
H148	H	0.701069	0.073187	-0.071996
H149	H	0.701072	0.955627	-0.206173
F150	F	0.710361	0.513629	-0.514272
F151	F	0.557113	-0.052473	0.081920
H152	H	0.566403	0.073165	0.072006
F153	F	0.557129	0.407384	0.081914
H154	H	0.440826	0.955657	-0.350172
H155	H	0.566396	0.821421	-0.793816
H156	H	0.701110	0.281756	0.467695
H157	H	0.440869	0.955610	0.072006
H158	H	0.566416	0.281717	0.323766
H159	H	0.701086	1.073160	-0.323697
F160	F	0.710381	0.513626	-0.648019
H161	H	0.196200	0.821430	-0.071975
H162	H	0.440859	0.533479	0.071973
H163	H	0.566372	0.821446	-0.350168
H164	H	0.826652	0.399263	0.350168
F165	F	0.304465	0.841278	-0.081886
H166	H	0.071276	0.533484	0.071979
H167	H	1.058964	0.222967	0.454455
H168	H	0.633770	0.222960	0.454517
H169	H	-0.173386	0.821440	-0.071996
F170	F	0.304464	0.947520	-0.188136
F171	F	0.557104	0.841269	-0.678083
F172	F	-0.036988	0.513646	0.081893
F173	F	0.557103	0.841281	-0.485732
F174	F	-0.065120	0.841281	-0.081910
H175	H	0.701088	0.533492	-0.323746
H176	H	0.208514	1.131991	-0.454461
H177	H	1.071285	0.281768	0.323673
H178	H	0.701083	0.533491	-0.206190
H179	H	0.826608	0.399317	-0.072021
H180	H	0.196193	1.073177	-0.323678
H181	H	0.936552	0.281784	-0.072044
H182	H	1.058899	0.222986	-0.000074
F183	F	0.332529	1.081334	-0.485730
H184	H	1.071287	0.281737	0.071929
H185	H	0.566404	0.399264	0.206194
H186	H	0.330925	1.073158	0.072014
