data_functionalizedCrystal
_audit_creation_method	'MofGen! by Chris Wilmer'
_symmetry_space_group_name_H-M	'P1'
_symmetry_Int_Tables_number	1
_symmetry_cell_setting	triclinic
loop_
_symmetry_equiv_pos_as_xyz
  x,y,z
_cell_length_a	6.817900
_cell_length_b	17.982865
_cell_length_c	16.015572
_cell_angle_alpha	78.164851
_cell_angle_beta	104.485554
_cell_angle_gamma	102.450232
loop_
_atom_site_label
_atom_site_type_symbol
_atom_site_fract_x
_atom_site_fract_y
_atom_site_fract_z
V1	V	-3.990109	-0.030701	-0.269501
O2	O	-3.983615	0.078251	-0.263990
O3	O	-3.936785	-0.134714	-0.268024
O4	O	-3.928046	0.003460	-0.386872
O5	O	-3.992414	-0.060879	-0.144319
V6	V	-4.476145	-0.021649	-0.254484
O7	O	-4.245854	-0.050556	-0.302443
O8	O	-4.670598	-0.001794	-0.221542
O9	O	-4.306263	0.082364	-0.255960
O10	O	-4.600037	-0.130601	-0.259995
O11	O	-4.591238	0.008529	-0.379666
O12	O	-4.315002	-0.055809	-0.137112
C13	C	-3.781029	-0.161123	-0.263867
C14	C	-3.818626	-0.245938	-0.263442
C15	C	-3.769882	0.015132	-0.415469
C16	C	-3.800389	0.042373	-0.511423
C17	C	-4.018885	-0.777607	-0.181665
C18	C	-3.983558	-0.697912	-0.182076
C19	C	-3.996363	-0.647027	-0.261368
C20	C	-4.044478	-0.675840	-0.340254
C21	C	-4.079790	-0.755534	-0.339842
C22	C	-3.902068	-0.354446	-0.341918
C23	C	-3.866758	-0.274748	-0.342324
C24	C	-3.805837	-0.296825	-0.184151
C25	C	-3.841148	-0.376518	-0.183739
C26	C	-3.889250	-0.405324	-0.262625
C27	C	-3.927551	-0.491738	-0.262178
C28	C	-3.958077	-0.560615	-0.261816
C29	C	-4.077576	-0.199421	-0.889906
C30	C	-4.106248	-0.173799	-0.980065
C31	C	-4.035536	-0.041238	-0.954892
C32	C	-4.006847	-0.066849	-0.864729
C33	C	-4.027873	-0.145941	-0.832244
C34	C	-3.957145	-0.013370	-0.807066
C35	C	-3.928469	-0.038979	-0.716911
C36	C	-3.949496	-0.118068	-0.684418
C37	C	-3.999198	-0.171551	-0.742088
C38	C	-3.936134	0.065722	-0.839554
C39	C	-3.886431	0.119201	-0.781891
C40	C	-3.857741	0.093592	-0.691734
C41	C	-3.878768	0.014503	-0.659241
C42	C	-3.808039	0.147075	-0.634064
C43	C	-3.779364	0.121465	-0.543908
C44	C	-3.850092	-0.011106	-0.569086
C45	C	-4.125360	0.108768	-0.260115
C46	C	-4.067001	0.193585	-0.260545
C47	C	-4.136509	-0.067485	-0.108511
C48	C	-4.085240	-0.094723	-0.012556
H49	H	-4.008463	-0.819033	-0.117096
Br50	Br	-3.712012	0.194043	-0.465648
H51	H	-3.959454	0.086571	-0.912964
H52	H	-3.926151	-0.138918	-0.611008
H53	H	-3.830727	-0.417946	-0.119172
H54	H	-3.941238	-0.377890	-0.406152
H55	H	-3.869325	0.183598	-0.808354
H56	H	-4.146713	-0.217354	-1.027013
Br57	Br	-3.878568	-0.118446	-0.524988
Br58	Br	-4.007011	0.066097	-0.998988
H59	H	-3.766657	-0.273362	-0.119919
H60	H	-4.054889	-0.634403	-0.404815
Br61	Br	-3.918247	-0.658818	-0.075019
H62	H	-3.877196	-0.233318	-0.406897
Br63	Br	-4.145111	-0.794632	-0.446899
H64	H	-4.016292	-0.235955	-0.715637
H65	H	-4.094670	-0.263825	-0.863455
H66	H	-3.790946	0.211471	-0.660528
