data_functionalizedCrystal
_audit_creation_method	'MofGen! by Chris Wilmer'
_symmetry_space_group_name_H-M	'P1'
_symmetry_Int_Tables_number	1
_symmetry_cell_setting	triclinic
loop_
_symmetry_equiv_pos_as_xyz
  x,y,z
_cell_length_a	10.489716
_cell_length_b	10.489711
_cell_length_c	16.776229
_cell_angle_alpha	89.997079
_cell_angle_beta	89.993252
_cell_angle_gamma	84.528072
loop_
_atom_site_label
_atom_site_type_symbol
_atom_site_fract_x
_atom_site_fract_y
_atom_site_fract_z
O1	O	1.694057	0.179824	-0.066275
O2	O	1.322856	0.196750	-0.066277
O3	O	1.516923	0.002686	-0.066278
O4	O	1.499990	0.373888	-0.066274
O5	O	1.516897	0.002674	0.066299
O6	O	1.322830	0.196738	0.066300
O7	O	1.694031	0.179812	0.066302
Zn8	Zn	1.508426	0.188273	0.087350
Zn9	Zn	1.508461	0.188289	-0.087325
O10	O	1.499964	0.373876	0.066303
C11	C	1.275311	0.195472	0.000011
C12	C	1.133680	0.191667	0.000010
C13	C	1.035994	0.310673	0.000009
C14	C	0.958641	0.247782	0.065379
C15	C	0.958674	0.247766	-0.065331
C16	C	1.058193	0.128826	0.065434
C17	C	1.058231	0.128827	-0.065335
C18	C	0.980928	0.065849	0.000051
C19	C	1.515639	-0.044852	0.000008
C20	C	1.511837	-0.186483	0.000001
C21	C	1.628543	-0.368880	0.000010
C22	C	1.570234	-0.276737	0.065376
C23	C	1.570228	-0.276749	-0.065334
C24	C	1.446690	-0.346677	0.065437
C25	C	1.446701	-0.346698	-0.065332
C26	C	1.388302	-0.254583	0.000050
C27	C	1.741576	0.181090	0.000012
C28	C	1.883207	0.184895	0.000008
C29	C	1.501248	0.421414	0.000015
C30	C	1.505050	0.563045	0.000017
N31	N	1.508412	0.188261	0.206561
N32	N	1.508485	0.188291	-0.206536
C33	C	1.594372	0.102365	0.248278
C34	C	1.594379	0.102364	0.331730
C35	C	1.508431	0.188266	0.373464
C36	C	1.422463	0.274166	0.331742
C37	C	1.422450	0.274160	0.248291
C38	C	1.422509	0.274191	0.668289
C39	C	1.422530	0.274194	0.751745
C40	C	1.594437	0.102396	0.751728
C41	C	1.594425	0.102390	0.668277
C42	C	1.508452	0.188285	0.626562
C43	C	1.508444	0.188283	0.536074
C44	C	1.508445	0.188275	0.463951
H45	H	1.101743	0.078633	-0.120604
H46	H	1.394469	-0.377487	0.120761
Br47	Br	1.077107	0.483202	0.000111
H48	H	1.352509	0.344132	0.634331
Br49	Br	1.305807	0.390741	0.388378
Br50	Br	0.886140	0.331500	0.157493
Br51	Br	1.657308	-0.225091	0.157481
Br52	Br	1.305777	0.390729	0.191675
Br53	Br	0.940213	-0.106808	0.000110
Br54	Br	1.711116	-0.014180	0.808345
Br55	Br	1.711078	-0.014187	0.611641
Br56	Br	1.657372	-0.225138	-0.157437
H57	H	1.664373	0.032421	0.365696
Br58	Br	1.130370	0.045132	0.157639
Br59	Br	1.711031	-0.014213	0.191648
Br60	Br	0.886204	0.331543	-0.157429
Br61	Br	1.797716	-0.451720	0.000114
Br62	Br	1.305881	0.390784	0.808385
Br63	Br	1.218970	-0.172133	0.000098
H64	H	1.394502	-0.377709	-0.120598
