data_functionalizedCrystal
_audit_creation_method	'MofGen! by Chris Wilmer'
_symmetry_space_group_name_H-M	'P1'
_symmetry_Int_Tables_number	1
_symmetry_cell_setting	triclinic
loop_
_symmetry_equiv_pos_as_xyz
  x,y,z
_cell_length_a	29.839134
_cell_length_b	29.839131
_cell_length_c	17.077396
_cell_angle_alpha	90.039567
_cell_angle_beta	90.029325
_cell_angle_gamma	90.030088
loop_
_atom_site_label
_atom_site_type_symbol
_atom_site_fract_x
_atom_site_fract_y
_atom_site_fract_z
Zn1	Zn	0.686772	-0.178915	0.443988
Zn2	Zn	0.686702	-0.254046	0.312696
Zn3	Zn	0.611645	-0.178924	0.312713
Zn4	Zn	0.611610	-0.254012	0.443898
O5	O	0.649182	-0.216474	0.378324
O6	O	0.749629	-0.188892	0.426603
O7	O	0.676731	-0.244098	0.202852
O8	O	0.621654	-0.116055	0.330172
O9	O	0.749578	-0.244090	0.330143
O10	O	0.676849	-0.116049	0.426619
O11	O	0.621587	-0.188906	0.202864
O12	O	0.548773	-0.188874	0.330084
O13	O	0.621595	-0.244032	0.553757
O14	O	0.548748	-0.244041	0.426465
O15	O	0.676816	-0.188859	0.553823
O16	O	0.676698	-0.316908	0.330056
O17	O	0.621528	-0.316883	0.426449
C18	C	0.532460	-0.216455	0.378267
C19	C	0.482525	-0.216458	0.378262
C20	C	0.649114	-0.333197	0.378258
C21	C	0.649125	-0.383131	0.378256
C22	C	0.677916	-0.692736	0.428615
C23	C	0.677965	-0.880409	0.428662
O24	O	0.702377	-0.904641	0.471431
N25	N	0.649258	-0.903916	0.378411
C26	C	0.620536	-0.880502	0.328148
O27	O	0.596117	-0.904802	0.285413
C28	C	0.620485	-0.692830	0.328105
C29	C	0.649197	-0.669325	0.378354
C30	C	0.706625	-0.669232	0.478861
C31	C	0.706614	-0.622316	0.478846
C32	C	0.677895	-0.598905	0.428585
C33	C	0.649186	-0.622410	0.378339
C34	C	0.591760	-0.669416	0.277846
C35	C	0.591749	-0.622495	0.277842
C36	C	0.620461	-0.598991	0.328091
C37	C	0.620455	-0.552083	0.328063
N38	N	0.649162	-0.528576	0.378314
C39	C	0.677881	-0.551987	0.428575
C40	C	0.620565	-0.979032	0.328173
C41	C	0.620578	-1.025950	0.328182
C42	C	0.678007	-1.025854	0.428698
C43	C	0.677996	-0.978936	0.428684
C44	C	0.649271	-0.955525	0.378424
C45	C	0.677857	-0.453462	0.428539
C46	C	0.677845	-0.406542	0.428517
C47	C	0.620415	-0.406642	0.328004
C48	C	0.620428	-0.453557	0.328023
C49	C	0.649151	-0.476966	0.378296
O50	O	0.596053	-0.527822	0.285323
O51	O	0.702289	-0.527679	0.471316
C52	C	0.677927	-0.739652	0.428631
C53	C	0.649218	-0.763156	0.378385
C54	C	0.620498	-0.739745	0.328124
C55	C	0.649231	-0.810074	0.378394
C56	C	0.677951	-0.833485	0.428655
C57	C	0.706657	-0.809978	0.478907
C58	C	0.706646	-0.763063	0.478892
C59	C	0.591792	-0.763252	0.277872
C60	C	0.591805	-0.810167	0.277891
C61	C	0.620525	-0.833578	0.328152
C62	C	0.172878	-0.245242	0.428448
C63	C	-0.014795	-0.245255	0.428483
O64	O	-0.039063	-0.269707	0.471119
N65	N	-0.038260	-0.216490	0.378383
C66	C	-0.014804	-0.187719	0.328275
O67	O	-0.039068	-0.163250	0.285668
C68	C	0.172869	-0.187704	0.328244
C69	C	0.196331	-0.216474	0.378342
C70	C	0.196341	-0.274008	0.478541
C71	C	0.243256	-0.274007	0.478529
C72	C	0.266709	-0.245238	0.428423
C73	C	0.243246	-0.216472	0.378329
C74	C	0.196324	-0.158931	0.278141
C75	C	0.243245	-0.158929	0.278139
C76	C	0.266707	-0.187698	0.328236
C77	C	0.313615	-0.187702	0.328211
N78	N	0.337080	-0.216466	0.378311
C79	C	0.313627	-0.245234	0.428417
C80	C	-0.113334	-0.187729	0.328293
C81	C	-0.160252	-0.187733	0.328300
C82	C	-0.160240	-0.245269	0.428509
C83	C	-0.113322	-0.245266	0.428498
C84	C	-0.089869	-0.216493	0.378393
C85	C	0.412153	-0.245229	0.428387
C86	C	0.459072	-0.245226	0.428368
C87	C	0.459056	-0.187689	0.328162
C88	C	0.412141	-0.187694	0.328178
C89	C	0.388690	-0.216465	0.378296
O90	O	0.337912	-0.163259	0.285603
O91	O	0.337899	-0.269692	0.471029
C92	C	0.125963	-0.245244	0.428460
C93	C	0.102500	-0.216477	0.378366
C94	C	0.125953	-0.187709	0.328260
C95	C	0.055582	-0.216481	0.378373
C96	C	0.032129	-0.245250	0.428479
C97	C	0.055594	-0.274014	0.478578
C98	C	0.102510	-0.274012	0.478566
C99	C	0.102488	-0.158945	0.278160
C100	C	0.055573	-0.158949	0.278176
C101	C	0.032120	-0.187717	0.328282
C102	C	0.766360	-0.216493	0.378381
C103	C	0.816295	-0.216502	0.378406
C104	C	0.649209	-0.216441	0.583068
C105	C	0.649221	-0.216427	0.670318
C106	C	0.649263	-0.099296	0.378407
C107	C	0.649298	-0.049361	0.378443
C108	C	0.649181	-0.216475	0.174376
C109	C	0.649256	-0.216362	0.087127
C110	C	0.677975	-0.187696	0.711344
C111	C	0.677981	-0.187681	0.793325
C112	C	0.649234	-0.216399	0.834278
C113	C	0.620476	-0.245132	0.793246
C114	C	0.620469	-0.245144	0.711267
C115	C	0.620494	-0.245105	0.964116
C116	C	0.620502	-0.245093	1.046101
C117	C	0.678006	-0.187641	1.046174
C118	C	0.677999	-0.187654	0.964195
C119	C	0.649242	-0.216387	0.923169
H120	H	0.701243	-0.472515	0.469482
C121	C	0.709619	-0.156063	0.919142
C122	C	0.744870	-0.175545	0.862788
C123	C	0.776489	-0.143954	0.817735
C124	C	0.772858	-0.092879	0.829035
C125	C	0.737606	-0.073394	0.885391
C126	C	0.705987	-0.104986	0.930445
H127	H	0.747559	-0.213356	0.854421
H128	H	0.802584	-0.158378	0.776016
H129	H	0.796264	-0.069493	0.795683
H130	H	0.734917	-0.035583	0.893759
H131	H	0.679891	-0.090562	0.972164
C132	C	0.738222	-0.694978	0.534151
C133	C	0.789292	-0.688479	0.527829
C134	C	0.820895	-0.714220	0.583118
C135	C	0.801428	-0.746461	0.644729
C136	C	0.750355	-0.752962	0.651053
C137	C	0.718752	-0.727220	0.595764
H138	H	0.803706	-0.664611	0.482219
H139	H	0.858703	-0.709408	0.578436
H140	H	0.824823	-0.765517	0.685657
H141	H	0.735942	-0.776830	0.696663
H142	H	0.680945	-0.732032	0.600446
H143	H	0.701421	-0.164245	1.079581
H144	H	0.730026	-0.743929	0.519809
H145	H	0.036473	-0.135522	0.237374
H146	H	0.701397	-0.164286	0.826724
H147	H	0.701392	-1.044924	0.469622
C148	C	0.560201	-0.737505	0.222574
C149	C	0.579683	-0.705271	0.160967
C150	C	0.548093	-0.679528	0.105659
C151	C	0.497021	-0.686018	0.111956
C152	C	0.477536	-0.718254	0.173565
C153	C	0.509127	-0.743998	0.228874
H154	H	0.617493	-0.700465	0.156303
H155	H	0.562517	-0.655664	0.060052
H156	H	0.473636	-0.666962	0.071013
H157	H	0.439727	-0.723061	0.178229
H158	H	0.494702	-0.767861	0.274480
C159	C	0.269042	-0.127278	0.223021
C160	C	0.262616	-0.076212	0.229610
C161	C	0.288412	-0.044562	0.174492
C162	C	0.320636	-0.063978	0.112787
C163	C	0.327064	-0.115047	0.106196
C164	C	0.301267	-0.146697	0.161313
H165	H	0.238760	-0.061837	0.275290
H166	H	0.283654	-0.006758	0.179372
H167	H	0.339732	-0.040549	0.071986
H168	H	0.350919	-0.129422	0.060516
H169	H	0.306026	-0.184501	0.156434
C170	C	0.738248	-0.835736	0.534197
C171	C	0.773534	-0.867984	0.500258
C172	C	0.805121	-0.893745	0.555548
C173	C	0.801422	-0.887257	0.644777
C174	C	0.766134	-0.855008	0.678720
C175	C	0.734548	-0.829247	0.623430
H176	H	0.776274	-0.872788	0.434202
H177	H	0.831243	-0.917618	0.530421
H178	H	0.824804	-0.906327	0.685706
H179	H	0.763395	-0.850204	0.744777
H180	H	0.708425	-0.805374	0.648557
H181	H	0.597203	-1.045084	0.287256
C182	C	0.588896	-0.276699	1.091151
C183	C	0.557274	-0.308314	1.046028
C184	C	0.525676	-0.339929	1.091079
C185	C	0.525701	-0.339929	1.181253
C186	C	0.557325	-0.308313	1.226381
C187	C	0.588922	-0.276698	1.181330
H188	H	0.557254	-0.308315	0.979272
H189	H	0.502266	-0.363333	1.057672
H190	H	0.502310	-0.363333	1.214602
H191	H	0.557344	-0.308312	1.293137
H192	H	0.612332	-0.253294	1.214737
H193	H	0.701375	-0.959801	0.469601
H194	H	0.597070	-0.268495	0.930715
H195	H	0.597068	-0.268514	0.826596
C196	C	0.560219	-0.836018	0.222613
C197	C	0.563906	-0.829607	0.133381
C198	C	0.532316	-0.855455	0.078112
C199	C	0.497040	-0.887716	0.112074
C200	C	0.493351	-0.894129	0.201311
C201	C	0.524941	-0.868280	0.256581
H202	H	0.590021	-0.805724	0.108236
H203	H	0.535047	-0.850708	0.012053
H204	H	0.473655	-0.906851	0.071161
H205	H	0.467236	-0.918011	0.226457
H206	H	0.522210	-0.873028	0.322640
C207	C	0.560153	-0.596744	0.222551
C208	C	0.563848	-0.603238	0.133324
C209	C	0.532253	-0.577488	0.078033
C210	C	0.496963	-0.545244	0.111970
C211	C	0.493265	-0.538749	0.201202
C212	C	0.524860	-0.564499	0.256493
H213	H	0.589974	-0.627108	0.108197
H214	H	0.534990	-0.582296	0.011977
H215	H	0.473574	-0.526182	0.071040
H216	H	0.467140	-0.514879	0.226329
H217	H	0.522123	-0.559691	0.322549
H218	H	0.597053	-0.472696	0.287100
C219	C	0.588841	-0.276750	0.666132
C220	C	0.537772	-0.273075	0.677373
C221	C	0.506142	-0.304680	0.632237
C222	C	0.525581	-0.339960	0.575861
C223	C	0.576652	-0.343637	0.564617
C224	C	0.608282	-0.312032	0.609753
H225	H	0.523381	-0.246957	0.719108
H226	H	0.468336	-0.301958	0.640560
H227	H	0.502166	-0.363356	0.542449
H228	H	0.591043	-0.369755	0.522882
H229	H	0.646088	-0.314754	0.601430
C230	C	0.738192	-0.596467	0.534135
C231	C	0.789267	-0.602886	0.527843
C232	C	0.820844	-0.577042	0.583141
C233	C	0.801345	-0.544778	0.644730
C234	C	0.750267	-0.538358	0.651024
C235	C	0.718690	-0.564202	0.595726
H236	H	0.803703	-0.626771	0.482249
H237	H	0.858655	-0.581795	0.578481
H238	H	0.824720	-0.525647	0.685665
H239	H	0.735831	-0.514473	0.696618
H240	H	0.680879	-0.559449	0.600386
C241	C	0.386361	-0.276879	0.483512
C242	C	0.392791	-0.327945	0.476920
C243	C	0.367000	-0.359598	0.532040
C244	C	0.334779	-0.340185	0.593753
C245	C	0.328347	-0.289117	0.600347
C246	C	0.354139	-0.257464	0.545227
H247	H	0.416645	-0.342318	0.431235
H248	H	0.371761	-0.397402	0.527158
H249	H	0.315686	-0.363616	0.634556
H250	H	0.304494	-0.274744	0.646033
H251	H	0.349377	-0.219660	0.550109
H252	H	0.597033	-0.387573	0.287080
C253	C	0.709599	-0.156104	0.666300
C254	C	0.744853	-0.175584	0.609951
C255	C	0.776476	-0.143990	0.564910
C256	C	0.772845	-0.092916	0.576217
C257	C	0.737589	-0.073433	0.632569
C258	C	0.705966	-0.105027	0.677610
H259	H	0.747542	-0.213394	0.601578
H260	H	0.802575	-0.158413	0.523195
H261	H	0.796254	-0.069528	0.542875
H262	H	0.734900	-0.035623	0.640942
H263	H	0.679867	-0.090605	0.719325
C264	C	0.128280	-0.127302	0.223029
C265	C	0.121852	-0.076235	0.229594
C266	C	0.147640	-0.044593	0.174451
C267	C	0.179856	-0.064018	0.112742
C268	C	0.186286	-0.115087	0.106174
C269	C	0.160498	-0.146729	0.161317
H270	H	0.098002	-0.061853	0.275277
H271	H	0.142880	-0.006788	0.179313
H272	H	0.198946	-0.040594	0.071922
H273	H	0.210135	-0.129469	0.060491
H274	H	0.165257	-0.184534	0.156455
H275	H	0.701227	-0.387406	0.469435
H276	H	0.597174	-0.959975	0.287243
C277	C	-0.087515	-0.276910	0.483610
C278	C	-0.055233	-0.257486	0.545306
C279	C	-0.029430	-0.289130	0.600423
C280	C	-0.035908	-0.340198	0.593844
C281	C	-0.068192	-0.359623	0.532146
C282	C	-0.093995	-0.327979	0.477029
H283	H	-0.050436	-0.219681	0.550178
H284	H	-0.005532	-0.274750	0.646096
H285	H	-0.016807	-0.363622	0.634645
H286	H	-0.072989	-0.397429	0.527274
H287	H	-0.117893	-0.342360	0.431356
C288	C	0.170548	-0.305659	0.533661
C289	C	0.176984	-0.356724	0.527068
C290	C	0.151196	-0.388380	0.582187
C291	C	0.118972	-0.368971	0.643899
C292	C	0.112534	-0.317904	0.650494
C293	C	0.138323	-0.286248	0.595376
H294	H	0.200839	-0.371094	0.481383
H295	H	0.155961	-0.426183	0.577305
H296	H	0.099882	-0.392405	0.684701
H297	H	0.088679	-0.303534	0.696179
H298	H	0.133557	-0.248444	0.600258
H299	H	0.568380	-0.688545	0.236928
H300	H	-0.094244	-0.164299	0.287488
C301	C	-0.186044	-0.276913	0.483630
C302	C	-0.237652	-0.276911	0.483634
C303	C	-0.263458	-0.308551	0.538756
C304	C	-0.237656	-0.340191	0.593875
C305	C	-0.186045	-0.340194	0.593873
C306	C	-0.160239	-0.308555	0.538750
H307	H	-0.256754	-0.253488	0.442830
H308	H	-0.301663	-0.308549	0.538758
H309	H	-0.256759	-0.363613	0.634680
H310	H	-0.166943	-0.363617	0.634676
H311	H	-0.122034	-0.308557	0.538749
H312	H	0.478173	-0.268655	0.469163
H313	H	0.262355	-0.297433	0.519325
C314	C	-0.186058	-0.156092	0.273182
C315	C	-0.160254	-0.124449	0.218071
C316	C	-0.186057	-0.092805	0.162954
C317	C	-0.237665	-0.092804	0.162949
C318	C	-0.263472	-0.124449	0.218063
C319	C	-0.237668	-0.156093	0.273180
H320	H	-0.122048	-0.124448	0.218073
H321	H	-0.166953	-0.069379	0.122155
H322	H	-0.256766	-0.069379	0.122149
H323	H	-0.301678	-0.124449	0.218061
H324	H	-0.256773	-0.179518	0.313978
H325	H	0.177229	-0.135505	0.237344
H326	H	0.478160	-0.164268	0.287364
H327	H	0.393037	-0.164268	0.287383
H328	H	0.121609	-0.297439	0.519361
H329	H	0.036491	-0.297439	0.519374
