data_functionalizedCrystal
_audit_creation_method	'MofGen! by Chris Wilmer'
_symmetry_space_group_name_H-M	'P1'
_symmetry_Int_Tables_number	1
_symmetry_cell_setting	triclinic
loop_
_symmetry_equiv_pos_as_xyz
  x,y,z
_cell_length_a	12.837932
_cell_length_b	10.654551
_cell_length_c	9.130313
_cell_angle_alpha	90.002822
_cell_angle_beta	90.002970
_cell_angle_gamma	89.657532
loop_
_atom_site_label
_atom_site_type_symbol
_atom_site_fract_x
_atom_site_fract_y
_atom_site_fract_z
O1	O	1.377803	0.326764	0.121784
O2	O	1.075881	0.310620	0.121788
O3	O	1.233784	0.136710	0.121787
O4	O	1.219901	0.500674	0.121785
O5	O	1.233773	0.136699	-0.121812
O6	O	1.075871	0.310609	-0.121811
O7	O	1.377793	0.326753	-0.121814
Cu8	Cu	1.226831	0.318680	-0.144055
Cu9	Cu	1.226843	0.318693	0.144028
O10	O	1.219891	0.500663	-0.121814
C11	C	1.037216	0.305162	-0.000011
C12	C	0.922022	0.288898	-0.000010
C13	C	0.771202	0.152967	-0.000012
C14	C	0.879438	0.168240	-0.000012
C15	C	0.856362	0.394292	-0.000013
C16	C	0.748126	0.379019	-0.000014
C17	C	0.705550	0.258353	-0.000011
C18	C	0.597312	0.243081	-0.000001
C19	C	0.574239	0.469132	-0.000013
C20	C	0.682475	0.484405	-0.000012
C21	C	1.232759	0.089796	-0.000009
C22	C	1.229709	-0.049981	0.000000
C23	C	1.228283	-0.115643	0.132784
C24	C	1.225408	-0.246977	0.132777
C25	C	1.225388	-0.246975	-0.132808
C26	C	1.228256	-0.115643	-0.132800
C27	C	1.229736	-0.049980	0.265584
C28	C	1.228311	-0.115642	0.398378
C29	C	1.225436	-0.246976	0.398371
C30	C	1.223986	-0.312648	0.265570
C31	C	1.416458	0.332211	-0.000012
C32	C	1.531652	0.348474	-0.000004
C33	C	1.220916	0.547577	-0.000014
C34	C	1.223966	0.687353	-0.000014
N35	N	1.226830	0.318671	-0.346678
C36	C	1.163378	0.234883	-0.576713
C37	C	1.163369	0.234868	-0.423376
C38	C	1.290312	0.402485	-0.423324
C39	C	1.290325	0.402492	-0.576658
C40	C	1.099905	0.151084	-0.653403
C41	C	1.036425	0.067268	-0.576768
C42	C	1.036416	0.067253	-0.423431
C43	C	1.099888	0.151055	-0.346730
N44	N	1.226852	0.318693	0.346651
H45	H	0.562649	0.144829	0.000007
H46	H	1.221629	-0.419589	0.265576
H47	H	1.342011	0.470738	-0.639057
H48	H	1.232079	0.056959	0.265604
H49	H	1.224208	-0.300456	-0.240928
N50	N	0.725264	0.022833	-0.000017
H51	H	0.680871	0.011468	0.090284
H52	H	0.783332	-0.041538	-0.000070
H53	H	0.932888	0.082423	-0.000013
N54	N	0.503463	0.582839	-0.000035
H55	H	0.458038	0.581583	0.090261
H56	H	0.458110	0.581487	-0.090403
H57	H	0.984754	-0.000966	-0.639228
N58	N	0.902299	0.524426	-0.000026
H59	H	0.878429	0.571193	0.090274
H60	H	0.878400	0.571070	-0.090390
N61	N	0.728399	0.614546	-0.000020
H62	H	0.806928	0.608232	-0.000021
H63	H	0.704446	0.661231	0.090289
N64	N	1.229803	-0.044770	0.541574
H65	H	1.295178	0.007251	0.547528
H66	H	1.228398	-0.106339	0.625644
H67	H	1.224266	-0.300435	0.506498
H68	H	0.984735	-0.001002	-0.361038
N69	N	1.229803	-0.044825	-0.276021
H70	H	1.295195	0.007167	-0.281937
H71	H	1.166747	0.012091	-0.281854
H72	H	1.099903	0.151088	-0.778258
N73	N	1.099890	0.151027	-0.181345
H74	H	1.027412	0.170464	-0.144412
H75	H	1.149774	0.216824	-0.144510
N76	N	1.358767	0.492865	-0.340605
H77	H	1.349126	0.480143	-0.231840
H78	H	1.338927	0.581814	-0.367400
