data_functionalizedCrystal
_audit_creation_method	'MofGen! by Chris Wilmer'
_symmetry_space_group_name_H-M	'P1'
_symmetry_Int_Tables_number	1
_symmetry_cell_setting	triclinic
loop_
_symmetry_equiv_pos_as_xyz
  x,y,z
_cell_length_a	23.532361
_cell_length_b	23.532407
_cell_length_c	18.266242
_cell_angle_alpha	90.009798
_cell_angle_beta	90.004660
_cell_angle_gamma	82.839173
loop_
_atom_site_label
_atom_site_type_symbol
_atom_site_fract_x
_atom_site_fract_y
_atom_site_fract_z
O1	O	0.755280	0.069008	0.060815
O2	O	1.255280	0.569008	0.560815
O3	O	0.589413	0.079039	0.060834
O4	O	1.089413	0.579039	0.560834
O5	O	0.677349	-0.008909	0.060810
O6	O	1.177349	0.491091	0.560810
O7	O	0.667345	0.156956	0.060838
O8	O	1.167345	0.656956	0.560838
O9	O	0.677334	-0.008911	-0.060952
O10	O	1.177334	0.491089	0.439048
O11	O	0.589398	0.079037	-0.060928
O12	O	1.089398	0.579037	0.439072
O13	O	0.755266	0.069006	-0.060947
O14	O	1.255266	0.569006	0.439053
Zn15	Zn	0.672330	0.074021	-0.080270
Zn16	Zn	1.172330	0.574021	0.419730
Zn17	Zn	0.672349	0.074024	0.080157
Zn18	Zn	1.172349	0.574024	0.580157
O19	O	0.667330	0.156954	-0.060924
O20	O	1.167330	0.656954	0.439076
C21	C	0.568189	0.078787	-0.000045
C22	C	1.068189	0.578787	0.499955
C23	C	0.504971	0.078032	-0.000039
C24	C	1.004971	0.578032	0.499961
C25	C	0.231735	0.074730	0.066329
C26	C	0.731735	0.574730	0.566329
C27	C	0.291135	0.075444	0.066331
C28	C	0.791135	0.575444	0.566331
O29	O	0.321868	0.075796	0.122777
O30	O	0.821868	0.575796	0.622777
N31	N	0.320832	0.075804	-0.000042
N32	N	0.820832	0.575804	0.499958
C33	C	0.291128	0.075443	-0.066421
C34	C	0.791128	0.575443	0.433579
O35	O	0.321842	0.075815	-0.122876
O36	O	0.821842	0.575815	0.377124
C37	C	0.231730	0.074724	-0.066422
C38	C	0.731730	0.574724	0.433578
C39	C	0.202035	0.074370	-0.000045
C40	C	0.702035	0.574370	0.499955
C41	C	0.202040	0.074375	0.132700
C42	C	0.702040	0.574375	0.632700
C43	C	0.142644	0.073661	0.132698
C44	C	0.642644	0.573661	0.632698
C45	C	0.112944	0.073302	0.066324
C46	C	0.612944	0.573302	0.566324
C47	C	0.142639	0.073657	-0.000047
C48	C	0.642639	0.573657	0.499953
C49	C	0.202027	0.074359	-0.132800
C50	C	0.702027	0.574359	0.367200
C51	C	0.142625	0.073640	-0.132796
C52	C	0.642625	0.573640	0.367204
C53	C	0.112930	0.073286	-0.066419
C54	C	0.612930	0.573286	0.433581
C55	C	0.053542	0.072584	-0.066423
C56	C	0.553542	0.572584	0.433577
N57	N	0.023845	0.072224	-0.000051
N58	N	0.523845	0.572224	0.499949
C59	C	0.053545	0.072583	0.066323
C60	C	0.553545	0.572583	0.566323
C61	C	0.415868	0.076952	-0.066413
C62	C	0.915868	0.576952	0.433587
C63	C	0.475265	0.077675	-0.066413
C64	C	0.975265	0.577675	0.433587
C65	C	0.475268	0.077675	0.066339
C66	C	0.975268	0.577675	0.566339
C67	C	0.415870	0.076956	0.066338
C68	C	0.915870	0.576956	0.566338
C69	C	0.386171	0.076593	-0.000041
C70	C	0.886171	0.576593	0.499959
C71	C	-0.071190	0.071084	0.066314
C72	C	0.428810	0.571084	0.566314
C73	C	-0.130591	0.070373	0.066305
C74	C	0.369409	0.570373	0.566305
C75	C	-0.130589	0.070370	-0.066446
C76	C	0.369411	0.570370	0.433554
C77	C	-0.071193	0.071084	-0.066438
C78	C	0.428807	0.571084	0.433562
C79	C	-0.041495	0.071440	-0.000053
C80	C	0.458505	0.571440	0.499947
O81	O	0.022772	0.072230	-0.122840
O82	O	0.522772	0.572230	0.377160
O83	O	0.022825	0.072204	0.122769
O84	O	0.522825	0.572204	0.622769
C85	C	0.677086	-0.030126	-0.000073
C86	C	1.177086	0.469874	0.499927
C87	C	0.676320	-0.093343	-0.000078
C88	C	1.176320	0.406657	0.499922
C89	C	0.723555	-0.492454	-0.000043
C90	C	1.223555	0.007546	0.499957
C91	C	0.722844	-0.551854	-0.000038
C92	C	1.222844	-0.051854	0.499962
O93	O	0.766630	-0.588606	-0.000016
O94	O	1.266630	-0.088606	0.499984
N95	N	0.670566	-0.574471	-0.000032
N96	N	1.170566	-0.074471	0.499968
C97	C	0.618997	-0.537685	-0.000025
C98	C	1.118997	-0.037685	0.499975
O99	O	0.574465	-0.562377	-0.000019
O100	O	1.074465	-0.062377	0.499981
C101	C	0.619709	-0.478286	-0.000026
C102	C	1.119709	0.021714	0.499974
C103	C	0.671990	-0.455672	-0.000038
C104	C	1.171990	0.044328	0.499962
C105	C	0.775832	-0.469839	-0.000055
C106	C	1.275832	0.030161	0.499945
C107	C	0.776543	-0.410443	-0.000062
C108	C	1.276543	0.089557	0.499938
C109	C	0.724977	-0.373662	-0.000057
C110	C	1.224977	0.126338	0.499943
C111	C	0.672701	-0.396276	-0.000045
C112	C	1.172701	0.103724	0.499955
C113	C	0.568140	-0.441501	-0.000013
C114	C	1.068140	0.058499	0.499987
C115	C	0.568857	-0.382099	-0.000013
C116	C	1.068857	0.117901	0.499987
C117	C	0.621137	-0.359485	-0.000026
C118	C	1.121137	0.140515	0.499974
C119	C	0.621847	-0.300099	-0.000047
C120	C	1.121847	0.199901	0.499953
N121	N	0.674124	-0.277481	-0.000053
N122	N	1.174124	0.222519	0.499947
C123	C	0.725690	-0.314263	-0.000058
C124	C	1.225690	0.185737	0.499942
C125	C	0.617505	-0.662427	-0.000023
C126	C	1.117505	-0.162427	0.499977
C127	C	0.616793	-0.721825	-0.000028
C128	C	1.116793	-0.221825	0.499972
C129	C	0.720640	-0.735990	-0.000039
C130	C	1.220640	-0.235990	0.499961
C131	C	0.721352	-0.676591	-0.000039
C132	C	1.221352	-0.176591	0.499961
C133	C	0.669783	-0.639810	-0.000028
C134	C	1.169783	-0.139810	0.499972
C135	C	0.727179	-0.189526	-0.000073
C136	C	1.227179	0.310474	0.499927
C137	C	0.727886	-0.130124	-0.000083
C138	C	1.227886	0.369876	0.499917
C139	C	0.624039	-0.115965	-0.000068
C140	C	1.124039	0.384035	0.499932
C141	C	0.623332	-0.175361	-0.000062
C142	C	1.123332	0.324639	0.499938
C143	C	0.674907	-0.212141	-0.000062
C144	C	1.174907	0.287859	0.499938
O145	O	0.578083	-0.263312	-0.000067
O146	O	1.078083	0.236688	0.499933
O147	O	0.770214	-0.289562	-0.000054
O148	O	1.270214	0.210438	0.499946
C149	C	0.776489	0.069258	-0.000067
C150	C	1.276489	0.569258	0.499933
C151	C	0.839708	0.070014	-0.000068
C152	C	1.339708	0.570014	0.499932
C153	C	0.667592	0.178171	-0.000039
C154	C	1.167592	0.678171	0.499961
C155	C	0.668358	0.241388	-0.000029
C156	C	1.168358	0.741388	0.499971
N157	N	0.672320	0.074019	-0.189757
N158	N	1.172320	0.574019	0.310243
C159	C	0.706661	0.108382	-0.228058
C160	C	1.206661	0.608382	0.271942
C161	C	0.706670	0.108381	-0.304703
C162	C	1.206670	0.608381	0.195297
C163	C	0.672329	0.074022	-0.343044
C164	C	1.172329	0.574022	0.156956
C165	C	0.637986	0.039651	-0.304734
C166	C	1.137986	0.539651	0.195266
C167	C	0.637982	0.039650	-0.228091
C168	C	1.137982	0.539650	0.271909
N169	N	0.622454	0.072757	-0.463392
N170	N	1.122454	0.572757	0.036608
N171	N	0.622459	0.072762	-0.536200
N172	N	1.122459	0.572762	-0.036200
C173	C	0.672340	0.074024	-0.573966
C174	C	1.172340	0.574024	-0.073966
N175	N	0.722216	0.075292	-0.536175
N176	N	1.222216	0.575292	-0.036175
N177	N	0.722209	0.075290	-0.463360
N178	N	1.222209	0.575290	0.036640
C179	C	0.672330	0.074020	-0.426151
C180	C	1.172330	0.574020	0.073849
C181	C	0.706694	0.108388	-0.695374
C182	C	1.206694	0.608388	-0.195374
C183	C	0.706704	0.108382	-0.772021
C184	C	1.206704	0.608382	-0.272021
C185	C	0.638015	0.039656	-0.772050
C186	C	1.138015	0.539656	-0.272050
C187	C	0.638009	0.039658	-0.695406
C188	C	1.138009	0.539658	-0.195406
C189	C	0.672348	0.074027	-0.657072
C190	C	1.172348	0.574027	-0.157072
N191	N	0.672363	0.074022	0.189643
N192	N	1.172363	0.574022	0.689643
H193	H	0.226216	0.074665	0.186753
H194	H	0.726216	0.574665	0.686753
O195	O	0.604592	0.006267	-0.658310
O196	O	1.104592	0.506267	-0.158310
C197	C	0.536489	-0.061923	-0.666430
C198	C	1.036489	0.438077	-0.166430
C199	C	0.574296	-0.024122	-0.708532
C200	C	1.074296	0.475878	-0.208532
H201	H	0.511993	-0.086512	-0.707016
H202	H	1.011993	0.413488	-0.207016
H203	H	0.504836	-0.033773	-0.630567
H204	H	1.004836	0.466227	-0.130567
H205	H	0.564683	-0.093502	-0.630529
H206	H	1.064683	0.406498	-0.130529
H207	H	0.546147	0.007462	-0.744472
H208	H	1.046147	0.507462	-0.244472
H209	H	0.605952	-0.052308	-0.744348
H210	H	1.105952	0.447692	-0.244348
O211	O	0.113895	0.073284	0.197243
O212	O	0.613895	0.573284	0.697243
C213	C	0.120186	0.073382	0.328913
C214	C	0.620186	0.573382	0.828913
C215	C	0.152811	0.073801	0.255865
C216	C	0.652811	0.573801	0.755865
H217	H	0.151634	0.073812	0.376328
H218	H	0.651634	0.573812	0.876328
H219	H	0.097840	0.033173	0.332273
H220	H	0.597840	0.533173	0.832273
H221	H	0.086919	0.112896	0.332212
H222	H	0.586919	0.612896	0.832212
H223	H	0.186105	0.034314	0.252517
H224	H	0.686105	0.534314	0.752517
H225	H	0.175118	0.114036	0.252536
H226	H	0.675118	0.614036	0.752536
H227	H	0.391696	0.076668	0.120388
H228	H	0.891696	0.576668	0.620388
O229	O	-0.042309	0.071333	0.130781
O230	O	0.457691	0.571333	0.630781
C231	C	0.031504	0.022822	0.207822
C232	C	0.531504	0.522822	0.707822
C233	C	-0.001165	0.022457	0.134796
C234	C	0.498835	0.522457	0.634796
H235	H	0.064784	-0.016684	0.211085
H236	H	0.564784	0.483316	0.711085
H237	H	0.000099	0.022411	0.255282
H238	H	0.500099	0.522411	0.755282
H239	H	0.053843	0.063037	0.211141
H240	H	0.553843	0.563037	0.711141
H241	H	-0.023506	-0.017752	0.131406
H242	H	0.476494	0.482248	0.631406
H243	H	0.030267	0.022898	0.087371
H244	H	0.530267	0.522898	0.587371
O245	O	0.567445	-0.626642	-0.000120
O246	O	1.067445	-0.126642	0.499880
C247	C	0.507949	-0.551397	-0.063222
C248	C	1.007949	-0.051397	0.436778
C249	C	0.564668	-0.591877	-0.063197
C250	C	1.064668	-0.091877	0.436803
H251	H	0.505680	-0.523288	-0.114222
H252	H	1.005680	-0.023288	0.385778
H253	H	0.505678	-0.523187	-0.012301
H254	H	1.005678	-0.023187	0.487699
H255	H	0.470476	-0.577783	-0.063184
H256	H	0.970476	-0.077783	0.436816
H257	H	0.602172	-0.565537	-0.063261
H258	H	1.102172	-0.065537	0.436739
H259	H	0.566888	-0.620089	-0.114114
H260	H	1.066888	-0.120089	0.385886
O261	O	0.770747	-0.771703	-0.000166
O262	O	1.270747	-0.271703	0.499834
C263	C	0.859295	-0.801989	-0.063224
C264	C	1.359295	-0.301989	0.436776
C265	C	0.802570	-0.761520	-0.063180
C266	C	1.302570	-0.261520	0.436820
H267	H	0.885045	-0.793762	-0.114157
H268	H	1.385045	-0.293762	0.385843
H269	H	0.849833	-0.848337	-0.063265
H270	H	1.349833	-0.348337	0.436735
H271	H	0.885020	-0.793802	-0.012245
H272	H	1.385020	-0.293802	0.487755
H273	H	0.776816	-0.769656	-0.114150
H274	H	1.276816	-0.269656	0.385850
H275	H	0.812072	-0.715186	-0.063101
H276	H	1.312072	-0.215186	0.436899
H277	H	0.734673	0.136363	-0.803204
H278	H	1.234673	0.636363	-0.303204
H279	H	0.499461	0.077968	0.120384
H280	H	0.999461	0.577968	0.620384
H281	H	-0.154767	0.070086	0.120360
H282	H	0.345233	0.570086	0.620360
O283	O	0.604566	0.006255	-0.190995
O284	O	1.104566	0.506255	0.309005
C285	C	0.536464	-0.061938	-0.199113
C286	C	1.036464	0.438062	0.300887
C287	C	0.574271	-0.024137	-0.241216
C288	C	1.074271	0.475863	0.258784
H289	H	0.511970	-0.086529	-0.239698
H290	H	1.011970	0.413471	0.260302
H291	H	0.504811	-0.033787	-0.163252
H292	H	1.004811	0.466213	0.336748
H293	H	0.564659	-0.093515	-0.163210
H294	H	1.064659	0.406485	0.336790
H295	H	0.546122	0.007444	-0.277159
H296	H	1.046122	0.507444	0.222841
H297	H	0.605929	-0.052324	-0.277030
H298	H	1.105929	0.447676	0.222970
O299	O	0.504118	0.078126	-0.130872
O300	O	1.004118	0.578126	0.369128
C301	C	0.564466	0.128257	-0.207897
C302	C	1.064466	0.628257	0.292103
C303	C	0.531806	0.127831	-0.134876
C304	C	1.031806	0.627831	0.365124
H305	H	0.586870	0.168433	-0.211150
H306	H	1.086870	0.668433	0.288850
H307	H	0.533050	0.127915	-0.255361
H308	H	1.033050	0.627915	0.244639
H309	H	0.597691	0.088711	-0.211215
H310	H	1.097691	0.588711	0.288785
H311	H	0.498581	0.167371	-0.131486
H312	H	0.998581	0.667371	0.368514
H313	H	0.563257	0.128144	-0.087446
H314	H	1.063257	0.628144	0.412554
O315	O	0.573967	-0.080205	0.000068
O316	O	1.073967	0.419795	0.500068
C317	C	0.514543	-0.004880	0.063143
C318	C	1.014543	0.495120	0.563143
C319	C	0.571264	-0.045356	0.063080
C320	C	1.071264	0.454644	0.563080
H321	H	0.512345	0.023315	0.114074
H322	H	1.012345	0.523315	0.614074
H323	H	0.477028	-0.031211	0.063200
H324	H	0.977028	0.468789	0.563200
H325	H	0.512281	0.023251	0.012162
H326	H	1.012281	0.523251	0.512162
H327	H	0.573582	-0.073495	0.114052
H328	H	1.073582	0.426505	0.614052
H329	H	0.608752	-0.018990	0.062985
H330	H	1.108752	0.481010	0.562985
H331	H	0.610025	0.011676	-0.335956
H332	H	1.110025	0.511676	0.164044
O333	O	0.387104	0.076634	-0.130964
O334	O	0.887104	0.576634	0.369036
C335	C	0.393387	0.076680	-0.262634
C336	C	0.893387	0.576680	0.237366
C337	C	0.426026	0.077056	-0.189585
C338	C	0.926026	0.577056	0.310415
H339	H	0.424842	0.077009	-0.310048
H340	H	0.924842	0.577009	0.189952
H341	H	0.360150	0.116216	-0.265998
H342	H	0.860150	0.616216	0.234002
H343	H	0.371003	0.036491	-0.265929
H344	H	0.871003	0.536491	0.234071
H345	H	0.448444	0.117218	-0.186241
H346	H	0.948444	0.617218	0.313759
H347	H	0.459230	0.037493	-0.186252
H348	H	0.959230	0.537493	0.313748
O349	O	0.772123	-0.654599	-0.000175
O350	O	1.272123	-0.154599	0.499825
C351	C	0.833182	-0.595745	-0.063235
C352	C	1.333182	-0.095745	0.436765
C353	C	0.775668	-0.620618	-0.063184
C354	C	1.275668	-0.120618	0.436816
H355	H	0.836062	-0.568257	-0.114165
H356	H	1.336062	-0.068257	0.385835
H357	H	0.869934	-0.632221	-0.063287
H358	H	1.369934	-0.132221	0.436713
H359	H	0.836113	-0.568311	-0.012253
H360	H	1.336113	-0.068311	0.487747
H361	H	0.772681	-0.648045	-0.114158
H362	H	1.272681	-0.148045	0.385842
H363	H	0.738943	-0.584116	-0.063094
H364	H	1.238943	-0.084116	0.436906
H365	H	0.226195	0.074646	-0.186852
H366	H	0.726195	0.574646	0.313148
O367	O	0.518708	-0.346451	-0.000035
O368	O	1.018708	0.153549	0.499965
C369	C	0.415632	-0.338676	0.000033
C370	C	0.915632	0.161324	0.500033
C371	C	0.472381	-0.379110	0.000042
C372	C	0.972381	0.120890	0.500042
H373	H	0.378161	-0.365064	0.000111
H374	H	0.878161	0.134936	0.500111
H375	H	0.413317	-0.310531	-0.050937
H376	H	0.913317	0.189469	0.449063
H377	H	0.413408	-0.310494	0.050977
H378	H	0.913408	0.189506	0.550977
H379	H	0.474642	-0.407328	-0.050867
H380	H	0.974642	0.092672	0.449133
H381	H	0.474671	-0.407216	0.051047
H382	H	0.974671	0.092784	0.551047
H383	H	0.118446	0.073349	-0.186850
H384	H	0.618446	0.573349	0.313150
H385	H	0.574220	-0.740232	-0.000030
H386	H	1.074220	-0.240232	0.499970
O387	O	-0.042428	0.071404	-0.130981
O388	O	0.457572	0.571404	0.369019
C389	C	-0.048711	0.071355	-0.262652
C390	C	0.451289	0.571355	0.237348
C391	C	-0.081351	0.070987	-0.189610
C392	C	0.418649	0.570987	0.310390
H393	H	-0.080168	0.071030	-0.310073
H394	H	0.419832	0.571030	0.189927
H395	H	-0.015481	0.031814	-0.266025
H396	H	0.484519	0.531814	0.233975
H397	H	-0.026320	0.111538	-0.265927
H398	H	0.473680	0.611538	0.234073
H399	H	-0.103777	0.030830	-0.186286
H400	H	0.396223	0.530830	0.313714
H401	H	-0.114549	0.110555	-0.186268
H402	H	0.385451	0.610555	0.313732
O403	O	-0.159458	0.069919	-0.130899
O404	O	0.340542	0.569919	0.369101
C405	C	-0.219825	0.019773	-0.207913
C406	C	0.280175	0.519773	0.292087
C407	C	-0.187144	0.020211	-0.134903
C408	C	0.312856	0.520211	0.365097
H409	H	-0.242227	-0.020405	-0.211168
H410	H	0.257773	0.479595	0.288832
H411	H	-0.188423	0.020112	-0.255388
H412	H	0.311577	0.520112	0.244612
H413	H	-0.253054	0.059317	-0.211214
H414	H	0.246946	0.559317	0.288786
H415	H	-0.153915	-0.019326	-0.131530
H416	H	0.346085	0.480674	0.368470
H417	H	-0.218580	0.019902	-0.087463
H418	H	0.281420	0.519902	0.412537
H419	H	0.770461	-0.111716	-0.000095
H420	H	1.270461	0.388284	0.499905
H421	H	0.769176	-0.219466	-0.000070
H422	H	1.269176	0.280534	0.499930
H423	H	0.734635	0.136365	-0.335893
H424	H	1.234635	0.636365	0.164107
H425	H	0.734624	0.136366	-0.196851
H426	H	1.234624	0.636366	0.303149
H427	H	0.819115	-0.392037	-0.000070
H428	H	1.319115	0.107963	0.499930
H429	H	0.817825	-0.499782	-0.000057
H430	H	1.317825	0.000218	0.499943
H431	H	0.525567	-0.459902	0.000002
H432	H	1.025567	0.040098	0.500002
H433	H	0.580761	-0.193774	-0.000072
H434	H	1.080761	0.306226	0.499928
O435	O	0.740105	0.141783	-0.658245
O436	O	1.240105	0.641783	-0.158245
C437	C	0.808210	0.209973	-0.666303
C438	C	1.308210	0.709973	-0.166303
C439	C	0.770409	0.172171	-0.708439
C440	C	1.270409	0.672171	-0.208439
H441	H	0.832712	0.234562	-0.706866
H442	H	1.332712	0.734562	-0.206866
H443	H	0.839857	0.181823	-0.630438
H444	H	1.339857	0.681823	-0.130438
H445	H	0.780010	0.241552	-0.630401
H446	H	1.280010	0.741552	-0.130401
H447	H	0.798564	0.140587	-0.744381
H448	H	1.298564	0.640587	-0.244381
H449	H	0.738759	0.200357	-0.744258
H450	H	1.238759	0.700357	-0.244258
H451	H	0.610054	0.011680	-0.803267
H452	H	1.110054	0.511680	-0.303267
