data_functionalizedCrystal
_audit_creation_method	'MofGen! by Chris Wilmer'
_symmetry_space_group_name_H-M	'P1'
_symmetry_Int_Tables_number	1
_symmetry_cell_setting	triclinic
loop_
_symmetry_equiv_pos_as_xyz
  x,y,z
_cell_length_a	14.971482
_cell_length_b	14.853567
_cell_length_c	14.048226
_cell_angle_alpha	89.997365
_cell_angle_beta	89.994098
_cell_angle_gamma	83.623769
loop_
_atom_site_label
_atom_site_type_symbol
_atom_site_fract_x
_atom_site_fract_y
_atom_site_fract_z
O1	O	1.186970	0.117472	-0.079140
O2	O	0.926572	0.131544	-0.079144
O3	O	1.063727	-0.006723	-0.079145
O4	O	1.049816	0.255739	-0.079139
O5	O	1.063710	-0.006731	0.079177
O6	O	0.926556	0.131536	0.079178
O7	O	1.186954	0.117463	0.079181
Zn8	Zn	1.056752	0.124499	0.104316
Zn9	Zn	1.056774	0.124509	-0.104279
O10	O	1.049799	0.255731	0.079182
C11	C	0.893239	0.130912	0.000016
C12	C	0.793942	0.129027	0.000015
C13	C	0.747288	0.128136	0.086317
C14	C	0.653989	0.126351	0.086318
C15	C	0.607345	0.125464	0.000016
C16	C	0.654006	0.126354	-0.086293
C17	C	0.747303	0.128132	-0.086293
C18	C	0.459543	0.122649	-0.086287
C19	C	0.366238	0.120872	-0.086287
C20	C	0.366228	0.120868	0.086324
C21	C	0.459526	0.122646	0.086324
C22	C	0.506180	0.123537	0.000015
C23	C	1.063088	-0.040316	0.000013
C24	C	1.061200	-0.140399	0.000005
C25	C	0.971742	-0.552915	0.000022
C26	C	1.134685	-0.574228	0.000024
C27	C	1.136461	-0.480195	0.000018
C28	C	1.055876	-0.422517	0.000016
C29	C	0.973516	-0.458873	0.000019
C30	C	1.218820	-0.443832	0.000025
C31	C	1.220599	-0.349793	0.000020
C32	C	1.140014	-0.292114	0.000011
C33	C	1.057650	-0.328475	0.000013
C34	C	0.977065	-0.270797	0.000011
C35	C	0.894700	-0.307156	0.000006
C36	C	0.892930	-0.401193	0.000010
C37	C	1.141784	-0.198077	0.000007
C38	C	0.978839	-0.176755	0.000008
C39	C	1.220287	0.118096	0.000019
C40	C	1.319585	0.119980	0.000015
C41	C	1.050438	0.289324	0.000022
C42	C	1.052327	0.389407	0.000024
N43	N	1.056744	0.124491	0.246677
N44	N	1.056789	0.124510	-0.246639
C45	C	1.117495	0.063291	0.296495
C46	C	1.117501	0.063291	0.396152
C47	C	1.056760	0.124495	0.445991
C48	C	0.996002	0.185697	0.396166
C49	C	0.995992	0.185693	0.296510
C50	C	0.996028	0.185704	0.603880
C51	C	0.996038	0.185710	0.703543
C52	C	1.117537	0.063302	0.703522
C53	C	1.117527	0.063297	0.603867
C54	C	1.056770	0.124501	0.554049
H55	H	0.328238	0.120143	0.156600
Cl56	Cl	0.595340	0.125246	0.194817
H57	H	0.328263	0.120151	-0.156562
H58	H	0.825873	-0.430806	0.000007
H59	H	0.785288	0.128860	-0.156569
Cl60	Cl	0.919612	0.262630	0.233883
H61	H	1.200293	-0.621195	0.000034
H62	H	0.616021	0.125625	-0.156562
H63	H	1.166969	0.013457	0.436713
Cl64	Cl	1.324142	-0.304093	0.000010
H65	H	0.904682	-0.582523	0.000014
H66	H	0.497526	0.123375	-0.156569
Cl67	Cl	0.919672	0.262654	0.766189
H68	H	1.284428	-0.490800	0.000036
H69	H	0.913216	-0.129799	0.000002
H70	H	0.497501	0.123374	0.156598
H71	H	0.829089	-0.260183	0.000011
H72	H	1.208844	-0.168477	0.000017
Cl73	Cl	1.193865	-0.013652	0.233851
H74	H	1.166991	0.013465	0.563288
Cl75	Cl	0.805916	0.129256	0.194817
H76	H	1.167006	0.013468	0.744090
Cl77	Cl	0.919643	0.262646	0.541256
Cl78	Cl	0.919635	0.262637	0.458818
