data_functionalizedCrystal
_audit_creation_method	'MofGen! by Chris Wilmer'
_symmetry_space_group_name_H-M	'P1'
_symmetry_Int_Tables_number	1
_symmetry_cell_setting	triclinic
loop_
_symmetry_equiv_pos_as_xyz
  x,y,z
_cell_length_a	21.295419
_cell_length_b	21.295418
_cell_length_c	21.295411
_cell_angle_alpha	90.017488
_cell_angle_beta	90.024539
_cell_angle_gamma	90.043188
loop_
_atom_site_label
_atom_site_type_symbol
_atom_site_fract_x
_atom_site_fract_y
_atom_site_fract_z
Zn1	Zn	0.962365	-0.250432	0.355929
Zn2	Zn	0.962271	-0.355684	0.250662
Zn3	Zn	0.857088	-0.250460	0.250674
Zn4	Zn	0.857061	-0.355695	0.355894
O5	O	0.909696	-0.303068	0.303290
O6	O	1.050442	-0.264378	0.341975
O7	O	0.948290	-0.341733	0.162575
O8	O	0.871104	-0.162367	0.264656
O9	O	1.050373	-0.341706	0.264636
O10	O	0.948450	-0.162347	0.341987
O11	O	0.871013	-0.264425	0.162583
O12	O	0.768995	-0.264436	0.264622
O13	O	0.871058	-0.341724	0.443988
O14	O	0.768975	-0.341751	0.341927
O15	O	0.948424	-0.264388	0.444014
O16	O	0.948264	-0.443775	0.264602
O17	O	0.870967	-0.443783	0.341915
C18	C	0.746145	-0.303098	0.303272
C19	C	0.676177	-0.303126	0.303280
C20	C	0.909620	-0.466619	0.303267
C21	C	0.909645	-0.536588	0.303278
C22	C	0.643368	-0.262927	0.343613
C23	C	0.577626	-0.262910	0.343615
C24	C	0.544694	-0.303104	0.303291
C25	C	0.577510	-0.343305	0.262951
C26	C	0.643252	-0.343317	0.262945
N27	N	0.441421	-0.358181	0.298375
N28	N	0.378969	-0.358168	0.298385
C29	C	0.346619	-0.303071	0.303305
N30	N	0.379080	-0.247985	0.308228
N31	N	0.441537	-0.247999	0.308223
C32	C	0.473409	-0.303095	0.303293
C33	C	0.242525	-0.262850	0.343643
C34	C	0.176782	-0.262832	0.343641
C35	C	0.176668	-0.343233	0.262980
C36	C	0.242410	-0.343245	0.262978
C37	C	0.275335	-0.303055	0.303313
C38	C	0.950049	-1.035982	0.343637
C39	C	0.950031	-0.970239	0.343627
C40	C	0.909782	-0.937427	0.303329
C41	C	0.869561	-0.970363	0.263027
C42	C	0.869585	-1.036104	0.263034
N43	N	0.854645	-0.834271	0.298439
N44	N	0.854624	-0.771819	0.298436
C45	C	0.909708	-0.739352	0.303306
N46	N	0.964816	-0.771696	0.308191
N47	N	0.964836	-0.834153	0.308197
C48	C	0.909752	-0.866142	0.303317
C49	C	0.949910	-0.635139	0.343591
C50	C	0.949893	-0.569395	0.343577
C51	C	0.869417	-0.569520	0.262981
C52	C	0.869440	-0.635262	0.262992
C53	C	0.909686	-0.668068	0.303300
C54	C	1.073887	-0.303038	0.303308
C55	C	1.143855	-0.303025	0.303316
C56	C	0.909749	-0.303054	0.467480
C57	C	0.909771	-0.303049	0.537448
C58	C	0.909790	-0.138877	0.303327
C59	C	0.909830	-0.068909	0.303343
C60	C	0.909680	-0.303036	0.139738
C61	C	0.909780	-0.302864	0.069771
C62	C	0.950054	-0.262778	0.570330
C63	C	0.950053	-0.262751	0.636072
C64	C	0.909776	-0.303005	0.668931
C65	C	0.869485	-0.343279	0.636042
C66	C	0.869483	-0.343301	0.570301
N67	N	0.904921	-0.358075	0.772150
N68	N	0.904927	-0.358052	0.834602
C69	C	0.909780	-0.302942	0.867006
N70	N	0.914638	-0.247853	0.834599
N71	N	0.914636	-0.247876	0.772142
C72	C	0.909774	-0.302986	0.740216
C73	C	0.950064	-0.262638	0.971173
C74	C	0.950058	-0.262610	1.036916
C75	C	0.869494	-0.343143	1.036885
C76	C	0.869496	-0.343166	0.971142
C77	C	0.909784	-0.302914	0.938290
H78	H	0.670172	-0.230200	0.376456
H79	H	0.550693	-0.376030	0.230118
C80	C	0.278199	-0.219251	0.387530
C81	C	0.262212	-0.233035	0.449789
C82	C	0.295054	-0.192880	0.490235
H83	H	0.322061	-0.224979	0.381839
H84	H	0.267451	-0.176928	0.378431
H85	H	0.272965	-0.275347	0.458884
H86	H	0.218356	-0.227303	0.455500
H87	H	0.284306	-0.150558	0.481136
H88	H	0.338915	-0.198612	0.484537
H89	H	0.284207	-0.202223	0.532481
C90	C	0.993831	-0.219132	0.671861
C91	C	1.034144	-0.254763	0.709629
C92	C	1.074476	-0.214604	0.742610
H93	H	1.017884	-0.195149	0.642951
H94	H	0.969790	-0.191708	0.697536
H95	H	1.058183	-0.282176	0.683957
H96	H	1.010108	-0.278745	0.738551
H97	H	1.050435	-0.187180	0.768285
H98	H	1.098525	-0.190623	0.713696
H99	H	1.101829	-0.238774	0.768244
C100	C	0.825936	-0.934775	0.219173
C101	C	0.839693	-0.950761	0.156903
C102	C	0.799525	-0.917986	0.116484
H103	H	0.783618	-0.945569	0.228263
H104	H	0.831684	-0.890899	0.224898
H105	H	0.833939	-0.994627	0.151181
H106	H	0.882003	-0.939966	0.147793
H107	H	0.805273	-0.874110	0.122209
H108	H	0.757209	-0.928782	0.125579
H109	H	0.808857	-0.928824	0.074229
C110	C	0.825978	-1.071971	0.219314
C111	C	0.834621	-1.136567	0.227938
C112	C	0.794466	-1.169629	0.187670
H113	H	0.783650	-1.061314	0.228446
H114	H	0.835214	-1.061245	0.177011
H115	H	0.825381	-1.147289	0.270231
H116	H	0.876942	-1.147243	0.218802
H117	H	0.803702	-1.158902	0.145368
H118	H	0.752140	-1.158966	0.196806
H119	H	0.800329	-1.213460	0.193512
H120	H	0.836689	-0.376052	0.662800
C121	C	0.825726	-0.387100	0.534711
C122	C	0.790461	-0.422359	0.577554
C123	C	0.750154	-0.462722	0.544791
H124	H	0.798257	-0.363106	0.509047
H125	H	0.849780	-0.414566	0.509092
H126	H	0.766409	-0.394897	0.603162
H127	H	0.817914	-0.446366	0.603219
H128	H	0.774208	-0.490187	0.519172
H129	H	0.722689	-0.438723	0.519129
H130	H	0.726226	-0.486654	0.573855
C131	C	0.141079	-0.219287	0.387471
C132	C	0.103310	-0.254985	0.427742
C133	C	0.070406	-0.214892	0.468123
H134	H	0.170035	-0.195342	0.411551
H135	H	0.115412	-0.191825	0.363462
H136	H	0.128976	-0.282436	0.451749
H137	H	0.074343	-0.278929	0.403680
H138	H	0.044739	-0.187430	0.444114
H139	H	0.099366	-0.190949	0.492199
H140	H	0.044772	-0.239107	0.495448
H141	H	0.982860	-0.229813	1.063687
C142	C	0.678762	-0.387036	0.219132
C143	C	0.635855	-0.422243	0.183826
C144	C	0.668546	-0.462532	0.143467
H145	H	0.704422	-0.362991	0.191691
H146	H	0.704379	-0.414538	0.243150
H147	H	0.610250	-0.394745	0.159811
H148	H	0.610195	-0.446301	0.211251
H149	H	0.694162	-0.490034	0.167484
H150	H	0.694204	-0.438482	0.116030
H151	H	0.639438	-0.486429	0.119511
H152	H	0.550908	-0.230172	0.376458
C153	C	0.993667	-0.670648	0.387382
C154	C	1.028898	-0.627736	0.422657
C155	C	1.069214	-0.660422	0.463002
H156	H	0.969641	-0.696304	0.414843
H157	H	1.021153	-0.696267	0.363355
H158	H	1.001416	-0.602128	0.446683
H159	H	1.052936	-0.602079	0.395213
H160	H	1.096700	-0.686041	0.438975
H161	H	1.045184	-0.686077	0.490459
H162	H	1.093128	-0.631311	0.486937
C163	C	0.140808	-0.386850	0.219268
C164	C	0.076212	-0.378248	0.227915
C165	C	0.043155	-0.418423	0.187663
H166	H	0.151493	-0.377619	0.176962
H167	H	0.151512	-0.429174	0.228414
H168	H	0.065513	-0.335933	0.218766
H169	H	0.065508	-0.387483	0.270213
H170	H	0.053859	-0.460747	0.196808
H171	H	0.053846	-0.409189	0.145360
H172	H	-0.000677	-0.412596	0.193529
H173	H	0.836687	-0.662073	0.230183
H174	H	0.836649	-0.542805	0.230167
H175	H	0.836693	-0.375913	1.063638
C176	C	0.993461	-0.533563	0.387364
C177	C	0.957781	-0.495829	0.427658
C178	C	0.997894	-0.462805	0.467998
H179	H	1.017444	-0.562447	0.411430
H180	H	1.020886	-0.507862	0.363327
H181	H	0.930366	-0.521528	0.451692
H182	H	0.933799	-0.466933	0.403609
H183	H	1.025320	-0.437105	0.443962
H184	H	1.021876	-0.491694	0.492060
H185	H	0.973692	-0.437195	0.495338
C186	C	0.277921	-0.386965	0.219169
C187	C	0.235013	-0.422174	0.183865
C188	C	0.267702	-0.462461	0.143504
H189	H	0.303578	-0.362920	0.191726
H190	H	0.303540	-0.414467	0.243185
H191	H	0.209405	-0.394676	0.159851
H192	H	0.209355	-0.446232	0.211292
H193	H	0.293321	-0.489963	0.167520
H194	H	0.293358	-0.438411	0.116065
H195	H	0.238594	-0.486359	0.119550
C196	C	0.993710	-0.218958	0.534706
C197	C	0.980019	-0.156678	0.550693
C198	C	1.020215	-0.116288	0.517886
H199	H	1.036023	-0.228074	0.545472
H200	H	0.987941	-0.224685	0.490834
H201	H	0.985793	-0.150953	0.594555
H202	H	0.937713	-0.147542	0.539925
H203	H	1.014446	-0.122015	0.474014
H204	H	1.062525	-0.125409	0.528654
H205	H	1.010927	-0.074026	0.528724
H206	H	0.982865	-0.229859	0.944423
C207	C	0.825739	-0.386962	0.935552
C208	C	0.790475	-0.422221	0.978397
C209	C	0.750161	-0.462577	0.945634
H210	H	0.798269	-0.362964	0.909893
H211	H	0.849787	-0.414428	0.909929
H212	H	0.766428	-0.394758	1.004009
H213	H	0.817928	-0.446232	1.004057
H214	H	0.774209	-0.490044	0.920012
H215	H	0.722695	-0.438574	0.919977
H216	H	0.726234	-0.486509	0.974699
H217	H	0.982825	-1.062688	0.376454
H218	H	0.982783	-0.943424	0.376440
