data_functionalizedCrystal
_audit_creation_method	'MofGen! by Chris Wilmer'
_symmetry_space_group_name_H-M	'P1'
_symmetry_Int_Tables_number	1
_symmetry_cell_setting	triclinic
loop_
_symmetry_equiv_pos_as_xyz
  x,y,z
_cell_length_a	17.699083
_cell_length_b	19.188930
_cell_length_c	16.176319
_cell_angle_alpha	89.988074
_cell_angle_beta	89.998611
_cell_angle_gamma	83.213899
loop_
_atom_site_label
_atom_site_type_symbol
_atom_site_fract_x
_atom_site_fract_y
_atom_site_fract_z
O1	O	1.003963	0.088294	-0.068640
O2	O	0.783569	0.099782	-0.068668
O3	O	0.900126	-0.007610	-0.068637
O4	O	0.887406	0.195687	-0.068671
O5	O	0.900110	-0.007617	0.068856
O6	O	0.783553	0.099775	0.068825
O7	O	1.003947	0.088288	0.068853
Cu8	Cu	0.893748	0.094031	0.081393
Cu9	Cu	0.893767	0.094039	-0.081208
O10	O	0.887390	0.195680	0.068822
C11	C	0.755365	0.099367	0.000075
C12	C	0.671348	0.098132	0.000065
C13	C	0.899706	-0.033625	0.000112
C14	C	0.898469	-0.111131	0.000119
C15	C	0.622644	0.161169	0.000055
C16	C	0.543702	0.160004	0.000065
C17	C	0.513466	0.095802	0.000081
C18	C	0.562176	0.032761	0.000093
C19	C	0.641117	0.033926	0.000088
C20	C	0.243819	0.028060	0.000115
C21	C	0.164873	0.026900	0.000117
C22	C	0.146405	0.154139	0.000092
C23	C	0.225345	0.155304	0.000087
C24	C	0.274049	0.092263	0.000104
C25	C	0.359646	0.093526	0.000094
C26	C	0.427870	0.094538	0.000085
C27	C	0.966861	-0.155978	0.000131
C28	C	0.965699	-0.228804	0.000118
C29	C	0.896142	-0.256778	0.000108
C30	C	0.827741	-0.211921	0.000091
C31	C	0.828905	-0.139098	0.000096
N32	N	0.842968	-0.364845	0.046893
N33	N	0.841868	-0.434025	0.046890
C34	C	0.892632	-0.476191	0.000091
N35	N	0.944550	-0.446565	-0.046694
N36	N	0.945653	-0.377379	-0.046687
C37	C	0.894873	-0.335742	0.000102
C38	C	0.959769	-0.600004	0.000088
C39	C	0.958604	-0.672830	0.000070
C40	C	0.820644	-0.655946	0.000051
C41	C	0.821811	-0.583121	0.000061
C42	C	0.891375	-0.555155	0.000084
C43	C	1.032151	0.088703	0.000108
C44	C	1.116167	0.089938	0.000113
C45	C	0.887810	0.221695	0.000071
C46	C	0.889046	0.299201	0.000059
N47	N	0.893741	0.094025	0.195758
N48	N	0.893781	0.094039	-0.195574
C49	C	0.945367	0.046491	0.239036
C50	C	0.945371	0.046490	0.325584
C51	C	0.893751	0.094027	0.368851
C52	C	0.842119	0.141563	0.325567
C53	C	0.842112	0.141560	0.239022
C54	C	0.842145	0.141576	0.674595
C55	C	0.842157	0.141577	0.761147
C56	C	0.945404	0.046506	0.761157
C57	C	0.945397	0.046503	0.674612
C58	C	0.893763	0.094036	0.631335
C59	C	0.893758	0.094036	0.537491
C60	C	0.893759	0.094031	0.462694
H61	H	0.504050	0.211335	0.000056
H62	H	0.680771	-0.017406	0.000096
H63	H	1.014299	-0.709345	0.000076
H64	H	0.106741	0.205470	0.000082
N65	N	1.001097	-0.004765	0.807834
H66	H	0.993270	0.002445	0.869226
H67	H	0.992524	-0.054288	0.792719
H68	H	0.764009	-0.678722	0.000039
H69	H	1.023506	-0.133213	0.000147
H70	H	0.249959	0.207584	0.000070
H71	H	0.800085	0.180266	0.360800
N72	N	0.786452	0.192838	0.627925
H73	H	0.753755	0.222952	0.668470
H74	H	0.815311	0.223673	0.591998
N75	N	1.001066	-0.004777	0.627948
H76	H	0.993226	0.002434	0.566554
H77	H	1.054732	0.003222	0.643062
N78	N	1.034794	-0.569833	0.000111
H79	H	1.064756	-0.586179	-0.050855
H80	H	1.025086	-0.516899	0.000152
H81	H	0.766119	-0.546605	0.000056
H82	H	0.800071	0.180266	0.203785
N83	N	0.655247	0.230419	0.000031
H84	H	0.637473	0.258028	0.050996
H85	H	0.712641	0.221539	-0.000005
N86	N	0.529566	-0.036486	0.000102
H87	H	0.572401	-0.076243	0.000109
H88	H	0.497215	-0.039745	0.051073
N89	N	0.786475	0.192847	0.807817
H90	H	0.753760	0.222957	0.767270
H91	H	0.753118	0.166148	0.843738
N92	N	1.001072	-0.004772	0.372249
H93	H	0.972277	-0.035666	0.408172
H94	H	1.033757	-0.034826	0.331642
N95	N	0.132258	-0.042350	0.000135
H96	H	0.175090	-0.082110	0.000147
H97	H	0.099906	-0.045600	0.051106
H98	H	0.987405	0.007784	0.203814
N99	N	0.296343	-0.039931	0.000139
H100	H	0.265208	-0.080777	0.000148
H101	H	0.329502	-0.042223	-0.050830
H102	H	1.021394	-0.265325	0.000125
H103	H	0.771107	-0.234702	0.000081
H104	H	0.773210	-0.102582	0.000086
