data_functionalizedCrystal
_audit_creation_method	'MofGen! by Chris Wilmer'
_symmetry_space_group_name_H-M	'P1'
_symmetry_Int_Tables_number	1
_symmetry_cell_setting	triclinic
loop_
_symmetry_equiv_pos_as_xyz
  x,y,z
_cell_length_a	10.489716
_cell_length_b	17.699083
_cell_length_c	16.176319
_cell_angle_alpha	90.002310
_cell_angle_beta	89.989528
_cell_angle_gamma	96.093925
loop_
_atom_site_label
_atom_site_type_symbol
_atom_site_fract_x
_atom_site_fract_y
_atom_site_fract_z
O1	O	0.161274	-1.005123	0.068623
O2	O	0.182259	-0.784881	0.068649
O3	O	-0.013927	-0.900023	0.068639
O4	O	0.357460	-0.889981	0.068634
O5	O	-0.013891	-0.900012	-0.068855
O6	O	0.182294	-0.784870	-0.068844
O7	O	0.161309	-1.005112	-0.068870
Cu8	Cu	0.171805	-0.894990	-0.081411
Cu9	Cu	0.171763	-0.895003	0.081191
O10	O	0.357495	-0.889970	-0.068859
C11	C	0.181525	-0.756673	-0.000094
C12	C	0.179269	-0.672641	-0.000083
C13	C	-0.061427	-0.899263	-0.000105
C14	C	-0.203016	-0.897006	-0.000098
C15	C	0.162043	-1.033319	-0.000125
C16	C	0.164299	-1.117352	-0.000130
C17	C	-0.302002	-0.967614	-0.000113
C18	C	-0.378687	-0.930309	0.067680
C19	C	-0.378616	-0.930281	-0.067877
C20	C	-0.277836	-0.859729	0.067752
C21	C	-0.277760	-0.859712	-0.067866
C22	C	-0.354395	-0.822355	-0.000056
C23	C	0.404995	-0.890730	-0.000113
C24	C	0.546584	-0.892987	-0.000116
N25	N	0.171834	-0.894986	-0.195776
C26	C	0.294426	-0.624767	-0.000085
C27	C	0.292299	-0.545810	-0.000096
C28	C	0.175013	-0.514728	-0.000099
C29	C	0.059847	-0.562608	-0.000100
C30	C	0.061976	-0.641563	-0.000095
C31	C	0.051261	-0.244189	-0.000120
C32	C	0.049141	-0.165227	-0.000122
C33	C	0.281583	-0.148436	-0.000121
C34	C	0.283712	-0.227391	-0.000116
C35	C	0.168547	-0.275264	-0.000121
C36	C	0.170855	-0.360878	-0.000111
C37	C	0.172704	-0.429115	-0.000103
C38	C	0.094472	-0.848693	-0.761159
C39	C	0.094482	-0.848692	-0.674612
C40	C	0.171752	-0.895006	-0.631352
C41	C	0.249007	-0.941330	-0.674643
C42	C	0.248990	-0.941335	-0.761188
C43	C	0.249079	-0.941312	-0.325614
C44	C	0.249094	-0.941302	-0.239063
C45	C	0.094572	-0.848669	-0.239039
C46	C	0.094554	-0.848674	-0.325584
C47	C	0.171804	-0.895001	-0.368867
C48	C	0.171790	-0.895003	-0.462712
C49	C	0.171773	-0.895000	-0.537509
N50	N	0.171724	-0.895012	0.195556
H51	H	-0.278467	-1.029032	-0.000052
H52	H	0.386071	-0.506834	-0.000096
H53	H	0.031572	-0.810976	-0.639374
H54	H	-0.233674	-0.829927	-0.125177
N55	N	0.015647	-0.801366	-0.194806
N56	N	-0.068734	-0.830470	-0.146497
H57	H	-0.124472	-0.797064	-0.115256
H58	H	0.311916	-0.979044	-0.639413
N59	N	0.015546	-0.801372	-0.805332
N60	N	-0.053423	-0.760019	-0.766671
H61	H	-0.109169	-0.726597	-0.797865
N62	N	0.015626	-0.801355	-0.369760
N63	N	-0.053346	-0.760002	-0.331102
H64	H	-0.109094	-0.726582	-0.362299
H65	H	0.312020	-0.979019	-0.203842
N66	N	0.327990	-0.988638	-0.369807
N67	N	0.396974	-1.029984	-0.331168
H68	H	0.452710	-1.063410	-0.362381
N69	N	0.327901	-0.988658	-0.805393
N70	N	0.396885	-1.030008	-0.766760
H71	H	0.452615	-1.063435	-0.797978
N72	N	-0.433997	-0.967693	0.139570
N73	N	-0.494137	-0.931712	0.190317
H74	H	-0.533201	-0.958118	0.241087
H75	H	-0.377683	-0.760891	-0.000012
N76	N	-0.222831	-0.822380	0.139739
N77	N	-0.162035	-0.858236	0.190221
H78	H	-0.123185	-0.831862	0.241063
N79	N	-0.433822	-0.967692	-0.139773
N80	N	-0.421976	-1.036355	-0.151839
H81	H	-0.460964	-1.062782	-0.202612
H82	H	0.389933	-0.650067	-0.000082
N83	N	0.403527	-0.259127	-0.000105
N84	N	0.506340	-0.216373	-0.000107
H85	H	0.590963	-0.238785	-0.000100
N86	N	0.399214	-0.099522	-0.000135
N87	N	0.423977	-0.053597	-0.058097
H88	H	0.507051	-0.019052	-0.058106
H89	H	-0.046372	-0.139924	-0.000126
H90	H	-0.035649	-0.537295	-0.000114
N91	N	-0.066384	-0.293072	-0.000122
N92	N	-0.171091	-0.265307	-0.000120
H93	H	-0.254186	-0.299833	-0.000119
H94	H	-0.031797	-0.680542	-0.000093
