data_functionalizedCrystal
_audit_creation_method	'MofGen! by Chris Wilmer'
_symmetry_space_group_name_H-M	'P1'
_symmetry_Int_Tables_number	1
_symmetry_cell_setting	triclinic
loop_
_symmetry_equiv_pos_as_xyz
  x,y,z
_cell_length_a	21.395362
_cell_length_b	16.120531
_cell_length_c	21.395355
_cell_angle_alpha	92.877227
_cell_angle_beta	90.043940
_cell_angle_gamma	87.050851
loop_
_atom_site_label
_atom_site_type_symbol
_atom_site_fract_x
_atom_site_fract_y
_atom_site_fract_z
Zn1	Zn	0.945215	0.331659	0.367200
Zn2	Zn	1.278548	0.664992	0.700533
Zn3	Zn	1.611882	0.998325	1.033867
Zn4	Zn	0.939803	0.471058	0.267724
Zn5	Zn	1.273136	0.804391	0.601058
Zn6	Zn	1.606470	1.137724	0.934391
Zn7	Zn	0.840428	0.331698	0.262403
Zn8	Zn	1.173762	0.665031	0.595736
Zn9	Zn	1.507095	0.998364	0.929069
Zn10	Zn	0.835084	0.471075	0.372430
Zn11	Zn	1.168417	0.804408	0.705763
Zn12	Zn	1.501751	1.137741	1.039096
O13	O	0.890133	0.401372	0.317439
O14	O	1.223466	0.734706	0.650773
O15	O	1.556799	1.068039	0.984106
O16	O	1.032176	0.350127	0.354043
O17	O	1.365509	0.683460	0.687376
O18	O	1.698843	1.016794	1.020709
O19	O	0.926592	0.452580	0.179341
O20	O	1.259926	0.785914	0.512674
O21	O	1.593259	1.119247	0.846008
O22	O	0.858830	0.215024	0.271888
O23	O	1.192164	0.548357	0.605222
O24	O	1.525497	0.881690	0.938555
O25	O	1.028200	0.452543	0.280959
O26	O	1.361533	0.785876	0.614292
O27	O	1.694866	1.119209	0.947625
O28	O	0.935817	0.214995	0.348883
O29	O	1.269150	0.548329	0.682216
O30	O	1.602483	0.881662	1.015549
O31	O	0.853582	0.350193	0.175431
O32	O	1.186916	0.683526	0.508764
O33	O	1.520249	1.016860	0.842098
O34	O	0.752041	0.350210	0.276960
O35	O	1.085374	0.683543	0.610293
O36	O	1.418707	1.016876	0.943626
O37	O	0.849721	0.452572	0.459414
O38	O	1.183055	0.785905	0.792747
O39	O	1.516388	1.119239	1.126080
O40	O	0.748114	0.452609	0.357796
O41	O	1.081447	0.785943	0.691129
O42	O	1.414781	1.119276	1.024463
O43	O	0.930634	0.350144	0.455571
O44	O	1.263967	0.683477	0.788905
O45	O	1.597301	1.016810	1.122238
O46	O	0.921410	0.587729	0.286030
O47	O	1.254743	0.921062	0.619363
O48	O	1.588077	1.254395	0.952696
O49	O	0.844473	0.587741	0.362956
O50	O	1.177807	0.921074	0.696290
O51	O	1.511140	1.254408	1.029623
C52	C	0.727343	0.401416	0.317368
C53	C	1.060677	0.734750	0.650702
C54	C	1.394010	1.068083	0.984035
C55	C	0.657700	0.401455	0.317353
C56	C	0.991034	0.734789	0.650687
C57	C	1.324367	1.068122	0.984020
C58	C	0.622956	0.454845	0.359388
C59	C	0.956290	0.788179	0.692721
C60	C	1.289623	1.121512	1.026054
C61	C	0.557522	0.454825	0.359415
C62	C	0.890855	0.788158	0.692748
C63	C	1.224188	1.121492	1.026081
C64	C	0.526833	0.401423	0.317397
C65	C	0.860167	0.734756	0.650730
C66	C	1.193500	1.068090	0.984064
C67	C	0.561586	0.348023	0.275359
C68	C	0.894919	0.681356	0.608693
C69	C	1.228252	1.014689	0.942026
C70	C	0.627019	0.348039	0.275338
C71	C	0.960353	0.681372	0.608671
C72	C	1.293686	1.014705	0.942004
C73	C	0.423365	0.394707	0.260736
C74	C	0.756698	0.728040	0.594070
C75	C	1.090031	1.061373	0.927403
C76	C	0.357932	0.394696	0.260757
C77	C	0.691266	0.728030	0.594090
C78	C	1.024599	1.061363	0.927424
C79	C	0.325015	0.401369	0.317464
C80	C	0.658348	0.734702	0.650797
C81	C	0.991681	1.068035	0.984131
C82	C	0.357537	0.408069	0.374152
C83	C	0.690871	0.741402	0.707486
C84	C	1.024204	1.074735	1.040819
C85	C	0.422971	0.408085	0.374131
C86	C	0.756304	0.741418	0.707464
C87	C	1.089638	1.074751	1.040797
C88	C	0.455882	0.401399	0.317416
C89	C	0.789215	0.734733	0.650749
C90	C	1.122549	1.068066	0.984083
C91	C	0.219319	0.454740	0.359531
C92	C	0.552652	0.788073	0.692864
C93	C	0.885986	1.121406	1.026198
C94	C	0.153883	0.454713	0.359559
C95	C	0.487217	0.788047	0.692892
C96	C	0.820550	1.121380	1.026226
C97	C	0.157948	0.347915	0.275498
C98	C	0.491282	0.681249	0.608832
C99	C	0.824615	1.014582	0.942165
C100	C	0.223383	0.347937	0.275476
C101	C	0.556716	0.681270	0.608809
C102	C	0.890050	1.014604	0.942142
C103	C	0.254064	0.401354	0.317491
C104	C	0.587397	0.734687	0.650825
C105	C	0.920731	1.068020	0.984158
C106	C	0.881791	0.617986	0.325652
C107	C	1.215125	0.951319	0.658985
C108	C	1.548458	1.284652	0.992318
C109	C	0.878280	0.710654	0.329186
C110	C	1.211614	1.043987	0.662519
C111	C	1.544947	1.377321	0.995853
C112	C	0.871874	0.880320	0.335651
C113	C	1.205207	1.213653	0.668985
C114	C	1.538540	1.546986	1.002318
C115	C	0.908415	0.921584	0.299192
C116	C	1.241748	1.254918	0.632525
C117	C	1.575082	1.588251	0.965858
C118	C	0.904850	1.015992	0.302789
C119	C	1.238184	1.349325	0.636122
C120	C	1.571517	1.682659	0.969456
C121	C	0.875438	0.785903	0.332055
C122	C	1.208771	1.119237	0.665388
C123	C	1.542104	1.452570	0.998721
C124	C	1.053558	0.401329	0.317511
C125	C	1.386891	0.734662	0.650844
C126	C	1.720224	1.067995	0.984178
C127	C	1.123200	0.401310	0.317541
C128	C	1.456533	0.734643	0.650875
C129	C	1.789866	1.067977	0.984208
C130	C	0.890185	0.401355	0.480862
C131	C	1.223519	0.734689	0.814195
C132	C	1.556852	1.068022	1.147529
C133	C	0.890208	0.401348	0.550503
C134	C	1.223541	0.734681	0.883836
C135	C	1.556874	1.068015	1.217170
C136	C	0.898501	1.183913	0.309197
C137	C	1.231834	1.517246	0.642530
C138	C	1.565168	1.850579	0.975864
C139	C	0.902010	1.091245	0.305655
C140	C	1.235343	1.424578	0.638989
C141	C	1.568677	1.757911	0.972322
C142	C	0.890118	0.401329	0.154650
C143	C	1.223452	0.734662	0.487983
C144	C	1.556785	1.067995	0.821317
C145	C	0.890226	0.401101	0.085000
C146	C	1.223560	0.734434	0.418334
C147	C	1.556893	1.067768	0.751667
C148	C	0.932337	0.348011	0.581216
C149	C	1.265671	0.681345	0.914550
C150	C	1.599004	1.014678	1.247883
C151	C	0.932338	0.347976	0.646650
C152	C	1.265671	0.681309	0.979984
C153	C	1.599005	1.014642	1.313317
C154	C	0.890215	0.401291	0.681369
C155	C	1.223548	0.734625	1.014703
C156	C	1.556881	1.067958	1.348036
C157	C	0.848077	0.454632	0.650648
C158	C	1.181410	0.787965	0.983981
C159	C	1.514744	1.121298	1.317315
C160	C	0.848074	0.454660	0.585215
C161	C	1.181407	0.787993	0.918548
C162	C	1.514740	1.121327	1.251882
C163	C	0.882377	0.476362	0.787888
C164	C	1.215710	0.809696	1.121222
C165	C	1.549043	1.143029	1.454555
C166	C	0.882385	0.476335	0.853320
C167	C	1.215718	0.809669	1.186654
C168	C	1.549051	1.143002	1.519987
C169	C	0.890222	0.401203	0.883187
C170	C	1.223555	0.734536	1.216520
C171	C	1.556889	1.067870	1.549853
C172	C	0.898065	0.326096	0.847613
C173	C	1.231398	0.659429	1.180946
C174	C	1.564731	0.992763	1.514280
C175	C	0.898061	0.326124	0.782180
C176	C	1.231395	0.659458	1.115513
C177	C	1.564728	0.992791	1.448847
C178	C	0.890214	0.401266	0.752321
C179	C	1.223547	0.734599	1.085654
C180	C	1.556880	1.067933	1.418987
C181	C	0.932355	0.347823	0.984851
C182	C	1.265688	0.681156	1.318184
C183	C	1.599021	1.014490	1.651518
C184	C	0.932351	0.347786	1.050286
C185	C	1.265684	0.681119	1.383620
C186	C	1.599017	1.014453	1.716953
C187	C	0.848093	0.454449	1.054283
C188	C	1.181426	0.787783	1.387616
C189	C	1.514760	1.121116	1.720950
C190	C	0.848094	0.454479	0.988849
C191	C	1.181427	0.787813	1.322182
C192	C	1.514760	1.121146	1.655515
C193	C	0.890228	0.401167	0.954137
C194	C	1.223561	0.734501	1.287470
C195	C	1.556895	1.067834	1.620803
H196	H	0.647933	0.498340	0.393601
H197	H	0.981266	0.831674	0.726934
H198	H	1.314600	1.165007	1.060268
O199	O	0.802655	0.512015	0.955721
O200	O	1.135988	0.845348	1.289054
O201	O	1.469322	1.178681	1.622388
H202	H	0.809726	0.503073	0.904389
H203	H	1.143059	0.836406	1.237722
H204	H	1.476392	1.169740	1.571055
O205	O	0.528491	0.290441	0.230025
O206	O	0.861825	0.623774	0.563359
O207	O	1.195158	0.957108	0.896692
H208	H	0.477153	0.299411	0.237093
H209	H	0.810486	0.632744	0.570426
H210	H	1.143820	0.966078	0.903760
H211	H	0.529228	0.498301	0.393646
H212	H	0.862561	0.831635	0.726980
H213	H	1.195894	1.164968	1.060313
O214	O	0.826881	0.927439	0.380563
O215	O	1.160214	1.260773	0.713896
O216	O	1.493547	1.594106	1.047230
H217	H	0.853435	0.967060	0.413953
H218	H	1.186768	1.300393	0.747286
H219	H	1.520101	1.633726	1.080620
H220	H	0.244301	0.498230	0.393746
H221	H	0.577634	0.831564	0.727079
H222	H	0.910968	1.164897	1.060413
H223	H	0.450161	0.389270	0.214555
H224	H	0.783494	0.722603	0.547889
H225	H	1.116827	1.055936	0.881222
O226	O	0.977791	0.290322	0.947402
O227	O	1.311125	0.623656	1.280736
O228	O	1.644458	0.956989	1.614069
H229	H	0.969566	0.224885	0.957456
H230	H	1.302899	0.558218	1.290789
H231	H	1.636233	0.891551	1.624122
H232	H	0.813764	0.498092	0.560209
H233	H	1.147097	0.831425	0.893542
H234	H	1.480430	1.164759	1.226875
O235	O	0.116400	0.512411	0.404819
O236	O	0.449733	0.845744	0.738152
O237	O	0.783066	1.179078	1.071486
H238	H	0.148729	0.549600	0.433996
H239	H	0.482062	0.882934	0.767330
H240	H	0.815395	1.216267	1.100663
O241	O	0.664499	0.290467	0.229988
O242	O	0.997832	0.623801	0.563321
O243	O	1.331166	0.957134	0.896655
H244	H	0.632169	0.253334	0.200769
H245	H	0.965503	0.586668	0.534102
H246	H	1.298836	0.920001	0.867436
O247	O	0.802659	0.511952	1.091725
O248	O	1.135992	0.845285	1.425058
O249	O	1.469325	1.178618	1.758391
H250	H	0.754036	0.497663	1.078588
H251	H	1.087369	0.830996	1.411922
H252	H	1.420703	1.164330	1.745255
H253	H	0.330738	0.413500	0.420329
H254	H	0.664071	0.746834	0.753662
H255	H	0.997404	1.080167	1.086995
O256	O	0.953402	0.874471	0.254264
O257	O	1.286735	1.207804	0.587597
O258	O	1.620069	1.541137	0.920930
H259	H	0.926838	0.834868	0.220870
H260	H	1.260172	1.168202	0.554203
H261	H	1.593505	1.501535	0.887536
O262	O	0.458047	0.415295	0.435270
O263	O	0.791380	0.748628	0.768604
O264	O	1.124713	1.081962	1.101937
H265	H	0.485660	0.471781	0.436345
H266	H	0.818993	0.805115	0.769678
H267	H	1.152327	1.138448	1.103012
H268	H	0.966646	0.304600	0.552958
H269	H	1.299979	0.637933	0.886291
H270	H	1.633312	0.971266	1.219624
H271	H	0.966644	0.304538	0.671662
H272	H	1.299977	0.637871	1.004995
H273	H	1.633310	0.971205	1.338329
O274	O	0.906516	0.245124	0.743808
O275	O	1.239850	0.578457	1.077142
O276	O	1.573183	0.911791	1.410475
H277	H	0.911965	0.192871	0.775564
H278	H	1.245298	0.526204	1.108897
H279	H	1.578631	0.859537	1.442230
O280	O	0.906502	0.245049	0.879814
O281	O	1.239835	0.578382	1.213147
O282	O	1.573169	0.911715	1.546480
H283	H	0.905174	0.257641	0.931289
H284	H	1.238507	0.590975	1.264623
H285	H	1.571840	0.924308	1.597956
O286	O	0.124859	0.290322	0.230171
O287	O	0.458193	0.623655	0.563505
O288	O	0.791526	0.956988	0.896838
H289	H	0.073521	0.299284	0.237244
H290	H	0.406855	0.632618	0.570577
H291	H	0.740188	0.965951	0.903910
O292	O	0.977794	0.290257	1.083418
O293	O	1.311127	0.623591	1.416751
O294	O	1.644460	0.956924	1.750085
H295	H	1.007094	0.253200	1.048285
H296	H	1.340427	0.586534	1.381619
H297	H	1.673760	0.919867	1.714952
O298	O	0.873919	0.557337	0.891688
O299	O	1.207253	0.890670	1.225021
O300	O	1.540586	1.224004	1.558355
H301	H	0.868454	0.609584	0.859929
H302	H	1.201787	0.942918	1.193262
H303	H	1.535120	1.276251	1.526596
O304	O	0.873915	0.557401	0.755676
O305	O	1.207248	0.890734	1.089010
O306	O	1.540582	1.224068	1.422343
H307	H	0.868469	0.609621	0.791404
H308	H	1.201803	0.942955	1.124737
H309	H	1.535136	1.276288	1.458070
H310	H	0.331457	0.389246	0.214598
H311	H	0.664791	0.722579	0.547931
H312	H	0.998124	1.055913	0.881265
H313	H	0.251672	0.304465	0.241244
H314	H	0.585005	0.637798	0.574577
H315	H	0.918339	0.971132	0.907911
O316	O	0.802641	0.512137	0.688089
O317	O	1.135974	0.845470	1.021422
O318	O	1.469308	1.178803	1.354756
H319	H	0.809724	0.503162	0.738750
H320	H	1.143058	0.836495	1.072083
H321	H	1.476391	1.169828	1.405416
