data_functionalizedCrystal
_audit_creation_method	'MofGen! by Chris Wilmer'
_symmetry_space_group_name_H-M	'P1'
_symmetry_Int_Tables_number	1
_symmetry_cell_setting	triclinic
loop_
_symmetry_equiv_pos_as_xyz
  x,y,z
_cell_length_a	10.540539
_cell_length_b	11.792241
_cell_length_c	10.268362
_cell_angle_alpha	90.001488
_cell_angle_beta	90.002580
_cell_angle_gamma	84.359454
loop_
_atom_site_label
_atom_site_type_symbol
_atom_site_fract_x
_atom_site_fract_y
_atom_site_fract_z
O1	O	1.685367	0.159950	0.108239
O2	O	1.315905	0.175021	0.108256
O3	O	1.509602	0.002339	0.108238
O4	O	1.491670	0.332633	0.108257
O5	O	1.509583	0.002344	-0.108363
O6	O	1.315886	0.175027	-0.108345
O7	O	1.685349	0.159956	-0.108361
Cu8	Cu	1.500616	0.167492	-0.128130
Cu9	Cu	1.500638	0.167485	0.128025
O10	O	1.491652	0.332639	-0.108344
C11	C	1.268596	0.173894	-0.000043
C12	C	1.127659	0.170513	-0.000037
C13	C	1.508466	-0.039952	-0.000062
C14	C	1.505095	-0.165975	-0.000060
C15	C	1.498896	-0.396703	-0.000038
C16	C	1.502340	-0.268309	-0.000050
C17	C	0.944655	0.040941	-0.000550
C18	C	1.091262	0.044369	-0.000048
C19	C	1.065800	0.231215	0.123651
C20	C	0.919269	0.226910	0.123741
C21	C	0.918751	0.229483	-0.122574
C22	C	1.065729	0.230644	-0.124195
C23	C	1.732657	0.161083	-0.000060
C24	C	1.873594	0.164465	-0.000057
C25	C	1.492787	0.374930	-0.000041
C26	C	1.496159	0.500952	-0.000034
N27	N	1.500610	0.167496	-0.308296
C28	C	1.500619	0.167497	-0.426139
C29	C	1.500635	0.167487	-0.573977
N30	N	1.500654	0.167472	0.308191
H31	H	0.916224	-0.008890	-0.089254
H32	H	1.089655	0.322611	-0.131658
H33	H	1.134023	-0.003394	-0.088714
H34	H	1.133171	-0.003736	0.088765
H35	H	0.871228	0.320595	-0.123404
N36	N	1.120163	0.171911	-0.245409
H37	H	1.101581	0.089506	-0.244635
H38	H	1.215394	0.175996	-0.247781
N39	N	0.904835	-0.024797	0.116269
H40	H	0.927102	0.015632	0.198660
H41	H	0.950918	-0.104038	0.115102
N42	N	0.882092	0.167474	0.246199
H43	H	0.960857	0.144311	0.299613
H44	H	0.839237	0.097468	0.222111
N45	N	0.855325	0.347074	0.131134
H46	H	0.922361	0.402603	0.134332
H47	H	0.800961	0.355747	0.212186
H48	H	0.887330	0.188662	-0.216329
H49	H	1.087851	0.323851	0.128259
N50	N	1.122380	0.175363	0.245593
H51	H	1.217333	0.181170	0.247014
H52	H	1.105665	0.092492	0.246739
