data_functionalizedCrystal
_audit_creation_method	'MofGen! by Chris Wilmer'
_symmetry_space_group_name_H-M	'P1'
_symmetry_Int_Tables_number	1
_symmetry_cell_setting	triclinic
loop_
_symmetry_equiv_pos_as_xyz
  x,y,z
_cell_length_a	6.394989
_cell_length_b	9.730223
_cell_length_c	10.654549
_cell_angle_alpha	89.995858
_cell_angle_beta	94.508756
_cell_angle_gamma	90.003266
loop_
_atom_site_label
_atom_site_type_symbol
_atom_site_fract_x
_atom_site_fract_y
_atom_site_fract_z
O1	O	-0.293443	-0.114248	1.670950
O2	O	-0.321401	-0.114257	1.305768
O3	O	-0.003433	-0.114254	1.493543
O4	O	-0.611411	-0.114252	1.483176
O5	O	-0.003414	0.114326	1.493524
O6	O	-0.321382	0.114323	1.305749
O7	O	-0.293424	0.114331	1.670931
Zn8	Zn	-0.307400	0.150619	1.488337
Zn9	Zn	-0.307425	-0.150545	1.488362
O10	O	-0.611392	0.114328	1.483157
C11	C	-0.319339	0.000031	1.258939
C12	C	-0.313197	0.000028	1.119430
N13	N	-0.307381	0.356155	1.488330
C14	C	-0.494626	0.000034	0.910837
C15	C	-0.500412	0.000026	1.041919
C16	C	-0.120184	0.000024	1.065854
C17	C	-0.114400	0.000023	0.934774
C18	C	0.074428	0.000031	1.491484
C19	C	0.310754	0.000030	1.485219
C20	C	-0.295486	0.000040	1.717761
C21	C	-0.301627	0.000034	1.857269
C22	C	-0.179525	0.572016	1.410175
C23	C	-0.179496	0.428133	1.410160
C24	C	-0.435290	0.428068	1.566529
C25	C	-0.435307	0.571948	1.566549
N26	N	-0.307428	0.643919	1.488365
H27	H	-0.647079	0.000043	0.847736
C28	C	0.085756	0.000025	1.151115
C29	C	0.134073	0.118726	1.244507
C30	C	0.340017	0.118731	1.329766
C31	C	0.497644	0.000035	1.321632
C32	C	0.449331	-0.118675	1.228236
C33	C	0.243387	-0.118680	1.142977
H34	H	0.017384	0.206600	1.250531
H35	H	0.375780	0.206609	1.398904
H36	H	0.650096	0.000039	1.384746
H37	H	0.566020	-0.206549	1.222212
H38	H	0.207624	-0.206558	1.073839
C39	C	-0.575967	0.348895	1.652516
C40	C	-0.477063	0.249956	1.753226
C41	C	-0.617749	0.170785	1.839211
C42	C	-0.857338	0.190552	1.824488
C43	C	-0.956254	0.289495	1.723774
C44	C	-0.815568	0.368666	1.637789
H45	H	-0.299694	0.235319	1.764129
H46	H	-0.544523	0.097541	1.913766
H47	H	-0.961482	0.131944	1.888140
H48	H	-1.133624	0.304131	1.712871
H49	H	-0.888794	0.441910	1.563234
H50	H	-0.657570	0.000024	1.085527
C51	C	-0.038808	0.349042	1.324143
C52	C	0.200776	0.368854	1.338860
C53	C	0.341472	0.289764	1.252840
C54	C	0.242585	0.190862	1.152102
C55	C	0.002988	0.171045	1.137380
C56	C	-0.137708	0.250135	1.223401
H57	H	0.273990	0.442072	1.413436
H58	H	0.518838	0.304435	1.263738
H59	H	0.346736	0.132315	1.088424
H60	H	-0.070226	0.097827	1.062804
H61	H	-0.315073	0.235464	1.212502
C62	C	-0.576011	0.651053	1.652563
C63	C	-0.716693	0.571895	1.738551
C64	C	-0.857383	0.651000	1.824565
C65	C	-0.857392	0.809263	1.824590
C66	C	-0.716705	0.888429	1.738599
C67	C	-0.576015	0.809324	1.652585
H68	H	-0.716691	0.454731	1.738535
H69	H	-0.961529	0.592394	1.888221
H70	H	-0.961539	0.867821	1.888262
H71	H	-0.716707	1.005593	1.738615
H72	H	-0.471869	0.867930	1.588929
H73	H	0.042772	0.000018	0.891159
H74	H	-0.075397	0.630610	1.346513
