data_functionalizedCrystal
_audit_creation_method	'MofGen! by Chris Wilmer'
_symmetry_space_group_name_H-M	'P1'
_symmetry_Int_Tables_number	1
_symmetry_cell_setting	triclinic
loop_
_symmetry_equiv_pos_as_xyz
  x,y,z
_cell_length_a	10.654550
_cell_length_b	15.995350
_cell_length_c	9.730223
_cell_angle_alpha	89.997832
_cell_angle_beta	89.999957
_cell_angle_gamma	83.988653
loop_
_atom_site_label
_atom_site_type_symbol
_atom_site_fract_x
_atom_site_fract_y
_atom_site_fract_z
O1	O	1.666303	0.117602	-0.114180
O2	O	1.300678	0.128807	-0.114204
O3	O	1.493485	0.001375	-0.114190
O4	O	1.473496	0.245034	-0.114194
O5	O	1.493473	0.001371	0.114390
O6	O	1.300666	0.128803	0.114375
O7	O	1.666290	0.117599	0.114400
Zn8	Zn	1.483476	0.123201	0.150680
Zn9	Zn	1.483492	0.123205	-0.150484
O10	O	1.473483	0.245031	0.114386
C11	C	1.253884	0.127982	0.000082
C12	C	1.114473	0.125521	0.000073
C13	C	1.034008	0.200551	0.000075
C14	C	0.903017	0.198233	0.000099
C15	C	0.932971	0.045849	0.000112
C16	C	1.063959	0.048168	0.000098
C17	C	1.492652	-0.029826	0.000097
C18	C	1.490175	-0.122791	0.000089
C19	C	1.481277	-0.460590	0.000093
C20	C	1.343964	-0.413954	-0.000429
C21	C	1.346442	-0.317249	0.000087
C22	C	1.485691	-0.293004	0.000090
C23	C	1.553412	-0.333690	0.130623
C24	C	1.549962	-0.430346	0.130732
C25	C	1.552813	-0.430684	-0.129206
C26	C	1.552780	-0.333739	-0.130931
C27	C	1.488192	-0.198292	0.000093
C28	C	1.478780	-0.555303	0.000099
C29	C	1.713084	0.118423	0.000110
C30	C	1.852495	0.120885	0.000111
C31	C	1.474316	0.276232	0.000095
C32	C	1.476793	0.369197	0.000094
N33	N	1.483474	0.123197	0.356216
N34	N	1.483504	0.123202	-0.356021
C35	C	1.568878	0.066794	0.428148
C36	C	1.568890	0.066794	0.572031
C37	C	1.398091	0.179608	0.572037
C38	C	1.398074	0.179603	0.428157
H39	H	1.293208	-0.289135	-0.093484
H40	H	1.655714	-0.318971	0.135480
C41	C	1.089570	0.285635	0.000062
H42	H	1.022882	0.329987	0.000080
H43	H	1.140040	0.289710	-0.079653
H44	H	1.140051	0.289705	0.079778
H45	H	1.638414	0.020864	0.369578
C46	C	0.877406	-0.039235	0.000123
H47	H	0.944093	-0.083588	0.000131
H48	H	0.826925	-0.043306	-0.079583
H49	H	0.826937	-0.043307	0.079849
C50	C	0.814510	0.280766	0.000093
H51	H	0.863360	0.327163	0.000065
H52	H	0.762795	0.283035	0.079808
H53	H	0.762784	0.283025	-0.079623
C54	C	1.152477	-0.034369	0.000089
H55	H	1.103634	-0.080770	0.000086
H56	H	1.204207	-0.036631	0.079793
H57	H	1.204188	-0.036628	-0.079639
H58	H	1.328522	0.225533	0.369586
C59	C	1.269814	-0.439424	-0.126869
H60	H	1.321927	-0.478732	-0.180474
H61	H	1.244562	-0.390994	-0.180624
H62	H	1.197211	-0.464281	-0.097509
C63	C	1.662832	0.004753	0.651157
H64	H	1.650605	0.012825	0.747152
H65	H	1.746637	0.014366	0.627568
H66	H	1.649189	-0.051217	0.627583
C67	C	1.304170	0.241656	0.651176
H68	H	1.316420	0.233589	0.747169
H69	H	1.220358	0.232045	0.627615
H70	H	1.317811	0.297624	0.627580
H71	H	1.289320	-0.433866	0.092650
H72	H	1.292840	-0.289697	0.093810
C73	C	1.483223	-0.455463	0.262529
H74	H	1.458464	-0.406615	0.315497
H75	H	1.539324	-0.493108	0.314722
H76	H	1.410682	-0.482146	0.238673
C77	C	1.686144	-0.473124	0.138763
H78	H	1.743328	-0.431408	0.141956
H79	H	1.703472	-0.507540	0.060057
H80	H	1.695648	-0.506803	0.219261
H81	H	1.507924	-0.451483	-0.228142
C82	C	1.489850	-0.295736	0.261847
H83	H	1.422053	-0.255105	0.237365
H84	H	1.549821	-0.269650	0.314665
H85	H	1.458432	-0.339044	0.314456
H86	H	1.503268	-0.306776	-0.227495
C87	C	1.689964	-0.312197	-0.141577
H88	H	1.708203	-0.277931	-0.065912
H89	H	1.700605	-0.282789	-0.224887
H90	H	1.745726	-0.362590	-0.140466
C91	C	1.689573	-0.472801	-0.130402
H92	H	1.703062	-0.508442	-0.052533
H93	H	1.746309	-0.430809	-0.127537
H94	H	1.703707	-0.505153	-0.211867
