data_functionalizedCrystal
_audit_creation_method	'MofGen! by Chris Wilmer'
_symmetry_space_group_name_H-M	'P1'
_symmetry_Int_Tables_number	1
_symmetry_cell_setting	triclinic
loop_
_symmetry_equiv_pos_as_xyz
  x,y,z
_cell_length_a	16.992694
_cell_length_b	10.540539
_cell_length_c	15.455313
_cell_angle_alpha	92.694186
_cell_angle_beta	87.142206
_cell_angle_gamma	87.596857
loop_
_atom_site_label
_atom_site_type_symbol
_atom_site_fract_x
_atom_site_fract_y
_atom_site_fract_z
O1	O	1.045302	0.264111	-0.072015
O2	O	0.817001	0.261155	-0.072041
O3	O	0.936360	0.078379	-0.072026
O4	O	0.925943	0.446887	-0.072030
O5	O	0.929534	0.088785	0.072235
O6	O	0.810175	0.271561	0.072220
O7	O	1.038476	0.274517	0.072246
Cu8	Cu	0.923702	0.273989	0.085405
Cu9	Cu	0.931774	0.261683	-0.085200
O10	O	0.919117	0.457293	0.072232
C11	C	0.784354	0.262557	0.000086
C12	C	0.697247	0.251216	0.000077
C13	C	0.647619	0.360636	0.000076
C14	C	0.565773	0.349973	0.000088
C15	C	0.533555	0.229889	0.000094
C16	C	0.583189	0.120461	0.000097
C17	C	0.665034	0.131125	0.000092
C18	C	0.289709	0.185692	0.000118
C19	C	0.207858	0.175036	0.000121
C20	C	0.190446	0.404549	0.000114
C21	C	0.272294	0.415202	0.000103
C22	C	0.321921	0.305774	0.000110
N23	N	0.449895	0.218988	0.000104
N24	N	0.405579	0.316677	0.000107
C25	C	0.932166	0.036211	0.000103
C26	C	0.929829	-0.104941	0.000098
C27	C	0.840284	-0.296163	-0.000236
C28	C	0.842638	-0.149316	0.000089
C29	C	0.967891	-0.157014	0.082483
C30	C	0.964912	-0.303812	0.082552
C31	C	0.974447	-0.316010	-0.081500
C32	C	0.975302	-0.169037	-0.082589
C33	C	1.071122	0.273115	0.000117
C34	C	1.158230	0.284456	0.000121
C35	C	0.923311	0.499461	0.000101
C36	C	0.925648	0.640612	0.000100
N37	N	0.918030	0.282645	0.205400
N38	N	0.937452	0.253018	-0.205195
C39	C	0.968756	0.205027	0.250801
C40	C	0.964474	0.211585	0.341608
C41	C	0.909469	0.295768	0.387013
C42	C	0.858738	0.373389	0.341607
C43	C	0.863017	0.366823	0.250801
C44	C	0.891000	0.324073	0.658593
C45	C	0.886727	0.330635	0.749405
C46	C	0.992462	0.168829	0.749400
C47	C	0.996739	0.162277	0.658592
C48	C	0.946005	0.239893	0.613193
N49	N	0.905093	0.302477	0.479833
N50	N	0.950379	0.233177	0.520375
H51	H	0.705441	0.042024	0.000091
C52	C	0.344288	0.065325	0.000120
H53	H	0.313376	-0.007716	0.000116
H54	H	0.374204	0.068340	0.050426
H55	H	0.378951	0.061081	-0.050194
C56	C	1.029261	0.112423	0.200862
H57	H	1.058852	0.067128	0.240910
H58	H	1.063843	0.158889	0.165429
H59	H	1.002408	0.054097	0.165450
C60	C	0.547752	-0.011628	0.000103
H61	H	0.491901	-0.002311	0.000097
H62	H	0.562369	-0.053405	0.050409
H63	H	0.567119	-0.060656	-0.050212
C64	C	1.020280	0.126218	0.391545
H65	H	1.053660	0.075157	0.351497
H66	H	0.990104	0.073012	0.426979
H67	H	1.051521	0.177830	0.426956
C68	C	1.057240	0.069668	0.608652
H69	H	1.086833	0.024371	0.648697
H70	H	1.091820	0.116136	0.573218
H71	H	1.030386	0.011343	0.573240
C72	C	1.048257	0.083448	0.799340
H73	H	1.037828	0.099403	0.859923
H74	H	1.101394	0.101519	0.784450
H75	H	1.039957	-0.003269	0.784464
H76	H	0.949182	-0.354516	-0.143942
C77	C	1.059559	-0.372477	-0.082249
H78	H	1.088757	-0.345922	-0.131699
H79	H	1.058859	-0.462634	-0.084364
H80	H	1.083572	-0.343688	-0.031140
H81	H	0.812416	-0.113837	-0.058968
C82	C	0.307732	0.547291	0.000092
H83	H	0.363584	0.537969	0.000079
H84	H	0.288371	0.596335	0.050396
H85	H	0.293112	0.589052	-0.050225
C86	C	0.826177	0.423169	0.799349
H87	H	0.796557	0.468426	0.759307
H88	H	0.852982	0.481516	0.834786
H89	H	0.791616	0.376619	0.834759
H90	H	0.849692	0.387274	0.621636
C91	C	0.135856	0.524909	0.000117
H92	H	0.082497	0.501365	0.000129
H93	H	0.148064	0.570182	-0.050190
H94	H	0.143321	0.577429	0.050431
H95	H	0.806591	-0.106178	0.059237
C96	C	0.924592	-0.096933	0.165298
H97	H	0.883316	-0.040116	0.149843
H98	H	0.960699	-0.051685	0.198635
H99	H	0.903028	-0.161943	0.198499
C100	C	0.797522	-0.344604	-0.080039
H101	H	0.831341	-0.403828	-0.113867
H102	H	0.783763	-0.274969	-0.113966
H103	H	0.751081	-0.384934	-0.061512
H104	H	0.947484	-0.135239	-0.143535
C105	C	0.790189	-0.335248	0.079121
H106	H	0.821072	-0.389927	0.112459
H107	H	0.745716	-0.378428	0.060177
H108	H	0.772887	-0.261494	0.113699
H109	H	0.930988	-0.330261	0.144129
C110	C	1.061498	-0.129360	-0.089302
H111	H	1.070924	-0.072941	-0.041547
H112	H	1.070881	-0.087967	-0.141880
H113	H	1.095870	-0.202706	-0.088598
C114	C	0.683051	0.492729	0.000069
H115	H	0.641769	0.556367	0.000078
H116	H	0.716990	0.498033	-0.050240
H117	H	0.712243	0.505288	0.050381
H118	H	0.181630	0.077244	0.000125
H119	H	0.813948	0.441928	0.378581
C120	C	1.049376	-0.360910	0.087633
H121	H	1.048129	-0.450929	0.087707
H122	H	1.071234	-0.329545	0.139397
H123	H	1.080869	-0.337490	0.038921
C124	C	0.511185	0.470335	0.000085
H125	H	0.542095	0.543379	0.000070
H126	H	0.476524	0.474583	0.050395
H127	H	0.481269	0.467311	-0.050225
C128	C	1.054192	-0.119007	0.086640
H129	H	1.067808	-0.070922	0.038055
H130	H	1.087810	-0.193406	0.085881
H131	H	1.060194	-0.069216	0.138548
C132	C	0.807222	0.452208	0.200861
H133	H	0.773855	0.503294	0.240906
H134	H	0.775980	0.400616	0.165445
H135	H	0.837412	0.505411	0.165430
