data_functionalizedCrystal
_audit_creation_method	'MofGen! by Chris Wilmer'
_symmetry_space_group_name_H-M	'P1'
_symmetry_Int_Tables_number	1
_symmetry_cell_setting	triclinic
loop_
_symmetry_equiv_pos_as_xyz
  x,y,z
_cell_length_a	6.817900
_cell_length_b	17.982959
_cell_length_c	17.078481
_cell_angle_alpha	96.484289
_cell_angle_beta	99.306161
_cell_angle_gamma	102.451857
loop_
_atom_site_label
_atom_site_type_symbol
_atom_site_fract_x
_atom_site_fract_y
_atom_site_fract_z
V1	V	-3.974480	-0.105234	-0.247692
O2	O	-3.968302	0.005240	-0.242636
O3	O	-3.921245	-0.208838	-0.246326
O4	O	-3.905609	-0.103535	-0.355570
O5	O	-3.984046	-0.100792	-0.132636
V6	V	-4.461387	-0.092030	-0.233891
O7	O	-4.228316	-0.134200	-0.277967
O8	O	-4.657750	-0.063065	-0.203616
O9	O	-4.291416	0.011574	-0.235257
O10	O	-4.584963	-0.202504	-0.238947
O11	O	-4.569219	-0.096473	-0.348947
O12	O	-4.307052	-0.093729	-0.126013
C13	C	-3.765732	-0.234097	-0.242503
C14	C	-3.803356	-0.318794	-0.242105
C15	C	-4.002196	-0.362462	-0.245888
C16	C	-4.037538	-0.442045	-0.245519
C17	C	-3.874035	-0.477956	-0.241361
C18	C	-3.675180	-0.434282	-0.237581
C19	C	-3.639843	-0.354702	-0.237956
C20	C	-3.817687	-0.755219	-0.236070
C21	C	-3.853040	-0.834804	-0.235693
C22	C	-4.215382	-0.842561	-0.243633
C23	C	-4.180045	-0.762981	-0.244007
C24	C	-3.981196	-0.719315	-0.240231
C25	C	-3.942877	-0.633023	-0.240633
C26	C	-3.912350	-0.564246	-0.240954
C27	C	-3.745786	-0.099772	-0.381854
C28	C	-3.770728	-0.099068	-0.470046
C29	C	-3.963600	-0.102541	-0.515533
C30	C	-3.987024	-0.101879	-0.598399
C31	C	-3.817575	-0.097751	-0.635778
C32	C	-3.624686	-0.094275	-0.590285
C33	C	-3.601263	-0.094931	-0.507419
C34	C	-3.868202	-0.095376	-0.883173
C35	C	-3.891643	-0.094722	-0.966045
C36	C	-4.253979	-0.102325	-0.974154
C37	C	-4.230540	-0.102985	-0.891287
C38	C	-4.037652	-0.099506	-0.845801
N39	N	-3.841515	-0.097077	-0.720480
N40	N	-4.013713	-0.100174	-0.761099
C41	C	-4.110271	0.036829	-0.239078
C42	C	-4.051884	0.121525	-0.239481
C43	C	-4.130218	-0.097495	-0.099725
C44	C	-4.084515	-0.098195	-0.011532
H45	H	-4.199450	-0.477597	-0.248600
C46	C	-4.431436	-0.889899	-0.247870
C47	C	-4.556585	-0.883083	-0.318948
C48	C	-4.755623	-0.926668	-0.322870
H49	H	-4.429377	-0.942461	-0.247101
H50	H	-4.483633	-0.871513	-0.203085
H51	H	-4.504401	-0.901472	-0.363720
H52	H	-4.558705	-0.830531	-0.319732
H53	H	-4.807820	-0.908283	-0.278085
H54	H	-4.753543	-0.979228	-0.322098
H55	H	-4.840565	-0.922044	-0.371092
H56	H	-4.135341	-0.333228	-0.249266
H57	H	-3.477931	-0.319149	-0.234879
C58	C	-4.357428	-0.723927	-0.248356
C59	C	-4.323335	-0.668260	-0.180190
C60	C	-4.486714	-0.632278	-0.184167
H61	H	-4.367870	-0.699906	-0.295119
H62	H	-4.480948	-0.761305	-0.250516
H63	H	-4.199850	-0.630889	-0.178039
H64	H	-4.312915	-0.692262	-0.133417
H65	H	-4.610234	-0.669655	-0.186326
H66	H	-4.497143	-0.608261	-0.230932
H67	H	-4.463614	-0.594509	-0.137915
H68	H	-3.753645	-0.091357	-0.996476
H69	H	-3.711158	-0.092570	-0.846153
H70	H	-3.486718	-0.090909	-0.620724
H71	H	-3.444198	-0.092085	-0.470381
H72	H	-4.101591	-0.105908	-0.485106
C73	C	-3.497680	-0.473287	-0.232903
C74	C	-3.482928	-0.508508	-0.163839
C75	C	-3.319418	-0.544436	-0.159494
H76	H	-3.520301	-0.511149	-0.279032
H77	H	-3.374131	-0.435898	-0.230660
H78	H	-3.606448	-0.545894	-0.166088
H79	H	-3.460276	-0.470663	-0.117697
H80	H	-3.195869	-0.507046	-0.157251
H81	H	-3.342055	-0.582294	-0.205626
H82	H	-3.309376	-0.568331	-0.112631
C83	C	-4.196563	-0.105802	-0.647763
C84	C	-4.332839	-0.174106	-0.640970
C85	C	-4.525885	-0.177745	-0.686436
H86	H	-4.245266	-0.062897	-0.628499
H87	H	-4.186374	-0.104857	-0.702484
H88	H	-4.343034	-0.175045	-0.586259
H89	H	-4.284202	-0.217024	-0.660238
H90	H	-4.515695	-0.176800	-0.741158
H91	H	-4.574567	-0.134836	-0.667169
H92	H	-4.618366	-0.224092	-0.681839
C93	C	-4.463323	-0.106212	-1.023661
C94	C	-4.520007	-0.171891	-1.082381
C95	C	-4.712834	-0.175490	-1.128010
H96	H	-4.561105	-0.108807	-0.989637
H97	H	-4.457879	-0.061507	-1.048820
H98	H	-4.525466	-0.216585	-1.057224
H99	H	-4.422278	-0.169311	-1.116424
H100	H	-4.707389	-0.130785	-1.153169
H101	H	-4.810598	-0.178083	-1.093979
H102	H	-4.751310	-0.220049	-1.167861
C103	C	-4.414274	-0.107348	-0.850578
C104	C	-4.378713	-0.042116	-0.792326
C105	C	-4.547912	-0.046120	-0.754800
H106	H	-4.532631	-0.109288	-0.889439
H107	H	-4.434791	-0.152372	-0.825760
H108	H	-4.358222	0.002896	-0.817143
H109	H	-4.260387	-0.040163	-0.753449
H110	H	-4.568428	-0.091144	-0.729982
H111	H	-4.666258	-0.048061	-0.793667
H112	H	-4.523800	-0.001865	-0.715267
H113	H	-3.655776	-0.719674	-0.232990
H114	H	-3.719887	-0.864041	-0.232312
