data_functionalizedCrystal
_audit_creation_method	'MofGen! by Chris Wilmer'
_symmetry_space_group_name_H-M	'P1'
_symmetry_Int_Tables_number	1
_symmetry_cell_setting	triclinic
loop_
_symmetry_equiv_pos_as_xyz
  x,y,z
_cell_length_a	17.699083
_cell_length_b	17.699104
_cell_length_c	16.176319
_cell_angle_alpha	89.992259
_cell_angle_beta	89.998611
_cell_angle_gamma	83.287266
loop_
_atom_site_label
_atom_site_type_symbol
_atom_site_fract_x
_atom_site_fract_y
_atom_site_fract_z
O1	O	1.004086	0.095712	-0.068632
O2	O	0.783708	0.108164	-0.068660
O3	O	0.900115	-0.008250	-0.068638
O4	O	0.887679	0.212126	-0.068654
O5	O	0.900099	-0.008257	0.068855
O6	O	0.783692	0.108157	0.068833
O7	O	1.004070	0.095705	0.068861
Cu8	Cu	0.893880	0.101930	0.081401
Cu9	Cu	0.893899	0.101939	-0.081200
O10	O	0.887663	0.212119	0.068839
C11	C	0.755503	0.107715	0.000083
C12	C	0.671485	0.106376	0.000073
C13	C	0.622869	0.174709	0.000068
C14	C	0.543926	0.173446	0.000079
C15	C	0.513600	0.103851	0.000089
C16	C	0.562222	0.035513	0.000096
C17	C	0.641164	0.036776	0.000091
C18	C	0.243859	0.030418	0.000117
C19	C	0.164911	0.029160	0.000119
C20	C	0.146621	0.167088	0.000105
C21	C	0.225563	0.168351	0.000100
C22	C	0.274178	0.100014	0.000112
C23	C	0.359777	0.101383	0.000102
C24	C	0.428002	0.102480	0.000093
C25	C	0.899659	-0.036450	0.000109
C26	C	0.898314	-0.120467	0.000109
C27	C	1.032275	0.096155	0.000116
C28	C	1.116293	0.097493	0.000121
C29	C	0.959058	-0.645338	0.000093
C30	C	0.960317	-0.566395	0.000101
C31	C	0.891982	-0.517777	0.000094
C32	C	0.822383	-0.548107	0.000088
C33	C	0.821125	-0.627049	0.000087
C34	C	0.827456	-0.229741	0.000096
C35	C	0.828720	-0.150794	0.000095
C36	C	0.966648	-0.169086	0.000110
C37	C	0.965390	-0.248029	0.000108
C38	C	0.895792	-0.278352	0.000107
C39	C	0.894427	-0.363951	0.000100
C40	C	0.893345	-0.432179	0.000095
C41	C	0.888120	0.240319	0.000091
C42	C	0.889464	0.324337	0.000085
N43	N	0.893872	0.101924	0.195767
N44	N	0.893912	0.101940	-0.195565
C45	C	0.945432	0.050396	0.239040
C46	C	0.945436	0.050396	0.325588
C47	C	0.893883	0.101926	0.368859
C48	C	0.842317	0.153456	0.325579
C49	C	0.842310	0.153453	0.239034
C50	C	0.842343	0.153470	0.674608
C51	C	0.842355	0.153471	0.761159
C52	C	0.945469	0.050413	0.761161
C53	C	0.945462	0.050410	0.674616
C54	C	0.893894	0.101936	0.631343
C55	C	0.893889	0.101936	0.537499
C56	C	0.893890	0.101931	0.462702
H57	H	0.140223	-0.027517	0.000128
H58	H	1.021036	-0.287610	0.000109
H59	H	1.023319	-0.144388	0.000100
C60	C	0.491269	0.247719	0.000031
C61	C	0.534723	0.308938	-0.000005
C62	C	0.486242	0.377372	-0.000059
H63	H	0.460080	0.250202	0.047968
H64	H	0.460100	0.250136	-0.047932
H65	H	0.565878	0.306522	0.047953
H66	H	0.565911	0.306480	-0.047939
H67	H	0.455073	0.379789	-0.048022
H68	H	0.455055	0.379847	0.047879
H69	H	0.515718	0.418917	-0.000091
C70	C	1.001455	-0.005423	0.372682
C71	C	1.047694	0.034846	0.422371
C72	C	1.099302	-0.016550	0.465776
H73	H	1.032237	-0.036133	0.334615
H74	H	0.974312	-0.036885	0.406500
H75	H	1.074836	0.066295	0.388556
H76	H	1.016934	0.065554	0.460453
H77	H	1.072158	-0.048012	0.499594
H78	H	1.130078	-0.047258	0.427703
H79	H	1.130676	0.010765	0.499501
H80	H	0.770785	-0.254420	0.000085
C81	C	1.035824	-0.533370	-0.000025
C82	C	1.040574	-0.488557	-0.070749
C83	C	1.110119	-0.458117	-0.070887
H84	H	1.076404	-0.573555	-0.000069
H85	H	1.039191	-0.502920	0.047899
H86	H	1.037215	-0.519005	-0.118660
H87	H	1.000010	-0.448360	-0.070720
H88	H	1.113486	-0.427667	-0.022963
H89	H	1.150694	-0.498307	-0.070928
H90	H	1.113348	-0.427703	-0.118868
H91	H	0.766743	-0.508516	0.000088
H92	H	0.987444	0.008451	0.639387
H93	H	0.647554	0.231382	0.000060
H94	H	0.800323	0.195410	0.203801
H95	H	0.987456	0.008455	0.796403
H96	H	0.800371	0.195435	0.796389
C97	C	0.754441	-0.098132	0.000135
C98	C	0.693219	-0.141583	0.000157
C99	C	0.624787	-0.093098	0.000204
H100	H	0.751960	-0.066935	-0.047799
H101	H	0.752025	-0.066972	0.048101
H102	H	0.695634	-0.172729	-0.047803
H103	H	0.695675	-0.172779	0.048088
H104	H	0.622371	-0.061938	0.048170
H105	H	0.622315	-0.061903	-0.047731
H106	H	0.583241	-0.122572	0.000227
C107	C	0.786327	0.209501	0.627783
C108	C	0.741198	0.254643	0.684205
C109	C	0.689593	0.306277	0.641097
H110	H	0.754794	0.182403	0.594030
H111	H	0.813471	0.241015	0.594028
H112	H	0.714056	0.223133	0.717946
H113	H	0.772710	0.281758	0.717960
H114	H	0.716737	0.337791	0.607343
H115	H	0.658065	0.279172	0.607345
H116	H	0.658972	0.336916	0.679373
C117	C	0.786428	0.209371	0.372707
C118	C	0.797483	0.198362	0.457762
C119	C	0.746020	0.249867	0.501199
H120	H	0.735897	0.201264	0.358633
H121	H	0.794561	0.259890	0.358557
H122	H	0.789344	0.147856	0.471906
H123	H	0.848003	0.206475	0.471860
H124	H	0.754153	0.300385	0.487050
H125	H	0.695493	0.241756	0.487119
H126	H	0.753519	0.242409	0.558914
H127	H	0.250249	0.225023	0.000088
C128	C	0.745543	-0.659935	-0.000097
C129	C	0.704257	-0.635224	-0.070850
C130	C	0.634631	-0.665510	-0.071049
H131	H	0.717315	-0.643266	0.047790
H132	H	0.754549	-0.713915	-0.000140
H133	H	0.695249	-0.581255	-0.070799
H134	H	0.732462	-0.651891	-0.118748
H135	H	0.643636	-0.719490	-0.071092
H136	H	0.606410	-0.648840	-0.023159
H137	H	0.606613	-0.648754	-0.119057
C138	C	0.296508	-0.043857	0.000084
C139	C	0.253050	-0.105073	0.000069
C140	C	0.301528	-0.173509	0.000028
H141	H	0.327700	-0.046343	0.048018
H142	H	0.327674	-0.046274	-0.047882
H143	H	0.221898	-0.102657	0.048030
H144	H	0.221860	-0.102612	-0.047861
H145	H	0.332694	-0.175927	-0.047938
H146	H	0.332718	-0.175988	0.047963
H147	H	0.272049	-0.215052	0.000010
C148	C	1.001319	-0.005692	0.192129
C149	C	0.989148	-0.080039	0.213210
C150	C	1.040610	-0.131739	0.170016
H151	H	1.051849	0.002356	0.206277
H152	H	0.993943	0.001614	0.134376
H153	H	0.996531	-0.087343	0.270951
H154	H	0.938629	-0.088111	0.199060
H155	H	1.033234	-0.124432	0.112262
H156	H	1.091136	-0.123684	0.184167
H157	H	1.032354	-0.182189	0.184307
C158	C	0.529153	-0.039973	0.000066
C159	C	0.449613	-0.026456	0.000045
C160	C	0.419126	-0.095976	0.000003
H161	H	0.545765	-0.068163	0.048002
H162	H	0.545806	-0.068108	-0.047898
H163	H	0.432966	0.001667	0.048004
H164	H	0.432979	0.001723	-0.047887
H165	H	0.435779	-0.124111	-0.047961
H166	H	0.435744	-0.124161	0.047940
H167	H	0.365155	-0.086814	-0.000018
H168	H	0.680747	-0.018868	0.000095
H169	H	0.107028	0.222732	0.000100
H170	H	1.014705	-0.684918	0.000092
