data_functionalizedCrystal
_audit_creation_method	'MofGen! by Chris Wilmer'
_symmetry_space_group_name_H-M	'P1'
_symmetry_Int_Tables_number	1
_symmetry_cell_setting	triclinic
loop_
_symmetry_equiv_pos_as_xyz
  x,y,z
_cell_length_a	10.489741
_cell_length_b	10.489741
_cell_length_c	9.565339
_cell_angle_alpha	89.999484
_cell_angle_beta	89.999100
_cell_angle_gamma	95.460826
loop_
_atom_site_label
_atom_site_type_symbol
_atom_site_fract_x
_atom_site_fract_y
_atom_site_fract_z
O1	O	1.694053	-0.179959	-0.116173
O2	O	1.322857	-0.196852	-0.116194
O3	O	1.516901	-0.002807	-0.116175
O4	O	1.500009	-0.374003	-0.116192
O5	O	1.516886	-0.002819	0.116345
O6	O	1.322842	-0.196864	0.116326
O7	O	1.694038	-0.179971	0.116347
Zn8	Zn	1.508437	-0.188419	0.153254
Zn9	Zn	1.508458	-0.188403	-0.153101
O10	O	1.499993	-0.374015	0.116328
C11	C	1.275318	-0.195582	0.000063
C12	C	1.133688	-0.191765	0.000055
C13	C	1.065548	-0.068300	0.000074
C14	C	0.973429	-0.126617	-0.114571
C15	C	0.973448	-0.126659	0.114676
C16	C	1.043435	-0.250133	-0.114684
C17	C	1.043463	-0.250157	0.114665
C18	C	0.951371	-0.308564	-0.000007
C19	C	1.515618	0.044718	0.000084
C20	C	1.511801	0.186348	0.000082
C21	C	1.741577	-0.181241	0.000087
C22	C	1.883206	-0.185058	0.000086
C23	C	1.501277	-0.421541	0.000066
C24	C	1.505094	-0.563170	0.000059
N25	N	1.508433	-0.188429	0.362334
C26	C	1.388336	0.254488	0.000064
C27	C	1.446652	0.346604	0.114712
C28	C	1.446696	0.346591	-0.114534
C29	C	1.570168	0.276599	0.114824
C30	C	1.570195	0.276576	-0.114525
C31	C	1.628600	0.368665	0.000150
N32	N	1.508472	-0.188383	-0.362180
C33	C	1.418666	-0.278138	0.453528
C34	C	1.534163	-0.303949	0.546712
C35	C	1.392986	-0.162629	0.546704
C36	C	1.623988	-0.214298	0.453466
C37	C	1.482735	-0.072928	0.453451
C38	C	1.598314	-0.098690	0.546593
H39	H	0.942463	-0.074401	0.211599
H40	H	1.460936	0.024699	0.412454
C41	C	1.316212	-0.380706	0.398305
H42	H	1.255595	-0.340886	0.343661
H43	H	1.355925	-0.440404	0.342296
H44	H	1.273896	-0.424093	0.474901
H45	H	1.115238	0.033196	-0.000065
C46	C	1.640659	0.234950	0.245917
H47	H	1.642614	0.144591	0.245151
H48	H	1.725754	0.275065	0.246259
H49	H	1.597072	0.259479	0.327224
C50	C	1.251211	0.187403	0.000208
H51	H	1.207547	0.211216	0.081767
H52	H	1.206911	0.212369	-0.080411
H53	H	1.254586	0.097225	-0.000612
C54	C	1.563556	-0.435866	0.602073
H55	H	1.499683	-0.499529	0.570221
H56	H	1.644964	-0.454803	0.568784
H57	H	1.564121	-0.434654	0.701380
H58	H	0.901947	-0.410168	-0.000074
C59	C	1.755928	-0.243923	0.398383
H60	H	1.755094	-0.243806	0.299067
H61	H	1.819741	-0.180566	0.430989
H62	H	1.774332	-0.325698	0.431092
C63	C	1.700994	0.003822	0.601465
H64	H	1.782932	-0.014703	0.569366
H65	H	1.683423	0.085638	0.568121
H66	H	1.699989	0.003750	0.700776
C67	C	1.261075	-0.133159	0.602017
H68	H	1.197387	-0.196993	0.570132
H69	H	1.262249	-0.132574	0.701317
H70	H	1.242197	-0.051736	0.568694
H71	H	0.942421	-0.074372	-0.211491
H72	H	1.394405	0.377611	0.211633
C73	C	1.085075	-0.320669	-0.245751
H74	H	1.175432	-0.322637	-0.244980
H75	H	1.044948	-0.405760	-0.246050
H76	H	1.060553	-0.277114	-0.327082
H77	H	1.730204	0.418089	0.000220
C78	C	1.085412	-0.320674	0.245598
H79	H	1.061709	-0.276691	0.326985
H80	H	1.044738	-0.405543	0.246420
H81	H	1.175684	-0.323261	0.244182
H82	H	1.622398	0.245536	-0.211451
H83	H	1.394447	0.377560	-0.211470
