data_functionalizedCrystal
_audit_creation_method	'MofGen! by Chris Wilmer'
_symmetry_space_group_name_H-M	'P1'
_symmetry_Int_Tables_number	1
_symmetry_cell_setting	triclinic
loop_
_symmetry_equiv_pos_as_xyz
  x,y,z
_cell_length_a	16.625547
_cell_length_b	12.645330
_cell_length_c	16.625539
_cell_angle_alpha	89.975749
_cell_angle_beta	89.975178
_cell_angle_gamma	90.017629
loop_
_atom_site_label
_atom_site_type_symbol
_atom_site_fract_x
_atom_site_fract_y
_atom_site_fract_z
Zn1	Zn	1.232707	-0.422039	-0.456024
Zn2	Zn	1.482707	-0.172039	-0.206024
Zn3	Zn	1.732707	0.077961	0.043976
Zn4	Zn	1.982707	0.327961	0.293976
Zn5	Zn	1.232622	-0.599325	-0.321200
Zn6	Zn	1.482622	-0.349325	-0.071200
Zn7	Zn	1.732622	-0.099325	0.178800
Zn8	Zn	1.982622	0.150675	0.428800
Zn9	Zn	1.097869	-0.422076	-0.321194
Zn10	Zn	1.347869	-0.172076	-0.071194
Zn11	Zn	1.597869	0.077924	0.178806
Zn12	Zn	1.847869	0.327924	0.428806
Zn13	Zn	1.097851	-0.599261	-0.455980
Zn14	Zn	1.347851	-0.349261	-0.205980
Zn15	Zn	1.597851	-0.099261	0.044020
Zn16	Zn	1.847851	0.150739	0.294020
O17	O	1.165262	-0.510675	-0.388600
O18	O	1.415262	-0.260675	-0.138600
O19	O	1.665262	-0.010675	0.111400
O20	O	1.915262	0.239325	0.361400
O21	O	1.345528	-0.445568	-0.438160
O22	O	1.595528	-0.195568	-0.188160
O23	O	1.845528	0.054432	0.061840
O24	O	2.095528	0.304432	0.311840
O25	O	1.214718	-0.575855	-0.208367
O26	O	1.464718	-0.325855	0.041633
O27	O	1.714718	-0.075855	0.291633
O28	O	1.964718	0.174145	0.541633
O29	O	1.115799	-0.273724	-0.339095
O30	O	1.365799	-0.023724	-0.089095
O31	O	1.615799	0.226276	0.160905
O32	O	1.865799	0.476276	0.410905
O33	O	1.345465	-0.575819	-0.339106
O34	O	1.595465	-0.325819	-0.089106
O35	O	1.845465	-0.075819	0.160894
O36	O	2.095465	0.174181	0.410894
O37	O	1.214864	-0.273697	-0.438154
O38	O	1.464864	-0.023697	-0.188154
O39	O	1.714864	0.226303	0.061846
O40	O	1.964864	0.476303	0.311846
O41	O	1.115716	-0.445631	-0.208362
O42	O	1.365716	-0.195631	0.041638
O43	O	1.615716	0.054369	0.291638
O44	O	1.865716	0.304369	0.541638
O45	O	0.985034	-0.445569	-0.339053
O46	O	1.235034	-0.195569	-0.089053
O47	O	1.485034	0.054431	0.160947
O48	O	1.735034	0.304431	0.410947
O49	O	1.115768	-0.575710	-0.568818
O50	O	1.365768	-0.325710	-0.318818
O51	O	1.615768	-0.075710	-0.068818
O52	O	1.865768	0.174290	0.181182
O53	O	0.985021	-0.575745	-0.438080
O54	O	1.235021	-0.325745	-0.188080
O55	O	1.485021	-0.075745	0.061920
O56	O	1.735021	0.174255	0.311920
O57	O	1.214846	-0.445506	-0.568850
O58	O	1.464846	-0.195506	-0.318850
O59	O	1.714846	0.054494	-0.068850
O60	O	1.964846	0.304494	0.181150
O61	O	1.214701	-0.747664	-0.339064
O62	O	1.464701	-0.497664	-0.089064
O63	O	1.714701	-0.247664	0.160936
O64	O	1.964701	0.002336	0.410936
O65	O	1.115685	-0.747617	-0.438086
O66	O	1.365685	-0.497617	-0.188086
O67	O	1.615685	-0.247617	0.061914
O68	O	1.865685	0.002383	0.311914
C69	C	0.955771	-0.510655	-0.388561
C70	C	1.205771	-0.260655	-0.138561
C71	C	1.455771	-0.010655	0.111439
C72	C	1.705771	0.239345	0.361439
C73	C	0.866150	-0.510671	-0.388564
C74	C	1.116150	-0.260671	-0.138564
C75	C	1.366150	-0.010671	0.111436
C76	C	1.616150	0.239329	0.361436
C77	C	0.793368	-0.510674	-0.388574
C78	C	1.043368	-0.260674	-0.138574
C79	C	1.293368	-0.010674	0.111426
C80	C	1.543368	0.239326	0.361426
C81	C	0.702059	-0.510679	-0.388594
C82	C	0.952059	-0.260679	-0.138594
C83	C	1.202059	-0.010679	0.111406
C84	C	1.452059	0.239321	0.361406
C85	C	0.629283	-0.510689	-0.388615
C86	C	0.879283	-0.260689	-0.138615
C87	C	1.129283	-0.010689	0.111385
C88	C	1.379283	0.239311	0.361385
C89	C	0.537969	-0.510696	-0.388634
C90	C	0.787969	-0.260696	-0.138634
C91	C	1.037969	-0.010696	0.111366
C92	C	1.287969	0.239304	0.361366
C93	C	1.165203	-0.786105	-0.388588
C94	C	1.415203	-0.536105	-0.138588
C95	C	1.665203	-0.286105	0.111412
C96	C	1.915203	-0.036105	0.361412
C97	C	1.165252	-0.903935	-0.388610
C98	C	1.415252	-0.653935	-0.138610
C99	C	1.665252	-0.403935	0.111390
C100	C	1.915252	-0.153935	0.361390
C101	C	1.103218	-1.071513	-0.451097
C102	C	1.353218	-0.821513	-0.201097
C103	C	1.603218	-0.571513	0.048903
C104	C	1.853218	-0.321513	0.298903
C105	C	1.102901	-0.948954	-0.450896
C106	C	1.352901	-0.698954	-0.200896
C107	C	1.602901	-0.448954	0.049104
C108	C	1.852901	-0.198954	0.299104
C109	C	1.142250	-0.948528	-0.303633
C110	C	1.392250	-0.698528	-0.053633
C111	C	1.642250	-0.448528	0.196367
C112	C	1.892250	-0.198528	0.446367
C113	C	1.141872	-1.071126	-0.304013
C114	C	1.391872	-0.821126	-0.054013
C115	C	1.641872	-0.571126	0.195987
C116	C	1.891872	-0.321126	0.445987
C117	C	1.250667	-1.071025	-0.410411
C118	C	1.500667	-0.821025	-0.160411
C119	C	1.750667	-0.571025	0.089589
C120	C	2.000667	-0.321025	0.339589
C121	C	1.250144	-0.948418	-0.412269
C122	C	1.500144	-0.698418	-0.162269
C123	C	1.750144	-0.448418	0.087731
C124	C	2.000144	-0.198418	0.337731
C125	C	1.375571	-0.510697	-0.388638
C126	C	1.625571	-0.260697	-0.138638
C127	C	1.875571	-0.010697	0.111362
C128	C	2.125571	0.239303	0.361362
C129	C	1.465192	-0.510706	-0.388655
C130	C	1.715192	-0.260706	-0.138655
C131	C	1.965192	-0.010706	0.111345
C132	C	2.215192	0.239294	0.361345
C133	C	1.165343	-0.234170	-0.388629
C134	C	1.415343	0.015830	-0.138629
C135	C	1.665343	0.265830	0.111371
C136	C	1.915343	0.515830	0.361371
C137	C	1.165378	-0.116340	-0.388641
C138	C	1.415378	0.133660	-0.138641
C139	C	1.665378	0.383660	0.111359
C140	C	1.915378	0.633660	0.361359
C141	C	1.165315	-0.510596	-0.598909
C142	C	1.415315	-0.260596	-0.348909
C143	C	1.665315	-0.010596	-0.098909
C144	C	1.915315	0.239404	0.151091
C145	C	1.165337	-0.510563	-0.688530
C146	C	1.415337	-0.260563	-0.438530
C147	C	1.665337	-0.010563	-0.188530
C148	C	1.915337	0.239437	0.061470
C149	C	1.165374	-0.510444	-1.016706
C150	C	1.415374	-0.260444	-0.766706
C151	C	1.665374	-0.010444	-0.516706
C152	C	1.915374	0.239556	-0.266706
C153	C	1.165362	-0.510480	-0.925397
C154	C	1.415362	-0.260480	-0.675397
C155	C	1.665362	-0.010480	-0.425397
C156	C	1.915362	0.239520	-0.175397
C157	C	1.165356	-0.510504	-0.852621
C158	C	1.415356	-0.260504	-0.602621
C159	C	1.665356	-0.010504	-0.352621
C160	C	1.915356	0.239496	-0.102621
C161	C	1.165343	-0.510539	-0.761306
C162	C	1.415343	-0.260539	-0.511306
C163	C	1.665343	-0.010539	-0.261306
C164	C	1.915343	0.239461	-0.011306
C165	C	1.165256	-0.510677	-0.179109
C166	C	1.415256	-0.260677	0.070891
C167	C	1.665256	-0.010677	0.320891
C168	C	1.915256	0.239323	0.570891
C169	C	1.165390	-0.510413	-0.089488
C170	C	1.415390	-0.260413	0.160512
C171	C	1.665390	-0.010413	0.410512
C172	C	1.915390	0.239587	0.660512
H173	H	1.117292	-0.918801	-0.513906
H174	H	1.367292	-0.668801	-0.263906
H175	H	1.617292	-0.418801	-0.013906
H176	H	1.867292	-0.168801	0.236094
H177	H	1.039671	-0.919719	-0.436473
H178	H	1.289671	-0.669719	-0.186473
H179	H	1.539671	-0.419719	0.063527
H180	H	1.789671	-0.169719	0.313527
H181	H	1.117477	-1.100926	-0.514314
H182	H	1.367477	-0.850926	-0.264314
H183	H	1.617477	-0.600926	-0.014314
H184	H	1.867477	-0.350926	0.235686
O185	O	1.019980	-1.112421	-0.432237
O186	O	1.269980	-0.862421	-0.182237
O187	O	1.519980	-0.612421	0.067763
O188	O	1.769980	-0.362421	0.317763
H189	H	1.022688	-1.164540	-0.378571
H190	H	1.272688	-0.914540	-0.128571
H191	H	1.522688	-0.664540	0.121429
H192	H	1.772688	-0.414540	0.371429
H193	H	1.271650	-1.101870	-0.471323
H194	H	1.521650	-0.851870	-0.221323
H195	H	1.771650	-0.601870	0.028677
H196	H	2.021650	-0.351870	0.278677
H197	H	1.186089	-0.919369	-0.255827
H198	H	1.436089	-0.669369	-0.005827
H199	H	1.686089	-0.419369	0.244173
H200	H	1.936089	-0.169369	0.494173
O201	O	1.060524	-0.907987	-0.278762
O202	O	1.310524	-0.657987	-0.028762
O203	O	1.560524	-0.407987	0.221238
O204	O	1.810524	-0.157987	0.471238
H205	H	1.044931	-0.940057	-0.218586
H206	H	1.294931	-0.690057	0.031414
H207	H	1.544931	-0.440057	0.281414
H208	H	1.794931	-0.190057	0.531414
O209	O	1.059288	-1.109135	-0.279582
O210	O	1.309288	-0.859135	-0.029582
O211	O	1.559288	-0.609135	0.220418
O212	O	1.809288	-0.359135	0.470418
H213	H	1.058200	-1.196899	-0.279604
H214	H	1.308200	-0.946899	-0.029604
H215	H	1.558200	-0.696899	0.220396
H216	H	1.808200	-0.446899	0.470396
H217	H	1.267490	-0.919268	-0.474808
H218	H	1.517490	-0.669268	-0.224808
H219	H	1.767490	-0.419268	0.025192
H220	H	2.017490	-0.169268	0.275192
O221	O	1.311976	-1.109667	-0.350212
O222	O	1.561976	-0.859667	-0.100212
O223	O	1.811976	-0.609667	0.149788
O224	O	2.061976	-0.359667	0.399788
H225	H	1.294764	-1.082583	-0.289089
H226	H	1.544764	-0.832583	-0.039089
H227	H	1.794764	-0.582583	0.210911
H228	H	2.044764	-0.332583	0.460911
O229	O	1.199224	-1.110424	-0.240262
O230	O	1.449224	-0.860424	0.009738
O231	O	1.699224	-0.610424	0.259738
O232	O	1.949224	-0.360424	0.509738
H233	H	1.227102	-1.041859	-0.209293
H234	H	1.477102	-0.791859	0.040707
H235	H	1.727102	-0.541859	0.290707
H236	H	1.977102	-0.291859	0.540707
O237	O	1.314722	-0.907867	-0.356382
O238	O	1.564722	-0.657867	-0.106382
O239	O	1.814722	-0.407867	0.143618
O240	O	2.064722	-0.157867	0.393618
H241	H	1.287197	-0.855141	-0.310665
H242	H	1.537197	-0.605141	-0.060665
H243	H	1.787197	-0.355141	0.189335
H244	H	2.037197	-0.105141	0.439335
