data_functionalizedCrystal
_audit_creation_method	'MofGen! by Chris Wilmer'
_symmetry_space_group_name_H-M	'P1'
_symmetry_Int_Tables_number	1
_symmetry_cell_setting	triclinic
loop_
_symmetry_equiv_pos_as_xyz
  x,y,z
_cell_length_a	27.732048
_cell_length_b	15.995350
_cell_length_c	14.472310
_cell_angle_alpha	90.001162
_cell_angle_beta	89.992508
_cell_angle_gamma	83.067515
loop_
_atom_site_label
_atom_site_type_symbol
_atom_site_fract_x
_atom_site_fract_y
_atom_site_fract_z
O1	O	0.641363	0.099622	-0.076718
O2	O	0.891363	0.349622	0.173282
O3	O	1.141363	0.599622	0.423282
O4	O	1.391363	0.849622	0.673282
O5	O	0.500635	0.114770	-0.076745
O6	O	0.750635	0.364770	0.173255
O7	O	1.000635	0.614770	0.423255
O8	O	1.250635	0.864770	0.673255
O9	O	0.574846	-0.014741	-0.076730
O10	O	0.824846	0.235259	0.173270
O11	O	1.074846	0.485259	0.423270
O12	O	1.324846	0.735259	0.673270
O13	O	0.567152	0.229134	-0.076733
O14	O	0.817152	0.479134	0.173267
O15	O	1.067152	0.729134	0.423267
O16	O	1.317152	0.979134	0.673267
O17	O	0.574827	-0.014733	0.076952
O18	O	0.824827	0.235267	0.326952
O19	O	1.074827	0.485267	0.576952
O20	O	1.324827	0.735267	0.826952
O21	O	0.500616	0.114778	0.076937
O22	O	0.750616	0.364778	0.326937
O23	O	1.000616	0.614778	0.576937
O24	O	1.250616	0.864778	0.826937
O25	O	0.641344	0.099630	0.076964
O26	O	0.891344	0.349630	0.326964
O27	O	1.141344	0.599630	0.576964
O28	O	1.391344	0.849630	0.826964
Cu29	Cu	0.570978	0.107205	0.090983
Cu30	Cu	0.820978	0.357205	0.340983
Cu31	Cu	1.070978	0.607205	0.590983
Cu32	Cu	1.320978	0.857205	0.840983
Cu33	Cu	0.571001	0.107196	-0.090764
Cu34	Cu	0.821001	0.357196	0.159236
Cu35	Cu	1.071001	0.607196	0.409236
Cu36	Cu	1.321001	0.857196	0.659236
O37	O	0.567133	0.229141	0.076949
O38	O	0.817133	0.479141	0.326949
O39	O	1.067133	0.729141	0.576949
O40	O	1.317133	0.979141	0.826949
C41	C	0.482617	0.114456	0.000092
C42	C	0.732617	0.364456	0.250092
C43	C	0.982617	0.614456	0.500092
C44	C	1.232617	0.864456	0.750092
C45	C	0.428958	0.113499	0.000082
C46	C	0.678958	0.363499	0.250082
C47	C	0.928958	0.613499	0.500082
C48	C	1.178958	0.863499	0.750082
C49	C	0.574518	-0.045928	0.000109
C50	C	0.824518	0.204072	0.250109
C51	C	1.074518	0.454072	0.500109
C52	C	1.324518	0.704072	0.750109
C53	C	0.573565	-0.138866	0.000104
C54	C	0.823565	0.111134	0.250104
C55	C	1.073565	0.361134	0.500104
C56	C	1.323565	0.611134	0.750104
C57	C	0.570140	-0.476569	0.000106
C58	C	0.820140	-0.226569	0.250106
C59	C	1.070140	0.023431	0.500106
C60	C	1.320140	0.273431	0.750106
C61	C	0.517289	-0.428451	-0.000249
C62	C	0.767289	-0.178451	0.249751
C63	C	1.017289	0.071549	0.499751
C64	C	1.267289	0.321549	0.749751
C65	C	0.518242	-0.331773	0.000098
C66	C	0.768242	-0.081773	0.250098
C67	C	1.018242	0.168227	0.500098
C68	C	1.268242	0.418227	0.750098
C69	C	0.571839	-0.309031	0.000105
C70	C	0.821839	-0.059031	0.250105
C71	C	1.071839	0.190969	0.500105
C72	C	1.321839	0.440969	0.750105
C73	C	0.597896	-0.350441	0.087868
C74	C	0.847896	-0.100441	0.337868
C75	C	1.097896	0.149559	0.587868
C76	C	1.347896	0.399559	0.837868
C77	C	0.596569	-0.447060	0.087941
C78	C	0.846569	-0.197060	0.337941
C79	C	1.096569	0.052940	0.587941
C80	C	1.346569	0.302940	0.837941
C81	C	0.597682	-0.447441	-0.086824
C82	C	0.847682	-0.197441	0.163176
C83	C	1.097682	0.052559	0.413176
C84	C	1.347682	0.302559	0.663176
C85	C	0.597670	-0.350495	-0.087984
C86	C	0.847670	-0.100495	0.162016
C87	C	1.097670	0.149505	0.412016
C88	C	1.347670	0.399505	0.662016
C89	C	0.572802	-0.214346	0.000107
C90	C	0.822802	0.035654	0.250107
C91	C	1.072802	0.285654	0.500107
C92	C	1.322802	0.535654	0.750107
C93	C	0.569179	-0.571255	0.000110
C94	C	0.819179	-0.321255	0.250110
C95	C	1.069179	-0.071255	0.500110
C96	C	1.319179	0.178745	0.750110
C97	C	0.090447	0.184004	0.000121
C98	C	0.340447	0.434004	0.250121
C99	C	0.590447	0.684004	0.500121
C100	C	0.840447	0.934004	0.750121
C101	C	-0.111228	0.180451	0.000129
C102	C	0.138772	0.430451	0.250129
C103	C	0.388772	0.680451	0.500129
C104	C	0.638772	0.930451	0.750129
O105	O	-0.142205	0.244923	0.000168
O106	O	0.107795	0.494923	0.250168
O107	O	0.357795	0.744923	0.500168
O108	O	0.607795	0.994923	0.750168
N109	N	-0.130683	0.103656	0.000128
N110	N	0.119317	0.353656	0.250128
N111	N	0.369317	0.603656	0.500128
N112	N	0.619317	0.853656	0.750128
C113	C	-0.099715	0.027744	0.000132
C114	C	0.150285	0.277744	0.250132
C115	C	0.400285	0.527744	0.500132
C116	C	0.650285	0.777744	0.750132
O117	O	-0.120891	-0.037657	0.000141
O118	O	0.129109	0.212343	0.250141
O119	O	0.379109	0.462343	0.500141
O120	O	0.629109	0.712343	0.750141
C121	C	0.101958	0.031297	0.000130
C122	C	0.351958	0.281297	0.250130
C123	C	0.601958	0.531297	0.500130
C124	C	0.851958	0.781297	0.750130
C125	C	0.121410	0.108097	0.000121
C126	C	0.371410	0.358097	0.250121
C127	C	0.621410	0.608097	0.500121
C128	C	0.871410	0.858097	0.750121
C129	C	0.109900	0.260797	0.000113
C130	C	0.359900	0.510797	0.250113
C131	C	0.609900	0.760797	0.500113
C132	C	0.859900	1.010797	0.750113
C133	C	0.160315	0.261685	0.000106
C134	C	0.410315	0.511685	0.250106
C135	C	0.660315	0.761685	0.500106
C136	C	0.910315	1.011685	0.750106
C137	C	0.191279	0.185778	0.000107
C138	C	0.441279	0.435778	0.250107
C139	C	0.691279	0.685778	0.500107
C140	C	0.941279	0.935778	0.750107
C141	C	0.171826	0.108985	0.000114
C142	C	0.421826	0.358985	0.250114
C143	C	0.671826	0.608985	0.500114
C144	C	0.921826	0.858985	0.750114
C145	C	0.132925	-0.044614	0.000140
C146	C	0.382925	0.205386	0.250140
C147	C	0.632925	0.455386	0.500140
C148	C	0.882925	0.705386	0.750140
C149	C	0.183346	-0.043719	0.000142
C150	C	0.433346	0.206281	0.250142
C151	C	0.683346	0.456281	0.500142
C152	C	0.933346	0.706281	0.750142
C153	C	0.202798	0.033081	0.000133
C154	C	0.452798	0.283081	0.250133
C155	C	0.702798	0.533081	0.500133
C156	C	0.952798	0.783081	0.750133
C157	C	0.253205	0.033965	0.000108
C158	C	0.503205	0.283965	0.250108
C159	C	0.753205	0.533965	0.500108
C160	C	1.003205	0.783965	0.750108
N161	N	0.272660	0.110761	0.000108
N162	N	0.522660	0.360761	0.250108
N163	N	0.772660	0.610761	0.500108
N164	N	1.022660	0.860761	0.750108
C165	C	0.241697	0.186667	0.000108
C166	C	0.491697	0.436667	0.250108
C167	C	0.741697	0.686667	0.500108
C168	C	0.991697	0.936667	0.750108
C169	C	-0.205598	0.025883	0.000131
C170	C	0.044402	0.275883	0.250131
C171	C	0.294402	0.525883	0.500131
C172	C	0.544402	0.775883	0.750131
C173	C	-0.256016	0.024995	0.000130
C174	C	-0.006016	0.274995	0.250130
C175	C	0.243984	0.524995	0.500130
C176	C	0.493984	0.774995	0.750130
C177	C	-0.267525	0.177703	0.000129
C178	C	-0.017525	0.427703	0.250129
C179	C	0.232475	0.677703	0.500129
C180	C	0.482475	0.927703	0.750129
C181	C	-0.217106	0.178590	0.000123
C182	C	0.032894	0.428590	0.250123
C183	C	0.282894	0.678590	0.500123
C184	C	0.532894	0.928590	0.750123
C185	C	-0.186143	0.102679	0.000132
C186	C	0.063857	0.352679	0.250132
C187	C	0.313857	0.602679	0.500132
C188	C	0.563857	0.852679	0.750132
C189	C	0.347574	0.188525	0.000092
C190	C	0.597574	0.438525	0.250092
C191	C	0.847574	0.688525	0.500092
C192	C	1.097574	0.938525	0.750092
C193	C	0.397995	0.189405	0.000081
C194	C	0.647995	0.439405	0.250081
C195	C	0.897995	0.689405	0.500081
C196	C	1.147995	0.939405	0.750081
C197	C	0.409499	0.036698	0.000087
C198	C	0.659499	0.286698	0.250087
C199	C	0.909499	0.536698	0.500087
C200	C	1.159499	0.786698	0.750087
C201	C	0.359083	0.035817	0.000093
C202	C	0.609083	0.285817	0.250093
C203	C	0.859083	0.535817	0.500093
C204	C	1.109083	0.785817	0.750093
C205	C	0.328121	0.111737	0.000099
C206	C	0.578121	0.361737	0.250099
C207	C	0.828121	0.611737	0.500099
C208	C	1.078121	0.861737	0.750099
O209	O	0.284211	-0.030472	0.000079
O210	O	0.534211	0.219528	0.250079
O211	O	0.784211	0.469528	0.500079
O212	O	1.034211	0.719528	0.750079
O213	O	0.262881	0.252058	0.000119
O214	O	0.512881	0.502058	0.250119
O215	O	0.762881	0.752058	0.500119
O216	O	1.012881	1.002058	0.750119
C217	C	0.040031	0.183116	0.000128
C218	C	0.290031	0.433116	0.250128
C219	C	0.540031	0.683116	0.500128
C220	C	0.790031	0.933116	0.750128
C221	C	0.020579	0.106323	0.000136
C222	C	0.270579	0.356323	0.250136
C223	C	0.520579	0.606323	0.500136
C224	C	0.770579	0.856323	0.750136
C225	C	0.051542	0.030416	0.000136
C226	C	0.301542	0.280416	0.250136
C227	C	0.551542	0.530416	0.500136
C228	C	0.801542	0.780416	0.750136
C229	C	-0.029839	0.105434	0.000134
C230	C	0.220161	0.355434	0.250134
C231	C	0.470161	0.605434	0.500134
C232	C	0.720161	0.855434	0.750134
C233	C	-0.060803	0.181340	0.000134
C234	C	0.189197	0.431340	0.250134
C235	C	0.439197	0.681340	0.500134
C236	C	0.689197	0.931340	0.750134
C237	C	-0.041348	0.258135	0.000134
C238	C	0.208652	0.508135	0.250134
C239	C	0.458652	0.758135	0.500134
C240	C	0.708652	1.008135	0.750134
C241	C	0.009068	0.259023	0.000127
C242	C	0.259068	0.509023	0.250127
C243	C	0.509068	0.759023	0.500127
C244	C	0.759068	1.009023	0.750127
C245	C	0.032087	-0.046379	0.000136
C246	C	0.282087	0.203621	0.250136
C247	C	0.532087	0.453621	0.500136
C248	C	0.782087	0.703621	0.750136
C249	C	-0.018329	-0.047260	0.000142
C250	C	0.231671	0.202740	0.250142
C251	C	0.481671	0.452740	0.500142
C252	C	0.731671	0.702740	0.750142
C253	C	-0.049292	0.028646	0.000141
C254	C	0.200708	0.278646	0.250141
C255	C	0.450708	0.528646	0.500141
C256	C	0.700708	0.778646	0.750141
C257	C	0.659362	0.099944	0.000125
C258	C	0.909362	0.349944	0.250125
C259	C	1.159362	0.599944	0.500125
C260	C	1.409362	0.849944	0.750125
C261	C	0.713021	0.100901	0.000129
C262	C	0.963021	0.350901	0.250129
C263	C	1.213021	0.600901	0.500129
C264	C	1.463021	0.850901	0.750129
C265	C	0.567461	0.260328	0.000108
C266	C	0.817461	0.510328	0.250108
C267	C	1.067461	0.760328	0.500108
C268	C	1.317461	1.010328	0.750108
C269	C	0.568414	0.353266	0.000107
C270	C	0.818414	0.603266	0.250107
C271	C	1.068414	0.853266	0.500107
C272	C	1.318414	1.103266	0.750107
N273	N	0.570966	0.107210	0.218814
N274	N	0.820966	0.357210	0.468814
N275	N	1.070966	0.607210	0.718814
N276	N	1.320966	0.857210	0.968814
N277	N	0.571017	0.107183	-0.218595
N278	N	0.821017	0.357183	0.031405
N279	N	1.071017	0.607183	0.281405
N280	N	1.321017	0.857183	0.531405
C281	C	0.571000	0.107192	0.592905
C282	C	0.821000	0.357192	0.842905
C283	C	1.071000	0.607192	1.092905
C284	C	1.321000	0.857192	1.342905
C285	C	0.531158	0.176262	0.553731
C286	C	0.781158	0.426262	0.803731
C287	C	1.031158	0.676262	1.053731
C288	C	1.281158	0.926262	1.303731
C289	C	0.531250	0.176511	0.446643
C290	C	0.781250	0.426511	0.696643
C291	C	1.031250	0.676511	0.946643
C292	C	1.281250	0.926511	1.196643
C293	C	0.570983	0.107201	0.407314
C294	C	0.820983	0.357201	0.657314
C295	C	1.070983	0.607201	0.907314
C296	C	1.320983	0.857201	1.157314
C297	C	0.621417	0.125630	0.446161
C298	C	0.871417	0.375630	0.696161
C299	C	1.121417	0.625630	0.946161
C300	C	1.371417	0.875630	1.196161
C301	C	0.621193	0.126121	0.553282
C302	C	0.871193	0.376121	0.803282
C303	C	1.121193	0.626121	1.053282
C304	C	1.371193	0.876121	1.303282
C305	C	0.560858	0.019484	0.553433
C306	C	0.810858	0.269484	0.803433
C307	C	1.060858	0.519484	1.053433
C308	C	1.310858	0.769484	1.303433
C309	C	0.559701	0.020084	0.446305
C310	C	0.809701	0.270084	0.696305
C311	C	1.059701	0.520084	0.946305
C312	C	1.309701	0.770084	1.196305
C313	C	0.570976	0.107205	0.302426
C314	C	0.820976	0.357205	0.552426
C315	C	1.070976	0.607205	0.802426
C316	C	1.320976	0.857205	1.052426
C317	C	0.571010	0.107190	0.697793
C318	C	0.821010	0.357190	0.947793
C319	C	1.071010	0.607190	1.197793
C320	C	1.321010	0.857190	1.447793
H321	H	0.497759	-0.303089	-0.062815
H322	H	0.747759	-0.053089	0.187185
H323	H	0.997759	0.196911	0.437185
H324	H	1.247759	0.446911	0.687185
H325	H	0.524880	0.001601	0.580494
H326	H	0.774880	0.251601	0.830494
H327	H	1.024880	0.501601	1.080494
H328	H	1.274880	0.751601	1.330494
H329	H	0.084694	0.322613	0.000116
H330	H	0.334694	0.572613	0.250116
H331	H	0.584694	0.822613	0.500116
H332	H	0.834694	1.072613	0.750116
H333	H	0.496172	-0.446713	-0.063186
H334	H	0.746172	-0.196713	0.186814
H335	H	0.996172	0.053287	0.436814
H336	H	1.246172	0.303287	0.686814
H337	H	0.537727	0.241612	0.421009
H338	H	0.787727	0.491612	0.671009
H339	H	1.037727	0.741612	0.921009
H340	H	1.287727	0.991612	1.171009
Cl341	Cl	0.569930	-0.306261	0.188698
Cl342	Cl	0.819930	-0.056261	0.438698
Cl343	Cl	1.069930	0.193739	0.688698
Cl344	Cl	1.319930	0.443739	0.938698
H345	H	0.522601	0.006083	0.420916
H346	H	0.772601	0.256083	0.670916
H347	H	1.022601	0.506083	0.920916
H348	H	1.272601	0.756083	1.170916
Cl349	Cl	0.571011	-0.478799	-0.189525
Cl350	Cl	0.821011	-0.228799	0.060475
Cl351	Cl	1.071011	0.021201	0.310475
Cl352	Cl	1.321011	0.271201	0.560475
H353	H	0.577551	-0.465112	0.153541
H354	H	0.827551	-0.215112	0.403541
H355	H	1.077551	0.034888	0.653541
H356	H	1.327551	0.284888	0.903541
Cl357	Cl	0.601599	-0.062914	0.404992
Cl358	Cl	0.851599	0.187086	0.654992
Cl359	Cl	1.101599	0.437086	0.904992
Cl360	Cl	1.351599	0.687086	1.154992
H361	H	0.578618	-0.323003	-0.152909
H362	H	0.828618	-0.073003	0.097091
H363	H	1.078618	0.176997	0.347091
H364	H	1.328618	0.426997	0.597091
Cl365	Cl	0.668298	0.051272	0.593294
Cl366	Cl	0.918298	0.301272	0.843294
Cl367	Cl	1.168298	0.551272	1.093294
Cl368	Cl	1.418298	0.801272	1.343294
H369	H	-0.201272	0.241128	0.000121
H370	H	0.048728	0.491128	0.250121
H371	H	0.298728	0.741128	0.500121
H372	H	0.548728	0.991128	0.750121
H373	H	0.537545	0.240997	0.580641
H374	H	0.787545	0.490997	0.830641
H375	H	1.037545	0.740997	1.080641
H376	H	1.287545	0.990997	1.330641
H377	H	0.635371	-0.479810	0.091928
H378	H	0.885371	-0.229810	0.341928
H379	H	1.135371	0.020190	0.591928
H380	H	1.385371	0.270190	0.841928
Cl381	Cl	0.634991	0.224847	0.591849
Cl382	Cl	0.884991	0.474847	0.841849
Cl383	Cl	1.134991	0.724847	1.091849
Cl384	Cl	1.384991	0.974847	1.341849
Cl385	Cl	-0.042776	-0.143819	0.000141
Cl386	Cl	0.207224	0.106181	0.250141
Cl387	Cl	0.457224	0.356181	0.500141
Cl388	Cl	0.707224	0.606181	0.750141
Cl389	Cl	0.484716	-0.458634	0.096082
Cl390	Cl	0.734716	-0.208634	0.346082
Cl391	Cl	0.984716	0.041366	0.596082
Cl392	Cl	1.234716	0.291366	0.846082
Cl393	Cl	0.668287	0.049985	0.406832
Cl394	Cl	0.918287	0.299985	0.656832
Cl395	Cl	1.168287	0.549985	0.906832
Cl396	Cl	1.418287	0.799985	1.156832
H397	H	0.589913	-0.031908	0.578765
H398	H	0.839913	0.218092	0.828765
H399	H	1.089913	0.468092	1.078765
H400	H	1.339913	0.718092	1.328765
H401	H	0.497605	-0.303639	0.063110
H402	H	0.747605	-0.053639	0.313110
H403	H	0.997605	0.196361	0.563110
H404	H	1.247605	0.446361	0.813110
H405	H	0.637272	-0.336825	0.091136
H406	H	0.887272	-0.086825	0.341136
H407	H	1.137272	0.163175	0.591136
H408	H	1.387272	0.413175	0.841136
H409	H	-0.292744	0.239509	0.000128
H410	H	-0.042744	0.489509	0.250128
H411	H	0.207256	0.739509	0.500128
H412	H	0.457256	0.989509	0.750128
H413	H	0.636755	-0.335639	-0.093278
H414	H	0.886755	-0.085639	0.156722
H415	H	1.136755	0.164361	0.406722
H416	H	1.386755	0.414361	0.656722
H417	H	0.057293	-0.108193	0.000138
H418	H	0.307293	0.141807	0.250138
H419	H	0.557293	0.391807	0.500138
H420	H	0.807293	0.641807	0.750138
Cl421	Cl	-0.280463	-0.071558	0.000118
Cl422	Cl	-0.030463	0.178442	0.250118
Cl423	Cl	0.219537	0.428442	0.500118
Cl424	Cl	0.469537	0.678442	0.750118
H425	H	0.636649	-0.479706	-0.087409
H426	H	0.886649	-0.229706	0.162591
H427	H	1.136649	0.020294	0.412591
H428	H	1.386649	0.270294	0.662591
H429	H	0.630568	0.188843	0.419325
H430	H	0.880568	0.438843	0.669325
H431	H	1.130568	0.688843	0.919325
H432	H	1.380568	0.938843	1.169325
Cl433	Cl	0.308658	0.283969	0.000098
Cl434	Cl	0.558658	0.533969	0.250098
Cl435	Cl	0.808658	0.783969	0.500098
Cl436	Cl	1.058658	1.033969	0.750098
Cl437	Cl	0.422445	0.285961	0.000067
Cl438	Cl	0.672445	0.535961	0.250067
Cl439	Cl	0.922445	0.785961	0.500067
Cl440	Cl	1.172445	1.035961	0.750067
H441	H	0.176148	0.324223	0.000099
H442	H	0.426148	0.574223	0.250099
H443	H	0.676148	0.824223	0.500099
H444	H	0.926148	1.074223	0.750099
H445	H	-0.180391	-0.035937	0.000138
H446	H	0.069609	0.214063	0.250138
H447	H	0.319609	0.464063	0.500138
H448	H	0.569609	0.714063	0.750138
Cl449	Cl	0.108484	-0.141169	0.000136
Cl450	Cl	0.358484	0.108831	0.250136
Cl451	Cl	0.608484	0.358831	0.500136
Cl452	Cl	0.858484	0.608831	0.750136
Cl453	Cl	0.334628	-0.060733	0.000108
Cl454	Cl	0.584628	0.189267	0.250108
Cl455	Cl	0.834628	0.439267	0.500108
Cl456	Cl	1.084628	0.689267	0.750108
Cl457	Cl	0.222268	-0.139157	0.000154
Cl458	Cl	0.472268	0.110843	0.250154
Cl459	Cl	0.722268	0.360843	0.500154
Cl460	Cl	0.972268	0.610843	0.750154
Cl461	Cl	-0.080283	0.353560	0.000130
Cl462	Cl	0.169717	0.603560	0.250130
Cl463	Cl	0.419717	0.853560	0.500130
Cl464	Cl	0.669717	1.103560	0.750130
H465	H	0.434719	-0.025103	0.000084
H466	H	0.684719	0.224897	0.250084
H467	H	0.934719	0.474897	0.500084
H468	H	1.184719	0.724897	0.750084
Cl469	Cl	0.473361	0.159763	0.406090
Cl470	Cl	0.723361	0.409763	0.656090
Cl471	Cl	0.973361	0.659763	0.906090
Cl472	Cl	1.223361	0.909763	1.156090
Cl473	Cl	0.473087	0.159739	0.593512
Cl474	Cl	0.723087	0.409739	0.843512
Cl475	Cl	0.973087	0.659739	1.093512
Cl476	Cl	1.223087	0.909739	1.343512
Cl477	Cl	0.033514	0.355577	0.000118
Cl478	Cl	0.283514	0.605577	0.250118
Cl479	Cl	0.533514	0.855577	0.500118
Cl480	Cl	0.783514	1.105577	0.750118
