data_functionalizedCrystal
_audit_creation_method	'MofGen! by Chris Wilmer'
_symmetry_space_group_name_H-M	'P1'
_symmetry_Int_Tables_number	1
_symmetry_cell_setting	triclinic
loop_
_symmetry_equiv_pos_as_xyz
  x,y,z
_cell_length_a	19.188905
_cell_length_b	16.109301
_cell_length_c	15.186229
_cell_angle_alpha	89.994833
_cell_angle_beta	89.989522
_cell_angle_gamma	83.298018
loop_
_atom_site_label
_atom_site_type_symbol
_atom_site_fract_x
_atom_site_fract_y
_atom_site_fract_z
O1	O	0.926397	0.103697	-0.073376
O2	O	1.426397	0.603697	0.426624
O3	O	0.723116	0.117692	-0.073347
O4	O	1.223116	0.617692	0.426653
O5	O	0.830341	-0.010356	-0.073353
O6	O	1.330341	0.489644	0.426647
O7	O	0.819172	0.231745	-0.073370
O8	O	1.319172	0.731745	0.426630
O9	O	0.830334	-0.010357	0.073104
O10	O	1.330334	0.489643	0.573104
O11	O	0.723109	0.117690	0.073111
O12	O	1.223109	0.617690	0.573111
O13	O	0.926390	0.103695	0.073081
O14	O	1.426390	0.603695	0.573081
Zn15	Zn	0.824748	0.110692	0.096349
Zn16	Zn	1.324748	0.610692	0.596349
Zn17	Zn	0.824758	0.110695	-0.096615
Zn18	Zn	1.324758	0.610695	0.403385
O19	O	0.819165	0.231743	0.073088
O20	O	1.319165	0.731743	0.573088
C21	C	0.829885	-0.041330	-0.000124
C22	C	1.329885	0.458670	0.499876
C23	C	0.828529	-0.133620	-0.000123
C24	C	1.328529	0.366380	0.499877
C25	C	0.697100	0.117241	-0.000114
C26	C	1.197100	0.617241	0.499886
C27	C	0.619592	0.115891	-0.000103
C28	C	1.119592	0.615891	0.499897
C29	C	0.889000	-0.356100	-0.000146
C30	C	1.389000	0.143900	0.499854
C31	C	0.887720	-0.442816	-0.000153
C32	C	1.387720	0.057184	0.499847
C33	C	0.760501	-0.422506	-0.000131
C34	C	1.260501	0.077494	0.499869
C35	C	0.761782	-0.335792	-0.000130
C36	C	1.261782	0.164208	0.499870
C37	C	0.826033	-0.302591	-0.000133
C38	C	1.326033	0.197409	0.499867
C39	C	0.823473	-0.476022	-0.000141
C40	C	1.323473	0.023978	0.499859
C41	C	0.822085	-0.570043	-0.000148
C42	C	1.322085	-0.070043	0.499852
C43	C	0.827422	-0.208564	-0.000127
C44	C	1.327422	0.291436	0.499873
C45	C	0.583202	0.115244	-0.079939
C46	C	1.083202	0.615244	0.420061
C47	C	0.510376	0.113966	-0.079950
C48	C	1.010376	0.613966	0.420050
C49	C	0.473943	0.113319	-0.000120
C50	C	0.973943	0.613319	0.499880
C51	C	0.510341	0.113971	0.079727
C52	C	1.010341	0.613971	0.579727
C53	C	0.583165	0.115258	0.079736
C54	C	1.083165	0.615258	0.579736
N55	N	0.364805	0.063986	0.059293
N56	N	0.864805	0.563986	0.559293
N57	N	0.295625	0.062763	0.059280
N58	N	0.795625	0.562763	0.559280
C59	C	0.254527	0.109446	-0.000141
C60	C	0.754527	0.609446	0.499859
N61	N	0.285224	0.157389	-0.059560
N62	N	0.785224	0.657389	0.440440
N63	N	0.354411	0.158609	-0.059549
N64	N	0.854411	0.658609	0.440451
C65	C	0.394977	0.111925	-0.000120
C66	C	0.894977	0.611925	0.499880
C67	C	0.139171	0.107414	-0.079994
C68	C	0.639171	0.607414	0.420006
C69	C	0.066342	0.106142	-0.080002
C70	C	0.566342	0.606142	0.419998
C71	C	0.066310	0.106139	0.079677
C72	C	0.566310	0.606139	0.579677
C73	C	0.139136	0.107420	0.079682
C74	C	0.639136	0.607420	0.579682
C75	C	0.175563	0.108053	-0.000156
C76	C	0.675563	0.608053	0.499844
C77	C	0.952406	0.104146	-0.000154
C78	C	1.452406	0.604146	0.499846
C79	C	1.029915	0.105496	-0.000171
C80	C	1.529915	0.605496	0.499829
C81	C	0.819621	0.262717	-0.000144
C82	C	1.319621	0.762717	0.499856
C83	C	0.820978	0.355008	-0.000151
C84	C	1.320978	0.855008	0.499849
N85	N	0.824747	0.110690	0.228042
N86	N	1.324747	0.610690	0.728042
N87	N	0.824765	0.110690	-0.228308
N88	N	1.324765	0.610690	0.271692
C89	C	0.872242	0.054010	0.453761
C90	C	1.372242	0.554010	0.953761
C91	C	0.872245	0.054008	0.545951
C92	C	1.372245	0.554008	1.045951
C93	C	0.777264	0.167373	0.545966
C94	C	1.277264	0.667373	1.045966
C95	C	0.777259	0.167371	0.453778
C96	C	1.277259	0.667371	0.953778
C97	C	0.824752	0.110690	0.407678
C98	C	1.324752	0.610690	0.907678
C99	C	0.824759	0.110691	0.592056
C100	C	1.324759	0.610691	1.092056
C101	C	0.824762	0.110689	0.692012
C102	C	1.324762	0.610689	1.192012
C103	C	0.824750	0.110690	0.307716
C104	C	1.324750	0.610690	0.807716
H105	H	0.938994	-0.486379	-0.000165
H106	H	1.438994	0.013621	0.499835
C107	C	0.179245	0.108122	-0.167812
C108	C	0.679245	0.608122	0.332188
C109	C	0.139212	0.107423	-0.255635
C110	C	0.639212	0.607423	0.244365
C111	C	0.179283	0.108131	-0.343453
C112	C	0.679283	0.608131	0.156547
C113	C	0.259388	0.109538	-0.343448
C114	C	0.759388	0.609538	0.156552
C115	C	0.299426	0.110237	-0.255622
C116	C	0.799426	0.610237	0.244378
C117	C	0.259354	0.109529	-0.167804
C118	C	0.759354	0.609529	0.332196
H119	H	0.079909	0.106382	-0.255641
H120	H	0.579909	0.606382	0.244359
H121	H	0.149644	0.107614	-0.408467
H122	H	0.649644	0.607614	0.091533
H123	H	0.289051	0.110062	-0.408456
H124	H	0.789051	0.610062	0.091544
H125	H	0.358728	0.111278	-0.255615
H126	H	0.858728	0.611278	0.244385
H127	H	0.288993	0.110046	-0.102789
H128	H	0.788993	0.610046	0.397211
H129	H	0.036715	0.105619	-0.145017
H130	H	0.536715	0.605619	0.354983
H131	H	0.708190	-0.449549	-0.000126
H132	H	1.208190	0.050451	0.499874
C133	C	0.692514	-0.276925	-0.000116
C134	C	1.192514	0.223075	0.499884
C135	C	0.693924	-0.181543	-0.000120
C136	C	1.193924	0.318457	0.499880
C137	C	0.624660	-0.122676	-0.000110
C138	C	1.124660	0.377324	0.499890
C139	C	0.553986	-0.159191	-0.000096
C140	C	1.053986	0.340809	0.499904
C141	C	0.552573	-0.254579	-0.000092
C142	C	1.052573	0.245421	0.499908
C143	C	0.621837	-0.313445	-0.000102
C144	C	1.121837	0.186555	0.499898
H145	H	0.746244	-0.154507	-0.000130
H146	H	1.246244	0.345493	0.499870
H147	H	0.625706	-0.052064	-0.000113
H148	H	1.125706	0.447936	0.499887
H149	H	0.502713	-0.115615	-0.000089
H150	H	1.002713	0.384385	0.499911
H151	H	0.500254	-0.281614	-0.000082
H152	H	1.000254	0.218386	0.499918
H153	H	0.620791	-0.384057	-0.000099
H154	H	1.120791	0.115943	0.499901
H155	H	0.738584	0.213527	0.416255
H156	H	1.238584	0.713527	0.916255
C157	C	0.623266	0.115950	-0.167761
C158	C	1.123266	0.615950	0.332239
C159	C	0.621219	0.043595	-0.233621
C160	C	1.121219	0.543595	0.266379
C161	C	0.661282	0.044303	-0.321444
C162	C	1.161282	0.544303	0.178556
C163	C	0.703393	0.117367	-0.343408
C164	C	1.203393	0.617367	0.156592
C165	C	0.705442	0.189728	-0.277547
C166	C	1.205442	0.689728	0.222453
C167	C	0.665378	0.189020	-0.189723
C168	C	1.165378	0.689020	0.310277
H169	H	0.590044	-0.010496	-0.217363
H170	H	1.090044	0.489504	0.282637
H171	H	0.659766	-0.009263	-0.370199
H172	H	1.159766	0.490737	0.129801
H173	H	0.733051	0.117892	-0.408421
H174	H	1.233051	0.617892	0.091579
H175	H	0.736616	0.243819	-0.293805
H176	H	1.236616	0.743819	0.206195
H177	H	0.666895	0.242586	-0.140969
H178	H	1.166895	0.742586	0.359031
H179	H	0.910914	0.007853	0.583470
H180	H	1.410914	0.507853	1.083470
C181	C	0.470335	0.113245	-0.167773
C182	C	0.970335	0.613245	0.332227
C183	C	0.488317	0.041232	-0.233619
C184	C	0.988317	0.541232	0.266381
C185	C	0.448279	0.040507	-0.321441
C186	C	0.948279	0.540507	0.178559
C187	C	0.390258	0.111795	-0.343417
C188	C	0.890258	0.611795	0.156583
C189	C	0.372273	0.183813	-0.277569
C190	C	0.872273	0.683813	0.222431
C191	C	0.412312	0.184538	-0.189747
C192	C	0.912312	0.684538	0.310253
H193	H	0.531270	-0.011544	-0.217352
H194	H	1.031270	0.488456	0.282648
H195	H	0.461593	-0.012805	-0.370186
H196	H	0.961593	0.487195	0.129814
H197	H	0.360619	0.111259	-0.408428
H198	H	0.860619	0.611259	0.091572
H199	H	0.329320	0.236590	-0.293836
H200	H	0.829320	0.736590	0.206164
H201	H	0.398997	0.237851	-0.141003
H202	H	0.898997	0.737851	0.358997
C203	C	0.026245	0.105429	0.167494
C204	C	0.526245	0.605429	0.667494
C205	C	-0.031780	0.176724	0.189443
C206	C	0.468220	0.676724	0.689443
C207	C	-0.071849	0.176018	0.277263
C208	C	0.428151	0.676018	0.777263
C209	C	-0.053893	0.104016	0.343134
C210	C	0.446107	0.604016	0.843134
C211	C	0.004135	0.032715	0.321187
C212	C	0.504135	0.532715	0.821187
C213	C	0.044203	0.033421	0.233367
C214	C	0.544203	0.533421	0.733367
H215	H	-0.045075	0.230029	0.140680
H216	H	0.454925	0.730029	0.640680
H217	H	-0.114805	0.228801	0.293510
H218	H	0.385195	0.728801	0.793510
H219	H	-0.083554	0.103494	0.408144
H220	H	0.416446	0.603494	0.908144
H221	H	0.017429	-0.020590	0.369950
H222	H	0.517429	0.479410	0.869950
H223	H	0.087159	-0.019361	0.217120
H224	H	0.587159	0.480639	0.717120
C225	C	0.470269	0.113258	0.167541
C226	C	0.970269	0.613258	0.667541
C227	C	0.390165	0.111837	0.167536
C228	C	0.890165	0.611837	0.667536
C229	C	0.350094	0.111128	0.255354
C230	C	0.850094	0.611128	0.755354
C231	C	0.390126	0.111839	0.343177
C232	C	0.890126	0.611839	0.843177
C233	C	0.470233	0.113260	0.343185
C234	C	0.970233	0.613260	0.843185
C235	C	0.510305	0.113969	0.255367
C236	C	1.010305	0.613969	0.755367
H237	H	0.360528	0.111310	0.102522
H238	H	0.860528	0.611310	0.602522
H239	H	0.290793	0.110076	0.255347
H240	H	0.790793	0.610076	0.755347
H241	H	0.360462	0.111314	0.408185
H242	H	0.860462	0.611314	0.908185
H243	H	0.499871	0.113786	0.408200
H244	H	0.999871	0.613786	0.908200
H245	H	0.569606	0.115021	0.255374
H246	H	1.069606	0.615021	0.755374
H247	H	0.612793	0.115786	0.144750
H248	H	1.112793	0.615786	0.644750
H249	H	0.168765	0.107941	0.144694
H250	H	0.668765	0.607941	0.644694
H251	H	0.910913	0.007856	0.416229
H252	H	1.410913	0.507856	0.916229
H253	H	0.738598	0.213523	0.583510
H254	H	1.238598	0.713523	1.083510
C255	C	0.959674	-0.319578	-0.000158
C256	C	1.459674	0.180422	0.499842
C257	C	1.028936	-0.378440	-0.000177
C258	C	1.528936	0.121560	0.499823
C259	C	1.099613	-0.341921	-0.000192
C260	C	1.599613	0.158079	0.499808
C261	C	1.101027	-0.246540	-0.000188
C262	C	1.601027	0.253460	0.499812
C263	C	1.031763	-0.187672	-0.000169
C264	C	1.531763	0.312328	0.499831
C265	C	0.961086	-0.224190	-0.000154
C266	C	1.461086	0.275810	0.499846
H267	H	1.027891	-0.449052	-0.000180
H268	H	1.527891	0.050948	0.499820
H269	H	1.150887	-0.385500	-0.000206
H270	H	1.650887	0.114500	0.499794
H271	H	1.153346	-0.219506	-0.000199
H272	H	1.653346	0.280494	0.499801
H273	H	1.032807	-0.117059	-0.000166
H274	H	1.532807	0.382941	0.499834
H275	H	0.909812	-0.180612	-0.000140
H276	H	1.409812	0.319388	0.499860
