data_functionalizedCrystal
_audit_creation_method	'MofGen! by Chris Wilmer'
_symmetry_space_group_name_H-M	'P1'
_symmetry_Int_Tables_number	1
_symmetry_cell_setting	triclinic
loop_
_symmetry_equiv_pos_as_xyz
  x,y,z
_cell_length_a	10.540539
_cell_length_b	17.699083
_cell_length_c	9.016244
_cell_angle_alpha	90.007654
_cell_angle_beta	90.000301
_cell_angle_gamma	83.904253
loop_
_atom_site_label
_atom_site_type_symbol
_atom_site_fract_x
_atom_site_fract_y
_atom_site_fract_z
O1	O	-1.683932	-0.106662	-0.123274
O2	O	-1.314335	-0.116712	-0.123292
O3	O	-1.509576	-0.001566	-0.123269
O4	O	-1.488692	-0.221808	-0.123297
O5	O	-1.509568	-0.001557	0.123411
O6	O	-1.314327	-0.116703	0.123388
O7	O	-1.683924	-0.106654	0.123407
Cu8	Cu	-1.499125	-0.111678	0.145922
Cu9	Cu	-1.499134	-0.111688	-0.145807
O10	O	-1.488684	-0.221800	0.123384
C11	C	-1.267042	-0.115954	0.000046
C12	C	-1.126135	-0.113699	0.000039
C13	C	-1.508823	0.026641	0.000071
C14	C	-1.506578	0.110673	0.000072
C15	C	-1.731217	-0.107412	0.000066
C16	C	-1.872124	-0.109666	0.000063
C17	C	-0.944289	-0.027300	0.000626
C18	C	-1.090865	-0.029586	0.000054
C19	C	-1.063727	-0.154183	-0.140827
C20	C	-0.917235	-0.151312	-0.140930
C21	C	-0.916706	-0.153013	0.139592
C22	C	-1.063674	-0.153788	0.141439
C23	C	-1.489436	-0.250006	0.000040
C24	C	-1.491681	-0.334038	0.000030
N25	N	-1.499127	-0.111670	0.351108
C26	C	-1.621180	0.158549	0.000079
C27	C	-1.619064	0.237506	0.000066
C28	C	-1.502343	0.268586	0.000056
C29	C	-1.387732	0.220704	0.000043
C30	C	-1.389851	0.141748	0.000046
C31	C	-1.379187	0.539122	0.000031
C32	C	-1.377078	0.618084	0.000033
C33	C	-1.608400	0.634880	0.000051
C34	C	-1.610518	0.555925	0.000054
C35	C	-1.495908	0.508050	0.000034
C36	C	-1.498205	0.422436	0.000045
C37	C	-1.500045	0.354198	0.000055
N38	N	-1.499142	-0.111689	-0.350993
C39	C	-1.603950	-0.050287	0.586106
C40	C	-1.603675	-0.050053	0.414216
C41	C	-1.366751	-0.093706	0.413529
C42	C	-1.367375	-0.093275	0.585473
C43	C	-1.525515	-0.191231	0.585603
C44	C	-1.528519	-0.190711	0.413648
H45	H	-0.916308	0.005933	0.101649
N46	N	-1.732015	0.686523	0.000068
H47	H	-1.736305	0.719649	-0.091378
H48	H	-1.806207	0.654802	0.000141
N49	N	-0.905058	0.016542	-0.132400
H50	H	-0.840745	-0.016720	-0.193030
H51	H	-0.982572	0.032634	-0.195212
H52	H	-1.716228	0.133251	0.000097
H53	H	-1.705564	0.530624	0.000070
N54	N	-0.852186	-0.231431	-0.149376
H55	H	-0.877568	-0.261376	-0.060828
H56	H	-0.878820	-0.256355	-0.243513
H57	H	-1.084950	-0.215954	-0.146076
N58	N	-1.120816	-0.116947	-0.279693
H59	H	-1.187089	-0.073862	-0.251677
H60	H	-1.051335	-0.096484	-0.340046
N61	N	-1.266245	0.090107	0.000029
H62	H	-1.191981	0.121775	0.000023
H63	H	-1.262078	0.056986	0.091474
H64	H	-1.282024	0.643386	0.000027
N65	N	-1.148107	0.012617	0.133789
H66	H	-1.193613	-0.023068	0.197180
H67	H	-1.078067	0.032875	0.193544
N68	N	-1.146943	0.012896	-0.133927
H69	H	-1.109034	-0.011837	-0.227122
H70	H	-1.242498	0.011582	-0.134726
H71	H	-1.702692	-0.060928	0.627449
N72	N	-0.875584	-0.116955	0.281035
H73	H	-0.827630	-0.072150	0.256092
H74	H	-0.953348	-0.099142	0.342155
N75	N	-1.255578	0.487492	0.000015
H76	H	-1.181319	0.519164	0.000016
H77	H	-1.251413	0.454372	0.091462
H78	H	-0.889575	-0.121398	-0.246221
N79	N	-1.118638	-0.114617	0.279487
H80	H	-1.100793	-0.059669	0.278607
H81	H	-1.213833	-0.117341	0.282188
N82	N	-1.094268	-0.235021	0.152697
H83	H	-1.012448	-0.270335	0.151448
H84	H	-1.141591	-0.242044	0.248271
N85	N	-0.852687	-0.233490	0.140853
H86	H	-0.795081	-0.241863	0.051531
H87	H	-0.800450	-0.242246	0.234369
N88	N	-1.261838	0.254221	0.000022
H89	H	-1.277884	0.311504	0.000027
H90	H	-1.211697	0.236756	0.091466
N91	N	-1.582006	0.027442	0.643366
H92	H	-1.504468	0.023053	0.709873
H93	H	-1.567791	0.061865	0.556964
H94	H	-1.702084	-0.060856	0.372011
N95	N	-1.260989	-0.150207	0.640624
H96	H	-1.274596	-0.202520	0.603156
H97	H	-1.176566	-0.135808	0.603005
N98	N	-1.742669	0.289145	0.000083
H99	H	-1.816932	0.257475	0.000104
H100	H	-1.746815	0.322275	0.091532
N101	N	-1.581378	0.028120	0.359761
H102	H	-1.496432	0.041552	0.397647
H103	H	-1.581172	0.028551	0.247749
H104	H	-1.344093	-0.035244	0.625600
H105	H	-1.286889	-0.137206	0.372652
H106	H	-1.342889	-0.036329	0.370486
H107	H	-1.619968	-0.208321	0.628959
H108	H	-1.625899	-0.204326	0.372851
N109	N	-1.433930	-0.254148	0.356754
H110	H	-1.370398	-0.232451	0.289335
H111	H	-1.387500	-0.280701	0.443263
H112	H	-1.449084	-0.236934	0.626287
