data_functionalizedCrystal
_audit_creation_method	'MofGen! by Chris Wilmer'
_symmetry_space_group_name_H-M	'P1'
_symmetry_Int_Tables_number	1
_symmetry_cell_setting	triclinic
loop_
_symmetry_equiv_pos_as_xyz
  x,y,z
_cell_length_a	16.176319
_cell_length_b	10.540554
_cell_length_c	10.540510
_cell_angle_alpha	84.522300
_cell_angle_beta	89.994874
_cell_angle_gamma	90.000936
loop_
_atom_site_label
_atom_site_type_symbol
_atom_site_fract_x
_atom_site_fract_y
_atom_site_fract_z
O1	O	0.068701	-1.685851	-0.178994
O2	O	0.568701	-1.185851	0.321006
O3	O	0.068711	-1.316439	-0.195832
O4	O	0.568711	-0.816439	0.304168
O5	O	0.068705	-1.509592	-0.002705
O6	O	0.568705	-1.009592	0.497295
O7	O	0.068706	-1.492697	-0.372122
O8	O	0.568706	-0.992697	0.127878
O9	O	-0.068788	-1.509589	-0.002687
O10	O	0.431212	-1.009589	0.497313
O11	O	-0.068782	-1.316435	-0.195814
O12	O	0.431218	-0.816435	0.304186
O13	O	-0.068792	-1.685847	-0.178976
O14	O	0.431208	-1.185847	0.321024
Cu15	Cu	-0.081342	-1.501141	-0.187393
Cu16	Cu	0.418658	-1.001141	0.312607
Cu17	Cu	0.081260	-1.501145	-0.187415
Cu18	Cu	0.581260	-1.001145	0.312585
O19	O	-0.068787	-1.492694	-0.372104
O20	O	0.431213	-0.992694	0.127896
C21	C	-0.000034	-1.269134	-0.194556
C22	C	0.499966	-0.769134	0.305444
C23	C	-0.000030	-1.128187	-0.190767
C24	C	0.499970	-0.628187	0.309233
N25	N	-0.195707	-1.501147	-0.187378
N26	N	0.304293	-1.001147	0.312622
N27	N	0.195625	-1.501149	-0.187420
N28	N	0.695625	-1.001149	0.312580
C29	C	-0.000034	-1.091532	-0.049749
C30	C	0.499966	-0.591532	0.450251
C31	C	-0.000355	-0.944933	-0.045761
C32	C	0.499645	-0.444933	0.454239
C33	C	-0.078403	-0.918844	-0.255114
C34	C	0.421597	-0.418844	0.244886
C35	C	-0.078460	-1.065608	-0.258124
C36	C	0.421540	-0.565608	0.241876
C37	C	0.077901	-1.065496	-0.260197
C38	C	0.577901	-0.565496	0.239803
C39	C	0.078922	-0.919152	-0.253665
C40	C	0.578922	-0.419152	0.246335
C41	C	0.238887	-1.586840	-0.102075
C42	C	0.738887	-1.086840	0.397925
C43	C	0.325434	-1.586845	-0.102073
C44	C	0.825434	-1.086845	0.397927
C45	C	0.368718	-1.501152	-0.187410
C46	C	0.868718	-1.001152	0.312590
C47	C	0.325450	-1.415457	-0.272764
C48	C	0.825450	-0.915457	0.227236
C49	C	0.238905	-1.415459	-0.272772
C50	C	0.738905	-0.915459	0.227228
C51	C	0.674478	-1.415447	-0.272735
C52	C	1.174478	-0.915447	0.227265
C53	C	0.761030	-1.415449	-0.272718
C54	C	1.261030	-0.915449	0.227282
C55	C	0.761008	-1.586833	-0.102036
C56	C	1.261008	-1.086833	0.397964
C57	C	0.674462	-1.586835	-0.102044
C58	C	1.174462	-1.086835	0.397956
C59	C	0.631202	-1.501145	-0.187402
C60	C	1.131202	-1.001145	0.312598
C61	C	0.537358	-1.501143	-0.187405
C62	C	1.037358	-1.001143	0.312595
C63	C	0.462560	-1.501147	-0.187401
C64	C	0.962560	-1.001147	0.312599
C65	C	-0.000040	-1.508332	0.044608
C66	C	0.499960	-1.008332	0.544608
C67	C	-0.000035	-1.504565	0.185558
C68	C	0.499965	-1.004565	0.685558
C69	C	-0.000046	-0.733154	-0.180235
C70	C	0.499954	-0.233154	0.319765
C71	C	-0.000047	-0.874107	-0.183974
C72	C	0.499953	-0.374107	0.316026
C73	C	-0.000040	-1.493954	-0.419416
C74	C	0.499960	-0.993954	0.080584
C75	C	-0.000040	-1.497721	-0.560366
C76	C	0.499960	-0.997721	-0.060366
C77	C	-0.000353	-1.638748	0.403007
C78	C	0.499647	-1.138748	0.903007
C79	C	-0.000039	-1.642766	0.256411
C80	C	0.499961	-1.142766	0.756411
C81	C	0.078481	-1.433821	0.230310
C82	C	0.578481	-0.933821	0.730310
C83	C	0.078543	-1.430782	0.377071
C84	C	0.578543	-0.930782	0.877071
C85	C	-0.077813	-1.427900	0.376900
C86	C	0.422187	-0.927900	0.876900
C87	C	-0.078846	-1.434455	0.230559
C88	C	0.421154	-0.934455	0.730559
H89	H	0.055803	-0.915603	0.009875
H90	H	0.555803	-0.415603	0.509875
H91	H	0.639223	-1.656610	-0.032550
H92	H	1.139223	-1.156610	0.467450
H93	H	-0.078339	-1.324137	0.399056
H94	H	0.421661	-0.824137	0.899056
Br95	Br	0.093610	-1.161491	0.040500
Br96	Br	0.593610	-0.661491	0.540500
H97	H	-0.056143	-1.134994	0.003500
H98	H	0.443857	-0.634994	0.503500
Br99	Br	-0.175663	-1.520239	0.182870
Br100	Br	0.324337	-1.020239	0.682870
Br101	Br	-0.086747	-1.266280	0.148792
Br102	Br	0.413253	-0.766280	0.648792
H103	H	-0.056856	-0.916485	0.009617
H104	H	0.443144	-0.416485	0.509617
H105	H	0.136891	-0.890557	-0.201895
H106	H	0.636891	-0.390557	0.298105
Br107	Br	-0.176460	-1.132576	-0.178035
Br108	Br	0.323540	-0.632576	0.321965
Br109	Br	-0.084029	-1.103984	-0.430421
Br110	Br	0.415971	-0.603984	0.069579
Br111	Br	0.180154	-1.703135	0.013756
Br112	Br	0.680154	-1.203135	0.513756
Br113	Br	0.180192	-1.299168	-0.388611
Br114	Br	0.680192	-0.799168	0.111389
Br115	Br	-0.082896	-0.839904	-0.424730
Br116	Br	0.417104	-0.339904	0.075270
Br117	Br	0.384189	-1.299165	-0.388591
Br118	Br	0.884189	-0.799165	0.111409
H119	H	-0.136941	-0.887946	-0.206291
H120	H	0.363059	-0.387946	0.293709
Br121	Br	0.176926	-1.136270	-0.186873
Br122	Br	0.676926	-0.636270	0.313127
H123	H	0.083897	-0.870093	-0.354537
H124	H	0.583897	-0.370093	0.145463
H125	H	-0.056321	-1.698118	0.227072
H126	H	0.443679	-1.198118	0.727072
H127	H	0.078659	-1.087669	-0.363951
H128	H	0.578659	-0.587669	0.136049
H129	H	0.360657	-1.656621	-0.032579
H130	H	0.860657	-1.156621	0.467421
Br131	Br	0.819773	-1.299143	-0.388539
Br132	Br	1.319773	-0.799143	0.111461
Br133	Br	0.819722	-1.703131	0.013809
Br134	Br	1.319722	-1.203131	0.513809
Br135	Br	0.615773	-1.299156	-0.388571
Br136	Br	1.115773	-0.799156	0.111429
H137	H	-0.056661	-1.692588	0.444967
H138	H	0.443339	-1.192588	0.944967
H139	H	0.055633	-1.692281	0.446503
H140	H	0.555633	-1.192281	0.946503
H141	H	0.056338	-1.698443	0.227995
H142	H	0.556338	-1.198443	0.727995
Br143	Br	0.176358	-1.511375	0.444091
Br144	Br	0.676358	-1.011375	0.944091
H145	H	-0.137328	-1.471817	0.419088
H146	H	0.362672	-0.971817	0.919088
Br147	Br	0.084491	-1.258505	0.415415
Br148	Br	0.584491	-0.758505	0.915415
Br149	Br	0.083360	-1.264245	0.151333
Br150	Br	0.583360	-0.764245	0.651333
H151	H	0.136909	-1.482953	0.199443
H152	H	0.636909	-0.982953	0.699443
