data_functionalizedCrystal
_audit_creation_method	'MofGen! by Chris Wilmer'
_symmetry_space_group_name_H-M	'P1'
_symmetry_Int_Tables_number	1
_symmetry_cell_setting	triclinic
loop_
_symmetry_equiv_pos_as_xyz
  x,y,z
_cell_length_a	12.594517
_cell_length_b	25.639239
_cell_length_c	25.639243
_cell_angle_alpha	90.006746
_cell_angle_beta	90.006704
_cell_angle_gamma	90.038486
loop_
_atom_site_label
_atom_site_type_symbol
_atom_site_fract_x
_atom_site_fract_y
_atom_site_fract_z
Zn1	Zn	1.626946	-0.208279	0.295624
Zn2	Zn	1.626812	-0.295680	0.208189
Zn3	Zn	1.448995	-0.208260	0.208201
Zn4	Zn	1.448862	-0.295685	0.295591
O5	O	1.537904	-0.251976	0.251901
O6	O	1.775874	-0.219879	0.284034
O7	O	1.603224	-0.284073	0.135025
O8	O	1.472713	-0.135097	0.219817
O9	O	1.775775	-0.284092	0.219796
O10	O	1.603452	-0.135111	0.284046
O11	O	1.472583	-0.219846	0.135034
O12	O	1.300032	-0.219851	0.219785
O13	O	1.472485	-0.284101	0.368761
O14	O	1.299934	-0.284082	0.283990
O15	O	1.603323	-0.219884	0.368785
O16	O	1.603094	-0.368846	0.219764
O17	O	1.472355	-0.368850	0.283978
C18	C	1.261363	-0.251965	0.251886
C19	C	1.143057	-0.251974	0.251892
C20	C	1.537725	-0.387818	0.251877
C21	C	1.537745	-0.445933	0.251885
C22	C	1.073827	-0.216991	0.217037
C23	C	1.002984	-0.264676	0.204172
C24	C	1.003101	-0.204311	0.264766
C25	C	1.073773	-0.299684	0.239002
C26	C	1.073896	-0.239287	0.299618
C27	C	1.003085	-0.287006	0.286771
C28	C	1.606157	-0.806281	0.218522
C29	C	1.606198	-0.860885	0.218529
O30	O	1.664179	-0.889109	0.190136
N31	N	1.538091	-0.888215	0.251936
C32	C	1.469945	-0.860938	0.285342
O33	O	1.412018	-0.889198	0.313758
C34	C	1.469910	-0.806334	0.285337
C35	C	1.538014	-0.779007	0.251924
C36	C	1.674257	-0.778954	0.185112
C37	C	1.674214	-0.724353	0.185104
C38	C	1.606071	-0.697080	0.218507
C39	C	1.537971	-0.724407	0.251917
C40	C	1.401770	-0.779058	0.318746
C41	C	1.401742	-0.724451	0.318738
C42	C	1.469846	-0.697124	0.285325
C43	C	1.469786	-0.642533	0.285312
N44	N	1.537893	-0.615203	0.251904
C45	C	1.606036	-0.642477	0.218502
C46	C	1.470025	-0.975608	0.285350
C47	C	1.470054	-1.030210	0.285353
C48	C	1.606309	-1.030154	0.218540
C49	C	1.606274	-0.975551	0.218535
C50	C	1.538133	-0.948278	0.251943
C51	C	1.605940	-0.527811	0.218488
C52	C	1.605888	-0.473206	0.218482
C53	C	1.469637	-0.473267	0.285297
C54	C	1.469685	-0.527868	0.285301
C55	C	1.537845	-0.555138	0.251895
O56	O	1.411838	-0.614274	0.313691
O57	O	1.663963	-0.614210	0.190095
C58	C	1.815524	-0.251987	0.251917
C59	C	1.933830	-0.251991	0.251924
C60	C	1.537904	-0.251995	0.388274
C61	C	1.537904	-0.252004	0.446388
C62	C	1.538112	-0.115603	0.251937
C63	C	1.538201	-0.057489	0.251952
C64	C	1.606028	-0.218542	0.806770
C65	C	1.606027	-0.218539	0.861374
O66	O	1.663932	-0.190092	0.889626
N67	N	1.537911	-0.251974	0.888671
C68	C	1.469783	-0.285410	0.861361
O69	O	1.411845	-0.313848	0.889593
C70	C	1.469779	-0.285410	0.806757
C71	C	1.537908	-0.251977	0.779463
C72	C	1.674150	-0.185111	0.779475
C73	C	1.674151	-0.185115	0.724875
C74	C	1.606031	-0.218550	0.697569
C75	C	1.537909	-0.251980	0.724863
C76	C	1.401647	-0.318843	0.779448
C77	C	1.401648	-0.318840	0.724841
C78	C	1.469776	-0.285407	0.697547
C79	C	1.469790	-0.285419	0.642956
N80	N	1.537907	-0.251984	0.615659
C81	C	1.606027	-0.218550	0.642965
C82	C	1.469796	-0.285407	0.976031
C83	C	1.469805	-0.285410	1.030634
C84	C	1.606047	-0.218538	1.030643
C85	C	1.606043	-0.218538	0.976040
C86	C	1.537912	-0.251972	0.948734
C87	C	1.606026	-0.218561	0.528300
C88	C	1.606024	-0.218569	0.473695
C89	C	1.469778	-0.285438	0.473690
C90	C	1.469783	-0.285432	0.528291
C91	C	1.537910	-0.251989	0.555594
O92	O	1.411912	-0.313850	0.614669
O93	O	1.663946	-0.190112	0.614726
C94	C	1.537902	-0.251971	1.116059
C95	C	1.537921	-0.251973	1.057945
H96	H	1.104887	-0.187436	0.187525
H97	H	0.971837	-0.275418	0.163825
N98	N	1.328231	-0.695038	0.354767
H99	H	1.338532	-0.656299	0.349695
H100	H	1.344743	-0.704564	0.392116
H101	H	1.104687	-0.340011	0.228082
H102	H	1.661798	-1.052370	0.191344
H103	H	1.661498	-0.191326	0.550524
N104	N	0.962192	-0.326243	0.325834
H105	H	0.988039	-0.362221	0.316055
H106	H	0.882008	-0.325777	0.325833
N107	N	1.115187	-0.225045	0.353048
H108	H	1.089526	-0.189009	0.362730
H109	H	1.195367	-0.225512	0.352682
H110	H	0.972001	-0.164001	0.275623
N111	N	1.396143	-0.443840	0.321318
H112	H	1.439352	-0.421158	0.345560
H113	H	1.353013	-0.469465	0.342453
H114	H	1.414586	-1.052455	0.312556
H115	H	1.414527	-0.953405	0.312553
N116	N	1.396327	-0.321468	1.060073
H117	H	1.439537	-0.345700	1.082730
H118	H	1.353187	-0.342613	1.034453
H119	H	1.346155	-0.346061	0.702612
H120	H	1.414232	-0.550118	0.312510
N121	N	1.679349	-0.443732	0.182444
H122	H	1.722526	-0.469299	0.161288
H123	H	1.728553	-0.421047	0.203748
N124	N	1.747761	-0.808365	0.149083
H125	H	1.790890	-0.782760	0.127921
H126	H	1.704491	-0.831044	0.124866
N127	N	1.679454	-0.557220	0.182459
H128	H	1.722582	-0.531617	0.161295
H129	H	1.636187	-0.579903	0.158245
H130	H	1.661731	-0.953305	0.191328
H131	H	1.729674	-0.702107	0.157898
H132	H	1.346307	-0.801298	0.345952
N133	N	1.679512	-0.182510	0.444256
H134	H	1.722662	-0.161328	0.469844
H135	H	1.636227	-0.158312	0.421599
H136	H	1.661512	-0.191313	1.052886
N137	N	1.747629	-0.149054	0.695440
H138	H	1.790775	-0.127874	0.721031
H139	H	1.704341	-0.124854	0.672786
N140	N	1.747617	-0.149041	0.808922
H141	H	1.790760	-0.127865	0.783338
H142	H	1.796852	-0.170320	0.831578
N143	N	1.396300	-0.321466	0.946582
H144	H	1.353151	-0.342643	0.972164
H145	H	1.439572	-0.345668	0.923923
N146	N	1.396311	-0.321500	0.444233
H147	H	1.406652	-0.316424	0.405501
H148	H	1.320307	-0.313356	0.453772
N149	N	1.679523	-0.182479	0.946603
H150	H	1.722676	-0.161301	0.972192
H151	H	1.636237	-0.158278	0.923950
N152	N	1.328164	-0.354903	0.808878
H153	H	1.285011	-0.376077	0.783286
H154	H	1.278938	-0.333616	0.831531
N155	N	1.396318	-0.321497	0.557733
H156	H	1.353169	-0.342680	0.532147
H157	H	1.347089	-0.300211	0.580384
