data_functionalizedCrystal
_audit_creation_method	'MofGen! by Chris Wilmer'
_symmetry_space_group_name_H-M	'P1'
_symmetry_Int_Tables_number	1
_symmetry_cell_setting	triclinic
loop_
_symmetry_equiv_pos_as_xyz
  x,y,z
_cell_length_a	9.065215
_cell_length_b	19.188924
_cell_length_c	8.140239
_cell_angle_alpha	89.994423
_cell_angle_beta	89.997810
_cell_angle_gamma	84.078331
loop_
_atom_site_label
_atom_site_type_symbol
_atom_site_fract_x
_atom_site_fract_y
_atom_site_fract_z
O1	O	1.956844	0.102360	-0.136603
O2	O	1.527267	0.110759	-0.136611
O3	O	1.754457	0.005000	-0.136588
O4	O	1.729653	0.208119	-0.136627
O5	O	1.754445	0.004999	0.136639
O6	O	1.527254	0.110758	0.136616
O7	O	1.956831	0.102359	0.136624
Zn8	Zn	1.742041	0.106558	0.180000
Zn9	Zn	1.742057	0.106560	-0.179988
O10	O	1.729641	0.208118	0.136600
C11	C	1.472302	0.109952	0.000001
C12	C	1.308542	0.107540	-0.000001
C13	C	1.753649	-0.021018	0.000027
C14	C	1.751243	-0.098542	0.000032
C15	C	1.750127	-0.134948	-0.148905
C16	C	1.747845	-0.207789	-0.148917
C17	C	1.746710	-0.244221	0.000015
C18	C	1.747818	-0.207805	0.148971
C19	C	1.750084	-0.134965	0.148979
N20	N	1.827096	-0.363261	0.110863
N21	N	1.824945	-0.432456	0.110845
C22	C	1.739876	-0.463683	-0.000001
N23	N	1.657057	-0.423103	-0.110854
N24	N	1.659214	-0.353902	-0.110840
C25	C	1.744251	-0.323204	0.000023
C26	C	1.736284	-0.579072	-0.148961
C27	C	1.733993	-0.651913	-0.148968
C28	C	1.733980	-0.651929	0.148925
C29	C	1.736256	-0.579088	0.148927
C30	C	1.737415	-0.542665	-0.000020
C31	C	2.011796	0.103166	0.000007
C32	C	2.175556	0.105578	-0.000001
C33	C	1.730449	0.234136	-0.000018
C34	C	1.732855	0.311659	-0.000034
N35	N	1.742040	0.106557	0.425683
N36	N	1.742069	0.106556	-0.425671
H37	H	1.746927	-0.237437	-0.270203
H38	H	1.750987	-0.105323	0.270265
O39	O	1.751343	-0.099505	-0.293495
C40	C	1.880285	-0.064398	-0.302494
H41	H	1.969028	-0.091323	-0.218164
H42	H	1.923023	-0.065869	-0.434289
H43	H	1.853070	-0.007615	-0.262308
O44	O	1.737560	-0.543653	0.293500
C45	C	1.866627	-0.508637	0.302432
H46	H	1.909557	-0.500088	0.173116
H47	H	1.839493	-0.455821	0.365469
H48	H	1.955196	-0.541687	0.375932
O49	O	1.746513	-0.243257	0.293541
C50	C	1.617448	-0.278275	0.302458
H51	H	1.574536	-0.286814	0.173138
H52	H	1.644578	-0.331096	0.365495
H53	H	1.528868	-0.245234	0.375952
H54	H	1.737219	-0.549414	-0.270243
O55	O	1.732992	-0.687178	-0.293800
C56	C	1.734475	-0.639405	-0.425252
H57	H	1.782770	-0.590079	-0.381569
H58	H	1.805455	-0.664426	-0.529402
H59	H	1.616403	-0.625078	-0.471083
H60	H	1.733044	-0.681591	0.270189
