data_functionalizedCrystal
_audit_creation_method	'MofGen! by Chris Wilmer'
_symmetry_space_group_name_H-M	'P1'
_symmetry_Int_Tables_number	1
_symmetry_cell_setting	triclinic
loop_
_symmetry_equiv_pos_as_xyz
  x,y,z
_cell_length_a	12.759401
_cell_length_b	12.759400
_cell_length_c	12.759393
_cell_angle_alpha	89.968436
_cell_angle_beta	90.018496
_cell_angle_gamma	89.985155
loop_
_atom_site_label
_atom_site_type_symbol
_atom_site_fract_x
_atom_site_fract_y
_atom_site_fract_z
Zn1	Zn	1.606255	0.418200	0.593981
Zn2	Zn	1.606150	0.593919	0.418301
Zn3	Zn	1.430557	0.418255	0.418321
Zn4	Zn	1.430546	0.593838	0.593943
O5	O	1.518377	0.506053	0.506137
O6	O	1.753262	0.441520	0.570685
O7	O	1.582818	0.570673	0.271283
O8	O	1.453913	0.271226	0.441647
O9	O	1.753185	0.570620	0.441614
O10	O	1.582998	0.271186	0.570704
O11	O	1.453811	0.441614	0.271297
O12	O	1.283535	0.441535	0.441609
O13	O	1.453894	0.570482	0.740969
O14	O	1.283527	0.570536	0.570638
O15	O	1.582987	0.441442	0.740997
O16	O	1.582807	0.740929	0.441577
O17	O	1.453791	0.740870	0.570620
C18	C	1.518315	0.779020	0.506115
C19	C	1.518384	0.895797	0.506140
C20	C	1.245410	0.506033	0.506122
C21	C	1.128633	0.506050	0.506141
C22	C	1.518451	0.505947	0.780170
C23	C	1.518482	0.505902	0.896947
C24	C	1.073794	0.573328	0.573215
C25	C	0.964070	0.573342	0.573227
C26	C	0.964034	0.438796	0.439081
C27	C	1.073756	0.438778	0.439075
C28	C	1.128672	0.640600	0.640281
C29	C	1.073833	0.707885	0.707360
C30	C	0.964109	0.707898	0.707371
C31	C	0.909224	0.640627	0.640304
C32	C	1.792410	0.506073	0.506152
C33	C	1.909187	0.506082	0.506158
C34	C	1.518468	0.232019	0.506182
C35	C	1.518507	0.115243	0.506201
C36	C	1.585637	0.950655	0.439022
C37	C	1.585702	1.060379	0.439054
C38	C	1.451252	1.060377	0.573327
C39	C	1.451193	0.950655	0.573299
C40	C	1.652828	0.895797	0.371864
C41	C	1.720086	0.950655	0.304739
C42	C	1.720150	1.060379	0.304771
C43	C	1.652957	1.115245	0.371929
C44	C	1.518364	0.506083	0.233169
C45	C	1.518537	0.505832	0.116393
C46	C	1.585710	0.438704	0.951825
C47	C	1.585735	0.438666	1.061549
C48	C	1.451301	0.573033	1.061507
C49	C	1.451272	0.573064	0.951785
C50	C	1.652920	0.371541	0.896987
C51	C	1.720155	0.304339	0.951866
C52	C	1.720180	0.304301	1.061590
C53	C	1.652970	0.371465	1.116436
H54	H	1.218015	0.640599	0.640277
H55	H	1.396513	0.627767	0.907102
H56	H	1.396582	0.627714	1.106171
C57	C	1.197288	0.722634	0.848639
C58	C	1.134161	0.781821	0.781080
H59	H	1.234533	0.768283	0.894148
H60	H	1.154506	0.676923	0.888908
H61	H	1.245648	0.682570	0.808677
H62	H	1.085795	0.821880	0.821043
H63	H	1.176946	0.827551	0.740808
C64	C	0.975172	0.840892	0.839962
C65	C	0.903828	0.781852	0.781103
H66	H	0.937956	0.886556	0.885474
H67	H	1.017986	0.795161	0.880226
H68	H	1.017946	0.881013	0.794099
H69	H	0.861058	0.741725	0.826966
H70	H	0.860996	0.827589	0.740836
H71	H	1.774798	0.905977	0.250068
H72	H	1.653024	1.204589	0.371958
H73	H	1.118407	0.383987	0.384466
C74	C	1.391637	1.228575	0.632978
C75	C	1.377388	1.120684	0.647133
H76	H	1.346029	1.265803	0.678538
H77	H	1.462220	1.246483	0.648423
H78	H	1.376309	1.246611	0.562374
H79	H	1.392723	1.102646	0.717735
H80	H	1.306789	1.102769	0.631695
H81	H	0.819879	0.640634	0.640328
C82	C	0.795818	0.379103	0.379511
C83	C	0.903706	0.364871	0.365349
H84	H	0.758578	0.333471	0.333982
H85	H	0.777866	0.363803	0.450118
H86	H	0.777842	0.449685	0.364021
H87	H	0.921684	0.294291	0.380847
H88	H	0.921665	0.380164	0.294726
C89	C	1.725940	0.738618	0.298714
C90	C	1.652763	0.775187	0.371830
H91	H	1.725900	0.664159	0.298700
H92	H	1.707812	0.763507	0.230919
H93	H	1.793741	0.763374	0.316950
H94	H	1.584960	0.750437	0.353590
H95	H	1.670885	0.750287	0.439640
H96	H	1.774922	1.105041	0.250123
C97	C	1.318305	0.961666	0.706029
C98	C	1.377274	0.890347	0.647081
H99	H	1.272671	0.924431	0.751580
H100	H	1.364083	1.004396	0.746256
H101	H	1.278155	1.004527	0.660224
H102	H	1.417430	0.847490	0.692886
H103	H	1.331490	0.847599	0.606851
H104	H	1.652910	0.371567	0.807644
H105	H	1.774917	0.249574	1.106269
C106	C	1.779808	0.244732	0.783687
C107	C	1.794023	0.230509	0.891584
H108	H	1.825417	0.199153	0.746476
H109	H	1.709227	0.229355	0.765709
H110	H	1.795160	0.315332	0.765701
H111	H	1.778664	0.159910	0.909571
H112	H	1.864621	0.245878	0.909569
H113	H	1.652984	0.371417	1.205780
