data_functionalizedCrystal
_audit_creation_method	'MofGen! by Chris Wilmer'
_symmetry_space_group_name_H-M	'P1'
_symmetry_Int_Tables_number	1
_symmetry_cell_setting	triclinic
loop_
_symmetry_equiv_pos_as_xyz
  x,y,z
_cell_length_a	15.995350
_cell_length_b	9.065218
_cell_length_c	7.540329
_cell_angle_alpha	89.999384
_cell_angle_beta	89.998411
_cell_angle_gamma	95.745870
loop_
_atom_site_label
_atom_site_type_symbol
_atom_site_fract_x
_atom_site_fract_y
_atom_site_fract_z
O1	O	-1.112425	0.190157	-0.147326
O2	O	-0.868828	0.213640	-0.147362
O3	O	-0.995661	-0.012863	-0.147338
O4	O	-0.985591	0.416659	-0.147350
O5	O	-0.995656	-0.012859	0.147627
O6	O	-0.868822	0.213643	0.147603
O7	O	-1.112419	0.190160	0.147639
Cu8	Cu	-0.990620	0.201902	0.174554
Cu9	Cu	-0.990627	0.201898	-0.174277
O10	O	-0.985585	0.416663	0.147615
C11	C	-0.837623	0.212670	0.000116
C12	C	-0.744650	0.209760	0.000102
C13	C	-1.143624	0.191129	0.000157
C14	C	-1.236597	0.194040	0.000159
C15	C	-0.994691	-0.067825	0.000142
C16	C	-0.991797	-0.231600	0.000134
C17	C	-0.406824	0.199308	0.000139
C18	C	-0.453034	0.037997	0.000802
C19	C	-0.549747	0.040908	0.000125
C20	C	-0.574423	0.204492	0.000122
C21	C	-0.533943	0.284054	-0.168313
C22	C	-0.437276	0.280002	-0.168441
C23	C	-0.436956	0.283339	0.166989
C24	C	-0.533901	0.283300	0.169203
C25	C	-0.669143	0.207431	0.000106
C26	C	-0.312103	0.196374	0.000143
C27	C	-0.986556	0.471625	0.000131
C28	C	-0.989450	0.635400	0.000127
N29	N	-0.990621	0.201904	0.419902
N30	N	-0.990628	0.201901	0.580375
H31	H	-0.577699	-0.021632	0.120866
Cl32	Cl	-0.592001	-0.055880	-0.186931
H33	H	-0.418531	0.221979	-0.294348
H34	H	-0.434021	-0.026482	0.121593
Cl35	Cl	-0.422032	-0.061111	-0.184645
Cl36	Cl	-0.388870	0.462845	-0.180250
H37	H	-0.548979	0.404235	-0.174578
Cl38	Cl	-0.577102	0.198734	-0.361850
Cl39	Cl	-0.404636	0.201914	0.364103
Cl40	Cl	-0.575287	0.193482	0.361588
H41	H	-0.550171	0.402591	0.179375
Cl42	Cl	-0.389313	0.466961	0.168748
