data_functionalizedCrystal
_audit_creation_method	'MofGen! by Chris Wilmer'
_symmetry_space_group_name_H-M	'P1'
_symmetry_Int_Tables_number	1
_symmetry_cell_setting	triclinic
loop_
_symmetry_equiv_pos_as_xyz
  x,y,z
_cell_length_a	19.188930
_cell_length_b	15.538191
_cell_length_c	14.185230
_cell_angle_alpha	71.732748
_cell_angle_beta	75.222167
_cell_angle_gamma	65.208439
loop_
_atom_site_label
_atom_site_type_symbol
_atom_site_fract_x
_atom_site_fract_y
_atom_site_fract_z
O1	O	0.887269	0.098588	0.083721
O2	O	1.387269	0.598588	0.583721
O3	O	0.679986	0.114452	0.083650
O4	O	1.179986	0.614452	0.583650
O5	O	0.823977	-0.030780	0.083704
O6	O	1.323977	0.469220	0.583704
O7	O	0.743279	0.243820	0.083667
O8	O	1.243279	0.743820	0.583667
O9	O	0.842513	0.007358	-0.083134
O10	O	1.342513	0.507358	0.416866
O11	O	0.698522	0.152591	-0.083188
O12	O	1.198522	0.652591	0.416812
O13	O	0.905806	0.136726	-0.083116
O14	O	1.405806	0.636726	0.416884
Cu15	Cu	0.803857	0.148141	-0.098386
Cu16	Cu	1.303857	0.648141	0.401614
Cu17	Cu	0.781935	0.103038	0.098919
Cu18	Cu	1.281935	0.603038	0.598919
O19	O	0.761815	0.281958	-0.083171
O20	O	1.261815	0.781958	0.416829
C21	C	0.663373	0.133010	0.000222
C22	C	1.163373	0.633010	0.500222
C23	C	0.586258	0.131476	0.000196
C24	C	1.086258	0.631476	0.500196
C25	C	0.841688	-0.046843	0.000292
C26	C	1.341688	0.453157	0.500292
C27	C	0.866836	-0.151524	0.000310
C28	C	1.366836	0.348476	0.500310
C29	C	0.616984	-0.438261	0.000203
C30	C	1.116984	0.061739	0.500203
C31	C	0.640633	-0.536625	0.000209
C32	C	1.140633	-0.036625	0.500209
C33	C	0.773656	-0.559627	0.000255
C34	C	1.273656	-0.059627	0.500255
C35	C	0.750017	-0.461263	0.000254
C36	C	1.250017	0.038737	0.500254
C37	C	0.671680	-0.400587	0.000227
C38	C	1.171680	0.099413	0.500227
C39	C	0.804714	-0.423590	0.000278
C40	C	1.304714	0.076410	0.500278
C41	C	0.781077	-0.325234	0.000272
C42	C	1.281077	0.174766	0.500272
C43	C	0.702743	-0.264551	0.000241
C44	C	1.202743	0.235449	0.500241
C45	C	0.648043	-0.302231	0.000220
C46	C	1.148043	0.197769	0.500220
C47	C	0.883051	-0.484266	0.000298
C48	C	1.383051	0.015734	0.500298
C49	C	0.937748	-0.446593	0.000322
C50	C	1.437748	0.053407	0.500322
C51	C	0.914110	-0.348237	0.000323
C52	C	1.414110	0.151763	0.500323
C53	C	0.835777	-0.287554	0.000293
C54	C	1.335777	0.212446	0.500293
C55	C	0.968811	-0.310556	0.000344
C56	C	1.468811	0.189444	0.500344
C57	C	0.945174	-0.212200	0.000338
C58	C	1.445174	0.287800	0.500338
C59	C	0.812140	-0.189198	0.000286
C60	C	1.312140	0.310802	0.500286
C61	C	0.519932	0.216685	0.000200
C62	C	1.019932	0.716685	0.500200
C63	C	0.447470	0.215235	0.000212
C64	C	0.947470	0.715235	0.500212
C65	C	0.441337	0.128566	0.000239
C66	C	0.941337	0.628566	0.500239
C67	C	0.507677	0.043347	0.000229
C68	C	1.007677	0.543347	0.500229
C69	C	0.580137	0.044802	0.000208
C70	C	1.080137	0.544802	0.500208
N71	N	0.343681	0.049332	0.057070
N72	N	0.843681	0.549332	0.557070
N73	N	0.274844	0.047956	0.057093
N74	N	0.774844	0.547956	0.557093
C75	C	0.223020	0.124179	0.000301
C76	C	0.723020	0.624179	0.500301
N77	N	0.242627	0.201842	-0.056502
N78	N	0.742627	0.701842	0.443498
N79	N	0.311469	0.203220	-0.056520
N80	N	0.811469	0.703220	0.443480
C81	C	0.362770	0.126979	0.000261
C82	C	0.862770	0.626979	0.500261
C83	C	0.078121	0.207822	0.000316
C84	C	0.578121	0.707822	0.500316
C85	C	0.005660	0.206370	0.000321
C86	C	0.505660	0.706370	0.500321
C87	C	0.065868	0.034477	0.000348
C88	C	0.565868	0.534477	0.500348
C89	C	0.138328	0.035934	0.000333
C90	C	0.638328	0.535934	0.500333
C91	C	0.144449	0.122608	0.000322
C92	C	0.644449	0.622608	0.500322
C93	C	0.922419	0.118168	0.000313
C94	C	1.422419	0.618168	0.500313
C95	C	0.999533	0.119701	0.000346
C96	C	1.499533	0.619701	0.500346
C97	C	0.744104	0.298020	0.000244
C98	C	1.244104	0.798020	0.500244
C99	C	0.718955	0.402700	0.000232
C100	C	1.218955	0.902700	0.500232
N101	N	0.819281	0.179863	-0.237159
N102	N	1.319281	0.679863	0.262841
N103	N	0.766518	0.071308	0.237693
N104	N	1.266518	0.571308	0.737693
C105	C	0.721268	-0.021897	0.395208
C106	C	1.221268	0.478103	0.895208
C107	C	0.732933	0.002137	0.290184
C108	C	1.232933	0.502137	0.790184
C109	C	0.788455	0.116468	0.290213
C110	C	1.288455	0.616468	0.790213
C111	C	0.776797	0.092440	0.395239
C112	C	1.276797	0.592440	0.895239
C113	C	0.743203	0.023257	0.447728
C114	C	1.243203	0.523257	0.947728
C115	C	0.798732	0.137594	0.447759
C116	C	1.298732	0.637594	0.947759
C117	C	0.787072	0.113572	0.552776
C118	C	1.287072	0.613572	1.052776
C119	C	0.753476	0.044394	0.605272
C120	C	1.253476	0.544394	1.105272
C121	C	0.731542	-0.000765	0.552745
C122	C	1.231542	0.499235	1.052745
C123	C	0.832322	0.206781	0.395269
C124	C	1.332322	0.706781	0.895269
C125	C	0.854257	0.251936	0.447789
C126	C	1.354257	0.751936	0.947789
C127	C	0.842602	0.227909	0.552807
C128	C	1.342602	0.727909	1.052807
C129	C	0.809006	0.158731	0.605304
C130	C	1.309006	0.658731	1.105304
C131	C	0.864536	0.273068	0.605335
C132	C	1.364536	0.773068	1.105335
C133	C	0.852875	0.249045	0.710352
C134	C	1.352875	0.749045	1.210352
C135	C	0.797346	0.134708	0.710320
C136	C	1.297346	0.634708	1.210320
H137	H	0.683500	-0.184462	0.000231
H138	H	1.183500	0.315538	0.500231
H139	H	0.524908	0.287261	0.000193
H140	H	1.024908	0.787261	0.500193
H141	H	0.902293	-0.564355	0.000312
H142	H	1.402293	-0.064355	0.500312
H143	H	0.891882	0.329404	0.562583
H144	H	1.391882	0.829404	1.062583
H145	H	1.001531	-0.496007	0.000340
H146	H	1.501531	0.003993	0.500340
H147	H	0.715066	-0.034636	0.247426
H148	H	1.215066	0.465364	0.747426
H149	H	1.032594	-0.359971	0.000356
H150	H	1.532594	0.140029	0.500356
H151	H	0.502678	-0.027222	0.000265
H152	H	1.002678	0.472778	0.500265
H153	H	0.841814	0.226340	0.309757
H154	H	1.341814	0.726340	0.809757
H155	H	0.704191	-0.057105	0.595484
H156	H	1.204191	0.442895	1.095484
H157	H	0.596088	-0.567290	0.000175
H158	H	1.096088	-0.067290	0.500175
C159	C	0.684316	-0.098000	0.452952
C160	C	1.184316	0.402000	0.952952
H161	H	0.672919	-0.121453	0.406634
H162	H	1.172919	0.378547	0.906634
H163	H	0.719439	-0.150801	0.493929
H164	H	1.219439	0.349199	0.993929
H165	H	0.637783	-0.068682	0.493908
H166	H	1.137783	0.431318	0.993908
C167	C	0.760412	0.058589	0.768069
C168	C	1.260412	0.558589	1.268069
H169	H	0.756619	0.050743	0.838135
H170	H	1.256619	0.550743	1.338135
H171	H	0.710090	0.080070	0.750856
H172	H	1.210090	0.580070	1.250856
H173	H	0.791759	-0.002020	0.750855
H174	H	1.291759	0.497980	1.250855
H175	H	0.192334	-0.033454	0.000335
H176	H	0.692334	0.466546	0.500335
C177	C	0.877013	0.298703	0.768128
C178	C	1.377013	0.798703	1.268128
H179	H	0.898700	0.343336	0.721827
H180	H	1.398700	0.843336	1.221827
H181	H	0.832797	0.332766	0.809093
H182	H	1.332797	0.832766	1.309093
H183	H	0.914448	0.250638	0.809098
H184	H	1.414448	0.750638	1.309098
H185	H	0.584252	-0.252826	0.000206
H186	H	1.084252	0.247174	0.500206
H187	H	0.634144	-0.024588	0.000205
H188	H	1.134144	0.475412	0.500205
C189	C	0.530812	-0.371513	0.000182
C190	C	1.030812	0.128487	0.500182
H191	H	0.501619	-0.408034	0.000167
H192	H	1.001619	0.091966	0.500167
H193	H	0.512368	-0.345968	0.058358
H194	H	1.012368	0.154032	0.558358
H195	H	0.525291	-0.319364	-0.058009
H196	H	1.025291	0.180636	0.441991
H197	H	0.743978	0.024841	0.690784
H198	H	1.243978	0.524841	1.190784
H199	H	0.083106	0.278400	0.000292
H200	H	0.583106	0.778400	0.500292
H201	H	0.837439	-0.609041	0.000273
H202	H	1.337439	-0.109041	0.500273
H203	H	0.815806	0.172799	0.247463
H204	H	1.315806	0.672799	0.747463
C205	C	1.005337	-0.170756	0.000365
C206	C	1.505337	0.329244	0.500365
H207	H	1.055375	-0.220981	0.000392
H208	H	1.555375	0.279019	0.500392
H209	H	1.005344	-0.119563	-0.057816
H210	H	1.505344	0.380437	0.442184
H211	H	0.992414	-0.146169	0.058551
H212	H	1.492414	0.353831	0.558551
C213	C	0.374500	0.308965	0.000232
C214	C	0.874500	0.808965	0.500232
H215	H	0.388523	0.360790	0.000230
H216	H	0.888523	0.860790	0.500230
H217	H	0.351419	0.325279	-0.057935
H218	H	0.851419	0.825279	0.442065
H219	H	0.338545	0.298651	0.058432
H220	H	0.838545	0.798651	0.558432
H221	H	0.881608	0.308267	0.405038
H222	H	1.381608	0.808267	0.905038
C223	C	-0.067303	0.300102	0.000326
C224	C	0.432697	0.800102	0.500326
H225	H	-0.111335	0.286827	0.000329
H226	H	0.388665	0.786827	0.500329
H227	H	-0.074244	0.322347	0.058502
H228	H	0.425756	0.822347	0.558502
H229	H	-0.061349	0.348958	-0.057866
H230	H	0.438651	0.848958	0.442134
C231	C	0.725970	-0.122446	0.000263
C232	C	1.225970	0.377554	0.500263
H233	H	0.719729	-0.058475	0.000269
H234	H	1.219729	0.441525	0.500269
H235	H	0.708971	-0.120534	-0.057922
H236	H	1.208971	0.379466	0.442078
H237	H	0.696051	-0.147141	0.058445
H238	H	1.196051	0.352859	0.558445
C239	C	0.059129	-0.060858	0.000384
C240	C	0.559129	0.439142	0.500384
H241	H	0.006474	-0.049524	0.000404
H242	H	0.506474	0.450476	0.500404
H243	H	0.089820	-0.082639	-0.057791
H244	H	0.589820	0.417361	0.442209
H245	H	0.076924	-0.109227	0.058577
H246	H	0.576924	0.390773	0.558577
