data_functionalizedCrystal
_audit_creation_method	'MofGen! by Chris Wilmer'
_symmetry_space_group_name_H-M	'P1'
_symmetry_Int_Tables_number	1
_symmetry_cell_setting	triclinic
loop_
_symmetry_equiv_pos_as_xyz
  x,y,z
_cell_length_a	16.959455
_cell_length_b	19.121063
_cell_length_c	16.959447
_cell_angle_alpha	92.408052
_cell_angle_beta	89.982031
_cell_angle_gamma	92.465894
loop_
_atom_site_label
_atom_site_type_symbol
_atom_site_fract_x
_atom_site_fract_y
_atom_site_fract_z
Zn1	Zn	1.194944	-0.279665	-0.460312
Zn2	Zn	1.694944	0.220335	0.039688
Zn3	Zn	1.189201	-0.397123	-0.333763
Zn4	Zn	1.689201	0.102877	0.166237
Zn5	Zn	1.062763	-0.279685	-0.328151
Zn6	Zn	1.562763	0.220315	0.171849
Zn7	Zn	1.057083	-0.397074	-0.465899
Zn8	Zn	1.557083	0.102926	0.034101
O9	O	1.125998	-0.338387	-0.397031
O10	O	1.625998	0.161613	0.102969
O11	O	1.304792	-0.295259	-0.443536
O12	O	1.804792	0.204741	0.056464
O13	O	1.172403	-0.381574	-0.222409
O14	O	1.672403	0.118426	0.277591
O15	O	1.085077	-0.181398	-0.340995
O16	O	1.585077	0.318602	0.159005
O17	O	1.300573	-0.381555	-0.350561
O18	O	1.800573	0.118445	0.149439
O19	O	1.182190	-0.181384	-0.438094
O20	O	1.682190	0.318616	0.061906
O21	O	1.079509	-0.295292	-0.218286
O22	O	1.579509	0.204708	0.281714
O23	O	0.951399	-0.295244	-0.346413
O24	O	1.451399	0.204756	0.153587
O25	O	1.075396	-0.381470	-0.575768
O26	O	1.575396	0.118530	-0.075768
O27	O	0.947226	-0.381489	-0.447616
O28	O	1.447226	0.118511	0.052384
O29	O	1.176682	-0.295211	-0.571663
O30	O	1.676682	0.204789	-0.071663
O31	O	1.166895	-0.495401	-0.355978
O32	O	1.666895	0.004599	0.144022
O33	O	1.069828	-0.495364	-0.453058
O34	O	1.569828	0.004636	0.046942
C35	C	0.920632	-0.338364	-0.397012
C36	C	1.420632	0.161636	0.102988
C37	C	0.832776	-0.338371	-0.397023
C38	C	1.332776	0.161629	0.102977
C39	C	1.117143	-0.520867	-0.405751
C40	C	1.617143	-0.020867	0.094249
C41	C	1.113428	-0.598933	-0.409507
C42	C	1.613428	-0.098933	0.090493
C43	C	0.463450	-0.293442	-0.344438
C44	C	0.963450	0.206558	0.155562
C45	C	0.459146	-0.383389	-0.449672
C46	C	0.959146	0.116611	0.050328
C47	C	0.541692	-0.383379	-0.449667
C48	C	1.041692	0.116621	0.050333
C49	C	0.585121	-0.338401	-0.397046
C50	C	1.085121	0.161599	0.102954
C51	C	0.546004	-0.293432	-0.344430
C52	C	1.046004	0.206568	0.155570
C53	C	0.580816	-0.428352	-0.502276
C54	C	1.080816	0.071648	-0.002276
C55	C	0.663367	-0.428344	-0.502272
C56	C	1.163367	0.071656	-0.002272
C57	C	0.706798	-0.383361	-0.449654
C58	C	1.206798	0.116639	0.050346
C59	C	0.667675	-0.338391	-0.397037
C60	C	1.167675	0.161609	0.102963
C61	C	0.711104	-0.293412	-0.344416
C62	C	1.211104	0.206588	0.155584
C63	C	0.671983	-0.248437	-0.291802
C64	C	1.171983	0.251563	0.208198
C65	C	0.589434	-0.248450	-0.291812
C66	C	1.089434	0.251550	0.208188
C67	C	0.789347	-0.383349	-0.449644
C68	C	1.289347	0.116651	0.050356
C69	C	0.793658	-0.293402	-0.344408
C70	C	1.293658	0.206598	0.155592
C71	C	1.162259	-0.635604	-0.360770
C72	C	1.662259	-0.135604	0.139230
C73	C	1.158769	-0.708955	-0.364307
C74	C	1.658769	-0.208955	0.135693
C75	C	1.106444	-0.745633	-0.416579
C76	C	1.606444	-0.245633	0.083421
C77	C	1.057610	-0.708957	-0.465322
C78	C	1.557610	-0.208957	0.034678
C79	C	1.061105	-0.635607	-0.461788
C80	C	1.561105	-0.135607	0.038212
C81	C	1.093366	-0.967102	-0.429781
C82	C	1.593366	-0.467102	0.070219
C83	C	1.089874	-1.040457	-0.433310
C84	C	1.589874	-0.540457	0.066690
C85	C	1.191034	-1.040450	-0.332296
C86	C	1.691034	-0.540450	0.167704
C87	C	1.194521	-0.967099	-0.328763
C88	C	1.694521	-0.467099	0.171237
C89	C	1.145690	-0.930429	-0.377508
C90	C	1.645690	-0.430429	0.122492
C91	C	1.102873	-0.820610	-0.420195
C92	C	1.602873	-0.320610	0.079805
C93	C	1.149265	-0.855454	-0.373896
C94	C	1.649265	-0.355454	0.126104
C95	C	1.332165	-0.338411	-0.397051
C96	C	1.832165	0.161589	0.102949
C97	C	1.420021	-0.338421	-0.397059
C98	C	1.920021	0.161579	0.102941
C99	C	1.126046	-0.338333	-0.603197
C100	C	1.626046	0.161667	-0.103197
C101	C	1.126067	-0.338310	-0.691052
C102	C	1.626067	0.161690	-0.191052
C103	C	1.134908	-0.155194	-0.388295
C104	C	1.634908	0.344806	0.111705
C105	C	1.138705	-0.077128	-0.384572
C106	C	1.638705	0.422872	0.115428
C107	C	1.174443	-0.383221	-0.734474
C108	C	1.674443	0.116779	-0.234474
C109	C	1.077705	-0.293381	-0.730183
C110	C	1.577705	0.206619	-0.230183
C111	C	1.077720	-0.293360	-0.812728
C112	C	1.577720	0.206640	-0.312728
C113	C	1.126096	-0.338271	-0.856150
C114	C	1.626096	0.161729	-0.356150
C115	C	1.174457	-0.383203	-0.817027
C116	C	1.674457	0.116797	-0.317027
C117	C	1.029353	-0.248434	-0.851858
C118	C	1.529353	0.251566	-0.351858
C119	C	1.029365	-0.248412	-0.934408
C120	C	1.529365	0.251588	-0.434408
C121	C	1.077746	-0.293320	-0.977831
C122	C	1.577746	0.206680	-0.477831
C123	C	1.126110	-0.338253	-0.938703
C124	C	1.626110	0.161747	-0.438703
C125	C	1.174486	-0.383165	-0.982125
C126	C	1.674486	0.116835	-0.482125
C127	C	1.222855	-0.428095	-0.942998
C128	C	1.722855	0.071905	-0.442998
C129	C	1.222838	-0.428111	-0.860450
C130	C	1.722838	0.071889	-0.360450
C131	C	1.077763	-0.293304	-1.060379
C132	C	1.577763	0.206696	-0.560379
C133	C	1.174501	-0.383147	-1.064678
C134	C	1.674501	0.116853	-0.564678
C135	C	1.125997	-0.338390	-0.191665
C136	C	1.625997	0.161610	0.308335
C137	C	1.126139	-0.338215	-0.103801
C138	C	1.626139	0.161785	0.396199
H139	H	0.829012	-0.256770	-0.301561
H140	H	1.329012	0.243230	0.198439
H141	H	0.557574	-0.211834	-0.248976
H142	H	1.057574	0.288166	0.251024
F143	F	0.534592	-0.476236	-0.558255
F144	F	1.034592	0.023764	-0.058255
H145	H	1.060268	-0.850482	-0.462753
H146	H	1.560268	-0.350482	0.037247
F147	F	1.034171	-1.079492	-0.488939
F148	F	1.534171	-0.579492	0.011061
F149	F	0.718212	-0.200573	-0.235797
F150	F	1.218212	0.299427	0.264203
H151	H	1.038381	-0.256724	-1.092232
H152	H	1.538381	0.243276	-0.592232
H153	H	0.821195	-0.419969	-0.492480
H154	H	1.321195	0.080031	0.007520
F155	F	0.977898	-0.200618	-0.805640
F156	F	1.477898	0.299382	-0.305640
F157	F	1.001926	-0.747995	-0.520959
F158	F	1.501926	-0.247995	-0.020959
F159	F	1.274312	-0.475923	-0.818804
F160	F	1.774312	0.024077	-0.318804
H161	H	0.695212	-0.464965	-0.545114
H162	H	1.195212	0.035035	-0.045114
H163	H	1.213898	-0.419717	-1.100026
H164	H	1.713898	0.080283	-0.600026
H165	H	0.431594	-0.256823	-0.301603
H166	H	0.931594	0.243177	0.198397
H167	H	0.423781	-0.420013	-0.492509
H168	H	0.923781	0.079987	0.007491
H169	H	1.053605	-0.937251	-0.469470
H170	H	1.553605	-0.437251	0.030530
H171	H	1.213826	-0.419800	-0.702614
H172	H	1.713826	0.080200	-0.202614
H173	H	1.262240	-0.464664	-0.978363
H174	H	1.762240	0.035336	-0.478363
H175	H	1.204865	-0.605745	-0.318201
H176	H	1.704865	-0.105745	0.181799
H177	H	1.038315	-0.256820	-0.694825
H178	H	1.538315	0.243180	-0.194825
H179	H	1.198532	-0.738809	-0.324619
H180	H	1.698532	-0.238809	0.175381
F181	F	1.250221	-0.928068	-0.273136
F182	F	1.750221	-0.428068	0.226864
F183	F	1.243003	-1.079482	-0.280424
F184	F	1.743003	-0.579482	0.219576
H185	H	1.021342	-0.605750	-0.501476
H186	H	1.521342	-0.105750	-0.001476
F187	F	0.977877	-0.200604	-0.976042
F188	F	1.477877	0.299396	-0.476042
H189	H	1.191872	-0.825588	-0.331339
H190	H	1.691872	-0.325588	0.168661
