data_functionalizedCrystal
_audit_creation_method	'MofGen! by Chris Wilmer'
_symmetry_space_group_name_H-M	'P1'
_symmetry_Int_Tables_number	1
_symmetry_cell_setting	triclinic
loop_
_symmetry_equiv_pos_as_xyz
  x,y,z
_cell_length_a	16.959454
_cell_length_b	19.077105
_cell_length_c	19.076919
_cell_angle_alpha	90.076224
_cell_angle_beta	87.724511
_cell_angle_gamma	92.283412
loop_
_atom_site_label
_atom_site_type_symbol
_atom_site_fract_x
_atom_site_fract_y
_atom_site_fract_z
Zn1	Zn	-0.382399	-1.058295	0.440440
Zn2	Zn	-0.049065	-0.724962	0.773773
Zn3	Zn	0.284268	-0.391629	1.107107
Zn4	Zn	-0.509490	-1.062944	0.322940
Zn5	Zn	-0.176157	-0.729610	0.656274
Zn6	Zn	0.157177	-0.396277	0.989607
Zn7	Zn	-0.371810	-0.945513	0.318233
Zn8	Zn	-0.038477	-0.612179	0.651566
Zn9	Zn	0.294857	-0.278846	0.984899
Zn10	Zn	-0.509013	-0.940765	0.435693
Zn11	Zn	-0.175680	-0.607432	0.769026
Zn12	Zn	0.157653	-0.274099	1.102360
O13	O	-0.443178	-1.001879	0.379326
O14	O	-0.109845	-0.668546	0.712660
O15	O	0.223489	-0.335213	1.045993
O16	O	-0.403889	-1.157244	0.428810
O17	O	-0.070555	-0.823911	0.762143
O18	O	0.262778	-0.490577	1.095477
O19	O	-0.486995	-1.051298	0.223984
O20	O	-0.153661	-0.717965	0.557318
O21	O	0.179672	-0.384632	0.890651
O22	O	-0.262606	-0.960515	0.334460
O23	O	0.070727	-0.627182	0.667793
O24	O	0.404060	-0.293848	1.001127
O25	O	-0.497262	-1.160659	0.342484
O26	O	-0.163929	-0.827326	0.675817
O27	O	0.169405	-0.493993	1.009150
O28	O	-0.270386	-1.043376	0.424245
O29	O	0.062947	-0.710043	0.757578
O30	O	0.396281	-0.376709	1.090912
O31	O	-0.385842	-0.965022	0.220526
O32	O	-0.052508	-0.631689	0.553859
O33	O	0.280825	-0.298355	0.887192
O34	O	-0.385379	-0.846551	0.329857
O35	O	-0.052046	-0.513217	0.663190
O36	O	0.281287	-0.179884	0.996524
O37	O	-0.496450	-0.952424	0.534654
O38	O	-0.163116	-0.619091	0.867987
O39	O	0.170217	-0.285757	1.201321
O40	O	-0.486182	-0.843063	0.416155
O41	O	-0.152849	-0.509730	0.749488
O42	O	0.180485	-0.176396	1.082821
O43	O	-0.403426	-1.038773	0.538142
O44	O	-0.070093	-0.705440	0.871475
O45	O	0.263240	-0.372106	1.204808
O46	O	-0.620035	-1.046695	0.337881
O47	O	-0.286702	-0.713362	0.671214
O48	O	0.046632	-0.380028	1.004548
O49	O	-0.619685	-0.956931	0.420720
O50	O	-0.286352	-0.623598	0.754053
O51	O	0.046982	-0.290265	1.087386
C52	C	-0.434581	-0.819311	0.371980
C53	C	-0.101247	-0.485977	0.705314
C54	C	0.232086	-0.152644	1.038647
C55	C	-0.430922	-0.741206	0.368854
C56	C	-0.097589	-0.407873	0.702188
C57	C	0.235744	-0.074539	1.035521
C58	C	-0.648541	-1.001821	0.379312
C59	C	-0.315208	-0.668488	0.712645
C60	C	0.018126	-0.335154	1.045979
C61	C	-0.736400	-1.001859	0.379332
C62	C	-0.403067	-0.668526	0.712665
C63	C	-0.069734	-0.335193	1.045999
C64	C	-0.451066	-0.994550	0.562607
C65	C	-0.117733	-0.661217	0.895940
C66	C	0.215601	-0.327884	1.229274
C67	C	-0.454427	-0.991427	0.640710
C68	C	-0.121094	-0.658094	0.974044
C69	C	0.212239	-0.324761	1.307377
C70	C	-1.107727	-0.955205	0.422458
C71	C	-0.774394	-0.621871	0.755792
C72	C	-0.441060	-0.288538	1.089125
C73	C	-1.108038	-1.048747	0.336274
C74	C	-0.774705	-0.715413	0.669607
C75	C	-0.441372	-0.382080	1.002941
C76	C	-1.025491	-1.048723	0.336266
C77	C	-0.692158	-0.715389	0.669600
C78	C	-0.358824	-0.382056	1.002933
C79	C	-0.984058	-1.001938	0.379355
C80	C	-0.650724	-0.668605	0.712688
C81	C	-0.317391	-0.335271	1.046022
C82	C	-1.025172	-0.955178	0.422451
C83	C	-0.691839	-0.621844	0.755784
C84	C	-0.358505	-0.288511	1.089117
C85	C	-0.984370	-1.095477	0.293166
C86	C	-0.651037	-0.762144	0.626499
C87	C	-0.317704	-0.428811	0.959833
C88	C	-0.901818	-1.095454	0.293156
C89	C	-0.568485	-0.762121	0.626490
C90	C	-0.235151	-0.428788	0.959823
C91	C	-0.860383	-1.048672	0.336249
C92	C	-0.527050	-0.715339	0.669582
C93	C	-0.193717	-0.382006	1.002916
C94	C	-0.901503	-1.001911	0.379347
C95	C	-0.568169	-0.668577	0.712681
C96	C	-0.234836	-0.335244	1.046014
C97	C	-0.860069	-0.955126	0.422436
C98	C	-0.526736	-0.621793	0.755769
C99	C	-0.193403	-0.288459	1.089102
C100	C	-0.901187	-0.908367	0.465538
C101	C	-0.567854	-0.575034	0.798871
C102	C	-0.234521	-0.241701	1.132205
C103	C	-0.983737	-0.908396	0.465543
C104	C	-0.650404	-0.575062	0.798877
C105	C	-0.317071	-0.241729	1.132210
C106	C	-0.777834	-1.048644	0.336244
C107	C	-0.444500	-0.715311	0.669577
C108	C	-0.111167	-0.381977	1.002910
C109	C	-0.777514	-0.955099	0.422428
C110	C	-0.444181	-0.621766	0.755761
C111	C	-0.110848	-0.288432	1.089095
C112	C	-0.237015	-1.001956	0.379357
C113	C	0.096319	-0.668623	0.712690
C114	C	0.429652	-0.335290	1.046024
C115	C	-0.149160	-1.001989	0.379370
C116	C	0.184173	-0.668656	0.712703
C117	C	0.517506	-0.335323	1.046037
C118	C	-0.451810	-1.185161	0.386702
C119	C	-0.118476	-0.851828	0.720035
C120	C	0.214857	-0.518494	1.053368
C121	C	-0.455488	-1.263265	0.389844
C122	C	-0.122155	-0.929931	0.723178
C123	C	0.211179	-0.596598	1.056511
C124	C	-0.481759	-0.702718	0.412246
C125	C	-0.148426	-0.369385	0.745579
C126	C	0.184907	-0.036051	1.078912
C127	C	-0.478312	-0.629330	0.409312
C128	C	-0.144979	-0.295997	0.742645
C129	C	0.188355	0.037336	1.075979
C130	C	-0.424030	-0.594433	0.362983
C131	C	-0.090697	-0.261099	0.696316
C132	C	0.242636	0.072234	1.029649
C133	C	-0.373188	-0.632926	0.319590
C134	C	-0.039855	-0.299593	0.652923
C135	C	0.293479	0.033741	0.986256
C136	C	-0.376632	-0.706312	0.322528
C137	C	-0.043299	-0.372979	0.655861
C138	C	0.290034	-0.039645	0.989194
C139	C	-0.408090	-0.375144	0.349389
C140	C	-0.074756	-0.041811	0.682723
C141	C	0.258577	0.291522	1.016056
C142	C	-0.404651	-0.301753	0.346453
C143	C	-0.071318	0.031580	0.679786
C144	C	0.262016	0.364914	1.013120
C145	C	-0.509774	-0.298162	0.436177
C146	C	-0.176441	0.035171	0.769510
C147	C	0.156892	0.368504	1.102843
C148	C	-0.513217	-0.371550	0.439107
C149	C	-0.179884	-0.038217	0.772441
C150	C	0.153450	0.295117	1.105774
C151	C	-0.462372	-0.410037	0.395717
C152	C	-0.129038	-0.076704	0.729050
C153	C	0.204295	0.256630	1.062384
N154	N	-0.420507	-0.519419	0.359981
N155	N	-0.087173	-0.186085	0.693315
N156	N	0.246160	0.147248	1.026648
N157	N	-0.465892	-0.485049	0.398723
N158	N	-0.132559	-0.151716	0.732056
N159	N	0.200775	0.181617	1.065389
C160	C	-0.435266	-1.009220	0.196760
C161	C	-0.101932	-0.675887	0.530094
C162	C	0.231401	-0.342553	0.863427
C163	C	-0.431688	-1.012479	0.118663
C164	C	-0.098355	-0.679146	0.451996
C165	C	0.234979	-0.345813	0.785330
C166	C	-0.407577	-1.034915	0.679220
C167	C	-0.074243	-0.701582	1.012554
C168	C	0.259090	-0.368248	1.345887
C169	C	-0.410731	-1.031972	0.752606
C170	C	-0.077398	-0.698638	1.085940
C171	C	0.255935	-0.365305	1.419273
C172	C	-0.460742	-0.985544	0.787481
C173	C	-0.127409	-0.652211	1.120814
C174	C	0.205925	-0.318877	1.454148
C175	C	-0.507595	-0.942052	0.748966
C176	C	-0.174261	-0.608718	1.082299
C177	C	0.159072	-0.275385	1.415633
C178	C	-0.504435	-0.944992	0.675581
C179	C	-0.171102	-0.611658	1.008914
C180	C	0.162232	-0.278325	1.342248
C181	C	-0.475381	-0.971927	1.006763
C182	C	-0.142048	-0.638594	1.340096
C183	C	0.191286	-0.305260	1.673430
C184	C	-0.478539	-0.968992	1.080153
C185	C	-0.145206	-0.635658	1.413486
C186	C	0.188128	-0.302325	1.746820
C187	C	-0.381674	-1.058911	1.083788
C188	C	-0.048341	-0.725578	1.417122
C189	C	0.284992	-0.392245	1.750455
C190	C	-0.378523	-1.061850	1.010402
C191	C	-0.045189	-0.728517	1.343736
C192	C	0.288144	-0.395184	1.677069
C193	C	-0.425372	-1.018355	0.971893
C194	C	-0.092039	-0.685022	1.305227
C195	C	0.241295	-0.351689	1.638560
N196	N	-0.463970	-0.982536	0.862493
N197	N	-0.130637	-0.649203	1.195827
N198	N	0.202697	-0.315870	1.529160
N199	N	-0.422140	-1.021360	0.896882
N200	N	-0.088806	-0.688027	1.230216
N201	N	0.244527	-0.354693	1.563549
H202	H	-0.743785	-0.917003	0.457519
H203	H	-0.410451	-0.583670	0.790852
H204	H	-0.077118	-0.250337	1.124185
F205	F	-0.360894	-1.078282	0.793589
F206	F	-0.027561	-0.744948	1.126923
F207	F	0.305772	-0.411615	1.460256
H208	H	-0.867443	-0.870272	0.500618
H209	H	-0.534109	-0.536938	0.833951
H210	H	-0.200776	-0.203605	1.167284
H211	H	-0.513541	-0.936521	0.975418
H212	H	-0.180208	-0.603187	1.308752
H213	H	0.153125	-0.269854	1.642085
H214	H	-0.542578	-0.909572	0.644227
H215	H	-0.209244	-0.576239	0.977560
H216	H	0.124089	-0.242906	1.310893
H217	H	-1.141209	-0.917137	0.457553
H218	H	-0.807876	-0.583803	0.790887
H219	H	-0.474542	-0.250470	1.124220
F220	F	-0.346879	-0.264614	0.297137
F221	F	-0.013546	0.068719	0.630470
F222	F	0.319788	0.402053	0.963803
H223	H	-0.868345	-1.133528	0.258061
H224	H	-0.535011	-0.800195	0.591394
H225	H	-0.201678	-0.466861	0.924728
F226	F	-1.027503	-0.858635	0.511411
F227	F	-0.694170	-0.525302	0.844744
F228	F	-0.360836	-0.191969	1.178078
F229	F	-0.322523	-0.747274	0.276346
F230	F	0.010811	-0.413940	0.609679
F231	F	0.344144	-0.080607	0.943013
F232	F	-0.325295	-1.111265	0.973291
F233	F	0.008038	-0.777932	1.306624
F234	F	0.341372	-0.444599	1.639958
F235	F	-0.331815	-1.105197	1.124777
F236	F	0.001518	-0.771863	1.458111
F237	F	0.334851	-0.438530	1.791444
H238	H	-1.141778	-1.086833	0.301189
H239	H	-0.808444	-0.753499	0.634522
H240	H	-0.475111	-0.420166	0.967856
H241	H	-1.018111	-1.133562	0.258080
H242	H	-0.684777	-0.800228	0.591414
H243	H	-0.351444	-0.466895	0.924747
H244	H	-0.366855	-1.072724	0.650831
H245	H	-0.033522	-0.739390	0.984164
H246	H	0.299812	-0.406057	1.317497
F247	F	-0.531766	-0.919572	1.117268
F248	F	-0.198433	-0.586239	1.450601
F249	F	0.134901	-0.252905	1.783934
F250	F	-0.734076	-1.098398	0.290368
F251	F	-0.400742	-0.765065	0.623701
F252	F	-0.067409	-0.431731	0.957034
H253	H	-0.525964	-0.731126	0.449970
H254	H	-0.192631	-0.397793	0.783303
H255	H	0.140703	-0.064460	1.116636
F256	F	-0.560817	-0.892637	0.786084
F257	F	-0.227483	-0.559304	1.119417
F258	F	0.105850	-0.225970	1.452751
H259	H	-0.557420	-0.399959	0.476832
H260	H	-0.224087	-0.066625	0.810165
H261	H	0.109246	0.266708	1.143499
F262	F	-0.532420	-0.588371	0.455495
F263	F	-0.199086	-0.255038	0.788829
F264	F	0.134247	0.078295	1.122162
H265	H	-0.366694	-0.406472	0.314052
H266	H	-0.033360	-0.073138	0.647386
H267	H	0.299973	0.260195	0.980719
F268	F	-0.563885	-0.257197	0.482351
F269	F	-0.230551	0.076137	0.815685
F270	F	0.102782	0.409470	1.149018
H271	H	-0.328988	-0.604506	0.281870
H272	H	0.004346	-0.271173	0.615204
H273	H	0.337679	0.062160	0.948537
