data_functionalizedCrystal
_audit_creation_method	'MofGen! by Chris Wilmer'
_symmetry_space_group_name_H-M	'P1'
_symmetry_Int_Tables_number	1
_symmetry_cell_setting	triclinic
loop_
_symmetry_equiv_pos_as_xyz
  x,y,z
_cell_length_a	6.817900
_cell_length_b	9.582860
_cell_length_c	16.255661
_cell_angle_alpha	93.082919
_cell_angle_beta	103.488922
_cell_angle_gamma	111.206767
loop_
_atom_site_label
_atom_site_type_symbol
_atom_site_fract_x
_atom_site_fract_y
_atom_site_fract_z
V1	V	-4.066850	-0.208264	-0.263715
O2	O	-4.012501	0.008764	-0.258855
O3	O	-4.057621	-0.411756	-0.261758
O4	O	-4.017900	-0.205606	-0.378800
O5	O	-4.052497	-0.198813	-0.141002
V6	V	-4.545474	-0.182240	-0.249056
O7	O	-4.338856	-0.265349	-0.295870
O8	O	-4.723666	-0.125156	-0.216901
O9	O	-4.331497	0.021252	-0.251013
O10	O	-4.717220	-0.399268	-0.253917
O11	O	-4.677224	-0.191691	-0.371769
O12	O	-4.371218	-0.184898	-0.133971
C13	C	-3.912169	-0.461346	-0.257558
C14	C	-3.985905	-0.627706	-0.256725
C15	C	-3.861499	-0.198379	-0.406856
C16	C	-3.903020	-0.197553	-0.500938
C17	C	-3.811674	-0.187680	-0.723764
C18	C	-3.992647	-0.315100	-0.793145
C19	C	-3.979106	-0.196003	-0.673188
C20	C	-3.872142	-0.067125	-0.771446
C21	C	-4.052584	-0.194499	-0.839573
C22	C	-4.159583	-0.323537	-0.741338
C23	C	-4.038994	-0.075449	-0.719624
C24	C	-4.220111	-0.202905	-0.788985
C25	C	-3.936772	-0.196871	-0.577338
C26	C	-4.094937	-0.193643	-0.935422
C27	C	-4.140293	0.070834	-0.255211
C28	C	-4.045794	0.237193	-0.256049
C29	C	-4.190961	-0.192130	-0.105911
C30	C	-4.128678	-0.192948	-0.011828
H31	H	-3.638711	-0.181409	-0.695288
O32	O	-3.969419	-0.435846	-0.831284
C33	C	-3.754467	-0.427441	-0.797853
H34	H	-3.641398	-0.304967	-0.770390
H35	H	-3.751158	-0.500931	-0.745085
C36	C	-3.815748	-0.634854	-0.903447
C37	C	-3.676871	-0.484427	-0.869722
H38	H	-3.767884	-0.670012	-0.947777
H39	H	-3.960568	-0.640522	-0.925969
H40	H	-3.812977	-0.696077	-0.859466
H41	H	-3.679665	-0.423205	-0.913700
H42	H	-3.532048	-0.478751	-0.847210
H43	H	-4.280707	-0.432019	-0.727790
O44	O	-4.426485	-0.210345	-0.822818
C45	C	-4.417323	-0.080401	-0.861141
H46	H	-4.251339	0.015124	-0.831489
H47	H	-4.441283	-0.107372	-0.932828
C48	C	-4.803028	-0.148391	-0.882639
C49	C	-4.599170	-0.031060	-0.846215
H50	H	-4.915204	-0.117958	-0.873436
H51	H	-4.809204	-0.235940	-0.856823
H52	H	-4.822964	-0.170855	-0.942375
H53	H	-4.579225	-0.008611	-0.786479
H54	H	-4.592995	0.056494	-0.872021
H55	H	-4.058060	0.025876	-0.687591
O56	O	-3.727557	0.062273	-0.787589
C57	C	-3.585379	0.151527	-0.709623
H58	H	-3.666733	0.119659	-0.655783
H59	H	-3.427205	0.130780	-0.695416
C60	C	-3.433920	0.359237	-0.782503
C61	C	-3.533849	0.320106	-0.716377
H62	H	-3.402124	0.463225	-0.786670
H63	H	-3.529701	0.299104	-0.835031
H64	H	-3.302120	0.341936	-0.770656
H65	H	-3.665658	0.337389	-0.728230
H66	H	-3.438088	0.380246	-0.663851
