data_functionalizedCrystal
_audit_creation_method	'MofGen! by Chris Wilmer'
_symmetry_space_group_name_H-M	'P1'
_symmetry_Int_Tables_number	1
_symmetry_cell_setting	triclinic
loop_
_symmetry_equiv_pos_as_xyz
  x,y,z
_cell_length_a	10.654545
_cell_length_b	16.992695
_cell_length_c	9.130313
_cell_angle_alpha	89.995176
_cell_angle_beta	89.996934
_cell_angle_gamma	87.575651
loop_
_atom_site_label
_atom_site_type_symbol
_atom_site_fract_x
_atom_site_fract_y
_atom_site_fract_z
O1	O	1.677364	0.110173	-0.121787
O2	O	1.312792	0.120675	-0.121793
O3	O	1.493616	0.001273	-0.121778
O4	O	1.496539	0.229574	-0.121801
O5	O	1.493603	0.001270	0.121821
O6	O	1.312778	0.120671	0.121806
O7	O	1.677350	0.110169	0.121812
Cu8	Cu	1.495063	0.115420	0.144052
Cu9	Cu	1.495079	0.115424	-0.144032
O10	O	1.496526	0.229571	0.121798
C11	C	1.265921	0.119903	0.000006
C12	C	1.126278	0.117598	0.000004
C13	C	1.060672	0.116511	0.132790
C14	C	0.929464	0.114332	0.132791
C15	C	0.929479	0.114331	-0.132794
C16	C	1.060685	0.116504	-0.132793
C17	C	1.489849	-0.027961	0.000021
C18	C	1.478630	-0.115066	0.000021
C19	C	1.586881	-0.164719	0.000024
C20	C	1.576332	-0.246563	0.000010
C21	C	1.457530	-0.278753	0.000003
C22	C	1.349272	-0.229093	-0.000005
C23	C	1.359822	-0.147251	-0.000001
C24	C	1.413803	-0.522588	-0.000018
C25	C	1.403261	-0.604436	-0.000017
C26	C	1.630323	-0.621901	-0.000005
C27	C	1.640862	-0.540056	0.000007
C28	C	1.532603	-0.490404	-0.000008
N29	N	1.446745	-0.362410	-0.000007
N30	N	1.543390	-0.406748	-0.000009
C31	C	1.724221	0.110942	0.000010
C32	C	1.863864	0.113246	0.000003
C33	C	1.500293	0.258806	-0.000005
C34	C	1.511512	0.345911	-0.000014
N35	N	1.495061	0.115417	0.346674
N36	N	1.495090	0.115421	-0.346655
C37	C	1.575161	0.062568	0.423333
C38	C	1.575173	0.062568	0.576669
C39	C	1.414982	0.168272	0.576676
C40	C	1.414964	0.168268	0.423342
H41	H	1.114103	0.117387	-0.240930
H42	H	1.640396	0.019533	0.639081
H43	H	1.349771	0.211304	0.639114
H44	H	1.349731	0.211304	0.360923
H45	H	1.640378	0.019532	0.360913
H46	H	1.114074	0.117402	0.240922
H47	H	0.876058	0.113441	-0.240912
H48	H	1.683622	-0.138518	0.000039
H49	H	1.737603	-0.513854	0.000013
C50	C	0.857303	0.113142	0.278856
H51	H	0.915162	0.114111	0.357939
H52	H	0.811119	0.066626	0.284392
H53	H	0.801120	0.157969	0.284363
C54	C	1.695408	-0.301178	0.000029
H55	H	1.767672	-0.270286	0.000055
H56	H	1.696030	-0.333465	-0.084919
H57	H	1.695997	-0.333470	0.084988
H58	H	1.306514	-0.630641	0.000001
C59	C	1.749396	-0.676518	-0.000009
H60	H	1.726103	-0.729871	-0.000026
H61	H	1.797773	-0.666700	0.084936
H62	H	1.797767	-0.666686	-0.084971
H63	H	1.325651	-0.482170	-0.000030
H64	H	1.271672	-0.106824	-0.000004
C65	C	1.218593	-0.264500	-0.000008
H66	H	1.227811	-0.320353	0.000006
H67	H	1.173676	-0.247495	-0.084956
H68	H	1.173676	-0.247500	0.084952
