data_functionalizedCrystal
_audit_creation_method	'MofGen! by Chris Wilmer'
_symmetry_space_group_name_H-M	'P1'
_symmetry_Int_Tables_number	1
_symmetry_cell_setting	triclinic
loop_
_symmetry_equiv_pos_as_xyz
  x,y,z
_cell_length_a	10.540510
_cell_length_b	10.540510
_cell_length_c	9.616153
_cell_angle_alpha	90.000246
_cell_angle_beta	89.992871
_cell_angle_gamma	84.513311
loop_
_atom_site_label
_atom_site_type_symbol
_atom_site_fract_x
_atom_site_fract_y
_atom_site_fract_z
O1	O	1.685895	0.178718	-0.115646
O2	O	1.316475	0.195613	-0.115646
O3	O	1.509633	0.002456	-0.115646
O4	O	1.492737	0.371875	-0.115647
O5	O	1.509606	0.002460	0.115646
O6	O	1.316449	0.195617	0.115645
O7	O	1.685868	0.178722	0.115645
Zn8	Zn	1.501154	0.187170	0.152368
Zn9	Zn	1.501189	0.187165	-0.152369
O10	O	1.492711	0.371879	0.115645
C11	C	1.269159	0.194356	-0.000001
C12	C	1.128209	0.190589	-0.000001
C13	C	0.910739	0.324775	-0.000533
C14	C	1.057334	0.328793	-0.000003
C15	C	1.083442	0.119845	0.132075
C16	C	0.936681	0.116805	0.132177
C17	C	0.936905	0.113923	-0.130845
C18	C	1.083246	0.120478	-0.132582
C19	C	1.508361	-0.044846	-0.000003
C20	C	1.504594	-0.185795	-0.000011
C21	C	1.638780	-0.403265	0.000519
C22	C	1.642798	-0.256670	-0.000010
C23	C	1.433862	-0.230549	-0.132087
C24	C	1.430823	-0.377309	-0.132190
C25	C	1.427914	-0.377113	0.130831
C26	C	1.434469	-0.230773	0.132570
C27	C	1.733185	0.179979	-0.000003
C28	C	1.874135	0.183746	-0.000012
C29	C	1.493983	0.419181	-0.000001
C30	C	1.497750	0.560130	-0.000002
N31	N	1.501140	0.187173	0.360342
N32	N	1.501214	0.187152	-0.360343
C33	C	1.397498	0.290153	0.580712
C34	C	1.397726	0.290539	0.419544
C35	C	1.633862	0.217293	0.418792
C36	C	1.633297	0.218022	0.580010
C37	C	1.473381	0.053736	0.580254
C38	C	1.470335	0.054601	0.419027
H39	H	0.914763	0.010159	-0.131737
H40	H	1.372697	0.031770	0.380827
H41	H	1.378646	0.025066	0.620991
Br42	Br	1.599420	-0.074043	0.643780
H43	H	0.896448	0.165156	0.230905
H44	H	1.485936	-0.202164	0.230278
Br45	Br	1.728512	-0.473194	0.158393
H46	H	1.712925	0.144320	0.380439
H47	H	1.698485	-0.228272	-0.094850
Br48	Br	1.254968	-0.414011	0.132318
H49	H	1.130842	0.018102	0.136987
Br50	Br	0.838194	0.414013	0.156436
Br51	Br	1.735004	-0.207756	0.157814
Br52	Br	1.104661	0.421598	0.158069
Br53	Br	1.427482	0.455535	0.355229
H54	H	1.298573	0.272310	0.619523
H55	H	1.657641	0.315358	0.617597
H56	H	1.471822	-0.419298	0.230945
Br57	Br	0.898362	-0.055471	0.142265
H58	H	0.894364	0.157504	-0.230952
H59	H	1.333569	-0.181695	0.140545
Br60	Br	0.840826	0.414524	-0.158407
H61	H	1.111870	0.171951	-0.230291
Br62	Br	1.233335	0.260424	0.353676
Br63	Br	1.134835	0.201732	0.295905
H64	H	1.415155	0.388576	0.621210
H65	H	1.658749	0.313529	0.378401
Br66	Br	1.165037	-0.047703	-0.145876
Br67	Br	1.765765	0.097702	0.645003
Br68	Br	1.511433	-0.444358	-0.296739
Br69	Br	1.258543	-0.415627	-0.142189
H70	H	1.540871	-0.025728	0.378733
Br71	Br	1.106261	0.421045	-0.157806
Br72	Br	1.264284	-0.151546	-0.140287
Br73	Br	1.515767	-0.179140	-0.295917
Br74	Br	1.728031	-0.475788	-0.156455
