data_functionalizedCrystal
_audit_creation_method	'MofGen! by Chris Wilmer'
_symmetry_space_group_name_H-M	'P1'
_symmetry_Int_Tables_number	1
_symmetry_cell_setting	triclinic
loop_
_symmetry_equiv_pos_as_xyz
  x,y,z
_cell_length_a	14.853567
_cell_length_b	16.992694
_cell_length_c	15.455313
_cell_angle_alpha	87.142206
_cell_angle_beta	92.672621
_cell_angle_gamma	87.151577
loop_
_atom_site_label
_atom_site_type_symbol
_atom_site_fract_x
_atom_site_fract_y
_atom_site_fract_z
O1	O	0.187488	1.044027	-0.072010
O2	O	0.185390	0.815740	-0.072036
O3	O	0.055640	0.935981	-0.072025
O4	O	0.317238	0.923785	-0.072021
O5	O	0.063027	0.929105	0.072237
O6	O	0.192777	0.808864	0.072226
O7	O	0.194875	1.037151	0.072251
Cu8	Cu	0.194501	0.922380	0.085411
Cu9	Cu	0.185764	0.930511	-0.085195
O10	O	0.324625	0.916909	0.072241
C11	C	0.186385	0.783087	0.000092
C12	C	0.178334	0.696034	0.000081
C13	C	0.256009	0.645878	0.000083
C14	C	0.248440	0.564083	0.000095
C15	C	0.163195	0.532445	0.000099
C16	C	0.085514	0.582608	0.000100
C17	C	0.093084	0.664401	0.000094
C18	C	0.131820	0.288813	0.000122
C19	C	0.124255	0.207013	0.000125
C20	C	0.287183	0.188493	0.000122
C21	C	0.294745	0.270290	0.000111
C22	C	0.217064	0.320445	0.000116
N23	N	0.155456	0.448838	0.000108
N24	N	0.224804	0.404050	0.000113
C25	C	0.025705	0.931991	0.000103
C26	C	-0.074496	0.930335	0.000096
C27	C	-0.492567	0.851909	0.000103
C28	C	-0.503760	0.994758	0.000119
C29	C	-0.409617	0.996315	0.000114
C30	C	-0.356944	0.925668	0.000105
C31	C	-0.398414	0.853464	0.000101
C32	C	-0.368139	1.068518	0.000127
C33	C	-0.273990	1.070078	0.000123
C34	C	-0.221316	0.999430	0.000108
C35	C	-0.262791	0.927223	0.000103
C36	C	-0.210118	0.856576	0.000094
C37	C	-0.251593	0.784368	0.000082
C38	C	-0.345740	0.782816	0.000086
C39	C	-0.127169	1.000982	0.000105
C40	C	-0.115966	0.858131	0.000091
C41	C	0.354560	0.920900	0.000110
C42	C	0.454760	0.922556	0.000112
C43	C	0.193880	1.069804	0.000122
C44	C	0.201931	1.156857	0.000127
N45	N	0.200645	0.916666	0.205406
N46	N	0.179613	0.936231	-0.205190
C47	C	0.145545	0.967766	0.250805
C48	C	0.150201	0.963453	0.341612
C49	C	0.209961	0.908042	0.387019
C50	C	0.265063	0.856936	0.341614
C51	C	0.260402	0.861246	0.250808
C52	C	0.230054	0.889436	0.658599
C53	C	0.234713	0.885131	0.749411
C54	C	0.119849	0.991647	0.749403
C55	C	0.115198	0.995956	0.658595
C56	C	0.170296	0.944847	0.613198
N57	N	0.214723	0.903633	0.479839
N58	N	0.165529	0.949253	0.520380
H59	H	0.311692	0.523249	0.000096
H60	H	0.096886	1.012891	0.213840
H61	H	0.364161	0.296043	0.000098
C62	C	0.010874	0.763602	0.074249
C63	C	0.007699	0.719535	0.000090
H64	H	-0.041844	0.797634	0.074250
H65	H	0.062719	0.794147	0.074240
H66	H	0.013886	0.728909	0.124551
H67	H	0.004694	0.754228	-0.050212
H68	H	-0.044160	0.688987	0.000091
H69	H	0.054835	0.181257	0.000127
C70	C	-0.517431	1.129554	0.000136
C71	C	-0.426037	1.146169	0.000142
H72	H	-0.553176	1.177495	0.000140
H73	H	-0.527975	1.097555	0.050434
H74	H	-0.533125	1.102352	-0.050181
H75	H	-0.410340	1.173365	0.050463
H76	H	-0.415487	1.178180	-0.050161
H77	H	-0.240230	1.128874	0.000132
H78	H	-0.093404	1.059772	0.000120
H79	H	0.105334	1.005062	0.378575
C80	C	-0.051889	0.569684	0.074263
C81	C	-0.008191	0.547834	0.000104
H82	H	-0.109737	0.548214	0.074263
H83	H	-0.058495	0.625569	0.074255
H84	H	-0.017074	0.550076	0.124565
H85	H	-0.043003	0.567448	-0.050199
H86	H	-0.001589	0.491938	0.000104
C87	C	0.393415	0.658787	-0.074076
C88	C	0.349717	0.680647	0.000079
H89	H	0.451269	0.680246	-0.074073
H90	H	0.358611	0.678393	-0.124376
H91	H	0.400012	0.602894	-0.074062
H92	H	0.343113	0.736541	0.000061
H93	H	0.384529	0.661045	0.050391
H94	H	-0.546652	1.052275	0.000134
H95	H	0.066536	1.041076	0.621627
H96	H	0.350426	0.147649	0.000119
H97	H	-0.073085	0.800601	0.000080
C98	C	-0.029985	0.298890	0.000119
C99	C	0.046433	0.343936	0.000121
H100	H	-0.082701	0.332926	0.000113
H101	H	-0.026969	0.264212	0.050423
H102	H	-0.032117	0.268993	-0.050191
H103	H	0.048568	0.373829	0.050434
H104	H	0.043416	0.378628	-0.050189
C105	C	-0.143012	0.706788	-0.074088
C106	C	-0.193689	0.706713	0.000071
H107	H	-0.107268	0.658846	-0.074095
H108	H	-0.104847	0.750009	-0.074072
H109	H	-0.182558	0.711547	-0.124390
H110	H	-0.154143	0.701961	0.050373
H111	H	-0.231858	0.663480	0.000063
C112	C	0.309559	0.719917	0.369595
C113	C	0.330747	0.796023	0.391527
H114	H	0.350108	0.682313	0.400414
H115	H	0.314675	0.715173	0.309025
H116	H	0.249526	0.710647	0.384487
H117	H	0.390777	0.805296	0.376629
H118	H	0.325639	0.800770	0.452111
H119	H	-0.379517	0.724028	0.000077
H120	H	-0.526339	0.793119	0.000091
H121	H	0.074990	1.033256	0.786374
C122	C	0.347763	0.780251	0.740303
C123	C	0.300393	0.824207	0.799325
H124	H	0.388302	0.742637	0.771120
H125	H	0.380763	0.814596	0.704882
H126	H	0.306349	0.753697	0.704889
H127	H	0.341807	0.850765	0.834735
H128	H	0.267392	0.789857	0.834761
C129	C	0.346289	0.877400	0.556489
C130	C	0.290633	0.833268	0.608709
H131	H	0.383689	0.842722	0.525685
H132	H	0.382899	0.908391	0.591908
H133	H	0.310021	0.911006	0.516448
H134	H	0.326902	0.799665	0.648755
H135	H	0.254020	0.802263	0.573287
C136	C	0.411704	0.816694	0.222833
C137	C	0.320972	0.805079	0.200900
H138	H	0.449095	0.782019	0.192018
H139	H	0.423028	0.806194	0.283404
H140	H	0.424526	0.869745	0.207938
H141	H	0.308149	0.752029	0.215801
H142	H	0.309644	0.815574	0.140316
