data_functionalizedCrystal
_audit_creation_method	'MofGen! by Chris Wilmer'
_symmetry_space_group_name_H-M	'P1'
_symmetry_Int_Tables_number	1
_symmetry_cell_setting	triclinic
loop_
_symmetry_equiv_pos_as_xyz
  x,y,z
_cell_length_a	18.050591
_cell_length_b	18.050590
_cell_length_c	13.897441
_cell_angle_alpha	89.966994
_cell_angle_beta	89.973262
_cell_angle_gamma	90.015000
loop_
_atom_site_label
_atom_site_type_symbol
_atom_site_fract_x
_atom_site_fract_y
_atom_site_fract_z
Zn1	Zn	1.135394	-0.295706	-0.545520
Zn2	Zn	1.468727	0.037627	-0.212186
Zn3	Zn	1.802060	0.370961	0.121147
Zn4	Zn	1.135310	-0.419910	-0.384214
Zn5	Zn	1.468643	-0.086577	-0.050881
Zn6	Zn	1.801977	0.246756	0.282453
Zn7	Zn	1.011198	-0.295731	-0.384221
Zn8	Zn	1.344531	0.037602	-0.050888
Zn9	Zn	1.677864	0.370936	0.282446
Zn10	Zn	1.011182	-0.419851	-0.545450
Zn11	Zn	1.344515	-0.086518	-0.212117
Zn12	Zn	1.677848	0.246816	0.121217
O13	O	1.073271	-0.357800	-0.464851
O14	O	1.406604	-0.024466	-0.131518
O15	O	1.739937	0.308867	0.201816
O16	O	1.239307	-0.312196	-0.524148
O17	O	1.572640	0.021137	-0.190815
O18	O	1.905974	0.354470	0.142518
O19	O	1.118818	-0.403473	-0.249233
O20	O	1.452151	-0.070140	0.084100
O21	O	1.785485	0.263194	0.417433
O22	O	1.027714	-0.191803	-0.405650
O23	O	1.361047	0.141530	-0.072316
O24	O	1.694381	0.474864	0.261017
O25	O	1.239246	-0.403449	-0.405638
O26	O	1.572579	-0.070115	-0.072305
O27	O	1.905912	0.263218	0.261029
O28	O	1.118960	-0.191785	-0.524155
O29	O	1.452294	0.141549	-0.190822
O30	O	1.785627	0.474882	0.142512
O31	O	1.027633	-0.312239	-0.249238
O32	O	1.360967	0.021094	0.084095
O33	O	1.694300	0.354428	0.417428
O34	O	0.907271	-0.312181	-0.405582
O35	O	1.240604	0.021152	-0.072249
O36	O	1.573938	0.354485	0.261085
O37	O	1.027687	-0.403348	-0.680441
O38	O	1.361020	-0.070014	-0.347107
O39	O	1.694354	0.263319	-0.013774
O40	O	0.907259	-0.403372	-0.524036
O41	O	1.240593	-0.070039	-0.190703
O42	O	1.573926	0.263295	0.142630
O43	O	1.118945	-0.312139	-0.680492
O44	O	1.452278	0.021194	-0.347159
O45	O	1.785612	0.354528	-0.013825
O46	O	1.118803	-0.523827	-0.405570
O47	O	1.452136	-0.190494	-0.072237
O48	O	1.785469	0.142840	0.261096
O49	O	1.027606	-0.523784	-0.524030
O50	O	1.360939	-0.190450	-0.190696
O51	O	1.694273	0.142883	0.142637
C52	C	0.880319	-0.357773	-0.464803
C53	C	1.213652	-0.024440	-0.131470
C54	C	1.546985	0.308893	0.201864
C55	C	0.797773	-0.357780	-0.464805
C56	C	1.131106	-0.024447	-0.131472
C57	C	1.464440	0.308887	0.201862
C58	C	1.073214	-0.550752	-0.464813
C59	C	1.406547	-0.217418	-0.131479
C60	C	1.739880	0.115915	0.201854
C61	C	1.073257	-0.633298	-0.464828
C62	C	1.406591	-0.299964	-0.131495
C63	C	1.739924	0.033369	0.201838
C64	C	0.548932	-0.308139	-0.400542
C65	C	0.882265	0.025194	-0.067209
C66	C	1.215599	0.358527	0.266125
C67	C	0.598369	-0.290047	-0.488573
C68	C	0.931703	0.043286	-0.155240
C69	C	1.265036	0.376620	0.178094
C70	C	0.500652	-0.357818	-0.464884
C71	C	0.833986	-0.024485	-0.131551
C72	C	1.167319	0.308849	0.201783
C73	C	0.598297	-0.375857	-0.376819
C74	C	0.931630	-0.042524	-0.043486
C75	C	1.264964	0.290810	0.289847
C76	C	0.646638	-0.357798	-0.464841
C77	C	0.979971	-0.024464	-0.131507
C78	C	1.313304	0.308869	0.201826
C79	C	0.549002	-0.339691	-0.552962
C80	C	0.882336	-0.006357	-0.219628
C81	C	1.215669	0.326976	0.113705
C82	C	0.548926	-0.425532	-0.441149
C83	C	0.882259	-0.092199	-0.107815
C84	C	1.215592	0.241135	0.225518
C85	C	0.598341	-0.407465	-0.529240
C86	C	0.931674	-0.074132	-0.195907
C87	C	1.265007	0.259201	0.137426
C88	C	0.416554	-0.357828	-0.464908
C89	C	0.749888	-0.024495	-0.131574
C90	C	1.083221	0.308839	0.201759
C91	C	0.730734	-0.357788	-0.464827
C92	C	1.064067	-0.024454	-0.131493
C93	C	1.397401	0.308879	0.201840
C94	C	1.122953	-0.832745	-0.400500
C95	C	1.456286	-0.499411	-0.067167
C96	C	1.789620	-0.166078	0.266166
C97	C	1.141097	-0.882073	-0.488538
C98	C	1.474430	-0.548740	-0.155205
C99	C	1.807763	-0.215406	0.178129
C100	C	1.073299	-0.784428	-0.464867
C101	C	1.406633	-0.451095	-0.131534
C102	C	1.739966	-0.117761	0.201800
C103	C	1.055231	-0.882181	-0.376869
C104	C	1.388565	-0.548848	-0.043536
C105	C	1.721898	-0.215515	0.289798
C106	C	1.073341	-0.930413	-0.464896
C107	C	1.406675	-0.597080	-0.131563
C108	C	1.740008	-0.263746	0.201770
C109	C	1.091478	-0.832669	-0.552951
C110	C	1.424811	-0.499336	-0.219618
C111	C	1.758145	-0.166002	0.113716
C112	C	1.005581	-0.832773	-0.441222
C113	C	1.338914	-0.499439	-0.107889
C114	C	1.672247	-0.166106	0.225444
C115	C	1.023699	-0.882079	-0.529321
C116	C	1.357032	-0.548745	-0.195987
C117	C	1.690365	-0.215412	0.137346
C118	C	1.073277	-0.700330	-0.464849
C119	C	1.406610	-0.366996	-0.131515
C120	C	1.739944	-0.033663	0.201818
C121	C	1.073364	-1.014509	-0.464925
C122	C	1.406697	-0.681176	-0.131591
C123	C	1.740030	-0.347843	0.201742
C124	C	1.266976	-0.357826	-0.464900
C125	C	1.600310	-0.024493	-0.131567
C126	C	1.933643	0.308840	0.201767
C127	C	1.349522	-0.357838	-0.464921
C128	C	1.682855	-0.024505	-0.131588
C129	C	2.016189	0.308829	0.201746
C130	C	1.073323	-0.357734	-0.716444
C131	C	1.406657	-0.024401	-0.383111
C132	C	1.739990	0.308933	-0.049778
C133	C	1.073346	-0.357706	-0.823658
C134	C	1.406679	-0.024373	-0.490325
C135	C	1.740013	0.308961	-0.156992
C136	C	1.073348	-0.164094	-0.464911
C137	C	1.406682	0.169239	-0.131578
C138	C	1.740015	0.502573	0.201756
C139	C	1.073381	-0.081548	-0.464936
C140	C	1.406715	0.251785	-0.131603
C141	C	1.740048	0.585118	0.201730
C142	C	1.073366	-0.357656	-1.019954
C143	C	1.406699	-0.024322	-0.686620
C144	C	1.740033	0.309011	-0.353287
C145	C	1.073353	-0.357686	-0.910721
C146	C	1.406686	-0.024352	-0.577388
C147	C	1.740019	0.308981	-0.244054
C148	C	1.073261	-0.357811	-0.214237
C149	C	1.406594	-0.024478	0.119097
C150	C	1.739928	0.308855	0.452430
C151	C	1.073382	-0.357630	-0.107023
C152	C	1.406716	-0.024297	0.226310
C153	C	1.740049	0.309036	0.559643
H154	H	0.527240	-0.266105	-0.346216
H155	H	0.860573	0.067229	-0.012883
H156	H	1.193907	0.400562	0.320451
Cl157	Cl	0.631894	-0.201622	-0.519558
Cl158	Cl	0.965227	0.131712	-0.186225
Cl159	Cl	1.298560	0.465045	0.147109
Cl160	Cl	0.917157	-0.799313	-0.410280
Cl161	Cl	1.250490	-0.465980	-0.076947
Cl162	Cl	1.583823	-0.132646	0.256387
H163	H	0.619897	-0.449469	-0.583696
H164	H	0.953230	-0.116135	-0.250363
H165	H	1.286563	0.217198	0.082970
Cl166	Cl	1.187801	-0.799296	-0.316546
Cl167	Cl	1.521134	-0.465963	0.016787
Cl168	Cl	1.854468	-0.132630	0.350121
Cl169	Cl	0.958896	-0.915317	-0.613473
Cl170	Cl	1.292230	-0.581984	-0.280140
Cl171	Cl	1.625563	-0.248650	0.053193
H172	H	1.106721	-0.811013	-0.627446
H173	H	1.440054	-0.477680	-0.294113
H174	H	1.773387	-0.144346	0.039221
Cl175	Cl	1.229544	-0.915494	-0.519462
Cl176	Cl	1.562878	-0.582161	-0.186128
Cl177	Cl	1.896211	-0.248827	0.147205
Cl178	Cl	0.515715	-0.316016	-0.667951
Cl179	Cl	0.849048	0.017317	-0.334618
Cl180	Cl	1.182381	0.350651	-0.001285
Cl181	Cl	1.031609	-0.915759	-0.261955
Cl182	Cl	1.364943	-0.582426	0.071378
Cl183	Cl	1.698276	-0.249093	0.404712
H184	H	0.619953	-0.391122	-0.302363
H185	H	0.953286	-0.057789	0.030971
H186	H	1.286619	0.275544	0.364304
Cl187	Cl	0.515364	-0.513931	-0.410131
Cl188	Cl	0.848698	-0.180598	-0.076798
Cl189	Cl	1.182031	0.152735	0.256536
