data_functionalizedCrystal
_audit_creation_method	'MofGen! by Chris Wilmer'
_symmetry_space_group_name_H-M	'P1'
_symmetry_Int_Tables_number	1
_symmetry_cell_setting	triclinic
loop_
_symmetry_equiv_pos_as_xyz
  x,y,z
_cell_length_a	12.759395
_cell_length_b	16.625545
_cell_length_c	12.759387
_cell_angle_alpha	89.966730
_cell_angle_beta	89.980569
_cell_angle_gamma	90.025403
loop_
_atom_site_label
_atom_site_type_symbol
_atom_site_fract_x
_atom_site_fract_y
_atom_site_fract_z
Zn1	Zn	1.606189	-0.320962	-0.593957
Zn2	Zn	1.606047	-0.455818	-0.418270
Zn3	Zn	1.430488	-0.321002	-0.418297
Zn4	Zn	1.430447	-0.455756	-0.593912
O5	O	1.518293	-0.388385	-0.506109
O6	O	1.753192	-0.338860	-0.570659
O7	O	1.582716	-0.437977	-0.271252
O8	O	1.453872	-0.208165	-0.441629
O9	O	1.753087	-0.437938	-0.441582
O10	O	1.582959	-0.208135	-0.570685
O11	O	1.453733	-0.338928	-0.271272
O12	O	1.283461	-0.338869	-0.441585
O13	O	1.453802	-0.437833	-0.740939
O14	O	1.283431	-0.437872	-0.570609
O15	O	1.582919	-0.338801	-0.740972
O16	O	1.582676	-0.568642	-0.441539
O17	O	1.453664	-0.568597	-0.570583
C18	C	1.245325	-0.388369	-0.506096
C19	C	1.128548	-0.388381	-0.506115
C20	C	1.128638	-0.285379	-0.640740
C21	C	1.073822	-0.233887	-0.708061
C22	C	0.964101	-0.233901	-0.708074
C23	C	0.909192	-0.285411	-0.640757
C24	C	0.964008	-0.336903	-0.573436
C25	C	1.073732	-0.336884	-0.573432
C26	C	0.963919	-0.439900	-0.438808
C27	C	1.073640	-0.439891	-0.438798
C28	C	0.909010	-0.491410	-0.371490
C29	C	0.963826	-0.542907	-0.304173
C30	C	1.073554	-0.542891	-0.304164
C31	C	1.128456	-0.491383	-0.371477
C32	C	1.518178	-0.597876	-0.506076
C33	C	1.518226	-0.687497	-0.506097
C34	C	1.518267	-0.760279	-0.506118
C35	C	1.518328	-0.851588	-0.506141
C36	C	1.518382	-0.924364	-0.506154
C37	C	1.518442	-1.015678	-0.506176
C38	C	1.792326	-0.388401	-0.506122
C39	C	1.909103	-0.388409	-0.506128
C40	C	1.518372	-0.388306	-0.780142
C41	C	1.518406	-0.388272	-0.896919
C42	C	1.518436	-0.178076	-0.506165
C43	C	1.518497	-0.088455	-0.506189
C44	C	1.652865	-0.285156	-0.896973
C45	C	1.720109	-0.233586	-0.951861
C46	C	1.720135	-0.233557	-1.061583
C47	C	1.652907	-0.285101	-1.116419
C48	C	1.585662	-0.336671	-1.061531
C49	C	1.585646	-0.336697	-0.951807
C50	C	1.451200	-0.439782	-1.061477
C51	C	1.451178	-0.439817	-0.951756
C52	C	1.383971	-0.491326	-1.116314
C53	C	1.316731	-0.542902	-1.061426
C54	C	1.316709	-0.542929	-0.951698
C55	C	1.383933	-0.491386	-0.896868
C56	C	1.518274	-0.388405	-0.233141
C57	C	1.518444	-0.388212	-0.116365
H58	H	1.118179	-0.584819	-0.249339
H59	H	1.774884	-0.191559	-1.106272
H60	H	1.652924	-0.285066	-1.205760
H61	H	1.383927	-0.491408	-0.807527
C62	C	1.138802	-0.582143	-1.095172
C63	C	1.242839	-0.599552	-1.121703
H64	H	1.093186	-0.617116	-1.132394
H65	H	1.129174	-0.589550	-1.021981
H66	H	1.123485	-0.527958	-1.113167
H67	H	1.258159	-0.653736	-1.103701
H68	H	1.252472	-0.592152	-1.194911
C69	C	1.679546	-0.361909	-0.739778
C70	C	1.652839	-0.285192	-0.776365
H71	H	1.679534	-0.361926	-0.665319
H72	H	1.629886	-0.399974	-0.764580
H73	H	1.747339	-0.375847	-0.764609
H74	H	1.585041	-0.271255	-0.751541
H75	H	1.702501	-0.247114	-0.751553
H76	H	0.919111	-0.584838	-0.249365
H77	H	1.774843	-0.191619	-0.907201
H78	H	0.819851	-0.285412	-0.640765
C79	C	1.410715	-0.567998	-1.273463
C80	C	1.383996	-0.491297	-1.236922
H81	H	1.410724	-0.567982	-1.347921
H82	H	1.478491	-0.581948	-1.248647
H83	H	1.361039	-0.606078	-1.248613
H84	H	1.433678	-0.453217	-1.261765
H85	H	1.316211	-0.477337	-1.261748
H86	H	0.819669	-0.491416	-0.371503
H87	H	1.217797	-0.491361	-0.371471
C88	C	1.302004	-0.651417	-0.828265
C89	C	1.242796	-0.599617	-0.891360
H90	H	1.256371	-0.686410	-0.791013
H91	H	1.347749	-0.682252	-0.871070
H92	H	1.342033	-0.620716	-0.779911
H93	H	1.202772	-0.630318	-0.939720
H94	H	1.197033	-0.568778	-0.848552
C95	C	1.285864	-0.229285	-0.714034
C96	C	1.249246	-0.285366	-0.640734
H97	H	1.360323	-0.229276	-0.714026
H98	H	1.261065	-0.243303	-0.781789
H99	H	1.261051	-0.177240	-0.695987
H100	H	1.274053	-0.337413	-0.658785
H101	H	1.274056	-0.271353	-0.572965
C102	C	1.062892	-0.132081	-0.841149
C103	C	1.134178	-0.177272	-0.782060
H104	H	1.100152	-0.097127	-0.886827
H105	H	1.020102	-0.167258	-0.881248
H106	H	1.020088	-0.101198	-0.795443
H107	H	1.176977	-0.208160	-0.827766
H108	H	1.176986	-0.142090	-0.741958
C109	C	0.795939	-0.188195	-0.767858
C110	C	0.903839	-0.177301	-0.782070
H111	H	0.758739	-0.153249	-0.813536
H112	H	0.777957	-0.242382	-0.783108
H113	H	0.777945	-0.176329	-0.697293
H114	H	0.921835	-0.189173	-0.852633
H115	H	0.921829	-0.123102	-0.766828
