data_functionalizedCrystal
_audit_creation_method	'MofGen! by Chris Wilmer'
_symmetry_space_group_name_H-M	'P1'
_symmetry_Int_Tables_number	1
_symmetry_cell_setting	triclinic
loop_
_symmetry_equiv_pos_as_xyz
  x,y,z
_cell_length_a	10.654549
_cell_length_b	14.048226
_cell_length_c	10.654550
_cell_angle_alpha	90.006260
_cell_angle_beta	84.484854
_cell_angle_gamma	90.005425
loop_
_atom_site_label
_atom_site_type_symbol
_atom_site_fract_x
_atom_site_fract_y
_atom_site_fract_z
O1	O	1.667845	0.079138	0.176400
O2	O	1.302366	0.079145	0.193206
O3	O	1.493509	0.079136	0.002064
O4	O	1.476702	0.079148	0.367542
O5	O	1.493485	-0.079186	0.002052
O6	O	1.302343	-0.079176	0.193195
O7	O	1.667821	-0.079183	0.176388
Zn8	Zn	1.485079	-0.104316	0.184789
Zn9	Zn	1.485109	0.104279	0.184805
O10	O	1.476679	-0.079173	0.367530
C11	C	1.255557	-0.000015	0.191966
C12	C	1.116113	-0.000012	0.188275
C13	C	0.905599	-0.000012	0.297338
C14	C	1.036619	-0.000007	0.300816
C15	C	1.064581	-0.000014	0.072247
C16	C	0.933563	-0.000013	0.068770
N17	N	1.485067	-0.246677	0.184778
C18	C	1.569732	-0.296499	0.100176
C19	C	1.569740	-0.396157	0.100175
C20	C	1.485089	-0.445991	0.184784
C21	C	1.400415	-0.396161	0.269391
C22	C	1.400401	-0.296506	0.269384
C23	C	1.400451	-0.603876	0.269400
C24	C	1.400466	-0.703538	0.269408
C25	C	1.569790	-0.703527	0.100191
C26	C	1.569776	-0.603871	0.100185
C27	C	1.485104	-0.554049	0.184793
C28	C	1.714631	-0.000021	0.177628
C29	C	1.854074	-0.000017	0.181319
N30	N	1.485131	0.246639	0.184806
C31	C	1.492263	-0.000025	-0.044740
C32	C	1.488571	-0.000023	-0.184183
C33	C	1.601113	-0.000025	-0.263669
C34	C	1.597636	-0.000013	-0.394690
C35	C	1.369067	-0.000002	-0.366727
C36	C	1.372544	-0.000007	-0.235708
C37	C	1.477925	-0.000011	0.414334
C38	C	1.481617	-0.000006	0.553777
H39	H	0.891612	-0.000014	-0.025712
H40	H	1.078563	-0.000002	0.395290
O41	O	1.141978	-0.000061	-0.036960
C42	C	1.268668	-0.000041	-0.009016
H43	H	1.274542	-0.030009	0.089674
H44	H	1.327382	-0.046011	-0.080683
H45	H	1.306525	0.075913	-0.013444
O46	O	1.713923	0.000013	-0.213824
C47	C	1.812508	-0.000006	-0.312082
H48	H	1.776526	0.029969	-0.401372
H49	H	1.893446	0.045960	-0.284000
H50	H	1.847272	-0.075960	-0.330330
O51	O	1.706926	0.000152	-0.471952
C52	C	1.711760	0.082142	-0.548576
H53	H	1.647966	0.139453	-0.501146
H54	H	1.812804	0.109660	-0.562416
H55	H	1.678422	0.063614	-0.644123
O56	O	0.828332	-0.000175	0.406630
C57	C	0.751674	-0.082157	0.411448
H58	H	0.799080	-0.139474	0.347644
H59	H	0.737820	-0.109670	0.512486
H60	H	0.656135	-0.063620	0.378112
H61	H	1.280894	-0.000003	-0.170987
O62	O	1.256472	-0.000037	-0.416989
C63	C	1.277532	-0.000013	-0.549674
H64	H	1.375268	-0.029988	-0.579589
H65	H	1.203216	-0.045976	-0.590545
H66	H	1.271139	0.075942	-0.586180
H67	H	1.638670	-0.255931	0.031283
H68	H	1.638680	-0.436722	0.031285
O69	O	1.651990	-0.751811	0.017826
C70	C	1.630490	-0.727492	-0.106696
H71	H	1.582068	-0.655144	-0.106995
H72	H	1.724360	-0.724070	-0.167658
H73	H	1.567659	-0.783595	-0.146125
H74	H	1.638712	-0.563297	0.031296
H75	H	1.331497	-0.563314	0.338293
O76	O	1.318052	-0.751911	0.351452
C77	C	1.193558	-0.727570	0.329871
H78	H	1.192093	-0.700175	0.229313
H79	H	1.130672	-0.793121	0.343705
H80	H	1.157241	-0.669732	0.399144
O81	O	1.318130	-0.444674	0.351406
C82	C	1.240062	-0.502324	0.283425
H83	H	1.289234	-0.517256	0.185613
H84	H	1.220662	-0.572400	0.335666
H85	H	1.147164	-0.463936	0.274026
H86	H	1.331457	-0.255941	0.338274
