data_functionalizedCrystal
_audit_creation_method	'MofGen! by Chris Wilmer'
_symmetry_space_group_name_H-M	'P1'
_symmetry_Int_Tables_number	1
_symmetry_cell_setting	triclinic
loop_
_symmetry_equiv_pos_as_xyz
  x,y,z
_cell_length_a	19.188933
_cell_length_b	19.188930
_cell_length_c	9.730223
_cell_angle_alpha	89.990488
_cell_angle_beta	89.998127
_cell_angle_gamma	83.145175
loop_
_atom_site_label
_atom_site_type_symbol
_atom_site_fract_x
_atom_site_fract_y
_atom_site_fract_z
O1	O	0.926143	0.087174	-0.114259
O2	O	0.722832	0.098907	-0.114274
O3	O	0.830354	-0.008615	-0.114240
O4	O	0.818620	0.194696	-0.114294
O5	O	0.830347	-0.008618	0.114340
O6	O	0.722825	0.098904	0.114306
O7	O	0.926136	0.087171	0.114320
Zn8	Zn	0.824479	0.093037	0.150605
Zn9	Zn	0.824488	0.093041	-0.150559
O10	O	0.818613	0.194693	0.114286
C11	C	0.696817	0.098525	0.000014
C12	C	0.619313	0.097384	0.000010
C13	C	0.829971	-0.034628	0.000054
C14	C	0.828830	-0.112132	0.000066
C15	C	0.066061	0.089240	-0.124572
C16	C	0.138885	0.090308	-0.124578
C17	C	0.175299	0.090844	0.000020
C18	C	0.138884	0.090294	0.124634
C19	C	0.066062	0.089218	0.124636
N20	N	0.284316	0.132261	0.092754
N21	N	0.353493	0.133284	0.092743
C22	C	0.394707	0.094082	0.000022
N23	N	0.364129	0.053827	-0.092710
N24	N	0.294945	0.052807	-0.092703
C25	C	0.254262	0.092009	0.000032
C26	C	0.510078	0.095785	-0.124590
C27	C	0.582904	0.096849	-0.124590
C28	C	0.582901	0.096842	0.124625
C29	C	0.510077	0.095771	0.124622
C30	C	0.473669	0.095246	0.000011
C31	C	0.891921	-0.157056	0.000077
C32	C	0.890849	-0.229880	0.000055
C33	C	0.826683	-0.257777	0.000049
C34	C	0.763584	-0.212843	0.000030
C35	C	0.764658	-0.140021	0.000039
N36	N	0.777634	-0.365783	0.077836
N37	N	0.776618	-0.434962	0.077831
C38	C	0.823445	-0.477185	0.000021
N39	N	0.871336	-0.447619	-0.077766
N40	N	0.872354	-0.378434	-0.077755
C41	C	0.825512	-0.336739	0.000040
C42	C	0.885378	-0.601073	0.000007
C43	C	0.884304	-0.673898	-0.000024
C44	C	0.757037	-0.656860	-0.000035
C45	C	0.758113	-0.584037	-0.000018
C46	C	0.822286	-0.556148	0.000009
C47	C	0.952150	0.087553	0.000029
C48	C	1.029655	0.088694	0.000024
C49	C	0.818997	0.220705	-0.000011
C50	C	0.820137	0.298210	-0.000032
N51	N	0.824478	0.093034	0.356141
N52	N	0.824495	0.093038	-0.356095
C53	C	0.872105	0.045443	0.428083
C54	C	0.872112	0.045443	0.571966
C55	C	0.776863	0.140631	0.571953
C56	C	0.776853	0.140627	0.428073
H57	H	0.036423	0.088810	-0.226041
H58	H	0.937631	-0.578365	0.000023
H59	H	0.704792	-0.679573	-0.000046
C60	C	0.178292	0.090946	-0.260005
C61	C	0.130818	0.090276	-0.369131
C62	C	0.167089	0.090877	-0.493905
H63	H	0.212155	0.050675	-0.265389
H64	H	0.201228	0.132092	-0.265245
H65	H	0.107894	0.049135	-0.363894
H66	H	0.096954	0.130544	-0.363793
H67	H	0.190026	0.132022	-0.499145
H68	H	0.200951	0.050604	-0.499275
H69	H	0.134884	0.090428	-0.567962
C70	C	0.178536	0.090913	0.259771
C71	C	0.250101	0.091992	0.233103
C72	C	0.286647	0.092569	0.357561
H73	H	0.172135	0.050041	0.311076
H74	H	0.161188	0.131458	0.310974
H75	H	0.267443	0.051452	0.181921
H76	H	0.256522	0.132862	0.181817
H77	H	0.269299	0.133113	0.408764
H78	H	0.280241	0.051696	0.408857
H79	H	0.335207	0.093308	0.339484
H80	H	0.612548	0.097275	0.226076
H81	H	0.738066	0.179382	0.369494
H82	H	0.910883	0.006689	0.369519
H83	H	0.935682	-0.710475	-0.000022
C84	C	0.961664	-0.126913	0.000027
C85	C	1.016687	-0.181848	-0.000003
C86	C	1.080943	-0.154106	-0.000069
H87	H	0.964824	-0.098878	0.079719
H88	H	0.964771	-0.098871	-0.079714
H89	H	1.013581	-0.209878	0.079729
H90	H	1.013550	-0.209888	-0.079689
H91	H	1.084051	-0.126064	-0.079809
H92	H	1.084096	-0.126071	0.079624
H93	H	1.118284	-0.191375	-0.000102
C94	C	0.026651	0.088668	0.260064
C95	C	0.074121	0.089380	0.369186
C96	C	0.037838	0.088884	0.493963
H97	H	0.003686	0.047555	0.265446
H98	H	-0.007191	0.128973	0.265310
H99	H	0.107951	0.049079	0.363943
H100	H	0.097088	0.130490	0.363850
H101	H	0.003996	0.129189	0.499209
H102	H	0.014874	0.047771	0.499330
H103	H	0.070040	0.089374	0.568017
C104	C	0.689537	-0.535374	0.000059
C105	C	0.633112	-0.575388	0.000086
C106	C	0.569927	-0.530584	0.000172
H107	H	0.687213	-0.506586	-0.079625
H108	H	0.687272	-0.506632	0.079807
H109	H	0.635377	-0.604118	-0.079654
H110	H	0.635414	-0.604175	0.079765
H111	H	0.567661	-0.501842	0.079920
H112	H	0.567609	-0.501798	-0.079514
H113	H	0.531635	-0.557727	0.000203
H114	H	0.480434	0.095328	0.226082
C115	C	0.470675	0.095179	-0.260019
C116	C	0.518153	0.095862	-0.369141
C117	C	0.481884	0.095296	-0.493918
H118	H	0.436820	0.135457	-0.265397
H119	H	0.447730	0.054040	-0.265268
H120	H	0.541087	0.136996	-0.363894
H121	H	0.552009	0.055586	-0.363808
H122	H	0.458939	0.054158	-0.499167
H123	H	0.448030	0.135576	-0.499282
H124	H	0.514093	0.095754	-0.567972
H125	H	0.738088	0.179382	0.630534
H126	H	0.612546	0.097289	-0.226056
H127	H	0.942227	-0.266463	0.000059
H128	H	0.910893	0.006690	0.630536
C129	C	0.693989	-0.243263	0.000096
C130	C	0.706551	-0.316654	0.000130
C131	C	0.642455	-0.344699	0.000202
H132	H	0.667969	-0.227899	-0.079597
H133	H	0.668010	-0.227876	0.079835
H134	H	0.732519	-0.332035	-0.079601
H135	H	0.732560	-0.332037	0.079817
H136	H	0.616476	-0.329312	0.079941
H137	H	0.616440	-0.329330	-0.079492
H138	H	0.650969	-0.394497	0.000238
H139	H	0.713280	-0.103444	0.000030
