data_functionalizedCrystal
_audit_creation_method	'MofGen! by Chris Wilmer'
_symmetry_space_group_name_H-M	'P1'
_symmetry_Int_Tables_number	1
_symmetry_cell_setting	triclinic
loop_
_symmetry_equiv_pos_as_xyz
  x,y,z
_cell_length_a	21.395362
_cell_length_b	10.686285
_cell_length_c	21.395355
_cell_angle_alpha	94.380557
_cell_angle_beta	90.043940
_cell_angle_gamma	85.645931
loop_
_atom_site_label
_atom_site_type_symbol
_atom_site_fract_x
_atom_site_fract_y
_atom_site_fract_z
Zn1	Zn	0.977081	-0.501939	0.335532
Zn2	Zn	1.477081	-0.001939	0.835532
Zn3	Zn	0.985062	-0.712908	0.222746
Zn4	Zn	1.485062	-0.212908	0.722746
Zn5	Zn	0.872298	-0.501998	0.230731
Zn6	Zn	1.372298	-0.001998	0.730731
Zn7	Zn	0.880345	-0.712934	0.327450
Zn8	Zn	1.380345	-0.212934	0.827450
O9	O	0.928696	-0.607445	0.279115
O10	O	1.428696	-0.107445	0.779115
O11	O	1.065816	-0.529889	0.320611
O12	O	1.565816	-0.029889	0.820611
O13	O	0.970076	-0.684945	0.136127
O14	O	1.470076	-0.184945	0.636127
O15	O	0.879490	-0.325422	0.251357
O16	O	1.379490	0.174578	0.751357
O17	O	1.071680	-0.684888	0.237748
O18	O	1.571680	-0.184888	0.737748
O19	O	0.956473	-0.325378	0.328354
O20	O	1.456473	0.174622	0.828354
O21	O	0.887229	-0.529990	0.141993
O22	O	1.387229	-0.029990	0.641993
O23	O	0.785689	-0.530015	0.243520
O24	O	1.285689	-0.030015	0.743520
O25	O	0.893204	-0.684932	0.416201
O26	O	1.393204	-0.184932	0.916201
O27	O	0.791601	-0.684989	0.314579
O28	O	1.291601	-0.184989	0.814579
O29	O	0.964276	-0.529915	0.422138
O30	O	1.464276	-0.029915	0.922138
O31	O	0.977879	-0.889481	0.229911
O32	O	1.477879	-0.389481	0.729911
O33	O	0.900944	-0.889500	0.306837
O34	O	1.400944	-0.389500	0.806837
C35	C	0.765911	-0.607512	0.279040
C36	C	1.265911	-0.107512	0.779040
C37	C	0.696272	-0.607571	0.279021
C38	C	1.196272	-0.107571	0.779021
C39	C	0.666658	-0.688373	0.315957
C40	C	1.166658	-0.188373	0.815957
C41	C	0.601221	-0.688342	0.315987
C42	C	1.101221	-0.188342	0.815987
C43	C	0.565402	-0.607522	0.279068
C44	C	1.065402	-0.107522	0.779068
C45	C	0.595024	-0.526705	0.242129
C46	C	1.095024	-0.026705	0.742129
C47	C	0.660459	-0.526729	0.242106
C48	C	1.160459	-0.026729	0.742106
C49	C	0.461288	-0.597357	0.223048
C50	C	0.961288	-0.097357	0.723048
C51	C	0.395855	-0.597342	0.223070
C52	C	0.895855	-0.097342	0.723070
C53	C	0.363578	-0.607440	0.279140
C54	C	0.863578	-0.107440	0.779140
C55	C	0.396745	-0.617580	0.335189
C56	C	0.896745	-0.117580	0.835189
C57	C	0.462180	-0.617604	0.335165
C58	C	0.962180	-0.117604	0.835165
C59	C	0.494448	-0.607486	0.279089
C60	C	0.994448	-0.107486	0.779089
C61	C	0.263010	-0.688213	0.316111
C62	C	0.763010	-0.188213	0.816111
C63	C	0.197572	-0.688173	0.316141
C64	C	0.697572	-0.188173	0.816141
C65	C	0.191376	-0.526542	0.242278
C66	C	0.691376	-0.026542	0.742278
C67	C	0.256813	-0.526575	0.242254
C68	C	0.756813	-0.026575	0.742254
C69	C	0.292626	-0.607417	0.279169
C70	C	0.792626	-0.107417	0.779169
C71	C	0.941168	-0.935273	0.266644
C72	C	1.441168	-0.435273	0.766644
C73	C	0.946560	-1.075519	0.261330
C74	C	1.446560	-0.575519	0.761330
C75	C	1.092117	-0.607379	0.279191
C76	C	1.592117	-0.107379	0.779191
C77	C	1.161757	-0.607351	0.279223
C78	C	1.661757	-0.107351	0.779223
C79	C	0.928747	-0.607420	0.442539
C80	C	1.428747	-0.107420	0.942539
C81	C	0.928769	-0.607409	0.512181
C82	C	1.428769	-0.107409	1.012181
C83	C	0.916194	-0.278338	0.291648
C84	C	1.416194	0.221662	0.791648
C85	C	0.910866	-0.138091	0.296989
C86	C	1.410866	0.361909	0.796989
C87	C	0.928678	-0.607380	0.116330
C88	C	1.428678	-0.107380	0.616330
C89	C	0.928764	-0.607035	0.046702
C90	C	1.428764	-0.107035	0.546702
C91	C	0.965774	-0.526688	0.547987
C92	C	1.465774	-0.026688	1.047987
C93	C	0.965771	-0.526634	0.613424
C94	C	1.465771	-0.026634	1.113424
C95	C	0.928771	-0.607323	0.643053
C96	C	1.428771	-0.107323	1.143053
C97	C	0.891758	-0.688049	0.607238
C98	C	1.391758	-0.188049	1.107238
C99	C	0.891757	-0.688092	0.541802
C100	C	1.391757	-0.188092	1.041802
C101	C	0.928146	-0.720937	0.742404
C102	C	1.428146	-0.220937	1.242404
C103	C	0.928151	-0.720896	0.807838
C104	C	1.428151	-0.220896	1.307838
C105	C	0.928770	-0.607189	0.844878
C106	C	1.428770	-0.107189	1.344878
C107	C	0.929396	-0.493520	0.816476
C108	C	1.429396	0.006480	1.316476
C109	C	0.929395	-0.493563	0.751040
C110	C	1.429395	0.006437	1.251040
C111	C	0.928767	-0.607284	0.714006
C112	C	1.428767	-0.107284	1.214006
C113	C	0.965773	-0.526403	0.951640
C114	C	1.465773	-0.026403	1.451640
C115	C	0.965766	-0.526347	1.017078
C116	C	1.465766	-0.026347	1.517078
C117	C	0.891756	-0.687773	1.010891
C118	C	1.391756	-0.187773	1.510891
C119	C	0.891760	-0.687818	0.945453
C120	C	1.391760	-0.187818	1.445453
C121	C	0.928772	-0.607135	0.915832
C122	C	1.428772	-0.107135	1.415832
H123	H	0.577105	-0.754140	0.346067
H124	H	1.077105	-0.254140	0.846067
N125	N	0.851850	-0.775089	0.639183
N126	N	1.351850	-0.275089	1.139183
H127	H	0.806340	-0.755510	0.628504
H128	H	1.306340	-0.255510	1.128504
H129	H	0.857514	-0.762785	0.686061
H130	H	1.357514	-0.262785	1.186061
N131	N	0.864925	-1.066932	0.342817
N132	N	1.364925	-0.566932	0.842817
H133	H	0.875500	-1.089742	0.386742
H134	H	1.375500	-0.589742	0.886742
H135	H	0.821054	-1.089934	0.332114
H136	H	1.321054	-0.589934	0.832114
N137	N	0.992503	-1.146685	0.215500
N138	N	1.492503	-0.646685	0.715500
H139	H	1.036393	-1.123713	0.226148
H140	H	1.536393	-0.623713	0.726148
H141	H	0.981874	-1.123846	0.171593
H142	H	1.481874	-0.623846	0.671593
N143	N	1.005691	-0.439667	0.516038
N144	N	1.505691	0.060333	1.016038
H145	H	1.029133	-0.388521	0.548655
H146	H	1.529133	0.111479	1.048655
H147	H	0.977970	-0.381299	0.491087
H148	H	1.477970	0.118701	0.991087
H149	H	0.861620	-0.753823	0.512649
H150	H	1.361620	-0.253823	1.012649
N151	N	1.005685	-0.439567	0.652055
N152	N	1.505685	0.060433	1.152055
H153	H	1.029130	-0.388461	0.623360
H154	H	1.529130	0.111539	1.123360
H155	H	1.036628	-0.490910	0.677275
H156	H	1.536628	0.009090	1.177275
N157	N	0.930070	-0.370968	0.720411
N158	N	1.430070	0.129032	1.220411
H159	H	0.891696	-0.314508	0.733914
H160	H	1.391696	0.185492	1.233914
H161	H	0.930000	-0.388356	0.673346
H162	H	1.430000	0.111644	1.173346
N163	N	0.705285	-0.775562	0.355772
N164	N	1.205285	-0.275562	0.855772
H165	H	0.676591	-0.826745	0.379175
H166	H	1.176591	-0.326745	0.879175
H167	H	0.730529	-0.724301	0.386752
H168	H	1.230529	-0.224301	0.886752
N169	N	0.930069	-0.370869	0.856416
N170	N	1.430069	0.129131	1.356416
H171	H	0.929973	-0.388084	0.902179
H172	H	1.429973	0.111916	1.402179
H173	H	0.891696	-0.314477	0.847091
H174	H	1.391696	0.185523	1.347091
H175	H	0.861631	-0.753558	0.916299
H176	H	1.361631	-0.253558	1.416299
N177	N	1.005702	-0.439404	0.919686
N178	N	1.505702	0.060596	1.419686
H179	H	1.000097	-0.451698	0.872798
H180	H	1.500097	0.048302	1.372798
H181	H	1.051189	-0.459051	0.930424
H182	H	1.551189	0.040949	1.430424
H183	H	0.995899	-0.460607	1.046231
H184	H	1.495899	0.039393	1.546231
N185	N	0.851842	-0.774794	1.042837
N186	N	1.351842	-0.274794	1.542837
H187	H	0.857455	-0.762517	1.089724
H188	H	1.357455	-0.262517	1.589724
H189	H	0.865015	-0.864914	1.027988
H190	H	1.365015	-0.364914	1.527988
N191	N	0.497953	-0.628537	0.395612
N192	N	0.997953	-0.128537	0.895612
H193	H	0.467582	-0.634933	0.431138
H194	H	0.967582	-0.134933	0.931138
H195	H	0.522204	-0.551685	0.404404
H196	H	1.022204	-0.051685	0.904404
N197	N	0.927477	-0.843486	0.838471
N198	N	1.427477	-0.343486	1.338471
H199	H	0.965847	-0.899953	0.824964
H200	H	1.465847	-0.399953	1.324964
H201	H	0.888532	-0.886332	0.825416
H202	H	1.388532	-0.386332	1.325416
N203	N	0.361944	-0.628479	0.395669
N204	N	0.861944	-0.128479	0.895669
H205	H	0.315458	-0.626919	0.387183
H206	H	0.815458	-0.126919	0.887183
H207	H	0.370661	-0.555602	0.426509
H208	H	0.870661	-0.055602	0.926509
H209	H	0.565855	-0.460899	0.212071
H210	H	1.065855	0.039101	0.712071
N211	N	0.927487	-0.843586	0.702455
N212	N	1.427487	-0.343586	1.202455
H213	H	0.927100	-0.915586	0.730376
H214	H	1.427100	-0.415586	1.230376
H215	H	0.966110	-0.855287	0.674895
H216	H	1.466110	-0.355287	1.174895
H217	H	0.292171	-0.754032	0.346173
H218	H	0.792171	-0.254032	0.846173
H219	H	0.162212	-0.460731	0.212221
H220	H	0.662212	0.039269	0.712221
N221	N	0.165628	-0.775332	0.355980
N222	N	0.665628	-0.275332	0.855980
H223	H	0.198248	-0.826550	0.379357
H224	H	0.698248	-0.326550	0.879357
H225	H	0.140655	-0.833626	0.328212
H226	H	0.640655	-0.333626	0.828212
H227	H	0.368856	-0.589093	0.177431
H228	H	0.868856	-0.089093	0.677431
N229	N	0.288759	-0.439416	0.202419
N230	N	0.788759	0.060584	0.702419
H231	H	0.256140	-0.388207	0.179037
H232	H	0.756140	0.111793	0.679037
H233	H	0.317817	-0.490689	0.171420
H234	H	0.817817	0.009311	0.671420
H235	H	0.487562	-0.589129	0.177387
H236	H	0.987562	-0.089129	0.677387
N237	N	0.692404	-0.439566	0.202271
N238	N	1.192404	0.060434	0.702271
H239	H	0.659786	-0.388353	0.178889
H240	H	1.159786	0.111647	0.678889
H241	H	0.721460	-0.490843	0.171271
H242	H	1.221460	0.009157	0.671271
