data_functionalizedCrystal
_audit_creation_method	'MofGen! by Chris Wilmer'
_symmetry_space_group_name_H-M	'P1'
_symmetry_Int_Tables_number	1
_symmetry_cell_setting	triclinic
loop_
_symmetry_equiv_pos_as_xyz
  x,y,z
_cell_length_a	11.169417
_cell_length_b	18.050589
_cell_length_c	18.050582
_cell_angle_alpha	89.981795
_cell_angle_beta	89.988436
_cell_angle_gamma	90.029099
loop_
_atom_site_label
_atom_site_type_symbol
_atom_site_fract_x
_atom_site_fract_y
_atom_site_fract_z
Zn1	Zn	1.834715	-0.295689	-0.419869
Zn2	Zn	1.834571	-0.419873	-0.295688
Zn3	Zn	1.634030	-0.295703	-0.295700
Zn4	Zn	1.633946	-0.419844	-0.419844
O5	O	1.734316	-0.357777	-0.357775
O6	O	2.002646	-0.312169	-0.403401
O7	O	1.807944	-0.403419	-0.191765
O8	O	1.660747	-0.191776	-0.312187
O9	O	2.002540	-0.403406	-0.312166
O10	O	1.808190	-0.191766	-0.403413
O11	O	1.660607	-0.312192	-0.191774
O12	O	1.466069	-0.312164	-0.312163
O13	O	1.660604	-0.403357	-0.523772
O14	O	1.466008	-0.403370	-0.403370
O15	O	1.808108	-0.312141	-0.523790
O16	O	1.807862	-0.523793	-0.312142
O17	O	1.660464	-0.523772	-0.403359
C18	C	1.422491	-0.357766	-0.357766
C19	C	1.289091	-0.357779	-0.357779
C20	C	1.734171	-0.550729	-0.357763
C21	C	1.734219	-0.633275	-0.357782
C22	C	1.654142	-0.832741	-0.407369
C23	C	1.624895	-0.882175	-0.339602
C24	C	1.734336	-0.784405	-0.357792
C25	C	1.763643	-0.882053	-0.425566
C26	C	1.734448	-0.930390	-0.357807
C27	C	1.705031	-0.832752	-0.289990
C28	C	1.843831	-0.832625	-0.375999
C29	C	1.814625	-0.882037	-0.308186
C30	C	1.734269	-0.700307	-0.357784
C31	C	1.734516	-1.014487	-0.357808
C32	C	2.047358	-0.357789	-0.357785
C33	C	2.180758	-0.357794	-0.357789
C34	C	1.734363	-0.357744	-0.551481
C35	C	1.734383	-0.357730	-0.634027
C36	C	1.734494	-0.164071	-0.357804
C37	C	1.734570	-0.081526	-0.357816
C38	C	1.654231	-0.407266	-0.833467
C39	C	1.763729	-0.425418	-0.882856
C40	C	1.734442	-0.357673	-0.785157
C41	C	1.625005	-0.339500	-0.882850
C42	C	1.734489	-0.357620	-0.931142
C43	C	1.843997	-0.375861	-0.833459
C44	C	1.705199	-0.289912	-0.833448
C45	C	1.814772	-0.308039	-0.882814
C46	C	1.734413	-0.357706	-0.701059
C47	C	1.734531	-0.357587	-1.015239
C48	C	1.734338	-0.357756	-0.164823
C49	C	1.734550	-0.357561	-0.082278
H50	H	1.586225	-0.811095	-0.449235
C51	C	1.671464	-0.803629	-0.212543
C52	C	1.759796	-0.754269	-0.169478
C53	C	1.726230	-0.725146	-0.092033
C54	C	1.604331	-0.745383	-0.057652
C55	C	1.515991	-0.794747	-0.100716
C56	C	1.549557	-0.823870	-0.178162
H57	H	1.850040	-0.739285	-0.194929
H58	H	1.791625	-0.688604	-0.060154
H59	H	1.579483	-0.723825	-0.000322
H60	H	1.425747	-0.809730	-0.075266
H61	H	1.484162	-0.860412	-0.210041
H62	H	1.936353	-0.810846	-0.391418
C63	C	1.797181	-0.502799	-0.912181
C64	C	1.918630	-0.537498	-0.891597
C65	C	1.952071	-0.614880	-0.920918
C66	C	1.864065	-0.657563	-0.970825
C67	C	1.742609	-0.622864	-0.991412
C68	C	1.709167	-0.545482	-0.962090
H69	H	1.983784	-0.505901	-0.854651
H70	H	2.041982	-0.640566	-0.905678
H71	H	1.888820	-0.714846	-0.992530
H72	H	1.677454	-0.654461	-1.028358
H73	H	1.619257	-0.519796	-0.977331
C74	C	1.797078	-0.911308	-0.502986
C75	C	1.918503	-0.890628	-0.537744
C76	C	1.951926	-0.919880	-0.615164
C77	C	1.863923	-0.969811	-0.657827
C78	C	1.742490	-0.990494	-0.623069
C79	C	1.709067	-0.961243	-0.545649
H80	H	1.983655	-0.853663	-0.506162
H81	H	2.041819	-0.904568	-0.640894
H82	H	1.888665	-0.991465	-0.715139
H83	H	1.677339	-1.027459	-0.654651
H84	H	1.619174	-0.976554	-0.519919
C85	C	1.906300	-0.911104	-0.251492
C86	C	2.039478	-0.890355	-0.259141
C87	C	2.131143	-0.919423	-0.202443
C88	C	2.089629	-0.969240	-0.138096
C89	C	1.956444	-0.989991	-0.130444
C90	C	1.864779	-0.960923	-0.187142
H91	H	2.070215	-0.853476	-0.306777
H92	H	2.229736	-0.904062	-0.208108
H93	H	2.157485	-0.990758	-0.096125
H94	H	1.925707	-1.026871	-0.082808
H95	H	1.766186	-0.976284	-0.181477
H96	H	1.882702	-0.266078	-0.904345
C97	C	1.969092	-0.396690	-0.804283
C98	C	2.078257	-0.348567	-0.824381
C99	C	2.203349	-0.369398	-0.795206
C100	C	2.219276	-0.438350	-0.745933
C101	C	2.110108	-0.486477	-0.725833
C102	C	1.985016	-0.465647	-0.755008
H103	H	2.066469	-0.297521	-0.860858
H104	H	2.284162	-0.333771	-0.810085
H105	H	2.311877	-0.453770	-0.724336
H106	H	2.121895	-0.537524	-0.689356
H107	H	1.904203	-0.501274	-0.740128
H108	H	1.532435	-0.324152	-0.904546
H109	H	1.586463	-0.449259	-0.811801
C110	C	1.671706	-0.212553	-0.804098
C111	C	1.549321	-0.178463	-0.823546
C112	C	1.515812	-0.101103	-0.794194
C113	C	1.604688	-0.057834	-0.745394
C114	C	1.727080	-0.091924	-0.725943
C115	C	1.760589	-0.169283	-0.755295
H116	H	1.483523	-0.210494	-0.859674
H117	H	1.425209	-0.075868	-0.808593
H118	H	1.579882	-0.000568	-0.723666
H119	H	1.792878	-0.059893	-0.689816
H120	H	1.851193	-0.194518	-0.740896
H121	H	1.532351	-0.903956	-0.324217
