data_functionalizedCrystal
_audit_creation_method	'MofGen! by Chris Wilmer'
_symmetry_space_group_name_H-M	'P1'
_symmetry_Int_Tables_number	1
_symmetry_cell_setting	triclinic
loop_
_symmetry_equiv_pos_as_xyz
  x,y,z
_cell_length_a	23.096457
_cell_length_b	21.606444
_cell_length_c	21.606444
_cell_angle_alpha	59.991153
_cell_angle_beta	89.999780
_cell_angle_gamma	60.001161
loop_
_atom_site_label
_atom_site_type_symbol
_atom_site_fract_x
_atom_site_fract_y
_atom_site_fract_z
Zr1	Zr	0.557776	0.677499	-0.081349
O2	O	0.465321	0.806636	-0.180195
O3	O	0.586117	0.548367	-0.051032
O4	O	0.586112	0.677503	-0.180176
O5	O	0.465332	0.677496	0.050803
O6	O	0.681394	0.677500	-0.180178
O7	O	0.465327	0.677500	-0.051051
O8	O	0.681404	0.446500	0.050837
O9	O	0.465322	0.908496	-0.180212
O10	O	0.669313	0.601477	-0.038122
O11	O	0.598209	0.601476	0.037892
O12	O	0.598203	0.753517	-0.114158
O13	O	0.527098	0.753515	-0.038144
Zr14	Zr	0.709748	0.677488	0.081093
Zr15	Zr	0.709740	0.677495	-0.081352
Zr16	Zr	0.557783	0.677492	0.081097
Zr17	Zr	0.557776	0.839954	-0.081376
Zr18	Zr	0.709747	0.515033	0.081121
O19	O	0.681406	0.806620	0.050777
O20	O	0.681395	0.806630	-0.180200
O21	O	0.465332	0.806626	0.050782
O22	O	0.802202	0.548351	0.179940
O23	O	0.802191	0.548361	-0.051037
O24	O	0.586128	0.548357	0.179945
O25	O	0.802192	0.677492	-0.051059
O26	O	0.681411	0.677485	0.179921
O27	O	0.586129	0.677487	0.179923
O28	O	0.802197	0.677487	0.050796
O29	O	0.586113	0.908493	-0.180215
O30	O	0.681410	0.446494	0.179959
O31	O	0.802201	0.446491	0.179957
O32	O	0.802195	0.446497	0.050834
O33	O	0.465328	0.908491	-0.051090
O34	O	0.586119	0.908487	-0.051092
O35	O	0.669321	0.601471	0.113903
O36	O	0.740425	0.601472	0.037889
O37	O	0.669314	0.753512	-0.038148
O38	O	0.598210	0.753510	0.037867
C39	C	0.633761	0.474287	-0.000094
C40	C	0.633760	0.405321	-0.000082
C41	C	0.581264	0.429059	-0.056209
C42	C	0.581266	0.364270	-0.056225
C43	C	0.633762	0.275743	-0.000110
C44	C	0.686263	0.252004	0.056020
C45	C	0.686264	0.316793	0.056032
C46	C	0.686263	-0.009282	0.055973
C47	C	0.686257	-0.074071	0.055958
C48	C	0.581265	0.038195	-0.056285
C49	C	0.581265	0.102983	-0.056273
C50	C	0.633769	0.079240	-0.000145
C51	C	0.633767	0.149492	-0.000130
C52	C	0.633761	0.205491	-0.000122
C53	C	0.443677	0.677499	-0.000123
C54	C	0.379165	0.677500	-0.000122
C55	C	0.348859	0.677509	-0.056238
C56	C	0.288247	0.677501	-0.056238
C57	C	0.257934	0.677502	-0.000127
C58	C	0.288249	0.677488	0.055998
C59	C	0.348865	0.677487	0.056001
N60	N	0.139583	0.727058	0.016852
N61	N	0.082000	0.727061	0.016844
C62	C	0.075305	0.677502	-0.000131
N63	N	0.128362	0.627952	-0.017114
N64	N	0.185949	0.627953	-0.017110
C65	C	0.192207	0.677502	-0.000124
C66	C	-0.020723	0.677501	-0.056250
C67	C	-0.081334	0.677488	-0.056245
C68	C	-0.081334	0.677484	0.055988
C69	C	-0.020720	0.677488	0.055986
C70	C	0.009580	0.677501	-0.000137
C71	C	0.823846	0.677489	-0.000132
C72	C	0.888359	0.677487	-0.000133
C73	C	0.633752	0.677502	-0.203322
C74	C	0.633749	0.677505	-0.272285
C75	C	0.633763	0.880700	-0.000162
C76	C	0.633763	0.949667	-0.000173
C77	C	0.596629	0.756868	-0.344374
C78	C	0.596635	0.756865	-0.409169
C79	C	0.633757	0.677500	-0.401873
C80	C	0.670881	0.598131	-0.329776
C81	C	0.670879	0.598135	-0.264983
C82	C	0.670893	0.598116	-0.591079
C83	C	0.670890	0.598119	-0.655880
C84	C	0.596649	0.756847	-0.735265
C85	C	0.596647	0.756850	-0.670471
C86	C	0.633773	0.677482	-0.598381
C87	C	0.633767	0.677486	-0.528123
C88	C	0.633759	0.677495	-0.472129
C89	C	0.633771	0.677485	0.203067
C90	C	0.633775	0.677482	0.272029
C91	C	0.823845	0.474282	-0.000098
C92	C	0.888357	0.405314	-0.000088
C93	C	0.633770	0.474278	0.203101
C94	C	0.633773	0.405309	0.272075
C95	C	0.823854	0.474273	0.203097
C96	C	0.888370	0.405302	0.272069
C97	C	0.443669	0.880714	-0.203352
C98	C	0.379153	0.949685	-0.272324
C99	C	0.443679	0.880705	-0.000157
C100	C	0.379166	0.949673	-0.000167
C101	C	0.633753	0.880709	-0.203356
C102	C	0.633750	0.949679	-0.272330
C103	C	0.881533	0.372929	-0.039767
C104	C	0.942144	0.308135	-0.039773
C105	C	1.009578	0.275723	-0.000094
C106	C	1.016400	0.308115	0.039586
C107	C	0.955790	0.372912	0.039587
C108	C	0.670894	0.372917	0.344149
C109	C	0.670894	0.308122	0.408964
C110	C	0.633777	0.275715	0.401702
C111	C	0.596651	0.308113	0.329620
C112	C	0.596648	0.372912	0.264807
C113	C	0.955790	0.372914	0.264781
C114	C	1.016415	0.308117	0.329581
C115	C	1.009619	0.275706	0.401670
C116	C	0.942192	0.308101	0.408957
C117	C	0.881569	0.372901	0.344157
C118	C	0.311734	0.982082	-0.265036
C119	C	0.251108	1.046898	-0.329837
C120	C	0.257904	1.079313	-0.401925
C121	C	0.325331	1.046914	-0.409212
C122	C	0.385955	0.982102	-0.344412
C123	C	0.385990	0.982066	0.039505
C124	C	0.325379	1.046877	0.039493
C125	C	0.257946	1.079291	-0.000188
C126	C	0.251123	1.046896	-0.039865
C127	C	0.311733	0.982090	-0.039857
C128	C	0.670875	0.982065	-0.265044
C129	C	0.670886	1.046860	-0.329846
C130	C	0.633768	1.079273	-0.401934
C131	C	0.596642	1.046880	-0.409218
C132	C	0.596636	0.982081	-0.344417
H133	H	0.538517	0.383606	-0.101929
Br134	Br	0.247111	0.677511	-0.132401
H135	H	0.196213	1.073267	-0.323889
H136	H	1.058924	0.222960	-0.000101
H137	H	0.936670	0.281702	0.467660
H138	H	0.729009	0.179919	0.101707
H139	H	0.566422	1.073280	-0.467921
Br140	Br	0.633783	1.167216	-0.489872
Br141	Br	0.932868	0.264186	-0.093626
Br142	Br	0.721284	0.264167	0.506780
H143	H	0.701122	0.533486	-0.649932
Br144	Br	0.302459	0.938133	-0.093699
H145	H	0.633786	0.222953	0.454483
H146	H	1.071313	0.281716	0.071890
H147	H	0.330856	1.073314	-0.467914
Br148	Br	0.477450	0.938139	-0.354317
Br149	Br	0.020402	0.677514	-0.132414
H150	H	0.566420	0.821472	-0.793971
Br151	Br	0.510011	0.549201	-0.132365
Br152	Br	0.965064	0.416852	0.093447
H153	H	0.566432	0.281718	0.323719
Br154	Br	0.757516	0.284574	0.132202
Br155	Br	0.721277	0.416879	0.354026
H156	H	0.701100	0.955685	-0.206353
H157	H	0.729015	-0.028626	0.101675
Br158	Br	0.175696	1.167244	-0.000191
H159	H	1.071311	0.281747	0.323635
Br160	Br	0.159600	1.090894	-0.093711
H161	H	0.373529	0.677516	-0.101935
H162	H	0.538515	0.175065	-0.101965
H163	H	0.701117	1.073228	-0.323900
Br164	Br	0.247118	0.677480	0.132154
H165	H	0.566422	0.399276	0.206123
H166	H	0.961336	0.399293	0.206088
Br167	Br	1.091902	0.187762	0.489606
H168	H	0.373540	0.677480	0.101698
Br169	Br	0.175621	1.167272	-0.489862
Br170	Br	0.546244	0.864584	-0.354284
H171	H	-0.106006	0.677490	-0.101940
Br172	Br	-0.122461	0.677471	0.132146
H173	H	0.826675	0.399263	0.350102
Br174	Br	0.302491	0.938102	-0.167210
H175	H	0.566401	0.955720	-0.350360
Br176	Br	0.020412	0.677480	0.132144
H177	H	0.566415	0.821478	-0.676419
Br178	Br	0.510009	0.070417	-0.132460
H179	H	0.440892	0.955679	0.071822
H180	H	0.701124	0.533490	-0.532389
Br181	Br	0.757506	-0.194221	0.132120
Br182	Br	0.546257	0.864576	-0.507004
H183	H	0.701111	0.533510	-0.323841
Br184	Br	0.721269	0.490424	-0.167145
H185	H	0.826631	0.399317	-0.072087
H186	H	0.330948	1.073242	0.071805
