data_functionalizedCrystal
_audit_creation_method	'MofGen! by Chris Wilmer'
_symmetry_space_group_name_H-M	'P1'
_symmetry_Int_Tables_number	1
_symmetry_cell_setting	triclinic
loop_
_symmetry_equiv_pos_as_xyz
  x,y,z
_cell_length_a	11.792254
_cell_length_b	10.654536
_cell_length_c	10.868271
_cell_angle_alpha	90.012111
_cell_angle_beta	90.005560
_cell_angle_gamma	84.340289
loop_
_atom_site_label
_atom_site_type_symbol
_atom_site_fract_x
_atom_site_fract_y
_atom_site_fract_z
O1	O	-1.507294	-0.172206	-0.102389
O2	O	-1.176996	-0.189930	-0.102387
O3	O	-1.349743	0.001693	-0.102346
O4	O	-1.334547	-0.363829	-0.102429
O5	O	-1.349728	0.001687	0.102299
O6	O	-1.176980	-0.189936	0.102258
O7	O	-1.507279	-0.172212	0.102256
Zn8	Zn	-1.342127	-0.181075	0.134749
Zn9	Zn	-1.342148	-0.181067	-0.134879
O10	O	-1.334531	-0.363835	0.102215
C11	C	-1.134695	-0.188816	-0.000063
C12	C	-1.008674	-0.185474	-0.000061
C13	C	-0.906331	-0.182759	-0.000063
C14	C	-0.777937	-0.179364	-0.000060
C15	C	-1.348622	0.048485	-0.000016
C16	C	-1.345288	0.187920	0.000008
N17	N	-1.342121	-0.181080	0.318763
C18	C	-0.549580	-0.173325	-0.000064
C19	C	-0.675600	-0.176667	-0.000057
C20	C	-1.551852	0.216465	0.000026
C21	C	-1.653563	0.296242	0.000050
C22	C	-1.650424	0.427251	0.000070
C23	C	-1.545563	0.478485	0.000064
C24	C	-1.443852	0.398708	0.000040
C25	C	-1.447002	0.267697	0.000023
C26	C	-1.237290	0.370164	0.000014
C27	C	-1.240427	0.239154	0.000002
C28	C	-1.132429	0.421398	0.000007
C29	C	-1.030715	0.341620	-0.000008
C30	C	-1.033859	0.210604	-0.000027
C31	C	-1.138716	0.159377	-0.000022
C32	C	-1.335657	0.589374	-0.000071
C33	C	-1.339002	0.449941	0.000037
N34	N	-1.342162	-0.181052	-0.318893
C35	C	-1.342130	-0.181080	0.430100
C36	C	-1.342145	-0.181068	0.569778
H37	H	-1.554418	0.109791	0.000026
H38	H	-1.738939	0.254512	0.000066
H39	H	-1.733246	0.492207	0.000080
H40	H	-0.951032	0.145655	-0.000052
H41	H	-1.543016	0.585162	0.000065
H42	H	-1.129880	0.528074	0.000016
H43	H	-1.141285	0.052704	-0.000030
C44	C	-0.915384	0.397979	-0.000014
H45	H	-0.928083	0.487429	0.000003
H46	H	-0.873469	0.370638	-0.071381
H47	H	-0.873455	0.370657	0.071356
