data_functionalizedCrystal
_audit_creation_method	'MofGen! by Chris Wilmer'
_symmetry_space_group_name_H-M	'P1'
_symmetry_Int_Tables_number	1
_symmetry_cell_setting	triclinic
loop_
_symmetry_equiv_pos_as_xyz
  x,y,z
_cell_length_a	18.215407
_cell_length_b	12.827892
_cell_length_c	18.215399
_cell_angle_alpha	89.976162
_cell_angle_beta	89.983101
_cell_angle_gamma	90.012851
loop_
_atom_site_label
_atom_site_type_symbol
_atom_site_fract_x
_atom_site_fract_y
_atom_site_fract_z
Zn1	Zn	1.125120	-0.416115	-0.416079
Zn2	Zn	1.125049	-0.590874	-0.293022
Zn3	Zn	1.002053	-0.416140	-0.293033
Zn4	Zn	1.002039	-0.590807	-0.416053
O5	O	1.063566	-0.503484	-0.354547
O6	O	1.228095	-0.439314	-0.399762
O7	O	1.108710	-0.567734	-0.190039
O8	O	1.018414	-0.269900	-0.309371
O9	O	1.228043	-0.567709	-0.309352
O10	O	1.108831	-0.269882	-0.399773
O11	O	1.018345	-0.439357	-0.190047
O12	O	0.899067	-0.439292	-0.309345
O13	O	1.018390	-0.567595	-0.519041
O14	O	0.899057	-0.567619	-0.399728
O15	O	1.108818	-0.439249	-0.519060
O16	O	1.108696	-0.737101	-0.309327
O17	O	1.018321	-0.737052	-0.399717
C18	C	0.872359	-0.503452	-0.354535
C19	C	0.790560	-0.503463	-0.354548
C20	C	0.525517	-0.570413	-0.401544
C21	C	0.602376	-0.570404	-0.401541
C22	C	0.602355	-0.436578	-0.307562
C23	C	0.525498	-0.436593	-0.307563
C24	C	0.487081	-0.503509	-0.354558
C25	C	0.640797	-0.503485	-0.354554
C26	C	0.724131	-0.503475	-0.354550
C27	C	0.403742	-0.503521	-0.354561
C28	C	1.063519	-0.774994	-0.354534
C29	C	1.063567	-0.891147	-0.354553
C30	C	1.108341	-0.942921	-0.309874
C31	C	1.108391	-1.062972	-0.309893
C32	C	1.255518	-0.503517	-0.354559
C33	C	1.337317	-0.503531	-0.354564
C34	C	1.063610	-0.503412	-0.546500
C35	C	1.063629	-0.503381	-0.628299
C36	C	1.063632	-0.230914	-0.354576
C37	C	1.063660	-0.114760	-0.354588
C38	C	1.110732	-0.436489	-0.816504
C39	C	1.110741	-0.436459	-0.893363
C40	C	1.016579	-0.570111	-0.893331
C41	C	1.016567	-0.570136	-0.816474
C42	C	1.063648	-0.503326	-0.778062
C43	C	1.063668	-0.503271	-0.931778
C44	C	1.063678	-0.503239	-1.015112
C45	C	1.063638	-0.503357	-0.694723
C46	C	1.063563	-0.503480	-0.163341
C47	C	1.063687	-0.503216	-0.081542
H48	H	0.494203	-0.382109	-0.269297
H49	H	1.025323	-1.070243	-0.392839
F50	F	1.013515	-0.949372	-0.404573
F51	F	0.643279	-0.641616	-0.451549
F52	F	1.158401	-0.884696	-0.259862
F53	F	1.160837	-0.365382	-0.775626
H54	H	1.149080	-0.382031	-0.924659
H55	H	1.146721	-1.107497	-0.271640
F56	F	0.484633	-0.641634	-0.451559
F57	F	0.966478	-0.641215	-0.934218
H58	H	0.633644	-0.382095	-0.269301
F59	F	0.966448	-0.641272	-0.775559
