data_functionalizedCrystal
_audit_creation_method	'MofGen! by Chris Wilmer'
_symmetry_space_group_name_H-M	'P1'
_symmetry_Int_Tables_number	1
_symmetry_cell_setting	triclinic
loop_
_symmetry_equiv_pos_as_xyz
  x,y,z
_cell_length_a	14.044220
_cell_length_b	11.026607
_cell_length_c	10.065875
_cell_angle_alpha	79.268236
_cell_angle_beta	99.550528
_cell_angle_gamma	100.887447
loop_
_atom_site_label
_atom_site_type_symbol
_atom_site_fract_x
_atom_site_fract_y
_atom_site_fract_z
O1	O	-1.319580	-0.281448	-0.113335
O2	O	-1.041779	-0.270687	-0.113370
O3	O	-1.157655	-0.096922	-0.113350
O4	O	-1.203704	-0.455212	-0.113354
O5	O	-1.135584	-0.130202	0.113635
O6	O	-1.019708	-0.303966	0.113615
O7	O	-1.297509	-0.314727	0.113650
Zn8	Zn	-1.155104	-0.314631	0.149672
Zn9	Zn	-1.184184	-0.270783	-0.149391
O10	O	-1.181633	-0.488492	0.113631
C11	C	-0.994626	-0.282618	0.000118
C12	C	-0.887005	-0.268572	0.000105
C13	C	-1.138125	-0.067431	0.000140
C14	C	-1.112801	0.070025	0.000132
C15	C	-1.344662	-0.302796	0.000160
C16	C	-1.452284	-0.316840	0.000164
C17	C	-0.689960	-0.242901	0.000132
C18	C	-0.649322	-0.342506	0.000137
C19	C	-0.539680	-0.328222	0.000152
C20	C	-0.799612	-0.257183	0.000117
C21	C	-1.201163	-0.517982	0.000138
C22	C	-1.226488	-0.655438	0.000137
N23	N	-1.135265	-0.344556	0.353774
C24	C	-1.182725	0.136261	0.000139
C25	C	-1.156554	0.278330	0.000130
N26	N	-1.204029	-0.240849	-0.353493
C27	C	-1.177274	-0.281186	0.421560
C28	C	-1.162014	-0.304228	0.578725
H29	H	-0.696875	-0.438508	0.000129
C30	C	-1.241105	-0.184824	0.342779
N31	N	-1.289178	-0.112235	0.283444
C32	C	-0.625722	-0.113213	0.000130
N33	N	-0.577328	-0.015531	0.000123
H34	H	-1.114744	-0.375538	0.637037
C35	C	-1.267889	-0.144510	0.567735
N36	N	-1.315991	-0.071952	0.508402
C37	C	-1.071409	-0.440891	0.432554
N38	N	-1.023312	-0.513453	0.491890
H39	H	-1.261964	0.087789	0.000157
H40	H	-1.033562	0.118497	0.000113
C41	C	-1.049496	0.343799	0.000119
N42	N	-0.968862	0.393113	0.000114
C43	C	-1.333546	0.279095	0.000152
N44	N	-1.414180	0.229783	0.000166
