data_functionalizedCrystal
_audit_creation_method	'MofGen! by Chris Wilmer'
_symmetry_space_group_name_H-M	'P1'
_symmetry_Int_Tables_number	1
_symmetry_cell_setting	triclinic
loop_
_symmetry_equiv_pos_as_xyz
  x,y,z
_cell_length_a	11.792241
_cell_length_b	8.597366
_cell_length_c	7.088929
_cell_angle_alpha	76.045470
_cell_angle_beta	83.733449
_cell_angle_gamma	95.234356
loop_
_atom_site_label
_atom_site_type_symbol
_atom_site_fract_x
_atom_site_fract_y
_atom_site_fract_z
O1	O	0.155862	-2.102709	0.187386
O2	O	0.174392	-1.638188	0.110863
O3	O	-0.000105	-1.881723	0.150995
O4	O	0.330359	-1.859175	0.147254
O5	O	-0.023478	-1.914268	0.474333
O6	O	0.151019	-1.670734	0.434201
O7	O	0.132489	-2.135255	0.510725
Cu8	Cu	0.139620	-1.905966	0.501986
Cu9	Cu	0.167261	-1.867477	0.119601
O10	O	0.306986	-1.891720	0.470592
C11	C	-0.054075	-1.896579	0.312430
C12	C	-0.180066	-1.892340	0.311730
C13	C	0.162018	-1.594992	0.262735
C14	C	0.159956	-1.417793	0.233544
C15	C	0.144863	-2.178451	0.358848
C16	C	0.146926	-2.355648	0.388026
C17	C	-0.410734	-1.884543	0.310414
C18	C	-0.282373	-1.888875	0.311145
C19	C	0.360956	-1.876863	0.309153
C20	C	0.486948	-1.881101	0.309840
N21	N	0.120178	-1.933049	0.770937
N22	N	0.186693	-1.840407	-0.149348
H23	H	0.137347	-1.438015	0.542638
C24	C	0.387816	-1.742446	0.772524
C25	C	0.279745	-1.710785	0.719082
H26	H	0.445263	-1.662426	0.691279
H27	H	0.389140	-1.740596	0.905698
H28	H	0.402345	-1.845781	0.756804
H29	H	0.265213	-1.607454	0.734816
H30	H	0.278419	-1.712619	0.585876
H31	H	0.051253	-2.029079	0.868418
C32	C	0.278592	-1.318915	-0.078168
C33	C	0.172883	-1.306627	0.024826
H34	H	0.286568	-1.250284	-0.207027
H35	H	0.339178	-1.287382	-0.012107
H36	H	0.281712	-1.427412	-0.085246
H37	H	0.169767	-1.198131	0.031917
H38	H	0.112281	-1.338150	-0.041252
