data_functionalizedCrystal
_audit_creation_method	'MofGen! by Chris Wilmer'
_symmetry_space_group_name_H-M	'P1'
_symmetry_Int_Tables_number	1
_symmetry_cell_setting	triclinic
loop_
_symmetry_equiv_pos_as_xyz
  x,y,z
_cell_length_a	10.686220
_cell_length_b	10.686551
_cell_length_c	10.686496
_cell_angle_alpha	90.362041
_cell_angle_beta	90.300209
_cell_angle_gamma	90.308082
loop_
_atom_site_label
_atom_site_type_symbol
_atom_site_fract_x
_atom_site_fract_y
_atom_site_fract_z
Zn1	Zn	1.997210	-0.583823	0.304036
Zn2	Zn	1.999484	-0.389980	0.529756
Zn3	Zn	1.773944	-0.392390	0.335938
Zn4	Zn	1.805707	-0.615580	0.527229
O5	O	1.894086	-0.495443	0.424240
O6	O	2.172046	-0.543811	0.321685
O7	O	1.957224	-0.215770	0.518454
O8	O	1.789316	-0.405503	0.157186
O9	O	2.173716	-0.401395	0.487520
O10	O	1.953349	-0.546148	0.133747
O11	O	1.791521	-0.217541	0.376057
O12	O	1.603623	-0.436296	0.373606
O13	O	1.843452	-0.785897	0.483213
O14	O	1.626959	-0.600272	0.514147
O15	O	1.984148	-0.762566	0.319234
O16	O	1.988023	-0.432188	0.703941
O17	O	1.845656	-0.597935	0.702084
C18	C	1.570037	-0.521992	0.447065
C19	C	1.431411	-0.533381	0.456857
C20	C	1.917089	-0.820750	0.397383
C21	C	1.926892	-0.959376	0.385939
C22	C	2.219401	-0.468792	0.401326
C23	C	2.358031	-0.457435	0.391562
C24	C	1.920569	-0.518270	0.748259
C25	C	1.932015	-0.528068	0.886865
C26	C	1.871237	-0.171390	0.450897
C27	C	1.861647	-0.032720	0.461973
C28	C	1.867485	-0.472548	1.098954
C29	C	1.856020	-0.462782	0.960348
H30	H	1.388177	-0.607114	0.520263
F31	F	1.759538	-0.379926	0.903982
H32	H	2.005843	-0.591451	0.929997
F33	F	1.414531	-0.361054	0.308701
F34	F	1.778836	-0.976178	0.558509
F35	F	2.009721	-1.015923	0.289409
