data_functionalizedCrystal
_audit_creation_method	'MofGen! by Chris Wilmer'
_symmetry_space_group_name_H-M	'P1'
_symmetry_Int_Tables_number	1
_symmetry_cell_setting	triclinic
loop_
_symmetry_equiv_pos_as_xyz
  x,y,z
_cell_length_a	11.169417
_cell_length_b	12.827892
_cell_length_c	11.169409
_cell_angle_alpha	89.966724
_cell_angle_beta	89.980176
_cell_angle_gamma	90.016270
loop_
_atom_site_label
_atom_site_type_symbol
_atom_site_fract_x
_atom_site_fract_y
_atom_site_fract_z
Zn1	Zn	1.834920	-0.415924	-0.678535
Zn2	Zn	2.334920	0.084076	-0.178535
Zn3	Zn	1.834792	-0.590711	-0.477849
Zn4	Zn	2.334792	-0.090711	0.022151
Zn5	Zn	1.634206	-0.415988	-0.477869
Zn6	Zn	2.134206	0.084012	0.022131
Zn7	Zn	1.634196	-0.590626	-0.678493
Zn8	Zn	2.134196	-0.090626	-0.178493
O9	O	1.734528	-0.503312	-0.578187
O10	O	2.234528	-0.003312	-0.078187
O11	O	2.002853	-0.439119	-0.651922
O12	O	2.502853	0.060881	-0.151922
O13	O	1.808134	-0.567596	-0.309901
O14	O	2.308134	-0.067596	0.190099
O15	O	1.660889	-0.269743	-0.504514
O16	O	2.160889	0.230257	-0.004514
O17	O	2.002759	-0.567534	-0.504479
O18	O	2.502759	-0.067534	-0.004479
O19	O	1.808353	-0.269696	-0.651942
O20	O	2.308353	0.230304	-0.151942
O21	O	1.660765	-0.439227	-0.309917
O22	O	2.160765	0.060773	0.190083
O23	O	1.466255	-0.439145	-0.504474
O24	O	1.966255	0.060855	-0.004474
O25	O	1.660872	-0.567389	-0.846449
O26	O	2.160872	-0.067389	-0.346449
O27	O	1.466248	-0.567451	-0.651871
O28	O	1.966248	-0.067451	-0.151871
O29	O	1.808343	-0.439036	-0.846479
O30	O	2.308343	0.060964	-0.346479
O31	O	1.808124	-0.736936	-0.504438
O32	O	2.308124	-0.236936	-0.004438
O33	O	1.660747	-0.736874	-0.651851
O34	O	2.160747	-0.236874	-0.151851
C35	C	1.422704	-0.503296	-0.578171
C36	C	1.922704	-0.003296	-0.078171
C37	C	1.289304	-0.503315	-0.578193
C38	C	1.789304	-0.003315	-0.078193
C39	C	1.734453	-0.774822	-0.578164
C40	C	2.234453	-0.274822	-0.078164
C41	C	1.734531	-0.890975	-0.578195
C42	C	2.234531	-0.390975	-0.078195
C43	C	1.807468	-0.942654	-0.651213
C44	C	2.307468	-0.442654	-0.151213
C45	C	1.807550	-1.062704	-0.651246
C46	C	2.307550	-0.562704	-0.151246
C47	C	2.047571	-0.503329	-0.578203
C48	C	2.547571	-0.003329	-0.078203
C49	C	2.180971	-0.503336	-0.578210
C50	C	2.680971	-0.003336	-0.078210
C51	C	1.734621	-0.503196	-0.891229
C52	C	2.234621	-0.003196	-0.391229
C53	C	1.734660	-0.503147	-1.024629
C54	C	2.234660	-0.003147	-0.524629
C55	C	1.734637	-0.230742	-0.578235
C56	C	2.234637	0.269258	-0.078235
C57	C	1.734683	-0.114589	-0.578256
C58	C	2.234683	0.385411	-0.078256
C59	C	1.734506	-0.503352	-0.266362
C60	C	2.234506	-0.003352	0.233638
C61	C	1.734699	-0.503108	-0.132962
C62	C	2.234699	-0.003108	0.367038
H63	H	1.869999	-1.107146	-0.713755
H64	H	2.369999	-0.607146	-0.213755
F65	F	1.889000	-0.884320	-0.732904
F66	F	2.389000	-0.384320	-0.232904
F67	F	1.653063	-1.056510	-0.496534
F68	F	2.153063	-0.556510	0.003466
H69	H	1.672142	-0.935608	-0.515712
H70	H	2.172142	-0.435608	-0.015712
