data_functionalizedCrystal
_audit_creation_method	'MofGen! by Chris Wilmer'
_symmetry_space_group_name_H-M	'P1'
_symmetry_Int_Tables_number	1
_symmetry_cell_setting	triclinic
loop_
_symmetry_equiv_pos_as_xyz
  x,y,z
_cell_length_a	12.837943
_cell_length_b	19.188930
_cell_length_c	11.295483
_cell_angle_alpha	94.076039
_cell_angle_beta	85.461227
_cell_angle_gamma	88.986861
loop_
_atom_site_label
_atom_site_type_symbol
_atom_site_fract_x
_atom_site_fract_y
_atom_site_fract_z
O1	O	1.381633	0.177215	-0.099031
O2	O	1.881633	0.677215	0.400969
O3	O	1.079869	0.168252	-0.099037
O4	O	1.579869	0.668252	0.400963
O5	O	1.239458	0.071676	-0.099010
O6	O	1.739458	0.571676	0.400990
O7	O	1.222044	0.273791	-0.099057
O8	O	1.722044	0.773791	0.400943
O9	O	1.225441	0.080144	0.099038
O10	O	1.725441	0.580144	0.599038
O11	O	1.065852	0.176720	0.099012
O12	O	1.565852	0.676720	0.599012
O13	O	1.367616	0.185683	0.099017
O14	O	1.867616	0.685683	0.599017
Cu15	Cu	1.215454	0.181975	0.117098
Cu16	Cu	1.715454	0.681975	0.617098
Cu17	Cu	1.232031	0.171960	-0.117117
Cu18	Cu	1.732031	0.671960	0.382883
O19	O	1.208027	0.282259	0.098991
O20	O	1.708027	0.782259	0.598991
C21	C	1.034253	0.169458	-0.000013
C22	C	1.534253	0.669458	0.499987
C23	C	0.919217	0.160427	-0.000014
C24	C	1.419217	0.660427	0.499986
C25	C	0.677767	0.268994	-0.000022
C26	C	1.177767	0.768994	0.499978
C27	C	0.569680	0.260512	-0.000022
C28	C	1.069680	0.760512	0.499978
C29	C	0.594953	0.134982	-0.000006
C30	C	1.094953	0.634982	0.499994
C31	C	0.703040	0.143464	-0.000006
C32	C	1.203040	0.643464	0.499994
C33	C	0.744443	0.210472	-0.000016
C34	C	1.244443	0.710472	0.499984
C35	C	0.852533	0.218953	-0.000024
C36	C	1.352533	0.718953	0.499976
C37	C	0.877803	0.093423	0.000001
C38	C	1.377803	0.593423	0.500001
C39	C	0.769716	0.084941	0.000001
C40	C	1.269716	0.584941	0.500001
C41	C	1.231885	0.049861	0.000017
C42	C	1.731885	0.549861	0.500017
C43	C	1.230191	-0.027760	0.000027
C44	C	1.730191	0.472240	0.500027
C45	C	1.323833	-0.066260	0.000035
C46	C	1.823833	0.433740	0.500035
C47	C	1.322244	-0.139194	0.000016
C48	C	1.822244	0.360806	0.500016
C49	C	1.227005	-0.173623	0.000013
C50	C	1.727005	0.326377	0.500013
C51	C	1.133352	-0.135114	-0.000001
C52	C	1.633352	0.364886	0.499999
C53	C	1.134944	-0.062182	0.000006
C54	C	1.634944	0.437818	0.500006
N55	N	1.149437	-0.283739	0.067411
N56	N	1.649437	0.216261	0.567411
N57	N	1.147930	-0.353022	0.067407
N58	N	1.647930	0.146978	0.567407
C59	C	1.222201	-0.393362	-0.000011
C60	C	1.722201	0.106638	0.499989
N61	N	1.298051	-0.361803	-0.067410
N62	N	1.798051	0.138197	0.432590
N63	N	1.299560	-0.292515	-0.067400
N64	N	1.799560	0.207485	0.432600
C65	C	1.225268	-0.252705	0.000005
C66	C	1.725268	0.247295	0.500005
C67	C	1.314126	-0.510946	-0.000026
C68	C	1.814126	-0.010946	0.499974
C69	C	1.312534	-0.583882	-0.000052
C70	C	1.812534	-0.083882	0.499948
C71	C	1.123638	-0.579799	-0.000057
C72	C	1.623638	-0.079799	0.499943
C73	C	1.125234	-0.506866	-0.000043
C74	C	1.625234	-0.006866	0.499957
C75	C	1.220481	-0.472444	-0.000021
C76	C	1.720481	0.027556	0.499979
C77	C	1.413232	0.184477	-0.000009
C78	C	1.913232	0.684477	0.499991
C79	C	1.528268	0.193508	-0.000016
C80	C	2.028268	0.693508	0.499984
C81	C	1.215600	0.304074	-0.000039
C82	C	1.715600	0.804074	0.499961
C83	C	1.217295	0.381694	-0.000057
C84	C	1.717295	0.881694	0.499943
N85	N	1.203803	0.189018	0.281832
N86	N	1.703803	0.689018	0.781832
N87	N	1.243691	0.164912	-0.281852
N88	N	1.743691	0.664912	0.218148
C89	C	1.327566	0.114169	0.531142
C90	C	1.827566	0.614169	1.031142
C91	C	1.318768	0.119497	0.655804
C92	C	1.818768	0.619497	1.155804
C93	C	1.177405	0.204999	0.655821
C94	C	1.677405	0.704999	1.155821
C95	C	1.186202	0.199671	0.531159
C96	C	1.686202	0.699671	1.031159
C97	C	1.261286	0.154255	0.468824
C98	C	1.761286	0.654255	0.968824
C99	C	1.270089	0.148931	0.344159
C100	C	1.770089	0.648931	0.844159
C101	C	1.128721	0.234429	0.344179
C102	C	1.628721	0.734429	0.844179
C103	C	1.119923	0.239757	0.468841
C104	C	1.619923	0.739757	0.968841
H105	H	0.932104	0.045770	-0.000002
H106	H	1.432104	0.545770	0.499998
H107	H	1.388792	-0.615228	-0.000053
H108	H	1.888792	-0.115228	0.499947
H109	H	1.055808	-0.163150	-0.000006
H110	H	1.555808	0.336850	0.499994
F111	F	0.725639	0.013630	0.000015
F112	F	1.225639	0.513630	0.500015
F113	F	1.022278	-0.616437	-0.000066
F114	F	1.522278	-0.116437	0.499934
F115	F	1.425205	-0.029631	0.000032
F116	F	1.925205	0.470369	0.500032
F117	F	1.097490	0.253325	0.722176
F118	F	1.597490	0.753325	1.222176
F119	F	1.040015	0.288088	0.535193
F120	F	1.540015	0.788088	1.035193
H121	H	1.058687	-0.030834	0.000001
H122	H	1.558687	0.469166	0.500001
H123	H	1.391682	-0.482919	-0.000014
H124	H	1.891682	0.017081	0.499986
F125	F	1.421915	-0.180178	0.000022
F126	F	1.921915	0.319822	0.500022
F127	F	1.025566	-0.465889	-0.000046
F128	F	1.525566	0.034111	0.499954
F129	F	1.350001	0.100598	0.277820
F130	F	1.850001	0.600598	0.777820
F131	F	0.550869	0.063673	0.000019
F132	F	1.050869	0.563673	0.500019
H133	H	1.388709	0.077195	0.480388
H134	H	1.888709	0.577195	0.980388
F135	F	1.058184	0.277097	0.277843
F136	F	1.558184	0.777097	0.777843
H137	H	0.886241	0.273515	-0.000030
H138	H	1.386241	0.773515	0.499970
F139	F	0.721835	0.340308	-0.000047
F140	F	1.221835	0.840308	0.499953
H141	H	0.515395	0.308167	-0.000024
H142	H	1.015395	0.808167	0.499976
H143	H	1.372737	0.086854	0.706541
H144	H	1.872737	0.586854	1.206541
