data_functionalizedCrystal
_audit_creation_method	'MofGen! by Chris Wilmer'
_symmetry_space_group_name_H-M	'P1'
_symmetry_Int_Tables_number	1
_symmetry_cell_setting	triclinic
loop_
_symmetry_equiv_pos_as_xyz
  x,y,z
_cell_length_a	6.817900
_cell_length_b	16.255748
_cell_length_c	19.453114
_cell_angle_alpha	95.853746
_cell_angle_beta	101.709288
_cell_angle_gamma	103.490428
loop_
_atom_site_label
_atom_site_type_symbol
_atom_site_fract_x
_atom_site_fract_y
_atom_site_fract_z
V1	V	-4.006868	-0.117973	-0.219241
O2	O	-3.994740	0.004762	-0.214820
O3	O	-3.958540	-0.233049	-0.217979
O4	O	-3.949782	-0.116556	-0.314751
O5	O	-4.003559	-0.112536	-0.117379
V6	V	-4.491612	-0.103245	-0.207028
O7	O	-4.265448	-0.150279	-0.246030
O8	O	-4.683229	-0.070939	-0.180240
O9	O	-4.316733	0.011830	-0.208290
O10	O	-4.621137	-0.225981	-0.211449
O11	O	-4.612318	-0.108682	-0.308891
O12	O	-4.325491	-0.104662	-0.111518
C13	C	-3.803840	-0.261089	-0.214582
C14	C	-3.845555	-0.355168	-0.214187
C15	C	-3.781507	-0.634247	-0.209347
C16	C	-3.882537	-0.591366	-0.269621
C17	C	-3.995854	-0.693807	-0.212795
C18	C	-3.820377	-0.569057	-0.153235
C19	C	-3.921996	-0.527422	-0.213478
C20	C	-4.097460	-0.652175	-0.273112
C21	C	-4.035248	-0.629861	-0.156673
C22	C	-4.136436	-0.587011	-0.216964
C23	C	-4.038396	-0.789658	-0.212403
C24	C	-3.879472	-0.431575	-0.213875
C25	C	-3.792667	-0.112490	-0.338023
C26	C	-3.827277	-0.112093	-0.416105
C27	C	-4.025321	-0.116155	-0.456370
C28	C	-4.057842	-0.115782	-0.529736
C29	C	-3.892315	-0.111365	-0.562836
C30	C	-3.694240	-0.107298	-0.522560
C31	C	-3.661721	-0.107662	-0.449195
N32	N	-3.832599	-0.156058	-0.681717
N33	N	-3.863504	-0.155714	-0.751412
C34	C	-3.990280	-0.110264	-0.783882
N35	N	-4.085019	-0.065184	-0.744027
N36	N	-4.054119	-0.065532	-0.674326
C37	C	-3.927555	-0.110968	-0.642388
C38	C	-4.223599	-0.113921	-0.903699
C39	C	-4.256109	-0.113542	-0.977066
C40	C	-3.892506	-0.105067	-0.969890
C41	C	-3.859997	-0.105436	-0.896524
C42	C	-4.025553	-0.109868	-0.863433
C43	C	-4.134776	0.039866	-0.211686
C44	C	-4.072298	0.133944	-0.212085
C45	C	-4.145949	-0.108731	-0.088243
C46	C	-4.090577	-0.109123	-0.010160
H47	H	-4.100124	-0.647079	-0.108911
H48	H	-4.219121	-0.119094	-0.562527
N49	N	-3.664645	-0.521290	-0.086136
H50	H	-3.720890	-0.535888	-0.043444
H51	H	-3.638432	-0.457630	-0.086742
H52	H	-4.160132	-0.119760	-0.429432
H53	H	-3.500443	-0.104348	-0.416410
H54	H	-3.559467	-0.103698	-0.549515
N55	N	-3.796539	-0.568581	-0.332886
H56	H	-3.662156	-0.585628	-0.329986
H57	H	-3.770161	-0.504812	-0.332906
N58	N	-4.402144	-0.118697	-0.868002
H59	H	-4.532542	-0.121206	-0.904645
H60	H	-4.369843	-0.066300	-0.830789
H61	H	-4.286250	-0.566285	-0.220206
H62	H	-4.417381	-0.116844	-1.009848
N63	N	-3.713927	-0.100309	-1.005561
H64	H	-3.692545	-0.047237	-1.028915
H65	H	-3.746142	-0.152742	-1.042730
N66	N	-3.583395	-0.661936	-0.205167
H67	H	-3.526335	-0.648194	-0.247878
H68	H	-3.613104	-0.725647	-0.204456
N69	N	-4.253016	-0.699811	-0.340291
H70	H	-4.280395	-0.763489	-0.339627
H71	H	-4.195853	-0.685484	-0.382865
N72	N	-3.646385	-0.101069	-0.853098
H73	H	-3.651516	-0.153765	-0.829425
H74	H	-3.598172	-0.048266	-0.815610
