data_functionalizedCrystal
_audit_creation_method	'MofGen! by Chris Wilmer'
_symmetry_space_group_name_H-M	'P1'
_symmetry_Int_Tables_number	1
_symmetry_cell_setting	triclinic
loop_
_symmetry_equiv_pos_as_xyz
  x,y,z
_cell_length_a	18.101398
_cell_length_b	18.101395
_cell_length_c	12.759393
_cell_angle_alpha	89.967074
_cell_angle_beta	89.972395
_cell_angle_gamma	90.026371
loop_
_atom_site_label
_atom_site_type_symbol
_atom_site_fract_x
_atom_site_fract_y
_atom_site_fract_z
Zn1	Zn	1.132145	-0.294883	-0.594206
Zn2	Zn	1.632145	0.205117	-0.094206
Zn3	Zn	1.132034	-0.418744	-0.418521
Zn4	Zn	1.632034	0.081256	0.081479
Zn5	Zn	1.008297	-0.294910	-0.418520
Zn6	Zn	1.508297	0.205090	0.081480
Zn7	Zn	1.008255	-0.418677	-0.594136
Zn8	Zn	1.508255	0.081323	-0.094136
O9	O	1.070183	-0.356804	-0.506346
O10	O	1.570183	0.143196	-0.006346
O11	O	1.235763	-0.311330	-0.570931
O12	O	1.735763	0.188670	-0.070931
O13	O	1.115591	-0.402356	-0.271499
O14	O	1.615591	0.097644	0.228501
O15	O	1.024790	-0.191274	-0.441854
O16	O	1.524790	0.308726	0.058146
O17	O	1.235681	-0.402330	-0.441855
O18	O	1.735681	0.097670	0.058145
O19	O	1.115780	-0.191254	-0.570930
O20	O	1.615780	0.308746	-0.070930
O21	O	1.024682	-0.311376	-0.271499
O22	O	1.524682	0.188624	0.228501
O23	O	0.904658	-0.311312	-0.441786
O24	O	1.404658	0.188688	0.058214
O25	O	1.024718	-0.402216	-0.741166
O26	O	1.524718	0.097784	-0.241166
O27	O	0.904627	-0.402243	-0.570810
O28	O	1.404627	0.097757	-0.070810
O29	O	1.115740	-0.311266	-0.741218
O30	O	1.615740	0.188734	-0.241218
O31	O	1.115550	-0.522368	-0.441787
O32	O	1.615550	-0.022368	0.058213
O33	O	1.024610	-0.522319	-0.570811
O34	O	1.524610	-0.022319	-0.070811
C35	C	0.877772	-0.356774	-0.506291
C36	C	1.377772	0.143226	-0.006291
C37	C	0.795458	-0.356778	-0.506292
C38	C	1.295458	0.143222	-0.006292
C39	C	1.070083	-0.549214	-0.506315
C40	C	1.570083	-0.049214	-0.006315
C41	C	1.070109	-0.631528	-0.506337
C42	C	1.570109	-0.131528	-0.006337
C43	C	0.496367	-0.356825	-0.506380
C44	C	0.996367	0.143175	-0.006380
C45	C	0.527687	-0.299327	-0.425598
C46	C	1.027687	0.200673	0.074402
C47	C	0.613305	-0.299482	-0.425253
C48	C	1.113305	0.200518	0.074747
C49	C	0.644750	-0.356801	-0.506337
C50	C	1.144750	0.143199	-0.006337
C51	C	0.613630	-0.434815	-0.476087
C52	C	1.113630	0.065185	0.023913
C53	C	0.527985	-0.434496	-0.475526
C54	C	1.027985	0.065504	0.024474
C55	C	0.527986	-0.336986	-0.617603
C56	C	1.027986	0.163014	-0.117603
C57	C	0.613637	-0.335249	-0.616996
C58	C	1.113637	0.164751	-0.116996
C59	C	0.728609	-0.356793	-0.506314
C60	C	1.228609	0.143207	-0.006314
C61	C	0.412508	-0.356838	-0.506401
C62	C	0.912508	0.143162	-0.006401
C63	C	1.070271	-0.930619	-0.506393
C64	C	1.570271	-0.430619	-0.006393
C65	C	1.013187	-0.899294	-0.587773
C66	C	1.513187	-0.399294	-0.087773
C67	C	1.012916	-0.813676	-0.587518
C68	C	1.512916	-0.313676	-0.087518
C69	C	1.070191	-0.782237	-0.506366
C70	C	1.570191	-0.282237	-0.006366
C71	C	1.049057	-0.813394	-0.395637
C72	C	1.549057	-0.313394	0.104363
C73	C	1.048689	-0.899039	-0.396124
C74	C	1.548689	-0.399039	0.103876
C75	C	1.148614	-0.898967	-0.534768
C76	C	1.648614	-0.398967	-0.034768
C77	C	1.148154	-0.813316	-0.537196
C78	C	1.648154	-0.313316	-0.037196
C79	C	1.070146	-0.698377	-0.506344
C80	C	1.570146	-0.198377	-0.006344
C81	C	1.070314	-1.014479	-0.506408
C82	C	1.570314	-0.514479	-0.006408
C83	C	1.263344	-0.356834	-0.506401
C84	C	1.763344	0.143166	-0.006401
C85	C	1.345659	-0.356847	-0.506425
C86	C	1.845659	0.143153	-0.006425
C87	C	1.070236	-0.356731	-0.780379
C88	C	1.570236	0.143269	-0.280379
C89	C	1.070259	-0.356700	-0.897156
C90	C	1.570259	0.143300	-0.397156
C91	C	1.070302	-0.163642	-0.506400
C92	C	1.570302	0.336358	-0.006400
C93	C	1.070353	-0.081328	-0.506423
C94	C	1.570353	0.418672	-0.006423
C95	C	1.117673	-0.309306	-1.061778
C96	C	1.617673	0.190694	-0.561778
C97	C	1.117659	-0.309335	-0.952053
C98	C	1.617659	0.190665	-0.452053
C99	C	1.022876	-0.404044	-0.951988
C100	C	1.522876	0.095956	-0.451988
C101	C	1.022895	-0.404019	-1.061710
C102	C	1.522895	0.095981	-0.561710
C103	C	1.070172	-0.356823	-0.233378
C104	C	1.570172	0.143177	0.266622
C105	C	1.070292	-0.356645	-0.116602
C106	C	1.570292	0.143355	0.383398
H107	H	0.634346	-0.241631	-0.444214
H108	H	1.134346	0.258369	0.055786
H109	H	1.156242	-0.270787	-0.907420
H110	H	1.656242	0.229213	-0.407420
F111	F	1.168116	-0.258886	-1.120194
F112	F	1.668116	0.241114	-0.620194
F113	F	0.641614	-0.457187	-0.370957
F114	F	1.141614	0.042813	0.129043
H115	H	1.167881	-0.920511	-0.614136
H116	H	1.667881	-0.420511	-0.114136
H117	H	0.984311	-0.442572	-1.106349
H118	H	1.484311	0.057428	-0.606349
H119	H	1.164090	-0.792949	-0.618687
H120	H	1.664090	-0.292949	-0.118687
F121	F	1.206689	-0.785334	-0.465377
F122	F	1.706689	-0.285334	0.034623
F123	F	1.204207	-0.925457	-0.457309
F124	F	1.704207	-0.425457	0.042691
H125	H	0.507117	-0.241300	-0.444350
H126	H	1.007117	0.258700	0.055650
F127	F	0.499504	-0.316264	-0.318505
F128	F	0.999504	0.183736	0.181495
H129	H	0.984286	-0.442613	-0.907282
H130	H	1.484286	0.057387	-0.407282
H131	H	0.633755	-0.312597	-0.342838
H132	H	1.133755	0.187403	0.157162
H133	H	0.507970	-0.451319	-0.394217
H134	H	1.007970	0.048681	0.105783
F135	F	0.937749	-0.927517	-0.563532
F136	F	1.437749	-0.427517	-0.063532
H137	H	0.507265	-0.478787	-0.531798
H138	H	1.007265	0.021213	-0.031798
H139	H	0.635045	-0.374075	-0.680410
H140	H	1.135045	0.125925	-0.180410
H141	H	0.506415	-0.281088	-0.645106
H142	H	1.006415	0.218912	-0.145106
F143	F	0.640242	-0.492312	-0.550591
F144	F	1.140242	0.007688	-0.050591
H145	H	0.507732	-0.378865	-0.677793
H146	H	1.007732	0.121135	-0.177793
H147	H	1.026138	-0.792607	-0.669623
H148	H	1.526138	-0.292607	-0.169623
F149	F	0.640238	-0.260216	-0.646820
F150	F	1.140238	0.239784	-0.146820
H151	H	0.954846	-0.793249	-0.568722
H152	H	1.454846	-0.293249	-0.068722
F153	F	1.030295	-0.926147	-0.695440
F154	F	1.530295	-0.426147	-0.195440
H155	H	0.991421	-0.919079	-0.372088
H156	H	1.491421	-0.419079	0.127912
H157	H	1.088463	-0.919764	-0.333421
H158	H	1.588463	-0.419764	0.166579
H159	H	0.992395	-0.792006	-0.371171
H160	H	1.492395	-0.292006	0.128829
F161	F	1.101691	-0.786780	-0.314218
F162	F	1.601691	-0.286780	0.185782
