data_functionalizedCrystal
_audit_creation_method	'MofGen! by Chris Wilmer'
_symmetry_space_group_name_H-M	'P1'
_symmetry_Int_Tables_number	1
_symmetry_cell_setting	triclinic
loop_
_symmetry_equiv_pos_as_xyz
  x,y,z
_cell_length_a	18.050591
_cell_length_b	18.050589
_cell_length_c	18.215399
_cell_angle_alpha	90.023603
_cell_angle_beta	90.024537
_cell_angle_gamma	90.024669
loop_
_atom_site_label
_atom_site_type_symbol
_atom_site_fract_x
_atom_site_fract_y
_atom_site_fract_z
Zn1	Zn	1.135328	-0.295737	0.416230
Zn2	Zn	1.135228	-0.419932	0.293173
Zn3	Zn	1.011136	-0.295753	0.293168
Zn4	Zn	1.011095	-0.419882	0.416188
O5	O	1.073197	-0.357826	0.354690
O6	O	1.239239	-0.312227	0.399927
O7	O	1.118743	-0.403487	0.190188
O8	O	1.027670	-0.191826	0.309507
O9	O	1.239166	-0.403472	0.309517
O10	O	1.118912	-0.191815	0.399921
O11	O	1.027573	-0.312253	0.190184
O12	O	0.907206	-0.312205	0.309467
O13	O	1.027599	-0.403387	0.519178
O14	O	0.907176	-0.403402	0.399849
O15	O	1.118872	-0.312178	0.519209
O16	O	1.118702	-0.523850	0.309476
O17	O	1.027502	-0.523814	0.399855
C18	C	0.880245	-0.357800	0.354653
C19	C	0.797699	-0.357807	0.354655
C20	C	0.548868	-0.308162	0.305621
C21	C	0.598306	-0.290075	0.372783
C22	C	0.500578	-0.357845	0.354715
C23	C	0.598222	-0.375879	0.287528
C24	C	0.646563	-0.357824	0.354682
C25	C	0.548929	-0.339722	0.421912
C26	C	0.548841	-0.425557	0.336612
C27	C	0.598256	-0.407496	0.403820
C28	C	0.416480	-0.357855	0.354733
C29	C	0.730660	-0.357815	0.354671
C30	C	1.073107	-0.550778	0.354678
C31	C	1.073137	-0.633324	0.354697
C32	C	1.023591	-0.832782	0.403828
C33	C	1.005487	-0.882221	0.336672
C34	C	1.073210	-0.784455	0.354707
C35	C	1.091350	-0.882097	0.421870
C36	C	1.073279	-0.930440	0.354722
C37	C	1.055070	-0.832807	0.287515
C38	C	1.140964	-0.832678	0.372759
C39	C	1.122886	-0.882095	0.305557
C40	C	1.073168	-0.700356	0.354699
C41	C	1.073320	-1.014536	0.354722
C42	C	1.266902	-0.357853	0.354727
C43	C	1.349448	-0.357865	0.354743
C44	C	1.073242	-0.357775	0.546643
C45	C	1.073261	-0.357753	0.628442
C46	C	1.073307	-0.164121	0.354718
C47	C	1.073354	-0.081575	0.354730
C48	C	1.073194	-0.357824	0.163484
C49	C	1.073319	-0.357636	0.081685
C50	C	1.120804	-0.310216	0.816653
C51	C	1.120813	-0.310195	0.893512
C52	C	1.025771	-0.405175	0.893469
C53	C	1.025759	-0.405193	0.816611
C54	C	1.073280	-0.357714	0.778205
C55	C	1.073301	-0.357675	0.931922
C56	C	1.073310	-0.357652	1.015255
C57	C	1.073270	-0.357736	0.694866
H58	H	0.619804	-0.449502	0.445371
H59	H	1.164877	-0.903611	0.263975
H60	H	0.987053	-0.443871	0.785306
H61	H	0.527365	-0.324394	0.478734
H62	H	0.948222	-0.903999	0.321417
H63	H	1.159511	-0.271516	0.924813
H64	H	1.039689	-0.811245	0.230707
O65	O	1.172057	-0.259007	0.775232
H66	H	1.164073	-0.267003	0.715329
O67	O	0.974522	-0.456383	0.934897
H68	H	0.941467	-0.489409	0.895247
O69	O	0.520137	-0.252488	0.250710
H70	H	0.485488	-0.210797	0.279454
O71	O	0.627099	-0.214218	0.393054
H72	H	0.607326	-0.173083	0.352236
H73	H	0.527098	-0.482813	0.321290
O74	O	0.626907	-0.396105	0.212286
H75	H	0.607117	-0.354791	0.171654
H76	H	0.981568	-0.811128	0.445309
H77	H	1.198217	-0.810902	0.388046
O78	O	1.111643	-0.910775	0.497097
H79	H	1.070337	-0.891024	0.537754
