data_functionalizedCrystal
_audit_creation_method	'MofGen! by Chris Wilmer'
_symmetry_space_group_name_H-M	'P1'
_symmetry_Int_Tables_number	1
_symmetry_cell_setting	triclinic
loop_
_symmetry_equiv_pos_as_xyz
  x,y,z
_cell_length_a	25.639242
_cell_length_b	29.839131
_cell_length_c	29.839135
_cell_angle_alpha	90.000668
_cell_angle_beta	90.016827
_cell_angle_gamma	90.036947
loop_
_atom_site_label
_atom_site_type_symbol
_atom_site_fract_x
_atom_site_fract_y
_atom_site_fract_z
Zn1	Zn	0.799187	-0.179046	0.254113
Zn2	Zn	1.049187	0.070954	0.504113
Zn3	Zn	1.299187	0.320954	0.754113
Zn4	Zn	1.549187	0.570954	1.004113
Zn5	Zn	0.799115	-0.254135	0.178983
Zn6	Zn	1.049115	-0.004135	0.428983
Zn7	Zn	1.299115	0.245865	0.678983
Zn8	Zn	1.549115	0.495865	0.928983
Zn9	Zn	0.711772	-0.179014	0.178984
Zn10	Zn	0.961772	0.070986	0.428984
Zn11	Zn	1.211772	0.320986	0.678984
Zn12	Zn	1.461772	0.570986	0.928984
Zn13	Zn	0.711705	-0.254143	0.254073
Zn14	Zn	0.961705	-0.004143	0.504073
Zn15	Zn	1.211705	0.245857	0.754073
Zn16	Zn	1.461705	0.495857	1.004073
O17	O	0.755445	-0.216585	0.216539
O18	O	1.005445	0.033415	0.466539
O19	O	1.255445	0.283415	0.716539
O20	O	1.505445	0.533415	0.966539
O21	O	0.872343	-0.189016	0.244164
O22	O	1.122343	0.060984	0.494164
O23	O	1.372343	0.310984	0.744164
O24	O	1.622343	0.560984	0.994164
O25	O	0.787527	-0.244154	0.116116
O26	O	1.037527	0.005846	0.366116
O27	O	1.287527	0.255846	0.616116
O28	O	1.537527	0.505846	0.866116
O29	O	0.723426	-0.116151	0.188968
O30	O	0.973426	0.133849	0.438968
O31	O	1.223426	0.383849	0.688968
O32	O	1.473426	0.633849	0.938968
O33	O	0.872290	-0.244184	0.188966
O34	O	1.122290	0.005816	0.438966
O35	O	1.372290	0.255816	0.688966
O36	O	1.622290	0.505816	0.938966
O37	O	0.787650	-0.116174	0.244165
O38	O	1.037650	0.133826	0.494165
O39	O	1.287650	0.383826	0.744165
O40	O	1.537650	0.633826	0.994165
O41	O	0.723356	-0.188963	0.116117
O42	O	0.973356	0.061037	0.366117
O43	O	1.223356	0.311037	0.616117
O44	O	1.473356	0.561037	0.866117
O45	O	0.638598	-0.188970	0.188928
O46	O	0.888598	0.061030	0.438928
O47	O	1.138598	0.311030	0.688928
O48	O	1.388598	0.561030	0.938928
O49	O	0.723312	-0.244198	0.316945
O50	O	0.973312	0.005802	0.566945
O51	O	1.223312	0.255802	0.816945
O52	O	1.473312	0.505802	1.066945
O53	O	0.638548	-0.244168	0.244096
O54	O	0.888548	0.005832	0.494096
O55	O	1.138548	0.255832	0.744096
O56	O	1.388548	0.505832	0.994096
O57	O	0.787585	-0.189024	0.316975
O58	O	1.037585	0.060976	0.566975
O59	O	1.287585	0.310976	0.816975
O60	O	1.537585	0.560976	1.066975
O61	O	0.787461	-0.317003	0.188927
O62	O	1.037461	-0.067003	0.438927
O63	O	1.287461	0.182997	0.688927
O64	O	1.537461	0.432997	0.938927
O65	O	0.723241	-0.317009	0.244095
O66	O	0.973241	-0.067009	0.494095
O67	O	1.223241	0.182991	0.744095
O68	O	1.473241	0.432991	0.994095
C69	C	0.619602	-0.216567	0.216508
C70	C	0.869602	0.033433	0.466508
C71	C	1.119602	0.283433	0.716508
C72	C	1.369602	0.533433	0.966508
C73	C	0.561488	-0.216570	0.216506
C74	C	0.811488	0.033430	0.466506
C75	C	1.061488	0.283430	0.716506
C76	C	1.311488	0.533430	0.966506
C77	C	0.201108	-0.245374	0.245237
C78	C	0.451108	0.004626	0.495237
C79	C	0.701108	0.254626	0.745237
C80	C	0.951108	0.504626	0.995237
C81	C	0.146504	-0.245376	0.245244
C82	C	0.396504	0.004624	0.495244
C83	C	0.646504	0.254624	0.745244
C84	C	0.896504	0.504624	0.995244
O85	O	0.118253	-0.269844	0.269647
O86	O	0.368253	-0.019844	0.519647
O87	O	0.618253	0.230156	0.769647
O88	O	0.868253	0.480156	1.019647
N89	N	0.119206	-0.216597	0.216568
N90	N	0.369206	0.033403	0.466568
N91	N	0.619206	0.283403	0.716568
N92	N	0.869206	0.533403	0.966568
C93	C	0.146515	-0.187810	0.187886
C94	C	0.396515	0.062190	0.437886
C95	C	0.646515	0.312190	0.687886
C96	C	0.896515	0.562190	0.937886
O97	O	0.118281	-0.163330	0.163495
O98	O	0.368281	0.086670	0.413495
O99	O	0.618281	0.336670	0.663495
O100	O	0.868281	0.586670	0.913495
C101	C	0.201118	-0.187805	0.187881
C102	C	0.451118	0.062195	0.437881
C103	C	0.701118	0.312195	0.687881
C104	C	0.951118	0.562195	0.937881
C105	C	0.228413	-0.216590	0.216556
C106	C	0.478413	0.033410	0.466556
C107	C	0.728413	0.283410	0.716556
C108	C	0.978413	0.533410	0.966556
C109	C	0.228404	-0.274156	0.273910
C110	C	0.478404	-0.024156	0.523910
C111	C	0.728404	0.225844	0.773910
C112	C	0.978404	0.475844	1.023910
C113	C	0.283004	-0.274153	0.273902
C114	C	0.533004	-0.024153	0.523902
C115	C	0.783004	0.225847	0.773902
C116	C	1.033004	0.475847	1.023902
C117	C	0.310309	-0.245369	0.245221
C118	C	0.560309	0.004631	0.495221
C119	C	0.810309	0.254631	0.745221
C120	C	1.060309	0.504631	0.995221
C121	C	0.283014	-0.216587	0.216548
C122	C	0.533014	0.033413	0.466548
C123	C	0.783014	0.283413	0.716548
C124	C	1.033014	0.533413	0.966548
C125	C	0.228426	-0.159016	0.159202
C126	C	0.478426	0.090984	0.409202
C127	C	0.728426	0.340984	0.659202
C128	C	0.978426	0.590984	0.909202
C129	C	0.283033	-0.159013	0.159200
C130	C	0.533033	0.090987	0.409200
C131	C	0.783033	0.340987	0.659200
C132	C	1.033033	0.590987	0.909200
C133	C	0.310328	-0.187798	0.187875
C134	C	0.560328	0.062202	0.437875
C135	C	0.810328	0.312202	0.687875
C136	C	1.060328	0.562202	0.937875
C137	C	0.364919	-0.187801	0.187860
C138	C	0.614919	0.062199	0.437860
C139	C	0.864919	0.312199	0.687860
C140	C	1.114919	0.562199	0.937860
N141	N	0.392218	-0.216580	0.216536
N142	N	0.642218	0.033420	0.466536
N143	N	0.892218	0.283420	0.716536
N144	N	1.142218	0.533420	0.966536
C145	C	0.364913	-0.245364	0.245217
C146	C	0.614913	0.004636	0.495217
C147	C	0.864913	0.254636	0.745217
C148	C	1.114913	0.504636	0.995217
C149	C	0.031844	-0.187821	0.187898
C150	C	0.281844	0.062179	0.437898
C151	C	0.531844	0.312179	0.687898
C152	C	0.781844	0.562179	0.937898
C153	C	-0.022758	-0.187828	0.187900
C154	C	0.227242	0.062172	0.437900
C155	C	0.477242	0.312172	0.687900
C156	C	0.727242	0.562172	0.937900
C157	C	-0.022765	-0.245394	0.245259
C158	C	0.227235	0.004606	0.495259
C159	C	0.477235	0.254606	0.745259
C160	C	0.727235	0.504606	0.995259
C161	C	0.031838	-0.245389	0.245254
C162	C	0.281838	0.004611	0.495254
C163	C	0.531838	0.254611	0.745254
C164	C	0.781838	0.504611	0.995254
C165	C	0.059142	-0.216601	0.216574
C166	C	0.309142	0.033399	0.466574
C167	C	0.559142	0.283399	0.716574
C168	C	0.809142	0.533399	0.966574
C169	C	0.479578	-0.245358	0.245198
C170	C	0.729578	0.004642	0.495198
C171	C	0.979578	0.254642	0.745198
C172	C	1.229578	0.504642	0.995198
C173	C	0.534183	-0.245354	0.245186
C174	C	0.784183	0.004646	0.495186
C175	C	1.034183	0.254646	0.745186
C176	C	1.284183	0.504646	0.995186
C177	C	0.534185	-0.187786	0.187829
C178	C	0.784185	0.062214	0.437829
C179	C	1.034185	0.312214	0.687829
C180	C	1.284185	0.562214	0.937829
C181	C	0.479585	-0.187791	0.187839
C182	C	0.729585	0.062209	0.437839
C183	C	0.979585	0.312209	0.687839
C184	C	1.229585	0.562209	0.937839
C185	C	0.452282	-0.216579	0.216527
C186	C	0.702282	0.033421	0.466527
C187	C	0.952282	0.283421	0.716527
C188	C	1.202282	0.533421	0.966527
O189	O	0.393205	-0.163344	0.163471
O190	O	0.643205	0.086656	0.413471
O191	O	0.893205	0.336656	0.663471
O192	O	1.143205	0.586656	0.913471
O193	O	0.393153	-0.269835	0.269607
O194	O	0.643153	-0.019835	0.519607
O195	O	0.893153	0.230165	0.769607
O196	O	1.143153	0.480165	1.019607
C197	C	0.755350	-0.333307	0.216516
C198	C	1.005350	-0.083307	0.466516
C199	C	1.255350	0.166693	0.716516
C200	C	1.505350	0.416693	0.966516
C201	C	0.755358	-0.383242	0.216522
C202	C	1.005358	-0.133242	0.466522
C203	C	1.255358	0.116758	0.716522
C204	C	1.505358	0.366758	0.966522
C205	C	0.788945	-0.692869	0.187855
C206	C	1.038945	-0.442869	0.437855
C207	C	1.288945	-0.192869	0.687855
C208	C	1.538945	0.057131	0.937855
C209	C	0.789009	-0.880542	0.187872
C210	C	1.039009	-0.630542	0.437872
C211	C	1.289009	-0.380542	0.687872
C212	C	1.539009	-0.130542	0.937872
O213	O	0.817491	-0.904794	0.163481
O214	O	1.067491	-0.654794	0.413481
O215	O	1.317491	-0.404794	0.663481
O216	O	1.567491	-0.154794	0.913481
N217	N	0.755553	-0.904027	0.216572
N218	N	1.005553	-0.654027	0.466572
N219	N	1.255553	-0.404027	0.716572
N220	N	1.505553	-0.154027	0.966572
C221	C	0.722081	-0.880590	0.245273
C222	C	0.972081	-0.630590	0.495273
C223	C	1.222081	-0.380590	0.745273
C224	C	1.472081	-0.130590	0.995273
O225	O	0.693630	-0.904871	0.269688
O226	O	0.943630	-0.654871	0.519688
O227	O	1.193630	-0.404871	0.769688
O228	O	1.443630	-0.154871	1.019688
C229	C	0.722019	-0.692918	0.245257
C230	C	0.972019	-0.442918	0.495257
C231	C	1.222019	-0.192918	0.745257
C232	C	1.472019	0.057082	0.995257
C233	C	0.755474	-0.669436	0.216552
C234	C	1.005474	-0.419436	0.466552
C235	C	1.255474	-0.169436	0.716552
C236	C	1.505474	0.080564	0.966552
C237	C	0.822397	-0.669387	0.159152
C238	C	1.072397	-0.419387	0.409152
C239	C	1.322397	-0.169387	0.659152
C240	C	1.572397	0.080613	0.909152
C241	C	0.822379	-0.622472	0.159146
C242	C	1.072379	-0.372472	0.409146
C243	C	1.322379	-0.122472	0.659146
C244	C	1.572379	0.127528	0.909146
C245	C	0.788908	-0.599038	0.187843
C246	C	1.038908	-0.349038	0.437843
C247	C	1.288908	-0.099038	0.687843
C248	C	1.538908	0.150962	0.937843
C249	C	0.755456	-0.622520	0.216546
C250	C	1.005456	-0.372520	0.466546
C251	C	1.255456	-0.122520	0.716546
C252	C	1.505456	0.127480	0.966546
C253	C	0.688550	-0.669482	0.273959
C254	C	0.938550	-0.419482	0.523959
C255	C	1.188550	-0.169482	0.773959
C256	C	1.438550	0.080518	1.023959
C257	C	0.688539	-0.622561	0.273954
C258	C	0.938539	-0.372561	0.523954
C259	C	1.188539	-0.122561	0.773954
C260	C	1.438539	0.127439	1.023954
C261	C	0.721993	-0.599079	0.245248
C262	C	0.971993	-0.349079	0.495248
C263	C	1.221993	-0.099079	0.745248
C264	C	1.471993	0.150921	0.995248
C265	C	0.721966	-0.552171	0.245237
C266	C	0.971966	-0.302171	0.495237
C267	C	1.221966	-0.052171	0.745237
C268	C	1.471966	0.197829	0.995237
N269	N	0.755422	-0.528687	0.216537
N270	N	1.005422	-0.278687	0.466537
N271	N	1.255422	-0.028687	0.716537
N272	N	1.505422	0.221313	0.966537
C273	C	0.788893	-0.552120	0.187840
C274	C	1.038893	-0.302120	0.437840
C275	C	1.288893	-0.052120	0.687840
C276	C	1.538893	0.197880	0.937840
C277	C	0.722115	-0.979120	0.245278
C278	C	0.972115	-0.729120	0.495278
C279	C	1.222115	-0.479120	0.745278
C280	C	1.472115	-0.229120	0.995278
C281	C	0.722129	-1.026038	0.245282
C282	C	0.972129	-0.776038	0.495282
C283	C	1.222129	-0.526038	0.745282
C284	C	1.472129	-0.276038	0.995282
C285	C	0.789059	-1.025987	0.187881
C286	C	1.039059	-0.775987	0.437881
C287	C	1.289059	-0.525987	0.687881
C288	C	1.539059	-0.275987	0.937881
C289	C	0.789041	-0.979069	0.187876
C290	C	1.039041	-0.729069	0.437876
C291	C	1.289041	-0.479069	0.687876
C292	C	1.539041	-0.229069	0.937876
C293	C	0.755571	-0.955636	0.216578
C294	C	1.005571	-0.705636	0.466578
C295	C	1.255571	-0.455636	0.716578
C296	C	1.505571	-0.205636	0.966578
C297	C	0.788852	-0.453595	0.187829
C298	C	1.038852	-0.203595	0.437829
C299	C	1.288852	0.046405	0.687829
C300	C	1.538852	0.296405	0.937829
C301	C	0.788829	-0.406675	0.187825
C302	C	1.038829	-0.156675	0.437825
C303	C	1.288829	0.093325	0.687825
C304	C	1.538829	0.343325	0.937825
C305	C	0.721901	-0.406730	0.245226
C306	C	0.971901	-0.156730	0.495226
C307	C	1.221901	0.093270	0.745226
C308	C	1.471901	0.343270	0.995226
C309	C	0.721922	-0.453645	0.245229
C310	C	0.971922	-0.203645	0.495229
C311	C	1.221922	0.046355	0.745229
C312	C	1.471922	0.296355	0.995229
C313	C	0.755402	-0.477077	0.216529
C314	C	1.005402	-0.227077	0.466529
C315	C	1.255402	0.022923	0.716529
C316	C	1.505402	0.272923	0.966529
O317	O	0.693503	-0.527891	0.269619
O318	O	0.943503	-0.277891	0.519619
O319	O	1.193503	-0.027891	0.769619
O320	O	1.443503	0.222109	1.019619
O321	O	0.817349	-0.527831	0.163435
O322	O	1.067349	-0.277831	0.413435
O323	O	1.317349	-0.027831	0.663435
O324	O	1.567349	0.222169	0.913435
C325	C	0.788963	-0.739785	0.187860
C326	C	1.038963	-0.489785	0.437860
C327	C	1.288963	-0.239785	0.687860
C328	C	1.538963	0.010215	0.937860
C329	C	0.755511	-0.763267	0.216563
C330	C	1.005511	-0.513267	0.466563
C331	C	1.255511	-0.263267	0.716563
C332	C	1.505511	-0.013267	0.966563
C333	C	0.722040	-0.739833	0.245260
C334	C	0.972040	-0.489833	0.495260
C335	C	1.222040	-0.239833	0.745260
C336	C	1.472040	0.010167	0.995260
C337	C	0.755526	-0.810184	0.216567
C338	C	1.005526	-0.560184	0.466567
C339	C	1.255526	-0.310184	0.716567
C340	C	1.505526	-0.060184	0.966567
C341	C	0.788996	-0.833618	0.187870
C342	C	1.038996	-0.583618	0.437870
C343	C	1.288996	-0.333618	0.687870
C344	C	1.538996	-0.083618	0.937870
C345	C	0.822453	-0.810134	0.159169
C346	C	1.072453	-0.560134	0.409169
C347	C	1.322453	-0.310134	0.659169
C348	C	1.572453	-0.060134	0.909169
C349	C	0.822434	-0.763218	0.159163
C350	C	1.072434	-0.513218	0.409163
C351	C	1.322434	-0.263218	0.659163
C352	C	1.572434	-0.013218	0.909163
C353	C	0.688584	-0.763318	0.273961
C354	C	0.938584	-0.513318	0.523961
C355	C	1.188584	-0.263318	0.773961
C356	C	1.438584	-0.013318	1.023961
C357	C	0.688605	-0.810233	0.273964
C358	C	0.938605	-0.560233	0.523964
C359	C	1.188605	-0.310233	0.773964
C360	C	1.438605	-0.060233	1.023964
C361	C	0.722076	-0.833666	0.245267
C362	C	0.972076	-0.583666	0.495267
C363	C	1.222076	-0.333666	0.745267
C364	C	1.472076	-0.083666	0.995267
C365	C	0.891818	-0.216603	0.216569
C366	C	1.141818	0.033397	0.466569
C367	C	1.391818	0.283397	0.716569
C368	C	1.641818	0.533397	0.966569
C369	C	0.949932	-0.216610	0.216582
C370	C	1.199932	0.033390	0.466582
C371	C	1.449932	0.283390	0.716582
C372	C	1.699932	0.533390	0.966582
C373	C	0.755449	-0.216615	0.333717
C374	C	1.005449	0.033385	0.583717
C375	C	1.255449	0.283385	0.833717
C376	C	1.505449	0.533385	1.083717
C377	C	0.755451	-0.216628	0.383651
C378	C	1.005451	0.033372	0.633651
C379	C	1.255451	0.283372	0.883651
C380	C	1.505451	0.533372	1.133651
C381	C	0.755554	-0.099406	0.216571
C382	C	1.005554	0.150594	0.466571
C383	C	1.255554	0.400594	0.716571
C384	C	1.505554	0.650594	0.966571
C385	C	0.755600	-0.049472	0.216584
C386	C	1.005600	0.200528	0.466584
C387	C	1.255600	0.450528	0.716584
C388	C	1.505600	0.700528	0.966584
C389	C	0.721978	-0.245323	0.740223
C390	C	0.971978	0.004677	0.990223
C391	C	1.221978	0.254677	1.240223
C392	C	1.471978	0.504677	1.490223
C393	C	0.721981	-0.245339	0.552550
C394	C	0.971981	0.004661	0.802550
C395	C	1.221981	0.254661	1.052550
C396	C	1.471981	0.504661	1.302550
O397	O	0.693508	-0.269757	0.528272
O398	O	0.943508	-0.019757	0.778272
O399	O	1.193508	0.230243	1.028272
O400	O	1.443508	0.480243	1.278272
N401	N	0.755445	-0.216615	0.529096
N402	N	1.005445	0.033385	0.779096
N403	N	1.255445	0.283385	1.029096
N404	N	1.505445	0.533385	1.279096
C405	C	0.788908	-0.187883	0.552564
C406	C	1.038908	0.062117	0.802564
C407	C	1.288908	0.312117	1.052564
C408	C	1.538908	0.562117	1.302564
O409	O	0.817367	-0.163448	0.528309
O410	O	1.067367	0.086552	0.778309
O411	O	1.317367	0.336552	1.028309
O412	O	1.567367	0.586552	1.278309
C413	C	0.788901	-0.187865	0.740236
C414	C	1.038901	0.062135	0.990236
C415	C	1.288901	0.312135	1.240236
C416	C	1.538901	0.562135	1.490236
C417	C	0.755439	-0.216594	0.763687
C418	C	1.005439	0.033406	1.013687
C419	C	1.255439	0.283406	1.263687
C420	C	1.505439	0.533406	1.513687
C421	C	0.688517	-0.274049	0.763674
C422	C	0.938517	-0.024049	1.013674
C423	C	1.188517	0.225951	1.263674
C424	C	1.438517	0.475951	1.513674
C425	C	0.688519	-0.274046	0.810590
C426	C	0.938519	-0.024046	1.060590
C427	C	1.188519	0.225954	1.310590
C428	C	1.438519	0.475954	1.560590
C429	C	0.721980	-0.245318	0.834054
C430	C	0.971980	0.004682	1.084054
C431	C	1.221980	0.254682	1.334054
C432	C	1.471980	0.504682	1.584054
C433	C	0.755441	-0.216591	0.810603
C434	C	1.005441	0.033409	1.060603
C435	C	1.255441	0.283409	1.310603
C436	C	1.505441	0.533409	1.560603
C437	C	0.822361	-0.159131	0.763703
C438	C	1.072361	0.090869	1.013703
C439	C	1.322361	0.340869	1.263703
C440	C	1.572361	0.590869	1.513703
C441	C	0.822356	-0.159128	0.810624
C442	C	1.072356	0.090872	1.060624
C443	C	1.322356	0.340872	1.310624
C444	C	1.572356	0.590872	1.560624
C445	C	0.788894	-0.187857	0.834075
C446	C	1.038894	0.062143	1.084075
C447	C	1.288894	0.312143	1.334075
C448	C	1.538894	0.562143	1.584075
C449	C	0.788904	-0.187860	0.880983
C450	C	1.038904	0.062140	1.130983
C451	C	1.288904	0.312140	1.380983
C452	C	1.538904	0.562140	1.630983
N453	N	0.755440	-0.216584	0.904436
N454	N	1.005440	0.033416	1.154436
N455	N	1.255440	0.283416	1.404436
N456	N	1.505440	0.533416	1.654436
C457	C	0.721978	-0.245313	0.880972
C458	C	0.971978	0.004687	1.130972
C459	C	1.221978	0.254687	1.380972
C460	C	1.471978	0.504687	1.630972
C461	C	0.788910	-0.187895	0.454033
C462	C	1.038910	0.062105	0.704033
C463	C	1.288910	0.312105	0.954033
C464	C	1.538910	0.562105	1.204033
C465	C	0.788912	-0.187900	0.407116
C466	C	1.038912	0.062100	0.657116
C467	C	1.288912	0.312100	0.907116
C468	C	1.538912	0.562100	1.157116
C469	C	0.721984	-0.245355	0.407105
C470	C	0.971984	0.004645	0.657105
C471	C	1.221984	0.254645	0.907105
C472	C	1.471984	0.504645	1.157105
C473	C	0.721985	-0.245352	0.454023
C474	C	0.971985	0.004648	0.704023
C475	C	1.221985	0.254648	0.954023
C476	C	1.471985	0.504648	1.204023
C477	C	0.755446	-0.216619	0.477487
C478	C	1.005446	0.033381	0.727487
C479	C	1.255446	0.283381	0.977487
C480	C	1.505446	0.533381	1.227487
C481	C	0.721984	-0.245305	0.979498
C482	C	0.971984	0.004695	1.229498
C483	C	1.221984	0.254695	1.479498
C484	C	1.471984	0.504695	1.729498
C485	C	0.721990	-0.245302	1.026417
C486	C	0.971990	0.004698	1.276417
C487	C	1.221990	0.254698	1.526417
C488	C	1.471990	0.504698	1.776417
C489	C	0.788916	-0.187845	1.026424
C490	C	1.038916	0.062155	1.276424
C491	C	1.288916	0.312155	1.526424
C492	C	1.538916	0.562155	1.776424
C493	C	0.788912	-0.187850	0.979508
C494	C	1.038912	0.062150	1.229508
C495	C	1.288912	0.312150	1.479508
C496	C	1.538912	0.562150	1.729508
C497	C	0.755442	-0.216582	0.956046
C498	C	1.005442	0.033418	1.206046
C499	C	1.255442	0.283418	1.456046
C500	C	1.505442	0.533418	1.706046
O501	O	0.817357	-0.163450	0.905289
O502	O	1.067357	0.086550	1.155289
O503	O	1.317357	0.336550	1.405289
O504	O	1.567357	0.586550	1.655289
O505	O	0.693515	-0.269736	0.905235
O506	O	0.943515	-0.019736	1.155235
O507	O	1.193515	0.230264	1.405235
O508	O	1.443515	0.480264	1.655235
C509	C	0.721976	-0.245325	0.693308
C510	C	0.971976	0.004675	0.943308
C511	C	1.221976	0.254675	1.193308
C512	C	1.471976	0.504675	1.443308
C513	C	0.755436	-0.216599	0.669856
C514	C	1.005436	0.033401	0.919856
C515	C	1.255436	0.283401	1.169856
C516	C	1.505436	0.533401	1.419856
C517	C	0.788898	-0.187870	0.693321
C518	C	1.038898	0.062130	0.943321
C519	C	1.288898	0.312130	1.193321
C520	C	1.538898	0.562130	1.443321
C521	C	0.755439	-0.216604	0.622939
C522	C	1.005439	0.033396	0.872939
C523	C	1.255439	0.283396	1.122939
C524	C	1.505439	0.533396	1.372939
C525	C	0.721977	-0.245333	0.599474
C526	C	0.971977	0.004667	0.849474
C527	C	1.221977	0.254667	1.099474
C528	C	1.471977	0.504667	1.349474
C529	C	0.688513	-0.274057	0.622928
C530	C	0.938513	-0.024057	0.872928
C531	C	1.188513	0.225943	1.122928
C532	C	1.438513	0.475943	1.372928
C533	C	0.688514	-0.274054	0.669843
C534	C	0.938514	-0.024054	0.919843
C535	C	1.188514	0.225946	1.169843
C536	C	1.438514	0.475946	1.419843
C537	C	0.822362	-0.159146	0.669867
C538	C	1.072362	0.090854	0.919867
C539	C	1.322362	0.340854	1.169867
C540	C	1.572362	0.590854	1.419867
C541	C	0.822358	-0.159151	0.622952
C542	C	1.072358	0.090849	0.872952
C543	C	1.322358	0.340849	1.122952
C544	C	1.572358	0.590849	1.372952
C545	C	0.788896	-0.187880	0.599487
C546	C	1.038896	0.062120	0.849487
C547	C	1.288896	0.312120	1.099487
C548	C	1.538896	0.562120	1.349487
C549	C	0.755441	-0.216569	1.099816
C550	C	1.005441	0.033431	1.349816
C551	C	1.255441	0.283431	1.599816
C552	C	1.505441	0.533431	1.849816
C553	C	0.755451	-0.216573	1.049882
C554	C	1.005451	0.033427	1.299882
C555	C	1.255451	0.283427	1.549882
C556	C	1.505451	0.533427	1.799882
H557	H	0.305261	-0.135567	0.135848
H558	H	0.555261	0.114433	0.385848
H559	H	0.805261	0.364433	0.635848
H560	H	1.055261	0.614433	0.885848
N561	N	0.652424	-0.305029	0.835881
N562	N	0.902424	-0.055029	1.085881
N563	N	1.152424	0.194971	1.335881
N564	N	1.402424	0.444971	1.585881
H565	H	0.660514	-0.337129	0.827718
H566	H	0.910514	-0.087129	1.077718
H567	H	1.160514	0.162871	1.327718
H568	H	1.410514	0.412871	1.577718
H569	H	0.615090	-0.298007	0.827692
H570	H	0.865090	-0.048007	1.077692
H571	H	1.115090	0.201993	1.327692
H572	H	1.365090	0.451993	1.577692
N573	N	0.858449	-0.128140	0.835933
N574	N	1.108449	0.121860	1.085933
N575	N	1.358449	0.371860	1.335933
N576	N	1.608449	0.621860	1.585933
H577	H	0.837219	-0.107318	0.855393
H578	H	1.087219	0.142682	1.105393
H579	H	1.337219	0.392682	1.355393
H580	H	1.587219	0.642682	1.605393
H581	H	0.879639	-0.109973	0.813928
H582	H	1.129639	0.140027	1.063928
H583	H	1.379639	0.390027	1.313928
H584	H	1.629639	0.640027	1.563928
H585	H	0.849612	-0.135757	0.603862
H586	H	1.099612	0.114243	0.853862
H587	H	1.349612	0.364243	1.103862
H588	H	1.599612	0.614243	1.353862
N589	N	0.450133	-0.276410	0.276134
N590	N	0.700133	-0.026410	0.526134
N591	N	0.950133	0.223590	0.776134
N592	N	1.200133	0.473590	1.026134
H593	H	0.427501	-0.258198	0.296993
H594	H	0.677501	-0.008198	0.546993
H595	H	0.927501	0.241802	0.796993
H596	H	1.177501	0.491802	1.046993
H597	H	0.475749	-0.294636	0.294263
H598	H	0.725749	-0.044636	0.544263
H599	H	0.975749	0.205364	0.794263
H600	H	1.225749	0.455364	1.044263
H601	H	0.849676	-0.744102	0.135789
H602	H	1.099676	-0.494102	0.385789
H603	H	1.349676	-0.244102	0.635789
H604	H	1.599676	0.005898	0.885789
H605	H	0.206211	-0.135577	0.135851
H606	H	0.456211	0.114423	0.385851
H607	H	0.706211	0.364423	0.635851
H608	H	0.956211	0.614423	0.885851
N609	N	0.858549	-0.835413	0.128213
N610	N	1.108549	-0.585413	0.378213
N611	N	1.358549	-0.335413	0.628213
N612	N	1.608549	-0.085413	0.878213
H613	H	0.853480	-0.868697	0.132575
H614	H	1.103480	-0.618697	0.382575
H615	H	1.353480	-0.368697	0.632575
H616	H	1.603480	-0.118697	0.882575
H617	H	0.895883	-0.827184	0.135237
H618	H	1.145883	-0.577184	0.385237
H619	H	1.395883	-0.327184	0.635237
H620	H	1.645883	-0.077184	0.885237
N621	N	0.825158	-1.051270	0.156930
N622	N	1.075158	-0.801270	0.406930
N623	N	1.325158	-0.551270	0.656930
N624	N	1.575158	-0.301270	0.906930
H625	H	0.849372	-1.070715	0.175216
H626	H	1.099372	-0.820715	0.425216
H627	H	1.349372	-0.570715	0.675216
H628	H	1.599372	-0.320715	0.925216
H629	H	0.846320	-1.029251	0.138751
H630	H	1.096320	-0.779251	0.388751
H631	H	1.346320	-0.529251	0.638751
H632	H	1.596320	-0.279251	0.888751
H633	H	0.661357	-0.829348	0.297339
H634	H	0.911357	-0.579348	0.547339
H635	H	1.161357	-0.329348	0.797339
H636	H	1.411357	-0.079348	1.047339
H637	H	0.305223	-0.297592	0.297253
H638	H	0.555223	-0.047592	0.547253
H639	H	0.805223	0.202408	0.797253
H640	H	1.055223	0.452408	1.047253
H641	H	0.849610	-0.135751	0.688967
H642	H	1.099610	0.114249	0.938967
H643	H	1.349610	0.364249	1.188967
H644	H	1.599610	0.614249	1.438967
H645	H	0.661284	-0.603484	0.297328
H646	H	0.911284	-0.353484	0.547328
H647	H	1.161284	-0.103484	0.797328
H648	H	1.411284	0.146516	1.047328
H649	H	0.206178	-0.297595	0.297268
H650	H	0.456178	-0.047595	0.547268
H651	H	0.706178	0.202405	0.797268
H652	H	0.956178	0.452405	1.047268
N653	N	0.061295	-0.156776	0.156957
N654	N	0.311295	0.093224	0.406957
N655	N	0.561295	0.343224	0.656957
N656	N	0.811295	0.593224	0.906957
H657	H	0.083972	-0.135987	0.175248
H658	H	0.333972	0.114013	0.425248
H659	H	0.583972	0.364013	0.675248
H660	H	0.833972	0.614013	0.925248
H661	H	0.035683	-0.138577	0.138798
H662	H	0.285683	0.111423	0.388798
H663	H	0.535683	0.361423	0.638798
H664	H	0.785683	0.611423	0.888798
N665	N	0.825005	-0.156908	0.479342
N666	N	1.075005	0.093092	0.729342
N667	N	1.325005	0.343092	0.979342
N668	N	1.575005	0.593092	1.229342
H669	H	0.803777	-0.136082	0.498800
H670	H	1.053777	0.113918	0.748800
H671	H	1.303777	0.363918	0.998800
H672	H	1.553777	0.613918	1.248800
H673	H	0.846198	-0.138743	0.457336
H674	H	1.096198	0.111257	0.707336
H675	H	1.346198	0.361257	0.957336
H676	H	1.596198	0.611257	1.207336
H677	H	0.661266	-0.297448	0.688933
H678	H	0.911266	-0.047448	0.938933
H679	H	1.161266	0.202552	1.188933
H680	H	1.411266	0.452552	1.438933
H681	H	0.661329	-0.744242	0.297330
H682	H	0.911329	-0.494242	0.547330
H683	H	1.161329	-0.244242	0.797330
H684	H	1.411329	0.005758	1.047330
N685	N	0.858498	-0.694660	0.128197
N686	N	1.108498	-0.444660	0.378197
N687	N	1.358498	-0.194660	0.628197
N688	N	1.608498	0.055340	0.878197
H689	H	0.895846	-0.686463	0.135206
H690	H	1.145846	-0.436463	0.385206
H691	H	1.395846	-0.186463	0.635206
H692	H	1.645846	0.063537	0.885206
H693	H	0.850354	-0.686489	0.096104
H694	H	1.100354	-0.436489	0.346104
H695	H	1.350354	-0.186489	0.596104
H696	H	1.600354	0.063511	0.846104
N697	N	0.685893	-0.276333	0.479320
N698	N	0.935893	-0.026333	0.729320
N699	N	1.185893	0.223667	0.979320
N700	N	1.435893	0.473667	1.229320
H701	H	0.693984	-0.308434	0.471162
H702	H	0.943984	-0.058434	0.721162
H703	H	1.193984	0.191566	0.971162
H704	H	1.443984	0.441566	1.221162
H705	H	0.648557	-0.269313	0.471133
H706	H	0.898557	-0.019313	0.721133
H707	H	1.148557	0.230687	0.971133
H708	H	1.398557	0.480687	1.221133
N709	N	0.685894	-0.276343	0.381793
N710	N	0.935894	-0.026343	0.631793
N711	N	1.185894	0.223657	0.881793
N712	N	1.435894	0.473657	1.131793
H713	H	0.690976	-0.271983	0.348513
H714	H	0.940976	-0.021983	0.598513
H715	H	1.190976	0.228017	0.848513
H716	H	1.440976	0.478017	1.098513
H717	H	0.648559	-0.269342	0.389981
H718	H	0.898559	-0.019342	0.639981
H719	H	1.148559	0.230658	0.889981
H720	H	1.398559	0.480658	1.139981
H721	H	0.054058	-0.268828	0.268605
H722	H	0.304058	-0.018828	0.518605
H723	H	0.554058	0.231172	0.768605
H724	H	0.804058	0.481172	1.018605
N725	N	0.685899	-0.276290	1.051711
N726	N	0.935899	-0.026290	1.301711
N727	N	1.185899	0.223710	1.551711
N728	N	1.435899	0.473710	1.801711
H729	H	0.664700	-0.294488	1.029724
H730	H	0.914700	-0.044488	1.279724
H731	H	1.164700	0.205512	1.529724
H732	H	1.414700	0.455512	1.779724
H733	H	0.661718	-0.258001	1.071171
H734	H	0.911718	-0.008001	1.321171
H735	H	1.161718	0.241999	1.571171
H736	H	1.411718	0.491999	1.821171
N737	N	0.450141	-0.156752	0.156907
N738	N	0.700141	0.093248	0.406907
N739	N	0.950141	0.343248	0.656907
N740	N	1.200141	0.593248	0.906907
H741	H	0.475726	-0.138519	0.138736
H742	H	0.725726	0.111481	0.388736
H743	H	0.975726	0.361481	0.638736
H744	H	1.225726	0.611481	0.888736
H745	H	0.427512	-0.135994	0.175236
H746	H	0.677512	0.114006	0.425236
H747	H	0.927512	0.364006	0.675236
H748	H	1.177512	0.614006	0.925236
H749	H	-0.045007	-0.268830	0.268614
H750	H	0.204993	-0.018830	0.518614
H751	H	0.454993	0.231170	0.768614
H752	H	0.704993	0.481170	1.018614
H753	H	0.661266	-0.297443	0.744574
H754	H	0.911266	-0.047443	0.994574
H755	H	1.161266	0.202557	1.244574
H756	H	1.411266	0.452557	1.494574
H757	H	0.556427	-0.164352	0.164477
H758	H	0.806427	0.085648	0.414477
H759	H	1.056427	0.335648	0.664477
H760	H	1.306427	0.585648	0.914477
N761	N	0.825011	-0.156918	0.381827
N762	N	1.075011	0.093082	0.631827
N763	N	1.325011	0.343082	0.881827
N764	N	1.575011	0.593082	1.131827
H765	H	0.803786	-0.136097	0.362352
H766	H	1.053786	0.113903	0.612352
H767	H	1.303786	0.363903	0.862352
H768	H	1.553786	0.613903	1.112352
H769	H	0.849220	-0.175212	0.362396
H770	H	1.099220	0.074788	0.612396
H771	H	1.349220	0.324788	0.862396
H772	H	1.599220	0.574788	1.112396
N773	N	0.824914	-0.381348	0.156864
N774	N	1.074914	-0.131348	0.406864
N775	N	1.324914	0.118652	0.656864
N776	N	1.574914	0.368652	0.906864
H777	H	0.846122	-0.403315	0.138688
H778	H	1.096122	-0.153315	0.388688
H779	H	1.346122	0.096685	0.638688
H780	H	1.596122	0.346685	0.888688
H781	H	0.849086	-0.361860	0.175172
H782	H	1.099086	-0.111860	0.425172
H783	H	1.349086	0.138140	0.675172
H784	H	1.599086	0.388140	0.925172
N785	N	0.858454	-0.128144	0.738417
N786	N	1.108454	0.121856	0.988417
N787	N	1.358454	0.371856	1.238417
N788	N	1.608454	0.621856	1.488417
H789	H	0.879645	-0.109945	0.760407
H790	H	1.129645	0.140055	1.010407
H791	H	1.379645	0.390055	1.260407
H792	H	1.629645	0.640055	1.510407
H793	H	0.837190	-0.107352	0.718945
H794	H	1.087190	0.142648	0.968945
H795	H	1.337190	0.392648	1.218945
H796	H	1.587190	0.642648	1.468945
N797	N	0.824961	-0.478863	0.156875
N798	N	1.074961	-0.228863	0.406875
N799	N	1.324961	0.021137	0.656875
N800	N	1.574961	0.271137	0.906875
H801	H	0.846146	-0.456862	0.138693
H802	H	1.096146	-0.206862	0.388693
H803	H	1.346146	0.043138	0.638693
H804	H	1.596146	0.293138	0.888693
H805	H	0.803705	-0.498349	0.136066
H806	H	1.053705	-0.248349	0.386066
H807	H	1.303705	0.001651	0.636066
H808	H	1.553705	0.251651	0.886066
N809	N	-0.052196	-0.156788	0.156966
N810	N	0.197804	0.093212	0.406966
N811	N	0.447804	0.343212	0.656966
N812	N	0.697804	0.593212	0.906966
H813	H	-0.026607	-0.138555	0.138797
H814	H	0.223393	0.111445	0.388797
H815	H	0.473393	0.361445	0.638797
H816	H	0.723393	0.611445	0.888797
H817	H	-0.074827	-0.136030	0.175291
H818	H	0.175173	0.113970	0.425291
H819	H	0.425173	0.363970	0.675291
H820	H	0.675173	0.613970	0.925291
N821	N	0.858470	-0.597148	0.128192
N822	N	1.108470	-0.347148	0.378192
N823	N	1.358470	-0.097148	0.628192
N824	N	1.608470	0.152852	0.878192
H825	H	0.879676	-0.619118	0.110018
H826	H	1.129676	-0.369118	0.360018
H827	H	1.379676	-0.119118	0.610018
H828	H	1.629676	0.130882	0.860018
H829	H	0.882642	-0.577664	0.146504
H830	H	1.132642	-0.327664	0.396504
H831	H	1.382642	-0.077664	0.646504
H832	H	1.632642	0.172336	0.896504
H833	H	0.694725	-0.268698	0.960400
H834	H	0.944725	-0.018698	1.210400
H835	H	1.194725	0.231302	1.460400
H836	H	1.444725	0.481302	1.710400
N837	N	0.825125	-0.953743	0.156917
N838	N	1.075125	-0.703743	0.406917
N839	N	1.325125	-0.453743	0.656917
N840	N	1.575125	-0.203743	0.906917
H841	H	0.846329	-0.975712	0.138739
H842	H	1.096329	-0.725712	0.388739
H843	H	1.346329	-0.475712	0.638739
H844	H	1.596329	-0.225712	0.888739
H845	H	0.849301	-0.934258	0.175225
H846	H	1.099301	-0.684258	0.425225
H847	H	1.349301	-0.434258	0.675225
H848	H	1.599301	-0.184258	0.925225
H849	H	0.816163	-0.164460	0.960414
H850	H	1.066163	0.085540	1.210414
H851	H	1.316163	0.335540	1.460414
H852	H	1.566163	0.585540	1.710414
H853	H	0.661269	-0.297450	0.603815
H854	H	0.911269	-0.047450	0.853815
H855	H	1.161269	0.202550	1.103815
H856	H	1.411269	0.452550	1.353815
N857	N	0.563623	-0.276404	0.276113
N858	N	0.813623	-0.026404	0.526113
N859	N	1.063623	0.223596	0.776113
N860	N	1.313623	0.473596	1.026113
H861	H	0.538037	-0.294637	0.294284
H862	H	0.788037	-0.044637	0.544284
H863	H	1.038037	0.205363	0.794284
H864	H	1.288037	0.455363	1.044284
H865	H	0.586303	-0.258155	0.296935
H866	H	0.836303	-0.008155	0.546935
H867	H	1.086303	0.241845	0.796935
H868	H	1.336303	0.491845	1.046935
N869	N	0.686038	-1.051363	0.276235
N870	N	0.936038	-0.801363	0.526235
N871	N	1.186038	-0.551363	0.776235
N872	N	1.436038	-0.301363	1.026235
H873	H	0.664834	-1.029394	0.294412
H874	H	0.914834	-0.779394	0.544412
H875	H	1.164834	-0.529394	0.794412
H876	H	1.414834	-0.279394	1.044412
H877	H	0.707304	-1.070811	0.297048
H878	H	0.957304	-0.820811	0.547048
H879	H	1.207304	-0.570811	0.797048
H880	H	1.457304	-0.320811	1.047048
N881	N	0.825005	-0.156858	1.051734
N882	N	1.075005	0.093142	1.301734
N883	N	1.325005	0.343142	1.551734
N884	N	1.575005	0.593142	1.801734
H885	H	0.849218	-0.175115	1.071209
H886	H	1.099218	0.074885	1.321209
H887	H	1.349218	0.324885	1.571209
H888	H	1.599218	0.574885	1.821209
H889	H	0.803733	-0.136044	1.071167
H890	H	1.053733	0.113956	1.321167
H891	H	1.303733	0.363956	1.571167
H892	H	1.553733	0.613956	1.821167
N893	N	0.686010	-0.953850	0.276235
N894	N	0.936010	-0.703850	0.526235
N895	N	1.186010	-0.453850	0.776235
N896	N	1.436010	-0.203850	1.026235
H897	H	0.664819	-0.975850	0.294413
H898	H	0.914819	-0.725850	0.544413
H899	H	1.164819	-0.475850	0.794413
H900	H	1.414819	-0.225850	1.044413
H901	H	0.661824	-0.934405	0.257923
H902	H	0.911824	-0.684405	0.507923
H903	H	1.161824	-0.434405	0.757923
H904	H	1.411824	-0.184405	1.007923
H905	H	0.661305	-0.688593	0.297332
H906	H	0.911305	-0.438593	0.547332
H907	H	1.161305	-0.188593	0.797332
H908	H	1.411305	0.061407	1.047332
H909	H	0.694682	-0.472765	0.268605
H910	H	0.944682	-0.222765	0.518605
H911	H	1.194682	0.027235	0.768605
H912	H	1.444682	0.277235	1.018605
H913	H	0.694648	-0.387643	0.268590
H914	H	0.944648	-0.137643	0.518590
H915	H	1.194648	0.112357	0.768590
H916	H	1.444648	0.362357	1.018590
