data_functionalizedCrystal
_audit_creation_method	'MofGen! by Chris Wilmer'
_symmetry_space_group_name_H-M	'P1'
_symmetry_Int_Tables_number	1
_symmetry_cell_setting	triclinic
loop_
_symmetry_equiv_pos_as_xyz
  x,y,z
_cell_length_a	19.851628
_cell_length_b	14.446369
_cell_length_c	14.446369
_cell_angle_alpha	59.998264
_cell_angle_beta	89.999643
_cell_angle_gamma	60.001849
loop_
_atom_site_label
_atom_site_type_symbol
_atom_site_fract_x
_atom_site_fract_y
_atom_site_fract_z
Zr1	Zr	0.648866	1.013361	-0.121537
O2	O	0.541303	1.206473	-0.269340
O3	O	0.681844	0.820243	-0.076227
O4	O	0.681835	1.013375	-0.269349
O5	O	0.541314	1.013333	0.076120
O6	O	0.792684	1.013393	-0.269357
O7	O	0.541312	1.013341	-0.076217
O8	O	0.792700	0.667916	0.076103
O9	O	0.541298	1.358810	-0.269341
O10	O	0.778628	0.899691	-0.056910
O11	O	0.695905	0.899672	0.056784
O12	O	0.695894	1.127059	-0.170593
O13	O	0.613170	1.127039	-0.056899
Zr14	Zr	0.825660	1.013376	0.121409
Zr15	Zr	0.825657	1.013390	-0.121551
Zr16	Zr	0.648869	1.013348	0.121423
Zr17	Zr	0.648858	1.256321	-0.121539
Zr18	Zr	0.825668	0.770417	0.121411
O19	O	0.792682	1.206494	0.076099
O20	O	0.792677	1.206513	-0.269359
O21	O	0.541308	1.206454	0.076118
O22	O	0.933222	0.820265	0.269212
O23	O	0.933218	0.820284	-0.076246
O24	O	0.681848	0.820224	0.269231
O25	O	0.933211	1.013405	-0.076247
O26	O	0.792691	1.013363	0.269221
O27	O	0.681842	1.013345	0.269230
O28	O	0.933213	1.013396	0.076090
O29	O	0.681823	1.358832	-0.269352
O30	O	0.792702	0.667905	0.269224
O31	O	0.933227	0.667928	0.269213
O32	O	0.933225	0.667939	0.076092
O33	O	0.541301	1.358799	-0.076220
O34	O	0.681826	1.358822	-0.076231
O35	O	0.778631	0.899679	0.170465
O36	O	0.861355	0.899698	0.056771
O37	O	0.778621	1.127066	-0.056912
O38	O	0.695897	1.127046	0.056782
C39	C	0.737273	0.709463	-0.000062
C40	C	0.737276	0.606320	-0.000061
C41	C	0.789452	0.567050	-0.071779
C42	C	0.789208	0.460131	-0.072166
C43	C	0.647335	0.547112	-0.051982
C44	C	0.647637	0.654488	-0.052521
C45	C	0.774284	0.479506	0.123613
C46	C	0.776085	0.371044	0.123422
C47	C	0.516124	1.013333	-0.000047
C48	C	0.441072	1.013321	-0.000041
C49	C	0.304816	0.889380	0.061929
C50	C	0.237366	0.951345	0.106861
C51	C	0.303640	1.013355	-0.000056
C52	C	0.237356	0.951382	-0.044948
C53	C	0.170891	1.013379	-0.000069
C54	C	0.237179	1.075320	0.044938
C55	C	0.237179	1.075340	-0.106930
C56	C	0.169716	1.137395	-0.062026
C57	C	0.380115	1.013338	-0.000045
C58	C	0.094415	1.013405	-0.000077
C59	C	0.958401	1.013405	-0.000081
C60	C	1.033454	1.013417	-0.000086
C61	C	0.737259	1.013385	-0.303970
C62	C	0.737257	1.013391	-0.407113
C63	C	0.737253	1.317275	-0.000066
C64	C	0.737249	1.420417	-0.000067
C65	C	0.684825	1.156777	-0.625479
C66	C	0.685046	1.156874	-0.518247
C67	C	0.827150	0.942173	-0.410443
C68	C	0.826868	0.943084	-0.518212
C69	C	0.700542	0.940110	-0.516838
C70	C	0.698717	0.942812	-0.410869
C71	C	0.737267	1.013352	0.303842
C72	C	0.737268	1.013346	0.406985
C73	C	0.958411	0.709499	-0.000078
C74	C	1.033467	0.606368	-0.000083
C75	C	0.737277	0.709446	0.303844
C76	C	0.737282	0.606298	0.406988
C77	C	0.958415	0.709482	0.303828
C78	C	1.033473	0.606346	0.406966
C79	C	0.516110	1.317256	-0.303955
C80	C	0.441053	1.420392	-0.407093
C81	C	0.516114	1.317239	-0.000049
C82	C	0.441058	1.420370	-0.000044
C83	C	0.737249	1.317291	-0.303972
C84	C	0.737244	1.420440	-0.407116
C85	C	1.025532	0.557933	-0.059436
C86	C	1.096048	0.461044	-0.059464
C87	C	1.174499	0.412585	-0.000131
C88	C	1.182433	0.461030	0.059224
C89	C	1.111917	0.557924	0.059244
C90	C	1.111909	0.557922	0.396053
C91	C	1.182440	0.461028	0.492953
C92	C	1.174533	0.412553	0.600764
C93	C	1.096088	0.460986	0.611674
C94	C	1.025559	0.557885	0.514775
C95	C	0.362617	1.468827	-0.396181
C96	C	0.292086	1.565752	-0.493081
C97	C	0.299993	1.614232	-0.600892
C98	C	0.378437	1.565792	-0.611802
C99	C	0.448966	1.468877	-0.514903
C100	C	0.448994	1.468815	0.059299
C101	C	0.378478	1.565730	0.059299
C102	C	0.300027	1.614192	-0.000037
C103	C	0.292093	1.565743	-0.059387
C104	C	0.362608	1.468836	-0.059394
C105	C	0.684861	0.459966	0.481980
C106	C	0.685077	0.566899	0.374645
C107	C	0.827176	0.479450	0.481540
C108	C	0.826899	0.372063	0.588405
C109	C	0.700567	0.547016	0.590000
C110	C	0.698738	0.655499	0.481322
H111	H	0.855830	0.529949	-0.037180
Cl112	Cl	0.394116	0.727540	0.142958
Cl113	Cl	0.211386	1.736018	-0.000014
H114	H	0.764007	0.656843	-0.162468
H115	H	1.246306	0.421603	0.484050
Cl116	Cl	1.263207	0.290733	0.722570
H117	H	1.089663	0.421503	0.699467
H118	H	0.384954	1.605161	0.107633
Cl119	Cl	1.121870	0.618851	0.260531
H120	H	0.356163	1.429360	-0.308404
H121	H	1.246317	0.421561	0.107530
Cl122	Cl	0.926957	0.618741	0.528514
Cl123	Cl	0.193481	1.626622	-0.479339
Cl124	Cl	0.723782	1.243282	-0.710374
H125	H	0.242557	1.693147	-0.679784
Cl126	Cl	0.749530	0.518173	-0.213020
Cl127	Cl	0.599892	1.010956	-0.594061
H128	H	1.118390	0.597347	0.107583
H129	H	0.236697	0.898944	0.197239
H130	H	0.384865	1.605278	-0.699593
Cl131	Cl	0.582876	0.704840	0.290853
Cl132	Cl	0.601927	0.794783	-0.193009
Cl133	Cl	0.890116	0.513798	0.523581
Cl134	Cl	0.547569	1.407989	-0.528641
Cl135	Cl	0.547609	1.407918	0.133896
Cl136	Cl	0.890479	0.780619	-0.477071
Cl137	Cl	0.193462	1.626675	-0.133971
Cl138	Cl	0.238098	1.156154	0.103711
Cl139	Cl	0.352618	1.407937	-0.133995
Cl140	Cl	0.582400	0.517442	0.478378
Cl141	Cl	0.751569	0.705118	0.520719
Cl142	Cl	0.723827	0.321536	0.480375
H143	H	0.710555	0.529440	0.320854
Cl144	Cl	0.926916	0.618838	-0.134041
Cl145	Cl	0.582361	1.243684	-0.708778
H146	H	0.856306	0.281313	0.588129
Cl147	Cl	1.263140	0.290772	-0.000165
H148	H	0.606619	0.684219	-0.003646
Cl149	Cl	0.872895	0.419925	0.401861
H150	H	0.868095	0.342108	0.666986
Cl151	Cl	0.599916	0.608097	0.596365
Cl152	Cl	0.596479	0.795176	0.401954
H153	H	0.856268	0.993712	-0.568560
Cl154	Cl	0.759247	0.508742	0.710768
H155	H	0.855410	0.370910	-0.037378
H156	H	0.617512	0.585775	-0.142099
Cl157	Cl	0.584666	0.512408	0.024824
H158	H	0.839518	0.440041	0.167022
H159	H	0.111971	1.242308	-0.114438
H160	H	0.842329	0.280673	0.162209
Cl161	Cl	0.872864	1.018565	-0.407154
Cl162	Cl	0.715894	0.517406	0.206489
Cl163	Cl	0.723523	0.321122	0.212807
H164	H	0.237879	1.127695	-0.197289
H165	H	0.618852	1.212764	-0.519866
Cl166	Cl	0.724373	1.243721	-0.522034
Cl167	Cl	0.236337	0.870458	-0.103562
H168	H	0.632492	0.994740	-0.411383
Cl169	Cl	0.751559	0.781191	-0.288657
Cl170	Cl	0.759121	0.777063	-0.474678
Cl171	Cl	0.890097	0.779292	-0.289608
Cl172	Cl	1.086055	0.400157	-0.134081
