data_functionalizedCrystal
_audit_creation_method	'MofGen! by Chris Wilmer'
_symmetry_space_group_name_H-M	'P1'
_symmetry_Int_Tables_number	1
_symmetry_cell_setting	triclinic
loop_
_symmetry_equiv_pos_as_xyz
  x,y,z
_cell_length_a	13.032831
_cell_length_b	25.639239
_cell_length_c	13.033352
_cell_angle_alpha	82.836244
_cell_angle_beta	89.095163
_cell_angle_gamma	82.842759
loop_
_atom_site_label
_atom_site_type_symbol
_atom_site_fract_x
_atom_site_fract_y
_atom_site_fract_z
Zn1	Zn	1.498024	-0.353216	0.780714
Zn2	Zn	1.519759	-0.431079	0.608719
Zn3	Zn	1.347950	-0.331341	0.586967
Zn4	Zn	1.325969	-0.428279	0.758840
O5	O	1.422925	-0.385979	0.683810
O6	O	1.644816	-0.373871	0.776156
O7	O	1.515263	-0.409866	0.461924
O8	O	1.367961	-0.261087	0.612719
O9	O	1.660784	-0.431077	0.649792
O10	O	1.478220	-0.277159	0.755064
O11	O	1.389036	-0.336588	0.445943
O12	O	1.201126	-0.333873	0.591509
O13	O	1.330497	-0.426305	0.905651
O14	O	1.184976	-0.405094	0.717783
O15	O	1.456906	-0.371156	0.921722
O16	O	1.493949	-0.503863	0.628582
O17	O	1.351572	-0.501806	0.738875
C18	C	1.155737	-0.366806	0.649913
C19	C	1.041429	-0.358618	0.635436
C20	C	0.982516	-0.390252	0.691366
C21	C	0.864373	-0.381790	0.676404
C22	C	1.422759	-0.521806	0.683741
C23	C	1.422777	-0.579923	0.683758
C24	C	1.497218	-0.941375	0.626514
C25	C	1.497257	-0.995983	0.626533
O26	O	1.560377	-1.025131	0.577788
N27	N	1.423098	-1.022235	0.683901
C28	C	1.348902	-0.993876	0.741262
O29	O	1.285828	-1.021219	0.790061
C30	C	1.348869	-0.939270	0.741249
C31	C	1.423027	-0.913020	0.683869
C32	C	1.571371	-0.915126	0.569140
C33	C	1.571331	-0.860522	0.569120
C34	C	1.497139	-0.832167	0.626474
C35	C	1.422987	-0.858416	0.683849
C36	C	1.274679	-0.910913	0.798615
C37	C	1.274653	-0.856303	0.798597
C38	C	1.348811	-0.830054	0.741217
C39	C	1.348756	-0.775457	0.741183
N40	N	1.422915	-0.749205	0.683815
C41	C	1.497107	-0.777560	0.626460
C42	C	1.348978	-1.108553	0.741288
C43	C	1.349005	-1.163157	0.741297
C44	C	1.497361	-1.165261	0.626569
C45	C	1.497328	-1.110655	0.626555
C46	C	1.423137	-1.082302	0.683920
C47	C	1.497017	-0.662887	0.626422
C48	C	1.496968	-0.608278	0.626403
C49	C	1.348616	-0.606179	0.741135
C50	C	1.348661	-0.660783	0.741150
C51	C	1.422871	-0.689137	0.683791
O52	O	1.285671	-0.746275	0.789906
O53	O	1.560178	-0.750212	0.577681
C54	C	1.691157	-0.405226	0.717840
C55	C	1.805462	-0.413428	0.732342
C56	C	1.388825	-0.400859	0.952044
C57	C	1.374293	-0.407199	1.066349
C58	C	1.423118	-0.249624	0.683905
C59	C	1.423200	-0.191518	0.683946
C60	C	1.430359	-0.382740	1.125262
C61	C	1.415341	-0.389293	1.243402
C62	C	1.456885	-0.371169	1.416618
C63	C	1.471415	-0.364830	1.302313
H64	H	0.827350	-0.348439	0.617444
C65	C	1.336600	-0.423688	1.292956
C66	C	1.337386	-0.423366	1.400285
C67	C	1.264877	-0.455051	1.445971
H68	H	1.269670	-0.410153	1.266762
H69	H	1.353825	-0.458941	1.277347
H70	H	1.320155	-0.388120	1.415886
H71	H	1.404298	-0.436906	1.426509
H72	H	1.282102	-0.490304	1.430362
H73	H	1.197952	-0.441512	1.419769
H74	H	1.265407	-0.454840	1.518799
H75	H	1.489474	-0.356945	1.088235
H76	H	1.530532	-0.339032	1.265292
H77	H	1.019543	-0.423598	0.750329
C78	C	1.194067	-0.939414	0.860738
C79	C	1.135594	-0.962844	0.794128
C80	C	1.061316	-0.989098	0.851324
H81	H	1.227568	-0.966027	0.910576
H82	H	1.149829	-0.914712	0.894871
H83	H	1.179826	-0.987544	0.760013
H84	H	1.102071	-0.936244	0.744290
H85	H	1.017078	-0.964396	0.885457
H86	H	1.094825	-1.015708	0.901160
H87	H	1.021627	-1.004995	0.806137
C88	C	0.855014	-0.457884	0.810882
C89	C	0.962345	-0.457450	0.810088
C90	C	1.008027	-0.498397	0.882415
H91	H	0.828810	-0.452917	0.877857
H92	H	0.839411	-0.490924	0.793493
H93	H	0.977940	-0.424418	0.827483
H94	H	0.988578	-0.462424	0.743130
H95	H	0.992425	-0.531438	0.865026
H96	H	0.981816	-0.493427	0.949385
H97	H	1.080856	-0.498112	0.881879
C98	C	1.577705	-0.693707	0.564341
C99	C	1.636212	-0.732954	0.630995
C100	C	1.710562	-0.761348	0.573846
H101	H	1.544262	-0.709787	0.514507
H102	H	1.621911	-0.670265	0.530207
H103	H	1.592013	-0.756393	0.665113
H104	H	1.669678	-0.716889	0.680830
H105	H	1.754768	-0.737906	0.539712
H106	H	1.677110	-0.777424	0.524014
H107	H	1.750274	-0.787977	0.619063
C108	C	1.295539	-0.441675	1.115581
C109	C	1.321135	-0.493567	1.092308
C110	C	1.248601	-0.525340	1.137627
H111	H	1.295853	-0.441576	1.188433
H112	H	1.228654	-0.428129	1.089241
H113	H	1.388002	-0.507110	1.118654
H114	H	1.320814	-0.493682	1.019465
H115	H	1.181717	-0.511794	1.111286
H116	H	1.248921	-0.525237	1.210477
H117	H	1.265953	-0.560551	1.121835
H118	H	1.004402	-0.325269	0.576480
H119	H	1.557357	-0.586907	0.579674
H120	H	1.631719	-0.839153	0.522399
C121	C	1.651980	-0.945807	0.506751
C122	C	1.716885	-0.911119	0.456490
C123	C	1.791145	-0.939357	0.398986
H124	H	1.691879	-0.972479	0.551697
H125	H	1.618421	-0.961816	0.456873
H126	H	1.750442	-0.895119	0.506362
H127	H	1.677016	-0.884447	0.411526
H128	H	1.757587	-0.955365	0.349108
H129	H	1.831037	-0.966027	0.443940
H130	H	1.835187	-0.915824	0.364870
H131	H	1.557714	-1.089286	0.579832
H132	H	1.557775	-1.188358	0.579871
H133	H	1.288610	-1.184524	0.788010
C134	C	1.268294	-1.077859	0.803588
C135	C	1.203347	-1.112539	0.853804
C136	C	1.129003	-1.084284	0.911194
H137	H	1.301748	-1.061829	0.853490
H138	H	1.228449	-1.051200	0.758543
H139	H	1.243186	-1.139188	0.898845
H140	H	1.169868	-1.128569	0.803926
H141	H	1.089158	-1.057626	0.866149
H142	H	1.162467	-1.068256	0.961090
H143	H	1.084922	-1.107810	0.945264
H144	H	1.214238	-0.833220	0.845314
H145	H	1.288279	-0.682157	0.787877
H146	H	1.288208	-0.583083	0.787829
