data_functionalizedCrystal
_audit_creation_method	'MofGen! by Chris Wilmer'
_symmetry_space_group_name_H-M	'P1'
_symmetry_Int_Tables_number	1
_symmetry_cell_setting	triclinic
loop_
_symmetry_equiv_pos_as_xyz
  x,y,z
_cell_length_a	18.050589
_cell_length_b	19.077241
_cell_length_c	19.076919
_cell_angle_alpha	90.113904
_cell_angle_beta	92.270055
_cell_angle_gamma	87.687629
loop_
_atom_site_label
_atom_site_type_symbol
_atom_site_fract_x
_atom_site_fract_y
_atom_site_fract_z
Zn1	Zn	-0.269601	-1.058308	-0.440558
Zn2	Zn	0.230399	-0.558308	0.059442
Zn3	Zn	-0.388616	-1.062956	-0.323049
Zn4	Zn	0.111384	-0.562956	0.176951
Zn5	Zn	-0.269210	-0.945524	-0.318336
Zn6	Zn	0.230790	-0.445524	0.181664
Zn7	Zn	-0.398521	-0.940776	-0.435784
Zn8	Zn	0.101479	-0.440776	0.064216
O9	O	-0.331487	-1.001891	-0.379432
O10	O	0.168513	-0.501891	0.120568
O11	O	-0.281407	-1.157258	-0.428941
O12	O	0.218593	-0.657258	0.071059
O13	O	-0.368467	-1.051311	-0.224093
O14	O	0.131533	-0.551311	0.275907
O15	O	-0.165336	-0.960527	-0.334575
O16	O	0.334664	-0.460527	0.165425
O17	O	-0.368846	-1.160673	-0.342607
O18	O	0.131154	-0.660673	0.157393
O19	O	-0.165624	-1.043389	-0.424371
O20	O	0.334376	-0.543389	0.075629
O21	O	-0.280740	-0.965034	-0.220630
O22	O	0.219260	-0.465034	0.279370
O23	O	-0.290345	-0.846561	-0.329945
O24	O	0.209655	-0.346561	0.170055
O25	O	-0.385729	-0.952435	-0.534748
O26	O	0.114271	-0.452435	-0.034748
O27	O	-0.385350	-0.843073	-0.416234
O28	O	0.114650	-0.343073	0.083766
O29	O	-0.291012	-1.038785	-0.538256
O30	O	0.208988	-0.538785	-0.038256
O31	O	-0.493855	-1.046707	-0.337978
O32	O	0.006145	-0.546707	0.162022
O33	O	-0.501133	-0.956942	-0.420804
O34	O	-0.001133	-0.456942	0.079196
C35	C	-0.338880	-0.819320	-0.372060
C36	C	0.161120	-0.319320	0.127940
C37	C	-0.342062	-0.741214	-0.368924
C38	C	0.157938	-0.241214	0.131076
C39	C	-0.298110	-0.702740	-0.412468
C40	C	0.201890	-0.202740	0.087532
C41	C	-0.301095	-0.629352	-0.409514
C42	C	0.198905	-0.129352	0.090486
C43	C	-0.348037	-0.594439	-0.363020
C44	C	0.151963	-0.094439	0.136980
C45	C	-0.391991	-0.632919	-0.319471
C46	C	0.108009	-0.132919	0.180529
C47	C	-0.389001	-0.706306	-0.322421
C48	C	0.110999	-0.206306	0.177579
C49	C	-0.361849	-0.375147	-0.349365
C50	C	0.138151	0.124853	0.150635
C51	C	-0.364837	-0.301755	-0.346420
C52	C	0.135163	0.198245	0.153580
C53	C	-0.273940	-0.298193	-0.436463
C54	C	0.226060	0.201807	0.063537
C55	C	-0.270958	-0.371582	-0.439412
C56	C	0.229042	0.128418	0.060588
C57	C	-0.314909	-0.410055	-0.395860
C58	C	0.185091	0.089945	0.104140
N59	N	-0.351092	-0.519425	-0.360001
N60	N	0.148908	-0.019425	0.139999
N61	N	-0.311850	-0.485068	-0.398876
N62	N	0.188150	0.014932	0.101124
C63	C	-0.524440	-1.001832	-0.379400
C64	C	-0.024440	-0.501832	0.120600
C65	C	-0.606985	-1.001870	-0.379413
C66	C	-0.106985	-0.501870	0.120587
C67	C	-0.851824	-1.050803	-0.334454
C68	C	-0.351824	-0.550803	0.165546
C69	C	-0.804334	-0.987384	-0.314614
C70	C	-0.304334	-0.487384	0.185386
C71	C	-0.904104	-1.001956	-0.379470
C72	C	-0.404104	-0.501956	0.120530
C73	C	-0.804512	-1.065331	-0.399249
C74	C	-0.304512	-0.565331	0.100751
C75	C	-0.758119	-1.001917	-0.379440
C76	C	-0.258119	-0.501917	0.120560
C77	C	-0.857701	-0.938504	-0.359596
C78	C	-0.357701	-0.438504	0.140404
C79	C	-0.857883	-1.016493	-0.444262
C80	C	-0.357883	-0.516493	0.055738
C81	C	-0.810418	-0.953028	-0.424444
C82	C	-0.310418	-0.453028	0.075556
C83	C	-0.988202	-1.001979	-0.379486
C84	C	-0.488202	-0.501979	0.120514
C85	C	-0.674023	-1.001887	-0.379425
C86	C	-0.174023	-0.501887	0.120575
C87	C	-0.137780	-1.001969	-0.379480
C88	C	0.362220	-0.501969	0.120520
C89	C	-0.055234	-1.002002	-0.379500
C90	C	0.444766	-0.502002	0.120500
C91	C	-0.339519	-0.994562	-0.562711
C92	C	0.160481	-0.494562	-0.062711
C93	C	-0.342942	-0.991439	-0.640813
C94	C	0.157058	-0.491439	-0.140813
C95	C	-0.324061	-0.185175	-0.386827
C96	C	0.175939	0.314825	0.113173
C97	C	-0.320885	-0.263281	-0.389964
C98	C	0.179115	0.236719	0.110036
C99	C	-0.295238	-1.034927	-0.679333
C100	C	0.204762	-0.534927	-0.179333
C101	C	-0.298452	-1.031984	-0.752719
C102	C	0.201548	-0.531984	-0.252719
C103	C	-0.349373	-0.985556	-0.787583
C104	C	0.150627	-0.485556	-0.287583
C105	C	-0.397079	-0.942062	-0.749057
C106	C	0.102921	-0.442062	-0.249057
C107	C	-0.393861	-0.945002	-0.675673
C108	C	0.106139	-0.445002	-0.175673
C109	C	-0.364281	-0.971938	-1.006861
C110	C	0.135719	-0.471938	-0.506861
C111	C	-0.367497	-0.969003	-1.080251
C112	C	0.132503	-0.469003	-0.580251
C113	C	-0.268868	-1.058924	-1.083907
C114	C	0.231132	-0.558924	-0.583907
C115	C	-0.265658	-1.061863	-1.010521
C116	C	0.234342	-0.561863	-0.510521
C117	C	-0.313361	-1.018367	-0.972002
C118	C	0.186639	-0.518367	-0.472002
N119	N	-0.352661	-0.982548	-0.862594
N120	N	0.147339	-0.482548	-0.362594
N121	N	-0.310069	-1.021372	-0.896992
N122	N	0.189931	-0.521372	-0.396992
C123	C	-0.323431	-1.009232	-0.196867
C124	C	0.176569	-0.509232	0.303133
C125	C	-0.319793	-1.012491	-0.118771
C126	C	0.180207	-0.512491	0.381229
H127	H	-0.403067	-0.273331	-0.308558
H128	H	0.096933	0.226669	0.191442
O129	O	-0.225313	-0.405578	-0.484480
O130	O	0.274687	0.094422	0.015520
C131	C	-0.173793	-0.449616	-0.446259
C132	C	0.326207	0.050384	0.053741
H133	H	-0.197115	-0.462721	-0.393403
H134	H	0.302885	0.037279	0.106597
H135	H	-0.163045	-0.500086	-0.476969
H136	H	0.336955	-0.000086	0.023031
H137	H	-0.119560	-0.421651	-0.437499
H138	H	0.380440	0.078349	0.062501
H139	H	-0.780881	-0.975066	-0.259808
H140	H	-0.280881	-0.475066	0.240192
O141	O	-0.776633	-1.129229	-0.419308
O142	O	-0.276633	-0.629229	0.080692
C143	C	-0.736569	-1.121871	-0.480649
C144	C	-0.236569	-0.621871	0.019351
H145	H	-0.717850	-1.065701	-0.484565
H146	H	-0.217850	-0.565701	0.015435
H147	H	-0.685902	-1.159577	-0.478485
H148	H	-0.185902	-0.659577	0.021515
H149	H	-0.773557	-1.134387	-0.528497
H150	H	-0.273557	-0.634387	-0.028497
O151	O	-0.416935	-0.923953	-1.114230
O152	O	0.083065	-0.423953	-0.614230
C153	C	-0.409529	-0.930674	-1.187259
C154	C	0.090471	-0.430674	-0.687259
H155	H	-0.383463	-0.984518	-1.199479
H156	H	0.116537	-0.484518	-0.699479
H157	H	-0.466570	-0.924756	-1.214946
H158	H	0.033430	-0.424756	-0.714946
H159	H	-0.372568	-0.888185	-1.206407
H160	H	0.127432	-0.388185	-0.706407
H161	H	-0.792246	-0.911657	-0.462498
H162	H	-0.292246	-0.411657	0.037502
H163	H	-0.870136	-1.092080	-0.296367
H164	H	-0.370136	-0.592080	0.203633
H165	H	-0.432700	-0.909582	-0.644311
H166	H	0.067300	-0.409582	-0.144311
O167	O	-0.252619	-0.736681	-0.457710
O168	O	0.247381	-0.236681	0.042290
C169	C	-0.295229	-0.777331	-0.504719
C170	C	0.204771	-0.277331	-0.004719
H171	H	-0.354814	-0.755035	-0.508071
H172	H	0.145186	-0.255035	-0.008071
H173	H	-0.270794	-0.776014	-0.558875
H174	H	0.229206	-0.276014	-0.058875
H175	H	-0.294533	-0.833815	-0.485225
H176	H	0.205467	-0.333815	0.014775
O177	O	-0.216229	-1.106917	-0.976546
O178	O	0.283771	-0.606917	-0.476546
C179	C	-0.223592	-1.100159	-0.903514
C180	C	0.276408	-0.600159	-0.403514
H181	H	-0.281410	-1.077560	-0.892539
H182	H	0.218590	-0.577560	-0.392539
H183	H	-0.215152	-1.153902	-0.877739
H184	H	0.284848	-0.653902	-0.377739
H185	H	-0.180168	-1.063553	-0.881209
H186	H	0.319832	-0.563553	-0.381209
H187	H	-0.259608	-1.067399	-0.784079
H188	H	0.240392	-0.567399	-0.284079
H189	H	-0.438538	-0.904257	-0.777449
H190	H	0.061462	-0.404257	-0.277449
H191	H	-0.265306	-0.598030	-0.444974
H192	H	0.234694	-0.098030	0.055026
H193	H	-0.238157	-0.266861	-0.471919
H194	H	0.261843	0.233139	0.028081
O195	O	-0.885761	-1.031246	-0.509661
O196	O	-0.385761	-0.531246	-0.009661
C197	C	-0.826921	-1.042180	-0.555406
C198	C	-0.326921	-0.542180	-0.055406
H199	H	-0.774040	-1.058021	-0.523721
H200	H	-0.274040	-0.558021	-0.023721
H201	H	-0.840998	-1.085667	-0.594179
H202	H	-0.340998	-0.585667	-0.094179
H203	H	-0.818147	-0.991695	-0.585307
H204	H	-0.318147	-0.491695	-0.085307
H205	H	-0.397638	-0.406463	-0.313903
H206	H	0.102362	0.093537	0.186097
H207	H	-0.424791	-0.737631	-0.286962
H208	H	0.075209	-0.237631	0.213038
O209	O	-0.437573	-0.598896	-0.274367
O210	O	0.062427	-0.098896	0.225633
C211	C	-0.430777	-0.525872	-0.281087
C212	C	0.069223	-0.025872	0.218913
H213	H	-0.409330	-0.513693	-0.334955
H214	H	0.090670	-0.013693	0.165045
H215	H	-0.487321	-0.498165	-0.275105
H216	H	0.012679	0.001835	0.224895
H217	H	-0.390185	-0.506709	-0.238639
H218	H	0.109815	-0.006709	0.261361
H219	H	-0.253774	-1.072737	-0.650953
H220	H	0.246226	-0.572737	-0.150953
H221	H	-0.230030	-1.094335	-1.115277
H222	H	0.269970	-0.594335	-0.615277
H223	H	-0.880909	-0.884880	-0.342793
H224	H	-0.380909	-0.384880	0.157207
O225	O	-0.410686	-0.929653	-0.969558
O226	O	0.089314	-0.429653	-0.469558
C227	C	-0.456301	-0.888029	-1.016068
C228	C	0.043699	-0.388029	-0.516068
H229	H	-0.460016	-0.914725	-1.069536
H230	H	0.039984	-0.414725	-0.569536
H231	H	-0.514184	-0.881337	-0.994541
H232	H	-0.014184	-0.381337	-0.494541
H233	H	-0.431590	-0.834369	-1.021735
H234	H	0.068410	-0.334369	-0.521735
