data_functionalizedCrystal
_audit_creation_method	'MofGen! by Chris Wilmer'
_symmetry_space_group_name_H-M	'P1'
_symmetry_Int_Tables_number	1
_symmetry_cell_setting	triclinic
loop_
_symmetry_equiv_pos_as_xyz
  x,y,z
_cell_length_a	10.489741
_cell_length_b	10.489741
_cell_length_c	13.596369
_cell_angle_alpha	89.994306
_cell_angle_beta	89.997383
_cell_angle_gamma	84.539174
loop_
_atom_site_label
_atom_site_type_symbol
_atom_site_fract_x
_atom_site_fract_y
_atom_site_fract_z
O1	O	1.694055	0.179970	-0.081730
O2	O	2.194055	0.679970	0.418270
O3	O	1.322859	0.196863	-0.081745
O4	O	1.822859	0.696863	0.418255
O5	O	1.516904	0.002819	-0.081731
O6	O	2.016904	0.502819	0.418269
O7	O	1.500011	0.374014	-0.081744
O8	O	2.000011	0.874014	0.418256
O9	O	1.516884	0.002808	0.081851
O10	O	2.016884	0.502808	0.581851
O11	O	1.322840	0.196852	0.081838
O12	O	1.822840	0.696852	0.581838
O13	O	1.694035	0.179960	0.081853
O14	O	2.194035	0.679960	0.581853
Zn15	Zn	1.508434	0.188404	0.107818
Zn16	Zn	2.008434	0.688404	0.607818
Zn17	Zn	1.508460	0.188418	-0.107710
Zn18	Zn	2.008460	0.688418	0.392290
O19	O	1.499991	0.374004	0.081839
O20	O	1.999991	0.874004	0.581839
C21	C	1.275318	0.195582	0.000044
C22	C	1.775318	0.695582	0.500044
C23	C	1.133688	0.191765	0.000039
C24	C	1.633688	0.691765	0.500039
C25	C	1.065548	0.068300	0.000052
C26	C	1.565548	0.568300	0.500052
C27	C	0.973431	0.126629	-0.080603
C28	C	1.473431	0.626629	0.419397
C29	C	0.973446	0.126648	0.080677
C30	C	1.473446	0.626648	0.580677
C31	C	1.043437	0.250144	-0.080683
C32	C	1.543437	0.750144	0.419317
C33	C	1.043461	0.250146	0.080670
C34	C	1.543461	0.750146	0.580670
C35	C	0.951371	0.308564	-0.000005
C36	C	1.451371	0.808564	0.499995
C37	C	1.515618	-0.044718	0.000059
C38	C	2.015618	0.455282	0.500059
C39	C	1.511801	-0.186348	0.000057
C40	C	2.011801	0.313652	0.500057
C41	C	1.388336	-0.254488	0.000045
C42	C	1.888336	0.245512	0.500045
C43	C	1.446650	-0.346616	0.080702
C44	C	1.946650	0.153384	0.580702
C45	C	1.446698	-0.346580	-0.080577
C46	C	1.946698	0.153420	0.419423
C47	C	1.570165	-0.276610	0.080781
C48	C	2.070165	0.223390	0.580781
C49	C	1.570197	-0.276565	-0.080571
C50	C	2.070197	0.223435	0.419429
C51	C	1.628600	-0.368665	0.000106
C52	C	2.128600	0.131335	0.500106
C53	C	1.741577	0.181241	0.000061
C54	C	2.241577	0.681241	0.500061
C55	C	1.883206	0.185058	0.000060
C56	C	2.383206	0.685058	0.500060
C57	C	1.501277	0.421541	0.000046
C58	C	2.001277	0.921541	0.500046
C59	C	1.505094	0.563170	0.000042
C60	C	2.005094	1.063170	0.500042
N61	N	1.508426	0.188394	0.254909
N62	N	2.008426	0.688394	0.754909
N63	N	1.508479	0.188418	-0.254802
N64	N	2.008479	0.688418	0.245198
C65	C	1.508459	0.188420	0.656200
C66	C	2.008459	0.688420	1.156200
C67	C	1.508446	0.188417	0.544549
C68	C	2.008446	0.688417	1.044549
C69	C	1.508443	0.188408	0.455558
C70	C	2.008443	0.688408	0.955558
C71	C	1.508429	0.188403	0.343900
C72	C	2.008429	0.688403	0.843900
H73	H	0.942460	0.074380	0.148865
H74	H	1.442460	0.574380	0.648865
C75	C	1.376108	-0.388423	-0.172698
C76	C	1.876108	0.111577	0.327302
N77	N	1.322932	-0.419933	-0.242081
N78	N	1.822932	0.080067	0.257919
H79	H	1.622401	-0.245516	-0.148760
H80	H	2.122401	0.254484	0.351240
H81	H	1.622352	-0.245782	0.149047
H82	H	2.122352	0.254218	0.649047
H83	H	0.942425	0.074392	-0.148788
H84	H	1.442425	0.574392	0.351212
H85	H	1.286824	-0.204837	0.000122
H86	H	1.786824	0.295163	0.500122
H87	H	1.074273	0.302348	-0.148947
H88	H	1.574273	0.802348	0.351053
H89	H	0.901947	0.410168	-0.000052
H90	H	1.401947	0.910168	0.499948
C91	C	1.765857	-0.435448	0.000174
C92	C	2.265857	0.064552	0.500174
N93	N	1.869236	-0.485753	0.000232
N94	N	2.369236	0.014247	0.500232
H95	H	1.074499	0.302339	0.148858
H96	H	1.574499	0.802339	0.648858
C97	C	1.132629	-0.068836	-0.000052
C98	C	1.632629	0.431164	0.499948
N99	N	1.183156	-0.172123	-0.000136
N100	N	1.683156	0.327877	0.499864
H101	H	1.394401	-0.377631	0.148888
H102	H	1.894401	0.122369	0.648888
