data_functionalizedCrystal
_audit_creation_method	'MofGen! by Chris Wilmer'
_symmetry_space_group_name_H-M	'P1'
_symmetry_Int_Tables_number	1
_symmetry_cell_setting	triclinic
loop_
_symmetry_equiv_pos_as_xyz
  x,y,z
_cell_length_a	19.077212
_cell_length_b	18.101397
_cell_length_c	19.076919
_cell_angle_alpha	92.268541
_cell_angle_beta	89.885058
_cell_angle_gamma	92.312452
loop_
_atom_site_label
_atom_site_type_symbol
_atom_site_fract_x
_atom_site_fract_y
_atom_site_fract_z
Zn1	Zn	1.058311	-0.268841	-0.440571
Zn2	Zn	1.558311	0.231159	0.059429
Zn3	Zn	1.062959	-0.387521	-0.323058
Zn4	Zn	1.562959	0.112479	0.176942
Zn5	Zn	0.945526	-0.268451	-0.318346
Zn6	Zn	1.445526	0.231549	0.181654
Zn7	Zn	0.940779	-0.397399	-0.435791
Zn8	Zn	1.440779	0.102601	0.064209
O9	O	1.001893	-0.330553	-0.379441
O10	O	1.501893	0.169447	0.120559
O11	O	1.157261	-0.280613	-0.428955
O12	O	1.657261	0.219387	0.071045
O13	O	1.051313	-0.367429	-0.224103
O14	O	1.551313	0.132571	0.275897
O15	O	0.960529	-0.164869	-0.334588
O16	O	1.460529	0.335131	0.165412
O17	O	1.160676	-0.367807	-0.342619
O18	O	1.660676	0.132193	0.157381
O19	O	1.043391	-0.165156	-0.424386
O20	O	1.543391	0.334844	0.075614
O21	O	0.965036	-0.279949	-0.220641
O22	O	1.465036	0.220051	0.279359
O23	O	0.846563	-0.289527	-0.329953
O24	O	1.346563	0.210473	0.170047
O25	O	0.952437	-0.384643	-0.534755
O26	O	1.452437	0.115357	-0.034755
O27	O	0.843075	-0.384265	-0.416239
O28	O	1.343075	0.115735	0.083761
O29	O	1.038788	-0.290192	-0.538267
O30	O	1.538788	0.209808	-0.038267
O31	O	1.046710	-0.492465	-0.337984
O32	O	1.546710	0.007535	0.162016
O33	O	0.956944	-0.499722	-0.420808
O34	O	1.456944	0.000278	0.079192
C35	C	0.819322	-0.337926	-0.372067
C36	C	1.319322	0.162074	0.127933
C37	C	0.741216	-0.341099	-0.368928
C38	C	1.241216	0.158901	0.131072
C39	C	0.301754	-0.363825	-0.346453
C40	C	0.801754	0.136175	0.153547
C41	C	0.375143	-0.360839	-0.349396
C42	C	0.875143	0.139161	0.150604
C43	C	0.410059	-0.314030	-0.395891
C44	C	0.910059	0.185970	0.104109
C45	C	0.371582	-0.270198	-0.439441
C46	C	0.871582	0.229802	0.060559
C47	C	0.298194	-0.273180	-0.436494
C48	C	0.798194	0.226820	0.063506
C49	C	0.629352	-0.300249	-0.409531
C50	C	1.129352	0.199751	0.090469
C51	C	0.702745	-0.297272	-0.412476
C52	C	1.202745	0.202728	0.087524
C53	C	0.706301	-0.387912	-0.322430
C54	C	1.206301	0.112088	0.177570
C55	C	0.632912	-0.390894	-0.319490
C56	C	1.132912	0.109106	0.180510
C57	C	0.594442	-0.347059	-0.363037
C58	C	1.094442	0.152941	0.136963
N59	N	0.485074	-0.310979	-0.398903
N60	N	0.985074	0.189021	0.101097
N61	N	0.519428	-0.350106	-0.360021
N62	N	1.019428	0.149894	0.139979
C63	C	1.001835	-0.522965	-0.379405
C64	C	1.501835	-0.022965	0.120595
C65	C	1.001873	-0.605277	-0.379415
C66	C	1.501873	-0.105277	0.120585
C67	C	1.001960	-0.904368	-0.379483
C68	C	1.501960	-0.404368	0.120517
C69	C	1.058292	-0.868445	-0.327221
C70	C	1.558292	-0.368445	0.172779
C71	C	1.058474	-0.782825	-0.327369
C72	C	1.558474	-0.282825	0.172631
C73	C	1.001917	-0.755985	-0.379449
C74	C	1.501917	-0.255985	0.120551
C75	C	1.019013	-0.789438	-0.454324
C76	C	1.519013	-0.289438	0.045676
C77	C	1.019444	-0.875053	-0.454044
C78	C	1.519444	-0.375053	0.045956
C79	C	0.928362	-0.875051	-0.357506
C80	C	1.428362	-0.375051	0.142494
C81	C	0.928795	-0.789314	-0.355868
C82	C	1.428795	-0.289314	0.144132
C83	C	1.001891	-0.672126	-0.379434
C84	C	1.501891	-0.172126	0.120566
C85	C	1.001987	-0.988227	-0.379503
C86	C	1.501987	-0.488227	0.120497
C87	C	1.185178	-0.323152	-0.386845
C88	C	1.685178	0.176848	0.113155
C89	C	1.263283	-0.319998	-0.390001
C90	C	1.763283	0.180002	0.109999
C91	C	0.994564	-0.338563	-0.562720
C92	C	1.494564	0.161437	-0.062720
C93	C	0.991441	-0.341976	-0.640823
C94	C	1.491441	0.158024	-0.140823
C95	C	1.001971	-0.137390	-0.379494
C96	C	1.501971	0.362610	0.120506
C97	C	1.002004	-0.055075	-0.379517
C98	C	1.502004	0.444925	0.120483
C99	C	1.034930	-0.294406	-0.679345
C100	C	1.534930	0.205594	-0.179345
C101	C	1.031986	-0.297610	-0.752730
C102	C	1.531986	0.202390	-0.252730
C103	C	0.985558	-0.348389	-0.787592
C104	C	1.485558	0.151611	-0.287592
C105	C	0.942065	-0.395961	-0.749064
C106	C	1.442065	0.104039	-0.249064
C107	C	0.945005	-0.392753	-0.675680
C108	C	1.445005	0.107247	-0.175680
C109	C	0.971941	-0.363255	-1.006870
C110	C	1.471941	0.136745	-0.506870
C111	C	0.969005	-0.366462	-1.080259
C112	C	1.469005	0.133538	-0.580259
C113	C	1.058926	-0.268110	-1.083919
C114	C	1.558926	0.231890	-0.583919
C115	C	1.061865	-0.264909	-1.010534
C116	C	1.561865	0.235091	-0.510534
C117	C	1.018370	-0.312478	-0.972013
C118	C	1.518370	0.187522	-0.472013
N119	N	0.982550	-0.351668	-0.862603
N120	N	1.482550	0.148332	-0.362603
N121	N	1.021375	-0.309196	-0.897003
N122	N	1.521375	0.190804	-0.397003
C123	C	1.009234	-0.322519	-0.196878
C124	C	1.509234	0.177481	0.303122
C125	C	1.012494	-0.318892	-0.118781
C126	C	1.512494	0.181108	0.381219
H127	H	1.048124	-0.759956	-0.271945
H128	H	1.548124	-0.259956	0.228055
N129	N	1.111943	-0.210129	-0.972951
N130	N	1.611943	0.289871	-0.472951
H131	H	1.100532	-0.158219	-0.985303
H132	H	1.600532	0.341781	-0.485303
H133	H	1.107194	-0.215368	-0.920626
H134	H	1.607194	0.284632	-0.420626
H135	H	1.112575	-0.888242	-0.341842
H136	H	1.612575	-0.388242	0.158158
H137	H	1.072739	-0.253058	-0.650966
H138	H	1.572739	0.246942	-0.150966
N139	N	0.256704	-0.225908	-0.483468
N140	N	0.756704	0.274092	0.016532
H141	H	0.224955	-0.258715	-0.514755
H142	H	0.724955	0.241285	-0.014755
H143	H	0.227439	-0.191537	-0.453702
H144	H	0.727439	0.308463	0.046298
N145	N	1.105836	-0.216804	-1.125466
N146	N	1.605836	0.283196	-0.625466
H147	H	1.096930	-0.226539	-1.177244
H148	H	1.596930	0.273461	-0.677244
H149	H	1.095433	-0.163795	-1.112210
H150	H	1.595433	0.336205	-0.612210
H151	H	0.400016	-0.232082	-0.477296
H152	H	0.900016	0.267918	0.022704
N153	N	0.587877	-0.252959	-0.456496
N154	N	1.087877	0.247041	0.043504
H155	H	0.598651	-0.266214	-0.507196
H156	H	1.098651	0.233786	-0.007196
H157	H	0.536101	-0.261954	-0.447520
H158	H	1.036101	0.238046	0.052480
H159	H	1.113052	-0.760605	-0.342147
H160	H	1.613052	-0.260605	0.157853
N161	N	0.918926	-0.421222	-1.117877
N162	N	1.418926	0.078778	-0.617877
H163	H	0.930318	-0.473142	-1.105540
H164	H	1.430318	0.026858	-0.605540
H165	H	0.869253	-0.411119	-1.103073
H166	H	1.369253	0.088881	-0.603073
N167	N	1.089340	-0.759036	-0.478848
N168	N	1.589340	-0.259036	0.021152
H169	H	1.099872	-0.780893	-0.527072
H170	H	1.599872	-0.280893	-0.027072
H171	H	1.088192	-0.703425	-0.480825
H172	H	1.588192	-0.203425	0.019175
N173	N	1.078878	-0.246289	-0.794279
N174	N	1.578878	0.253711	-0.294279
H175	H	1.108734	-0.213633	-0.761059
H176	H	1.608734	0.286367	-0.261059
H177	H	1.110167	-0.276440	-0.826043
H178	H	1.610167	0.223560	-0.326043
H179	H	0.936534	-0.402000	-0.975515
H180	H	1.436534	0.098000	-0.475515
H181	H	0.915851	-0.767270	-0.300751
H182	H	1.415851	-0.267270	0.199249
H183	H	1.048100	-0.887167	-0.271638
H184	H	1.548100	-0.387167	0.228362
N185	N	0.870520	-0.765394	-0.402262
N186	N	1.370520	-0.265394	0.097738
H187	H	0.890784	-0.732471	-0.439393
H188	H	1.390784	-0.232471	0.060607
H189	H	0.846164	-0.810485	-0.425488
H190	H	1.346164	-0.310485	0.074512
H191	H	0.904259	-0.437304	-0.777455
H192	H	1.404259	0.062696	-0.277455
H193	H	0.909585	-0.431482	-0.644316
H194	H	1.409585	0.068518	-0.144316
H195	H	0.912233	-0.895116	-0.303698
H196	H	1.412233	-0.395116	0.196302
N197	N	1.090590	-0.899466	-0.478225
N198	N	1.590590	-0.399466	0.021775
H199	H	1.099958	-0.882300	-0.527224
H200	H	1.599958	-0.382300	-0.027224
H201	H	1.127850	-0.877231	-0.445320
H202	H	1.627850	-0.377231	0.054680
N203	N	0.264098	-0.414317	-0.296307
N204	N	0.764098	0.085683	0.203693
H205	H	0.299609	-0.441626	-0.269166
H206	H	0.799609	0.058374	0.230834
H207	H	0.234945	-0.383935	-0.262620
H208	H	0.734945	0.116065	0.237380
H209	H	0.604489	-0.429010	-0.281627
H210	H	1.104489	0.070990	0.218373
N211	N	0.416639	-0.408105	-0.302422
N212	N	0.916639	0.091895	0.197578
H213	H	0.383384	-0.438213	-0.272522
H214	H	0.883384	0.061787	0.227478
H215	H	0.445950	-0.442434	-0.332184
H216	H	0.945950	0.057566	0.167816
N217	N	0.967246	-0.906982	-0.507596
N218	N	1.467246	-0.406982	-0.007596
H219	H	0.944060	-0.865430	-0.531282
H220	H	1.444060	-0.365430	-0.031282
H221	H	0.992370	-0.938340	-0.543859
H222	H	1.492370	-0.438340	-0.043859
H223	H	0.737631	-0.423600	-0.286976
H224	H	1.237631	0.076400	0.213024
H225	H	0.731171	-0.259149	-0.450338
H226	H	1.231171	0.240851	0.049662
H227	H	0.979108	-0.772458	-0.494439
H228	H	1.479108	-0.272458	0.005561
H229	H	0.886426	-0.898693	-0.395535
H230	H	1.386426	-0.398693	0.104465
