data_functionalizedCrystal
_audit_creation_method	'MofGen! by Chris Wilmer'
_symmetry_space_group_name_H-M	'P1'
_symmetry_Int_Tables_number	1
_symmetry_cell_setting	triclinic
loop_
_symmetry_equiv_pos_as_xyz
  x,y,z
_cell_length_a	12.784905
_cell_length_b	15.500215
_cell_length_c	12.837942
_cell_angle_alpha	87.113735
_cell_angle_beta	96.031870
_cell_angle_gamma	93.427580
loop_
_atom_site_label
_atom_site_type_symbol
_atom_site_fract_x
_atom_site_fract_y
_atom_site_fract_z
O1	O	1.415766	0.071950	-0.010302
O2	O	1.915766	0.571950	0.489698
O3	O	1.110767	0.071950	-0.054294
O4	O	1.610767	0.571950	0.445706
O5	O	1.256503	0.071945	0.117996
O6	O	1.756503	0.571945	0.617996
O7	O	1.270030	0.071955	-0.182591
O8	O	1.770030	0.571955	0.317409
O9	O	1.246890	-0.071945	0.125730
O10	O	1.746890	0.428055	0.625730
O11	O	1.101154	-0.071939	-0.046559
O12	O	1.601154	0.428061	0.453441
O13	O	1.406153	-0.071940	-0.002567
O14	O	1.906153	0.428060	0.497433
Cu15	Cu	1.252776	-0.085078	-0.023857
Cu16	Cu	1.752776	0.414922	0.476143
Cu17	Cu	1.264144	0.085088	-0.033004
Cu18	Cu	1.764144	0.585088	0.466996
O19	O	1.260417	-0.071934	-0.174857
O20	O	1.760417	0.428066	0.325143
C21	C	1.066651	0.000006	-0.053288
C22	C	1.566651	0.500006	0.446712
C23	C	0.949520	0.000006	-0.061801
C24	C	1.449520	0.500006	0.438199
N25	N	1.244788	-0.204763	-0.017422
N26	N	1.744788	0.295237	0.482578
C27	C	0.735569	0.000015	0.111641
C28	C	1.235569	0.500015	0.611641
C29	C	0.625514	0.000015	0.103648
C30	C	1.125514	0.500015	0.603648
C31	C	0.619352	0.000012	-0.085782
C32	C	1.119352	0.500012	0.414218
C33	C	0.729407	0.000012	-0.077788
C34	C	1.229407	0.500012	0.422212
C35	C	0.787512	0.000012	0.020927
C36	C	1.287512	0.500012	0.520927
C37	C	0.897569	0.000006	0.028920
C38	C	1.397569	0.500006	0.528920
C39	C	0.891406	0.000009	-0.160508
C40	C	1.391406	0.500009	0.339492
C41	C	0.781350	0.000009	-0.168502
C42	C	1.281350	0.500009	0.331498
C43	C	1.311959	-0.250034	-0.071573
C44	C	1.811959	0.249966	0.428427
C45	C	1.305930	-0.340608	-0.066698
C46	C	1.805930	0.159392	0.433302
C47	C	1.232726	-0.385908	-0.007679
C48	C	1.732726	0.114092	0.492321
C49	C	1.165552	-0.340631	0.046478
C50	C	1.665552	0.159369	0.546478
C51	C	1.171586	-0.250060	0.041609
C52	C	1.671586	0.249940	0.541609
C53	C	1.211001	-0.659377	0.009858
C54	C	1.711001	-0.159377	0.509858
C55	C	1.204969	-0.749955	0.014721
C56	C	1.704969	-0.249955	0.514721
C57	C	1.345350	-0.749925	-0.098455
C58	C	1.845350	-0.249925	0.401545
C59	C	1.351373	-0.659352	-0.103324
C60	C	1.851373	-0.159352	0.396676
C61	C	1.284203	-0.614083	-0.049162
C62	C	1.784203	-0.114083	0.450838
C63	C	1.226560	-0.478489	-0.002698
C64	C	1.726560	0.021511	0.497302
C65	C	1.290375	-0.521504	-0.054138
C66	C	1.790375	-0.021504	0.445862
C67	C	1.450270	0.000007	-0.003573
C68	C	1.950270	0.500007	0.496427
C69	C	1.567401	0.000012	0.004939
C70	C	2.067401	0.500012	0.504939
C71	C	1.247128	0.000000	0.160072
C72	C	1.747128	0.500000	0.660072
C73	C	1.233500	0.000002	0.273920
C74	C	1.733500	0.500002	0.773920
N75	N	1.272140	0.204774	-0.039430
N76	N	1.772140	0.704774	0.460570
C77	C	1.269793	0.000012	-0.216933
C78	C	1.769793	0.500012	0.283067
C79	C	1.283421	0.000016	-0.330782
C80	C	1.783421	0.500016	0.169218
C81	C	1.397333	0.000020	0.529645
C82	C	1.897333	0.500020	1.029645
C83	C	1.384533	0.000021	0.636617
C84	C	1.884533	0.500021	1.136617
C85	C	1.195103	0.000012	0.594838
C86	C	1.695103	0.500012	1.094838
C87	C	1.207902	0.000011	0.487866
C88	C	1.707902	0.500011	0.987866
C89	C	1.309020	0.000013	0.455274
C90	C	1.809020	0.500013	0.955274
C91	C	1.321818	0.000006	0.348300
C92	C	1.821818	0.500006	0.848300
C93	C	1.132389	0.000003	0.306523
C94	C	1.632389	0.500003	0.806523
C95	C	1.119590	0.000005	0.413495
C96	C	1.619590	0.500005	0.913495
H97	H	0.944876	0.000004	0.109299
H98	H	1.444876	0.500004	0.609299
Cl99	Cl	1.126520	-0.602479	0.077903
Cl100	Cl	1.626520	-0.102479	0.577903
Cl101	Cl	0.992477	0.000009	0.454479
Cl102	Cl	1.492477	0.500009	0.954479
H103	H	0.933709	0.000002	-0.234375
H104	H	1.433709	0.500002	0.265625
Cl105	Cl	1.524447	0.000001	0.488669
Cl106	Cl	2.024447	0.500001	0.988669
H107	H	1.112777	0.000020	0.621394
H108	H	1.612777	0.500020	1.121394
H109	H	1.371564	-0.213157	-0.119639
H110	H	1.871564	0.286843	0.380361
Cl111	Cl	1.382404	-0.464553	-0.128327
Cl112	Cl	1.882404	0.035447	0.371673
H113	H	0.782879	0.000009	0.192019
H114	H	1.282879	0.500009	0.692019
H115	H	1.360630	-0.377463	-0.110792
H116	H	1.860630	0.122537	0.389208
Cl117	Cl	1.443365	-0.602409	-0.177571
Cl118	Cl	1.943365	-0.102409	0.322429
H119	H	0.583227	0.000019	0.177516
H120	H	1.083227	0.500019	0.677516
Cl121	Cl	0.546290	0.000032	-0.209870
Cl122	Cl	1.046290	0.500032	0.290130
H123	H	0.734027	0.000013	-0.248873
H124	H	1.234027	0.500013	0.251127
Cl125	Cl	1.021361	-0.000016	0.213021
Cl126	Cl	1.521361	0.499984	0.713021
H127	H	1.400036	-0.786793	-0.142549
H128	H	1.900036	-0.286793	0.357451
Cl129	Cl	1.112935	-0.806904	0.088923
Cl130	Cl	1.612935	-0.306904	0.588923
Cl131	Cl	1.087149	-0.193147	0.109699
Cl132	Cl	1.587149	0.306853	0.609699
H133	H	1.105952	-0.377522	0.094539
H134	H	1.605952	0.122478	0.594539
H135	H	1.166956	-0.515383	0.045355
H136	H	1.666956	-0.015383	0.545355
H137	H	1.404154	0.000004	0.321767
H138	H	1.904154	0.500004	0.821767
H139	H	1.456447	0.000029	0.697168
H140	H	1.956447	0.500029	1.197168
