data_functionalizedCrystal
_audit_creation_method	'MofGen! by Chris Wilmer'
_symmetry_space_group_name_H-M	'P1'
_symmetry_Int_Tables_number	1
_symmetry_cell_setting	triclinic
loop_
_symmetry_equiv_pos_as_xyz
  x,y,z
_cell_length_a	8.597340
_cell_length_b	10.268362
_cell_length_c	8.559649
_cell_angle_alpha	90.003601
_cell_angle_beta	102.374957
_cell_angle_gamma	97.701403
loop_
_atom_site_label
_atom_site_type_symbol
_atom_site_fract_x
_atom_site_fract_y
_atom_site_fract_z
O1	O	2.053720	0.122159	-0.238033
O2	O	1.594589	0.070637	-0.256296
O3	O	1.864605	0.100938	-0.015194
O4	O	1.783705	0.091857	-0.479135
O5	O	1.864603	0.317539	-0.015180
O6	O	1.594588	0.287237	-0.256282
O7	O	2.053719	0.338759	-0.238018
Cu8	Cu	1.824154	0.332775	-0.247149
Cu9	Cu	1.824155	0.076620	-0.247166
O10	O	1.783704	0.308458	-0.479121
C11	C	1.536354	0.172402	-0.254329
C12	C	1.362835	0.152930	-0.248467
N13	N	1.824158	-0.103545	-0.247166
C14	C	1.824155	-0.369216	-0.247157
C15	C	1.824152	-0.221379	-0.247167
C16	C	2.111955	0.236991	-0.239986
C17	C	2.285473	0.256454	-0.245848
C18	C	1.870735	0.209924	0.044247
C19	C	1.888984	0.211964	0.221342
N20	N	1.824164	0.512942	-0.247136
C21	C	1.777574	0.199469	-0.538562
C22	C	1.759325	0.197420	-0.715657
H23	H	1.296313	0.049390	-0.246223
C24	C	2.055593	0.230396	0.330148
C25	C	2.073804	0.120994	0.426628
C26	C	2.227266	0.137917	0.526863
H27	H	2.068401	0.307283	0.395902
H28	H	2.134538	0.239178	0.266932
H29	H	1.994882	0.112226	0.489839
H30	H	2.061028	0.044093	0.360917
H31	H	2.306212	0.146699	0.463647
H32	H	2.240061	0.214807	0.592606
H33	H	2.239649	0.063686	0.592326
H34	H	1.351990	0.359987	-0.248080
C35	C	1.592725	0.178448	0.175544
C36	C	1.574520	0.064947	0.079070
C37	C	1.421060	0.047418	-0.021171
H38	H	1.579918	0.252452	0.109787
H39	H	1.513776	0.169522	0.238757
H40	H	1.653445	0.073882	0.015863
H41	H	1.587295	-0.009079	0.144784
H42	H	1.342112	0.038491	0.042042
H43	H	1.408267	0.121427	-0.086917
H44	H	1.408683	-0.029600	-0.086630
