data_functionalizedCrystal
_audit_creation_method	'MofGen! by Chris Wilmer'
_symmetry_space_group_name_H-M	'P1'
_symmetry_Int_Tables_number	1
_symmetry_cell_setting	triclinic
loop_
_symmetry_equiv_pos_as_xyz
  x,y,z
_cell_length_a	18.760487
_cell_length_b	20.875641
_cell_length_c	20.875641
_cell_angle_alpha	60.089808
_cell_angle_beta	90.036576
_cell_angle_gamma	62.461161
loop_
_atom_site_label
_atom_site_type_symbol
_atom_site_fract_x
_atom_site_fract_y
_atom_site_fract_z
Zr1	Zr	0.719298	0.694374	-0.105387
O2	O	0.614840	0.820611	-0.208707
O3	O	0.747411	0.563120	-0.070441
O4	O	0.757909	0.687144	-0.203907
O5	O	0.600509	0.704040	0.026317
O6	O	0.875209	0.687148	-0.203845
O7	O	0.604343	0.696587	-0.075241
O8	O	0.856432	0.465293	0.034902
O9	O	0.619286	0.925896	-0.212431
O10	O	0.851664	0.618969	-0.059445
O11	O	0.761262	0.624528	0.016299
O12	O	0.773621	0.770550	-0.140840
O13	O	0.683219	0.776109	-0.065096
Zr14	Zr	0.900263	0.706268	0.056684
Zr15	Zr	0.906379	0.694381	-0.105288
Zr16	Zr	0.713182	0.706261	0.056585
Zr17	Zr	0.726389	0.862292	-0.111326
Zr18	Zr	0.893173	0.538351	0.062623
O19	O	0.872150	0.837523	0.021738
O20	O	0.880845	0.820621	-0.208565
O21	O	0.606145	0.837513	0.021596
O22	O	1.004721	0.580032	0.160004
O23	O	1.013416	0.563130	-0.070299
O24	O	0.738716	0.580022	0.159862
O25	O	1.019052	0.696603	-0.075020
O26	O	0.861652	0.713499	0.155204
O27	O	0.744352	0.713494	0.155142
O28	O	1.015218	0.704056	0.026537
O29	O	0.767991	0.925902	-0.212352
O30	O	0.851571	0.474741	0.163648
O31	O	1.000275	0.474747	0.163728
O32	O	1.005136	0.465298	0.034982
O33	O	0.614425	0.935345	-0.083685
O34	O	0.763129	0.935350	-0.083606
O35	O	0.845940	0.630093	0.092137
O36	O	0.936342	0.624534	0.016393
O37	O	0.858299	0.776115	-0.065003
O38	O	0.767898	0.781674	0.010742
C39	C	0.800911	0.490282	-0.016923
C40	C	0.797901	0.418996	-0.014402
C41	C	0.843673	0.382604	-0.052755
C42	C	0.840847	0.315620	-0.050379
C43	C	0.792243	0.285032	-0.009654
C44	C	0.746469	0.321427	0.028705
C45	C	0.749301	0.388406	0.026332
C46	C	0.778718	0.085021	0.001685
C47	C	0.775888	0.018038	0.004052
C48	C	0.870267	0.012234	-0.075031
C49	C	0.873090	0.079219	-0.077403
C50	C	0.827320	0.115604	-0.039041
N51	N	0.789350	0.216565	-0.007226
N52	N	0.830218	0.184066	-0.041465
C53	C	0.575771	0.700313	-0.024476
C54	C	0.496350	0.700310	-0.024519
C55	C	0.119785	0.779458	-0.066708
C56	C	0.201267	0.621205	0.018270
C57	C	0.275892	0.621199	0.018206
C58	C	0.272465	0.700323	-0.024318
C59	C	0.194415	0.779454	-0.066776
C60	C	0.353947	0.542069	0.060657
C61	C	0.428578	0.542059	0.060593
C62	C	0.425152	0.621185	0.018074
C63	C	0.347096	0.700319	-0.024386
C64	C	0.343669	0.779444	-0.066909
C65	C	0.265613	0.858580	-0.109364
C66	C	0.190989	0.858580	-0.109295
C67	C	0.499776	0.621185	0.018005
C68	C	0.418300	0.779440	-0.066977
C69	C	1.043790	0.700330	-0.024227
C70	C	1.123211	0.700333	-0.024185
C71	C	0.817430	0.685452	-0.226954
C72	C	0.820026	0.680406	-0.295715
C73	C	0.818650	0.910361	-0.031780
C74	C	0.821660	0.981647	-0.034301
C75	C	0.780510	0.757157	-0.370507
C76	C	0.782960	0.752410	-0.435112
C77	C	0.824923	0.670912	-0.424925
C78	C	0.864444	0.594155	-0.350125
C79	C	0.861998	0.598903	-0.285521
C80	C	0.836610	0.648228	-0.613585
C81	C	0.839051	0.643486	-0.678196
C82	C	0.757568	0.801742	-0.763179
C83	C	0.755122	0.806482	-0.698570
C84	C	0.794647	0.729726	-0.623776
N85	N	0.827426	0.666058	-0.490961
N86	N	0.792148	0.734580	-0.557742
C87	C	0.802131	0.715190	0.178251
C88	C	0.799535	0.720237	0.247012
C89	C	1.034921	0.490291	-0.016798
C90	C	1.111331	0.419008	-0.014235
C91	C	0.793262	0.505151	0.185679
C92	C	0.787655	0.438911	0.256961
C93	C	1.027271	0.505159	0.185804
C94	C	1.101086	0.438923	0.257128
C95	C	0.592290	0.895483	-0.234507
C96	C	0.518476	0.961719	-0.305832
C97	C	0.584640	0.910352	-0.031905
C98	C	0.508230	0.981635	-0.034468
C99	C	0.826299	0.895492	-0.234382
C100	C	0.831906	0.961731	-0.305665
C101	C	1.103014	0.382627	-0.052624
C102	C	1.174803	0.315658	-0.050231
C103	C	1.254910	0.285066	-0.009444
C104	C	1.263226	0.321454	0.028947
C105	C	1.191437	0.388426	0.026549
C106	C	0.829223	0.410711	0.330030
C107	C	0.823952	0.348482	0.397013
C108	C	0.777118	0.314450	0.390927
C109	C	0.735545	0.342657	0.317851
C110	C	0.740811	0.404889	0.250869
C111	C	1.182946	0.404916	0.251086
C112	C	1.252310	0.342689	0.318096
C113	C	1.239812	0.314466	0.391149
C114	C	1.157943	0.348479	0.397190
C115	C	1.088581	0.410710	0.330180
C116	C	0.436615	0.995735	-0.299789
C117	C	0.367252	1.057982	-0.366800
C118	C	0.379751	1.086209	-0.439854
C119	C	0.461619	1.052192	-0.445895
C120	C	0.530981	0.989950	-0.378884
C121	C	0.516548	1.018022	0.003914
C122	C	0.444760	1.085009	0.001503
C123	C	0.364654	1.115602	-0.039287
C124	C	0.356337	1.079212	-0.077675
C125	C	0.428125	1.012231	-0.075267
C126	C	0.878748	0.995743	-0.299553
C127	C	0.884032	1.057974	-0.366524
C128	C	0.842469	1.086195	-0.439606
C129	C	0.795625	1.052177	-0.445716
C130	C	0.790347	0.989943	-0.378745
H131	H	0.883248	0.407507	-0.085922
C132	C	0.739483	0.836833	-0.517382
H133	H	0.746954	0.822337	-0.554401
H134	H	0.681002	0.870113	-0.524272
H135	H	0.763682	0.870132	-0.524235
H136	H	1.021928	0.438390	0.335111
C137	C	0.585629	0.534148	0.064703
H138	H	0.576981	0.487026	0.090040
H139	H	0.617722	0.528229	0.030654
H140	H	0.615145	0.533486	0.102243
C141	C	0.422855	0.964697	-0.219438
H142	H	0.475883	0.922750	-0.180387
H143	H	0.393671	1.013197	-0.215488
H144	H	0.390526	0.938984	-0.212865
C145	C	0.891190	0.275597	-0.092574
H146	H	0.920533	0.303415	-0.117177
H147	H	0.930475	0.214869	-0.056170
H148	H	0.853615	0.283832	-0.130422
C149	C	1.200593	0.428440	0.068779
H150	H	1.146371	0.472714	0.061509
H151	H	1.227611	0.384171	0.122543
H152	H	1.233441	0.453139	0.048324
H153	H	0.720955	0.872847	-0.706874
C154	C	1.333871	0.211392	-0.006802
H155	H	1.382775	0.198381	0.022984
H156	H	1.330858	0.160694	0.016223
H157	H	1.336699	0.229657	-0.057990
H158	H	1.296298	0.263793	0.445707
C159	C	0.268218	1.112866	-0.122533
H160	H	0.226661	1.157960	-0.118457
H161	H	0.264724	1.135179	-0.175513
H162	H	0.258899	1.066214	-0.101288
H163	H	0.300597	1.085669	-0.361867
C164	C	0.924475	0.964708	-0.219172
H165	H	0.953133	0.993877	-0.225135
H166	H	0.884488	0.977656	-0.192730
H167	H	0.964034	0.903440	-0.190067
H168	H	0.323264	1.136891	-0.494412
H169	H	0.867361	0.438413	0.335000
H170	H	0.306206	1.170143	-0.041242
H171	H	0.752200	0.962257	-0.383732
C172	C	0.935549	1.095393	-0.359790
H173	H	0.959530	1.069681	-0.306673
H174	H	0.979228	1.082686	-0.382925
H175	H	0.899661	1.156902	-0.385607
H176	H	0.846774	1.136871	-0.494131
H177	H	0.451548	1.114627	0.032765
H178	H	0.741452	0.114635	0.032925
C179	C	0.205039	0.534173	0.065043
H180	H	0.262212	0.487046	0.090316
H181	H	0.176334	0.533515	0.102626
H182	H	0.178907	0.528257	0.031037
C183	C	0.749903	1.083234	-0.526108
H184	H	0.759752	1.125177	-0.565112
H185	H	0.770640	1.034747	-0.530079
H186	H	0.691097	1.108961	-0.532735
C187	C	0.926555	0.112860	-0.122200
H188	H	0.953416	0.081588	-0.144699
H189	H	0.891196	0.173346	-0.161896
H190	H	0.968050	0.104385	-0.087638
C191	C	0.920619	-0.027800	-0.117215
H192	H	0.911980	-0.072077	-0.109965
H193	H	0.902055	0.016459	-0.170977
H194	H	0.978899	-0.052499	-0.096712
C195	C	0.418963	0.972201	-0.117479
H196	H	0.360972	1.000013	-0.142107
H197	H	0.448047	0.980422	-0.155295
H198	H	0.442205	0.911472	-0.081071
C199	C	0.475357	1.083240	-0.526255
H200	H	0.422318	1.125172	-0.565292
H201	H	0.507680	1.108957	-0.532844
H202	H	0.504534	1.034739	-0.530209
C203	C	0.621023	0.952528	-0.385540
H204	H	0.618524	0.978251	-0.438646
H205	H	0.651625	0.965224	-0.362355
H206	H	0.648464	0.891021	-0.359738
H207	H	0.736304	-0.006862	0.037215
H208	H	1.328458	0.296536	0.062155
C209	C	0.357716	0.455038	0.107430
H210	H	0.414889	0.407909	0.132699
H211	H	0.329017	0.454379	0.145016
H212	H	0.331578	0.449126	0.073425
C213	C	0.693004	0.287785	0.073500
H214	H	0.697865	0.242688	0.069413
H215	H	0.712500	0.265476	0.126485
H216	H	0.635652	0.334441	0.052223
H217	H	0.581768	0.993118	0.037135
C218	C	1.014904	0.416271	-0.097495
H219	H	0.973332	0.461365	-0.093426
H220	H	1.011429	0.438585	-0.150472
H221	H	1.005592	0.369616	-0.076260
C222	C	0.714098	0.886168	-0.845447
H223	H	0.688753	0.935384	-0.842261
H224	H	0.754698	0.887610	-0.872395
H225	H	0.672011	0.887604	-0.872437
C226	C	0.261851	0.945614	-0.156095
H227	H	0.317476	0.934273	-0.150038
H228	H	0.234160	0.975544	-0.209343
H229	H	0.231607	0.980714	-0.137708
C230	C	0.698949	0.428444	0.068515
H231	H	0.707601	0.472710	0.061276
H232	H	0.640671	0.453140	0.048023
H233	H	0.717524	0.384178	0.122282
C234	C	1.342355	0.305277	0.311437
H235	H	1.339857	0.330990	0.258332
H236	H	1.372948	0.317988	0.334612
H237	H	1.369805	0.243767	0.337250
C238	C	0.869694	0.317457	0.477386
H239	H	0.898352	0.346630	0.471412
H240	H	0.829712	0.330409	0.503832
H241	H	0.909255	0.256189	0.506495
H242	H	0.894177	0.536404	-0.224622
H243	H	0.415499	0.843875	-0.101596
C244	C	0.885189	0.553834	-0.666987
H245	H	0.908378	0.508800	-0.613190
H246	H	0.846477	0.548710	-0.690447
H247	H	0.929182	0.548681	-0.690402
C248	C	0.105133	0.945618	-0.155999
H249	H	0.061181	0.934285	-0.149876
H250	H	0.099332	0.980762	-0.137681
H251	H	0.101913	0.975495	-0.209264
H252	H	0.056229	0.843888	-0.101271
H253	H	0.492127	0.477623	0.095161
H254	H	0.772836	0.263777	0.445474
C255	C	0.684041	0.305207	0.311166
H256	H	0.686873	0.264097	0.361527
H257	H	0.626963	0.351304	0.282590
H258	H	0.706532	0.277093	0.285268
H259	H	0.868795	0.585727	-0.552693
C260	C	0.910600	0.504509	-0.338918
H261	H	0.906390	0.512672	-0.388105
H262	H	0.968280	0.472774	-0.310848
H263	H	0.885588	0.472777	-0.310894
C264	C	0.734351	0.846804	-0.381715
H265	H	0.738546	0.838642	-0.332529
H266	H	0.759354	0.878540	-0.409739
H267	H	0.676667	0.878533	-0.409786
C268	C	1.144205	0.317419	0.477551
H269	H	1.197243	0.275479	0.516589
H270	H	1.115016	0.365906	0.481518
H271	H	1.111892	0.291689	0.484129
H272	H	0.706963	0.427842	0.191376
C273	C	1.165640	0.275635	-0.092453
H274	H	1.107647	0.303438	-0.117074
H275	H	1.194714	0.283869	-0.130275
H276	H	1.188892	0.214902	-0.056049
H277	H	1.193139	0.427886	0.191608
