data_functionalizedCrystal
_audit_creation_method	'MofGen! by Chris Wilmer'
_symmetry_space_group_name_H-M	'P1'
_symmetry_Int_Tables_number	1
_symmetry_cell_setting	triclinic
loop_
_symmetry_equiv_pos_as_xyz
  x,y,z
_cell_length_a	27.732048
_cell_length_b	16.974810
_cell_length_c	16.053802
_cell_angle_alpha	88.925582
_cell_angle_beta	92.539157
_cell_angle_gamma	96.981651
loop_
_atom_site_label
_atom_site_type_symbol
_atom_site_fract_x
_atom_site_fract_y
_atom_site_fract_z
O1	O	0.061625	-1.048325	0.001427
O2	O	0.561625	-0.548325	0.501427
O3	O	0.069022	-0.818774	-0.014093
O4	O	0.569022	-0.318774	0.485907
O5	O	-0.005031	-0.940678	-0.005836
O6	O	0.494969	-0.440678	0.494164
O7	O	0.135678	-0.926421	-0.006831
O8	O	0.635678	-0.426421	0.493169
O9	O	-0.000972	-0.933968	0.132569
O10	O	0.499028	-0.433968	0.632569
O11	O	0.073081	-0.812064	0.124311
O12	O	0.573081	-0.312064	0.624311
O13	O	0.065684	-1.041615	0.139831
O14	O	0.565684	-0.541615	0.639831
Zn15	Zn	0.070027	-0.925774	0.154046
Zn16	Zn	0.570027	-0.425774	0.654046
Zn17	Zn	0.064679	-0.934614	-0.028308
Zn18	Zn	0.564679	-0.434614	0.471692
O19	O	0.139737	-0.919711	0.131573
O20	O	0.639737	-0.419711	0.631573
C21	C	0.070695	-0.786060	0.053124
C22	C	0.570695	-0.286060	0.553124
C23	C	0.069629	-0.698581	0.047210
C24	C	0.569629	-0.198581	0.547210
C25	C	0.071339	-0.653830	0.119878
C26	C	0.571339	-0.153830	0.619878
C27	C	0.070329	-0.571635	0.114324
C28	C	0.570329	-0.071635	0.614324
C29	C	0.067612	-0.534192	0.036101
C30	C	0.567612	-0.034192	0.536101
C31	C	0.065900	-0.578949	-0.036572
C32	C	0.565900	-0.078949	0.463428
C33	C	0.066907	-0.661143	-0.031017
C34	C	0.566907	-0.161143	0.468983
C35	C	0.064361	-0.288762	0.011397
C36	C	0.564361	0.211238	0.511397
C37	C	0.063357	-0.206562	0.005847
C38	C	0.563357	0.293438	0.505847
C39	C	0.067785	-0.199253	0.156744
C40	C	0.567785	0.300747	0.656744
C41	C	0.068794	-0.281448	0.162292
C42	C	0.568794	0.218552	0.662292
C43	C	0.067079	-0.326199	0.089619
C44	C	0.567079	0.173801	0.589619
N45	N	0.066581	-0.450176	0.030422
N46	N	0.566581	0.049824	0.530422
N47	N	0.068107	-0.410215	0.095299
N48	N	0.568107	0.089785	0.595299
C49	C	-0.021010	-0.937023	0.063349
C50	C	0.478990	-0.437023	0.563349
C51	C	-0.074670	-0.936122	0.063295
C52	C	0.425330	-0.436122	0.563295
C53	C	-0.413096	-1.002488	0.067739
C54	C	0.086904	-0.502488	0.567739
C55	C	-0.614776	-0.999144	0.067501
C56	C	-0.114776	-0.499144	0.567501
O57	O	-0.645676	-1.059831	0.071568
O58	O	-0.145676	-0.559831	0.571568
N59	N	-0.634324	-0.926860	0.062615
N60	N	-0.134324	-0.426860	0.562615
C61	C	-0.603450	-0.855406	0.057782
C62	C	-0.103450	-0.355406	0.557782
O63	O	-0.624705	-0.793847	0.053612
O64	O	-0.124705	-0.293847	0.553612
C65	C	-0.401771	-0.858751	0.058014
C66	C	0.098229	-0.358751	0.558014
C67	C	-0.382225	-0.931040	0.062909
C68	C	0.117775	-0.431040	0.562909
C69	C	-0.393550	-1.074771	0.072633
C70	C	0.106450	-0.574771	0.572633
C71	C	-0.343133	-1.075606	0.072697
C72	C	0.156867	-0.575606	0.572697
C73	C	-0.312262	-1.004157	0.067867
C74	C	0.187738	-0.504157	0.567867
C75	C	-0.331808	-0.931874	0.062973
C76	C	0.168192	-0.431874	0.562973
C77	C	-0.370897	-0.787298	0.053175
C78	C	0.129103	-0.287298	0.553175
C79	C	-0.320475	-0.788141	0.053231
C80	C	0.179525	-0.288141	0.553231
C81	C	-0.300930	-0.860430	0.058126
C82	C	0.199070	-0.360430	0.558126
C83	C	-0.250520	-0.861261	0.058207
C84	C	0.249480	-0.361261	0.558207
N85	N	-0.230972	-0.933546	0.063093
N86	N	0.269028	-0.433546	0.563093
C87	C	-0.261843	-1.004994	0.067923
C88	C	0.238157	-0.504994	0.567923
C89	C	-0.709334	-0.853655	0.057662
C90	C	-0.209334	-0.353655	0.557662
C91	C	-0.759753	-0.852819	0.057606
C92	C	-0.259753	-0.352819	0.557606
C93	C	-0.771076	-0.996557	0.067323
C94	C	-0.271076	-0.496557	0.567323
C95	C	-0.720656	-0.997393	0.067386
C96	C	-0.220656	-0.497393	0.567386
C97	C	-0.689786	-0.925940	0.062549
C98	C	-0.189786	-0.425940	0.562549
C99	C	-0.155963	-1.006742	0.068058
C100	C	0.344037	-0.506742	0.568058
C101	C	-0.105541	-1.007570	0.068125
C102	C	0.394459	-0.507570	0.568125
C103	C	-0.094222	-0.863832	0.058403
C104	C	0.405778	-0.363832	0.558403
C105	C	-0.144640	-0.863003	0.058340
C106	C	0.355360	-0.363003	0.558340
C107	C	-0.175510	-0.934464	0.063165
C108	C	0.324490	-0.434464	0.563165
O109	O	-0.219592	-0.800607	0.054133
O110	O	0.280408	-0.300607	0.554133
O111	O	-0.240579	-1.066545	0.072074
O112	O	0.259421	-0.566545	0.572074
C113	C	-0.463513	-1.001653	0.067675
C114	C	0.036487	-0.501653	0.567675
C115	C	-0.483060	-0.929370	0.062781
C116	C	0.016940	-0.429370	0.562781
C117	C	-0.452189	-0.857922	0.057951
C118	C	0.047811	-0.357922	0.557951
C119	C	-0.533479	-0.928533	0.062725
C120	C	-0.033479	-0.428533	0.562725
C121	C	-0.564350	-0.999982	0.067555
C122	C	-0.064350	-0.499982	0.567555
C123	C	-0.544801	-1.072266	0.072441
C124	C	-0.044801	-0.572266	0.572441
C125	C	-0.494384	-1.073101	0.072505
C126	C	0.005616	-0.573101	0.572505
C127	C	-0.471737	-0.785637	0.053065
C128	C	0.028263	-0.285637	0.553065
C129	C	-0.522155	-0.784808	0.053002
C130	C	-0.022155	-0.284808	0.553002
C131	C	-0.553026	-0.856256	0.057832
C132	C	-0.053026	-0.356256	0.557832
C133	C	0.155716	-0.923365	0.062387
C134	C	0.655716	-0.423365	0.562387
C135	C	0.209376	-0.924267	0.062436
C136	C	0.709376	-0.424267	0.562436
C137	C	0.064008	-0.074329	0.072610
C138	C	0.564008	0.425671	0.572610
C139	C	0.065067	-0.161811	0.078515
C140	C	0.565067	0.338189	0.578515
N141	N	0.073677	-0.919747	0.278498
N142	N	0.573677	-0.419747	0.778498
N143	N	0.061025	-0.940648	-0.152760
N144	N	0.561025	-0.440648	0.347240
C145	C	0.042179	-0.971636	0.325707
C146	C	0.542179	-0.471636	0.825707
C147	C	0.044736	-0.967426	0.412828
C148	C	0.544736	-0.467426	0.912828
C149	C	0.078795	-0.911332	0.452740
C150	C	0.578795	-0.411332	0.952740
C151	C	0.110294	-0.859437	0.405524
C152	C	0.610294	-0.359437	0.905524
C153	C	0.107734	-0.863643	0.318404
C154	C	0.607734	-0.363643	0.818404
C155	C	0.089965	-0.892960	0.712905
C156	C	0.589965	-0.392960	1.212905
C157	C	0.092524	-0.888759	0.800031
C158	C	0.592524	-0.388759	1.300031
C159	C	0.026964	-0.996748	0.807329
C160	C	0.526964	-0.496748	1.307329
C161	C	0.024409	-1.000952	0.720207
C162	C	0.524409	-0.500952	1.220207
C163	C	0.055907	-0.949055	0.672999
C164	C	0.555907	-0.449055	1.172999
N165	N	0.081411	-0.907030	0.541792
N166	N	0.581411	-0.407030	1.041792
N167	N	0.053288	-0.953354	0.583949
N168	N	0.553288	-0.453354	1.083949
H169	H	0.071714	-0.535204	0.173498
H170	H	0.571714	-0.035204	0.673498
H171	H	0.071004	-0.311929	0.225990
H172	H	0.571004	0.188071	0.725990
O173	O	0.069879	-0.150935	0.235120
O174	O	0.569879	0.349065	0.735120
H175	H	0.068810	-0.087470	0.218119
H176	H	0.568810	0.412530	0.718119
H177	H	0.014446	-1.017317	0.293217
H178	H	0.514446	-0.517317	0.793217
O179	O	-0.012319	-1.061461	0.677155
O180	O	0.487681	-0.561461	1.177155
H181	H	-0.037030	-1.030497	0.635246
H182	H	0.462970	-0.530497	1.135246
O183	O	0.129262	-0.828253	0.843077
O184	O	0.629262	-0.328253	1.343077
H185	H	0.125754	-0.834057	0.911589
H186	H	0.625754	-0.334057	1.411589
H187	H	0.065515	-0.697578	-0.090191
H188	H	0.565515	-0.197578	0.409809
O189	O	0.062515	-0.337019	-0.066985
O190	O	0.562515	0.162981	0.433015
H191	H	0.095779	-0.367219	-0.068573
H192	H	0.595779	0.132781	0.431427
H193	H	0.061145	-0.176078	-0.057854
H194	H	0.561145	0.323922	0.442146
O195	O	-0.780833	-0.774851	0.052337
O196	O	-0.280833	-0.274851	0.552337
H197	H	-0.750892	-0.725314	0.048981
H198	H	-0.250892	-0.225314	0.548981
H199	H	0.001320	-1.039000	0.845774
H200	H	0.501320	-0.539000	1.345774
O201	O	0.062972	-0.538570	-0.120945
O202	O	0.562972	-0.038570	0.379055
H203	H	0.062565	-0.473895	-0.112601
H204	H	0.562565	0.026105	0.387399
H205	H	-0.089630	-1.066439	0.072113
H206	H	0.410370	-0.566439	0.572113
O207	O	-0.676040	-0.776583	0.052450
O208	O	-0.176040	-0.276583	0.552450
H209	H	-0.651146	-0.770794	0.108653
H210	H	-0.151146	-0.270794	0.608653
H211	H	-0.181092	-1.064933	0.071984
H212	H	0.318908	-0.564933	0.571984
O213	O	-0.322055	-1.153575	0.077952
O214	O	0.177945	-0.653575	0.577952
H215	H	-0.351998	-1.203111	0.081286
H216	H	0.148002	-0.703111	0.581286
H217	H	0.019087	-1.009678	0.451266
H218	H	0.519087	-0.509678	0.951266
H219	H	-0.538063	-0.725937	0.049023
H220	H	-0.038063	-0.225937	0.549023
O221	O	0.123940	-0.836995	0.661992
O222	O	0.623940	-0.336995	1.161992
H223	H	0.148057	-0.797291	0.704385
H224	H	0.648057	-0.297291	1.204385
H225	H	-0.160554	-0.804139	0.054377
H226	H	0.339446	-0.304139	0.554377
O227	O	0.147033	-0.798935	0.448565
O228	O	0.647033	-0.298935	0.948565
H229	H	0.143526	-0.804734	0.517077
H230	H	0.643526	-0.304734	1.017077
H231	H	-0.418681	-1.132956	0.076563
H232	H	0.081319	-0.632956	0.576563
O233	O	0.141709	-0.807682	0.267479
O234	O	0.641709	-0.307682	0.767479
H235	H	0.165826	-0.767974	0.309867
H236	H	0.665826	-0.267974	0.809867
O237	O	-0.699575	-1.075360	0.072650
O238	O	-0.199575	-0.575360	0.572650
H239	H	-0.729517	-1.124898	0.075992
H240	H	-0.229517	-0.624898	0.575992
H241	H	0.073555	-0.684309	0.183576
H242	H	0.573555	-0.184309	0.683576
O243	O	-0.804377	-1.073623	0.072527
O244	O	-0.304377	-0.573623	0.572527
H245	H	-0.842719	-1.060890	0.071658
H246	H	-0.342719	-0.560890	0.571658
O247	O	-0.391972	-0.709329	0.047892
O248	O	0.108028	-0.209329	0.547892
H249	H	-0.362028	-0.659796	0.044533
H250	H	0.137972	-0.159796	0.544533
O251	O	-0.287178	-0.711072	0.048024
O252	O	0.212822	-0.211072	0.548024
H253	H	-0.309244	-0.660670	0.044619
H254	H	0.190756	-0.160670	0.544619
O255	O	-0.060922	-0.786771	0.053192
O256	O	0.439078	-0.286771	0.553192
H257	H	-0.022580	-0.799504	0.054050
H258	H	0.477420	-0.299504	0.554050
O259	O	-0.473306	-1.151070	0.077768
O260	O	0.026694	-0.651070	0.577768
H261	H	-0.503249	-1.200606	0.081105
H262	H	-0.003249	-0.700606	0.581105
H263	H	-0.569945	-1.130442	0.076377
H264	H	-0.069945	-0.630442	0.576377
H265	H	-0.446606	-0.727454	0.049130
H266	H	0.053394	-0.227454	0.549130
