data_functionalizedCrystal
_audit_creation_method	'MofGen! by Chris Wilmer'
_symmetry_space_group_name_H-M	'P1'
_symmetry_Int_Tables_number	1
_symmetry_cell_setting	triclinic
loop_
_symmetry_equiv_pos_as_xyz
  x,y,z
_cell_length_a	17.077404
_cell_length_b	17.077402
_cell_length_c	17.077396
_cell_angle_alpha	90.029784
_cell_angle_beta	90.019501
_cell_angle_gamma	90.023108
loop_
_atom_site_label
_atom_site_type_symbol
_atom_site_fract_x
_atom_site_fract_y
_atom_site_fract_z
Zn1	Zn	-1.200055	0.312503	-0.443836
Zn2	Zn	-1.199962	0.443778	-0.312567
Zn3	Zn	-1.068786	0.312531	-0.312584
Zn4	Zn	-1.068754	0.443732	-0.443790
O5	O	-1.134389	0.378136	-0.378194
O6	O	-1.309889	0.329925	-0.426434
O7	O	-1.182536	0.426399	-0.202722
O8	O	-1.086252	0.202680	-0.330021
O9	O	-1.309821	0.426372	-0.329992
O10	O	-1.182694	0.202660	-0.426451
O11	O	-1.086162	0.329972	-0.202734
O12	O	-0.958935	0.329927	-0.329976
O13	O	-1.086197	0.426293	-0.553643
O14	O	-0.958912	0.426320	-0.426373
O15	O	-1.182663	0.329880	-0.553677
O16	O	-1.182505	0.553619	-0.329948
O17	O	-1.086107	0.553585	-0.426357
C18	C	-0.930441	0.378122	-0.378172
C19	C	-0.843192	0.378135	-0.378182
C20	C	-1.134314	0.582084	-0.378163
C21	C	-1.134353	0.669334	-0.378176
C22	C	-1.134437	0.378078	-0.582938
C23	C	-1.134457	0.378054	-0.670188
C24	C	-1.339134	0.378151	-0.378216
C25	C	-1.426383	0.378157	-0.378226
C26	C	-0.802210	0.428402	-0.428295
C27	C	-0.720229	0.428404	-0.428308
C28	C	-0.679232	0.378141	-0.378202
C29	C	-0.720220	0.327869	-0.328087
C30	C	-0.802199	0.327863	-0.328079
C31	C	-0.549350	0.327884	-0.328106
C32	C	-0.467365	0.327890	-0.328112
C33	C	-0.467380	0.428424	-0.428335
C34	C	-0.549359	0.428419	-0.428327
C35	C	-0.590341	0.378147	-0.378210
C36	C	-1.134487	0.173392	-0.378243
C37	C	-1.134528	0.086142	-0.378263
C38	C	-1.184598	0.710316	-0.328029
C39	C	-1.184637	0.792296	-0.328049
C40	C	-1.134425	0.833293	-0.378212
C41	C	-1.084178	0.792305	-0.428364
C42	C	-1.084144	0.710327	-0.428348
C43	C	-1.084250	0.963175	-0.428394
C44	C	-1.084283	1.045160	-0.428410
C45	C	-1.184743	1.045145	-0.328096
C46	C	-1.184709	0.963166	-0.328079
C47	C	-1.134461	0.922184	-0.378230
C48	C	-1.184689	0.327847	-0.711197
C49	C	-1.184698	0.327821	-0.793178
C50	C	-1.134479	0.378006	-0.834148
C51	C	-1.084242	0.428214	-0.793133
C52	C	-1.084229	0.428236	-0.711154
C53	C	-1.084274	0.428167	-0.964003
C54	C	-1.084288	0.428147	-1.045988
C55	C	-1.184742	0.327752	-1.046027
C56	C	-1.184730	0.327774	-0.964048
C57	C	-1.134493	0.377984	-0.923039
C58	C	-1.134387	0.378137	-0.174246
C59	C	-1.134519	0.377941	-0.086997
H60	H	-0.835584	0.469334	-0.469094
C61	C	-1.239932	0.918071	-0.272884
N62	N	-1.281525	0.884105	-0.231309
H63	H	-1.225660	1.078516	-0.287263
H64	H	-0.686866	0.469337	-0.469114
C65	C	-1.029014	0.483404	-0.918896
N66	N	-0.987397	0.525011	-0.884920
C67	C	-1.028972	0.483468	-0.666045
N68	N	-0.987349	0.525070	-0.632070
C69	C	-0.594428	0.272584	-0.272972
N70	N	-0.628381	0.230936	-0.231443
C71	C	-1.028967	0.918097	-0.483557
N72	N	-0.987323	0.884144	-0.525099
C73	C	-0.594455	0.483714	-0.483441
N74	N	-0.628420	0.525363	-0.524955
C75	C	-0.422299	0.483720	-0.483467
N76	N	-0.388340	0.525369	-0.524991
C77	C	-1.239971	0.272566	-0.918982
N78	N	-1.281577	0.230980	-0.885039
H79	H	-1.043411	1.078538	-0.469272
H80	H	-1.225551	0.825660	-0.287214
C81	C	-0.422270	0.272596	-0.272997
N82	N	-0.388304	0.230947	-0.231483
H83	H	-1.225483	0.676941	-0.287177
C84	C	-1.028870	0.665247	-0.483513
N85	N	-0.987239	0.631294	-0.525068
H86	H	-0.686834	0.286941	-0.287293
H87	H	-1.043350	0.469073	-0.826498
H88	H	-1.043298	0.825692	-0.469211
C89	C	-0.847278	0.272567	-0.272948
N90	N	-0.881231	0.230915	-0.231424
C91	C	-1.239933	0.272638	-0.666137
N92	N	-1.281543	0.231050	-0.632201
H93	H	-1.225603	0.286940	-0.826563
H94	H	-1.225645	0.286868	-1.079420
C95	C	-1.029040	0.483348	-1.091054
N96	N	-0.987425	0.524925	-1.124997
