data_functionalizedCrystal
_audit_creation_method	'MofGen! by Chris Wilmer'
_symmetry_space_group_name_H-M	'P1'
_symmetry_Int_Tables_number	1
_symmetry_cell_setting	triclinic
loop_
_symmetry_equiv_pos_as_xyz
  x,y,z
_cell_length_a	13.897449
_cell_length_b	12.645330
_cell_length_c	13.897441
_cell_angle_alpha	90.029436
_cell_angle_beta	90.020733
_cell_angle_gamma	90.013926
loop_
_atom_site_label
_atom_site_type_symbol
_atom_site_fract_x
_atom_site_fract_y
_atom_site_fract_z
Zn1	Zn	1.474736	-0.421969	0.545389
Zn2	Zn	1.974736	0.078031	1.045389
Zn3	Zn	1.474645	-0.599265	0.384094
Zn4	Zn	1.974645	-0.099265	0.884094
Zn5	Zn	1.313426	-0.422020	0.384107
Zn6	Zn	1.813426	0.077980	0.884107
Zn7	Zn	1.313421	-0.599195	0.545346
Zn8	Zn	1.813421	-0.099195	1.045346
O9	O	1.394057	-0.510612	0.464734
O10	O	1.894057	-0.010612	0.964734
O11	O	1.609706	-0.445496	0.524005
O12	O	2.109706	0.054504	1.024005
O13	O	1.453222	-0.575803	0.249114
O14	O	1.953222	-0.075803	0.749114
O15	O	1.334864	-0.273666	0.405525
O16	O	1.834864	0.226334	0.905525
O17	O	1.609638	-0.575754	0.405502
O18	O	2.109638	-0.075754	0.905502
O19	O	1.453378	-0.273629	0.524018
O20	O	1.953378	0.226371	1.024018
O21	O	1.334775	-0.445582	0.249124
O22	O	1.834775	0.054418	0.749124
O23	O	1.178443	-0.445514	0.405484
O24	O	1.678443	0.054486	0.905484
O25	O	1.334857	-0.575635	0.680334
O26	O	1.834857	-0.075635	1.180334
O27	O	1.178440	-0.575684	0.523945
O28	O	1.678440	-0.075684	1.023945
O29	O	1.453374	-0.445428	0.680365
O30	O	1.953374	0.054572	1.180365
O31	O	1.453218	-0.747603	0.405461
O32	O	1.953218	-0.247603	0.905461
O33	O	1.334768	-0.747552	0.523932
O34	O	1.834768	-0.247552	1.023932
C35	C	1.143443	-0.510598	0.464712
C36	C	1.643443	-0.010598	0.964712
C37	C	1.036229	-0.510618	0.464726
C38	C	1.536229	-0.010618	0.964726
C39	C	0.839934	-0.510621	0.464751
C40	C	1.339934	-0.010621	0.964751
C41	C	0.949166	-0.510616	0.464734
C42	C	1.449166	-0.010616	0.964734
C43	C	1.394009	-0.786042	0.464711
C44	C	1.894009	-0.286042	0.964711
C45	C	1.394076	-0.903872	0.464734
C46	C	1.894076	-0.403872	0.964734
C47	C	1.468474	-1.071424	0.390052
C48	C	1.968474	-0.571424	0.890052
C49	C	1.468716	-0.948864	0.390235
C50	C	1.968716	-0.448864	0.890235
C51	C	1.421645	-0.948249	0.566410
C52	C	1.921645	-0.448249	1.066410
C53	C	1.422236	-1.070847	0.566014
C54	C	1.922236	-0.570847	1.066014
C55	C	1.292081	-1.071203	0.438741
C56	C	1.792081	-0.571203	0.938741
C57	C	1.292570	-0.948599	0.436461
C58	C	1.792570	-0.448599	0.936461
C59	C	1.645650	-0.510627	0.464757
C60	C	2.145650	-0.010627	0.964757
C61	C	1.752864	-0.510634	0.464766
C62	C	2.252864	-0.010634	0.964766
C63	C	1.394125	-0.510519	0.716327
C64	C	1.894125	-0.010519	1.216327
C65	C	1.394155	-0.510479	0.823541
C66	C	1.894155	-0.010479	1.323541
C67	C	1.394132	-0.234107	0.464778
C68	C	1.894132	0.265893	0.964778
C69	C	1.394164	-0.116277	0.464797
C70	C	1.894164	0.383723	0.964797
C71	C	1.394044	-0.510629	0.214120
C72	C	1.894044	-0.010629	0.714120
C73	C	1.394202	-0.510370	0.106906
C74	C	1.894202	-0.010370	0.606906
C75	C	1.394181	-0.510407	1.019836
C76	C	1.894181	-0.010407	1.519836
C77	C	1.394163	-0.510450	0.910604
C78	C	1.894163	-0.010450	1.410604
H79	H	1.451467	-0.918865	0.314843
H80	H	1.951467	-0.418865	0.814843
Br81	Br	1.250292	-1.122895	0.317319
Br82	Br	1.750292	-0.622895	0.817319
Br83	Br	1.546602	-1.118371	0.602799
Br84	Br	2.046602	-0.618371	1.102799
Br85	Br	1.335933	-1.120299	0.661987
Br86	Br	1.835933	-0.620299	1.161987
Br87	Br	1.195304	-0.897574	0.520544
Br88	Br	1.695304	-0.397574	1.020544
Br89	Br	1.257914	-0.900271	0.311750
Br90	Br	1.757914	-0.400271	0.811750
H91	H	1.451440	-1.100981	0.314440
H92	H	1.951440	-0.600981	0.814440
Br93	Br	1.593821	-1.122633	0.418450
Br94	Br	2.093821	-0.622633	0.918450
H95	H	1.369169	-0.919102	0.623593
H96	H	1.869169	-0.419102	1.123593
H97	H	1.495420	-0.917458	0.588849
H98	H	1.995420	-0.417458	1.088849
H99	H	1.236714	-1.100210	0.493181
H100	H	1.736714	-0.600210	0.993181
Br101	Br	1.594736	-0.899834	0.418963
Br102	Br	2.094736	-0.399834	0.918963
