data_functionalizedCrystal
_audit_creation_method	'MofGen! by Chris Wilmer'
_symmetry_space_group_name_H-M	'P1'
_symmetry_Int_Tables_number	1
_symmetry_cell_setting	triclinic
loop_
_symmetry_equiv_pos_as_xyz
  x,y,z
_cell_length_a	11.169417
_cell_length_b	10.685194
_cell_length_c	11.169409
_cell_angle_alpha	94.405416
_cell_angle_beta	90.020253
_cell_angle_gamma	94.378522
loop_
_atom_site_label
_atom_site_type_symbol
_atom_site_fract_x
_atom_site_fract_y
_atom_site_fract_z
Zn1	Zn	1.798371	-0.502272	0.641880
Zn2	Zn	2.131704	-0.168939	0.975214
Zn3	Zn	2.465038	0.164394	1.308547
Zn4	Zn	1.782877	-0.713352	0.425794
Zn5	Zn	2.116210	-0.380018	0.759127
Zn6	Zn	2.449543	-0.046685	1.092461
Zn7	Zn	1.597649	-0.502351	0.441210
Zn8	Zn	1.930982	-0.169017	0.774543
Zn9	Zn	2.264315	0.164316	1.107877
Zn10	Zn	1.582291	-0.713250	0.626447
Zn11	Zn	1.915624	-0.379917	0.959781
Zn12	Zn	2.248957	-0.046584	1.293114
O13	O	1.690297	-0.607806	0.533833
O14	O	2.023630	-0.274473	0.867166
O15	O	2.356963	0.058860	1.200500
O16	O	1.964265	-0.530282	0.613223
O17	O	2.297598	-0.196949	0.946556
O18	O	2.630931	0.136384	1.279890
O19	O	1.758249	-0.685437	0.259884
O20	O	2.091582	-0.352104	0.593217
O21	O	2.424915	-0.018770	0.926550
O22	O	1.637187	-0.325740	0.480740
O23	O	1.970520	0.007593	0.814073
O24	O	2.303853	0.340926	1.147406
O25	O	1.952881	-0.685361	0.454465
O26	O	2.286214	-0.352028	0.787799
O27	O	2.619548	-0.018695	1.121132
O28	O	1.784657	-0.325683	0.628171
O29	O	2.117990	0.007650	0.961505
O30	O	2.451323	0.340984	1.294838
O31	O	1.622162	-0.530415	0.271210
O32	O	1.955496	-0.197082	0.604543
O33	O	2.288829	0.136251	0.937876
O34	O	1.427662	-0.530317	0.465775
O35	O	1.760996	-0.196984	0.799108
O36	O	2.094329	0.136349	1.132442
O37	O	1.611011	-0.685189	0.796450
O38	O	1.944345	-0.351855	1.129783
O39	O	2.277678	-0.018522	1.463117
O40	O	1.416379	-0.685265	0.601868
O41	O	1.749712	-0.351931	0.935202
O42	O	2.083046	-0.018598	1.268535
O43	O	1.769765	-0.530184	0.807788
O44	O	2.103098	-0.196851	1.141122
O45	O	2.436431	0.136483	1.474455
O46	O	1.743357	-0.889938	0.439501
O47	O	2.076690	-0.556605	0.772834
O48	O	2.410023	-0.223271	1.106168
O49	O	1.595987	-0.889864	0.586920
O50	O	1.929320	-0.556530	0.920253
O51	O	2.262654	-0.223197	1.253587
C52	C	1.378473	-0.607789	0.533820
C53	C	1.711807	-0.274456	0.867154
C54	C	2.045140	0.058877	1.200487
C55	C	1.245072	-0.607812	0.533841
C56	C	1.578405	-0.274479	0.867175
C57	C	1.911738	0.058854	1.200508
C58	C	1.666357	-0.935691	0.509889
C59	C	1.999690	-0.602358	0.843222
C60	C	2.333023	-0.269024	1.176556
C61	C	1.656225	-1.075962	0.499686
C62	C	1.989558	-0.742628	0.833019
C63	C	2.322891	-0.409295	1.166353
C64	C	2.003338	-0.607824	0.533846
C65	C	2.336671	-0.274491	0.867180
C66	C	2.670004	0.058842	1.200513
C67	C	2.136737	-0.607832	0.533852
C68	C	2.470070	-0.274499	0.867185
C69	C	2.803404	0.058835	1.200518
C70	C	1.690403	-0.607666	0.846886
C71	C	2.023736	-0.274333	1.180219
C72	C	2.357070	0.059000	1.513552
C73	C	1.690448	-0.607607	0.980290
C74	C	2.023782	-0.274274	1.313624
C75	C	2.357115	0.059060	1.646957
C76	C	1.714363	-0.278641	0.557897
C77	C	2.047696	0.054692	0.891230
C78	C	2.381030	0.388026	1.224563
C79	C	1.724619	-0.138370	0.568151
C80	C	2.057952	0.194963	0.901485
C81	C	2.391285	0.528296	1.234818
C82	C	1.690266	-0.607854	0.222005
C83	C	2.023600	-0.274521	0.555338
C84	C	2.356933	0.058812	0.888671
C85	C	1.690480	-0.607559	0.088627
C86	C	2.023813	-0.274225	0.421960
C87	C	2.357146	0.059108	0.755294
H88	H	1.790927	-1.084491	0.634579
H89	H	2.124260	-0.751158	0.967912
H90	H	2.457594	-0.417825	1.301246
H91	H	1.589902	-1.129848	0.433264
H92	H	1.923235	-0.796515	0.766598
H93	H	2.256569	-0.463182	1.099931
