data_functionalizedCrystal
_audit_creation_method	'MofGen! by Chris Wilmer'
_symmetry_space_group_name_H-M	'P1'
_symmetry_Int_Tables_number	1
_symmetry_cell_setting	triclinic
loop_
_symmetry_equiv_pos_as_xyz
  x,y,z
_cell_length_a	19.121102
_cell_length_b	19.121175
_cell_length_c	19.121063
_cell_angle_alpha	85.048230
_cell_angle_beta	89.873098
_cell_angle_gamma	85.212968
loop_
_atom_site_label
_atom_site_type_symbol
_atom_site_fract_x
_atom_site_fract_y
_atom_site_fract_z
Zn1	Zn	1.078480	-0.457776	0.345237
Zn2	Zn	1.578480	0.042224	0.845237
Zn3	Zn	1.068784	-0.344694	0.457452
Zn4	Zn	1.568784	0.155306	0.957452
Zn5	Zn	0.956233	-0.334686	0.334783
Zn6	Zn	1.456233	0.165314	0.834783
Zn7	Zn	0.956186	-0.457304	0.457406
Zn8	Zn	1.456186	0.042696	0.957406
O9	O	1.014921	-0.398615	0.398719
O10	O	1.514921	0.101385	0.898719
O11	O	1.175477	-0.447161	0.364516
O12	O	1.675477	0.052839	0.864516
O13	O	1.049816	-0.244725	0.436824
O14	O	1.549816	0.255275	0.936824
O15	O	0.976527	-0.347024	0.237889
O16	O	1.476527	0.152976	0.737889
O17	O	1.168354	-0.364080	0.446961
O18	O	1.668354	0.135920	0.946961
O19	O	1.066341	-0.437457	0.245569
O20	O	1.566341	0.062543	0.745569
O21	O	0.967125	-0.237373	0.346700
O22	O	1.467125	0.262627	0.846700
O23	O	0.857943	-0.346566	0.346655
O24	O	1.357943	0.153434	0.846655
O25	O	0.976446	-0.556008	0.446882
O26	O	1.476446	-0.056008	0.946882
O27	O	0.857908	-0.436653	0.436746
O28	O	1.357908	0.063347	0.936746
O29	O	1.066295	-0.556354	0.364472
O30	O	1.566295	-0.056354	0.864472
O31	O	1.049770	-0.363622	0.555727
O32	O	1.549770	0.136378	1.055727
O33	O	0.967044	-0.446357	0.555693
O34	O	1.467044	0.053643	1.055693
C35	C	0.832442	-0.390473	0.390561
C36	C	1.332442	0.109527	0.890561
C37	C	0.754377	-0.387007	0.387089
C38	C	1.254377	0.112993	0.887089
C39	C	0.717696	-0.432214	0.432428
C40	C	1.217696	0.067786	0.932428
C41	C	0.644346	-0.428961	0.429156
C42	C	1.144346	0.071039	0.929156
C43	C	0.607678	-0.380496	0.380548
C44	C	1.107678	0.119504	0.880548
C45	C	0.644364	-0.335287	0.335205
C46	C	1.144364	0.164713	0.835205
C47	C	0.717713	-0.338545	0.338474
C48	C	1.217713	0.161455	0.838474
C49	C	0.386212	-0.368321	0.368326
C50	C	0.886212	0.131679	0.868326
C51	C	0.312858	-0.365066	0.365061
C52	C	0.812858	0.134934	0.865061
C53	C	0.312845	-0.458740	0.459012
C54	C	0.812845	0.041260	0.959012
C55	C	0.386195	-0.461990	0.462279
C56	C	0.886195	0.038010	0.962279
C57	C	0.422875	-0.416784	0.416933
C58	C	0.922875	0.083216	0.916933
C59	C	0.532702	-0.377168	0.377205
C60	C	1.032702	0.122832	0.877205
C61	C	0.497850	-0.420116	0.420275
C62	C	0.997850	0.079884	0.920275
C63	C	1.022447	-0.582473	0.406838
C64	C	1.522447	-0.082473	0.906838
C65	C	1.025654	-0.660822	0.410297
C66	C	1.525654	-0.160822	0.910297
C67	C	0.984110	-0.693802	0.365001
C68	C	1.484110	-0.193802	0.865001
C69	C	0.987121	-0.767419	0.368257
C70	C	1.487121	-0.267419	0.868257
C71	C	1.031680	-0.808055	0.416807
C72	C	1.531680	-0.308055	0.916807
C73	C	1.073225	-0.775070	0.462109
C74	C	1.573225	-0.275070	0.962109
C75	C	1.070210	-0.701454	0.458855
C76	C	1.570210	-0.201454	0.958855
C77	C	1.042933	-1.030520	0.428981
C78	C	1.542933	-0.530520	0.928981
C79	C	1.045947	-1.104141	0.432229
C80	C	1.545947	-0.604141	0.932229
C81	C	0.959841	-1.096485	0.338378
C82	C	1.459841	-0.596485	0.838378
C83	C	0.956833	-1.022868	0.335126
C84	C	1.456833	-0.522868	0.835126
C85	C	0.998376	-0.989889	0.380430
C86	C	1.498376	-0.489889	0.880430
C87	C	1.034760	-0.883304	0.420135
C88	C	1.534760	-0.383304	0.920135
C89	C	0.995292	-0.914642	0.377105
C90	C	1.495292	-0.414642	0.877105
C91	C	1.198112	-0.406789	0.406910
C92	C	1.698112	0.093211	0.906910
C93	C	1.276177	-0.410273	0.410400
C94	C	1.776177	0.089727	0.910400
C95	C	1.007370	-0.406040	0.581194
C96	C	1.507370	0.093960	1.081194
C97	C	1.004204	-0.409244	0.659262
C98	C	1.504204	0.090756	1.159262
C99	C	1.007466	-0.215472	0.390584
C100	C	1.507466	0.284528	0.890584
C101	C	1.004403	-0.137122	0.386933
C102	C	1.504403	0.362878	0.886933
C103	C	1.022521	-0.391177	0.215534
C104	C	1.522521	0.108823	0.715534
C105	C	1.025760	-0.388007	0.137471
C106	C	1.525760	0.111993	0.637471
C107	C	1.045825	-0.367712	0.695936
C108	C	1.545825	0.132288	1.195936
C109	C	1.042852	-0.370729	0.769289
C110	C	1.542852	0.129271	1.269289
C111	C	0.998255	-0.415274	0.805966
C112	C	1.498255	0.084726	1.305966
C113	C	0.956634	-0.456810	0.769287
C114	C	1.456634	0.043190	1.269287
C115	C	0.959610	-0.453797	0.695936
C116	C	1.459610	0.046203	1.195936
C117	C	0.987115	-0.426530	1.027440
C118	C	1.487115	0.073470	1.527440
C119	C	0.984139	-0.429539	1.100797
C120	C	1.484139	0.070461	1.600797
C121	C	1.070359	-0.343458	1.100793
C122	C	1.570359	0.156542	1.600793
C123	C	1.073329	-0.340445	1.027440
C124	C	1.573329	0.159555	1.527440
C125	C	1.031710	-0.381984	0.990768
C126	C	1.531710	0.118016	1.490768
C127	C	0.995214	-0.418357	0.880945
C128	C	1.495214	0.081643	1.380945
C129	C	1.034755	-0.378904	0.915791
C130	C	1.534755	0.121096	1.415791
H131	H	0.747577	-0.301736	0.301551
H132	H	1.247577	0.198264	0.801551
H133	H	1.082235	-1.137226	0.471766
H134	H	1.582235	-0.637226	0.971766
F135	F	0.536876	-0.471695	0.472004
F136	F	1.036876	0.028305	0.972004
F137	F	0.936664	-0.476944	1.139830
F138	F	1.436664	0.023056	1.639830
H139	H	0.953225	-0.460351	0.997588
H140	H	1.453225	0.039649	1.497588
H141	H	1.104244	-0.309640	1.130660
H142	H	1.604244	0.190360	1.630660
H143	H	1.076752	-1.003678	0.465878
H144	H	1.576752	-0.503678	0.965878
F145	F	0.947752	-0.465764	0.919986
F146	F	1.447752	0.034236	1.419986
H147	H	1.071039	-0.916398	0.459665
H148	H	1.571039	-0.416398	0.959665
H149	H	0.614503	-0.295829	0.295625
H150	H	1.114503	0.204171	0.795625
F151	F	0.909174	-0.504223	0.808325
F152	F	1.409174	-0.004223	1.308325
H153	H	0.502838	-0.337707	0.337630
H154	H	1.002838	0.162293	0.837630
F155	F	1.120803	-0.293042	0.988411
F156	F	1.620803	0.206958	1.488411
H157	H	1.071069	-0.342638	0.885926
H158	H	1.571069	0.157362	1.385926
F159	F	0.756715	-0.483794	0.484166
F160	F	1.256715	0.016206	0.984166
F161	F	0.605311	-0.477077	0.477412
F162	F	1.105311	0.022923	0.977412
F163	F	1.093287	-0.320296	0.656907
F164	F	1.593287	0.179704	1.156907
H165	H	0.416046	-0.501454	0.501862
H166	H	0.916046	-0.001454	1.001862
F167	F	0.942877	-0.802516	0.320070
F168	F	1.442877	-0.302516	0.820070
H169	H	0.947830	-0.660721	0.325462
H170	H	1.447830	-0.160721	0.825462
H171	H	0.282973	-0.495546	0.495929
H172	H	0.782973	0.004454	0.995929
H173	H	0.283005	-0.325604	0.325472
H174	H	0.783005	0.174396	0.825472
F175	F	0.909409	-0.979625	0.283451
F176	F	1.409409	-0.479625	0.783451
H177	H	1.109502	-0.808162	0.501643
H178	H	1.609502	-0.308162	1.001643
F179	F	0.425240	-0.320210	0.320062
F180	F	0.925240	0.179790	0.820062
F181	F	0.915630	-1.131589	0.290168
F182	F	1.415630	-0.631589	0.790168
H183	H	0.959010	-0.881553	0.337578
H184	H	1.459010	-0.381553	0.837578
F185	F	1.114425	-0.666355	0.507069
F186	F	1.614425	-0.166355	1.007069
H187	H	1.076743	-0.336909	0.799145
H188	H	1.576743	0.163091	1.299145
F189	F	0.915314	-0.498002	0.656905
F190	F	1.415314	0.001998	1.156905
