data_functionalizedCrystal
_audit_creation_method	'MofGen! by Chris Wilmer'
_symmetry_space_group_name_H-M	'P1'
_symmetry_Int_Tables_number	1
_symmetry_cell_setting	triclinic
loop_
_symmetry_equiv_pos_as_xyz
  x,y,z
_cell_length_a	17.077404
_cell_length_b	21.295417
_cell_length_c	17.077396
_cell_angle_alpha	89.965973
_cell_angle_beta	89.983895
_cell_angle_gamma	90.028477
loop_
_atom_site_label
_atom_site_type_symbol
_atom_site_fract_x
_atom_site_fract_y
_atom_site_fract_z
Zn1	Zn	1.199996	-0.250638	-0.443793
Zn2	Zn	1.699996	0.249362	0.056207
Zn3	Zn	1.199890	-0.355913	-0.312516
Zn4	Zn	1.699890	0.144087	0.187484
Zn5	Zn	1.068733	-0.250658	-0.312544
Zn6	Zn	1.568733	0.249342	0.187456
Zn7	Zn	1.068678	-0.355870	-0.443743
Zn8	Zn	1.568678	0.144130	0.056257
O9	O	1.134324	-0.303270	-0.378149
O10	O	1.634324	0.196730	0.121851
O11	O	1.309828	-0.264613	-0.426389
O12	O	1.809828	0.235387	0.073611
O13	O	1.182471	-0.341977	-0.202673
O14	O	1.682471	0.158023	0.297327
O15	O	1.086212	-0.162566	-0.329987
O16	O	1.586212	0.337434	0.170013
O17	O	1.309751	-0.341958	-0.329940
O18	O	1.809751	0.158042	0.170060
O19	O	1.182650	-0.162551	-0.426415
O20	O	1.682650	0.337449	0.073585
O21	O	1.086110	-0.264646	-0.202693
O22	O	1.586110	0.235354	0.297307
O23	O	0.958878	-0.264604	-0.329938
O24	O	1.458878	0.235396	0.170062
O25	O	1.086119	-0.341884	-0.553596
O26	O	1.586119	0.158116	-0.053596
O27	O	0.958838	-0.341903	-0.426329
O28	O	1.458838	0.158097	0.073671
O29	O	1.182597	-0.264571	-0.553633
O30	O	1.682597	0.235429	-0.053633
O31	O	1.182418	-0.443996	-0.329891
O32	O	1.682418	0.056004	0.170109
O33	O	1.086017	-0.443965	-0.426302
O34	O	1.586017	0.056035	0.073698
C35	C	0.930376	-0.303252	-0.378131
C36	C	1.430376	0.196748	0.121869
C37	C	0.843126	-0.303259	-0.378142
C38	C	1.343126	0.196741	0.121858
C39	C	0.802177	-0.263057	-0.428440
C40	C	1.302177	0.236943	0.071560
C41	C	0.720197	-0.263061	-0.428443
C42	C	1.220197	0.236939	0.071557
C43	C	0.679167	-0.303271	-0.378153
C44	C	1.179167	0.196729	0.121847
C45	C	0.720122	-0.343475	-0.327850
C46	C	1.220122	0.156525	0.172150
C47	C	0.802101	-0.343467	-0.327843
C48	C	1.302101	0.156533	0.172157
C49	C	0.549252	-0.343489	-0.327870
C50	C	1.049252	0.156511	0.172130
C51	C	0.467267	-0.343498	-0.327877
C52	C	0.967267	0.156502	0.172123
C53	C	0.467348	-0.263083	-0.428470
C54	C	0.967348	0.236917	0.071530
C55	C	0.549327	-0.263076	-0.428463
C56	C	1.049327	0.236924	0.071537
C57	C	0.590276	-0.303280	-0.378161
C58	C	1.090276	0.196720	0.121839
C59	C	1.134221	-0.466821	-0.378105
C60	C	1.634221	0.033179	0.121895
C61	C	1.134249	-0.536789	-0.378113
C62	C	1.634249	-0.036789	0.121887
C63	C	1.184490	-0.569651	-0.327963
C64	C	1.684490	-0.069651	0.172037
C65	C	1.184526	-0.635394	-0.327981
C66	C	1.684526	-0.135394	0.172019
C67	C	1.134309	-0.668272	-0.378140
C68	C	1.634309	-0.168272	0.121860
C69	C	1.084064	-0.635402	-0.428300
C70	C	1.584064	-0.135402	0.071700
C71	C	1.084035	-0.569660	-0.428286
C72	C	1.584035	-0.069660	0.071714
N73	N	1.065640	-0.771535	-0.384118
N74	N	1.565640	-0.271535	0.115882
N75	N	1.065670	-0.833987	-0.384127
N76	N	1.565670	-0.333987	0.115873
C77	C	1.134396	-0.866346	-0.378185
C78	C	1.634396	-0.366346	0.121815
N79	N	1.203093	-0.833895	-0.372220
N80	N	1.703093	-0.333895	0.127780
N81	N	1.203061	-0.771438	-0.372207
N82	N	1.703061	-0.271438	0.127793
C83	C	1.134336	-0.739557	-0.378161
C84	C	1.634336	-0.239557	0.121839
C85	C	1.184681	-0.970494	-0.328052
C86	C	1.684681	-0.470494	0.171948
C87	C	1.184719	-1.036238	-0.328075
C88	C	1.684719	-0.536238	0.171925
C89	C	1.084250	-1.036244	-0.428390
C90	C	1.584250	-0.536244	0.071610
C91	C	1.084219	-0.970502	-0.428371
C92	C	1.584219	-0.470502	0.071629
C93	C	1.134434	-0.937631	-0.378198
C94	C	1.634434	-0.437631	0.121802
C95	C	1.339068	-0.303288	-0.378167
C96	C	1.839068	0.196712	0.121833
C97	C	1.426318	-0.303296	-0.378175
C98	C	1.926318	0.196704	0.121825
C99	C	1.134364	-0.303221	-0.582893
C100	C	1.634364	0.196779	-0.082893
C101	C	1.134380	-0.303200	-0.670143
C102	C	1.634380	0.196800	-0.170143
C103	C	1.134449	-0.139079	-0.378210
C104	C	1.634449	0.360921	0.121790
C105	C	1.134502	-0.069111	-0.378236
C106	C	1.634502	0.430889	0.121764
C107	C	1.084220	-0.262929	-0.711143
C108	C	1.584220	0.237071	-0.211143
C109	C	1.084233	-0.262915	-0.793124
C110	C	1.584233	0.237085	-0.293124
C111	C	1.134410	-0.303169	-0.834103
C112	C	1.634410	0.196831	-0.334103
C113	C	1.184573	-0.343444	-0.793097
C114	C	1.684573	0.156556	-0.293097
C115	C	1.184555	-0.343461	-0.711118
C116	C	1.684555	0.156539	-0.211118
C117	C	1.184607	-0.343405	-0.963967
C118	C	1.684607	0.156595	-0.463967
C119	C	1.184625	-0.343387	-1.045952
C120	C	1.684625	0.156613	-0.545952
C121	C	1.084285	-0.262859	-1.045973
C122	C	1.584285	0.237141	-0.545973
C123	C	1.084267	-0.262876	-0.963994
C124	C	1.584267	0.237124	-0.463994
C125	C	1.134431	-0.303150	-0.922994
C126	C	1.634431	0.196850	-0.422994
C127	C	1.134330	-0.303273	-0.174201
C128	C	1.634330	0.196727	0.325799
C129	C	1.134465	-0.303116	-0.086952
C130	C	1.634465	0.196884	0.413048
H131	H	0.582590	-0.376226	-0.286906
H132	H	1.082590	0.123774	0.213094
H133	H	1.225407	-0.376249	-0.677737
H134	H	1.725407	0.123751	-0.177737
H135	H	0.835578	-0.230316	-0.469394
H136	H	1.335578	0.269684	0.030606
O137	O	0.680353	-0.382622	-0.279037
O138	O	1.180353	0.117378	0.220963
C139	C	0.700350	-0.445377	-0.296059
C140	C	1.200350	0.054623	0.203941
H141	H	0.759884	-0.446705	-0.326224
H142	H	1.259884	0.053295	0.173776
H143	H	0.703118	-0.473547	-0.239342
H144	H	1.203118	0.026453	0.260658
H145	H	0.654218	-0.466624	-0.336374
H146	H	1.154218	0.033376	0.163626
O147	O	1.035366	-0.667308	-0.477136
O148	O	1.535366	-0.167308	0.022864
C149	C	1.052455	-0.651174	-0.555383
C150	C	1.552455	-0.151174	-0.055383
H151	H	1.115154	-0.633057	-0.559398
H152	H	1.615154	-0.133057	-0.059398
H153	H	1.045689	-0.694390	-0.594166
H154	H	1.545689	-0.194390	-0.094166
H155	H	1.010341	-0.613031	-0.575859
H156	H	1.510341	-0.113031	-0.075859
H157	H	1.043385	-0.230125	-0.826502
H158	H	1.543385	0.269875	-0.326502
O159	O	1.233348	-0.537819	-0.279210
O160	O	1.733348	-0.037819	0.220790
C161	C	1.277688	-0.580927	-0.234937
C162	C	1.777688	-0.080927	0.265063
H163	H	1.280402	-0.627769	-0.267100
H164	H	1.780402	-0.127769	0.232900
H165	H	1.339534	-0.561898	-0.226618
H166	H	1.839534	-0.061898	0.273382
H167	H	1.248985	-0.587972	-0.175294
H168	H	1.748985	-0.087972	0.324706
O169	O	1.233534	-0.938656	-0.279294
O170	O	1.733534	-0.438656	0.220706
C171	C	1.277878	-0.981762	-0.235023
C172	C	1.777878	-0.481762	0.264977
H173	H	1.280603	-1.028602	-0.267191
H174	H	1.780603	-0.528602	0.232809
H175	H	1.339720	-0.962727	-0.226697
H176	H	1.839720	-0.462727	0.273303
H177	H	1.249170	-0.988815	-0.175383
H178	H	1.749170	-0.488815	0.324617
H179	H	1.225424	-0.376222	-0.826468
H180	H	1.725424	0.123778	-0.326468
O181	O	0.680540	-0.223990	-0.477377
O182	O	1.180540	0.276010	0.022623
C183	C	0.734333	-0.188490	-0.521752
C184	C	1.234333	0.311510	-0.021752
H185	H	0.792758	-0.214274	-0.524406
H186	H	1.292758	0.285726	-0.024406
H187	H	0.710672	-0.181839	-0.583616
H188	H	1.210672	0.318161	-0.083616
H189	H	0.743069	-0.140651	-0.493117
H190	H	1.243069	0.359349	0.006883
H191	H	1.225636	-1.062993	-0.287238
H192	H	1.725636	-0.562993	0.212762
O193	O	1.035527	-0.223678	-1.085675
O194	O	1.535527	0.276322	-0.585675
C195	C	0.991226	-0.188161	-1.031926
C196	C	1.491226	0.311839	-0.531926
H197	H	1.023370	-0.185998	-0.973494
H198	H	1.523370	0.314002	-0.473494
H199	H	0.982897	-0.138558	-1.055633
H200	H	1.482897	0.361442	-0.555633
H201	H	0.931588	-0.211207	-1.023191
H202	H	1.431588	0.288793	-0.523191
H203	H	1.225484	-0.376165	-1.079315
H204	H	1.725484	0.123835	-0.579315
O205	O	1.035496	-1.068271	-0.477044
O206	O	1.535496	-0.568271	0.022956
C207	C	1.046312	-1.133344	-0.466322
C208	C	1.546312	-0.633344	0.033678
H209	H	1.072059	-1.142344	-0.405767
H210	H	1.572059	-0.642344	0.094233
H211	H	0.987524	-1.158368	-0.471604
H212	H	1.487524	-0.658368	0.028396
H213	H	1.088098	-1.151939	-0.512923
H214	H	1.588098	-0.651939	-0.012923
H215	H	1.043305	-0.943744	-0.469204
H216	H	1.543305	-0.443744	0.030796
H217	H	0.582731	-0.230337	-0.469418
H218	H	1.082731	0.269663	0.030582
H219	H	1.043412	-0.230095	-0.930631
H220	H	1.543412	0.269905	-0.430631
O221	O	1.035337	-0.537706	-0.477085
O222	O	1.535337	-0.037706	0.022915
C223	C	1.079978	-0.499602	-0.527800
C224	C	1.579978	0.000398	-0.027800
H225	H	1.141809	-0.519367	-0.532710
H226	H	1.641809	-0.019367	-0.032710
H227	H	1.051551	-0.498836	-0.588185
H228	H	1.551551	0.001164	-0.088185
H229	H	1.082673	-0.449792	-0.503518
H230	H	1.582673	0.050208	-0.003518
O231	O	0.427611	-0.224092	-0.477444
O232	O	0.927611	0.275908	0.022556
C233	C	0.447680	-0.237920	-0.555644
C234	C	0.947680	0.262080	-0.055644
H235	H	0.470188	-0.288212	-0.559486
H236	H	0.970188	0.211788	-0.059486
H237	H	0.393785	-0.232539	-0.594443
H238	H	0.893785	0.267461	-0.094443
H239	H	0.495292	-0.204191	-0.576238
H240	H	0.995292	0.295809	-0.076238
O241	O	0.427531	-0.382575	-0.278951
O242	O	0.927531	0.117425	0.221049
C243	C	0.481250	-0.418067	-0.234561
C244	C	0.981250	0.081933	0.265439
H245	H	0.539699	-0.392276	-0.231893
H246	H	1.039699	0.107724	0.268107
H247	H	0.457531	-0.424719	-0.172702
H248	H	0.957531	0.075281	0.327298
H249	H	0.489959	-0.465906	-0.263191
H250	H	0.989959	0.034094	0.236809
O251	O	0.841969	-0.382552	-0.279096
O252	O	1.341969	0.117448	0.220904
C253	C	0.889373	-0.423259	-0.323689
C254	C	1.389373	0.076741	0.176311
H255	H	0.901685	-0.401117	-0.383227
H256	H	1.401685	0.098883	0.116773
H257	H	0.947005	-0.431656	-0.291691
H258	H	1.447005	0.068344	0.208309
H259	H	0.857761	-0.469922	-0.332207
H260	H	1.357761	0.030078	0.167793
O261	O	1.233397	-0.667360	-0.279363
O262	O	1.733397	-0.167360	0.220637
C263	C	1.284076	-0.705351	-0.324085
C264	C	1.784076	-0.205351	0.175915
H265	H	1.288914	-0.685498	-0.385907
H266	H	1.788914	-0.185498	0.114093
H267	H	1.344491	-0.706090	-0.295722
H268	H	1.844491	-0.206090	0.204278
H269	H	1.259806	-0.755183	-0.326790
H270	H	1.759806	-0.255183	0.173210
H271	H	1.225462	-0.376195	-0.930587
H272	H	1.725462	0.123805	-0.430587
O273	O	1.035402	-0.223807	-0.671461
O274	O	1.535402	0.276193	-0.171461
C275	C	0.991145	-0.188251	-0.725233
C276	C	1.491145	0.311749	-0.225233
H277	H	0.988423	-0.214022	-0.783659
H278	H	1.488423	0.285978	-0.283659
H279	H	0.929297	-0.181537	-0.701547
H280	H	1.429297	0.318463	-0.201547
H281	H	1.019926	-0.140441	-0.733973
H282	H	1.519926	0.359559	-0.233973
