data_functionalizedCrystal
_audit_creation_method	'MofGen! by Chris Wilmer'
_symmetry_space_group_name_H-M	'P1'
_symmetry_Int_Tables_number	1
_symmetry_cell_setting	triclinic
loop_
_symmetry_equiv_pos_as_xyz
  x,y,z
_cell_length_a	14.853566
_cell_length_b	23.532357
_cell_length_c	13.330367
_cell_angle_alpha	89.989812
_cell_angle_beta	89.995295
_cell_angle_gamma	83.231353
loop_
_atom_site_label
_atom_site_type_symbol
_atom_site_fract_x
_atom_site_fract_y
_atom_site_fract_z
O1	O	1.195535	0.074351	-0.083370
O2	O	0.932976	0.083209	-0.083388
O3	O	1.072197	-0.004119	-0.083358
O4	O	1.056315	0.161679	-0.083400
O5	O	1.072177	-0.004121	0.083489
O6	O	0.932956	0.083207	0.083459
O7	O	1.195515	0.074349	0.083477
Cu8	Cu	1.064234	0.078778	0.098703
Cu9	Cu	1.064258	0.078780	-0.098613
O10	O	1.056295	0.161677	0.083447
C11	C	0.899382	0.082807	0.000034
C12	C	0.799312	0.081605	0.000028
C13	C	0.376195	0.076520	-0.090902
C14	C	0.376194	0.076518	0.091001
C15	C	0.470216	0.077647	0.090998
C16	C	0.517231	0.078214	0.000043
C17	C	0.470225	0.077651	-0.090908
C18	C	0.517228	0.078216	0.181948
C19	C	0.611255	0.079346	0.181948
C20	C	0.658272	0.079908	0.090992
C21	C	0.611261	0.079345	0.000037
C22	C	0.658276	0.079911	-0.090918
C23	C	0.611266	0.079343	-0.181874
C24	C	0.517242	0.078213	-0.181864
C25	C	0.752297	0.081038	0.090982
C26	C	0.752305	0.081042	-0.090924
C27	C	1.071789	-0.025338	0.000069
C28	C	1.070595	-0.088562	0.000078
C29	C	1.063108	-0.480605	-0.090925
C30	C	1.061972	-0.540009	-0.090931
O31	O	1.061364	-0.570727	-0.168279
N32	N	1.061398	-0.569724	0.000017
C33	C	1.061951	-0.540031	0.090975
O34	O	1.061357	-0.570760	0.168332
C35	C	1.063080	-0.480627	0.090980
C36	C	1.063663	-0.450916	0.000027
C37	C	1.063690	-0.450894	-0.181870
C38	C	1.064827	-0.391494	-0.181864
C39	C	1.065382	-0.361805	-0.090912
C40	C	1.064800	-0.391516	0.000033
C41	C	1.063625	-0.450934	0.181938
C42	C	1.064754	-0.391526	0.181935
C43	C	1.065337	-0.361815	0.090982
C44	C	1.066492	-0.302426	0.090991
N45	N	1.067066	-0.272712	0.000044
C46	C	1.066511	-0.302401	-0.090908
C47	C	1.059578	-0.664782	0.090958
C48	C	1.058456	-0.724186	0.090955
C49	C	1.058476	-0.724160	-0.090952
C50	C	1.059605	-0.664756	-0.090947
C51	C	1.060152	-0.635068	0.000011
C52	C	1.068899	-0.177656	-0.090888
C53	C	1.070040	-0.118251	-0.090874
C54	C	1.070015	-0.118281	0.091032
C55	C	1.068879	-0.177682	0.091018
C56	C	1.068318	-0.207367	0.000050
O57	O	1.067097	-0.271670	0.168300
O58	O	1.067092	-0.271663	-0.168252
C59	C	1.229109	0.074751	0.000053
C60	C	1.329180	0.075954	0.000053
C61	C	1.056702	0.182897	0.000018
C62	C	1.057896	0.246120	0.000002
N63	N	1.064224	0.078776	0.237484
N64	N	1.064275	0.078778	-0.237395
C65	C	1.002608	0.117434	0.710094
C66	C	1.125931	0.040122	0.710088
C67	C	1.125921	0.040120	0.605070
C68	C	1.064254	0.078777	0.552559
C69	C	1.002598	0.117435	0.605066
C70	C	1.187582	0.001467	0.552555
C71	C	1.187575	0.001464	0.447531
C72	C	1.125904	0.040118	0.395017
C73	C	1.064244	0.078777	0.447531
C74	C	1.002577	0.117433	0.395019
C75	C	0.940913	0.156090	0.447531
C76	C	0.940926	0.156089	0.552552
C77	C	1.125890	0.040120	0.289996
C78	C	1.002567	0.117434	0.289991
H79	H	0.337916	0.076056	-0.164956
H80	H	1.176143	0.008652	0.752847
H81	H	0.790579	0.081501	-0.164991
C82	C	0.887061	0.254621	0.584856
C83	C	0.873148	0.198580	0.610267
H84	H	0.845213	0.280852	0.620485
H85	H	0.947161	0.260873	0.602058
H86	H	0.878227	0.260144	0.514792
H87	H	0.881988	0.193055	0.680331
H88	H	0.813033	0.192325	0.593073
H89	H	0.649522	0.079807	0.256010
C90	C	1.247795	-0.036296	0.300545
C91	C	1.193664	-0.002368	0.232275
H92	H	1.289633	-0.062530	0.264909
H93	H	1.280002	-0.012549	0.341487
H94	H	1.210459	-0.056825	0.341527
H95	H	1.230999	0.018165	0.191298
H96	H	1.161455	-0.026117	0.191316
C97	C	0.983345	-0.591612	-0.196480
C98	C	1.060215	-0.632104	-0.190930
H99	H	0.983718	-0.571456	-0.258208
H100	H	0.930343	-0.610491	-0.192682
H101	H	0.983852	-0.565422	-0.142320
H102	H	1.059705	-0.658297	-0.245086
H103	H	1.113231	-0.613224	-0.194737
H104	H	0.790566	0.081506	0.165037
H105	H	1.070517	-0.094063	-0.164942
C106	C	0.357826	0.027251	0.246059
C107	C	0.324518	0.075897	0.190975
H108	H	0.325922	0.026870	0.307783
H109	H	0.349592	-0.006111	0.208697
H110	H	0.420551	0.028010	0.259068
H111	H	0.261793	0.075137	0.177960
H112	H	0.332743	0.109268	0.228345
H113	H	0.478940	0.077759	0.255998
H114	H	1.068438	-0.201819	-0.164963
C115	C	1.242343	-0.032861	0.713545
C116	C	1.255363	-0.041022	0.610276
H117	H	1.284186	-0.059096	0.749181
H118	H	1.251779	0.005156	0.730738
H119	H	1.182234	-0.039118	0.730755
H120	H	1.315470	-0.034760	0.593065
H121	H	1.245934	-0.079047	0.593076
C122	C	0.846234	0.150690	0.742444
C123	C	0.934827	0.159922	0.767812
H124	H	0.804390	0.176917	0.778083
H125	H	0.837412	0.156226	0.672390
H126	H	0.836816	0.112666	0.759670
H127	H	0.944248	0.197945	0.750579
H128	H	0.943652	0.154390	0.837881
C129	C	0.755405	0.081080	-0.262638
C130	C	0.662952	0.079966	-0.281850
H131	H	0.787315	0.081461	-0.324358
H132	H	0.763618	0.114449	-0.225285
H133	H	0.777986	0.048080	-0.225254
H134	H	0.640370	0.112968	-0.319227
H135	H	0.654734	0.046593	-0.319219
C136	C	1.064718	-0.397453	-0.361665
C137	C	1.065452	-0.358839	-0.281844
H138	H	1.065095	-0.377294	-0.423391
H139	H	1.116855	-0.424923	-0.357880
H140	H	1.011695	-0.416321	-0.357866
H141	H	1.118478	-0.339974	-0.285639
H142	H	1.013310	-0.331358	-0.285631
H143	H	0.890707	0.187567	0.404764
C144	C	0.948706	0.215968	0.257641
C145	C	0.934782	0.159928	0.232273
H146	H	0.906861	0.242201	0.222003
H147	H	0.939882	0.221493	0.327695
H148	H	1.008814	0.222216	0.240413
H149	H	0.874676	0.153678	0.249508
H150	H	0.943598	0.154400	0.162203
C151	C	0.373109	0.076490	-0.262619
C152	C	0.465567	0.077596	-0.281836
H153	H	0.341206	0.076114	-0.324338
H154	H	0.364884	0.043122	-0.225249
H155	H	0.350533	0.109491	-0.225251
H156	H	0.488145	0.044593	-0.319197
H157	H	0.473797	0.110968	-0.319222
H158	H	1.065186	-0.367355	0.256006
C159	C	1.139946	-0.524021	-0.287409
C160	C	1.063085	-0.483524	-0.281855
H161	H	1.139573	-0.544165	-0.349138
H162	H	1.192954	-0.505149	-0.283612
H163	H	1.139429	-0.550222	-0.233250
H164	H	1.063605	-0.457320	-0.336010
H165	H	1.010064	-0.502397	-0.285661
H166	H	1.058021	-0.748344	-0.165010
C167	C	1.059454	-0.670785	0.270766
C168	C	1.060194	-0.632152	0.190949
H169	H	1.059837	-0.650642	0.332494
H170	H	1.006437	-0.689648	0.266972
H171	H	1.111597	-0.698259	0.266969
H172	H	1.008047	-0.604680	0.194742
H173	H	1.113216	-0.613280	0.194745
H174	H	1.237785	-0.030013	0.404782
H175	H	1.057995	-0.748372	0.165018
C176	C	0.985710	-0.462854	0.336955
C177	C	1.062964	-0.483572	0.281927
H178	H	0.985296	-0.483002	0.398688
H179	H	0.986476	-0.423229	0.349941
H180	H	0.932964	-0.468289	0.299559
H181	H	1.115711	-0.478132	0.319320
H182	H	1.062207	-0.523206	0.268944
C183	C	1.068972	-0.171737	0.270825
C184	C	1.068243	-0.210344	0.190994
H185	H	1.068567	-0.191898	0.332545
H186	H	1.121996	-0.152878	0.267050
H187	H	1.016837	-0.144256	0.267028
H188	H	1.120381	-0.237822	0.194787
H189	H	1.015213	-0.229211	0.194771
H190	H	1.070471	-0.094098	0.165083
