data_functionalizedCrystal
_audit_creation_method	'MofGen! by Chris Wilmer'
_symmetry_space_group_name_H-M	'P1'
_symmetry_Int_Tables_number	1
_symmetry_cell_setting	triclinic
loop_
_symmetry_equiv_pos_as_xyz
  x,y,z
_cell_length_a	11.169416
_cell_length_b	12.759401
_cell_length_c	12.759393
_cell_angle_alpha	89.979062
_cell_angle_beta	89.972430
_cell_angle_gamma	90.011865
loop_
_atom_site_label
_atom_site_type_symbol
_atom_site_fract_x
_atom_site_fract_y
_atom_site_fract_z
Zn1	Zn	-0.477700	1.606298	-0.594041
Zn2	Zn	0.022300	2.106298	-0.094041
Zn3	Zn	-0.678429	1.606203	-0.418371
Zn4	Zn	-0.178429	2.106203	0.081629
Zn5	Zn	-0.477764	1.430597	-0.418377
Zn6	Zn	0.022236	1.930597	0.081623
Zn7	Zn	-0.678345	1.430602	-0.594008
Zn8	Zn	-0.178345	1.930602	-0.094008
O9	O	-0.578060	1.518425	-0.506199
O10	O	-0.078060	2.018425	-0.006199
O11	O	-0.504336	1.753307	-0.570750
O12	O	-0.004336	2.253307	-0.070750
O13	O	-0.651872	1.582866	-0.271350
O14	O	-0.151872	2.082866	0.228650
O15	O	-0.309806	1.453942	-0.441696
O16	O	0.190194	1.953942	0.058304
O17	O	-0.651810	1.753236	-0.441685
O18	O	-0.151810	2.253236	0.058315
O19	O	-0.309759	1.583029	-0.570756
O20	O	0.190241	2.083029	-0.070756
O21	O	-0.504445	1.453849	-0.271355
O22	O	-0.004445	1.953849	0.228645
O23	O	-0.504363	1.283577	-0.441663
O24	O	-0.004363	1.783577	0.058337
O25	O	-0.651667	1.453951	-0.741033
O26	O	-0.151667	1.953951	-0.241033
O27	O	-0.651729	1.283580	-0.570698
O28	O	-0.151729	1.783580	-0.070698
O29	O	-0.504254	1.583034	-0.741058
O30	O	-0.004254	2.083034	-0.241058
O31	O	-0.846368	1.582871	-0.441653
O32	O	-0.346368	2.082871	0.058347
O33	O	-0.846306	1.453858	-0.570692
O34	O	-0.346306	1.953858	-0.070692
C35	C	-0.578045	1.245458	-0.506178
C36	C	-0.078045	1.745458	-0.006178
C37	C	-0.578068	1.128681	-0.506194
C38	C	-0.078068	1.628681	-0.006194
C39	C	-0.654918	1.073849	-0.573277
C40	C	-0.154918	1.573849	-0.073277
C41	C	-0.654923	0.964125	-0.573298
C42	C	-0.154923	1.464125	-0.073298
C43	C	-0.501223	0.964075	-0.439144
C44	C	-0.001223	1.464075	0.060856
C45	C	-0.501213	1.073797	-0.439129
C46	C	-0.001213	1.573797	0.060871
C47	C	-0.889884	1.518383	-0.506191
C48	C	-0.389884	2.018383	-0.006191
C49	C	-1.023284	1.518462	-0.506223
C50	C	-0.523284	2.018462	-0.006223
C51	C	-0.265017	1.518495	-0.506230
C52	C	0.234983	2.018495	-0.006230
C53	C	-0.131617	1.518525	-0.506243
C54	C	0.368383	2.018525	-0.006243
C55	C	-0.577944	1.518504	-0.780233
C56	C	-0.077944	2.018504	-0.280233
C57	C	-0.577895	1.518537	-0.897009
C58	C	-0.077895	2.018537	-0.397009
C59	C	-0.578075	1.792458	-0.506221
C60	C	-0.078075	2.292458	-0.006221
C61	C	-0.578082	1.909235	-0.506230
C62	C	-0.078082	2.409235	-0.006230
C63	C	-0.501125	1.585756	-0.951886
C64	C	-0.001125	2.085756	-0.451886
C65	C	-0.501073	1.585773	-1.061610
C66	C	-0.001073	2.085773	-0.561610
C67	C	-0.654573	1.451351	-1.061571
C68	C	-0.154573	1.951351	-0.561571
C69	C	-0.654617	1.451329	-0.951849
C70	C	-0.154617	1.951329	-0.451849
C71	C	-0.578088	1.518407	-0.233232
C72	C	-0.078088	2.018407	0.266768
C73	C	-0.577799	1.518577	-0.116456
C74	C	-0.077799	2.018577	0.383544
H75	H	-0.717495	1.118532	-0.627889
H76	H	-0.217495	1.618532	-0.127889
H77	H	-0.717132	1.396584	-0.907168
H78	H	-0.217132	1.896584	-0.407168
H79	H	-0.438625	1.118443	-0.384502
H80	H	0.061375	1.618443	0.115498
H81	H	-0.438650	1.640478	-0.907238
H82	H	0.061350	2.140478	-0.407238
C83	C	-0.739475	0.903814	-0.647085
C84	C	-0.239475	1.403814	-0.147085
N85	N	-0.803167	0.858388	-0.702662
N86	N	-0.303167	1.358388	-0.202662
C87	C	-0.738960	1.377424	-1.121906
C88	C	-0.238960	1.877424	-0.621906
N89	N	-0.802522	1.321740	-1.167348
N90	N	-0.302522	1.821740	-0.667348
H91	H	-0.438653	0.919375	-0.384540
H92	H	0.061347	1.419375	0.115460
C93	C	-0.416623	1.659722	-1.121969
C94	C	0.083377	2.159722	-0.621969
N95	N	-0.353011	1.715423	-1.167431
N96	N	0.146989	2.215423	-0.667431
