data_functionalizedCrystal
_audit_creation_method	'MofGen! by Chris Wilmer'
_symmetry_space_group_name_H-M	'P1'
_symmetry_Int_Tables_number	1
_symmetry_cell_setting	triclinic
loop_
_symmetry_equiv_pos_as_xyz
  x,y,z
_cell_length_a	18.050589
_cell_length_b	13.897449
_cell_length_c	13.897441
_cell_angle_alpha	90.023932
_cell_angle_beta	89.973098
_cell_angle_gamma	89.971851
loop_
_atom_site_label
_atom_site_type_symbol
_atom_site_fract_x
_atom_site_fract_y
_atom_site_fract_z
Zn1	Zn	-0.295644	-1.474612	-0.545537
Zn2	Zn	-0.045644	-1.224612	-0.295537
Zn3	Zn	0.204356	-0.974612	-0.045537
Zn4	Zn	0.454356	-0.724612	0.204463
Zn5	Zn	-0.419846	-1.474482	-0.384246
Zn6	Zn	-0.169846	-1.224482	-0.134246
Zn7	Zn	0.080154	-0.974482	0.115754
Zn8	Zn	0.330154	-0.724482	0.365754
Zn9	Zn	-0.295675	-1.313307	-0.384240
Zn10	Zn	-0.045675	-1.063307	-0.134240
Zn11	Zn	0.204325	-0.813307	0.115760
Zn12	Zn	0.454325	-0.563307	0.365760
Zn13	Zn	-0.419797	-1.313253	-0.545483
Zn14	Zn	-0.169797	-1.063253	-0.295483
Zn15	Zn	0.080203	-0.813253	-0.045483
Zn16	Zn	0.330203	-0.563253	0.204517
O17	O	-0.357741	-1.393913	-0.464876
O18	O	-0.107741	-1.143913	-0.214876
O19	O	0.142259	-0.893913	0.035124
O20	O	0.392259	-0.643913	0.285124
O21	O	-0.312128	-1.609576	-0.524166
O22	O	-0.062128	-1.359576	-0.274166
O23	O	0.187872	-1.109576	-0.024166
O24	O	0.437872	-0.859576	0.225834
O25	O	-0.403408	-1.453070	-0.249263
O26	O	-0.153408	-1.203070	0.000737
O27	O	0.096592	-0.953070	0.250737
O28	O	0.346592	-0.703070	0.500737
O29	O	-0.191746	-1.334781	-0.405656
O30	O	0.058254	-1.084781	-0.155656
O31	O	0.308254	-0.834781	0.094344
O32	O	0.558254	-0.584781	0.344344
O33	O	-0.403379	-1.609481	-0.405666
O34	O	-0.153379	-1.359481	-0.155666
O35	O	0.096621	-1.109481	0.094334
O36	O	0.346621	-0.859481	0.344334
O37	O	-0.191724	-1.453291	-0.524160
O38	O	0.058276	-1.203291	-0.274160
O39	O	0.308276	-0.953291	-0.024160
O40	O	0.558276	-0.703291	0.225840
O41	O	-0.312180	-1.334655	-0.249259
O42	O	-0.062180	-1.084655	0.000741
O43	O	0.187820	-0.834655	0.250741
O44	O	0.437820	-0.584655	0.500741
O45	O	-0.312132	-1.178318	-0.405605
O46	O	-0.062132	-0.928318	-0.155605
O47	O	0.187868	-0.678318	0.094395
O48	O	0.437868	-0.428318	0.344395
O49	O	-0.403294	-1.334689	-0.680472
O50	O	-0.153294	-1.084689	-0.430472
O51	O	0.096706	-0.834689	-0.180472
O52	O	0.346706	-0.584689	0.069528
O53	O	-0.403324	-1.178279	-0.524069
O54	O	-0.153324	-0.928279	-0.274069
O55	O	0.096676	-0.678279	-0.024069
O56	O	0.346676	-0.428279	0.225931
O57	O	-0.312080	-1.453239	-0.680511
O58	O	-0.062080	-1.203239	-0.430511
O59	O	0.187920	-0.953239	-0.180511
O60	O	0.437920	-0.703239	0.069489
O61	O	-0.523764	-1.453018	-0.405614
O62	O	-0.273764	-1.203018	-0.155614
O63	O	-0.023764	-0.953018	0.094386
O64	O	0.226236	-0.703018	0.344386
O65	O	-0.523728	-1.334564	-0.524075
O66	O	-0.273728	-1.084564	-0.274075
O67	O	-0.023728	-0.834564	-0.024075
O68	O	0.226272	-0.584564	0.225925
C69	C	-0.357726	-1.143299	-0.464831
C70	C	-0.107726	-0.893299	-0.214831
C71	C	0.142274	-0.643299	0.035169
C72	C	0.392274	-0.393299	0.285169
C73	C	-0.357738	-1.036085	-0.464835
C74	C	-0.107738	-0.786085	-0.214835
C75	C	0.142262	-0.536085	0.035165
C76	C	0.392262	-0.286085	0.285165
C77	C	-0.550693	-1.393797	-0.464860
C78	C	-0.300693	-1.143797	-0.214860
C79	C	-0.050693	-0.893797	0.035140
C80	C	0.199307	-0.643797	0.285140
C81	C	-0.633238	-1.393835	-0.464886
C82	C	-0.383238	-1.143835	-0.214886
C83	C	-0.133238	-0.893835	0.035114
C84	C	0.116762	-0.643835	0.285114
C85	C	-0.357739	-0.949015	-0.464847
C86	C	-0.107739	-0.699015	-0.214847
C87	C	0.142261	-0.449015	0.035153
C88	C	0.392261	-0.199015	0.285153
C89	C	-0.357743	-0.839783	-0.464871
C90	C	-0.107743	-0.589783	-0.214871
C91	C	0.142257	-0.339783	0.035129
C92	C	0.392257	-0.089783	0.285129
C93	C	-0.832696	-1.329483	-0.529282
C94	C	-0.582696	-1.079483	-0.279282
C95	C	-0.332696	-0.829483	-0.029282
C96	C	-0.082696	-0.579483	0.220718
C97	C	-0.882140	-1.305970	-0.441261
C98	C	-0.632140	-1.055970	-0.191261
C99	C	-0.382140	-0.805970	0.058739
C100	C	-0.132140	-0.555970	0.308739
C101	C	-0.784369	-1.393930	-0.464898
C102	C	-0.534369	-1.143930	-0.214898
C103	C	-0.284369	-0.893930	0.035102
C104	C	-0.034369	-0.643930	0.285102
C105	C	-0.882006	-1.417491	-0.552929
C106	C	-0.632006	-1.167491	-0.302929
C107	C	-0.382006	-0.917491	-0.052929
C108	C	-0.132006	-0.667491	0.197071
C109	C	-0.930354	-1.394020	-0.464918
C110	C	-0.680354	-1.144020	-0.214918
C111	C	-0.430354	-0.894020	0.035082
C112	C	-0.180354	-0.644020	0.285082
C113	C	-0.832726	-1.370370	-0.376831
C114	C	-0.582726	-1.120370	-0.126831
C115	C	-0.332726	-0.870370	0.123169
C116	C	-0.082726	-0.620370	0.373169
C117	C	-0.832587	-1.481933	-0.488558
C118	C	-0.582587	-1.231933	-0.238558
C119	C	-0.332587	-0.981933	0.011442
C120	C	-0.082587	-0.731933	0.261442
C121	C	-0.882009	-1.458453	-0.400477
C122	C	-0.632009	-1.208453	-0.150477
C123	C	-0.382009	-0.958453	0.099523
C124	C	-0.132009	-0.708453	0.349523
C125	C	-0.700271	-1.393876	-0.464888
C126	C	-0.450271	-1.143876	-0.214888
C127	C	-0.200271	-0.893876	0.035112
C128	C	0.049729	-0.643876	0.285112
C129	C	-1.014450	-1.394074	-0.464919
C130	C	-0.764450	-1.144074	-0.214919
C131	C	-0.514450	-0.894074	0.035081
C132	C	-0.264450	-0.644074	0.285081
C133	C	-0.164035	-1.394057	-0.464914
C134	C	0.085965	-1.144057	-0.214914
C135	C	0.335965	-0.894057	0.035086
C136	C	0.585965	-0.644057	0.285086
C137	C	-0.081489	-1.394118	-0.464930
C138	C	0.168511	-1.144118	-0.214930
C139	C	0.418511	-0.894118	0.035070
C140	C	0.668511	-0.644118	0.285070
C141	C	-0.357678	-1.393973	-0.716470
C142	C	-0.107678	-1.143973	-0.466470
C143	C	0.142322	-0.893973	-0.216470
C144	C	0.392322	-0.643973	0.033530
C145	C	-0.357652	-1.393998	-0.823684
C146	C	-0.107652	-1.143998	-0.573684
C147	C	0.142348	-0.893998	-0.323684
C148	C	0.392348	-0.643998	-0.073684
C149	C	-0.357753	-0.645506	-0.464911
C150	C	-0.107753	-0.395506	-0.214911
C151	C	0.142247	-0.145506	0.035089
C152	C	0.392247	0.104494	0.285089
C153	C	-0.357750	-0.752720	-0.464896
C154	C	-0.107750	-0.502720	-0.214896
C155	C	0.142250	-0.252720	0.035104
C156	C	0.392250	-0.002720	0.285104
C157	C	-0.357631	-1.394017	-0.910753
C158	C	-0.107631	-1.144017	-0.660753
C159	C	0.142369	-0.894017	-0.410753
C160	C	0.392369	-0.644017	-0.160753
C161	C	-0.357597	-1.394045	-1.019986
C162	C	-0.107597	-1.144045	-0.769986
C163	C	0.142403	-0.894045	-0.519986
C164	C	0.392403	-0.644045	-0.269986
C165	C	-0.357749	-1.393910	-0.214262
C166	C	-0.107749	-1.143910	0.035738
C167	C	0.142251	-0.893910	0.285738
C168	C	0.392251	-0.643910	0.535738
C169	C	-0.357566	-1.394072	-0.107049
C170	C	-0.107566	-1.144072	0.142951
C171	C	0.142434	-0.894072	0.392951
C172	C	0.392434	-0.644072	0.642951
H173	H	-0.903923	-1.231591	-0.421268
H174	H	-0.653923	-0.981591	-0.171268
H175	H	-0.403923	-0.731591	0.078732
H176	H	-0.153923	-0.481591	0.328732
C177	C	-0.803609	-1.343371	-0.276246
C178	C	-0.553609	-1.093371	-0.026246
C179	C	-0.303609	-0.843371	0.223754
C180	C	-0.053609	-0.593371	0.473754
H181	H	-0.750980	-1.343469	-0.276862
H182	H	-0.500980	-1.093469	-0.026862
H183	H	-0.250980	-0.843469	0.223138
H184	H	-0.000980	-0.593469	0.473138
H185	H	-0.820887	-1.388892	-0.230479
H186	H	-0.570887	-1.138892	0.019521
H187	H	-0.320887	-0.888892	0.269521
H188	H	-0.070887	-0.638892	0.519521
H189	H	-0.820990	-1.281078	-0.259353
H190	H	-0.570990	-1.031078	-0.009353
H191	H	-0.320990	-0.781078	0.240647
H192	H	-0.070990	-0.531078	0.490647
H193	H	-0.903525	-1.512992	-0.345975
H194	H	-0.653525	-1.262992	-0.095975
H195	H	-0.403525	-1.012992	0.154025
H196	H	-0.153525	-0.762992	0.404025
C197	C	-0.803156	-1.582387	-0.515618
C198	C	-0.553156	-1.332387	-0.265618
C199	C	-0.303156	-1.082387	-0.015618
C200	C	-0.053156	-0.832387	0.234382
H201	H	-0.774211	-1.607082	-0.464160
H202	H	-0.524211	-1.357082	-0.214160
H203	H	-0.274211	-1.107082	0.035840
H204	H	-0.024211	-0.857082	0.285840
H205	H	-0.773430	-1.577736	-0.571845
H206	H	-0.523430	-1.327736	-0.321845
H207	H	-0.273430	-1.077736	-0.071845
H208	H	-0.023430	-0.827736	0.178155
H209	H	-0.843675	-1.624325	-0.527535
H210	H	-0.593675	-1.374325	-0.277535
H211	H	-0.343675	-1.124325	-0.027535
H212	H	-0.093675	-0.874325	0.222465
C213	C	-0.803437	-1.255755	-0.602728
C214	C	-0.553437	-1.005755	-0.352728
C215	C	-0.303437	-0.755755	-0.102728
C216	C	-0.053437	-0.505755	0.147272
H217	H	-0.820407	-1.193289	-0.585763
H218	H	-0.570407	-0.943289	-0.335763
H219	H	-0.320407	-0.693289	-0.085763
H220	H	-0.070407	-0.443289	0.164237
H221	H	-0.821034	-1.271847	-0.665098
H222	H	-0.571034	-1.021847	-0.415098
H223	H	-0.321034	-0.771847	-0.165098
H224	H	-0.071034	-0.521847	0.084902
H225	H	-0.750811	-1.256634	-0.602617
H226	H	-0.500811	-1.006634	-0.352617
H227	H	-0.250811	-0.756634	-0.102617
H228	H	-0.000811	-0.506634	0.147383
C229	C	-0.911249	-1.444370	-0.653486
C230	C	-0.661249	-1.194370	-0.403486
C231	C	-0.411249	-0.944370	-0.153486
C232	C	-0.161249	-0.694370	0.096514
H233	H	-0.894355	-1.398484	-0.699141
H234	H	-0.644355	-1.148484	-0.449141
H235	H	-0.394355	-0.898484	-0.199141
H236	H	-0.144355	-0.648484	0.050859
H237	H	-0.963870	-1.444787	-0.652634
H238	H	-0.713870	-1.194787	-0.402634
H239	H	-0.463870	-0.944787	-0.152634
H240	H	-0.213870	-0.694787	0.097366
H241	H	-0.893545	-1.506414	-0.670727
H242	H	-0.643545	-1.256414	-0.420727
H243	H	-0.393545	-1.006414	-0.170727
H244	H	-0.143545	-0.756414	0.079273
