data_functionalizedCrystal
_audit_creation_method	'MofGen! by Chris Wilmer'
_symmetry_space_group_name_H-M	'P1'
_symmetry_Int_Tables_number	1
_symmetry_cell_setting	triclinic
loop_
_symmetry_equiv_pos_as_xyz
  x,y,z
_cell_length_a	10.654556
_cell_length_b	14.044220
_cell_length_c	9.730223
_cell_angle_alpha	89.997406
_cell_angle_beta	89.999363
_cell_angle_gamma	88.838143
loop_
_atom_site_label
_atom_site_type_symbol
_atom_site_fract_x
_atom_site_fract_y
_atom_site_fract_z
O1	O	1.681220	0.133255	-0.114308
O2	O	1.317018	0.145943	-0.114308
O3	O	1.493652	0.001578	-0.114295
O4	O	1.504586	0.277620	-0.114322
O5	O	1.493651	0.001582	0.114285
O6	O	1.317016	0.145946	0.114272
O7	O	1.681218	0.133259	0.114272
Zn8	Zn	1.499117	0.139603	0.150564
Zn9	Zn	1.499119	0.139598	-0.150600
O10	O	1.504584	0.277623	0.114258
C11	C	1.270125	0.145012	-0.000018
C12	C	1.130402	0.142221	-0.000018
C13	C	0.933478	0.138292	-0.124628
C14	C	1.064763	0.140908	-0.124622
C15	C	1.064749	0.140907	0.124589
C16	C	0.933467	0.138283	0.124581
C17	C	0.933487	0.138297	-0.268508
C18	C	1.064772	0.140913	-0.268502
C19	C	1.488866	-0.033766	-0.000004
C20	C	1.474590	-0.139086	-0.000003
C21	C	1.448491	-0.331919	-0.000022
C22	C	1.549739	-0.388885	-0.000026
C23	C	1.535218	-0.496184	-0.000037
C24	C	1.463011	-0.224610	-0.000011
C25	C	1.728111	0.134190	-0.000021
C26	C	1.867834	0.136981	-0.000031
C27	C	1.509371	0.312967	-0.000036
C28	C	1.523646	0.418287	-0.000046
N29	N	1.499124	0.139606	0.356100
N30	N	1.499121	0.139588	-0.356137
C31	C	1.577362	0.075703	0.428032
C32	C	1.577358	0.075692	0.571915
C33	C	1.420874	0.203494	0.571921
C34	C	1.420873	0.203500	0.428041
C35	C	1.667711	0.001920	0.428030
C36	C	1.667706	0.001909	0.571913
H37	H	0.880026	0.137197	0.226040
H38	H	0.888571	0.205852	-0.313158
H39	H	1.357154	0.255526	0.369475
H40	H	1.350912	-0.363731	-0.000026
Cl41	Cl	1.623293	-0.110643	0.367733
H42	H	1.096337	0.207894	-0.323737
H43	H	1.357163	0.255514	0.630511
Cl44	Cl	1.812067	0.037604	0.359115
H45	H	1.647326	-0.357071	-0.000119
Cl46	Cl	1.819230	0.026995	0.632212
Cl47	Cl	1.147267	0.142546	0.281235
Cl48	Cl	1.609898	-0.104459	0.640818
Cl49	Cl	1.134133	0.036613	-0.337421
H50	H	0.901933	0.071321	-0.323749
