data_functionalizedCrystal
_audit_creation_method	'MofGen! by Chris Wilmer'
_symmetry_space_group_name_H-M	'P1'
_symmetry_Int_Tables_number	1
_symmetry_cell_setting	triclinic
loop_
_symmetry_equiv_pos_as_xyz
  x,y,z
_cell_length_a	6.817900
_cell_length_b	12.200863
_cell_length_c	14.125465
_cell_angle_alpha	94.991681
_cell_angle_beta	100.398878
_cell_angle_gamma	107.143441
loop_
_atom_site_label
_atom_site_type_symbol
_atom_site_fract_x
_atom_site_fract_y
_atom_site_fract_z
V1	V	-4.009714	-0.157727	-0.300074
V2	V	-3.676380	0.175607	0.033260
V3	V	-3.343047	0.508940	0.366593
O4	O	-3.978506	0.008593	-0.294261
O5	O	-3.645173	0.341927	0.039073
O6	O	-3.311839	0.675260	0.372406
O7	O	-3.979665	-0.313721	-0.298118
O8	O	-3.646331	0.019613	0.035215
O9	O	-3.312998	0.352946	0.368549
O10	O	-3.945521	-0.154856	-0.430902
O11	O	-3.612188	0.178478	-0.097569
O12	O	-3.278854	0.511811	0.235765
O13	O	-4.012886	-0.151372	-0.160558
O14	O	-3.679553	0.181962	0.172776
O15	O	-3.346219	0.515295	0.506109
V16	V	-4.493010	-0.137885	-0.283375
V17	V	-4.159677	0.195448	0.049959
V18	V	-3.826343	0.528781	0.383292
O19	O	-4.271469	-0.201250	-0.336704
O20	O	-3.938136	0.132083	-0.003371
O21	O	-3.604802	0.465417	0.329963
O22	O	-4.681452	-0.094362	-0.246744
O23	O	-4.348119	0.238971	0.086589
O24	O	-4.014785	0.572305	0.419923
O25	O	-4.299853	0.018109	-0.285330
O26	O	-3.966519	0.351442	0.048003
O27	O	-3.633186	0.684775	0.381337
O28	O	-4.641615	-0.304206	-0.289187
O29	O	-4.308282	0.029128	0.044146
O30	O	-3.974948	0.362461	0.377479
O31	O	-4.607235	-0.144241	-0.422890
O32	O	-4.273901	0.189093	-0.089557
O33	O	-3.940568	0.522426	0.243776
O34	O	-4.333996	-0.140757	-0.152546
O35	O	-4.000663	0.192577	0.180787
O36	O	-3.667330	0.525910	0.514120
C37	C	-3.829641	-0.351763	-0.293409
C38	C	-3.496307	-0.018429	0.039924
C39	C	-3.162974	0.314904	0.373257
C40	C	-3.886254	-0.479287	-0.292682
C41	C	-3.552920	-0.145954	0.040651
C42	C	-3.219587	0.187380	0.373984
C43	C	-3.786086	-0.149113	-0.462787
C44	C	-3.452753	0.184220	-0.129454
C45	C	-3.119419	0.517554	0.203880
C46	C	-3.815006	-0.147798	-0.569740
C47	C	-3.481673	0.185536	-0.236407
C48	C	-3.148340	0.518869	0.096926
C49	C	-3.989866	-0.712768	-0.291359
C50	C	-3.656533	-0.379435	0.041974
C51	C	-3.323199	-0.046102	0.375307
C52	C	-3.932201	-0.582843	-0.292096
C53	C	-3.598867	-0.249509	0.041238
C54	C	-3.265534	0.083824	0.374571
C55	C	-3.868015	-0.145386	-0.765562
C56	C	-3.534682	0.187948	-0.432229
C57	C	-3.201349	0.521281	-0.098895
C58	C	-4.054077	-0.150224	-0.817886
C59	C	-3.720744	0.183109	-0.484553
C60	C	-3.387410	0.516443	-0.151220
C61	C	-4.083574	-0.148882	-0.926848
C62	C	-3.750241	0.184451	-0.593515
C63	C	-3.416907	0.517785	-0.260181
C64	C	-3.838511	-0.146728	-0.656590
C65	C	-3.505177	0.186606	-0.323257
C66	C	-3.171844	0.519939	0.010077
C67	C	-4.113220	0.056144	-0.290036
C68	C	-3.779886	0.389478	0.043297
C69	C	-3.446553	0.722811	0.376630
C70	C	-4.035844	0.183668	-0.290769
C71	C	-3.702511	0.517001	0.042564
C72	C	-3.369177	0.850334	0.375897
C73	C	-4.156774	-0.146503	-0.120656
C74	C	-3.823441	0.186830	0.212677
C75	C	-3.490108	0.520164	0.546011
C76	C	-4.107092	-0.147812	-0.013702
C77	C	-3.773759	0.185521	0.319632
C78	C	-3.440425	0.518854	0.652965
H79	H	-4.191223	-0.155386	-0.780851
H80	H	-3.857889	0.177947	-0.447518
H81	H	-3.524556	0.511281	-0.114184
H82	H	-3.730887	-0.140237	-0.802597
H83	H	-3.397554	0.193096	-0.469263
H84	H	-3.064221	0.526429	-0.135930
