data_functionalizedCrystal
_audit_creation_method	'MofGen! by Chris Wilmer'
_symmetry_space_group_name_H-M	'P1'
_symmetry_Int_Tables_number	1
_symmetry_cell_setting	triclinic
loop_
_symmetry_equiv_pos_as_xyz
  x,y,z
_cell_length_a	10.540539
_cell_length_b	15.944551
_cell_length_c	9.016244
_cell_angle_alpha	89.996810
_cell_angle_beta	89.994699
_cell_angle_gamma	84.012115
loop_
_atom_site_label
_atom_site_type_symbol
_atom_site_fract_x
_atom_site_fract_y
_atom_site_fract_z
O1	O	1.684281	0.118370	-0.123274
O2	O	1.314716	0.129523	-0.123293
O3	O	1.509591	0.001731	-0.123269
O4	O	1.489407	0.246161	-0.123297
O5	O	1.509562	0.001734	0.123411
O6	O	1.314688	0.129525	0.123388
O7	O	1.684253	0.118372	0.123407
Cu8	Cu	1.499468	0.123949	0.145921
Cu9	Cu	1.499502	0.123946	-0.145807
O10	O	1.489378	0.246164	0.123384
C11	C	1.267411	0.128688	0.000046
C12	C	1.126497	0.126185	0.000039
C13	C	1.508739	-0.029566	0.000071
C14	C	1.506227	-0.122827	0.000072
C15	C	0.944375	0.030298	0.000626
C16	C	1.090959	0.032835	0.000054
C17	C	1.064229	0.171108	-0.140828
C18	C	0.917728	0.167922	-0.140930
C19	C	0.917181	0.169824	0.139592
C20	C	1.064151	0.170684	0.141438
C21	C	1.379430	-0.338440	0.000045
C22	C	1.438296	-0.399105	0.121677
C23	C	1.501682	-0.293580	0.000060
C24	C	1.438353	-0.399091	-0.121531
C25	C	1.497283	-0.458519	0.000043
C26	C	1.560582	-0.353017	0.121792
C27	C	1.560622	-0.352996	-0.121525
C28	C	1.619577	-0.413643	0.000136
C29	C	1.504213	-0.198563	0.000072
C30	C	1.494762	-0.553535	0.000042
C31	C	1.731559	0.119207	0.000065
C32	C	1.872473	0.121710	0.000062
C33	C	1.490231	0.277461	0.000040
C34	C	1.492743	0.370722	0.000029
N35	N	1.499453	0.123951	0.351108
N36	N	1.499526	0.123937	-0.350993
C37	C	1.394894	0.192082	0.586128
C38	C	1.395120	0.192337	0.414237
C39	C	1.631905	0.143889	0.413450
C40	C	1.631333	0.144372	0.585395
C41	C	1.472882	0.035659	0.585659
C42	C	1.469829	0.036231	0.413705
H43	H	0.916281	-0.006580	0.101649
N44	N	1.373461	-0.424680	-0.250512
N45	N	1.259373	-0.397587	-0.272154
H46	H	1.213533	-0.415657	-0.363239
H47	H	1.107254	0.139899	-0.245656
H48	H	0.889981	0.134718	-0.246221
N49	N	1.373416	-0.424739	0.250651
N50	N	1.361942	-0.501056	0.271819
H51	H	1.316114	-0.519160	0.362902
N52	N	1.354319	0.011881	0.640085
N53	N	1.252851	0.057252	0.613694
H54	H	1.169106	0.040468	0.652124
N55	N	1.625382	-0.327545	0.250924
N56	N	1.637725	-0.251322	0.271797
H57	H	1.683486	-0.233329	0.362997
N58	N	1.116023	0.129488	0.272176
N59	N	1.044330	0.097092	0.361132
H60	H	1.080964	0.067986	0.453459
N61	N	1.746972	-0.454504	0.000208
N62	N	1.784505	-0.502354	-0.104237
H63	H	1.874476	-0.531216	-0.104182
H64	H	0.914680	-0.006426	-0.099827
N65	N	1.093387	0.256062	0.152089
N66	N	1.160943	0.285637	0.055201
H67	H	1.181591	0.345939	0.062712
N68	N	1.271434	0.177696	0.361378
N69	N	1.184346	0.167207	0.451478
H70	H	1.096920	0.157023	0.414156
H71	H	1.412128	0.257831	0.373084
H72	H	1.549184	-0.015061	0.626321
N73	N	1.660763	0.225176	0.635661
N74	N	1.590555	0.290123	0.600189
H75	H	1.611336	0.347195	0.635679
N76	N	1.625442	-0.327364	-0.250533
N77	N	1.583790	-0.341890	-0.376733
H78	H	1.629561	-0.323786	-0.467858
N79	N	1.143942	-0.011824	-0.126838
N80	N	1.072645	-0.044959	-0.215258
H81	H	1.110062	-0.076499	-0.304884
N82	N	1.271001	0.177285	0.638105
N83	N	1.206505	0.232334	0.712868
H84	H	1.119005	0.221885	0.749598
N85	N	0.856781	0.254408	0.140761
N86	N	0.781120	0.279245	0.039389
H87	H	0.738456	0.338980	0.040203
H88	H	0.886034	0.139615	0.246368
N89	N	1.145033	-0.011506	0.126721
N90	N	1.206027	0.026042	0.220192
H91	H	1.244212	-0.005278	0.309653
N92	N	1.415950	0.273775	0.640315
N93	N	1.507681	0.282028	0.725041
H94	H	1.522557	0.339723	0.763314
N95	N	1.731937	0.084525	0.637559
N96	N	1.802354	0.042539	0.546972
H97	H	1.873410	0.000275	0.583805
N98	N	1.731895	0.083320	0.362148
N99	N	1.706593	0.024644	0.278864
H100	H	1.777209	-0.018135	0.242629
N101	N	1.662045	0.223771	0.359391
N102	N	1.586198	0.266148	0.274969
H103	H	1.607477	0.322567	0.236789
H104	H	1.372396	0.021118	0.372960
N105	N	1.252128	-0.297422	0.000194
N106	N	1.178129	-0.309719	0.104466
H107	H	1.088223	-0.280749	0.104577
N108	N	0.856415	0.252145	-0.148958
N109	N	0.921864	0.313087	-0.154478
H110	H	0.878568	0.372569	-0.160154
N111	N	1.091078	0.257112	-0.147415
N112	N	1.055398	0.306759	-0.044772
H113	H	1.074360	0.367501	-0.049420
H114	H	1.541079	-0.016915	0.370738
