data_functionalizedCrystal
_audit_creation_method	'MofGen! by Chris Wilmer'
_symmetry_space_group_name_H-M	'P1'
_symmetry_Int_Tables_number	1
_symmetry_cell_setting	triclinic
loop_
_symmetry_equiv_pos_as_xyz
  x,y,z
_cell_length_a	16.625548
_cell_length_b	13.897448
_cell_length_c	13.897441
_cell_angle_alpha	89.969401
_cell_angle_beta	90.021870
_cell_angle_gamma	89.981240
loop_
_atom_site_label
_atom_site_type_symbol
_atom_site_fract_x
_atom_site_fract_y
_atom_site_fract_z
Zn1	Zn	1.232718	0.383957	0.545410
Zn2	Zn	1.566051	0.717290	0.878744
Zn3	Zn	1.899384	1.050623	1.212077
Zn4	Zn	1.232629	0.545278	0.384112
Zn5	Zn	1.565962	0.878612	0.717445
Zn6	Zn	1.899296	1.211945	1.050778
Zn7	Zn	1.097876	0.384002	0.384126
Zn8	Zn	1.431210	0.717335	0.717459
Zn9	Zn	1.764543	1.050669	1.050792
Zn10	Zn	1.097861	0.545214	0.545361
Zn11	Zn	1.431194	0.878548	0.878695
Zn12	Zn	1.764528	1.211881	1.212028
O13	O	1.165271	0.464613	0.464752
O14	O	1.498604	0.797946	0.798086
O15	O	1.831938	1.131279	1.131419
O16	O	1.345538	0.405364	0.524029
O17	O	1.678872	0.738697	0.857362
O18	O	2.012205	1.072031	1.190695
O19	O	1.214723	0.523930	0.249132
O20	O	1.548056	0.857264	0.582465
O21	O	1.881390	1.190597	0.915799
O22	O	1.115807	0.249014	0.405547
O23	O	1.449140	0.582348	0.738880
O24	O	1.782473	0.915681	1.072213
O25	O	1.345473	0.523886	0.405523
O26	O	1.678806	0.857220	0.738857
O27	O	2.012140	1.190553	1.072190
O28	O	1.214874	0.248981	0.524042
O29	O	1.548207	0.582314	0.857375
O30	O	1.881541	0.915648	1.190709
O31	O	1.115721	0.405441	0.249142
O32	O	1.449054	0.738775	0.582475
O33	O	1.782388	1.072108	0.915809
O34	O	0.985042	0.405379	0.405499
O35	O	1.318375	0.738713	0.738832
O36	O	1.651709	1.072046	1.072166
O37	O	1.115781	0.523777	0.680349
O38	O	1.449114	0.857111	1.013683
O39	O	1.782447	1.190444	1.347016
O40	O	0.985031	0.523821	0.523958
O41	O	1.318364	0.857155	0.857291
O42	O	1.651697	1.190488	1.190625
O43	O	1.214859	0.405302	0.680386
O44	O	1.548193	0.738635	1.013719
O45	O	1.881526	1.071969	1.347052
O46	O	1.214708	0.680251	0.405476
O47	O	1.548042	1.013585	0.738809
O48	O	1.881375	1.346918	1.072142
O49	O	1.115695	0.680204	0.523945
O50	O	1.449028	1.013538	0.857278
O51	O	1.782361	1.346871	1.190611
C52	C	1.165212	0.715227	0.464724
C53	C	1.498545	1.048561	0.798058
C54	C	1.831879	1.381894	1.131391
C55	C	1.165261	0.822441	0.464745
C56	C	1.498594	1.155774	0.798078
C57	C	1.831927	1.489108	1.131411
C58	C	0.955780	0.464599	0.464725
C59	C	1.289113	0.797932	0.798059
C60	C	1.622447	1.131266	1.131392
C61	C	0.866159	0.464616	0.464737
C62	C	1.199492	0.797950	0.798070
C63	C	1.532826	1.131283	1.131403
C64	C	1.165328	0.464528	0.716345
C65	C	1.498662	0.797861	1.049679
C66	C	1.831995	1.131194	1.383012
C67	C	1.165353	0.464491	0.823559
C68	C	1.498686	0.797825	1.156893
C69	C	1.832019	1.131158	1.490226
C70	C	0.537983	0.464623	0.464778
C71	C	0.871317	0.797956	0.798111
C72	C	1.204650	1.131289	1.131445
C73	C	0.629292	0.464618	0.464763
C74	C	0.962625	0.797952	0.798097
C75	C	1.295959	1.131285	1.131430
C76	C	0.702068	0.464620	0.464757
C77	C	1.035402	0.797953	0.798090
C78	C	1.368735	1.131287	1.131423
C79	C	0.793383	0.464615	0.464743
C80	C	1.126716	0.797948	0.798077
C81	C	1.460049	1.131281	1.131410
C82	C	1.375580	0.464627	0.464780
C83	C	1.708913	0.797961	0.798113
C84	C	2.042247	1.131294	1.131447
C85	C	1.465201	0.464634	0.464792
C86	C	1.798534	0.797967	0.798125
C87	C	2.131868	1.131300	1.131458
C88	C	1.165352	0.213020	0.464801
C89	C	1.498685	0.546353	0.798135
C90	C	1.832019	0.879686	1.131468
C91	C	1.165387	0.105806	0.464822
C92	C	1.498720	0.439139	0.798156
C93	C	1.832053	0.772473	1.131489
C94	C	1.165345	1.018736	0.464805
C95	C	1.498679	1.352069	0.798139
C96	C	1.832012	1.685403	1.131472
C97	C	1.165296	0.909504	0.464774
C98	C	1.498629	1.242837	0.798108
C99	C	1.831963	1.576170	1.131441
C100	C	1.165260	0.464628	0.214138
C101	C	1.498594	0.797961	0.547471
C102	C	1.831927	1.131295	0.880805
C103	C	1.165392	0.464393	0.106925
C104	C	1.498726	0.797726	0.440258
C105	C	1.832059	1.131059	0.773591
C106	C	1.165374	0.464426	1.019855
C107	C	1.498708	0.797759	1.353188
C108	C	1.832041	1.131093	1.686521
C109	C	1.165360	0.464465	0.910622
C110	C	1.498693	0.797798	1.243955
C111	C	1.832026	1.131132	1.577289
