data_functionalizedCrystal
_audit_creation_method	'MofGen! by Chris Wilmer'
_symmetry_space_group_name_H-M	'P1'
_symmetry_Int_Tables_number	1
_symmetry_cell_setting	triclinic
loop_
_symmetry_equiv_pos_as_xyz
  x,y,z
_cell_length_a	18.215407
_cell_length_b	12.759399
_cell_length_c	12.759393
_cell_angle_alpha	90.032031
_cell_angle_beta	89.978212
_cell_angle_gamma	89.984436
loop_
_atom_site_label
_atom_site_type_symbol
_atom_site_fract_x
_atom_site_fract_y
_atom_site_fract_z
Zn1	Zn	1.125136	0.418191	-0.594072
Zn2	Zn	1.625136	0.918191	-0.094072
Zn3	Zn	1.125061	0.593910	-0.418391
Zn4	Zn	1.625061	1.093910	0.081609
Zn5	Zn	1.002064	0.418247	-0.418401
Zn6	Zn	1.502064	0.918247	0.081599
Zn7	Zn	1.002056	0.593830	-0.594022
Zn8	Zn	1.502056	1.093830	-0.094022
O9	O	1.063579	0.506045	-0.506221
O10	O	1.563579	1.006045	-0.006221
O11	O	1.228110	0.441511	-0.570784
O12	O	1.728110	0.941511	-0.070784
O13	O	1.108718	0.570665	-0.271371
O14	O	1.608718	1.070665	0.228629
O15	O	1.018425	0.271219	-0.441729
O16	O	1.518425	0.771219	0.058271
O17	O	1.228055	0.570611	-0.441712
O18	O	1.728055	1.070611	0.058288
O19	O	1.108845	0.271178	-0.570794
O20	O	1.608845	0.771178	-0.070794
O21	O	1.018353	0.441606	-0.271378
O22	O	1.518353	0.941606	0.228622
O23	O	0.899079	0.441529	-0.441681
O24	O	1.399079	0.941529	0.058319
O25	O	1.018410	0.570474	-0.741050
O26	O	1.518410	1.070474	-0.241050
O27	O	0.899072	0.570529	-0.570709
O28	O	1.399072	1.070529	-0.070709
O29	O	1.108837	0.441433	-0.741086
O30	O	1.608837	0.941433	-0.241086
O31	O	1.108709	0.740921	-0.441663
O32	O	1.608709	1.240921	0.058337
O33	O	1.018337	0.740862	-0.570699
O34	O	1.518337	1.240862	-0.070699
C35	C	1.063534	0.779012	-0.506197
C36	C	1.563534	1.279012	-0.006197
C37	C	1.063582	0.895789	-0.506222
C38	C	1.563582	1.395789	-0.006222
C39	C	0.872373	0.506027	-0.506191
C40	C	1.372373	1.006027	-0.006191
C41	C	0.790574	0.506044	-0.506203
C42	C	1.290574	1.006044	-0.006203
C43	C	1.063631	0.505938	-0.780255
C44	C	1.563631	1.005938	-0.280255
C45	C	1.063653	0.505893	-0.897032
C46	C	1.563653	1.005893	-0.397032
C47	C	0.602396	0.573320	-0.573304
C48	C	1.102396	1.073320	-0.073304
C49	C	0.525537	0.573324	-0.573317
C50	C	1.025537	1.073324	-0.073317
C51	C	0.525515	0.438788	-0.439162
C52	C	1.025515	0.938788	0.060838
C53	C	0.602372	0.438780	-0.439155
C54	C	1.102372	0.938780	0.060845
C55	C	0.640811	0.506052	-0.506224
C56	C	1.140811	1.006052	-0.006224
C57	C	0.487095	0.506063	-0.506244
C58	C	0.987095	1.006063	-0.006244
C59	C	0.403761	0.506067	-0.506258
C60	C	0.903761	1.006067	-0.006258
C61	C	0.724150	0.506048	-0.506212
C62	C	1.224150	1.006048	-0.006212
C63	C	1.255532	0.506063	-0.506252
C64	C	1.755532	1.006063	-0.006252
C65	C	1.337331	0.506072	-0.506265
C66	C	1.837331	1.006072	-0.006265
C67	C	1.063645	0.232011	-0.506268
C68	C	1.563645	0.732011	-0.006268
C69	C	1.063673	0.115235	-0.506288
C70	C	1.563673	0.615235	-0.006288
C71	C	1.110693	0.950646	-0.439110
C72	C	1.610693	1.450646	0.060890
C73	C	1.110740	1.060370	-0.439145
C74	C	1.610740	1.560370	0.060855
C75	C	1.016560	1.060369	-0.573408
C76	C	1.516560	1.560369	-0.073408
C77	C	1.016517	0.950647	-0.573377
C78	C	1.516517	1.450647	-0.073377
C79	C	1.016616	0.438680	-0.951897
C80	C	1.516616	0.938680	-0.451897
C81	C	1.016634	0.438648	-1.061621
C82	C	1.516634	0.938648	-0.561621
C83	C	1.110730	0.573045	-1.061605
C84	C	1.610730	1.073045	-0.561605
C85	C	1.110708	0.573081	-0.951883
C86	C	1.610708	1.073081	-0.451883
C87	C	1.063571	0.506075	-0.233254
C88	C	1.563571	1.006075	0.266746
C89	C	1.063691	0.505824	-0.116478
C90	C	1.563691	1.005824	0.383522
H91	H	0.633691	0.628095	-0.627919
H92	H	1.133691	1.128095	-0.127919
H93	H	0.494264	0.628098	-0.627941
H94	H	0.994264	1.128098	-0.127941
H95	H	0.978154	0.905979	-0.628033
H96	H	1.478154	1.405979	-0.128033
H97	H	0.978240	1.105049	-0.628082
H98	H	1.478240	1.605049	-0.128082
H99	H	0.494208	0.384019	-0.384555
H100	H	0.994208	0.884019	0.115445
Cl101	Cl	0.650668	0.354201	-0.354826
Cl102	Cl	1.150668	0.854201	0.145174
H103	H	0.978301	0.383971	-0.907241
H104	H	1.478301	0.883971	-0.407241
H105	H	1.149017	0.905983	-0.384430
H106	H	1.649017	1.405983	0.115570
Cl107	Cl	0.957490	0.354161	-1.130590
Cl108	Cl	1.457490	0.854161	-0.630590
H109	H	1.149013	0.627819	-0.907210
H110	H	1.649013	1.127819	-0.407210
Cl111	Cl	1.169969	1.129330	-0.354774
Cl112	Cl	1.669969	1.629330	0.145226
H113	H	1.149041	0.627746	-1.106278
H114	H	1.649041	1.127746	-0.606278
