data_functionalizedCrystal
_audit_creation_method	'MofGen! by Chris Wilmer'
_symmetry_space_group_name_H-M	'P1'
_symmetry_Int_Tables_number	1
_symmetry_cell_setting	triclinic
loop_
_symmetry_equiv_pos_as_xyz
  x,y,z
_cell_length_a	17.699083
_cell_length_b	17.699083
_cell_length_c	16.176319
_cell_angle_alpha	89.992304
_cell_angle_beta	89.998611
_cell_angle_gamma	83.283015
loop_
_atom_site_label
_atom_site_type_symbol
_atom_site_fract_x
_atom_site_fract_y
_atom_site_fract_z
O1	O	1.004079	0.095713	-0.068632
O2	O	0.783700	0.108166	-0.068660
O3	O	0.900116	-0.008250	-0.068638
O4	O	0.887663	0.212129	-0.068654
O5	O	0.900100	-0.008257	0.068855
O6	O	0.783684	0.108158	0.068834
O7	O	1.004063	0.095706	0.068861
Cu8	Cu	0.893872	0.101931	0.081401
Cu9	Cu	0.893891	0.101940	-0.081200
O10	O	0.887647	0.212121	0.068839
C11	C	0.755495	0.107716	0.000084
C12	C	0.671477	0.106377	0.000073
C13	C	0.622856	0.174710	0.000069
C14	C	0.543913	0.173448	0.000079
C15	C	0.513592	0.103852	0.000089
C16	C	0.562219	0.035513	0.000096
C17	C	0.641161	0.036776	0.000091
C18	C	0.243856	0.030418	0.000117
C19	C	0.164908	0.029160	0.000120
C20	C	0.146608	0.167090	0.000105
C21	C	0.225550	0.168353	0.000100
C22	C	0.274170	0.100015	0.000112
C23	C	0.359769	0.101384	0.000102
C24	C	0.427995	0.102481	0.000093
C25	C	0.899662	-0.036451	0.000109
C26	C	0.898323	-0.120469	0.000109
C27	C	0.966656	-0.169090	0.000119
C28	C	0.965394	-0.248033	0.000111
C29	C	0.895798	-0.278354	0.000100
C30	C	0.827459	-0.229727	0.000088
C31	C	0.828722	-0.150785	0.000089
C32	C	0.822364	-0.548090	0.000080
C33	C	0.821106	-0.627038	0.000081
C34	C	0.959036	-0.645338	0.000102
C35	C	0.960299	-0.566396	0.000104
C36	C	0.891961	-0.517776	0.000087
C37	C	0.893330	-0.432177	0.000094
C38	C	0.894427	-0.363951	0.000099
C39	C	1.032268	0.096156	0.000116
C40	C	1.116286	0.097494	0.000121
C41	C	0.888102	0.240322	0.000091
C42	C	0.889440	0.324340	0.000085
N43	N	0.893864	0.101925	0.195767
N44	N	0.893905	0.101941	-0.195565
C45	C	0.945429	0.050397	0.239040
C46	C	0.945432	0.050396	0.325588
C47	C	0.893875	0.101927	0.368859
C48	C	0.842305	0.153457	0.325579
C49	C	0.842299	0.153454	0.239034
C50	C	0.842331	0.153472	0.674608
C51	C	0.842344	0.153473	0.761159
C52	C	0.945465	0.050414	0.761161
C53	C	0.945458	0.050410	0.674616
C54	C	0.893886	0.101937	0.631344
C55	C	0.893882	0.101937	0.537499
C56	C	0.893883	0.101932	0.462702
H57	H	0.107012	0.222734	0.000100
H58	H	0.987416	0.008438	0.203814
C59	C	0.490433	0.248615	0.000071
H60	H	0.519797	0.290244	0.000055
H61	H	0.459260	0.250991	0.048021
H62	H	0.459256	0.250989	-0.047879
H63	H	1.014680	-0.684934	0.000111
C64	C	0.744546	-0.660389	0.000058
H65	H	0.704027	-0.620127	0.000039
H66	H	0.741176	-0.690810	0.048003
H67	H	0.741203	-0.690798	-0.047897
H68	H	0.140225	-0.027517	0.000128
H69	H	0.800341	0.195428	0.639382
H70	H	0.987419	0.008438	0.360821
H71	H	0.250232	0.225025	0.000089
H72	H	0.800323	0.195413	0.360816
C73	C	1.036852	-0.533043	0.000119
H74	H	1.027817	-0.479065	0.000127
H75	H	1.064991	-0.549734	-0.047823
H76	H	1.064974	-0.549747	0.048077
H77	H	1.023330	-0.144409	0.000133
H78	H	0.987444	0.008451	0.639387
C79	C	0.656206	0.251266	0.000055
H80	H	0.710185	0.242234	0.000045
H81	H	0.639510	0.279395	0.048000
H82	H	0.639505	0.279395	-0.047900
H83	H	0.766718	-0.508512	0.000067
H84	H	0.283434	-0.025228	0.000127
C85	C	1.040559	-0.301516	0.000113
H86	H	1.029841	-0.352874	0.000097
H87	H	1.069102	-0.292351	0.048062
H88	H	1.069102	-0.292326	-0.047837
C89	C	0.785581	0.210137	0.191433
H90	H	0.754881	0.240833	0.229597
H91	H	0.754126	0.182949	0.157680
H92	H	0.812749	0.241611	0.157663
H93	H	0.770792	-0.254420	0.000073
H94	H	0.537526	-0.021154	0.000116
C95	C	0.753556	-0.097302	0.000081
H96	H	0.711925	-0.126664	0.000081
H97	H	0.751188	-0.066120	-0.047866
H98	H	0.751175	-0.066132	0.048034
C99	C	0.694647	-0.038388	0.000096
H100	H	0.746005	-0.027669	0.000100
H101	H	0.685472	-0.066933	-0.047846
H102	H	0.685470	-0.066931	0.048054
H103	H	0.987456	0.008455	0.796403
H104	H	0.800357	0.195437	0.796390
