data_functionalizedCrystal
_audit_creation_method	'MofGen! by Chris Wilmer'
_symmetry_space_group_name_H-M	'P1'
_symmetry_Int_Tables_number	1
_symmetry_cell_setting	triclinic
loop_
_symmetry_equiv_pos_as_xyz
  x,y,z
_cell_length_a	6.817900
_cell_length_b	17.982865
_cell_length_c	17.982856
_cell_angle_alpha	95.933657
_cell_angle_beta	102.449936
_cell_angle_gamma	102.450232
loop_
_atom_site_label
_atom_site_type_symbol
_atom_site_fract_x
_atom_site_fract_y
_atom_site_fract_z
V1	V	-4.009917	-0.106138	-0.237879
V2	V	-3.509917	0.393862	0.262121
O3	O	-4.003017	0.004356	-0.233014
O4	O	-3.503017	0.504356	0.266986
O5	O	-3.956484	-0.209738	-0.236575
O6	O	-3.456484	0.290262	0.263425
O7	O	-3.956481	-0.104831	-0.341478
O8	O	-3.456481	0.395169	0.158522
O9	O	-4.003021	-0.101276	-0.127385
O10	O	-3.503021	0.398724	0.372615
V11	V	-4.494850	-0.092883	-0.224623
V12	V	-3.994850	0.407117	0.275377
O13	O	-4.268083	-0.135213	-0.266955
O14	O	-3.768083	0.364787	0.233045
O15	O	-4.686881	-0.063807	-0.195547
O16	O	-4.186881	0.436193	0.304453
O17	O	-4.325076	0.010717	-0.225927
O18	O	-3.825076	0.510717	0.274073
O19	O	-4.619146	-0.203377	-0.229488
O20	O	-4.119146	0.296623	0.270512
O21	O	-4.619143	-0.097744	-0.335117
O22	O	-4.119143	0.402256	0.164883
O23	O	-4.325079	-0.094189	-0.121024
O24	O	-3.825079	0.405811	0.378976
C25	C	-3.800423	-0.234983	-0.232906
C26	C	-3.300423	0.265017	0.267094
C27	C	-3.837989	-0.319679	-0.232531
C28	C	-3.337989	0.180321	0.267469
C29	C	-4.032237	-0.828458	-0.160349
C30	C	-3.532237	-0.328458	0.339651
C31	C	-3.996940	-0.748878	-0.160712
C32	C	-3.496940	-0.248878	0.339288
C33	C	-4.015573	-0.720188	-0.230700
C34	C	-3.515573	-0.220188	0.269300
C35	C	-4.069486	-0.771082	-0.300330
C36	C	-3.569486	-0.271082	0.199670
C37	C	-4.104768	-0.850660	-0.299967
C38	C	-3.604768	-0.350660	0.200033
C39	C	-3.927199	-0.450154	-0.301798
C40	C	-3.427199	0.049846	0.198202
C41	C	-3.891918	-0.370569	-0.302157
C42	C	-3.391918	0.129431	0.197843
C43	C	-3.819372	-0.348371	-0.162544
C44	C	-3.319372	0.151629	0.337456
C45	C	-3.854653	-0.427949	-0.162180
C46	C	-3.354653	0.072051	0.337820
C47	C	-3.908552	-0.478836	-0.231809
C48	C	-3.408552	0.021164	0.268191
C49	C	-3.946821	-0.565126	-0.231415
C50	C	-3.446821	-0.065126	0.268585
C51	C	-3.977320	-0.633901	-0.231095
C52	C	-3.477320	-0.133901	0.268905
C53	C	-3.800418	-0.101164	-0.366719
C54	C	-3.300418	0.398836	0.133281
C55	C	-3.837978	-0.100781	-0.451414
C56	C	-3.337978	0.399219	0.048586
C57	C	-3.891894	-0.170407	-0.502301
C58	C	-3.391894	0.329593	-0.002301
C59	C	-3.927194	-0.170046	-0.581881
C60	C	-3.427194	0.329954	-0.081881
C61	C	-3.908563	-0.100059	-0.610573
C62	C	-3.408563	0.399941	-0.110573
C63	C	-3.854648	-0.030428	-0.559680
C64	C	-3.354648	0.469572	-0.059680
C65	C	-3.819363	-0.030789	-0.480102
C66	C	-3.319363	0.469211	0.019898
C67	C	-3.996948	-0.028967	-0.880610
C68	C	-3.496948	0.471033	-0.380610
C69	C	-4.032231	-0.028611	-0.960194
C70	C	-3.532231	0.471389	-0.460194
C71	C	-4.104779	-0.168224	-0.982389
C72	C	-3.604779	0.331776	-0.482389
C73	C	-4.069494	-0.168586	-0.902811
C74	C	-3.569494	0.331414	-0.402811
C75	C	-4.015593	-0.098956	-0.851925
C76	C	-3.515593	0.401044	-0.351925
C77	C	-3.977321	-0.099348	-0.765636
C78	C	-3.477321	0.400652	-0.265636
C79	C	-3.946819	-0.099666	-0.696861
C80	C	-3.446819	0.400334	-0.196861
C81	C	-4.144484	-0.097859	-0.095779
C82	C	-3.644484	0.402141	0.404221
C83	C	-4.086163	-0.098238	-0.011083
C84	C	-3.586163	0.401762	0.488917
C85	C	-4.144479	0.035959	-0.229594
C86	C	-3.644479	0.535959	0.270406
C87	C	-4.086151	0.120654	-0.229974
C88	C	-3.586151	0.620654	0.270026
H89	H	-3.775471	-0.306929	-0.105848
H90	H	-3.275471	0.193071	0.394152
H91	H	-3.907102	-0.347214	-0.359153
H92	H	-3.407102	0.152786	0.140847
H93	H	-3.775463	0.025907	-0.438670
H94	H	-3.275463	0.525907	0.061330
H95	H	-3.839486	-0.451304	-0.105188
H96	H	-3.339486	0.048696	0.394812
H97	H	-3.971090	-0.491577	-0.358495
H98	H	-3.471090	0.008423	0.141505
H99	H	-4.017069	-0.851810	-0.103357
H100	H	-3.517069	-0.351810	0.396643
N101	N	-4.012121	0.046879	-0.991142
N102	N	-3.512121	0.546879	-0.491142
H103	H	-3.972621	0.090936	-0.946832
H104	H	-3.472621	0.590936	-0.446832
H105	H	-4.148772	0.047473	-1.026329
H106	H	-3.648772	0.547473	-0.526329
H107	H	-3.971104	-0.226743	-0.623311
H108	H	-3.471104	0.273257	-0.123311
N109	N	-3.938650	-0.693987	-0.085614
N110	N	-3.438650	-0.193987	0.414386
H111	H	-3.932168	-0.724237	-0.041221
H112	H	-3.432168	-0.224237	0.458779
H113	H	-4.045952	-0.663105	-0.085283
H114	H	-3.545952	-0.163105	0.414717
N115	N	-3.911989	-0.245894	-0.471358
N116	N	-3.411989	0.254106	0.028642
H117	H	-3.951510	-0.289947	-0.515673
H118	H	-3.451510	0.210053	-0.015673
H119	H	-4.022528	-0.251676	-0.441473
H120	H	-3.522528	0.248324	0.058527
H121	H	-4.084642	-0.747717	-0.357316
H122	H	-3.584642	-0.247717	0.142684
H123	H	-4.084659	-0.225577	-0.879455
H124	H	-3.584659	0.274423	-0.379455
N125	N	-4.162907	-0.905550	-0.375061
N126	N	-3.662907	-0.405550	0.124939
H127	H	-4.169361	-0.875302	-0.419454
H128	H	-3.669361	-0.375302	0.080546
H129	H	-4.302720	-0.941702	-0.380548
H130	H	-3.802720	-0.441702	0.119452
N131	N	-4.162928	-0.243329	-1.037274
N132	N	-3.662928	0.256671	-0.537274
H133	H	-4.182464	-0.232485	-1.092041
H134	H	-3.682464	0.267515	-0.592041
H135	H	-4.296193	-0.276472	-1.030855
H136	H	-3.796193	0.223528	-0.530855
H137	H	-3.953061	0.027730	-0.839188
H138	H	-3.453061	0.527730	-0.339188
H139	H	-3.839492	0.026557	-0.583047
H140	H	-3.339492	0.526557	-0.083047
