data_functionalizedCrystal
_audit_creation_method	'MofGen! by Chris Wilmer'
_symmetry_space_group_name_H-M	'P1'
_symmetry_Int_Tables_number	1
_symmetry_cell_setting	triclinic
loop_
_symmetry_equiv_pos_as_xyz
  x,y,z
_cell_length_a	12.645330
_cell_length_b	12.645331
_cell_length_c	12.645323
_cell_angle_alpha	89.985932
_cell_angle_beta	90.025653
_cell_angle_gamma	89.989462
loop_
_atom_site_label
_atom_site_type_symbol
_atom_site_fract_x
_atom_site_fract_y
_atom_site_fract_z
Zn1	Zn	-0.422083	-1.620770	0.599197
Zn2	Zn	-0.599371	-1.620668	0.421935
Zn3	Zn	-0.422117	-1.443485	0.421968
Zn4	Zn	-0.599299	-1.443483	0.599177
O5	O	-0.510718	-1.532102	0.510569
O6	O	-0.445617	-1.769104	0.575677
O7	O	-0.575902	-1.597123	0.273592
O8	O	-0.273765	-1.467046	0.445500
O9	O	-0.575870	-1.769029	0.445443
O10	O	-0.273740	-1.597296	0.575710
O11	O	-0.445674	-1.466947	0.273616
O12	O	-0.445604	-1.295137	0.445481
O13	O	-0.575747	-1.467042	0.747527
O14	O	-0.575780	-1.295136	0.575675
O15	O	-0.445547	-1.597295	0.747542
O16	O	-0.747709	-1.597121	0.445424
O17	O	-0.747656	-1.466944	0.575643
C18	C	-0.510688	-1.256672	0.510580
C19	C	-0.510701	-1.138842	0.510610
C20	C	-0.593041	-0.971312	0.592093
C21	C	-0.592777	-1.093872	0.592430
C22	C	-0.399046	-1.094353	0.541134
C23	C	-0.399546	-0.971755	0.541711
C24	C	-0.539112	-0.971599	0.398355
C25	C	-0.541556	-1.094205	0.398957
C26	C	-0.786147	-1.532050	0.510551
C27	C	-0.903977	-1.532125	0.510578
C28	C	-0.948848	-1.614113	0.428728
C29	C	-1.071408	-1.613925	0.428436
C30	C	-1.071980	-1.420408	0.480574
C31	C	-0.949383	-1.420829	0.479951
C32	C	-0.949058	-1.560988	0.622699
C33	C	-1.071663	-1.563506	0.622131
C34	C	-0.234212	-1.532183	0.510611
C35	C	-0.116382	-1.532217	0.510629
C36	C	-0.510636	-1.532180	0.787075
C37	C	-0.510601	-1.532213	0.904905
C38	C	-0.510743	-0.808607	0.510566
C39	C	-0.510742	-0.926437	0.510584
C40	C	-0.510723	-1.532085	0.235139
C41	C	-0.510459	-1.532257	0.117310
C42	C	-0.592123	-1.450018	1.072459
C43	C	-0.592527	-1.450234	0.949899
C44	C	-0.540923	-1.643915	0.949407
C45	C	-0.541434	-1.643465	1.072006
C46	C	-0.398300	-1.503761	1.072108
C47	C	-0.398973	-1.501269	0.949502
H48	H	-0.479165	-0.942576	0.337623
H49	H	-0.334911	-1.556791	0.918873
H50	H	-0.623424	-1.667617	1.100612
H51	H	-1.100676	-1.645788	0.644798
H52	H	-0.619141	-0.940684	0.370613
F53	F	-0.318773	-1.582052	1.110019
H54	H	-0.918062	-1.641103	0.650091
F55	F	-1.110647	-1.722275	0.452987
H56	H	-0.483324	-1.706833	0.920263
F57	F	-0.316717	-1.132426	0.465963
H58	H	-0.336029	-0.942069	0.485066
H59	H	-0.623718	-1.123295	0.375935
F60	F	-0.701009	-1.133192	0.567460
F61	F	-0.367019	-1.134507	0.647208
F62	F	-0.567556	-1.341427	1.110990
F63	F	-0.468888	-1.134209	0.315314
H64	H	-0.676113	-0.941829	0.573175
H65	H	-0.574509	-0.940520	0.674767
F66	F	-0.646967	-1.676028	0.909291
H67	H	-0.370661	-1.423726	1.103025
H68	H	-0.918111	-1.595221	0.346125
H69	H	-0.919306	-1.697245	0.447276
F70	F	-0.910585	-1.338243	0.554501
F71	F	-0.368096	-0.934400	0.648949
F72	F	-0.568238	-1.132236	0.701120
F73	F	-1.109849	-1.588955	0.319868
F74	F	-0.912107	-1.388905	0.372839
H75	H	-1.101114	-1.357681	0.538373
F76	F	-1.112213	-1.387968	0.374654
H77	H	-1.102272	-1.508197	0.686373
F78	F	-0.911110	-1.482954	0.702411
F79	F	-0.567720	-1.341969	0.910567
H80	H	-0.674752	-1.468647	1.103274
F81	F	-0.701197	-1.474872	0.911574
H82	H	-0.376106	-1.419066	0.920416
F83	F	-0.467017	-1.726225	1.110790
