data_functionalizedCrystal
_audit_creation_method	'MofGen! by Chris Wilmer'
_symmetry_space_group_name_H-M	'P1'
_symmetry_Int_Tables_number	1
_symmetry_cell_setting	triclinic
loop_
_symmetry_equiv_pos_as_xyz
  x,y,z
_cell_length_a	15.298094
_cell_length_b	15.297327
_cell_length_c	15.296720
_cell_angle_alpha	72.680778
_cell_angle_beta	110.768998
_cell_angle_gamma	91.587238
loop_
_atom_site_label
_atom_site_type_symbol
_atom_site_fract_x
_atom_site_fract_y
_atom_site_fract_z
Zn1	Zn	1.197079	0.637840	-0.413063
Zn2	Zn	1.196977	0.766447	-0.284472
Zn3	Zn	1.077806	0.593371	-0.275193
Zn4	Zn	1.014636	0.766387	-0.466842
O5	O	1.121624	0.691011	-0.359893
O6	O	1.323292	0.673536	-0.377381
O7	O	1.207562	0.724902	-0.149220
O8	O	1.120107	0.473040	-0.267092
O9	O	1.323217	0.768023	-0.282906
O10	O	1.207737	0.505711	-0.368384
O11	O	1.120008	0.597744	-0.142403
O12	O	0.943200	0.597686	-0.319240
O13	O	1.012443	0.767920	-0.593730
O14	O	0.896789	0.724800	-0.460043
O15	O	1.146484	0.673478	-0.554218
O16	O	1.146309	0.892669	-0.335054
O17	O	1.012344	0.892625	-0.469041
C18	C	0.887265	0.656412	-0.394471
C19	C	0.786996	0.641635	-0.409291
C20	C	1.072481	0.925383	-0.408907
C21	C	1.051533	1.025666	-0.429896
C22	C	1.072429	0.725653	-0.609696
C23	C	1.051464	0.740415	-0.716147
C24	C	1.356899	0.725747	-0.325180
C25	C	1.457158	0.740549	-0.310387
C26	C	1.504218	0.796700	-0.254250
C27	C	1.598419	0.810603	-0.240344
C28	C	1.645568	0.768363	-0.282580
C29	C	1.598506	0.712216	-0.338724
C30	C	1.504298	0.698305	-0.352625
C31	C	1.645648	0.669968	-0.380955
C32	C	1.598586	0.613821	-0.437099
C33	C	1.504387	0.599913	-0.450998
C34	C	1.457238	0.642154	-0.408762
C35	C	1.739856	0.683879	-0.367054
C36	C	1.739936	0.585484	-0.465428
C37	C	1.645735	0.571580	-0.479334
C38	C	1.170980	0.455730	-0.310704
C39	C	1.192012	0.355468	-0.289743
C40	C	1.271647	1.308363	-0.210156
C41	C	1.291328	1.214142	-0.190432
C42	C	1.231382	1.167019	-0.250296
C43	C	1.151749	1.214125	-0.329888
C44	C	1.132062	1.308353	-0.349610
C45	C	1.091797	1.167009	-0.389750
C46	C	1.012164	1.214115	-0.469342
C47	C	0.992480	1.308334	-0.489061
C48	C	1.052427	1.355458	-0.429197
C49	C	1.111484	1.072780	-0.370028
C50	C	0.971899	1.072770	-0.509482
C51	C	0.952217	1.166991	-0.529207
C52	C	1.271526	0.585350	-0.933930
C53	C	1.291228	0.571483	-0.833913
C54	C	1.231289	0.613714	-0.804467
C55	C	1.151644	0.669816	-0.875047
C56	C	1.131944	0.683691	-0.975074
C57	C	1.091707	0.712055	-0.845611
C58	C	1.012062	0.768157	-0.916191
C59	C	0.992365	0.782029	-1.016208
C60	C	1.052304	0.739797	-1.045654
C61	C	1.111407	0.698181	-0.745584
C62	C	0.971825	0.796521	-0.786728
C63	C	0.952122	0.810389	-0.886744
C64	C	1.170694	0.656447	-0.111040
C65	C	1.191886	0.641456	-0.004510
H66	H	1.778165	0.729594	-0.321341
H67	H	1.466075	0.554187	-0.496706
Cl68	Cl	1.256322	1.048641	-0.225724
H69	H	0.887380	1.205358	-0.594011
H70	H	1.778325	0.551085	-0.499817
Cl71	Cl	1.444945	0.849785	-0.201151
H72	H	1.320442	1.346738	-0.161418
Cl73	Cl	1.256057	0.596277	-0.678729
Cl74	Cl	1.338804	0.624692	-0.426258
H75	H	1.176254	0.652501	-0.688126
H76	H	1.607404	0.525864	-0.525047
Cl77	Cl	1.391440	1.154933	-0.090386
Cl78	Cl	1.211590	1.013573	-0.269973
Cl79	Cl	1.391348	0.500958	-0.745192
Cl80	Cl	1.027399	1.473803	-0.453655
H81	H	0.927630	1.346682	-0.553861
H82	H	1.320324	0.550978	-0.957917
Cl83	Cl	0.896528	1.013534	-0.584740
H84	H	1.722271	0.779687	-0.271254
Cl85	Cl	0.852002	0.880916	-0.975484
Cl86	Cl	1.027543	0.757234	-1.171394
Cl87	Cl	0.892251	0.852574	-1.104936
H88	H	0.923018	0.830911	-0.762754
H89	H	1.636731	0.856317	-0.194630
