data_functionalizedCrystal
_audit_creation_method	'MofGen! by Chris Wilmer'
_symmetry_space_group_name_H-M	'P1'
_symmetry_Int_Tables_number	1
_symmetry_cell_setting	triclinic
loop_
_symmetry_equiv_pos_as_xyz
  x,y,z
_cell_length_a	14.044220
_cell_length_b	13.101039
_cell_length_c	14.971486
_cell_angle_alpha	86.633875
_cell_angle_beta	88.401503
_cell_angle_gamma	93.659868
loop_
_atom_site_label
_atom_site_type_symbol
_atom_site_fract_x
_atom_site_fract_y
_atom_site_fract_z
O1	O	1.263154	0.085106	0.211146
O2	O	1.763154	0.585106	0.711146
O3	O	0.987177	0.085132	0.203363
O4	O	1.487177	0.585132	0.703363
O5	O	1.132562	0.085111	0.077637
O6	O	1.632562	0.585111	0.577637
O7	O	1.117769	0.085127	0.336871
O8	O	1.617769	0.585127	0.836871
O9	O	1.122131	-0.085317	0.086674
O10	O	1.622131	0.414683	0.586674
O11	O	0.976746	-0.085296	0.212400
O12	O	1.476746	0.414704	0.712400
O13	O	1.252723	-0.085322	0.220183
O14	O	1.752723	0.414678	0.720183
Zn15	Zn	1.113078	-0.112368	0.217726
Zn16	Zn	1.613078	0.387632	0.717726
Zn17	Zn	1.126822	0.112178	0.205820
Zn18	Zn	1.626822	0.612178	0.705820
O19	O	1.107338	-0.085301	0.345908
O20	O	1.607338	0.414699	0.845908
C21	C	0.946644	-0.000079	0.204474
C22	C	1.446644	0.499921	0.704474
C23	C	0.841407	-0.000069	0.194313
C24	C	1.341407	0.499931	0.694313
C25	C	0.648723	-0.000090	0.175737
C26	C	1.148723	0.499910	0.675737
C27	C	0.591172	-0.000090	0.247804
C28	C	1.091172	0.499910	0.747804
C29	C	0.483956	-0.000102	0.237468
C30	C	0.983956	0.499898	0.737468
C31	C	0.755949	-0.000079	0.186072
C32	C	1.255949	0.499921	0.686072
N33	N	1.103706	-0.265615	0.225852
N34	N	1.603706	0.234385	0.725852
C35	C	1.090954	-0.474656	0.236916
C36	C	1.590954	0.025344	0.736916
C37	C	1.148951	-0.525540	0.186626
C38	C	1.648951	-0.025540	0.686626
C39	C	1.141855	-0.641858	0.192782
C40	C	1.641855	-0.141858	0.692782
C41	C	1.098048	-0.358328	0.230761
C42	C	1.598048	0.141672	0.730761
C43	C	1.293256	-0.000109	0.219071
C44	C	1.793256	0.499891	0.719071
C45	C	1.398494	-0.000112	0.229233
C46	C	1.898494	0.499888	0.729233
C47	C	1.126685	-0.000103	0.048779
C48	C	1.626685	0.499897	0.548779
C49	C	1.124702	-0.000101	-0.050674
C50	C	1.624702	0.499899	0.449326
N51	N	1.136202	0.265426	0.197687
N52	N	1.636202	0.765426	0.697687
C53	C	1.210112	-0.000110	-0.101171
C54	C	1.710112	0.499890	0.398829
C55	C	1.208244	-0.000100	-0.194618
C56	C	1.708244	0.499900	0.305382
C57	C	1.120965	-0.000088	-0.237567
C58	C	1.620965	0.499912	0.262433
C59	C	1.035549	-0.000076	-0.187063
C60	C	1.535549	0.499924	0.312937
C61	C	1.037418	-0.000079	-0.093618
C62	C	1.537418	0.499921	0.406382
C63	C	1.031658	-0.000072	-0.381833
C64	C	1.531658	0.499928	0.118167
C65	C	1.029788	-0.000071	-0.475284
C66	C	1.529788	0.499929	0.024716
C67	C	1.202484	-0.000092	-0.482832
C68	C	1.702484	0.499908	0.017168
C69	C	1.204354	-0.000096	-0.389387
C70	C	1.704354	0.499904	0.110613
C71	C	1.118937	-0.000086	-0.338890
C72	C	1.618937	0.499914	0.161110
C73	C	1.113215	-0.000085	0.374767
C74	C	1.613215	0.499915	0.874767
C75	C	1.115198	-0.000079	0.474220
C76	C	1.615198	0.499921	0.974220
H77	H	0.617475	-0.000100	0.106282
H78	H	1.117475	0.499900	0.606282
H79	H	0.622422	-0.000081	0.317265
H80	H	1.122422	0.499919	0.817265
H81	H	1.203933	-0.481746	0.138949
H82	H	1.703933	0.018254	0.638949
C83	C	1.023999	-0.639223	0.295004
C84	C	1.523999	-0.139223	0.795004
C85	C	1.016742	-0.533768	0.301285
C86	C	1.516742	-0.033768	0.801285
H87	H	0.978190	-0.675723	0.334749
H88	H	1.478190	-0.175723	0.834749
H89	H	1.012467	-0.656741	0.235415
H90	H	1.512467	-0.156741	0.735415
H91	H	1.086260	-0.656725	0.310603
H92	H	1.586260	-0.156725	0.810603
H93	H	0.954483	-0.516266	0.285679
H94	H	1.454483	-0.016266	0.785679
H95	H	1.028267	-0.516243	0.360887
H96	H	1.528267	-0.016243	0.860887
C97	C	1.380626	-0.000114	-0.118028
C98	C	1.880626	0.499886	0.381972
C99	C	1.306054	-0.000116	-0.053966
C100	C	1.806054	0.499884	0.446034
H101	H	1.439858	-0.000107	-0.088887
H102	H	1.939858	0.499893	0.411113
H103	H	1.372672	-0.059542	-0.151167
H104	H	1.872672	0.440458	0.348833
H105	H	1.379930	0.059323	-0.157469
H106	H	1.879930	0.559323	0.342531
H107	H	1.306746	-0.059556	-0.014530
H108	H	1.806746	0.440444	0.485470
H109	H	1.314011	0.059319	-0.020813
H110	H	1.814011	0.559319	0.479187
H111	H	0.967869	-0.000072	-0.052505
H112	H	1.467869	0.499928	0.447495
C113	C	1.311703	0.087513	-0.308709
C114	C	1.811703	0.587513	0.191291
C115	C	1.302133	-0.000106	-0.250118
C116	C	1.802133	0.499894	0.249882
H117	H	1.369673	0.087513	-0.342966
H118	H	1.869673	0.587513	0.157034
H119	H	1.259466	0.087515	-0.347661
H120	H	1.759466	0.587515	0.152339
H121	H	1.312475	0.146933	-0.275231
H122	H	1.812475	0.646933	0.224769
H123	H	1.301354	-0.059526	-0.283597
H124	H	1.801354	0.440474	0.216403
H125	H	1.354383	-0.000118	-0.211162
H126	H	1.854383	0.499882	0.288838
C127	C	1.276312	-0.000068	-0.629426
C128	C	1.776312	0.499932	-0.129426
C129	C	1.296378	-0.000087	-0.538336
C130	C	1.796378	0.499913	-0.038336
H131	H	1.334277	-0.000059	-0.663692
H132	H	1.834277	0.499941	-0.163692
H133	H	1.236900	-0.059492	-0.640042
H134	H	1.736900	0.440508	-0.140042
H135	H	1.244163	0.059373	-0.646321
H136	H	1.744163	0.559373	-0.146321
H137	H	1.328521	-0.059532	-0.521438
H138	H	1.828521	0.440468	-0.021438
H139	H	1.335806	0.059343	-0.527714
H140	H	1.835806	0.559343	-0.027714
H141	H	1.275424	-0.000113	-0.354421
H142	H	1.775424	0.499887	0.145579
H143	H	0.958717	-0.000077	-0.510249
H144	H	1.458717	0.499923	-0.010249
C145	C	0.860763	-0.000058	-0.383753
C146	C	1.360763	0.499942	0.116247
C147	C	0.937767	-0.000063	-0.326325
C148	C	1.437767	0.499937	0.173675
H149	H	0.802801	-0.000061	-0.349482
H150	H	1.302801	0.499939	0.150518
H151	H	0.867262	0.059372	-0.423501
H152	H	1.367262	0.559372	0.076499
H153	H	0.859996	-0.059493	-0.417212
H154	H	1.359996	0.440507	0.082788
H155	H	0.938539	0.059377	-0.292870
H156	H	1.438539	0.559377	0.207130
H157	H	0.931267	-0.059498	-0.286560
H158	H	1.431267	0.440502	0.213440
H159	H	0.964485	-0.000060	-0.222040
H160	H	1.464485	0.499940	0.277960
