data_functionalizedCrystal
_audit_creation_method	'MofGen! by Chris Wilmer'
_symmetry_space_group_name_H-M	'P1'
_symmetry_Int_Tables_number	1
_symmetry_cell_setting	triclinic
loop_
_symmetry_equiv_pos_as_xyz
  x,y,z
_cell_length_a	21.395362
_cell_length_b	18.101395
_cell_length_c	21.395364
_cell_angle_alpha	90.001096
_cell_angle_beta	90.036401
_cell_angle_gamma	90.046983
loop_
_atom_site_label
_atom_site_type_symbol
_atom_site_fract_x
_atom_site_fract_y
_atom_site_fract_z
Zn1	Zn	0.957811	-0.294709	0.354598
Zn2	Zn	1.457811	0.205291	0.854598
Zn3	Zn	0.957727	-0.418500	0.249825
Zn4	Zn	1.457727	0.081500	0.749825
Zn5	Zn	0.853040	-0.294711	0.249799
Zn6	Zn	1.353040	0.205289	0.749799
Zn7	Zn	0.852994	-0.418547	0.354530
Zn8	Zn	1.352994	0.081453	0.854530
O9	O	0.905393	-0.356617	0.302188
O10	O	1.405393	0.143383	0.802188
O11	O	1.045478	-0.311109	0.340739
O12	O	1.545478	0.188891	0.840739
O13	O	0.943823	-0.402061	0.162144
O14	O	1.443823	0.097939	0.662144
O15	O	0.866992	-0.191078	0.263718
O16	O	1.366992	0.308922	0.763718
O17	O	1.045416	-0.402058	0.263763
O18	O	1.545416	0.097942	0.763763
O19	O	0.943967	-0.191076	0.340713
O20	O	1.443967	0.308924	0.840713
O21	O	0.866910	-0.311114	0.162124
O22	O	1.366910	0.188886	0.662124
O23	O	0.765356	-0.311159	0.263652
O24	O	1.265356	0.188841	0.763652
O25	O	0.866915	-0.402138	0.442217
O26	O	1.366915	0.097862	0.942217
O27	O	0.765323	-0.402141	0.340598
O28	O	1.265323	0.097859	0.840598
O29	O	0.943923	-0.311154	0.442266
O30	O	1.443923	0.188846	0.942266
O31	O	0.943779	-0.522139	0.263697
O32	O	1.443779	-0.022139	0.763697
O33	O	0.866833	-0.522174	0.340623
O34	O	1.366833	-0.022174	0.840623
C35	C	0.742605	-0.356656	0.302115
C36	C	1.242605	0.143344	0.802115
C37	C	0.672964	-0.356691	0.302099
C38	C	1.172964	0.143309	0.802099
C39	C	0.905309	-0.549027	0.302169
C40	C	1.405309	-0.049027	0.802169
C41	C	0.905331	-0.631342	0.302182
C42	C	1.405331	-0.131342	0.802182
C43	C	0.640250	-0.404127	0.342104
C44	C	1.140250	0.095873	0.842104
C45	C	0.574815	-0.404109	0.342132
C46	C	1.074815	0.095891	0.842132
C47	C	0.542096	-0.356662	0.302144
C48	C	1.042096	0.143338	0.802144
C49	C	0.574818	-0.309216	0.262135
C50	C	1.074818	0.190784	0.762135
C51	C	0.640252	-0.309230	0.262113
C52	C	1.140252	0.190770	0.762113
C53	C	0.438378	-0.350679	0.245738
C54	C	0.938378	0.149321	0.745738
C55	C	0.372946	-0.350670	0.245759
C56	C	0.872946	0.149330	0.745759
C57	C	0.340275	-0.356614	0.302213
C58	C	0.840275	0.143386	0.802213
C59	C	0.373046	-0.362582	0.358647
C60	C	0.873046	0.137418	0.858647
C61	C	0.438480	-0.362596	0.358624
C62	C	0.938480	0.137404	0.858624
C63	C	0.471143	-0.356641	0.302164
C64	C	0.971143	0.143359	0.802164
C65	C	0.236608	-0.404033	0.342252
C66	C	0.736608	0.095967	0.842252
C67	C	0.171172	-0.404010	0.342281
C68	C	0.671172	0.095990	0.842281
C69	C	0.171176	-0.309121	0.262278
C70	C	0.671176	0.190879	0.762278
C71	C	0.236612	-0.309140	0.262255
C72	C	0.736612	0.190860	0.762255
C73	C	0.269324	-0.356601	0.302241
C74	C	0.769324	0.143399	0.802241
C75	C	0.905468	-0.930432	0.302216
C76	C	1.405468	-0.430432	0.802216
C77	C	0.857168	-0.899160	0.350736
C78	C	1.357168	-0.399160	0.850736
C79	C	0.856938	-0.813542	0.350584
C80	C	1.356938	-0.313542	0.850584
C81	C	0.905400	-0.782050	0.302200
C82	C	1.405400	-0.282050	0.802200
C83	C	0.887526	-0.813171	0.236161
C84	C	1.387526	-0.313171	0.736161
C85	C	0.887215	-0.898817	0.236451
C86	C	1.387215	-0.398817	0.736451
C87	C	0.971748	-0.898764	0.319154
C88	C	1.471748	-0.398764	0.819154
C89	C	0.971358	-0.813113	0.320602
C90	C	1.471358	-0.313113	0.820602
C91	C	0.905362	-0.698190	0.302187
C92	C	1.405362	-0.198190	0.802187
C93	C	0.905504	-1.014292	0.302225
C94	C	1.405504	-0.514292	0.802225
C95	C	1.068816	-0.356578	0.302261
C96	C	1.568816	0.143422	0.802261
C97	C	1.138458	-0.356562	0.302292
C98	C	1.638458	0.143438	0.802292
C99	C	0.905423	-0.356651	0.465611
C100	C	1.405423	0.143349	0.965611
C101	C	0.905436	-0.356666	0.535252
C102	C	1.405436	0.143334	1.035252
C103	C	0.905494	-0.163455	0.302220
C104	C	1.405494	0.336545	0.802220
C105	C	0.905537	-0.081141	0.302234
C106	C	1.405537	0.418859	0.802234
C107	C	0.945529	-0.309299	0.567992
C108	C	1.445529	0.190701	1.067992
C109	C	0.945519	-0.309286	0.633428
C110	C	1.445519	0.190714	1.133428
C111	C	0.905424	-0.356655	0.666121
C112	C	1.405424	0.143345	1.166121
C113	C	0.865324	-0.404025	0.633373
C114	C	1.365324	0.095975	1.133373
C115	C	0.865330	-0.404031	0.567939
C116	C	1.365330	0.095969	1.067939
C117	C	0.900434	-0.423369	0.769787
C118	C	1.400434	0.076631	1.269787
C119	C	0.900432	-0.423365	0.835220
C120	C	1.400432	0.076635	1.335220
C121	C	0.905401	-0.356638	0.867941
C122	C	1.405401	0.143362	1.367941
C123	C	0.910385	-0.289912	0.835222
C124	C	1.410385	0.210088	1.335222
C125	C	0.910392	-0.289918	0.769788
C126	C	1.410392	0.210082	1.269788
C127	C	0.905413	-0.356654	0.737073
C128	C	1.405413	0.143346	1.237073
C129	C	0.945485	-0.309253	0.971634
C130	C	1.445485	0.190747	1.471634
C131	C	0.945472	-0.309240	1.037071
C132	C	1.445472	0.190760	1.537071
C133	C	0.865280	-0.403985	1.037014
C134	C	1.365280	0.096015	1.537014
C135	C	0.865290	-0.403992	0.971579
C136	C	1.365290	0.096008	1.471579
C137	C	0.905397	-0.356627	0.938893
C138	C	1.405397	0.143373	1.438893
C139	C	0.905366	-0.356605	1.139400
C140	C	1.405366	0.143395	1.639400
C141	C	0.905375	-0.356608	1.069759
C142	C	1.405375	0.143392	1.569759
H143	H	0.666880	-0.442772	0.374665
H144	H	1.166880	0.057228	0.874665
F145	F	1.018786	-0.925203	0.272972
F146	F	1.518786	-0.425203	0.772972
H147	H	0.978166	-0.270710	0.660090
H148	H	1.478166	0.229290	1.160090
H149	H	0.978118	-0.270663	1.063726
H150	H	1.478118	0.229337	1.563726
H151	H	0.807810	-0.793129	0.339363
H152	H	1.307810	-0.293129	0.839363
F153	F	0.931197	-0.925857	0.187583
F154	F	1.431197	-0.425857	0.687583
F155	F	0.823887	-0.925027	0.217701
F156	F	1.323887	-0.425027	0.717701
F157	F	0.895133	-0.494379	0.870037
F158	F	1.395133	0.005621	1.370037
H159	H	0.548174	-0.442738	0.374712
H160	H	1.048174	0.057262	0.874712
F161	F	0.473354	-0.368945	0.418683
F162	F	0.973354	0.131055	0.918683
H163	H	0.868239	-0.919730	0.399862
H164	H	1.368239	-0.419730	0.899862
F165	F	0.993049	-0.926954	0.381026
F166	F	1.493049	-0.426954	0.881026
H167	H	0.832676	-0.442591	0.659996
H168	H	1.332676	0.057409	1.159996
F169	F	0.793345	-0.927401	0.336264
F170	F	1.293345	-0.427401	0.836264
H171	H	0.914448	-0.235588	0.743150
H172	H	1.414448	0.264412	1.243150
F173	F	0.136355	-0.454498	0.384866
F174	F	0.636355	0.045502	0.884866
H175	H	0.832680	-0.442602	0.541282
H176	H	1.332680	0.057398	1.041282
H177	H	0.978139	-0.270682	0.945019
H178	H	1.478139	0.229318	1.445019
H179	H	0.832627	-0.442546	1.063632
H180	H	1.332627	0.057454	1.563632
F181	F	0.915676	-0.218891	0.870041
F182	F	1.415676	0.281109	1.370041
F183	F	0.932061	-0.786507	0.187617
F184	F	1.432061	-0.286507	0.687617
F185	F	0.136359	-0.258620	0.219722
F186	F	0.636359	0.241380	0.719722
F187	F	0.895159	-0.494396	0.734969
F188	F	1.395159	0.005604	1.234969
F189	F	0.822620	-0.454410	0.936733
F190	F	1.322620	0.045590	1.436733
F191	F	0.824868	-0.785234	0.217074
F192	F	1.324868	-0.285234	0.717074
H193	H	0.346447	-0.367421	0.404617
H194	H	0.846447	0.132579	0.904617
F195	F	0.675070	-0.258739	0.219532
F196	F	1.175070	0.241261	0.719532
F197	F	0.271430	-0.258653	0.219673
F198	F	0.771430	0.241347	0.719673
F199	F	1.020886	-0.785082	0.277784
F200	F	1.520886	-0.285082	0.777784
F201	F	0.988211	-0.258885	0.533209
F202	F	1.488211	0.241115	1.033209
F203	F	0.271425	-0.454541	0.384811
F204	F	0.771425	0.045459	0.884811
H205	H	0.346269	-0.345815	0.199807
H206	H	0.846269	0.154185	0.699807
H207	H	0.464973	-0.345836	0.199764
H208	H	0.964973	0.154164	0.699764
H209	H	0.868121	-0.792500	0.399551
H210	H	1.368121	-0.292500	0.899551
F211	F	0.539995	-0.258716	0.219579
F212	F	1.039995	0.241284	0.719579
H213	H	0.984837	-0.792772	0.369204
H214	H	1.484837	-0.292772	0.869204
