data_functionalizedCrystal
_audit_creation_method	'MofGen! by Chris Wilmer'
_symmetry_space_group_name_H-M	'P1'
_symmetry_Int_Tables_number	1
_symmetry_cell_setting	triclinic
loop_
_symmetry_equiv_pos_as_xyz
  x,y,z
_cell_length_a	11.792241
_cell_length_b	15.995350
_cell_length_c	10.868271
_cell_angle_alpha	89.997096
_cell_angle_beta	89.999893
_cell_angle_gamma	83.842895
loop_
_atom_site_label
_atom_site_type_symbol
_atom_site_fract_x
_atom_site_fract_y
_atom_site_fract_z
O1	O	1.505951	0.114763	-0.102196
O2	O	2.005951	0.614763	0.397804
O3	O	1.175511	0.126591	-0.102224
O4	O	1.675511	0.626591	0.397776
O5	O	1.349764	-0.001170	-0.102208
O6	O	1.849764	0.498830	0.397792
O7	O	1.331698	0.242524	-0.102212
O8	O	1.831698	0.742524	0.397788
O9	O	1.349750	-0.001175	0.102436
O10	O	1.849750	0.498825	0.602436
O11	O	1.175497	0.126586	0.102420
O12	O	1.675497	0.626586	0.602420
O13	O	1.505937	0.114758	0.102448
O14	O	2.005937	0.614758	0.602448
Zn15	Zn	1.340715	0.120671	0.134926
Zn16	Zn	1.840715	0.620671	0.634926
Zn17	Zn	1.340734	0.120678	-0.134702
Zn18	Zn	1.840734	0.620678	0.365298
O19	O	1.331684	0.242519	0.102432
O20	O	1.831684	0.742519	0.602432
C21	C	1.133220	0.125845	0.000094
C22	C	1.633220	0.625845	0.500094
C23	C	1.007224	0.123621	0.000084
C24	C	1.507224	0.623621	0.500084
C25	C	0.776546	0.119532	0.000119
C26	C	1.276546	0.619532	0.500119
C27	C	0.904913	0.121804	0.000099
C28	C	1.404913	0.621804	0.500099
C29	C	1.349010	-0.032370	0.000112
C30	C	1.849010	0.467630	0.500112
C31	C	1.346771	-0.125331	0.000104
C32	C	1.846771	0.374669	0.500104
C33	C	1.338730	-0.463115	0.000108
C34	C	1.838730	0.036885	0.500108
C35	C	1.214630	-0.416244	-0.000362
C36	C	1.714630	0.083756	0.499638
C37	C	1.216870	-0.319544	0.000100
C38	C	1.716870	0.180456	0.500100
C39	C	1.342718	-0.295536	0.000105
C40	C	1.842718	0.204464	0.500105
C41	C	1.403921	-0.336339	0.116971
C42	C	1.903921	0.163661	0.616971
C43	C	1.400803	-0.432989	0.117068
C44	C	1.900803	0.067011	0.617068
C45	C	1.403383	-0.433329	-0.115651
C46	C	1.903383	0.066671	0.384349
C47	C	1.403354	-0.336384	-0.117195
C48	C	1.903354	0.163616	0.382805
C49	C	1.344979	-0.200829	0.000108
C50	C	1.844979	0.299171	0.500108
C51	C	1.336473	-0.557823	0.000113
C52	C	1.836473	-0.057823	0.500113
C53	C	1.548229	0.115504	0.000127
C54	C	2.048229	0.615504	0.500127
C55	C	1.674224	0.117727	0.000130
C56	C	2.174224	0.617727	0.500130
C57	C	1.332438	0.273719	0.000110
C58	C	1.832438	0.773719	0.500110
C59	C	1.334677	0.366680	0.000109
C60	C	1.834677	0.866680	0.500109
N61	N	1.340710	0.120666	0.318940
N62	N	1.840710	0.620666	0.818940
N63	N	1.340747	0.120676	-0.318716
N64	N	1.840747	0.620676	0.181284
C65	C	1.340728	0.120676	0.569946
C66	C	1.840728	0.620676	1.069946
C67	C	1.340714	0.120673	0.430269
C68	C	1.840714	0.620673	0.930269
H69	H	1.168760	-0.291338	-0.083674
H70	H	1.668760	0.208662	0.416326
H71	H	1.494881	-0.464675	-0.116432
H72	H	1.994881	0.035325	0.383568
H73	H	1.165035	-0.434999	-0.084168
H74	H	1.665035	0.065001	0.415832
O75	O	1.350132	-0.303922	-0.220308
O76	O	1.850132	0.196078	0.279692
C77	C	1.354734	-0.216227	-0.223289
C78	C	1.854734	0.283773	0.276711
H79	H	1.429270	-0.199523	-0.164717
H80	H	1.929270	0.300477	0.335283
H81	H	1.366918	-0.195293	-0.322241
H82	H	1.866918	0.304707	0.177759
H83	H	1.271737	-0.182953	-0.185323
H84	H	1.771737	0.317047	0.314677
O85	O	1.512834	-0.317518	-0.125400
O86	O	2.012834	0.182482	0.374600
C87	C	1.537099	-0.266689	-0.024815
C88	C	2.037099	0.233311	0.475185
H89	H	1.476303	-0.276645	0.054108
H90	H	1.976303	0.223355	0.554108
H91	H	1.628744	-0.284524	0.006584
H92	H	2.128744	0.215476	0.506584
H93	H	1.525874	-0.197798	-0.053801
H94	H	2.025874	0.302202	0.446199
O95	O	1.155597	-0.439968	0.098918
O96	O	1.655597	0.060032	0.598918
C97	C	1.058671	-0.476797	0.058807
C98	C	1.558671	0.023203	0.558807
H99	H	1.073252	-0.501360	-0.039006
H100	H	1.573252	-0.001360	0.460994
H101	H	1.043281	-0.531116	0.122423
H102	H	1.543281	-0.031116	0.622423
H103	H	0.981105	-0.427699	0.060570
H104	H	1.481105	0.072301	0.560570
H105	H	1.168425	-0.291901	0.084008
H106	H	1.668425	0.208099	0.584008
O107	O	1.347352	-0.455012	0.221186
O108	O	1.847352	0.044988	0.721186
C109	C	1.235312	-0.414171	0.223683
C110	C	1.735312	0.085829	0.723683
H111	H	1.206813	-0.396563	0.125977
H112	H	1.706813	0.103437	0.625977
H113	H	1.175457	-0.458098	0.264973
H114	H	1.675457	0.041902	0.764973
H115	H	1.233067	-0.354828	0.282118
H116	H	1.733067	0.145172	0.782118
O117	O	1.509549	-0.470882	0.123257
O118	O	2.009549	0.029118	0.623257
C119	C	1.571757	-0.447052	0.020609
C120	C	2.071757	0.052948	0.520609
H121	H	1.529881	-0.384820	-0.017367
H122	H	2.029881	0.115180	0.482633
H123	H	1.662982	-0.439510	0.049703
H124	H	2.162982	0.060490	0.549703
H125	H	1.572712	-0.497553	-0.053511
H126	H	2.072712	0.002447	0.446489
O127	O	1.514261	-0.319096	0.122333
O128	O	2.014261	0.180904	0.622333
C129	C	1.566611	-0.356620	0.228290
C130	C	2.066611	0.143380	0.728290
H131	H	1.518754	-0.411338	0.258687
H132	H	2.018754	0.088662	0.758687
H133	H	1.658914	-0.380762	0.206539
H134	H	2.158914	0.119238	0.706539
H135	H	1.564496	-0.308104	0.305324
H136	H	2.064496	0.191896	0.805324
O137	O	1.353360	-0.302643	0.220758
O138	O	1.853360	0.197357	0.720758
C139	C	1.433969	-0.264138	0.290794
C140	C	1.933969	0.235862	0.790794
H141	H	1.505754	-0.247361	0.228236
H142	H	2.005754	0.252639	0.728236
H143	H	1.390775	-0.204530	0.335419
H144	H	1.890775	0.295470	0.835419
H145	H	1.470560	-0.309386	0.365360
H146	H	1.970560	0.190614	0.865360
O147	O	1.354821	-0.458077	-0.221209
O148	O	1.854821	0.041923	0.278791
C149	C	1.261632	-0.502777	-0.192026
C150	C	1.761632	-0.002777	0.307974
H151	H	1.228973	-0.484180	-0.096082
H152	H	1.728973	0.015820	0.403918
H153	H	1.190531	-0.487125	-0.262039
H154	H	1.690531	0.012875	0.237961
H155	H	1.290034	-0.573170	-0.194358
H156	H	1.790034	-0.073170	0.305642
