data_functionalizedCrystal
_audit_creation_method	'MofGen! by Chris Wilmer'
_symmetry_space_group_name_H-M	'P1'
_symmetry_Int_Tables_number	1
_symmetry_cell_setting	triclinic
loop_
_symmetry_equiv_pos_as_xyz
  x,y,z
_cell_length_a	11.792241
_cell_length_b	10.654556
_cell_length_c	9.730223
_cell_angle_alpha	89.998711
_cell_angle_beta	89.996207
_cell_angle_gamma	84.340476
loop_
_atom_site_label
_atom_site_type_symbol
_atom_site_fract_x
_atom_site_fract_y
_atom_site_fract_z
O1	O	0.159453	1.667383	-0.114239
O2	O	0.659453	2.167383	0.385761
O3	O	0.174634	1.301862	-0.114253
O4	O	0.674634	1.801862	0.385747
O5	O	0.001894	1.493493	-0.114236
O6	O	0.501894	1.993493	0.385764
O7	O	0.332193	1.475752	-0.114256
O8	O	0.832193	1.975752	0.385744
O9	O	0.001891	1.493481	0.114344
O10	O	0.501891	1.993481	0.614344
O11	O	0.174631	1.301851	0.114327
O12	O	0.674631	1.801851	0.614327
O13	O	0.159451	1.667371	0.114341
O14	O	0.659451	2.167371	0.614341
Zn15	Zn	0.167041	1.484609	0.150626
Zn16	Zn	0.667041	1.984609	0.650626
Zn17	Zn	0.167044	1.484624	-0.150538
Zn18	Zn	0.667044	1.984624	0.349462
O19	O	0.332191	1.475741	0.114324
O20	O	0.832191	1.975741	0.614324
C21	C	0.173516	1.255062	0.000035
C22	C	0.673516	1.755062	0.500035
C23	C	0.170177	1.115629	0.000030
C24	C	0.670177	1.615629	0.500030
C25	C	0.165476	0.919103	-0.124558
C26	C	0.665476	1.419103	0.375442
C27	C	0.168607	1.050116	-0.124566
C28	C	0.668607	1.550116	0.375434
C29	C	0.168604	1.050122	0.124644
C30	C	0.668604	1.550122	0.624644
C31	C	0.165466	0.919113	0.124651
C32	C	0.665466	1.419113	0.624651
C33	C	-0.040401	1.492373	0.000054
C34	C	0.459599	1.992373	0.500054
C35	C	-0.166423	1.489037	0.000052
C36	C	0.333577	1.989037	0.500052
C37	C	-0.397149	1.482904	0.000029
C38	C	0.102851	1.982904	0.500029
C39	C	-0.268756	1.486312	0.000042
C40	C	0.231244	1.986312	0.500042
C41	C	0.374486	1.476861	0.000032
C42	C	0.874486	1.976861	0.500032
C43	C	0.500507	1.480197	0.000024
C44	C	1.000507	1.980197	0.500024
C45	C	0.160568	1.714172	0.000050
C46	C	0.660568	2.214172	0.500050
C47	C	0.163907	1.853605	0.000046
C48	C	0.663907	2.353605	0.500046
N49	N	0.167038	1.484608	0.356163
N50	N	0.667038	1.984608	0.856163
C51	C	0.090578	1.569496	0.571988
C52	C	0.590578	2.069496	1.071988
C53	C	0.090579	1.569489	0.428105
C54	C	0.590579	2.069489	0.928105
C55	C	0.243509	1.399738	0.428110
C56	C	0.743509	1.899738	0.928110
C57	C	0.243512	1.399752	0.571991
C58	C	0.743512	1.899752	1.071991
N59	N	0.167041	1.484630	0.643926
N60	N	0.667041	1.984630	1.143926
H61	H	0.164206	0.865771	-0.226019
H62	H	0.664206	1.365771	0.273981
H63	H	0.164187	0.865783	0.226125
H64	H	0.664187	1.365783	0.726125
H65	H	0.169875	1.103474	0.226093
H66	H	0.669875	1.603474	0.726093
F67	F	0.324903	1.309426	0.648558
F68	F	0.824903	1.809426	1.148558
H69	H	0.028312	1.638610	0.630555
H70	H	0.528312	2.138610	1.130555
H71	H	0.169883	1.103439	-0.226032
H72	H	0.669883	1.603439	0.273968
F73	F	0.324889	1.309406	0.351542
F74	F	0.824889	1.809406	0.851542
F75	F	0.009200	1.659818	0.351549
F76	F	0.509200	2.159818	0.851549
