data_functionalizedCrystal
_audit_creation_method	'MofGen! by Chris Wilmer'
_symmetry_space_group_name_H-M	'P1'
_symmetry_Int_Tables_number	1
_symmetry_cell_setting	triclinic
loop_
_symmetry_equiv_pos_as_xyz
  x,y,z
_cell_length_a	17.699104
_cell_length_b	10.654551
_cell_length_c	16.776229
_cell_angle_alpha	89.998873
_cell_angle_beta	90.008015
_cell_angle_gamma	83.888473
loop_
_atom_site_label
_atom_site_type_symbol
_atom_site_fract_x
_atom_site_fract_y
_atom_site_fract_z
O1	O	1.005080	0.158922	0.066301
O2	O	0.784835	0.179556	0.066299
O3	O	0.900021	-0.013588	0.066298
O4	O	0.889894	0.352066	0.066302
O5	O	0.900004	-0.013578	-0.066278
O6	O	0.784818	0.179566	-0.066278
O7	O	1.005063	0.158932	-0.066275
Zn8	Zn	0.894938	0.169251	-0.087326
Zn9	Zn	0.894960	0.169238	0.087349
O10	O	0.889877	0.352077	-0.066275
C11	C	0.756625	0.178817	0.000010
C12	C	0.672594	0.176586	0.000010
C13	C	0.148364	0.277373	0.000019
C14	C	0.227321	0.279462	0.000021
C15	C	0.275217	0.166079	0.000020
C16	C	0.244153	0.050600	0.000025
C17	C	0.165197	0.048512	0.000028
C18	C	0.562573	0.059017	0.000012
C19	C	0.641533	0.061114	0.000006
C20	C	0.624696	0.289968	0.000005
C21	C	0.545740	0.287880	0.000009
C22	C	0.514683	0.172401	0.000017
C23	C	0.429069	0.170137	0.000016
C24	C	0.360830	0.168342	0.000015
C25	C	0.899269	-0.060368	0.000011
C26	C	0.897044	-0.199772	0.000015
C27	C	0.896008	-0.265264	0.072283
C28	C	0.893911	-0.396248	0.072284
C29	C	0.893888	-0.396238	-0.072258
C30	C	0.895979	-0.265255	-0.072258
C31	C	0.846802	-0.565508	0.159109
C32	C	0.845780	-0.631006	0.231381
C33	C	0.890740	-0.598252	0.295187
C34	C	0.936740	-0.500005	0.286725
C35	C	0.937769	-0.434515	0.214452
C36	C	0.892792	-0.467263	0.150648
C37	C	0.943095	-0.095995	-0.159078
C38	C	0.944129	-0.030503	-0.231352
C39	C	0.899174	-0.063256	-0.295165
C40	C	0.853185	-0.161509	-0.286711
C41	C	0.852151	-0.227001	-0.214436
C42	C	0.897105	-0.194238	-0.150623
C43	C	1.033273	0.159671	0.000015
C44	C	1.117305	0.161903	0.000021
C45	C	0.890630	0.398856	0.000014
C46	C	0.892855	0.538261	0.000016
N47	N	0.894928	0.169259	-0.206537
C48	C	0.945987	0.083726	-0.751702
C49	C	0.945983	0.083735	-0.668250
C50	C	0.894964	0.169232	-0.626536
C51	C	0.843951	0.254734	-0.668280
C52	C	0.843959	0.254731	-0.751730
C53	C	0.843919	0.254753	-0.331732
C54	C	0.843913	0.254748	-0.248276
C55	C	0.945943	0.083757	-0.248252
C56	C	0.945951	0.083753	-0.331703
C57	C	0.894941	0.169260	-0.373438
C58	C	0.894946	0.169251	-0.463927
C59	C	0.894955	0.169236	-0.536050
N60	N	0.894976	0.169219	0.206561
H61	H	0.252605	0.373490	0.000027
Cl62	Cl	0.796673	-0.202697	-0.366937
Cl63	Cl	0.794337	-0.350525	-0.203809
H64	H	0.802367	0.324375	-0.214314
H65	H	0.979696	-0.069307	-0.107115
H66	H	0.802383	0.324373	-0.365707
H67	H	0.810182	-0.592175	0.107160
H68	H	0.680530	-0.031222	0.000007
Cl69	Cl	0.900484	0.019068	-0.386029
Cl70	Cl	0.779816	0.362225	-0.615842
Cl71	Cl	0.779831	0.362218	-0.804199
Cl72	Cl	0.088158	0.419921	0.000014
Cl73	Cl	0.485532	0.430424	0.000008
Cl74	Cl	0.523539	-0.086156	0.000042
H75	H	0.283157	-0.041718	0.000028
Cl76	Cl	0.126152	-0.096657	0.000031
Cl77	Cl	0.663744	0.435144	-0.000000
Cl78	Cl	0.897342	-0.182946	0.163141
H79	H	0.975222	-0.354526	0.207561
H80	H	0.973355	-0.473356	0.338683
Cl81	Cl	0.889463	-0.680610	0.386038
H82	H	0.893023	-0.449571	-0.131100
H83	H	0.987529	0.014099	-0.785660
H84	H	0.987520	0.014121	-0.634268
Cl85	Cl	1.010074	-0.023734	-0.195780
Cl86	Cl	1.001953	0.093006	-0.241984
Cl87	Cl	0.787951	-0.754508	0.242019
Cl88	Cl	1.010088	-0.023736	-0.384139
