data_functionalizedCrystal
_audit_creation_method	'MofGen! by Chris Wilmer'
_symmetry_space_group_name_H-M	'P1'
_symmetry_Int_Tables_number	1
_symmetry_cell_setting	triclinic
loop_
_symmetry_equiv_pos_as_xyz
  x,y,z
_cell_length_a	13.897449
_cell_length_b	12.759399
_cell_length_c	12.759393
_cell_angle_alpha	90.032031
_cell_angle_beta	90.022613
_cell_angle_gamma	90.014949
loop_
_atom_site_label
_atom_site_type_symbol
_atom_site_fract_x
_atom_site_fract_y
_atom_site_fract_z
Zn1	Zn	-1.474718	0.418208	-0.594095
Zn2	Zn	-1.474619	0.593927	-0.418414
Zn3	Zn	-1.313407	0.418263	-0.418422
Zn4	Zn	-1.313396	0.593845	-0.594042
O5	O	-1.394035	0.506061	-0.506243
O6	O	-1.609686	0.441530	-0.570809
O7	O	-1.453198	0.570682	-0.271394
O8	O	-1.334851	0.271234	-0.441750
O9	O	-1.609614	0.570630	-0.441737
O10	O	-1.453365	0.271195	-0.570817
O11	O	-1.334756	0.441622	-0.271399
O12	O	-1.178424	0.441542	-0.441699
O13	O	-1.334831	0.570490	-0.741071
O14	O	-1.178416	0.570542	-0.570727
O15	O	-1.453354	0.441450	-0.741109
O16	O	-1.453187	0.740938	-0.441686
O17	O	-1.334736	0.740877	-0.570720
C18	C	-1.143421	0.506040	-0.506209
C19	C	-1.036207	0.506056	-0.506219
C20	C	-1.394102	0.505955	-0.780277
C21	C	-1.394131	0.505909	-0.897053
C22	C	-1.393976	0.779028	-0.506219
C23	C	-1.394039	0.895805	-0.506244
C24	C	-0.839912	0.506055	-0.506239
C25	C	-0.949144	0.506052	-0.506225
C26	C	-0.645628	0.506076	-0.506268
C27	C	-0.752842	0.506065	-0.506252
C28	C	-1.394121	0.232028	-0.506290
C29	C	-1.394157	0.115251	-0.506310
C30	C	-1.455786	0.950663	-0.439133
C31	C	-1.455848	1.060387	-0.439168
C32	C	-1.332407	1.060385	-0.573429
C33	C	-1.332351	0.950663	-0.573398
C34	C	-1.569703	1.210267	-0.401786
C35	C	-1.631442	1.265129	-0.334659
C36	C	-1.646283	1.229591	-0.232149
C37	C	-1.599371	1.139193	-0.196747
C38	C	-1.537624	1.084336	-0.263869
C39	C	-1.522802	1.119873	-0.366393
C40	C	-1.218495	0.800781	-0.610769
C41	C	-1.156743	0.745923	-0.677887
C42	C	-1.141892	0.781459	-0.780398
C43	C	-1.188787	0.871861	-0.815797
C44	C	-1.250539	0.926719	-0.748679
C45	C	-1.265392	0.891175	-0.646169
C46	C	-1.332481	0.438696	-0.951918
C47	C	-1.332503	0.438663	-1.061642
C48	C	-1.455835	0.573062	-1.061628
C49	C	-1.455807	0.573098	-0.951905
C50	C	-1.218795	0.401063	-1.211586
C51	C	-1.157153	0.333832	-1.266455
C52	C	-1.142368	0.231328	-1.230865
C53	C	-1.189239	0.196034	-1.140408
C54	C	-1.250889	0.263259	-1.085546
C55	C	-1.265655	0.365777	-1.121134
C56	C	-1.569516	0.610688	-0.801959
C57	C	-1.631171	0.677908	-0.747095
C58	C	-1.645966	0.780414	-0.782682
C59	C	-1.599111	0.815705	-0.873142
C60	C	-1.537457	0.748485	-0.928007
C61	C	-1.522660	0.645980	-0.892411
C62	C	-1.394023	0.506091	-0.233276
C63	C	-1.394182	0.505840	-0.116500
H64	H	-1.506018	0.906001	-0.384453
H65	H	-1.696180	0.835140	-0.738007
H66	H	-1.499431	1.010734	-0.235046
H67	H	-1.230816	0.484534	-1.240564
C68	C	-1.172459	0.910959	-0.928558
H69	H	-1.209227	0.972660	-0.940023
H70	H	-1.191923	0.858286	-0.976755
H71	H	-1.106144	0.926071	-0.938453
H72	H	-1.611452	1.110271	-0.113269
C73	C	-1.682692	0.639098	-0.647575
H74	H	-1.665036	0.568428	-0.634221
H75	H	-1.750341	0.643329	-0.657374
H76	H	-1.664458	0.681594	-0.589718
H77	H	-1.696553	1.274267	-0.177494
C78	C	-1.683050	1.364554	-0.373603
H79	H	-1.665385	1.377854	-0.444277
H80	H	-1.664916	1.422472	-0.331151
H81	H	-1.750694	1.354665	-0.369418
C82	C	-1.553388	1.249351	-0.514553
H83	H	-1.509908	1.203727	-0.549467
H84	H	-1.527206	1.318107	-0.512749
H85	H	-1.612991	1.250314	-0.551022
H86	H	-1.289054	0.234521	-1.011901
C87	C	-1.105590	0.372657	-1.365944
H88	H	-1.123208	0.443343	-1.379274
H89	H	-1.123804	0.330189	-1.423821
H90	H	-1.037942	0.368404	-1.356105
H91	H	-1.282181	1.105064	-0.628102
H92	H	-1.288728	1.000326	-0.777511
H93	H	-1.091606	0.736783	-0.835043
H94	H	-1.118564	0.672308	-0.649059
H95	H	-1.506050	0.627764	-1.106301
C96	C	-1.234814	0.761701	-0.497997
H97	H	-1.198024	0.700018	-0.486521
H98	H	-1.301119	0.746586	-0.488075
H99	H	-1.215338	0.814393	-0.449818
H100	H	-1.282260	0.383986	-0.907261
H101	H	-1.177205	0.112560	-1.111445
H102	H	-1.092177	0.176589	-1.275547
C103	C	-1.485918	0.787302	-1.027512
H104	H	-1.503554	0.857981	-1.040851
H105	H	-1.504131	0.744820	-1.085379
H106	H	-1.418267	0.783069	-1.017685
H107	H	-1.611162	0.899172	-0.902122
H108	H	-1.557448	0.527230	-0.772954
