data_functionalizedCrystal
_audit_creation_method	'MofGen! by Chris Wilmer'
_symmetry_space_group_name_H-M	'P1'
_symmetry_Int_Tables_number	1
_symmetry_cell_setting	triclinic
loop_
_symmetry_equiv_pos_as_xyz
  x,y,z
_cell_length_a	10.686220
_cell_length_b	15.297327
_cell_length_c	15.297738
_cell_angle_alpha	69.242341
_cell_angle_beta	96.100065
_cell_angle_gamma	103.240265
loop_
_atom_site_label
_atom_site_type_symbol
_atom_site_fract_x
_atom_site_fract_y
_atom_site_fract_z
Zn1	Zn	1.960165	-0.331130	0.459985
Zn2	Zn	1.897752	-0.463886	0.335507
Zn3	Zn	1.718032	-0.320322	0.320537
Zn4	Zn	1.717944	-0.502677	0.502875
O5	O	1.823473	-0.404504	0.404726
O6	O	2.128470	-0.337029	0.431788
O7	O	1.847829	-0.424085	0.205118
O8	O	1.776309	-0.189881	0.314821
O9	O	2.082615	-0.434565	0.340334
O10	O	1.954203	-0.197821	0.417272
O11	O	1.715790	-0.318609	0.194119
O12	O	1.541437	-0.356223	0.356410
O13	O	1.776158	-0.500678	0.625589
O14	O	1.541372	-0.490198	0.490373
O15	O	1.954117	-0.374643	0.594078
O16	O	1.847743	-0.600907	0.381923
O17	O	1.715638	-0.629406	0.504888
C18	C	1.495618	-0.426248	0.426422
C19	C	1.355360	-0.435576	0.435729
C20	C	1.774946	-0.649351	0.449702
C21	C	1.754308	-0.754095	0.468966
C22	C	1.971562	-0.989881	0.267323
C23	C	1.990952	-0.891468	0.249219
C24	C	1.931793	-0.857120	0.304154
C25	C	1.853241	-0.921194	0.377196
C26	C	1.833842	-1.019617	0.395297
C27	C	1.794072	-0.886856	0.432129
C28	C	1.715520	-0.950930	0.505171
C29	C	1.696125	-1.049343	0.523269
C30	C	1.755284	-1.083691	0.468334
C31	C	1.813471	-0.788433	0.414028
C32	C	1.675750	-0.818169	0.542002
C33	C	1.656361	-0.916582	0.560106
C34	C	2.152609	-0.382676	0.382947
C35	C	2.292867	-0.373374	0.373666
C36	C	1.872090	-0.443193	0.644058
C37	C	1.892807	-0.459680	0.746047
C38	C	1.872228	-0.158701	0.359592
C39	C	1.893005	-0.053955	0.340359
C40	C	1.775132	-0.365892	0.166308
C41	C	1.754712	-0.349124	0.064254
C42	C	1.971285	-0.522343	0.799690
C43	C	1.990759	-0.537824	0.895512
C44	C	1.931749	-0.490651	0.937702
C45	C	1.853262	-0.427992	0.884061
C46	C	1.833794	-0.412503	0.788228
C47	C	1.794257	-0.380811	0.926241
C48	C	1.715770	-0.318153	0.872599
C49	C	1.696305	-0.302667	0.776776
C50	C	1.755316	-0.349840	0.734586
C51	C	1.813725	-0.396301	1.022073
C52	C	1.676234	-0.286461	1.010612
C53	C	1.656760	-0.270979	0.914790
H54	H	1.877429	-0.736272	0.354556
H55	H	1.947610	-0.503260	1.015725
Cl56	Cl	2.045920	-1.033067	0.198269
H57	H	1.947583	-0.776986	0.289408
Cl58	Cl	1.375923	-0.280132	0.280631
H59	H	1.632406	-0.251639	0.733102
Cl60	Cl	1.597367	-1.129891	0.615090
Cl61	Cl	2.089415	-0.616598	0.962940
H62	H	1.301553	-0.495975	0.495984
H63	H	1.592403	-0.968765	0.619578
Cl64	Cl	1.602051	-0.227149	1.063643
H65	H	1.627575	-0.790205	0.586734
H66	H	1.877631	-0.447317	1.065739
H67	H	2.054907	-0.839302	0.189748
H68	H	2.019331	-0.560739	0.765328
Cl69	Cl	1.730325	-1.207387	0.490751
H70	H	1.739464	-0.337238	0.656560
H71	H	1.592855	-0.219961	0.871102
