data_functionalizedCrystal
_audit_creation_method	'MofGen! by Chris Wilmer'
_symmetry_space_group_name_H-M	'P1'
_symmetry_Int_Tables_number	1
_symmetry_cell_setting	triclinic
loop_
_symmetry_equiv_pos_as_xyz
  x,y,z
_cell_length_a	15.698487
_cell_length_b	12.970454
_cell_length_c	12.970454
_cell_angle_alpha	59.999702
_cell_angle_beta	89.999561
_cell_angle_gamma	60.001054
loop_
_atom_site_label
_atom_site_type_symbol
_atom_site_fract_x
_atom_site_fract_y
_atom_site_fract_z
Zr1	Zr	0.820619	1.128536	-0.135312
O2	O	0.684606	1.343622	-0.299933
O3	O	0.862313	0.913448	-0.084847
O4	O	0.862315	1.128538	-0.299937
O5	O	0.684604	1.128531	0.084825
O6	O	1.002496	1.128542	-0.299940
O7	O	0.684604	1.128532	-0.084843
O8	O	1.002492	0.743785	0.084817
O9	O	0.684607	1.513288	-0.299932
O10	O	0.984712	1.001921	-0.063326
O11	O	0.880096	1.001917	0.063297
O12	O	0.880098	1.255158	-0.189944
O13	O	0.775482	1.255154	-0.063321
Zr14	Zr	1.044191	1.128541	0.135284
Zr15	Zr	1.044191	1.128543	-0.135316
Zr16	Zr	0.820618	1.128535	0.135288
Zr17	Zr	0.820620	1.399134	-0.135311
Zr18	Zr	1.044189	0.857943	0.135283
O19	O	1.002497	1.343629	0.084819
O20	O	1.002497	1.343631	-0.299939
O21	O	0.684605	1.343620	0.084825
O22	O	1.180204	0.913455	0.299906
O23	O	1.180204	0.913457	-0.084853
O24	O	0.862312	0.913446	0.299911
O25	O	1.180206	1.128546	-0.084852
O26	O	1.002495	1.128539	0.299910
O27	O	0.862314	1.128535	0.299912
O28	O	1.180206	1.128545	0.084815
O29	O	0.862317	1.513293	-0.299936
O30	O	1.002492	0.743784	0.299908
O31	O	1.180203	0.743789	0.299905
O32	O	1.180203	0.743790	0.084814
O33	O	0.684606	1.513287	-0.084842
O34	O	0.862317	1.513292	-0.084845
O35	O	0.984711	1.001919	0.189916
O36	O	1.089327	1.001923	0.063293
O37	O	0.984713	1.255160	-0.063325
O38	O	0.880098	1.255157	0.063298
C39	C	0.652749	1.128530	-0.000008
C40	C	0.557837	1.128528	-0.000007
C41	C	0.932404	1.128537	0.338466
C42	C	0.932404	1.128536	0.453342
C43	C	0.932407	1.467015	-0.000013
C44	C	0.932408	1.581891	-0.000012
C45	C	0.384052	1.128553	-0.000019
C46	C	0.480755	1.128545	-0.000015
C47	C	1.212060	1.128547	-0.000019
C48	C	1.306972	1.128550	-0.000021
C49	C	0.932402	0.790062	-0.000015
C50	C	0.932401	0.675186	-0.000015
C51	C	0.932405	1.128540	-0.338493
C52	C	0.932405	1.128541	-0.453370
C53	C	1.212058	0.790070	-0.000020
C54	C	1.306969	0.675197	-0.000022
C55	C	0.932402	0.790060	0.338464
C56	C	0.932401	0.675184	0.453341
C57	C	1.212057	0.790069	0.338459
C58	C	1.306969	0.675195	0.453334
C59	C	0.652752	1.467009	-0.338487
C60	C	0.557841	1.581882	-0.453361
C61	C	0.652752	1.467007	-0.000007
C62	C	0.557840	1.581880	-0.000005
C63	C	0.932408	1.467017	-0.338492
C64	C	0.932408	1.581893	-0.453368
C65	C	1.296933	0.621250	-0.066128
C66	C	1.386104	0.513330	-0.066156
C67	C	1.485310	0.459351	-0.000069
C68	C	1.495345	0.513308	0.066040
C69	C	1.406175	0.621234	0.066059
C70	C	1.406158	0.621251	0.441184
C71	C	1.495346	0.513330	0.549111
C72	C	1.485342	0.459348	0.669186
C73	C	1.386143	0.513302	0.681333
C74	C	1.296957	0.621229	0.573408
C75	C	0.458651	1.635839	-0.441212
C76	C	0.369464	1.743794	-0.549138
C77	C	0.379467	1.797782	-0.669213
C78	C	0.478667	1.743820	-0.681360
C79	C	0.567852	1.635875	-0.573435
C80	C	0.567877	1.635838	0.066090
C81	C	0.478706	1.743788	0.066087
C82	C	0.379499	1.797771	-0.000004
C83	C	0.369464	1.743809	-0.066107
C84	C	0.458634	1.635868	-0.066111
H85	H	1.216162	0.665199	-0.119960
F86	F	0.447981	1.578398	-0.313429
F87	F	0.284604	1.912652	0.000013
H88	H	0.648648	1.591893	0.119917
F89	F	0.263898	1.801200	-0.536184
H90	H	0.288678	1.787778	-0.119916
F91	F	1.375513	0.455835	0.809136
H92	H	0.306838	1.885677	-0.757083
F93	F	1.580205	0.344484	-0.000099
F94	F	0.447936	1.578445	-0.136455
F95	F	1.416873	0.678630	0.136430
F96	F	1.416828	0.678690	0.313402
F97	F	0.489297	1.801291	-0.809163
F98	F	0.673415	1.578453	-0.586385
F99	F	1.600911	0.455922	0.536157
H100	H	0.486896	1.787706	0.119921
H101	H	1.216196	0.665136	0.583318
F102	F	1.600937	0.455842	0.136373
H103	H	1.377913	0.469411	-0.119988
F104	F	1.580272	0.344480	0.784040
