data_functionalizedCrystal
_audit_creation_method	'MofGen! by Chris Wilmer'
_symmetry_space_group_name_H-M	'P1'
_symmetry_Int_Tables_number	1
_symmetry_cell_setting	triclinic
loop_
_symmetry_equiv_pos_as_xyz
  x,y,z
_cell_length_a	13.262533
_cell_length_b	13.339070
_cell_length_c	14.048226
_cell_angle_alpha	89.996915
_cell_angle_beta	105.910356
_cell_angle_gamma	99.431353
loop_
_atom_site_label
_atom_site_type_symbol
_atom_site_fract_x
_atom_site_fract_y
_atom_site_fract_z
O1	O	1.432340	0.136433	0.291680
O2	O	1.131090	0.151266	0.213684
O3	O	1.247142	-0.003560	0.243734
O4	O	1.316289	0.291259	0.261631
O5	O	1.247120	-0.003569	0.402049
O6	O	1.131068	0.151257	0.372000
O7	O	1.432318	0.136424	0.449996
Zn8	Zn	1.281690	0.143839	0.436134
Zn9	Zn	1.281719	0.143851	0.227546
O10	O	1.316267	0.291249	0.419947
C11	C	1.091735	0.150430	0.282656
C12	C	0.974498	0.147940	0.252302
C13	C	1.235450	-0.041303	0.319866
C14	C	1.200634	-0.153751	0.310848
C15	C	0.643973	0.140916	0.511933
C16	C	0.754124	0.143260	0.540456
C17	C	0.809223	0.144430	0.468420
C18	C	0.754160	0.143256	0.367855
C19	C	0.643999	0.140920	0.339329
C20	C	0.809249	0.144434	0.295817
C21	C	0.754186	0.143260	0.195252
C22	C	0.644037	0.140923	0.166730
C23	C	0.588938	0.139753	0.238767
C24	C	0.919410	0.146770	0.324343
C25	C	0.919436	0.146774	0.151739
C26	C	0.809285	0.144429	0.123216
C27	C	1.471348	-0.517404	0.380939
C28	C	1.504063	-0.411753	0.389418
C29	C	1.428208	-0.347248	0.369776
C30	C	1.319633	-0.388403	0.341654
C31	C	1.286915	-0.494064	0.333181
C32	C	1.243776	-0.323908	0.322018
C33	C	1.135200	-0.365063	0.293896
C34	C	1.102488	-0.470714	0.285425
C35	C	1.178342	-0.535219	0.305067
C36	C	1.276494	-0.218247	0.330491
C37	C	1.092061	-0.194907	0.282733
C38	C	1.059346	-0.300557	0.274254
C39	C	1.471674	0.137260	0.381023
C40	C	1.588911	0.139749	0.411370
C41	C	1.327959	0.328992	0.343812
C42	C	1.362775	0.441441	0.352824
N43	N	1.281678	0.143830	0.578492
N44	N	1.281737	0.143852	0.085190
C45	C	1.333096	0.075301	0.641623
C46	C	1.333103	0.075301	0.741283
C47	C	1.281697	0.143834	0.777810
C48	C	1.230272	0.212366	0.714670
C49	C	1.230260	0.212361	0.615010
C50	C	1.230305	0.212373	0.922392
C51	C	1.230319	0.212380	1.022059
C52	C	1.333148	0.075313	1.048665
C53	C	1.333135	0.075308	0.949006
C54	C	1.281712	0.143841	0.885872
H55	H	0.898912	0.146339	0.491651
H56	H	1.014079	-0.504218	0.262533
H57	H	0.964298	0.147730	0.093081
H58	H	1.364896	-0.184749	0.353388
H59	H	1.188458	0.268186	1.051792
H60	H	1.375018	0.019512	1.100074
O61	O	1.180159	0.278835	0.750063
C62	C	1.071331	0.261882	0.697543
H63	H	1.047207	0.180784	0.663911
H64	H	1.056796	0.317873	0.635934
C65	C	1.034304	0.376884	0.810134
C66	C	1.004673	0.277275	0.768834
H67	H	0.993185	0.386384	0.854107
H68	H	1.107624	0.388309	0.845516
H69	H	1.022191	0.423532	0.758785
H70	H	1.016799	0.230630	0.820181
H71	H	0.931353	0.265843	0.733462
H72	H	0.970942	-0.334081	0.251357
H73	H	0.599102	0.139971	0.570574
H74	H	1.374970	0.019499	0.792685
H75	H	1.030294	-0.142386	0.266744
H76	H	1.454852	-0.261223	0.376681
O77	O	1.180510	0.278989	0.860998
C78	C	1.254988	0.341757	0.822634
H79	H	1.325477	0.301806	0.825946
H80	H	1.283929	0.416652	0.868522
C81	C	1.115452	0.412187	0.710200
C82	C	1.202024	0.363114	0.714260
H83	H	1.082782	0.425366	0.643351
H84	H	1.065275	0.369902	0.736048
H85	H	1.139583	0.474594	0.748446
H86	H	1.177891	0.300703	0.676025
H87	H	1.252196	0.405389	0.688402
O88	O	1.609566	-0.371945	0.416702
C89	C	1.669502	-0.451531	0.432246
H90	H	1.619156	-0.523420	0.389230
H91	H	1.694356	-0.466367	0.514638
C92	C	1.831246	-0.333020	0.448870
C93	C	1.769413	-0.421312	0.396030
H94	H	1.892878	-0.314379	0.426534
H95	H	1.790867	-0.279400	0.438401
H96	H	1.851946	-0.345395	0.517526
H97	H	1.748702	-0.408932	0.327377
H98	H	1.809791	-0.474929	0.406486
H99	H	0.599209	0.139978	0.084845
H100	H	0.798948	0.144214	0.622336
O101	O	1.180460	0.279072	0.553762
C102	C	1.226721	0.379423	0.590089
H103	H	1.311012	0.380324	0.639290
H104	H	1.177138	0.408897	0.635105
C105	C	1.126841	0.446900	0.442070
C106	C	1.230372	0.448008	0.502492
H107	H	1.129090	0.489209	0.388037
H108	H	1.095671	0.379292	0.417596
H109	H	1.085533	0.471460	0.479594
H110	H	1.271674	0.423437	0.464971
H111	H	1.261550	0.515614	0.526957
H112	H	0.764438	0.143475	0.041334
O113	O	1.544981	-0.580105	0.399841
C114	C	1.531569	-0.641934	0.314387
H115	H	1.489118	-0.603464	0.246080
H116	H	1.481988	-0.718869	0.320090
C117	C	1.693381	-0.704763	0.389508
C118	C	1.641249	-0.657509	0.305611
H119	H	1.761035	-0.714376	0.384095
H120	H	1.702415	-0.663111	0.447081
H121	H	1.652052	-0.768871	0.394250
H122	H	1.682572	-0.593398	0.300876
H123	H	1.632224	-0.699151	0.248036
O124	O	0.972984	0.147769	0.421988
C125	C	1.023046	0.061490	0.440133
H126	H	1.035022	0.032633	0.368304
H127	H	0.971036	-0.000763	0.469255
C128	C	1.117100	0.125762	0.605865
C129	C	1.131817	0.090325	0.517645
H130	H	1.184194	0.143546	0.653682
H131	H	1.083370	0.183888	0.593643
H132	H	1.073755	0.073878	0.630120
H133	H	1.175150	0.142212	0.493385
H134	H	1.165558	0.032208	0.529866
H135	H	1.151711	-0.621250	0.298161
H136	H	1.374961	0.019498	0.611892
O137	O	1.382894	0.008495	0.913628
C138	C	1.336523	-0.091774	0.926162
H139	H	1.252237	-0.092533	0.931687
H140	H	1.386045	-0.121181	0.996917
C141	C	1.436351	-0.159625	0.830027
C142	C	1.332826	-0.160557	0.836804
H143	H	1.434075	-0.202055	0.774910
H144	H	1.467596	-0.092071	0.821585
H145	H	1.477608	-0.184128	0.888995
H146	H	1.291575	-0.136042	0.777842
H147	H	1.301574	-0.228108	0.845234
H148	H	0.499242	0.137835	0.215547
