data_functionalizedCrystal
_audit_creation_method	'MofGen! by Chris Wilmer'
_symmetry_space_group_name_H-M	'P1'
_symmetry_Int_Tables_number	1
_symmetry_cell_setting	triclinic
loop_
_symmetry_equiv_pos_as_xyz
  x,y,z
_cell_length_a	10.540539
_cell_length_b	8.559649
_cell_length_c	7.681481
_cell_angle_alpha	85.086760
_cell_angle_beta	84.202085
_cell_angle_gamma	102.847922
loop_
_atom_site_label
_atom_site_type_symbol
_atom_site_fract_x
_atom_site_fract_y
_atom_site_fract_z
O1	O	-0.029542	-2.104686	-0.146402
O2	O	0.035941	-1.640228	-0.146408
O3	O	-0.182616	-1.883054	-0.146403
O4	O	0.189016	-1.861861	-0.146407
O5	O	-0.209571	-1.912941	0.146456
O6	O	0.008986	-1.670116	0.146450
O7	O	-0.056497	-2.134573	0.146457
Zn8	Zn	-0.028035	-1.907089	0.192951
Zn9	Zn	0.007479	-1.867712	-0.192902
O10	O	0.162061	-1.891748	0.146451
C11	C	0.027426	-1.595699	0.000020
C12	C	0.042198	-1.418487	0.000017
C13	C	-0.243230	-1.896408	0.000023
C14	C	-0.383679	-1.891652	0.000014
N15	N	-0.052274	-1.933975	0.456286
C16	C	-0.547970	-1.709382	-0.000646
C17	C	-0.401917	-1.714270	0.000013
C18	C	-0.469667	-1.994083	0.167252
C19	C	-0.615591	-1.988043	0.167393
C20	C	-0.585834	-1.957664	-0.165642
C21	C	-0.438819	-1.959072	-0.167853
C22	C	0.222675	-1.878393	0.000021
C23	C	0.363125	-1.883148	0.000019
C24	C	-0.047981	-2.179102	0.000025
C25	C	-0.062752	-2.356313	0.000016
N26	N	0.031708	-1.840839	-0.456237
H27	H	-0.341248	-1.634867	-0.119869
H28	H	-0.677614	-2.116388	0.174981
O29	O	0.134022	-1.727607	0.453870
C30	C	0.213588	-1.803314	0.347247
H31	H	0.153352	-1.924774	0.319787
H32	H	0.299728	-1.822577	0.418189
C33	C	0.339491	-1.546736	0.205767
C34	C	0.265505	-1.695910	0.172028
H35	H	0.371522	-1.480483	0.097687
H36	H	0.285889	-1.495729	0.277605
H37	H	0.411265	-1.562810	0.264890
H38	H	0.193725	-1.679836	0.112927
H39	H	0.319096	-1.746912	0.100176
O40	O	-0.154436	-2.047625	0.545913
C41	C	-0.145258	-2.201349	0.500925
H42	H	-0.039214	-2.198319	0.450133
H43	H	-0.210357	-2.236469	0.394038
C44	C	-0.320790	-2.329643	0.727164
C45	C	-0.190542	-2.325925	0.664794
H46	H	-0.348728	-2.406490	0.828243
H47	H	-0.326978	-2.226077	0.757470
H48	H	-0.375023	-2.358905	0.638076
H49	H	-0.136309	-2.296644	0.753873
H50	H	-0.184346	-2.429490	0.634507
H51	H	-0.581848	-1.651768	0.118609
H52	H	-0.558196	-1.627073	-0.120575
O53	O	-0.459762	-2.150167	0.174464
C54	C	-0.374768	-2.169140	0.027950
H55	H	-0.306320	-2.047655	-0.024375
H56	H	-0.434848	-2.217069	-0.079573
C57	C	-0.377295	-2.438435	0.148099
C58	C	-0.293219	-2.289227	0.083842
H59	H	-0.326996	-2.512516	0.182571
H60	H	-0.434562	-2.425656	0.246806
H61	H	-0.427357	-2.478355	0.058486
H62	H	-0.243172	-2.249301	0.173462
H63	H	-0.235942	-2.302002	-0.014849
H64	H	-0.432314	-1.947485	0.291703
O65	O	-0.368442	-1.869481	-0.315284
C66	C	-0.269809	-1.746301	-0.266954
H67	H	-0.247007	-1.782598	-0.129366
H68	H	-0.305204	-1.629743	-0.267566
C69	C	-0.173060	-1.675585	-0.568182
C70	C	-0.145047	-1.720171	-0.399199
H71	H	-0.096103	-1.659460	-0.649760
H72	H	-0.239514	-1.758569	-0.600744
H73	H	-0.202559	-1.578458	-0.568667
H74	H	-0.115566	-1.817306	-0.398711
H75	H	-0.078586	-1.637202	-0.366640
H76	H	-0.599710	-1.887318	-0.292398
O77	O	-0.658071	-2.110312	-0.167315
C78	C	-0.719230	-2.120051	-0.322296
H79	H	-0.662362	-2.019998	-0.427353
H80	H	-0.824027	-2.105839	-0.293079
C81	C	-0.791136	-2.407927	-0.260108
C82	C	-0.721284	-2.285048	-0.389146
H83	H	-0.792410	-2.509707	-0.301342
H84	H	-0.749937	-2.401367	-0.155691
H85	H	-0.878461	-2.396063	-0.235773
H86	H	-0.633958	-2.296902	-0.413463
H87	H	-0.762469	-2.291615	-0.493569
O88	O	0.162838	-1.320069	-0.000224
C89	C	0.191768	-1.207252	-0.151927
H90	H	0.096564	-1.192681	-0.202493
H91	H	0.254183	-1.251753	-0.258131
C92	C	0.384593	-1.061483	-0.043758
C93	C	0.267661	-1.043576	-0.105856
H94	H	0.431413	-0.960521	-0.015345
H95	H	0.365106	-1.137492	0.058444
H96	H	0.436590	-1.098572	-0.132273
H97	H	0.215660	-1.006507	-0.017335
H98	H	0.287141	-0.967556	-0.208043
H99	H	-0.364132	-1.658885	0.120094
H100	H	-0.648691	-1.937713	0.292404
H101	H	-0.427208	-2.087366	-0.177950
H102	H	-0.163903	-1.438655	0.000009
