data_functionalizedCrystal
_audit_creation_method	'MofGen! by Chris Wilmer'
_symmetry_space_group_name_H-M	'P1'
_symmetry_Int_Tables_number	1
_symmetry_cell_setting	triclinic
loop_
_symmetry_equiv_pos_as_xyz
  x,y,z
_cell_length_a	16.109301
_cell_length_b	27.732048
_cell_length_c	14.586319
_cell_angle_alpha	89.991275
_cell_angle_beta	89.999213
_cell_angle_gamma	83.052068
loop_
_atom_site_label
_atom_site_type_symbol
_atom_site_fract_x
_atom_site_fract_y
_atom_site_fract_z
O1	O	1.102362	0.062130	-0.076193
O2	O	0.860204	0.069862	-0.076208
O3	O	0.988804	-0.004369	-0.076183
O4	O	0.973762	0.136361	-0.076218
O5	O	0.988795	-0.004370	0.076298
O6	O	0.860195	0.069861	0.076272
O7	O	1.102353	0.062129	0.076288
Cu8	Cu	0.981273	0.065995	0.090203
Cu9	Cu	0.981283	0.065996	-0.090123
O10	O	0.973753	0.136360	0.076262
C11	C	0.829228	0.069548	0.000030
C12	C	0.736945	0.068609	0.000025
C13	C	0.514154	0.110473	0.000025
C14	C	0.427445	0.109587	0.000031
C15	C	0.448409	0.021514	0.000050
C16	C	0.535117	0.022401	0.000050
C17	C	0.567987	0.066882	0.000033
C18	C	0.394570	0.065109	0.000039
C19	C	0.300556	0.064148	0.000045
C20	C	0.662007	0.067843	0.000028
C21	C	0.988483	-0.022378	0.000060
C22	C	0.987533	-0.076037	0.000068
C23	C	1.057541	-0.414559	0.000025
C24	C	1.054013	-0.616233	0.000012
O25	O	1.118031	-0.647221	-0.000024
N26	N	0.977759	-0.635676	0.000008
C27	C	0.902381	-0.604697	0.000001
O28	O	0.837441	-0.625862	-0.000012
C29	C	0.905910	-0.403024	0.000008
C30	C	0.982169	-0.383584	0.000021
C31	C	1.133794	-0.395119	0.000038
C32	C	1.134675	-0.344703	0.000046
C33	C	1.059303	-0.313728	0.000042
C34	C	0.983050	-0.333168	0.000029
C35	C	0.830533	-0.372045	-0.000006
C36	C	0.831422	-0.321624	-0.000006
C37	C	0.907681	-0.302184	0.000007
C38	C	0.908559	-0.251777	0.000034
N39	N	0.984814	-0.232334	0.000038
C40	C	1.060186	-0.263310	0.000042
C41	C	0.900534	-0.710579	-0.000000
C42	C	0.899652	-0.760997	-0.000000
C43	C	1.051284	-0.772530	0.000009
C44	C	1.052166	-0.722111	0.000016
C45	C	0.976789	-0.691136	0.000004
C46	C	1.062030	-0.157433	0.000060
C47	C	1.062905	-0.107012	0.000072
C48	C	0.911273	-0.095484	0.000058
C49	C	0.910398	-0.145900	0.000051
C50	C	0.985783	-0.176874	0.000049
O51	O	0.844576	-0.220761	0.000059
O52	O	1.125116	-0.242135	0.000035
C53	C	1.056660	-0.464975	0.000017
C54	C	0.980407	-0.484415	0.000005
C55	C	0.905035	-0.453440	0.000001
C56	C	0.979525	-0.534833	0.000005
C57	C	1.054897	-0.565808	0.000009
C58	C	1.131151	-0.546365	0.000013
C59	C	1.132032	-0.495950	0.000021
C60	C	0.828781	-0.472883	-0.000004
C61	C	0.827906	-0.523299	-0.000011
C62	C	0.903278	-0.554274	-0.000007
C63	C	1.133328	0.062443	0.000048
C64	C	1.225612	0.063382	0.000047
C65	C	0.974073	0.154369	0.000017
C66	C	0.975024	0.208028	0.000004
N67	N	0.981272	0.065994	0.217035
N68	N	0.981291	0.065994	-0.216955
C69	C	1.038234	0.033135	0.452053
C70	C	1.038237	0.033134	0.548034
C71	C	0.924323	0.098854	0.548020
C72	C	0.924317	0.098852	0.452041
C73	C	0.981278	0.065993	0.404060
C74	C	0.981286	0.065994	0.596020
C75	C	0.981288	0.065993	0.700087
C76	C	0.981275	0.065994	0.299986
H77	H	0.578951	-0.013099	0.000059
H78	H	0.849907	-0.070255	0.000058
O79	O	1.145158	-0.086044	0.000072
H80	H	1.197419	-0.116056	0.000060
H81	H	0.540913	0.146692	0.000018
O82	O	0.369379	0.156603	0.000019
H83	H	0.406806	0.187680	0.000002
O84	O	0.412952	-0.026459	0.000059
H85	H	0.434613	-0.047403	0.062217
H86	H	0.877948	0.125607	0.587097
O87	O	0.862885	0.134295	0.400266
H88	H	0.823287	0.157150	0.449753
H89	H	1.084615	0.006377	0.587107
O90	O	1.212444	-0.579782	0.000022
H91	H	1.265625	-0.557799	0.000037
H92	H	1.084614	0.006379	0.412988
O93	O	0.750116	-0.288218	-0.000014
H94	H	0.763534	-0.249892	-0.000014
O95	O	1.143338	-0.190835	0.000065
H96	H	1.146557	-0.214089	0.062210
H97	H	1.196773	-0.328880	0.000053
H98	H	1.195175	-0.420334	0.000038
O99	O	1.134415	-0.701144	0.000013
H100	H	1.186673	-0.731158	0.000008
H101	H	0.768435	-0.387864	-0.000022
O102	O	1.132582	-0.805943	0.000007
H103	H	1.119149	-0.844266	-0.000003
H104	H	0.837554	-0.776820	0.000005
H105	H	0.839149	-0.685363	-0.000010
O106	O	0.828150	-0.166872	0.000039
H107	H	0.775888	-0.136861	0.000034
O108	O	1.214283	-0.474985	0.000017
H109	H	1.266538	-0.505000	0.000007
O110	O	0.747479	-0.439479	0.000009
H111	H	0.710950	-0.446387	-0.062134
H112	H	0.765802	-0.539121	-0.000014
