data_functionalizedCrystal
_audit_creation_method	'MofGen! by Chris Wilmer'
_symmetry_space_group_name_H-M	'P1'
_symmetry_Int_Tables_number	1
_symmetry_cell_setting	triclinic
loop_
_symmetry_equiv_pos_as_xyz
  x,y,z
_cell_length_a	14.853566
_cell_length_b	19.188924
_cell_length_c	13.930277
_cell_angle_alpha	89.993371
_cell_angle_beta	89.995631
_cell_angle_gamma	83.388189
loop_
_atom_site_label
_atom_site_type_symbol
_atom_site_fract_x
_atom_site_fract_y
_atom_site_fract_z
O1	O	1.195859	0.091151	-0.079772
O2	O	1.695859	0.591151	0.420228
O3	O	0.933339	0.102011	-0.079788
O4	O	1.433339	0.602011	0.420212
O5	O	1.072178	-0.005050	-0.079768
O6	O	1.572178	0.494950	0.420232
O7	O	1.057020	0.198212	-0.079792
O8	O	1.557020	0.698212	0.420208
O9	O	1.072159	-0.005052	0.079893
O10	O	1.572159	0.494948	0.579893
O11	O	0.933320	0.102009	0.079873
O12	O	1.433320	0.602009	0.579873
O13	O	1.195840	0.091149	0.079890
O14	O	1.695840	0.591149	0.579890
Zn15	Zn	1.064577	0.096578	0.105231
Zn16	Zn	1.564577	0.596578	0.605231
Zn17	Zn	1.064602	0.096581	-0.105130
Zn18	Zn	1.564602	0.596581	0.394870
O19	O	1.057001	0.198209	0.079870
O20	O	1.557001	0.698209	0.579870
C21	C	0.899743	0.101518	0.000041
C22	C	1.399743	0.601518	0.500041
C23	C	0.799668	0.100044	0.000035
C24	C	1.299668	0.600044	0.500035
C25	C	0.376528	0.093810	-0.086979
C26	C	0.876528	0.593810	0.413021
C27	C	0.376529	0.093808	0.087090
C28	C	0.876529	0.593808	0.587090
C29	C	0.470555	0.095192	0.087087
C30	C	0.970555	0.595192	0.587087
C31	C	0.517572	0.095887	0.000049
C32	C	1.017572	0.595887	0.500049
C33	C	0.470563	0.095197	-0.086985
C34	C	0.970563	0.595197	0.413015
C35	C	0.517570	0.095890	0.174120
C36	C	1.017570	0.595890	0.674120
C37	C	0.611602	0.097275	0.174120
C38	C	1.111602	0.597275	0.674120
C39	C	0.658622	0.097964	0.087082
C40	C	1.158622	0.597964	0.587082
C41	C	0.611607	0.097273	0.000044
C42	C	1.111607	0.597273	0.500044
C43	C	0.658624	0.097967	-0.086994
C44	C	1.158624	0.597967	0.413006
C45	C	0.611612	0.097272	-0.174033
C46	C	1.111612	0.597272	0.325967
C47	C	0.517583	0.095886	-0.174024
C48	C	1.017583	0.595886	0.325976
C49	C	0.752651	0.099350	0.087072
C50	C	1.252651	0.599350	0.587072
C51	C	0.752659	0.099354	-0.087000
C52	C	1.252659	0.599354	0.413000
C53	C	1.071679	-0.031064	0.000063
C54	C	1.571679	0.468936	0.500063
C55	C	1.070208	-0.108573	0.000066
C56	C	1.570208	0.391427	0.500066
C57	C	1.069533	-0.144973	-0.086966
C58	C	1.569533	0.355027	0.413034
C59	C	1.068138	-0.217801	-0.086973
C60	C	1.568138	0.282199	0.413027
C61	C	1.067438	-0.254227	0.000056
C62	C	1.567438	0.245773	0.500056
C63	C	1.068109	-0.217818	0.087099
C64	C	1.568109	0.282182	0.587099
C65	C	1.069494	-0.144991	0.087104
C66	C	1.569494	0.355009	0.587104
N67	N	1.116558	-0.373727	0.064833
N68	N	1.616558	0.126273	0.564833
N69	N	1.115244	-0.442910	0.064823
N70	N	1.615244	0.057090	0.564823
C71	C	1.063262	-0.473650	0.000047
C72	C	1.563262	0.026350	0.500047
N73	N	1.012655	-0.432595	-0.064733
N74	N	1.512655	0.067405	0.435267
N75	N	1.013973	-0.363406	-0.064725
N76	N	1.513973	0.136594	0.435275
C77	C	1.065935	-0.333195	0.000060
C78	C	1.565935	0.166805	0.500060
C79	C	1.061073	-0.589018	-0.086999
C80	C	1.561073	-0.089018	0.413001
C81	C	1.059673	-0.661846	-0.087003
C82	C	1.559673	-0.161846	0.412997
C83	C	1.059652	-0.661862	0.087072
C84	C	1.559652	-0.161862	0.587072
C85	C	1.061043	-0.589035	0.087074
C86	C	1.561043	-0.089035	0.587074
C87	C	1.061758	-0.552617	0.000035
C88	C	1.561758	-0.052617	0.500035
C89	C	1.229436	0.091642	0.000059
C90	C	1.729436	0.591642	0.500059
C91	C	1.329511	0.093116	0.000058
C92	C	1.829511	0.593116	0.500058
C93	C	1.057500	0.224223	0.000036
C94	C	1.557500	0.724223	0.500036
C95	C	1.058971	0.301733	0.000027
C96	C	1.558971	0.801733	0.500027
N97	N	1.064566	0.096576	0.248798
N98	N	1.564566	0.596576	0.748798
N99	N	1.064620	0.096578	-0.248696
N100	N	1.564620	0.596578	0.251304
C101	C	1.003122	0.143969	0.701058
C102	C	1.503122	0.643969	1.201058
C103	C	1.126107	0.049188	0.701045
C104	C	1.626107	0.549188	1.201045
C105	C	1.126097	0.049186	0.600549
C106	C	1.626097	0.549186	1.100549
C107	C	1.064599	0.096577	0.550303
C108	C	1.564599	0.596577	1.050303
C109	C	1.003111	0.143970	0.600553
C110	C	1.503111	0.643970	1.100553
C111	C	1.187589	0.001799	0.550292
C112	C	1.687589	0.501799	1.050292
C113	C	1.187581	0.001795	0.449790
C114	C	1.687581	0.501795	0.949790
C115	C	1.126078	0.049183	0.399542
C116	C	1.626078	0.549183	0.899542
C117	C	1.064588	0.096577	0.449798
C118	C	1.564588	0.596577	0.949798
C119	C	1.003090	0.143968	0.399552
C120	C	1.503090	0.643968	0.899552
C121	C	0.941594	0.191360	0.449806
C122	C	1.441594	0.691360	0.949806
C123	C	0.941608	0.191358	0.550305
C124	C	1.441608	0.691358	1.050305
C125	C	1.126064	0.049185	0.299044
C126	C	1.626064	0.549185	0.799044
C127	C	1.003079	0.143969	0.299047
C128	C	1.503079	0.643969	0.799047
H129	H	0.479281	0.095329	0.244981
H130	H	0.979281	0.595329	0.744981
H131	H	1.061601	-0.559398	0.157945
H132	H	1.561601	-0.059398	0.657945
C133	C	1.057485	-0.773501	0.164357
C134	C	1.557485	-0.273501	0.664357
C135	C	1.058856	-0.701891	0.182739
C136	C	1.558856	-0.201891	0.682739
H137	H	1.056988	-0.798213	0.223421
H138	H	1.556988	-0.298213	0.723421
H139	H	1.004712	-0.780146	0.128581
H140	H	1.504712	-0.280146	0.628581
H141	H	1.109834	-0.790709	0.128617
H142	H	1.609834	-0.290709	0.628617
H143	H	1.006503	-0.684681	0.218473
H144	H	1.506503	-0.184681	0.718473
H145	H	1.111634	-0.695242	0.218530
H146	H	1.611634	-0.195242	0.718530
C147	C	1.240889	-0.119031	0.419128
C148	C	1.740889	0.380969	0.919128
C149	C	1.255165	-0.050379	0.394674
C150	C	1.755165	0.449621	0.894674
H151	H	1.282607	-0.151263	0.385131
H152	H	1.782607	0.348737	0.885131
H153	H	1.249629	-0.125726	0.486187
H154	H	1.749629	0.374274	0.986187
H155	H	1.180749	-0.126665	0.402633
H156	H	1.680749	0.373335	0.902633
H157	H	1.315304	-0.042743	0.411176
H158	H	1.815304	0.457257	0.911176
H159	H	1.246432	-0.043681	0.327600
H160	H	1.746432	0.456319	0.827600
H161	H	0.338241	0.093248	0.157952
H162	H	0.838241	0.593248	0.657952
H163	H	0.790923	0.099923	0.157938
H164	H	1.290923	0.599923	0.657938
H165	H	0.891541	0.229943	0.591228
H166	H	1.391541	0.729943	1.091228
C167	C	0.260418	0.152223	-0.187971
C168	C	0.760418	0.652223	0.312029
C169	C	0.324857	0.093049	-0.182650
C170	C	0.824857	0.593049	0.317350
H171	H	0.228523	0.151755	-0.247037
H172	H	0.728523	0.651755	0.252963
H173	H	0.218964	0.151604	-0.136143
H174	H	0.718964	0.651604	0.363857
H175	H	0.290071	0.193443	-0.184357
H176	H	0.790071	0.693443	0.315643
H177	H	0.295203	0.051829	-0.186257
H178	H	0.795203	0.551829	0.313743
H179	H	0.366318	0.093662	-0.234492
H180	H	0.866318	0.593662	0.265508
H181	H	1.061649	-0.559364	-0.157871
H182	H	1.561649	-0.059364	0.342129
H183	H	1.237663	-0.036782	0.591206
H184	H	1.737663	0.463218	1.091206
H185	H	0.479297	0.095319	-0.244886
H186	H	0.979297	0.595319	0.255114
C187	C	1.069330	-0.152324	0.259168
C188	C	1.569330	0.347676	0.759168
C189	C	1.070243	-0.104976	0.182777
C190	C	1.570243	0.395024	0.682777
H191	H	1.069799	-0.127619	0.318231
H192	H	1.569799	0.372381	0.818231
H193	H	1.016231	-0.175450	0.255542
H194	H	1.516231	0.324550	0.755542
H195	H	1.121353	-0.186007	0.255545
H196	H	1.621353	0.313993	0.755545
H197	H	1.018216	-0.071296	0.186396
H198	H	1.518216	0.428704	0.686396
H199	H	1.123347	-0.081839	0.186405
H200	H	1.623347	0.418161	0.686405
H201	H	1.067536	-0.247481	0.157960
H202	H	1.567536	0.252519	0.657960
H203	H	0.790934	0.099917	-0.157877
H204	H	1.290934	0.599917	0.342123
H205	H	0.952996	0.182558	0.258143
H206	H	1.452996	0.682558	0.758143
C207	C	0.886982	0.233441	0.295747
C208	C	1.386982	0.733441	0.795747
C209	C	0.873996	0.243451	0.394569
C210	C	1.373996	0.743451	0.894569
H211	H	0.845247	0.265597	0.261645
H212	H	1.345247	0.765597	0.761645
H213	H	0.947109	0.241113	0.279278
H214	H	1.447109	0.741113	0.779278
H215	H	0.877382	0.186826	0.279296
H216	H	1.377382	0.686826	0.779296
H217	H	0.883603	0.290065	0.411020
H218	H	1.383603	0.790065	0.911020
H219	H	0.813855	0.235785	0.411044
H220	H	1.313855	0.735785	0.911044
H221	H	0.649872	0.097840	0.244993
H222	H	1.149872	0.597840	0.744993
C223	C	1.069411	-0.152277	-0.259031
C224	C	1.569411	0.347723	0.240969
C225	C	1.070304	-0.104943	-0.182638
C226	C	1.570304	0.395057	0.317362
H227	H	1.069880	-0.127561	-0.318093
H228	H	1.569880	0.372439	0.181907
H229	H	1.121430	-0.185953	-0.255409
H230	H	1.621430	0.314047	0.244591
H231	H	1.016308	-0.175411	-0.255406
H232	H	1.516308	0.324589	0.244594
H233	H	1.123411	-0.081812	-0.186258
H234	H	1.623411	0.418188	0.313742
H235	H	1.018280	-0.071254	-0.186261
H236	H	1.518280	0.428746	0.313739
H237	H	1.176137	0.010603	0.258131
H238	H	1.676137	0.510603	0.758131
C239	C	1.057550	-0.773473	-0.164304
C240	C	1.557550	-0.273473	0.335696
C241	C	1.058926	-0.701860	-0.182676
C242	C	1.558926	-0.201860	0.317324
H243	H	1.057084	-0.798175	-0.223370
H244	H	1.557084	-0.298175	0.276630
H245	H	1.109873	-0.790685	-0.128542
H246	H	1.609873	-0.290685	0.371458
H247	H	1.004751	-0.780126	-0.128551
H248	H	1.504751	-0.280126	0.371449
H249	H	1.111729	-0.695206	-0.218423
H250	H	1.611729	-0.195206	0.281577
H251	H	1.006598	-0.684643	-0.218453
H252	H	1.506598	-0.184643	0.281547
H253	H	0.953051	0.182553	0.741977
H254	H	1.453051	0.682553	1.241977
H255	H	1.176182	0.010607	0.741959
H256	H	1.676182	0.510607	1.241959
C257	C	0.755758	0.099401	-0.251319
C258	C	1.255758	0.599401	0.248681
C259	C	0.663300	0.098034	-0.269704
C260	C	1.163300	0.598034	0.230296
H261	H	0.787669	0.099868	-0.310381
H262	H	1.287669	0.599868	0.189619
H263	H	0.764116	0.140310	-0.215571
H264	H	1.264116	0.640310	0.284429
H265	H	0.778194	0.058944	-0.215549
H266	H	1.278194	0.558944	0.284451
H267	H	0.640861	0.138494	-0.305468
H268	H	1.140861	0.638494	0.194532
H269	H	0.654936	0.057121	-0.305467
H270	H	1.154936	0.557121	0.194533
C271	C	0.989109	-0.291929	-0.187942
C272	C	1.489109	0.208071	0.312058
C273	C	1.067389	-0.257834	-0.182636
C274	C	1.567389	0.242166	0.317364
H275	H	0.988643	-0.316642	-0.247000
H276	H	1.488643	0.183358	0.253000
H277	H	0.988497	-0.324029	-0.136103
H278	H	1.488497	0.175971	0.363897
H279	H	0.937096	-0.258235	-0.184338
H280	H	1.437096	0.241765	0.315662
H281	H	1.119402	-0.291529	-0.186233
H282	H	1.619402	0.208471	0.313767
H283	H	1.068009	-0.225731	-0.234490
H284	H	1.568009	0.274269	0.265510
