data_functionalizedCrystal
_audit_creation_method	'MofGen! by Chris Wilmer'
_symmetry_space_group_name_H-M	'P1'
_symmetry_Int_Tables_number	1
_symmetry_cell_setting	triclinic
loop_
_symmetry_equiv_pos_as_xyz
  x,y,z
_cell_length_a	21.295418
_cell_length_b	21.295416
_cell_length_c	21.295411
_cell_angle_alpha	89.980829
_cell_angle_beta	89.952143
_cell_angle_gamma	90.048540
loop_
_atom_site_label
_atom_site_type_symbol
_atom_site_fract_x
_atom_site_fract_y
_atom_site_fract_z
Zn1	Zn	-0.962357	0.250375	0.356314
Zn2	Zn	-0.462357	0.750375	0.856314
Zn3	Zn	-0.962259	0.355627	0.251044
Zn4	Zn	-0.462259	0.855627	0.751044
Zn5	Zn	-0.857080	0.250409	0.251016
Zn6	Zn	-0.357080	0.750409	0.751016
Zn7	Zn	-0.857050	0.355644	0.356232
Zn8	Zn	-0.357050	0.855644	0.856232
O9	O	-0.909686	0.303014	0.303651
O10	O	-0.409686	0.803014	0.803651
O11	O	-1.050433	0.264316	0.342395
O12	O	-0.550433	0.764316	0.842395
O13	O	-0.948279	0.341677	0.162950
O14	O	-0.448279	0.841677	0.662950
O15	O	-0.871098	0.162315	0.265006
O16	O	-0.371098	0.662315	0.765006
O17	O	-1.050362	0.341644	0.265053
O18	O	-0.550362	0.841644	0.765053
O19	O	-0.948445	0.162290	0.342368
O20	O	-0.448445	0.662290	0.842368
O21	O	-0.871004	0.264373	0.162930
O22	O	-0.371004	0.764373	0.662930
O23	O	-0.768986	0.264390	0.264927
O24	O	-0.268986	0.764390	0.764927
O25	O	-0.871047	0.341672	0.444333
O26	O	-0.371047	0.841672	0.944333
O27	O	-0.768964	0.341705	0.342230
O28	O	-0.268964	0.841705	0.842230
O29	O	-0.948415	0.264332	0.444392
O30	O	-0.448415	0.764332	0.944392
O31	O	-0.948250	0.443718	0.264975
O32	O	-0.448250	0.943718	0.764975
O33	O	-0.870952	0.443731	0.342257
O34	O	-0.370952	0.943731	0.842257
C35	C	-0.746135	0.303054	0.303567
C36	C	-0.246135	0.803054	0.803567
C37	C	-0.676167	0.303086	0.303546
C38	C	-0.176167	0.803086	0.803546
C39	C	-0.909604	0.466565	0.303624
C40	C	-0.409604	0.966565	0.803624
C41	C	-0.909627	0.536533	0.303633
C42	C	-0.409627	1.036533	0.803633
C43	C	-0.643305	0.343399	0.343735
C44	C	-0.143305	0.843399	0.843735
C45	C	-0.577562	0.343386	0.343758
C46	C	-0.077562	0.843386	0.843758
C47	C	-0.544684	0.303067	0.303582
C48	C	-0.044684	0.803067	0.803582
C49	C	-0.577554	0.262746	0.263390
C50	C	-0.077554	0.762746	0.763390
C51	C	-0.643295	0.262756	0.263372
C52	C	-0.143295	0.762756	0.763372
N53	N	-0.441408	0.298144	0.248517
N54	N	0.058592	0.798144	0.748517
N55	N	-0.378957	0.298139	0.248535
N56	N	0.121043	0.798139	0.748535
C57	C	-0.346609	0.303035	0.303634
C58	C	0.153391	0.803035	0.803634
N59	N	-0.379073	0.307949	0.358715
N60	N	0.120927	0.807949	0.858715
N61	N	-0.441530	0.307958	0.358696
N62	N	0.058470	0.807958	0.858696
C63	C	-0.473399	0.303052	0.303597
C64	C	0.026601	0.803052	0.803597
C65	C	-0.242462	0.343336	0.343852
C66	C	0.257538	0.843336	0.843852
C67	C	-0.176718	0.343319	0.343877
C68	C	0.323282	0.843319	0.843877
C69	C	-0.176711	0.262683	0.263503
C70	C	0.323289	0.762683	0.763503
C71	C	-0.242454	0.262696	0.263484
C72	C	0.257546	0.762696	0.763484
C73	C	-0.275325	0.303027	0.303658
C74	C	0.224675	0.803027	0.803658
C75	C	-0.073877	0.302984	0.303718
C76	C	0.426123	0.802984	0.803718
C77	C	-0.143845	0.302999	0.303701
C78	C	0.356155	0.802999	0.803701
C79	C	-0.949911	0.569373	0.263435
C80	C	-0.449911	1.069373	0.763435
C81	C	-0.949941	0.635115	0.263452
C82	C	-0.449941	1.135115	0.763452
C83	C	-0.909675	0.668016	0.303660
C84	C	-0.409675	1.168016	0.803660
C85	C	-0.869388	0.635169	0.343866
C86	C	-0.369388	1.135169	0.843866
C87	C	-0.869364	0.569427	0.343852
C88	C	-0.369364	1.069427	0.843852
N89	N	-0.854608	0.771300	0.308435
N90	N	-0.354608	1.271300	0.808435
N91	N	-0.854633	0.833751	0.308444
N92	N	-0.354633	1.333751	0.808444
C93	C	-0.909746	0.866090	0.303705
C94	C	-0.409746	1.366090	0.803705
N95	N	-0.964835	0.833619	0.298943
N96	N	-0.464835	1.333619	0.798943
N97	N	-0.964810	0.771162	0.298930
N98	N	-0.464810	1.271162	0.798930
C99	C	-0.909697	0.739301	0.303680
C100	C	-0.409697	1.239301	0.803680
C101	C	-0.950066	0.970215	0.263523
C102	C	-0.450066	1.470215	0.763523
C103	C	-0.950097	1.035959	0.263545
C104	C	-0.450097	1.535959	0.763545
C105	C	-0.869538	1.036011	0.343955
C106	C	-0.369538	1.536011	0.843955
C107	C	-0.869513	0.970269	0.343937
C108	C	-0.369513	1.470269	0.843937
C109	C	-0.909776	0.937375	0.303718
C110	C	-0.409776	1.437375	0.803718
C111	C	-0.909739	0.303000	0.467842
C112	C	-0.409739	0.803000	0.967842
C113	C	-0.909761	0.302995	0.537810
C114	C	-0.409761	0.802995	1.037810
C115	C	-0.909787	1.138823	0.303704
C116	C	-0.409787	1.638823	0.803704
C117	C	-0.909831	1.068855	0.303754
C118	C	-0.409831	1.568855	0.803754
C119	C	-0.909671	0.302981	0.140100
C120	C	-0.409671	0.802981	0.640100
C121	C	-0.909770	0.302810	0.070132
C122	C	-0.409770	0.802810	0.570132
C123	C	-0.950045	0.262722	0.570709
C124	C	-0.450045	0.762722	1.070709
C125	C	-0.950044	0.262694	0.636451
C126	C	-0.450044	0.762694	1.136451
C127	C	-0.909766	0.302951	0.669292
C128	C	-0.409766	0.802951	1.169292
C129	C	-0.869474	0.343227	0.636386
C130	C	-0.369474	0.843227	1.136386
C131	C	-0.869471	0.343249	0.570644
C132	C	-0.369471	0.843249	1.070644
N133	N	-0.904909	0.358021	0.772508
N134	N	-0.404909	0.858021	1.272508
N135	N	-0.904915	0.357998	0.834960
N136	N	-0.404915	0.857998	1.334960
C137	C	-0.909770	0.302887	0.867367
C138	C	-0.409770	0.802887	1.367367
N139	N	-0.914630	0.247799	0.834964
N140	N	-0.414630	0.747799	1.334964
N141	N	-0.914628	0.247822	0.772507
N142	N	-0.414628	0.747822	1.272507
C143	C	-0.909764	0.302932	0.740578
C144	C	-0.409764	0.802932	1.240578
C145	C	-0.950055	0.262581	0.971552
C146	C	-0.450055	0.762581	1.471552
C147	C	-0.950050	0.262553	1.037295
C148	C	-0.450050	0.762553	1.537295
C149	C	-0.869483	0.343092	1.037229
C150	C	-0.369483	0.843092	1.537229
C151	C	-0.869485	0.343114	0.971486
C152	C	-0.369485	0.843114	1.471486
C153	C	-0.909774	0.302860	0.938652
C154	C	-0.409774	0.802860	1.438652
H155	H	-0.670065	0.376238	0.376448
H156	H	-0.170065	0.876238	0.876448
C157	C	-0.825245	1.072194	0.388187
C158	C	-0.325245	1.572194	0.888187
C159	C	-0.780929	1.036067	0.432404
C160	C	-0.280929	1.536067	0.932404
C161	C	-0.736637	1.072253	0.476640
C162	C	-0.236637	1.572253	0.976640
C163	C	-0.736662	1.144566	0.476659
C164	C	-0.236662	1.644566	0.976659
C165	C	-0.780980	1.180696	0.432441
C166	C	-0.280980	1.680696	0.932441
C167	C	-0.825272	1.144511	0.388205
C168	C	-0.325272	1.644511	0.888205
H169	H	-0.780909	0.982533	0.432391
H170	H	-0.280909	1.482533	0.932391
H171	H	-0.703830	1.045506	0.509373
H172	H	-0.203830	1.545506	1.009373
H173	H	-0.703875	1.171352	0.509405
H174	H	-0.203875	1.671352	1.009405
H175	H	-0.781000	1.234230	0.432453
H176	H	-0.281000	1.734230	0.932453
H177	H	-0.858079	1.171257	0.355472
H178	H	-0.358079	1.671257	0.855472
H179	H	-0.836604	0.661961	0.376605
H180	H	-0.336604	1.161961	0.876605
C181	C	-0.278603	0.218360	0.219264
C182	C	0.221397	0.718360	0.719264
C183	C	-0.269641	0.146804	0.224523
C184	C	0.230359	0.646804	0.724523
C185	C	-0.305789	0.102465	0.180300
C186	C	0.194211	0.602465	0.680300
C187	C	-0.350899	0.129682	0.130817
C188	C	0.149101	0.629682	0.630817
C189	C	-0.359863	0.201241	0.125555
C190	C	0.140137	0.701241	0.625555
C191	C	-0.323715	0.245580	0.169779
C192	C	0.176285	0.745580	0.669779
H193	H	-0.236246	0.126653	0.261155
H194	H	0.263754	0.626653	0.761155
H195	H	-0.299153	0.049492	0.184195
H196	H	0.200847	0.549492	0.684195
H197	H	-0.377658	0.096859	0.098080
H198	H	0.122342	0.596859	0.598080
H199	H	-0.393258	0.221392	0.088923
H200	H	0.106742	0.721392	0.588923
H201	H	-0.330351	0.298554	0.165883
H202	H	0.169649	0.798554	0.665883
C203	C	-0.994206	0.533193	0.219198
C204	C	-0.494206	1.033193	0.719198
C205	C	-0.989108	0.542281	0.147632
C206	C	-0.489108	1.042281	0.647632
C207	C	-1.033404	0.506101	0.103397
C208	C	-0.533404	1.006101	0.603397
C209	C	-1.082800	0.460833	0.130727
C210	C	-0.582800	0.960833	0.630727
C211	C	-1.087900	0.451743	0.202296
C212	C	-0.587900	0.951743	0.702296
C213	C	-1.043604	0.487923	0.246532
C214	C	-0.543604	0.987923	0.746532
H215	H	-0.952541	0.575793	0.127398
H216	H	-0.452541	1.075793	0.627398
H217	H	-1.029628	0.512831	0.050416
H218	H	-0.529628	1.012831	0.550416
H219	H	-1.115591	0.434051	0.097981
H220	H	-0.615591	0.934051	0.597981
H221	H	-1.124467	0.418231	0.222531
H222	H	-0.624467	0.918231	0.722531
H223	H	-1.047380	0.481194	0.299513
H224	H	-0.547380	0.981194	0.799513
H225	H	-0.149963	0.376145	0.376607
H226	H	0.350037	0.876145	0.876607
C227	C	-0.994252	0.671251	0.219229
C228	C	-0.494252	1.171251	0.719229
C229	C	-0.967004	0.716506	0.169787
C230	C	-0.467004	1.216506	0.669787
C231	C	-1.011313	0.752640	0.125563
C232	C	-0.511313	1.252640	0.625563
C233	C	-1.082870	0.743519	0.130781
C234	C	-0.582870	1.243519	0.630781
C235	C	-1.110122	0.698261	0.180225
C236	C	-0.610122	1.198261	0.680225
C237	C	-1.065813	0.662127	0.224448
C238	C	-0.565813	1.162127	0.724448
H239	H	-0.914029	0.723260	0.165923
H240	H	-0.414029	1.223260	0.665923
H241	H	-0.991138	0.786142	0.088962
H242	H	-0.491138	1.286142	0.588962
H243	H	-1.115670	0.770267	0.098044
H244	H	-0.615670	1.270267	0.598044
H245	H	-1.163097	0.691507	0.184089
H246	H	-0.663097	1.191507	0.684089
H247	H	-1.085988	0.628625	0.261050
H248	H	-0.585988	1.128625	0.761050
H249	H	-0.836558	0.542689	0.376587
H250	H	-0.336558	1.042689	0.876587
C251	C	-0.994359	0.934027	0.219289
C252	C	-0.494359	1.434027	0.719289
C253	C	-1.038681	0.970153	0.175077
C254	C	-0.538681	1.470153	0.675077
C255	C	-1.082974	0.933966	0.130843
C256	C	-0.582974	1.433966	0.630843
C257	C	-1.082946	0.861653	0.130822
C258	C	-0.582946	1.361653	0.630822
C259	C	-1.038622	0.825523	0.175036
C260	C	-0.538622	1.325523	0.675036
C261	C	-0.994329	0.861710	0.219269
C262	C	-0.494329	1.361710	0.719269
H263	H	-1.038704	1.023687	0.175092
H264	H	-0.538704	1.523687	0.675092
H265	H	-1.115785	0.960713	0.098113
H266	H	-0.615785	1.460713	0.598113
H267	H	-1.115734	0.834866	0.098077
H268	H	-0.615734	1.334866	0.598077
H269	H	-1.038600	0.771989	0.175021
H270	H	-0.538600	1.271989	0.675021
H271	H	-0.961518	0.834963	0.251999
H272	H	-0.461518	1.334963	0.751999
H273	H	-0.149942	0.229851	0.230794
H274	H	0.350058	0.729851	0.730794
C275	C	-0.994417	1.072083	0.219325
C276	C	-0.494417	1.572083	0.719325
C277	C	-0.989307	1.063093	0.147755
C278	C	-0.489307	1.563093	0.647755
C279	C	-1.033628	1.099217	0.103536
C280	C	-0.533628	1.599217	0.603536
C281	C	-1.083059	1.144332	0.130887
C282	C	-0.583059	1.644332	0.630887
C283	C	-1.088171	1.153323	0.202461
C284	C	-0.588171	1.653323	0.702461
C285	C	-1.043850	1.117199	0.246680
C286	C	-0.543850	1.617199	0.746680
H287	H	-0.952713	1.029695	0.127505
H288	H	-0.452713	1.529695	0.627505
H289	H	-1.029844	1.092561	0.050552
H290	H	-0.529844	1.592561	0.550552
H291	H	-1.115869	1.171073	0.098153
H292	H	-0.615869	1.671073	0.598153
H293	H	-1.124765	1.186721	0.222711
H294	H	-0.624765	1.686721	0.722711
H295	H	-1.047634	1.123856	0.299664
H296	H	-0.547634	1.623856	0.799664
H297	H	-0.836707	0.943529	0.376668
H298	H	-0.336707	1.443529	0.876668
H299	H	-0.982851	0.229943	0.543979
H300	H	-0.482851	0.729943	1.043979
H301	H	-0.982847	0.229896	0.663242
H302	H	-0.482847	0.729896	1.163242
H303	H	-0.836677	0.376003	0.663129
H304	H	-0.336677	0.876003	1.163129
C305	C	-0.825158	0.387555	0.534454
C306	C	-0.325158	0.887555	1.034454
C307	C	-0.753600	0.382432	0.543434
C308	C	-0.253600	0.882432	1.043434
C309	C	-0.709286	0.426740	0.507243
C310	C	-0.209286	0.926740	1.007243
C311	C	-0.736531	0.476171	0.462071
C312	C	-0.236531	0.976171	0.962071
C313	C	-0.808093	0.481297	0.453088
C314	C	-0.308093	0.981297	0.953088
C315	C	-0.852406	0.436989	0.489280
C316	C	-0.352406	0.936989	0.989280
H317	H	-0.733428	0.345837	0.576875
H318	H	-0.233428	0.845837	1.076875
H319	H	-0.656311	0.422945	0.513893
H320	H	-0.156311	0.922945	1.013893
H321	H	-0.703728	0.508971	0.435280
H322	H	-0.203728	1.008971	0.935280
H323	H	-0.828265	0.517891	0.419647
H324	H	-0.328265	1.017891	0.919647
H325	H	-0.905381	0.440784	0.482630
H326	H	-0.405381	0.940784	0.982630
C327	C	-0.994365	0.218297	0.935428
C328	C	-0.494365	0.718297	1.435428
C329	C	-1.038670	0.173987	0.971620
C330	C	-0.538670	0.673987	1.471620
C331	C	-1.082979	0.129702	0.935498
C332	C	-0.582979	0.629702	1.435498
C333	C	-1.082982	0.129727	0.863186
C334	C	-0.582982	0.629727	1.363186
C335	C	-1.038674	0.174038	0.826990
C336	C	-0.538674	0.674038	1.326990
C337	C	-0.994366	0.218324	0.863111
C338	C	-0.494366	0.718324	1.363111
H339	H	-1.038670	0.173967	1.025154
H340	H	-0.538670	0.673967	1.525154
H341	H	-1.115778	0.096899	0.962293
H342	H	-0.615778	0.596899	1.462293
H343	H	-1.115782	0.096944	0.836447
H344	H	-0.615782	0.596944	1.336447
H345	H	-1.038675	0.174058	0.773456
H346	H	-0.538675	0.674058	1.273456
H347	H	-0.961566	0.251126	0.836316
H348	H	-0.461566	0.751126	1.336316
H349	H	-0.982853	0.229754	1.064080
H350	H	-0.482853	0.729754	1.564080
H351	H	-0.269228	0.376172	0.376567
H352	H	0.230772	0.876172	0.876567
C353	C	-0.825174	0.387375	1.073346
C354	C	-0.325174	0.887375	1.573346
C355	C	-0.825173	0.387353	1.145659
C356	C	-0.325173	0.887353	1.645659
C357	C	-0.780861	0.431635	1.181779
C358	C	-0.280861	0.931635	1.681779
C359	C	-0.736550	0.475940	1.145587
C360	C	-0.236550	0.975940	1.645587
C361	C	-0.736549	0.475963	1.073270
C362	C	-0.236549	0.975963	1.573270
C363	C	-0.780861	0.431681	1.037150
C364	C	-0.280861	0.931681	1.537150
H365	H	-0.857976	0.354555	1.172454
H366	H	-0.357976	0.854555	1.672454
H367	H	-0.780862	0.431618	1.235313
H368	H	-0.280862	0.931618	1.735313
H369	H	-0.703748	0.508720	1.172326
H370	H	-0.203748	1.008720	1.672326
H371	H	-0.703746	0.508761	1.046475
H372	H	-0.203746	1.008761	1.546475
H373	H	-0.780861	0.431698	0.983616
H374	H	-0.280861	0.931698	1.483616
H375	H	-0.836685	0.375913	0.944700
H376	H	-0.336685	0.875913	1.444700
H377	H	-0.550801	0.376213	0.376487
H378	H	-0.050801	0.876213	0.876487
C379	C	-0.541390	0.218395	0.219195
C380	C	-0.041390	0.718395	0.719195
C381	C	-0.496270	0.169011	0.246575
C382	C	0.003730	0.669011	0.746575
C383	C	-0.460107	0.124656	0.202381
C384	C	0.039893	0.624656	0.702381
C385	C	-0.469063	0.129686	0.130808
C386	C	0.030937	0.629686	0.630808
C387	C	-0.514185	0.179072	0.103425
C388	C	-0.014185	0.679072	0.603425
C389	C	-0.550348	0.223427	0.147618
C390	C	-0.050348	0.723427	0.647618
H391	H	-0.489638	0.165287	0.299561
H392	H	0.010362	0.665287	0.799561
H393	H	-0.426705	0.088098	0.222652
H394	H	0.073295	0.588098	0.722652
H395	H	-0.442293	0.096852	0.098093
H396	H	0.057707	0.596852	0.598093
H397	H	-0.520816	0.182797	0.050438
H398	H	-0.020816	0.682797	0.550438
H399	H	-0.583750	0.259986	0.127347
H400	H	-0.083750	0.759986	0.627347
C401	C	-0.679446	0.218413	0.219157
C402	C	-0.179446	0.718413	0.719157
C403	C	-0.670488	0.146857	0.224422
C404	C	-0.170488	0.646857	0.724422
C405	C	-0.706640	0.102516	0.180204
C406	C	-0.206640	0.602516	0.680204
C407	C	-0.751750	0.129731	0.130720
C408	C	-0.251750	0.629731	0.630720
C409	C	-0.760710	0.201291	0.125453
C410	C	-0.260710	0.701291	0.625453
C411	C	-0.724558	0.245632	0.169671
C412	C	-0.224558	0.745632	0.669671
H413	H	-0.637093	0.126708	0.261055
H414	H	-0.137093	0.626708	0.761055
H415	H	-0.700006	0.049543	0.184104
H416	H	-0.200006	0.549543	0.684104
H417	H	-0.778512	0.096907	0.097987
H418	H	-0.278512	0.596907	0.597987
H419	H	-0.794105	0.221440	0.088820
H420	H	-0.294105	0.721440	0.588820
H421	H	-0.731192	0.298605	0.165771
H422	H	-0.231192	0.798605	0.665771
