data_functionalizedCrystal
_audit_creation_method	'MofGen! by Chris Wilmer'
_symmetry_space_group_name_H-M	'P1'
_symmetry_Int_Tables_number	1
_symmetry_cell_setting	triclinic
loop_
_symmetry_equiv_pos_as_xyz
  x,y,z
_cell_length_a	15.995292
_cell_length_b	15.995292
_cell_length_c	17.766277
_cell_angle_alpha	89.996830
_cell_angle_beta	89.989466
_cell_angle_gamma	83.468616
loop_
_atom_site_label
_atom_site_type_symbol
_atom_site_fract_x
_atom_site_fract_y
_atom_site_fract_z
O1	O	1.110999	0.107699	-0.062609
O2	O	0.867214	0.121078	-0.062606
O3	O	0.995796	-0.007504	-0.062609
O4	O	0.982417	0.236281	-0.062606
O5	O	0.995774	-0.007511	0.062580
O6	O	0.867192	0.121071	0.062583
O7	O	1.110977	0.107692	0.062579
Cu8	Cu	0.989082	0.114381	0.074012
Cu9	Cu	0.989109	0.114389	-0.074038
O10	O	0.982395	0.236274	0.062582
C11	C	0.836008	0.120530	-0.000011
C12	C	0.743055	0.118898	-0.000010
C13	C	0.405318	0.112896	-0.000018
C14	C	0.428611	0.205703	-0.000297
C15	C	0.525286	0.207467	-0.000012
C16	C	0.572873	0.115874	-0.000015
C17	C	0.543768	0.069471	0.071471
C18	C	0.446978	0.068354	0.071528
C19	C	0.447148	0.066466	-0.070835
C20	C	0.543640	0.069906	-0.071776
C21	C	0.667569	0.117552	-0.000010
C22	C	0.310622	0.111215	-0.000018
C23	C	0.995240	-0.038703	-0.000016
C24	C	0.993608	-0.131655	-0.000022
C25	C	0.987607	-0.469393	-0.000015
C26	C	1.080413	-0.446100	0.000263
C27	C	1.082177	-0.349424	-0.000021
C28	C	0.990584	-0.301837	-0.000018
C29	C	0.944198	-0.330925	-0.071504
C30	C	0.943081	-0.427715	-0.071561
C31	C	0.941160	-0.427579	0.070802
C32	C	0.944599	-0.331088	0.071744
C33	C	0.992263	-0.207141	-0.000022
C34	C	0.985926	-0.564088	-0.000016
C35	C	1.142183	0.108240	-0.000017
C36	C	1.235136	0.109873	-0.000023
C37	C	0.982951	0.267473	-0.000012
C38	C	0.984583	0.360426	-0.000011
N39	N	0.989069	0.114375	0.178142
N40	N	0.989128	0.114388	-0.178168
C41	C	1.046024	0.057467	0.217528
C42	C	1.046029	0.057463	0.296330
C43	C	0.989087	0.114382	0.335743
C44	C	0.932122	0.171294	0.296348
C45	C	0.932113	0.171291	0.217547
C46	C	0.978100	0.190643	0.460582
C47	C	0.978115	0.190647	0.539380
C48	C	0.989109	0.114392	0.578789
C49	C	1.000107	0.038129	0.539389
C50	C	1.000098	0.038126	0.460589
C51	C	0.989090	0.114392	0.421188
C52	C	1.046072	0.057475	0.703621
C53	C	1.046071	0.057470	0.782424
C54	C	0.932169	0.171308	0.782440
C55	C	0.932166	0.171306	0.703639
C56	C	0.989122	0.114390	0.664234
H57	H	0.418825	0.095477	-0.125017
C58	C	0.427331	-0.023568	0.075918
C59	C	0.335335	-0.043331	0.076866
C60	C	0.315692	-0.135251	0.081261
C61	C	0.388047	-0.207407	0.084707
C62	C	0.480050	-0.187646	0.083759
C63	C	0.499692	-0.095726	0.079364
H64	H	0.281768	0.010085	0.074315
H65	H	0.247585	-0.149879	0.081963
H66	H	0.373506	-0.275452	0.087961
H67	H	0.533616	-0.241062	0.086310
H68	H	0.567799	-0.081098	0.078662
H69	H	0.876798	-0.299043	-0.074159
H70	H	1.092448	0.011124	0.814492
H71	H	0.575650	0.002071	0.074127
H72	H	0.976429	-0.310868	-0.124705
C73	C	0.980369	-0.465749	0.144027
C74	C	1.073772	-0.459687	0.161540
C75	C	1.112966	-0.497853	0.234772
C76	C	1.058757	-0.542082	0.290490
C77	C	0.965349	-0.548146	0.272979
C78	C	0.926155	-0.509979	0.199747
H79	H	1.113905	-0.426944	0.120293
H80	H	1.182113	-0.493364	0.247735
H81	H	1.087771	-0.570335	0.344700
H82	H	0.925216	-0.580888	0.314226
H83	H	0.857008	-0.514468	0.186784
C84	C	1.108715	-0.005138	0.660270
C85	C	1.107332	-0.100489	0.671111
C86	C	1.169974	-0.163103	0.627765
C87	C	1.233999	-0.130366	0.573577
C88	C	1.235385	-0.035009	0.562734
C89	C	1.172742	0.027605	0.606080
H90	H	1.059934	-0.124728	0.711227
H91	H	1.168948	-0.233693	0.635792
H92	H	1.280371	-0.176716	0.541489
H93	H	1.282782	-0.010771	0.522619
H94	H	1.173768	0.098194	0.598053
C95	C	0.854277	-0.286542	0.077580
C96	C	0.797683	-0.305999	0.143975
C97	C	0.707356	-0.261456	0.149803
C98	C	0.673623	-0.197456	0.089237
C99	C	0.730218	-0.177995	0.022838
C100	C	0.820545	-0.222538	0.017010
H101	H	0.822653	-0.353379	0.188814
H102	H	0.665460	-0.275862	0.198956
H103	H	0.606757	-0.164482	0.093551
H104	H	0.705247	-0.130615	-0.022001
H105	H	0.862440	-0.208132	-0.032144
C106	C	0.390786	0.254039	-0.069550
C107	C	0.448919	0.290909	-0.126803
C108	C	0.411086	0.339243	-0.196059
C109	C	0.315121	0.350708	-0.208062
C110	C	0.256982	0.313837	-0.150808
C111	C	0.294815	0.265502	-0.081552
H112	H	0.519963	0.282423	-0.117919
H113	H	0.454124	0.366538	-0.238442
H114	H	0.287115	0.386488	-0.259330
H115	H	0.185938	0.322323	-0.159692
H116	H	0.251776	0.238208	-0.039168
C117	C	1.131557	-0.324557	-0.069377
C118	C	1.169503	-0.392708	-0.124678
C119	C	1.218879	-0.367841	-0.194039
C120	C	1.230311	-0.274823	-0.208100
C121	C	1.192364	-0.206665	-0.152797
C122	C	1.142987	-0.231532	-0.083436
H123	H	1.161042	-0.461572	-0.114271
H124	H	1.246970	-0.418296	-0.234978
H125	H	1.266862	-0.256414	-0.259446
H126	H	1.200825	-0.137802	-0.163204
H127	H	1.114897	-0.181077	-0.042497
H128	H	1.009060	-0.023965	0.571474
C129	C	0.389403	0.253759	0.068577
C130	C	0.336384	0.209104	0.124992
C131	C	0.297179	0.257156	0.193870
C132	C	0.310993	0.349864	0.206332
C133	C	0.364015	0.394524	0.149915
C134	C	0.403220	0.346472	0.081038
H135	H	0.326155	0.140471	0.115769
H136	H	0.257928	0.224095	0.235633
H137	H	0.281971	0.385435	0.257319
H138	H	0.374243	0.463156	0.159138
H139	H	0.442470	0.379533	0.039274
C140	C	1.131265	-0.323735	0.069198
C141	C	1.100881	-0.342831	0.148967
C142	C	1.149978	-0.317150	0.218186
C143	C	1.229458	-0.272373	0.207638
C144	C	1.259846	-0.253274	0.127866
C145	C	1.210750	-0.278955	0.058646
H146	H	1.042041	-0.375980	0.156779
H147	H	1.127482	-0.331288	0.277239
H148	H	1.265803	-0.253362	0.258878
H149	H	1.318686	-0.220125	0.120054
H150	H	1.233245	-0.264817	-0.000406
H151	H	0.563811	0.101690	0.124673
H152	H	0.543673	0.244021	0.051320
H153	H	1.115996	-0.475122	-0.050716
H154	H	1.116176	-0.474107	0.051529
H155	H	0.975225	-0.454535	-0.125000
H156	H	0.562213	0.103692	-0.124661
C157	C	0.869530	0.233919	0.825787
C158	C	0.869592	0.233979	0.912464
C159	C	0.806950	0.296588	0.955815
C160	C	0.744245	0.359137	0.912489
C161	C	0.744180	0.359080	0.825806
C162	C	0.806823	0.296471	0.782456
H163	H	0.916012	0.187673	0.944541
H164	H	0.806998	0.296630	1.019983
H165	H	0.697873	0.405485	0.944580
H166	H	0.697760	0.405385	0.793729
H167	H	0.806775	0.296429	0.718288
H168	H	0.576625	0.003052	-0.076096
H169	H	0.433170	-0.001846	-0.071320
H170	H	0.875035	-0.442251	-0.074797
C171	C	0.990218	-0.306016	0.143192
C172	C	1.068856	-0.259203	0.136440
C173	C	1.114476	-0.234125	0.207886
C174	C	1.081460	-0.255860	0.286085
C175	C	1.002818	-0.302675	0.292841
C176	C	0.957198	-0.327753	0.221395
H177	H	1.093300	-0.243112	0.078549
H178	H	1.172692	-0.199470	0.202885
H179	H	1.115231	-0.237296	0.338974
H180	H	0.978374	-0.318767	0.350732
H181	H	0.898982	-0.362409	0.226396
H182	H	0.885791	0.217649	0.671569
C183	C	0.410721	0.111768	0.143716
C184	C	0.423227	0.204219	0.159357
C185	C	0.386976	0.247637	0.231546
C186	C	0.338218	0.198604	0.288092
C187	C	0.325710	0.106148	0.272452
C188	C	0.361961	0.062730	0.200264
H189	H	0.459322	0.240521	0.117497
H190	H	0.396235	0.316080	0.243123
H191	H	0.311383	0.230745	0.341530
H192	H	0.289615	0.069846	0.314313
H193	H	0.352702	-0.005712	0.188686
H194	H	0.872847	-0.441556	0.071286
C195	C	1.108687	-0.005136	0.339664
C196	C	1.171359	-0.067713	0.296318
C197	C	1.234019	-0.130311	0.339649
C198	C	1.234006	-0.130331	0.426327
C199	C	1.171332	-0.067751	0.469677
C200	C	1.108673	-0.005153	0.426346
H201	H	1.171370	-0.067700	0.232150
H202	H	1.280414	-0.176636	0.307558
H203	H	1.280391	-0.176669	0.458403
H204	H	1.171321	-0.067763	0.533846
H205	H	1.062277	0.041173	0.458438
C206	C	0.966017	0.274533	0.582716
C207	C	0.953904	0.358411	0.539373
C208	C	0.941804	0.442299	0.582707
C209	C	0.941817	0.442308	0.669384
C210	C	0.953930	0.358426	0.712732
C211	C	0.966030	0.274538	0.669398
H212	H	0.953894	0.358408	0.475205
H213	H	0.932837	0.504394	0.550617
H214	H	0.932860	0.504406	0.701462
H215	H	0.953940	0.358429	0.776900
H216	H	0.974997	0.212443	0.701488
C217	C	0.869486	0.233907	0.339698
C218	C	0.869532	0.233956	0.426375
C219	C	0.806891	0.296568	0.469724
C220	C	0.744203	0.359133	0.426395
C221	C	0.744154	0.359087	0.339713
C222	C	0.806796	0.296474	0.296364
H223	H	0.915940	0.187640	0.458454
H224	H	0.806927	0.296602	0.533892
H225	H	0.697832	0.405482	0.458485
H226	H	0.697747	0.405403	0.307635
H227	H	0.806759	0.296440	0.232196
H228	H	0.544314	0.243803	-0.051257
H229	H	1.092399	0.011121	0.185446
H230	H	1.009051	-0.023970	0.428513
H231	H	0.969132	0.252743	0.428502
H232	H	0.885733	0.217633	0.185479
