data_functionalizedCrystal
_audit_creation_method	'MofGen! by Chris Wilmer'
_symmetry_space_group_name_H-M	'P1'
_symmetry_Int_Tables_number	1
_symmetry_cell_setting	triclinic
loop_
_symmetry_equiv_pos_as_xyz
  x,y,z
_cell_length_a	18.215407
_cell_length_b	18.050589
_cell_length_c	18.215399
_cell_angle_alpha	89.973988
_cell_angle_beta	89.983176
_cell_angle_gamma	90.028669
loop_
_atom_site_label
_atom_site_type_symbol
_atom_site_fract_x
_atom_site_fract_y
_atom_site_fract_z
Zn1	Zn	1.125033	-0.295641	-0.416138
Zn2	Zn	1.124941	-0.419841	-0.293081
Zn3	Zn	1.001972	-0.295670	-0.293085
Zn4	Zn	1.001924	-0.419794	-0.416106
O5	O	1.063468	-0.357736	-0.354603
O6	O	1.228005	-0.312123	-0.399826
O7	O	1.108610	-0.403401	-0.190097
O8	O	1.018355	-0.191742	-0.309424
O9	O	1.227937	-0.403372	-0.309417
O10	O	1.108767	-0.191720	-0.399830
O11	O	1.018265	-0.312173	-0.190101
O12	O	0.898981	-0.312128	-0.309393
O13	O	1.018274	-0.403293	-0.519095
O14	O	0.898946	-0.403322	-0.399775
O15	O	1.108721	-0.312078	-0.519118
O16	O	1.108564	-0.523759	-0.309385
O17	O	1.018184	-0.523725	-0.399771
C18	C	0.872261	-0.357724	-0.354582
C19	C	0.790462	-0.357736	-0.354590
C20	C	1.063379	-0.550689	-0.354590
C21	C	1.063408	-0.633234	-0.354610
C22	C	0.602269	-0.405295	-0.401593
C23	C	0.525411	-0.405298	-0.401602
C24	C	0.525418	-0.310191	-0.307628
C25	C	0.602275	-0.310185	-0.307623
C26	C	0.640699	-0.357742	-0.354605
C27	C	0.486983	-0.357750	-0.354619
C28	C	0.403649	-0.357752	-0.354628
C29	C	0.724038	-0.357739	-0.354596
C30	C	1.014308	-0.832693	-0.403744
C31	C	0.996372	-0.882137	-0.336590
C32	C	1.063480	-0.784365	-0.354619
C33	C	1.081453	-0.882003	-0.421781
C34	C	1.063549	-0.930350	-0.354635
C35	C	1.045509	-0.832721	-0.287430
C36	C	1.130621	-0.832583	-0.372666
C37	C	1.112710	-0.882004	-0.305466
C38	C	1.063439	-0.700266	-0.354612
C39	C	1.063590	-1.014446	-0.354635
C40	C	1.255420	-0.357750	-0.354624
C41	C	1.337219	-0.357755	-0.354634
C42	C	1.063502	-0.357677	-0.546556
C43	C	1.063517	-0.357652	-0.628355
C44	C	1.063577	-0.164031	-0.354631
C45	C	1.063623	-0.081485	-0.354643
C46	C	1.016515	-0.310117	-0.816551
C47	C	1.016527	-0.310103	-0.893410
C48	C	1.110608	-0.405098	-0.893396
C49	C	1.110591	-0.405116	-0.816539
C50	C	1.063545	-0.357621	-0.778118
C51	C	1.063575	-0.357588	-0.931834
C52	C	1.063589	-0.357572	-1.015168
C53	C	1.063530	-0.357638	-0.694779
C54	C	1.063475	-0.357742	-0.163396
C55	C	1.063603	-0.357558	-0.081598
H56	H	0.633552	-0.444017	-0.439850
H57	H	0.494125	-0.444019	-0.439866
H58	H	0.978207	-0.271445	-0.785272
H59	H	0.494124	-0.271473	-0.269377
H60	H	0.633565	-0.271457	-0.269360
H61	H	0.972663	-0.811041	-0.445229
C62	C	0.920651	-0.911122	-0.316379
C63	C	0.869354	-0.886158	-0.367985
C64	C	0.799594	-0.912849	-0.349401
H65	H	0.907470	-0.893539	-0.269035
H66	H	0.921306	-0.963750	-0.316124
H67	H	0.868697	-0.833541	-0.368233
H68	H	0.882511	-0.903739	-0.415333
H69	H	0.800249	-0.965477	-0.349146
H70	H	0.786420	-0.895265	-0.302056
H71	H	0.764781	-0.895921	-0.384416
H72	H	1.096626	-0.903651	-0.478573
H73	H	0.978230	-0.271421	-0.924699
C74	C	1.025162	-0.803837	-0.211742
C75	C	1.025314	-0.726275	-0.212631
C76	C	1.006562	-0.699641	-0.142927
H77	H	1.059867	-0.821036	-0.176761
H78	H	0.977621	-0.821176	-0.198843
H79	H	1.072848	-0.708944	-0.225521
H80	H	0.990608	-0.709057	-0.247597
H81	H	0.959021	-0.716980	-0.130027
H82	H	1.041269	-0.716845	-0.107951
H83	H	1.006656	-0.647013	-0.143522
C84	C	1.168100	-0.910659	-0.249904
C85	C	1.148979	-0.885569	-0.179739
C86	C	1.199977	-0.911962	-0.128535
H87	H	1.215656	-0.892959	-0.262213
H88	H	1.168098	-0.963289	-0.250448
H89	H	1.148988	-0.832950	-0.179196
H90	H	1.101431	-0.903268	-0.167407
H91	H	1.199975	-0.964592	-0.129079
H92	H	1.247530	-0.894259	-0.140851
H93	H	1.187007	-0.894948	-0.080921
H94	H	1.187355	-0.810802	-0.387948
C95	C	1.161660	-0.456575	-0.935244
C96	C	1.151625	-0.446379	-1.010779
C97	C	1.198650	-0.493780	-1.049350
H98	H	1.150907	-0.506507	-0.922726
H99	H	1.211126	-0.445704	-0.922696
H100	H	1.102170	-0.457255	-1.023322
H101	H	1.162383	-0.396457	-1.023319
H102	H	1.248116	-0.482909	-1.036802
H103	H	1.187893	-0.543708	-1.036826
H104	H	1.191852	-0.486863	-1.100605
H105	H	1.148891	-0.443802	-0.785246
