data_functionalizedCrystal
_audit_creation_method	'MofGen! by Chris Wilmer'
_symmetry_space_group_name_H-M	'P1'
_symmetry_Int_Tables_number	1
_symmetry_cell_setting	triclinic
loop_
_symmetry_equiv_pos_as_xyz
  x,y,z
_cell_length_a	17.699083
_cell_length_b	18.366186
_cell_length_c	19.288865
_cell_angle_alpha	90.011479
_cell_angle_beta	96.790368
_cell_angle_gamma	89.996982
loop_
_atom_site_label
_atom_site_type_symbol
_atom_site_fract_x
_atom_site_fract_y
_atom_site_fract_z
O1	O	1.003957	-0.060456	-0.087837
O2	O	0.783563	-0.060481	-0.099265
O3	O	0.900128	-0.060453	0.007572
O4	O	0.887392	-0.060484	-0.194674
O5	O	0.900109	0.060646	0.007577
O6	O	0.783543	0.060618	-0.099260
O7	O	1.003937	0.060643	-0.087832
Zn8	Zn	0.893737	0.079858	-0.093545
Zn9	Zn	0.893763	-0.079696	-0.093552
O10	O	0.887372	0.060616	-0.194668
C11	C	0.755356	0.000066	-0.098853
C12	C	0.671340	0.000057	-0.097624
N13	N	0.893725	0.188749	-0.093540
N14	N	0.893781	-0.188587	-0.093551
C15	C	0.622631	0.000048	-0.160335
C16	C	0.543689	0.000057	-0.159177
C17	C	0.513458	0.000071	-0.095307
C18	C	0.562174	0.000082	-0.032591
C19	C	0.641114	0.000078	-0.033750
C20	C	0.243817	0.000101	-0.027915
C21	C	0.164871	0.000103	-0.026761
C22	C	0.146393	0.000080	-0.153342
C23	C	0.225333	0.000076	-0.154501
C24	C	0.274041	0.000091	-0.091785
C25	C	0.359639	0.000082	-0.093042
C26	C	0.427862	0.000075	-0.094049
C27	C	1.032144	0.000095	-0.088244
C28	C	1.116160	0.000099	-0.089472
C29	C	0.899709	0.000098	0.033451
C30	C	0.898478	0.000105	0.110556
C31	C	0.945357	0.226862	-0.046256
C32	C	0.945362	0.303090	-0.046253
C33	C	0.893742	0.341202	-0.093545
C34	C	0.842100	0.303080	-0.140833
C35	C	0.842092	0.226854	-0.140830
C36	C	0.883610	0.461952	-0.156821
C37	C	0.883624	0.538177	-0.156825
C38	C	0.893763	0.576309	-0.093554
C39	C	0.903905	0.538207	-0.030277
C40	C	0.903897	0.461981	-0.030274
C41	C	0.893745	0.423857	-0.093554
C42	C	0.945403	0.697077	-0.046263
C43	C	0.945403	0.773306	-0.046259
C44	C	0.842145	0.773295	-0.140845
C45	C	0.842141	0.697067	-0.140843
C46	C	0.893775	0.658963	-0.093553
C47	C	0.887792	0.000062	-0.220548
C48	C	0.889022	0.000051	-0.297653
C49	C	0.966874	0.000116	0.155172
C50	C	0.965718	0.000104	0.227620
C51	C	0.896163	0.000096	0.255450
C52	C	0.827759	0.000081	0.210825
C53	C	0.828916	0.000085	0.138378
C54	C	0.841478	0.042508	0.363804
C55	C	0.840323	0.042509	0.436250
C56	C	0.892589	0.000079	0.478900
C57	C	0.946024	-0.042341	0.449097
C58	C	0.947181	-0.042336	0.376650
C59	C	0.894900	0.000091	0.334006
C60	C	0.959736	0.000077	0.602073
C61	C	0.958578	0.000061	0.674522
C62	C	0.820616	0.000044	0.657725
C63	C	0.821777	0.000053	0.585277
C64	C	0.891339	0.000073	0.557456
H65	H	0.647238	0.000036	-0.212346
C66	C	0.529501	0.000131	0.036826
C67	C	0.589058	0.000157	0.091498
C68	C	0.558991	0.000208	0.155456
H69	H	0.499104	-0.042087	0.040006
H70	H	0.499111	0.042379	0.039950
H71	H	0.619435	-0.042086	0.088375
H72	H	0.619460	0.042372	0.088341
H73	H	0.528601	0.042456	0.158580
H74	H	0.528594	-0.042011	0.158628
H75	H	0.599395	0.000232	0.192558
H76	H	0.140260	0.000115	0.025253
C77	C	0.786156	0.185378	-0.192210
C78	C	0.826323	0.141590	-0.234671
C79	C	0.774823	0.103364	-0.282006
H80	H	0.755390	0.218907	-0.220443
H81	H	0.754747	0.155607	-0.167279
H82	H	0.857720	0.171357	-0.259600
H83	H	0.857087	0.108046	-0.206457
H84	H	0.743414	0.073593	-0.257075
H85	H	0.744060	0.136899	-0.310234
H86	H	0.802069	0.073644	-0.310817
H87	H	0.912153	0.430962	0.021249
H88	H	1.023517	0.000130	0.132524
H89	H	0.912162	0.569253	0.021245
C90	C	0.296568	0.000077	0.040249
C91	C	0.253193	0.000068	0.096429
C92	C	0.301765	0.000037	0.159235
H93	H	0.327762	0.042296	0.042530
H94	H	0.327738	-0.042170	0.042468
H95	H	0.222036	0.042311	0.094211
H96	H	0.222001	-0.042147	0.094171
H97	H	0.332935	-0.042209	0.161453
H98	H	0.332957	0.042257	0.161508
H99	H	0.272343	0.000025	0.197360
H100	H	0.504033	0.000049	-0.210242
C101	C	1.001442	0.185624	0.005171
C102	C	1.046647	0.235323	0.046594
C103	C	1.098312	0.197360	0.093983
H104	H	1.032929	0.155872	-0.019696
H105	H	0.974333	0.155918	0.034095
H106	H	1.073754	0.265017	0.017673
H107	H	1.015181	0.265077	0.071476
H108	H	1.071203	0.167654	0.122907
H109	H	1.129794	0.167609	0.069111
H110	H	1.128985	0.231075	0.122098
H111	H	1.021416	0.000111	0.263953
H112	H	0.987444	0.666051	-0.007754
H113	H	0.987446	0.804338	-0.007751
C114	C	1.035236	0.000238	0.571823
C115	C	1.039935	0.062555	0.530755
C116	C	1.109479	0.062731	0.502889
H117	H	1.038636	-0.041940	0.543852
H118	H	1.075827	0.000276	0.608756
H119	H	0.999356	0.062510	0.493827
H120	H	1.036549	0.104742	0.558711
H121	H	1.150070	0.062769	0.539822
H122	H	1.112873	0.020551	0.474920
H123	H	1.112680	0.105015	0.475026
H124	H	0.796810	0.077045	0.460509
C125	C	1.005219	-0.088472	0.344420
C126	C	1.050736	-0.125647	0.397268
C127	C	1.104200	-0.168165	0.367603
H128	H	1.036300	-0.057957	0.319890
H129	H	0.979525	-0.122624	0.312983
H130	H	1.076429	-0.091499	0.428693
H131	H	1.019676	-0.156176	0.421802
H132	H	1.078505	-0.202317	0.336167
H133	H	1.135275	-0.137644	0.343074
H134	H	1.135084	-0.193399	0.403456
H135	H	0.106724	0.000072	-0.204407
H136	H	0.988584	-0.076891	0.483821
H137	H	0.875340	0.430911	-0.208347
C138	C	0.786060	0.814757	-0.192082
C139	C	0.739876	0.858547	-0.155134
C140	C	0.688204	0.896762	-0.202309
H141	H	0.755236	0.781221	-0.220264
H142	H	0.813166	0.844525	-0.220957
H143	H	0.712772	0.828782	-0.126272
H144	H	0.770679	0.892097	-0.126954
H145	H	0.715310	0.926530	-0.231184
H146	H	0.657386	0.863221	-0.230489
H147	H	0.656867	0.926483	-0.177247
H148	H	0.800101	0.666034	-0.179349
C149	C	0.872565	0.579409	-0.225595
C150	C	0.863652	0.529702	-0.281004
C151	C	0.853453	0.567657	-0.344366
H152	H	0.915771	0.609139	-0.229504
H153	H	0.828472	0.609138	-0.227086
H154	H	0.907740	0.499986	-0.279514
H155	H	0.820445	0.499972	-0.277118
H156	H	0.809361	0.597385	-0.345857
H157	H	0.896661	0.597385	-0.348267
H158	H	0.847398	0.533937	-0.381968
C159	C	1.001463	0.344570	0.004976
C160	C	1.047652	0.388327	-0.031978
C161	C	1.099334	0.426552	0.015191
H162	H	1.032282	0.311039	0.033160
H163	H	0.974366	0.374361	0.033851
H164	H	1.074747	0.358539	-0.060841
H165	H	1.016854	0.421871	-0.060158
H166	H	1.072237	0.456343	0.044066
H167	H	1.130148	0.393016	0.043372
H168	H	1.130675	0.456250	-0.009875
C169	C	0.786019	0.344550	-0.192070
C170	C	0.739840	0.388345	-0.155122
C171	C	0.688172	0.426564	-0.202297
H172	H	0.755191	0.311016	-0.220252
H173	H	0.813127	0.374315	-0.220945
H174	H	0.712733	0.358583	-0.126259
H175	H	0.770646	0.421892	-0.126943
H176	H	0.715280	0.456329	-0.231172
H177	H	0.657350	0.393024	-0.230477
H178	H	0.656838	0.456288	-0.177235
C179	C	1.032922	0.000110	0.722850
C180	C	1.094084	0.000148	0.682974
C181	C	1.162583	0.000204	0.727470
H182	H	1.035458	-0.042111	0.751466
H183	H	1.035367	0.042354	0.751461
H184	H	1.091641	-0.042092	0.654375
H185	H	1.091573	0.042366	0.654360
H186	H	1.165028	0.042448	0.756082
H187	H	1.165111	-0.042018	0.756084
H188	H	1.204089	0.000237	0.700421
H189	H	0.766082	0.000048	0.548950
C190	C	0.745074	-0.000116	0.687891
C191	C	0.703761	-0.062433	0.665199
C192	C	0.634170	-0.062614	0.692983
H193	H	0.716823	0.042061	0.672596
H194	H	0.754146	-0.000158	0.737431
H195	H	0.694687	-0.062384	0.615670
H196	H	0.731989	-0.104620	0.680493
H197	H	0.643242	-0.062656	0.742523
H198	H	0.605926	-0.020433	0.677687
H199	H	0.606134	-0.104897	0.677597
C200	C	0.784683	0.088650	0.317622
C201	C	0.737658	0.125814	0.359227
C202	C	0.685337	0.168328	0.316711
H203	H	0.754506	0.058132	0.285624
H204	H	0.811272	0.122808	0.292563
H205	H	0.711072	0.091660	0.384275
H206	H	0.767814	0.156344	0.391224
H207	H	0.711925	0.202486	0.291652
H208	H	0.655165	0.137805	0.284715
H209	H	0.653428	0.193554	0.344934
H210	H	0.773219	0.000076	0.102051
C211	C	0.258301	0.000014	-0.223775
C212	C	0.337859	-0.000012	-0.211368
C213	C	0.368254	-0.000082	-0.275167
H214	H	0.241655	0.042226	-0.249649
H215	H	0.241607	-0.042240	-0.249593
H216	H	0.354547	0.042237	-0.185561
H217	H	0.354527	-0.042221	-0.185504
H218	H	0.351560	-0.042335	-0.300985
H219	H	0.351602	0.042131	-0.301036
H220	H	0.422237	-0.000106	-0.266757
H221	H	0.680773	0.000085	0.017316
H222	H	0.771126	0.000072	0.233489
