data_functionalizedCrystal
_audit_creation_method	'MofGen! by Chris Wilmer'
_symmetry_space_group_name_H-M	'P1'
_symmetry_Int_Tables_number	1
_symmetry_cell_setting	triclinic
loop_
_symmetry_equiv_pos_as_xyz
  x,y,z
_cell_length_a	19.077236
_cell_length_b	21.295417
_cell_length_c	19.076919
_cell_angle_alpha	92.267699
_cell_angle_beta	89.887323
_cell_angle_gamma	92.322335
loop_
_atom_site_label
_atom_site_type_symbol
_atom_site_fract_x
_atom_site_fract_y
_atom_site_fract_z
Zn1	Zn	1.058269	-0.228507	-0.440524
Zn2	Zn	1.062899	-0.329387	-0.323010
Zn3	Zn	0.945484	-0.228177	-0.318305
Zn4	Zn	0.940717	-0.337786	-0.435748
O5	O	1.001842	-0.280964	-0.379397
O6	O	1.157217	-0.238513	-0.428904
O7	O	1.051256	-0.312309	-0.224055
O8	O	0.960503	-0.140130	-0.334547
O9	O	1.160619	-0.312629	-0.342567
O10	O	1.043365	-0.140373	-0.424342
O11	O	0.964992	-0.237950	-0.220598
O12	O	0.846518	-0.246093	-0.329915
O13	O	0.952378	-0.326942	-0.534712
O14	O	0.843015	-0.326622	-0.416200
O15	O	1.038742	-0.246656	-0.538221
O16	O	1.046634	-0.418592	-0.337935
O17	O	0.956867	-0.424762	-0.420763
C18	C	0.819270	-0.287234	-0.372029
C19	C	0.741164	-0.289932	-0.368894
C20	C	0.702696	-0.252677	-0.412441
C21	C	0.629308	-0.255209	-0.409489
C22	C	0.594388	-0.294999	-0.362993
C23	C	0.632861	-0.332255	-0.319442
C24	C	0.706248	-0.329719	-0.322390
C25	C	0.375093	-0.306709	-0.349343
C26	C	0.301700	-0.309243	-0.346399
C27	C	0.298153	-0.232196	-0.436445
C28	C	0.371541	-0.229667	-0.439393
C29	C	0.410008	-0.266921	-0.395839
N30	N	0.519373	-0.297589	-0.359976
N31	N	0.485022	-0.264327	-0.398853
C32	C	1.001754	-0.444518	-0.379358
C33	C	1.001780	-0.514485	-0.379367
C34	C	1.044899	-0.547423	-0.426154
C35	C	1.044923	-0.613165	-0.426172
C36	C	1.001836	-0.645967	-0.379391
C37	C	0.958708	-0.613021	-0.332601
C38	C	0.958680	-0.547280	-0.332589
N39	N	0.999002	-0.747112	-0.317682
N40	N	0.999033	-0.809563	-0.317696
C41	C	1.001917	-0.844040	-0.379426
N42	N	1.004782	-0.813706	-0.441144
N43	N	1.004755	-0.751249	-0.441130
C44	C	1.001861	-0.717251	-0.379400
C45	C	1.045064	-0.948263	-0.426237
C46	C	1.045083	-1.014006	-0.426256
C47	C	0.958872	-1.013861	-0.332679
C48	C	0.958849	-0.948118	-0.332666
C49	C	1.001949	-0.915323	-0.379444
C50	C	1.185128	-0.274671	-0.386793
C51	C	1.263233	-0.271989	-0.389946
C52	C	0.994512	-0.287773	-0.562676
C53	C	0.991388	-0.290674	-0.640778
C54	C	1.001949	-0.116772	-0.379452
C55	C	1.001995	-0.046803	-0.379476
C56	C	1.034884	-0.250238	-0.679299
C57	C	1.031940	-0.252962	-0.752684
C58	C	0.985504	-0.296126	-0.787547
C59	C	0.942004	-0.336563	-0.749021
C60	C	0.944944	-0.333836	-0.675637
C61	C	0.971884	-0.308762	-1.006826
C62	C	0.968949	-0.311488	-1.080215
C63	C	1.058885	-0.227886	-1.083873
C64	C	1.061824	-0.225165	-1.010488
C65	C	1.018321	-0.265600	-0.971968
N66	N	0.982496	-0.298912	-0.862559
N67	N	1.021327	-0.262810	-0.896957
C68	C	1.009184	-0.274136	-0.196833
C69	C	1.012444	-0.271052	-0.118736
H70	H	0.731122	-0.220278	-0.450305
Cl71	Cl	0.754607	-0.376556	-0.267644
H72	H	1.079992	-0.520723	-0.464245
Cl73	Cl	0.917195	-0.359596	-0.958410
H74	H	0.904192	-0.371706	-0.777412
Cl75	Cl	0.580951	-0.208374	-0.464238
Cl76	Cl	1.099139	-0.654581	-0.484990
Cl77	Cl	0.904536	-0.654256	-0.273794
Cl78	Cl	0.904468	-0.505871	-0.273766
Cl79	Cl	1.113568	-0.177054	-1.132302
Cl80	Cl	1.120204	-0.170900	-0.966665
Cl81	Cl	0.890259	-0.384670	-0.627210
H82	H	0.399968	-0.197268	-0.477258
H83	H	1.080196	-1.040823	-0.464359
Cl84	Cl	0.423442	-0.353529	-0.294574
Cl85	Cl	0.249791	-0.185365	-0.491194
Cl86	Cl	0.904702	-1.055090	-0.273870
Cl87	Cl	0.257801	-0.359284	-0.287959
Cl88	Cl	1.099242	-0.907032	-0.485046
Cl89	Cl	0.588961	-0.382273	-0.260986
H90	H	0.923740	-0.921298	-0.294564
Cl91	Cl	1.093267	-0.195976	-0.635479
H92	H	1.067361	-0.220036	-0.784045
Cl93	Cl	0.910563	-0.365751	-1.124042
