data_functionalizedCrystal
_audit_creation_method	'MofGen! by Chris Wilmer'
_symmetry_space_group_name_H-M	'P1'
_symmetry_Int_Tables_number	1
_symmetry_cell_setting	triclinic
loop_
_symmetry_equiv_pos_as_xyz
  x,y,z
_cell_length_a	16.959455
_cell_length_b	16.120444
_cell_length_c	16.959447
_cell_angle_alpha	87.132720
_cell_angle_beta	90.014322
_cell_angle_gamma	92.923490
loop_
_atom_site_label
_atom_site_type_symbol
_atom_site_fract_x
_atom_site_fract_y
_atom_site_fract_z
Zn1	Zn	1.192388	-0.331959	0.462855
Zn2	Zn	1.185592	-0.471387	0.337374
Zn3	Zn	1.060215	-0.331985	0.330694
Zn4	Zn	1.053466	-0.471325	0.469510
O5	O	1.122915	-0.401664	0.400108
O6	O	1.302097	-0.350469	0.446221
O7	O	1.168941	-0.452932	0.225879
O8	O	1.083417	-0.215316	0.342645
O9	O	1.297104	-0.452907	0.354030
O10	O	1.180524	-0.215296	0.439743
O11	O	1.076827	-0.350514	0.220971
O12	O	0.948710	-0.350454	0.349097
O13	O	1.071914	-0.452801	0.579236
O14	O	0.943751	-0.452826	0.451085
O15	O	1.173979	-0.350409	0.574347
O16	O	1.162397	-0.588045	0.360483
O17	O	1.065324	-0.587999	0.457563
C18	C	0.917550	-0.401637	0.400089
C19	C	0.829693	-0.401645	0.400100
C20	C	0.460777	-0.348315	0.347107
C21	C	0.455654	-0.455082	0.453158
C22	C	0.538200	-0.455070	0.453153
C23	C	0.582039	-0.401681	0.400123
C24	C	0.543331	-0.348303	0.347098
C25	C	0.576914	-0.508452	0.506171
C26	C	0.659466	-0.508443	0.506167
C27	C	0.703306	-0.455049	0.453141
C28	C	0.664593	-0.401669	0.400114
C29	C	0.708431	-0.348279	0.347084
C30	C	0.669720	-0.294894	0.294061
C31	C	0.587171	-0.294909	0.294071
C32	C	0.785855	-0.455034	0.453130
C33	C	0.790985	-0.348268	0.347076
C34	C	1.112412	-0.618272	0.410487
C35	C	1.107991	-0.710938	0.414954
C36	C	1.146044	-0.921883	0.377108
C37	C	1.099933	-0.880594	0.423117
C38	C	1.104418	-0.786189	0.418574
C39	C	1.141560	-1.016297	0.381650
C40	C	1.329082	-0.401692	0.400128
C41	C	1.416938	-0.401704	0.400137
C42	C	1.122952	-0.401595	0.606273
C43	C	1.122967	-0.401566	0.694129
C44	C	1.133482	-0.184210	0.389706
C45	C	1.137984	-0.091544	0.385273
C46	C	1.122928	-0.401673	0.194743
C47	C	1.123077	-0.401467	0.106877
C48	C	1.069925	-0.454788	1.068148
C49	C	1.176207	-0.348167	1.063052
C50	C	1.176185	-0.348185	0.980507
C51	C	1.123033	-0.401506	0.941779
C52	C	1.069903	-0.454810	0.985596
C53	C	1.229319	-0.294888	0.936684
C54	C	1.229300	-0.294904	0.854134
C55	C	1.176144	-0.348222	0.815404
C56	C	1.123011	-0.401527	0.859226
C57	C	1.069859	-0.454848	0.820498
C58	C	1.016722	-0.508150	0.864318
C59	C	1.016746	-0.508127	0.946866
C60	C	1.176119	-0.348244	0.732857
C61	C	1.069837	-0.454869	0.737946
H62	H	0.690977	-0.551912	0.549343
C63	C	1.287741	-0.236269	0.805939
H64	H	1.319395	-0.204507	0.840827
H65	H	1.320622	-0.268168	0.775255
H66	H	1.259252	-0.199944	0.772007
C67	C	0.828434	-0.513749	0.511448
H68	H	0.790503	-0.545546	0.543033
H69	H	0.858876	-0.550027	0.482890
H70	H	0.862185	-0.481893	0.544414
C71	C	1.042051	-0.928617	0.480937
H72	H	1.046586	-0.986688	0.476440
H73	H	1.054243	-0.914345	0.533384
H74	H	0.989607	-0.914456	0.468643
H75	H	1.272597	-0.251482	0.968223
C76	C	1.203913	-0.873860	0.319282
H77	H	1.199363	-0.815790	0.323773
H78	H	1.256358	-0.888015	0.331556
H79	H	1.191703	-0.888133	0.266835
H80	H	1.026547	-0.498283	0.706419
C81	C	1.234558	-0.289616	0.684658
H82	H	1.266213	-0.257855	0.719546
H83	H	1.267437	-0.321517	0.653974
H84	H	1.206070	-0.253290	0.650727
C85	C	0.958258	-0.566799	0.821712
H86	H	0.965858	-0.559172	0.766274
H87	H	0.967101	-0.622814	0.837915
H88	H	0.905742	-0.554579	0.834650
C89	C	0.839205	-0.289538	0.288745
H90	H	0.893914	-0.297171	0.296334
H91	H	0.825070	-0.301666	0.236199
H92	H	0.828389	-0.233537	0.297727
H93	H	1.219485	-0.304760	1.094590
C94	C	0.958307	-0.566760	0.995065
H95	H	0.926643	-0.598515	0.960180
H96	H	0.986790	-0.603079	1.029000
H97	H	0.925424	-0.534852	1.025746
C98	C	0.717948	-0.236169	0.235732
H99	H	0.772654	-0.243810	0.243327
H100	H	0.703815	-0.248296	0.183186
H101	H	0.707137	-0.180166	0.244713
H102	H	1.026660	-0.498183	1.103830
H103	H	0.429254	-0.304848	0.303939
H104	H	0.419956	-0.498554	0.496329
C105	C	0.544591	-0.236195	0.235748
H106	H	0.582521	-0.204390	0.204168
H107	H	0.510838	-0.268048	0.202789
H108	H	0.514152	-0.199913	0.264310
C109	C	0.528693	-0.567174	0.564499
H110	H	0.473986	-0.559527	0.556915
H111	H	0.539505	-0.623174	0.555527
H112	H	0.542828	-0.555036	0.617046
