data_functionalizedCrystal
_audit_creation_method	'MofGen! by Chris Wilmer'
_symmetry_space_group_name_H-M	'P1'
_symmetry_Int_Tables_number	1
_symmetry_cell_setting	triclinic
loop_
_symmetry_equiv_pos_as_xyz
  x,y,z
_cell_length_a	10.654554
_cell_length_b	12.503572
_cell_length_c	10.654541
_cell_angle_alpha	86.442446
_cell_angle_beta	95.513465
_cell_angle_gamma	86.444775
loop_
_atom_site_label
_atom_site_type_symbol
_atom_site_fract_x
_atom_site_fract_y
_atom_site_fract_z
O1	O	-1.675017	0.089386	0.169253
O2	O	-1.309539	0.089374	0.186047
O3	O	-1.500682	0.089374	-0.005089
O4	O	-1.483874	0.089386	0.360389
O5	O	-1.486308	-0.089268	0.009310
O6	O	-1.295164	-0.089268	0.200445
O7	O	-1.660643	-0.089256	0.183652
Cu8	Cu	-1.476591	-0.105573	0.193363
Cu9	Cu	-1.493591	0.105692	0.176335
O10	O	-1.469499	-0.089256	0.374787
C11	C	-1.255554	0.000051	0.192011
C12	C	-1.116111	0.000047	0.188314
N13	N	-1.464643	-0.254166	0.205339
C14	C	-1.100414	-0.194714	0.204026
C15	C	-1.027056	-0.292093	0.210149
C16	C	-0.896038	-0.292091	0.206673
C17	C	-0.838377	-0.194701	0.197070
C18	C	-0.911734	-0.097322	0.190947
C19	C	-1.042754	-0.097334	0.194428
C20	C	-0.927432	0.097436	0.175226
C21	C	-1.058449	0.097437	0.178711
C22	C	-0.869770	0.194827	0.165622
C23	C	-0.943127	0.292208	0.159509
C24	C	-1.074153	0.292202	0.162987
C25	C	-1.131807	0.194816	0.172588
C26	C	-1.447068	-0.473281	0.222967
C27	C	-1.523120	-0.526608	0.146726
C28	C	-1.513341	-0.648531	0.156534
C29	C	-1.456845	-0.351346	0.213160
C30	C	-0.714629	0.000063	0.177679
C31	C	-0.854074	0.000058	0.181348
C32	C	-1.492261	0.000053	-0.044687
C33	C	-1.488571	0.000055	-0.184131
N34	N	-1.505548	0.254284	0.164350
C35	C	-1.717134	0.000049	-0.212093
C36	C	-1.829676	0.000044	-0.291583
C37	C	-1.826201	0.000047	-0.422601
C38	C	-1.710171	0.000059	-0.474132
C39	C	-1.597629	0.000064	-0.394642
C40	C	-1.601117	0.000058	-0.263622
C41	C	-1.369069	0.000078	-0.366681
C42	C	-1.372541	0.000067	-0.235662
C43	C	-1.253040	0.000089	-0.418212
C44	C	-1.140494	0.000087	-0.338721
C45	C	-1.143974	0.000082	-0.207695
C46	C	-1.259999	0.000072	-0.156172
C47	C	-1.477920	0.000067	0.414386
C48	C	-1.481612	0.000073	0.553829
H49	H	-1.207093	-0.194726	0.206875
C50	C	-1.949990	0.000045	-0.510048
H51	H	-1.931295	0.000057	-0.595456
H52	H	-1.992503	-0.062252	-0.489309
H53	H	-2.002533	0.062349	-0.499341
H54	H	-1.595576	-0.480695	0.074090
C55	C	-1.263826	0.000067	-0.012056
H56	H	-1.180184	0.000067	0.027909
H57	H	-1.311845	0.062359	0.007401
H58	H	-1.301795	-0.062242	0.017435
H59	H	-1.052328	0.000091	-0.142981
H60	H	-1.238486	0.194802	0.175428
C61	C	-1.090484	-0.399217	0.220679
H62	H	-1.028031	-0.457210	0.223806
H63	H	-1.132340	-0.403279	0.295461
H64	H	-1.150197	-0.403257	0.149232
C65	C	-0.815342	-0.399204	0.213410
H66	H	-0.868441	-0.457207	0.219635
H67	H	-0.772841	-0.403257	0.139276
H68	H	-0.754969	-0.403235	0.285501
H69	H	-1.374618	-0.519188	0.295600
H70	H	-1.719974	0.000032	-0.105411
C71	C	-0.694262	-0.194700	0.193237
H72	H	-0.658831	-0.266643	0.198261
H73	H	-0.676464	-0.158739	0.116441
H74	H	-0.658577	-0.158730	0.262666
H75	H	-0.763089	0.194821	0.162784
H76	H	-0.896169	0.371495	0.151683
H77	H	-1.133874	0.371500	0.157997
H78	H	-1.924145	0.000025	-0.249611
C79	C	-1.706351	0.000070	-0.618249
H80	H	-1.789993	0.000063	-0.658209
H81	H	-1.668372	0.062368	-0.647739
H82	H	-1.658341	-0.062232	-0.637710
C83	C	-1.249215	0.000090	-0.562327
H84	H	-1.332856	0.000074	-0.602290
H85	H	-1.211241	0.062388	-0.591826
H86	H	-1.201199	-0.062213	-0.581777
H87	H	-1.046032	0.000103	-0.380689
