data_functionalizedCrystal
_audit_creation_method	'MofGen! by Chris Wilmer'
_symmetry_space_group_name_H-M	'P1'
_symmetry_Int_Tables_number	1
_symmetry_cell_setting	triclinic
loop_
_symmetry_equiv_pos_as_xyz
  x,y,z
_cell_length_a	10.686220
_cell_length_b	18.101395
_cell_length_c	10.686551
_cell_angle_alpha	85.590773
_cell_angle_beta	90.307919
_cell_angle_gamma	94.414081
loop_
_atom_site_label
_atom_site_type_symbol
_atom_site_fract_x
_atom_site_fract_y
_atom_site_fract_z
Zn1	Zn	1.972195	-0.180549	-0.562373
Zn2	Zn	2.472195	0.319451	-0.062373
Zn3	Zn	1.955897	-0.314594	-0.352600
Zn4	Zn	2.455897	0.185406	0.147400
Zn5	Zn	1.746304	-0.199495	-0.368688
Zn6	Zn	2.246304	0.300505	0.131312
Zn7	Zn	1.762328	-0.313093	-0.578378
Zn8	Zn	2.262328	0.186907	-0.078378
O9	O	1.859181	-0.251933	-0.465510
O10	O	2.359181	0.248067	0.034490
O11	O	2.145579	-0.191030	-0.521116
O12	O	2.645579	0.308970	-0.021116
O13	O	1.914567	-0.307882	-0.179188
O14	O	2.414567	0.192118	0.320812
O15	O	1.776384	-0.093342	-0.394415
O16	O	2.276384	0.406658	0.105585
O17	O	2.133605	-0.289512	-0.366997
O18	O	2.633605	0.210488	0.133003
O19	O	1.942345	-0.079423	-0.536715
O20	O	2.442345	0.420577	-0.036715
O21	O	1.760580	-0.223319	-0.191007
O22	O	2.260580	0.276681	0.308993
O23	O	1.572884	-0.221864	-0.409934
O24	O	2.072884	0.278136	0.090066
O25	O	1.803694	-0.286954	-0.751801
O26	O	2.303694	0.213046	-0.251801
O27	O	1.584657	-0.305325	-0.563992
O28	O	2.084657	0.194675	-0.063992
O29	O	1.957883	-0.189575	-0.740043
O30	O	2.457883	0.310425	-0.240043
O31	O	1.930105	-0.418034	-0.382515
O32	O	2.430105	0.081966	0.117485
O33	O	1.787891	-0.416932	-0.548393
O34	O	2.287891	0.083068	-0.048393
C35	C	1.533253	-0.265488	-0.490446
C36	C	2.033253	0.234512	0.009554
C37	C	1.393822	-0.271304	-0.501144
C38	C	1.893822	0.228696	-0.001144
C39	C	1.859004	-0.444353	-0.465470
C40	C	2.359004	0.055647	0.034530
C41	C	1.859047	-0.526665	-0.465486
C42	C	2.359047	-0.026665	0.034514
C43	C	1.859195	-0.677364	-0.465525
C44	C	2.359195	-0.177364	0.034475
C45	C	1.769662	-0.708061	-0.569820
C46	C	2.269662	-0.208061	-0.069820
C47	C	1.770059	-0.793644	-0.570200
C48	C	2.270059	-0.293644	-0.070200
C49	C	1.859338	-0.825739	-0.465563
C50	C	2.359338	-0.325739	0.034437
C51	C	1.994323	-0.787323	-0.490996
C52	C	2.494323	-0.287323	0.009004
C53	C	1.993732	-0.701672	-0.491720
C54	C	2.493732	-0.201672	0.008280
C55	C	1.814912	-0.716865	-0.335474
C56	C	2.314912	-0.216865	0.164526
C57	C	1.812132	-0.802599	-0.336426
C58	C	2.312132	-0.302599	0.163574
C59	C	1.859427	-0.909593	-0.465582
C60	C	2.359427	-0.409593	0.034418
C61	C	1.859115	-0.593509	-0.465508
C62	C	2.359115	-0.093509	0.034492
C63	C	2.186382	-0.238325	-0.440476
C64	C	2.686382	0.261675	0.059524
C65	C	2.325815	-0.232526	-0.429809
C66	C	2.825815	0.267474	0.070191
C67	C	1.884394	-0.235984	-0.792712
C68	C	2.384394	0.264016	-0.292712
C69	C	1.895138	-0.229187	-0.932146
C70	C	2.395138	0.270813	-0.432146
C71	C	1.859395	-0.058758	-0.465575
C72	C	2.359395	0.441242	0.034425
C73	C	1.859486	0.023561	-0.465602
C74	C	2.359486	0.523561	0.034398
C75	C	1.834139	-0.267763	-0.139575
C76	C	2.334139	0.232237	0.360425
C77	C	1.823637	-0.274341	-0.000123
C78	C	2.323637	0.225659	0.499877
H79	H	1.345377	-0.308953	-0.570400
H80	H	1.845377	0.191047	-0.070400
Br81	Br	1.646469	-0.845504	-0.304139
Br82	Br	2.146469	-0.345504	0.195861
H83	H	1.964583	-0.185330	-0.980624
H84	H	2.464583	0.314670	-0.480624
H85	H	1.754206	-0.318200	-0.951650
H86	H	2.254206	0.181800	-0.451650
H87	H	1.374265	-0.194879	-0.360540
H88	H	1.874265	0.305121	0.139460
H89	H	1.871777	-0.824949	-0.255412
H90	H	2.371777	-0.324949	0.244588
Br91	Br	1.602830	-0.682452	-0.545777
Br92	Br	2.102830	-0.182452	-0.045777
Br93	Br	1.603777	-0.837400	-0.545691
Br94	Br	2.103777	-0.337400	-0.045691
H95	H	1.800285	-0.808364	-0.666766
H96	H	2.300285	-0.308364	-0.166766
Br97	Br	1.819376	-0.662656	-0.729882
Br98	Br	2.319376	-0.162656	-0.229882
Br99	Br	2.054244	-0.658430	-0.649651
Br100	Br	2.554244	-0.158430	-0.149651
H101	H	2.063284	-0.681085	-0.418494
H102	H	2.563284	-0.181085	0.081506
H103	H	2.031086	-0.802835	-0.584660
H104	H	2.531086	-0.302835	-0.084660
Br105	Br	2.109352	-0.821575	-0.367545
Br106	Br	2.609352	-0.321575	0.132455
H107	H	1.717584	-0.700857	-0.310291
H108	H	2.217584	-0.200857	0.189709
Br109	Br	1.923391	-0.683997	-0.206171
Br110	Br	2.423391	-0.183997	0.293829
