data_functionalizedCrystal
_audit_creation_method	'MofGen! by Chris Wilmer'
_symmetry_space_group_name_H-M	'P1'
_symmetry_Int_Tables_number	1
_symmetry_cell_setting	triclinic
loop_
_symmetry_equiv_pos_as_xyz
  x,y,z
_cell_length_a	19.121063
_cell_length_b	14.908941
_cell_length_c	14.909227
_cell_angle_alpha	89.834600
_cell_angle_beta	89.250810
_cell_angle_gamma	84.378982
loop_
_atom_site_label
_atom_site_type_symbol
_atom_site_fract_x
_atom_site_fract_y
_atom_site_fract_z
Zn1	Zn	-0.197174	-1.393784	-0.440603
Zn2	Zn	0.302826	-0.893784	0.059397
Zn3	Zn	-0.321751	-1.378571	-0.297431
Zn4	Zn	0.178249	-0.878571	0.202569
Zn5	Zn	-0.210711	-1.234045	-0.299698
Zn6	Zn	0.289289	-0.734045	0.200302
Zn7	Zn	-0.320926	-1.237002	-0.456355
Zn8	Zn	0.179074	-0.737002	0.043645
O9	O	-0.262640	-1.310851	-0.373522
O10	O	0.237360	-0.810851	0.126478
O11	O	-0.208379	-1.517865	-0.414069
O12	O	0.291621	-1.017865	0.085931
O13	O	-0.313031	-1.351795	-0.172252
O14	O	0.186969	-0.851795	0.327748
O15	O	-0.110654	-1.260363	-0.312746
O16	O	0.389346	-0.760363	0.187254
O17	O	-0.299905	-1.506688	-0.308882
O18	O	0.200095	-1.006688	0.191118
O19	O	-0.100708	-1.377723	-0.416268
O20	O	0.399292	-0.877723	0.083732
O21	O	-0.231450	-1.245612	-0.173918
O22	O	0.268550	-0.745612	0.326082
O23	O	-0.230651	-1.108338	-0.328020
O24	O	0.269349	-0.608338	0.171980
O25	O	-0.298500	-1.265404	-0.579745
O26	O	0.201500	-0.765404	-0.079745
O27	O	-0.311626	-1.110511	-0.443115
O28	O	0.188374	-0.610511	0.056885
O29	O	-0.207580	-1.380591	-0.568172
O30	O	0.292420	-0.880591	-0.068172
O31	O	-0.419903	-1.354663	-0.324156
O32	O	0.080097	-0.854663	0.175844
O33	O	-0.419297	-1.250653	-0.440917
O34	O	0.080703	-0.750653	0.059083
C35	C	-0.272518	-1.076729	-0.387524
C36	C	0.227482	-0.576729	0.112476
C37	C	-0.276760	-0.976571	-0.393536
C38	C	0.223240	-0.476571	0.106464
C39	C	-0.200269	-0.786065	-0.285138
C40	C	0.299731	-0.286065	0.214862
C41	C	-0.204252	-0.691958	-0.290783
C42	C	0.295748	-0.191958	0.209217
C43	C	-0.288714	-0.694246	-0.410469
C44	C	0.211286	-0.194246	0.089531
C45	C	-0.284730	-0.788354	-0.404823
C46	C	0.215270	-0.288354	0.095177
C47	C	-0.240506	-0.834260	-0.342156
C48	C	0.259494	-0.334260	0.157844
C49	C	-0.236519	-0.928370	-0.336515
C50	C	0.263481	-0.428370	0.163485
C51	C	-0.320984	-0.930656	-0.456196
C52	C	0.179016	-0.430656	0.043804
C53	C	-0.324967	-0.836548	-0.461842
C54	C	0.175033	-0.336548	0.038158
C55	C	-0.445076	-1.301354	-0.384018
C56	C	0.054924	-0.801354	0.115982
C57	C	-0.523118	-1.297375	-0.388533
C58	C	-0.023118	-0.797375	0.111467
C59	C	-0.560070	-1.349706	-0.329909
C60	C	-0.060070	-0.849706	0.170091
C61	C	-0.633398	-1.345970	-0.334160
C62	C	-0.133398	-0.845970	0.165840
C63	C	-0.669773	-1.289897	-0.397033
C64	C	-0.169773	-0.789897	0.102967
C65	C	-0.632815	-1.237564	-0.455664
C66	C	-0.132815	-0.737564	0.044336
C67	C	-0.559488	-1.241306	-0.451416
C68	C	-0.059488	-0.741306	0.048584
C69	C	-0.891158	-1.275893	-0.412903
C70	C	-0.391158	-0.775893	0.087097
C71	C	-0.964491	-1.272153	-0.417145
C72	C	-0.464491	-0.772153	0.082855
C73	C	-0.965068	-1.380561	-0.295641
C74	C	-0.465068	-0.880561	0.204359
C75	C	-0.891740	-1.384293	-0.291395
C76	C	-0.391740	-0.884293	0.208605
C77	C	-0.854789	-1.331964	-0.350029
C78	C	-0.354789	-0.831964	0.149971
C79	C	-0.744726	-1.286075	-0.401379
C80	C	-0.244726	-0.786075	0.098621
C81	C	-0.779836	-1.335792	-0.345687
C82	C	-0.279836	-0.835792	0.154313
C83	C	-0.079490	-1.320410	-0.363003
C84	C	0.420510	-0.820410	0.136997
C85	C	-0.001443	-1.324484	-0.358520
C86	C	0.498557	-0.824484	0.141480
C87	C	-0.251438	-1.325025	-0.607403
C88	C	0.248562	-0.825025	-0.107403
C89	C	-0.246664	-1.331065	-0.707070
C90	C	0.253336	-0.831065	-0.207070
C91	C	-0.252718	-0.545887	-0.359459
C92	C	0.247282	-0.045887	0.140541
C93	C	-0.248472	-0.646045	-0.353448
C94	C	0.251528	-0.146045	0.146552
C95	C	-0.192604	-1.399543	-0.841521
C96	C	0.307396	-0.899543	-0.341521
C97	C	-0.197087	-1.393872	-0.747875
C98	C	0.302913	-0.893872	-0.247875
C99	C	-0.291765	-1.273925	-0.759917
C100	C	0.208235	-0.773925	-0.259917
C101	C	-0.287282	-1.279595	-0.853563
C102	C	0.212718	-0.779595	-0.353563
C103	C	-0.237700	-1.342405	-0.894361
C104	C	0.262300	-0.842405	-0.394361
C105	C	-0.233214	-1.348071	-0.988009
C106	C	0.266786	-0.848071	-0.488009
C107	C	-0.327895	-1.228128	-1.000049
C108	C	0.172105	-0.728128	-0.500049
C109	C	-0.332378	-1.222458	-0.906403
C110	C	0.167622	-0.722458	-0.406403
C111	C	-0.273746	-1.296786	-0.140544
C112	C	0.226254	-0.796786	0.359456
C113	C	-0.278315	-1.290931	-0.040856
C114	C	0.221685	-0.790931	0.459144
H115	H	-0.171487	-0.652721	-0.244354
H116	H	0.328513	-0.152721	0.255646
H117	H	-0.994104	-1.226504	-0.468359
H118	H	-0.494104	-0.726504	0.031641
H119	H	-0.372748	-1.171322	-0.873171
H120	H	0.127252	-0.671322	-0.373171
H121	H	-0.324726	-0.656852	-0.461481
H122	H	0.175274	-0.156852	0.038519
O123	O	-0.179725	-1.415799	-1.032013
O124	O	0.320275	-0.915799	-0.532013
H125	H	-0.184173	-1.410134	-1.106009
H126	H	0.315827	-0.910134	-0.606009
H127	H	-0.774351	-1.240418	-0.452569
H128	H	-0.274351	-0.740418	0.047431
H129	H	-0.152225	-1.450676	-0.874740
H130	H	0.347775	-0.950676	-0.374740
O131	O	-0.851310	-1.219426	-0.476114
O132	O	-0.351310	-0.719426	0.023886
H133	H	-0.888926	-1.179792	-0.520531
H134	H	-0.388926	-0.679792	-0.020531
H135	H	-0.160365	-1.440400	-0.704856
H136	H	0.339635	-0.940400	-0.204856
H137	H	-0.332137	-1.222795	-0.726682
H138	H	0.167863	-0.722795	-0.226682
H139	H	-0.364609	-1.181594	-1.043082
H140	H	0.135391	-0.681594	-0.543082
O141	O	-0.372676	-0.787053	-0.529430
O142	O	0.127324	-0.287053	-0.029430
H143	H	-0.340940	-0.748586	-0.575897
H144	H	0.159060	-0.248586	-0.075897
O145	O	-0.188832	-0.977888	-0.268917
O146	O	0.311168	-0.477888	0.231083
H147	H	-0.161531	-0.928560	-0.230208
H148	H	0.338469	-0.428560	0.269792
H149	H	-0.164251	-0.823444	-0.234122
H150	H	0.335749	-0.323444	0.265878
O151	O	-0.672049	-1.177089	-0.523479
O152	O	-0.172049	-0.677089	-0.023479
H153	H	-0.634032	-1.141335	-0.563538
H154	H	-0.134032	-0.641335	-0.063538
O155	O	-0.519628	-1.184853	-0.514637
O156	O	-0.019628	-0.684853	-0.014637
H157	H	-0.557240	-1.145224	-0.559062
H158	H	-0.057240	-0.645224	-0.059062
O159	O	-0.364386	-0.982634	-0.517702
O160	O	0.135614	-0.482634	-0.017702
H161	H	-0.354190	-1.055786	-0.503248
H162	H	0.145810	-0.555786	-0.003248
H163	H	-0.530458	-1.395362	-0.278707
H164	H	-0.030458	-0.895362	0.221293
O165	O	-0.673256	-1.402406	-0.270925
O166	O	-0.173256	-0.902406	0.229075
H167	H	-0.635644	-1.442015	-0.226483
H168	H	-0.135644	-0.942015	0.273517
H169	H	-0.995161	-1.423165	-0.247906
H170	H	-0.495161	-0.923165	0.252094
O171	O	-0.852505	-1.444780	-0.223590
O172	O	-0.352505	-0.944780	0.276410
H173	H	-0.890520	-1.480550	-0.183544
H174	H	-0.390520	-0.980550	0.316456
H175	H	-0.750217	-1.381450	-0.294499
H176	H	-0.250217	-0.881450	0.205501
