data_functionalizedCrystal
_audit_creation_method	'MofGen! by Chris Wilmer'
_symmetry_space_group_name_H-M	'P1'
_symmetry_Int_Tables_number	1
_symmetry_cell_setting	triclinic
loop_
_symmetry_equiv_pos_as_xyz
  x,y,z
_cell_length_a	10.540514
_cell_length_b	10.540539
_cell_length_c	9.198806
_cell_angle_alpha	90.001045
_cell_angle_beta	90.004468
_cell_angle_gamma	84.520326
loop_
_atom_site_label
_atom_site_type_symbol
_atom_site_fract_x
_atom_site_fract_y
_atom_site_fract_z
O1	O	1.685905	0.178745	0.120903
O2	O	1.316488	0.195634	0.120901
O3	O	1.509625	0.002482	0.120901
O4	O	1.492769	0.371897	0.120904
O5	O	1.509609	0.002482	-0.120884
O6	O	1.316473	0.195634	-0.120884
O7	O	1.685890	0.178744	-0.120882
Cu8	Cu	1.501180	0.187189	-0.142960
Cu9	Cu	1.501198	0.187190	0.142979
O10	O	1.492753	0.371896	-0.120881
C11	C	1.269177	0.194374	0.000009
C12	C	1.128227	0.190605	0.000008
C13	C	1.057522	0.328745	0.000013
C14	C	0.910908	0.324871	0.000569
C15	C	0.935898	0.115478	0.137818
C16	C	1.082438	0.120332	0.137927
C17	C	1.082823	0.118287	-0.137038
C18	C	0.935844	0.116954	-0.138841
C19	C	1.508353	-0.044821	0.000011
C20	C	1.504571	-0.185769	0.000018
C21	C	1.359652	-0.369182	0.000560
C22	C	1.363486	-0.222564	0.000016
C23	C	1.572458	-0.247433	-0.138052
C24	C	1.567643	-0.393977	-0.138169
C25	C	1.570530	-0.394495	0.136786
C26	C	1.571830	-0.247513	0.138612
C27	C	1.733201	0.180004	0.000014
C28	C	1.874151	0.183774	0.000024
C29	C	1.494025	0.419199	0.000012
C30	C	1.497807	0.560147	0.000014
N31	N	1.501176	0.187188	-0.344074
C32	C	1.582268	0.105731	-0.416271
C33	C	1.582288	0.105727	-0.583683
N34	N	1.501212	0.187181	0.344093
H35	H	0.869183	0.378359	0.099928
H36	H	1.303927	-0.397777	0.099573
H37	H	1.651719	0.035993	-0.645770
C38	C	1.284646	-0.409981	-0.132434
H39	H	1.201283	-0.366852	-0.131261
H40	H	1.327196	-0.388899	-0.218907
H41	H	1.279164	-0.499375	-0.129162
H42	H	1.517458	-0.422172	-0.241380
C43	C	0.903180	-0.021983	-0.150652
H44	H	0.941663	-0.059957	-0.235472
H45	H	0.934370	-0.068234	-0.067345
H46	H	0.813347	-0.023470	-0.156444
H47	H	1.651677	0.035991	-0.354145
C48	C	1.504828	-0.192203	0.276603
H49	H	1.436155	-0.131728	0.249880
H50	H	1.473048	-0.259042	0.330817
H51	H	1.563949	-0.151687	0.334232
H52	H	1.669109	-0.441954	-0.144432
C53	C	0.905750	-0.024515	0.144239
H54	H	0.943990	-0.064002	0.228371
H55	H	0.816072	-0.027781	0.148382
H56	H	0.938612	-0.068135	0.059927
H57	H	1.431760	0.256918	-0.406201
H58	H	0.868238	0.378588	-0.098185
H59	H	1.431786	0.256928	-0.593830
H60	H	1.110669	0.170213	0.241325
C61	C	1.146665	-0.019356	-0.138848
H62	H	1.200736	-0.032737	-0.056539
H63	H	1.082996	-0.077300	-0.136031
H64	H	1.195676	-0.032935	-0.225079
H65	H	1.114310	0.164271	-0.241514
C66	C	0.878417	0.178761	0.276888
H67	H	0.916393	0.136757	0.359693
H68	H	0.894295	0.265958	0.278461
H69	H	0.789096	0.172589	0.278313
H70	H	1.086055	0.384783	-0.098786
H71	H	1.130444	0.018859	0.143809
H72	H	1.309681	-0.180804	-0.099124
C73	C	0.880462	0.184375	-0.276560
H74	H	0.819987	0.252954	-0.249560
H75	H	0.947272	0.216337	-0.330652
H76	H	0.839933	0.125427	-0.334422
H77	H	1.310068	-0.179956	0.098991
H78	H	1.674692	-0.223301	0.146950
H79	H	1.087755	0.383963	0.098682
H80	H	1.676067	-0.225088	-0.143185
H81	H	1.524875	-0.426043	0.241435
C82	C	1.508727	-0.189902	-0.276860
H83	H	1.440757	-0.128319	-0.250966
H84	H	1.569702	-0.150335	-0.332727
H85	H	1.476373	-0.255570	-0.332510
H86	H	1.672435	-0.441730	0.137715
