data_functionalizedCrystal
_audit_creation_method	'MofGen! by Chris Wilmer'
_symmetry_space_group_name_H-M	'P1'
_symmetry_Int_Tables_number	1
_symmetry_cell_setting	triclinic
loop_
_symmetry_equiv_pos_as_xyz
  x,y,z
_cell_length_a	27.440280
_cell_length_b	12.970454
_cell_length_c	27.440280
_cell_angle_alpha	59.999590
_cell_angle_beta	89.998875
_cell_angle_gamma	59.994056
loop_
_atom_site_label
_atom_site_type_symbol
_atom_site_fract_x
_atom_site_fract_y
_atom_site_fract_z
Zr1	Zr	0.469490	1.128434	-0.063975
O2	O	0.391664	1.343552	-0.141790
O3	O	0.493348	0.913334	-0.040121
O4	O	0.493338	1.128440	-0.141793
O5	O	0.391683	1.128434	0.040083
O6	O	0.573540	1.128424	-0.141796
O7	O	0.391675	1.128446	-0.040117
O8	O	0.573558	0.743639	0.040078
O9	O	0.391664	1.513219	-0.141791
O10	O	0.563377	1.001788	-0.029949
O11	O	0.503529	1.001792	0.029906
O12	O	0.503517	1.255051	-0.089801
O13	O	0.443670	1.255055	-0.029946
Zr14	Zr	0.597416	1.128388	0.063931
Zr15	Zr	0.597403	1.128407	-0.063980
Zr16	Zr	0.469503	1.128415	0.063936
Zr17	Zr	0.469490	1.399034	-0.063976
Zr18	Zr	0.597416	0.857788	0.063932
O19	O	0.573558	1.343488	0.040076
O20	O	0.573540	1.343515	-0.141797
O21	O	0.391683	1.343525	0.040083
O22	O	0.675242	0.913270	0.141746
O23	O	0.675224	0.913297	-0.040127
O24	O	0.493367	0.913307	0.141753
O25	O	0.675224	1.128388	-0.040128
O26	O	0.573569	1.128382	0.141749
O27	O	0.493367	1.128398	0.141752
O28	O	0.675232	1.128376	0.040073
O29	O	0.493338	1.513198	-0.141794
O30	O	0.573569	0.743623	0.141750
O31	O	0.675242	0.743602	0.141746
O32	O	0.675232	0.743618	0.040074
O33	O	0.391675	1.513204	-0.040118
O34	O	0.493348	1.513183	-0.040122
O35	O	0.563389	1.001771	0.089757
O36	O	0.623237	1.001767	0.029901
O37	O	0.563377	1.255030	-0.029950
O38	O	0.503529	1.255034	0.029905
C39	C	0.533453	0.789932	-0.000021
C40	C	0.533453	0.675055	-0.000021
C41	C	0.373454	1.128444	-0.000016
C42	C	0.319151	1.128455	-0.000014
C43	C	-0.017551	1.128385	-0.044206
C44	C	-0.068569	1.128375	-0.044207
O45	O	-0.094947	1.128326	-0.081770
N46	N	-0.094082	1.128371	-0.000024
C47	C	-0.068571	1.128362	0.044165
O48	O	-0.094957	1.128357	0.081746
C49	C	-0.017552	1.128362	0.044168
C50	C	0.007955	1.128381	-0.000021
C51	C	0.007957	1.128402	-0.088391
C52	C	0.058971	1.128415	-0.088392
C53	C	0.084477	1.128411	-0.044207
C54	C	0.058969	1.128394	-0.000022
C55	C	0.007960	1.128344	0.088359
C56	C	0.058984	1.128342	0.088358
C57	C	0.084491	1.128361	0.044169
C58	C	0.135489	1.128403	0.044163
N59	N	0.161002	1.128407	-0.000019
C60	C	0.135496	1.128411	-0.044204
C61	C	-0.175715	1.128360	0.044158
C62	C	-0.226736	1.128371	0.044154
C63	C	-0.226729	1.128380	-0.044218
C64	C	-0.175710	1.128380	-0.044216
C65	C	-0.150202	1.128364	-0.000025
C66	C	0.242629	1.128440	-0.044202
C67	C	0.293645	1.128459	-0.044199
C68	C	0.293636	1.128442	0.044174
C69	C	0.242622	1.128430	0.044170
C70	C	0.217120	1.128425	-0.000021
O71	O	0.161901	1.128446	0.081709
O72	O	0.161892	1.128398	-0.081775
C73	C	0.693453	1.128378	-0.000028
C74	C	0.747755	1.128367	-0.000030
C75	C	0.533437	1.128435	-0.160019
C76	C	0.533432	1.128443	-0.214321
C77	C	0.533453	1.466890	-0.000023
C78	C	0.533453	1.581767	-0.000023
C79	C	0.489266	1.128400	-0.449007
C80	C	0.489264	1.128403	-0.397987
O81	O	0.451698	1.128362	-0.371585
N82	N	0.533445	1.128405	-0.372476
C83	C	0.577636	1.128388	-0.397983
O84	O	0.615216	1.128389	-0.371598
C85	C	0.577641	1.128375	-0.448999
C86	C	0.533453	1.128388	-0.474512
C87	C	0.445082	1.128411	-0.474519
C88	C	0.445085	1.128411	-0.525536
C89	C	0.489271	1.128399	-0.551040
C90	C	0.533455	1.128387	-0.525528
C91	C	0.621834	1.128348	-0.474503
C92	C	0.621835	1.128333	-0.525522
C93	C	0.577647	1.128346	-0.551035
C94	C	0.577644	1.128375	-0.602050
N95	N	0.533462	1.128373	-0.627561
C96	C	0.489276	1.128385	-0.602057
C97	C	0.577623	1.128414	-0.290845
C98	C	0.577617	1.128438	-0.239832
C99	C	0.489245	1.128450	-0.239839
C100	C	0.489249	1.128437	-0.290855
C101	C	0.533442	1.128413	-0.316356
C102	C	0.489284	1.128386	-0.709196
C103	C	0.489288	1.128391	-0.760218
C104	C	0.577662	1.128372	-0.760205
C105	C	0.577656	1.128374	-0.709189
C106	C	0.533464	1.128376	-0.683684
O107	O	0.615191	1.128410	-0.628483
O108	O	0.451707	1.128366	-0.628443
C109	C	0.533469	1.128387	0.159975
C110	C	0.533475	1.128379	0.214277
C111	C	0.693453	0.789899	-0.000027
C112	C	0.747755	0.675011	-0.000029
C113	C	0.533469	0.789908	0.159976
C114	C	0.533475	0.675023	0.214278
C115	C	0.693469	0.789875	0.159970
C116	C	0.747777	0.674979	0.214270
C117	C	0.373438	1.466947	-0.160014
C118	C	0.319130	1.581843	-0.214314
C119	C	0.373454	1.466923	-0.000017
C120	C	0.319151	1.581811	-0.000015
C121	C	0.533437	1.466914	-0.160020
C122	C	0.533432	1.581799	-0.214322
C123	C	0.742010	0.621069	-0.031276
C124	C	0.793028	0.513135	-0.031290
C125	C	0.849791	0.459136	-0.000052
C126	C	0.855535	0.513089	0.031197
C127	C	0.804517	0.621029	0.031206
C128	C	0.564724	0.621061	0.271026
C129	C	0.564726	0.513130	0.322053
C130	C	0.533484	0.459155	0.316331
C131	C	0.502231	0.513128	0.259578
C132	C	0.502225	0.621065	0.208552
C133	C	0.804526	0.621021	0.208526
C134	C	0.855558	0.513079	0.259542
C135	C	0.849841	0.459090	0.316301
C136	C	0.793086	0.513059	0.322044
C137	C	0.742055	0.621006	0.271029
C138	C	0.262381	1.635814	-0.208570
C139	C	0.211348	1.743790	-0.259586
C140	C	0.217065	1.797785	-0.316345
C141	C	0.273820	1.743809	-0.322088
C142	C	0.324852	1.635843	-0.271073
C143	C	0.324897	1.635764	0.031227
C144	C	0.273879	1.743728	0.031226
C145	C	0.217116	1.797730	-0.000013
C146	C	0.211372	1.743773	-0.031260
C147	C	0.262389	1.635818	-0.031262
C148	C	0.564681	1.635739	-0.208581
C149	C	0.564687	1.743671	-0.259599
C150	C	0.533441	1.797668	-0.316357
C151	C	0.502191	1.743717	-0.322096
C152	C	0.502189	1.635780	-0.271079
H153	H	0.314411	1.128478	-0.080185
O154	O	-0.150892	1.128127	-0.087089
C155	C	-0.133687	1.002544	-0.084294
H156	H	-0.126960	0.914752	-0.037693
H157	H	-0.170018	1.030950	-0.118555
C158	C	-0.083167	1.053415	-0.155148
C159	C	-0.074899	0.945582	-0.097910
H160	H	-0.046905	1.018280	-0.163550
H161	H	-0.094760	1.138026	-0.157033
H162	H	-0.113444	1.077077	-0.183692
H163	H	-0.044628	0.921935	-0.069367
H164	H	-0.063300	0.860965	-0.096021
H165	H	0.891399	0.371192	0.357836
O166	O	0.810194	0.673235	0.153439
C167	C	0.871230	0.602366	0.159321
H168	H	0.898444	0.558007	0.204823
H169	H	0.886261	0.508520	0.155210
C170	C	0.847411	0.766131	0.053949
C171	C	0.880835	0.711658	0.109833
H172	H	0.853336	0.833544	0.023421
H173	H	0.806290	0.813874	0.049985
H174	H	0.859940	0.687913	0.050531
H175	H	0.868301	0.789873	0.113253
H176	H	0.921955	0.663931	0.113797
H177	H	0.221872	1.128433	-0.080185
O178	O	0.787616	0.460620	0.377214
C179	C	0.815255	0.487014	0.408587
H180	H	0.850010	0.500489	0.389087
H181	H	0.780173	0.590785	0.404359
C182	C	0.803201	0.340914	0.498860
C183	C	0.845892	0.357452	0.474913
H184	H	0.822097	0.260998	0.539773
H185	H	0.784578	0.323136	0.477723
H186	H	0.773969	0.427398	0.495331
H187	H	0.875118	0.270976	0.478435
H188	H	0.864520	0.375213	0.496051
H189	H	0.590125	1.591791	-0.162371
H190	H	0.590134	1.787587	-0.254914
O191	O	0.910730	0.460564	0.254062
C192	C	0.954552	0.353699	0.311256
H193	H	0.934678	0.371401	0.345082
H194	H	0.970528	0.240786	0.324256
C195	C	1.032095	0.343839	0.268929
C196	C	1.007687	0.365589	0.310474
H197	H	1.064873	0.351167	0.268447
H198	H	1.002572	0.415832	0.230396
H199	H	1.045404	0.249745	0.279767
H200	H	0.994372	0.459687	0.299631
H201	H	1.037209	0.293612	0.349005
H202	H	0.613633	1.128384	-0.688421
O203	O	0.446306	1.128650	-0.215051
C204	C	0.413964	1.254279	-0.215241
H205	H	0.442430	1.296152	-0.217498
H206	H	0.371370	1.342233	-0.255690
C207	C	0.362761	1.164705	-0.154988
C208	C	0.397725	1.216127	-0.157755
H209	H	0.352741	1.141175	-0.119529
H210	H	0.384549	1.080068	-0.154861
H211	H	0.327270	1.238009	-0.188699
H212	H	0.433218	1.142817	-0.124048
H213	H	0.375943	1.300750	-0.157874
H214	H	0.533448	1.885559	-0.357893
H215	H	0.476781	0.664986	0.162347
H216	H	0.695849	0.664925	0.275714
H217	H	0.079751	1.128325	0.124345
O218	O	0.664748	1.128154	-0.449592
C219	C	0.637859	1.253506	-0.449595
H220	H	0.592096	1.341716	-0.485811
H221	H	0.632594	1.224993	-0.404240
C222	C	0.733625	1.201453	-0.417461
C223	C	0.677420	1.309798	-0.461946
H224	H	0.758029	1.236174	-0.425077
H225	H	0.751741	1.116998	-0.417457
H226	H	0.729229	1.177702	-0.379670
H227	H	0.681816	1.333534	-0.499735
H228	H	0.659305	1.394259	-0.461956
O229	O	0.217844	1.128622	0.087075
C230	C	0.200597	1.254249	0.084261
H231	H	0.227736	1.296145	0.061799
H232	H	0.151091	1.342191	0.057351
C233	C	0.178639	1.164632	0.175468
C234	C	0.211976	1.216082	0.147885
H235	H	0.185655	1.141092	0.214713
H236	H	0.190256	1.079997	0.177363
H237	H	0.137387	1.237925	0.153037
H238	H	0.253227	1.142783	0.170311
H239	H	0.200366	1.300704	0.145995
O240	O	-0.251547	1.128628	-0.087211
C241	C	-0.268763	1.254216	-0.143780
H242	H	-0.275491	1.342014	-0.138680
H243	H	-0.232438	1.225822	-0.164622
C244	C	-0.319285	1.203321	-0.190570
C245	C	-0.327553	1.311161	-0.184307
H246	H	-0.355548	1.238445	-0.215571
H247	H	-0.307684	1.118707	-0.152459
H248	H	-0.289012	1.179669	-0.207937
H249	H	-0.357820	1.334798	-0.166934
H250	H	-0.339160	1.395781	-0.222417
H251	H	0.257703	1.591893	-0.056702
H252	H	-0.247506	1.128378	0.080131
H253	H	0.476794	0.469166	0.254928
H254	H	-0.154952	1.128359	0.080142
O255	O	0.471924	1.796163	-0.377265
C256	C	0.512036	1.769758	-0.408642
H257	H	0.553167	1.756269	-0.389147
H258	H	0.526003	1.665992	-0.404414
C259	C	0.430904	1.915876	-0.498909
C260	C	0.481420	1.899321	-0.474968
H261	H	0.412019	1.995792	-0.539822
H262	H	0.403880	1.933662	-0.477769
H263	H	0.442551	1.829396	-0.495380
H264	H	0.469772	1.985793	-0.478491
H265	H	0.508442	1.881553	-0.496110
H266	H	0.409100	1.128416	-0.453756
H267	H	0.590165	0.664995	0.275696
O268	O	0.471773	1.583606	-0.276767
C269	C	0.444209	1.654399	-0.337804
H270	H	0.438035	1.763793	-0.365004
H271	H	0.473485	1.583607	-0.352839
C272	C	0.390476	1.545225	-0.314017
C273	C	0.382888	1.679590	-0.347425
H274	H	0.352651	1.560759	-0.319952
H275	H	0.409048	1.497525	-0.272895
H276	H	0.414874	1.486245	-0.326550
H277	H	0.358496	1.738560	-0.334887
H278	H	0.364310	1.727301	-0.388545
O279	O	0.156186	1.796346	-0.061549
C280	C	0.112396	1.903216	-0.054851
H281	H	0.132298	1.885469	-0.012657
H282	H	0.096431	2.016123	-0.095219
C283	C	0.034800	1.913204	-0.101825
C284	C	0.059243	1.891400	-0.049999
H285	H	0.002012	1.905922	-0.098835
H286	H	0.064302	1.841208	-0.106340
H287	H	0.021501	2.007293	-0.135460
H288	H	0.072549	1.797307	-0.016366
H289	H	0.029742	1.963381	-0.045478
O290	O	0.620632	1.128093	-0.784947
C291	C	0.652944	1.002495	-0.784780
H292	H	0.648615	0.914724	-0.748653
H293	H	0.634357	1.030889	-0.830156
C294	C	0.724515	1.053308	-0.816477
C295	C	0.719202	0.945502	-0.772101
H296	H	0.765386	1.018154	-0.808658
H297	H	0.702745	1.137929	-0.816591
H298	H	0.709022	1.076960	-0.854286
H299	H	0.734688	0.921864	-0.734294
H300	H	0.740977	0.860875	-0.771980
H301	H	0.079737	1.128424	-0.124373
H302	H	0.533493	0.371266	0.357885
O303	O	0.664795	1.128367	-0.550231
C304	C	0.703801	1.128313	-0.516759
H305	H	0.679990	1.174245	-0.491248
H306	H	0.744883	1.011954	-0.483828
C307	C	0.752325	1.166978	-0.590472
C308	C	0.723078	1.223403	-0.559143
H309	H	0.764219	1.225628	-0.616616
H310	H	0.726048	1.167008	-0.613023
H311	H	0.786556	1.070012	-0.563024
H312	H	0.688844	1.320360	-0.586591
H313	H	0.749350	1.223391	-0.536598
O314	O	0.686919	0.673397	-0.061676
C315	C	0.692801	0.602602	-0.089245
H316	H	0.738331	0.558122	-0.095431
H317	H	0.688624	0.508849	-0.059968
C318	C	0.587444	0.766629	-0.142952
C319	C	0.643363	0.712009	-0.150555
H320	H	0.556947	0.834113	-0.180769
H321	H	0.583481	0.814323	-0.124377
H322	H	0.583972	0.688490	-0.118552
H323	H	0.646837	0.790145	-0.174948
H324	H	0.647325	0.664331	-0.169135
H325	H	0.453303	1.128406	-0.780990
O326	O	0.256713	1.583595	-0.153483
C327	C	0.195677	1.654388	-0.159366
H328	H	0.168466	1.763798	-0.204897
H329	H	0.180637	1.583612	-0.155179
C330	C	0.219499	1.545150	-0.054018
C331	C	0.186079	1.679535	-0.109939
H332	H	0.213578	1.560657	-0.023528
H333	H	0.260620	1.497451	-0.050054
H334	H	0.206962	1.486183	-0.050538
H335	H	0.198621	1.738492	-0.113422
H336	H	0.144959	1.727245	-0.113902
H337	H	0.788339	0.469220	-0.056736
H338	H	0.165141	1.787718	-0.254899
O339	O	0.167429	1.902611	-0.365837
C340	C	0.116117	1.938680	-0.348589
H341	H	0.127844	1.843992	-0.301492
H342	H	0.098940	2.040097	-0.349511
C343	C	0.053027	2.085289	-0.449965
C344	C	0.067429	1.968986	-0.392122
H345	H	0.022992	2.103991	-0.476819
H346	H	0.087596	2.060994	-0.461586
H347	H	0.038716	2.169790	-0.450725
H348	H	0.081747	1.884485	-0.391361
H349	H	0.032861	1.993269	-0.380501
O350	O	0.910690	0.460385	0.061621
C351	C	0.942069	0.309118	0.105448
H352	H	0.908954	0.279610	0.117056
H353	H	0.972329	0.247401	0.087552
C354	C	1.020875	0.303357	0.147558
C355	C	0.980203	0.267116	0.161820
H356	H	1.044400	0.277445	0.182330
H357	H	0.999736	0.405267	0.118030
H358	H	1.046086	0.251922	0.132644
H359	H	0.954989	0.318564	0.176726
H360	H	1.001339	0.165213	0.191352
H361	H	0.278468	1.787785	-0.368307
H362	H	-0.012800	1.128327	0.124342
O363	O	0.279499	1.795885	0.061682
C364	C	0.310991	1.680655	0.122663
H365	H	0.306720	1.588938	0.133714
H366	H	0.360093	1.638036	0.132654
C367	C	0.290075	1.848900	0.147280
C368	C	0.284826	1.736257	0.160854
H369	H	0.273938	1.883197	0.170839
H370	H	0.268861	1.926533	0.106196
H371	H	0.330995	1.813368	0.155606
H372	H	0.243906	1.771794	0.152522
H373	H	0.306033	1.658631	0.201939
O374	O	0.809996	0.673604	0.061521
C375	C	0.752801	0.780419	0.054854
H376	H	0.718966	0.827685	0.012654
H377	H	0.739812	0.728753	0.095222
C378	C	0.795130	0.844989	0.101877
C379	C	0.753575	0.903051	0.050044
H380	H	0.795607	0.920632	0.098913
H381	H	0.833664	0.773022	0.106371
H382	H	0.784301	0.801935	0.135512
H383	H	0.764408	0.946088	0.016411
H384	H	0.715042	0.975029	0.045544
O385	O	0.380046	1.583092	0.061650
C386	C	0.411440	1.431830	0.105494
H387	H	0.378337	1.402287	0.117112
H388	H	0.441713	1.370094	0.087610
C389	C	0.490217	1.426187	0.147581
C390	C	0.449559	1.389903	0.161854
H391	H	0.513732	1.400322	0.182346
H392	H	0.469067	1.528094	0.118041
H393	H	0.515438	1.374737	0.132677
H394	H	0.424334	1.441366	0.176750
H395	H	0.470705	1.288003	0.191397
H396	H	-0.012804	1.128400	-0.124372
H397	H	0.314409	1.128445	0.080147
H398	H	0.453299	1.128385	-0.688435
H399	H	0.409104	1.128415	-0.546303
H400	H	0.453268	1.128446	-0.311624
H401	H	0.613593	1.128451	-0.219069
H402	H	0.371058	1.591900	-0.275757
H403	H	0.175579	1.885634	-0.000006
H404	H	0.891327	0.371244	-0.000064
H405	H	0.613609	1.128406	-0.311608
H406	H	0.590178	0.469198	0.368259
