data_functionalizedCrystal
_audit_creation_method	'MofGen! by Chris Wilmer'
_symmetry_space_group_name_H-M	'P1'
_symmetry_Int_Tables_number	1
_symmetry_cell_setting	triclinic
loop_
_symmetry_equiv_pos_as_xyz
  x,y,z
_cell_length_a	14.519709
_cell_length_b	12.376457
_cell_length_c	14.519731
_cell_angle_alpha	101.297478
_cell_angle_beta	83.684499
_cell_angle_gamma	78.691279
loop_
_atom_site_label
_atom_site_type_symbol
_atom_site_fract_x
_atom_site_fract_y
_atom_site_fract_z
O1	O	1.241505	-0.093858	0.103270
O2	O	1.574838	0.239476	0.436604
O3	O	1.908171	0.572809	0.769937
O4	O	0.973035	-0.093893	0.117500
O5	O	1.306369	0.239441	0.450834
O6	O	1.639702	0.572774	0.784167
O7	O	1.114376	-0.093864	-0.023850
O8	O	1.447709	0.239469	0.309484
O9	O	1.781043	0.572803	0.642817
O10	O	1.100164	-0.093886	0.244620
O11	O	1.433498	0.239447	0.577954
O12	O	1.766831	0.572780	0.911287
O13	O	1.079053	0.094141	0.011440
O14	O	1.412387	0.427474	0.344773
O15	O	1.745720	0.760808	0.678106
O16	O	0.937713	0.094112	0.152789
O17	O	1.271046	0.427446	0.486123
O18	O	1.604380	0.760779	0.819456
O19	O	1.206182	0.094147	0.138560
O20	O	1.539515	0.427481	0.471893
O21	O	1.872849	0.760814	0.805226
Zn22	Zn	1.066339	0.123980	0.151277
Zn23	Zn	1.399673	0.457313	0.484611
Zn24	Zn	1.733006	0.790646	0.817944
Zn25	Zn	1.112878	-0.123725	0.104782
Zn26	Zn	1.446212	0.209608	0.438116
Zn27	Zn	1.779545	0.542942	0.771449
O28	O	1.064842	0.094119	0.279910
O29	O	1.398175	0.427452	0.613243
O30	O	1.731508	0.760785	0.946576
C31	C	0.921015	0.000105	0.134481
C32	C	1.254349	0.333439	0.467814
C33	C	1.587682	0.666772	0.801147
C34	C	0.818636	0.000092	0.132490
C35	C	1.151970	0.333426	0.465823
C36	C	1.485303	0.666759	0.799157
N37	N	1.034584	0.293031	0.183009
N38	N	1.367918	0.626365	0.516342
N39	N	1.701251	0.959698	0.849675
C40	C	1.096049	0.000139	-0.040565
C41	C	1.429382	0.333472	0.292769
C42	C	1.762715	0.666805	0.626102
C43	C	1.094052	0.000139	-0.142945
C44	C	1.427386	0.333472	0.190389
C45	C	1.760719	0.666806	0.523722
C46	C	0.443730	0.000145	0.125180
C47	C	0.777063	0.333478	0.458514
C48	C	1.110397	0.666811	0.791847
C49	C	0.548041	0.000130	0.127210
C50	C	0.881374	0.333463	0.460543
C51	C	1.214708	0.666796	0.793877
C52	C	0.631180	0.000117	0.128835
C53	C	0.964513	0.333451	0.462168
C54	C	1.297847	0.666784	0.795501
C55	C	0.735497	0.000105	0.130865
C56	C	1.068830	0.333438	0.464199
C57	C	1.402164	0.666771	0.797532
C58	C	1.258203	0.000147	0.121579
C59	C	1.591536	0.333480	0.454912
C60	C	1.924870	0.666813	0.788245
C61	C	1.360583	0.000152	0.123568
C62	C	1.693917	0.333485	0.456901
C63	C	2.027250	0.666819	0.790235
N64	N	1.144641	-0.292777	0.073044
N65	N	1.477974	0.040556	0.406377
N66	N	1.811307	0.373890	0.739711
C67	C	1.218354	0.648054	-0.000632
C68	C	1.551687	0.981387	0.332701
C69	C	1.885021	1.314720	0.666034
C70	C	1.240574	0.529718	-0.022841
C71	C	1.573907	0.863052	0.310492
C72	C	1.907241	1.196385	0.643825
C73	C	1.189078	0.470541	0.028619
C74	C	1.522412	0.803874	0.361952
C75	C	1.855745	1.137207	0.695286
C76	C	1.115359	0.529710	0.102293
C77	C	1.448692	0.863044	0.435626
C78	C	1.782026	1.196377	0.768959
C79	C	1.093142	0.648057	0.124508
C80	C	1.426475	0.981391	0.457842
C81	C	1.759808	1.314724	0.791175
C82	C	1.063866	0.470544	0.153760
C83	C	1.397199	0.803878	0.487093
C84	C	1.730533	1.137211	0.820427
C85	C	0.990147	0.529714	0.227433
C86	C	1.323480	0.863047	0.560767
C87	C	1.656813	1.196380	0.894100
C88	C	0.967932	0.648049	0.249645
C89	C	1.301266	0.981382	0.582979
C90	C	1.634599	1.314716	0.916312
C91	C	1.019428	0.707227	0.198185
C92	C	1.352761	1.040560	0.531518
C93	C	1.686095	1.373893	0.864851
C94	C	1.086083	0.352197	0.131544
C95	C	1.419417	0.685531	0.464877
C96	C	1.752750	1.018864	0.798211
C97	C	0.960871	0.352201	0.256685
C98	C	1.294204	0.685534	0.590018
C99	C	1.627538	1.018867	0.923352
C100	C	0.938651	0.470536	0.278894
C101	C	1.271984	0.803869	0.612227
C102	C	1.605317	1.137203	0.945560
C103	C	1.092431	0.000136	-0.226089
C104	C	1.425764	0.333470	0.107244
C105	C	1.759098	0.666803	0.440577
C106	C	1.090406	0.000127	-0.330400
C107	C	1.423739	0.333461	0.002934
C108	C	1.757073	0.666794	0.336267
C109	C	1.088799	0.000120	-0.413540
C110	C	1.422132	0.333453	-0.080207
C111	C	1.755466	0.666786	0.253126
C112	C	1.086774	0.000113	-0.517857
C113	C	1.420107	0.333446	-0.184524
C114	C	1.753441	0.666780	0.148810
C115	C	1.083170	0.000113	0.296624
C116	C	1.416503	0.333447	0.629957
C117	C	1.749836	0.666780	0.963291
C118	C	1.085167	0.000106	0.399003
C119	C	1.418500	0.333439	0.732336
C120	C	1.751834	0.666772	1.065669
H121	H	1.146106	0.304032	0.071559
H122	H	1.479439	0.637365	0.404893
H123	H	1.812773	0.970699	0.738226
F124	F	0.889483	0.711022	0.328064
F125	F	1.222817	1.044355	0.661397
F126	F	1.556150	1.377689	0.994730
F127	F	1.273159	0.711038	-0.055386
F128	F	1.606492	1.044371	0.277947
F129	F	1.939825	1.377705	0.611280
F130	F	0.995776	0.833175	0.221818
F131	F	1.329109	1.166508	0.555151
F132	F	1.662443	1.499841	0.888485
H133	H	0.918940	0.304019	0.298591
H134	H	1.252273	0.637353	0.631924
H135	H	1.585607	0.970686	0.965257
F136	F	0.860195	0.533521	0.357302
F137	F	1.193528	0.866854	0.690635
F138	F	1.526862	1.200188	1.023968
F139	F	1.212727	0.344597	0.004980
F140	F	1.546061	0.677931	0.338313
F141	F	1.879394	1.011264	0.671647
F142	F	1.319028	0.466750	-0.101245
F143	F	1.652362	0.800083	0.232088
F144	F	1.985695	1.133417	0.565422
