data_functionalizedCrystal
_audit_creation_method	'MofGen! by Chris Wilmer'
_symmetry_space_group_name_H-M	'P1'
_symmetry_Int_Tables_number	1
_symmetry_cell_setting	triclinic
loop_
_symmetry_equiv_pos_as_xyz
  x,y,z
_cell_length_a	14.044191
_cell_length_b	15.944551
_cell_length_c	12.503572
_cell_angle_alpha	93.522593
_cell_angle_beta	86.162165
_cell_angle_gamma	88.345257
loop_
_atom_site_label
_atom_site_type_symbol
_atom_site_fract_x
_atom_site_fract_y
_atom_site_fract_z
O1	O	1.263184	0.198087	-0.089272
O2	O	0.987215	0.190772	-0.089286
O3	O	1.132735	0.072720	-0.089269
O4	O	1.117664	0.316139	-0.089289
O5	O	1.121791	0.081614	0.089372
O6	O	0.976271	0.199667	0.089355
O7	O	1.252240	0.206981	0.089368
Cu8	Cu	1.113256	0.204136	0.105673
Cu9	Cu	1.126199	0.193617	-0.105591
O10	O	1.106720	0.325034	0.089351
C11	C	0.946428	0.192020	0.000033
C12	C	0.841202	0.182476	0.000028
C13	C	0.590918	0.232714	0.000035
C14	C	0.648543	0.165042	0.000038
C15	C	0.755748	0.174745	0.000033
C16	C	0.483703	0.223013	0.000040
C17	C	1.126637	0.045826	0.000051
C18	C	1.124761	-0.047560	0.000052
C19	C	1.030078	-0.269510	0.000032
C20	C	1.068650	-0.322848	0.088115
C21	C	1.121368	-0.218541	0.000043
C22	C	1.079462	-0.331599	-0.088010
C23	C	1.118084	-0.383700	0.000031
C24	C	1.159961	-0.270646	0.088199
C25	C	1.170765	-0.279395	-0.088006
C26	C	1.209402	-0.332710	0.000098
C27	C	1.123257	-0.123397	0.000052
C28	C	1.116202	-0.478842	0.000030
C29	C	1.293027	0.205733	0.000047
C30	C	1.398253	0.215277	0.000045
C31	C	1.112818	0.351927	0.000029
C32	C	1.114694	0.445314	0.000021
N33	N	1.104160	0.211534	0.254264
N34	N	1.135302	0.186213	-0.254182
C35	C	1.090779	0.222424	0.473378
C36	C	1.148680	0.175326	0.526711
C37	C	1.141235	0.181385	0.648634
C38	C	1.098223	0.216366	0.351444
H39	H	0.954297	-0.241874	0.000117
O40	O	1.024894	0.275974	0.527967
C41	C	0.972535	0.318598	0.454373
H42	H	0.976212	0.280161	0.374173
H43	H	1.004158	0.382686	0.442457
C44	C	0.863136	0.377716	0.596920
C45	C	0.867646	0.330503	0.498420
H46	H	0.798437	0.385064	0.624091
H47	H	0.898414	0.349002	0.646503
H48	H	0.889495	0.431117	0.586977
H49	H	0.841299	0.277100	0.508367
H50	H	0.832362	0.359208	0.448840
O51	O	0.611200	0.087288	-0.000013
C52	C	0.510920	0.094782	0.000013
H53	H	0.489898	0.156943	-0.033799
H54	H	0.478138	0.092945	0.085714
C55	C	0.499883	-0.054871	-0.028526
C56	C	0.474063	0.021474	-0.070063
H57	H	0.477145	-0.100092	-0.071748
H58	H	0.567442	-0.059920	-0.028540
H59	H	0.472562	-0.056390	0.042891
H60	H	0.501393	0.022996	-0.141474
H61	H	0.406506	0.026522	-0.070063
H62	H	0.622097	0.297932	0.000026
O63	O	1.017001	-0.345829	0.176870
C64	C	0.922516	-0.313502	0.176569
H65	H	0.905768	-0.301171	0.090855
H66	H	0.914352	-0.252198	0.228769
C67	C	0.873528	-0.392805	0.326787
C68	C	0.852955	-0.377666	0.221510
H69	H	0.830619	-0.432382	0.354514
H70	H	0.937185	-0.414582	0.326993
H71	H	0.866725	-0.341713	0.370274
H72	H	0.859770	-0.428755	0.178023
H73	H	0.789298	-0.355899	0.221298
H74	H	1.193974	-0.244054	0.162748
O75	O	1.299878	-0.365448	0.000347
C76	C	1.341952	-0.334110	0.093323
H77	H	1.283575	-0.313064	0.157935
H78	H	1.387323	-0.278321	0.073151
C79	C	1.477178	-0.429520	0.055497
C80	C	1.405479	-0.403677	0.134857
H81	H	1.516368	-0.472430	0.081116
H82	H	1.448835	-0.450631	-0.007145
H83	H	1.514977	-0.383023	0.038694
H84	H	1.367674	-0.450171	0.151649
H85	H	1.433817	-0.382575	0.197503
H86	H	1.213906	-0.260083	-0.162473
H87	H	1.045400	-0.358277	-0.162483
O88	O	1.214294	0.121698	0.471789
C89	C	1.207078	0.127371	0.360518
H90	H	1.172935	0.190867	0.345218
H91	H	1.161092	0.074880	0.328789
C92	C	1.349370	0.040716	0.321294
C93	C	1.307442	0.118706	0.302501
H94	H	1.411279	0.035367	0.285505
H95	H	1.354231	0.036891	0.396259
H96	H	1.311039	-0.003018	0.294853
H97	H	1.345767	0.162438	0.328954
H98	H	1.302590	0.122538	0.227539
