data_functionalizedCrystal
_audit_creation_method	'MofGen! by Chris Wilmer'
_symmetry_space_group_name_H-M	'P1'
_symmetry_Int_Tables_number	1
_symmetry_cell_setting	triclinic
loop_
_symmetry_equiv_pos_as_xyz
  x,y,z
_cell_length_a	19.077236
_cell_length_b	19.077713
_cell_length_c	19.077174
_cell_angle_alpha	94.475462
_cell_angle_beta	85.294282
_cell_angle_gamma	90.118033
loop_
_atom_site_label
_atom_site_type_symbol
_atom_site_fract_x
_atom_site_fract_y
_atom_site_fract_z
Zn1	Zn	1.104346	-0.254104	-0.452610
Zn2	Zn	1.604346	0.245896	0.047390
Zn3	Zn	1.104254	-0.367254	-0.339459
Zn4	Zn	1.604254	0.132746	0.160541
Zn5	Zn	0.981728	-0.254115	-0.329994
Zn6	Zn	1.481728	0.245885	0.170006
Zn7	Zn	0.991522	-0.376293	-0.452942
Zn8	Zn	1.491522	0.123707	0.047058
O9	O	1.045463	-0.312942	-0.393751
O10	O	1.545463	0.187058	0.106249
O11	O	1.202829	-0.265326	-0.441423
O12	O	1.702829	0.234674	0.058577
O13	O	1.083864	-0.348468	-0.239395
O14	O	1.583864	0.151532	0.260605
O15	O	0.993933	-0.155627	-0.342159
O16	O	1.493933	0.344373	0.157841
O17	O	1.202761	-0.348457	-0.358291
O18	O	1.702761	0.151543	0.141709
O19	O	1.084020	-0.155620	-0.432245
O20	O	1.584020	0.344380	0.067755
O21	O	0.993844	-0.265345	-0.232441
O22	O	1.493844	0.234655	0.267559
O23	O	0.884532	-0.274109	-0.342481
O24	O	1.384532	0.225891	0.157519
O25	O	1.010626	-0.363863	-0.551706
O26	O	1.510626	0.136137	-0.051706
O27	O	0.891728	-0.363873	-0.432810
O28	O	1.391728	0.136127	0.067190
O29	O	1.093517	-0.274091	-0.551463
O30	O	1.593517	0.225909	-0.051463
O31	O	1.093361	-0.466939	-0.358612
O32	O	1.593361	0.033061	0.141388
O33	O	1.010537	-0.473580	-0.441987
O34	O	1.510537	0.026420	0.058013
C35	C	0.862592	-0.319974	-0.386654
C36	C	1.362592	0.180026	0.113346
C37	C	0.784360	-0.323000	-0.383636
C38	C	1.284360	0.177000	0.116364
C39	C	0.747648	-0.281214	-0.425572
C40	C	1.247648	0.218786	0.074428
C41	C	0.674141	-0.284053	-0.422730
C42	C	1.174141	0.215947	0.077270
C43	C	0.637347	-0.328683	-0.377954
C44	C	1.137347	0.171317	0.122046
C45	C	0.674064	-0.370471	-0.336013
C46	C	1.174064	0.129529	0.163987
C47	C	0.747569	-0.367627	-0.338853
C48	C	1.247569	0.132373	0.161147
C49	C	0.417503	-0.341818	-0.364810
C50	C	0.917503	0.158182	0.135190
C51	C	0.343993	-0.344660	-0.361976
C52	C	0.843993	0.155340	0.138024
C53	C	0.344075	-0.258241	-0.448692
C54	C	0.844075	0.241759	0.051308
C55	C	0.417582	-0.255405	-0.451530
C56	C	0.917582	0.244595	0.048470
C57	C	0.454292	-0.297190	-0.409586
C58	C	0.954292	0.202810	0.090414
N59	N	0.562211	-0.331589	-0.375049
N60	N	1.062211	0.168411	0.124951
N61	N	0.529427	-0.294280	-0.412488
N62	N	1.029427	0.205720	0.087512
C63	C	1.053022	-0.495796	-0.401379
C64	C	1.553022	0.004204	0.098621
C65	C	1.056321	-0.574020	-0.404668
C66	C	1.556321	-0.074020	0.095332
C67	C	1.079980	-1.014331	-0.428239
C68	C	1.579980	-0.514331	0.071761
C69	C	1.076872	-0.940831	-0.425142
C70	C	1.576872	-0.440831	0.074858
C71	C	1.028449	-0.904149	-0.376662
C72	C	1.528449	-0.404149	0.123338
C73	C	0.983136	-0.940970	-0.331271
C74	C	1.483136	-0.440970	0.168729
C75	C	0.986248	-1.014469	-0.334365
C76	C	1.486248	-0.514469	0.165635
C77	C	1.014120	-0.684340	-0.362372
C78	C	1.514120	-0.184340	0.137628
C79	C	1.011010	-0.610836	-0.359282
C80	C	1.511010	-0.110836	0.140718
C81	C	1.104747	-0.610702	-0.453153
C82	C	1.604747	-0.110702	0.046847
C83	C	1.107852	-0.684202	-0.456246
C84	C	1.607852	-0.184202	0.043754
C85	C	1.062541	-0.721017	-0.410853
C86	C	1.562541	-0.221017	0.089147
N87	N	1.025269	-0.829021	-0.373496
N88	N	1.525269	-0.329021	0.126504
N89	N	1.065725	-0.796144	-0.414015
N90	N	1.565725	-0.296144	0.085985
C91	C	1.229048	-0.305882	-0.400876
C92	C	1.729048	0.194118	0.099124
C93	C	1.307281	-0.302874	-0.403912
C94	C	1.807281	0.197126	0.096088
C95	C	1.053174	-0.319984	-0.577921
C96	C	1.553174	0.180016	-0.077921
C97	C	1.056460	-0.322985	-0.656403
C98	C	1.556460	0.177015	-0.156403
C99	C	1.037894	-0.129373	-0.386110
C100	C	1.537894	0.370627	0.113890
C101	C	1.034669	-0.051147	-0.382853
C102	C	1.534669	0.448853	0.117147
C103	C	1.011138	-0.281118	-0.689653
C104	C	1.511138	0.218882	-0.189653
C105	C	1.014223	-0.283944	-0.763395
C106	C	1.514223	0.216056	-0.263395
C107	C	1.062635	-0.328633	-0.803886
C108	C	1.562635	0.171367	-0.303886
C109	C	1.107960	-0.370505	-0.770631
C110	C	1.607960	0.129495	-0.270631
C111	C	1.104870	-0.367683	-0.696890
C112	C	1.604870	0.132317	-0.196890
C113	C	1.076897	-0.341719	-1.024817
C114	C	1.576897	0.158281	-0.524817
C115	C	1.079984	-0.344537	-1.098563
C116	C	1.579984	0.155463	-0.598563
C117	C	0.986246	-0.257976	-1.091322
C118	C	1.486246	0.242024	-0.591322
C119	C	0.983164	-0.255154	-1.017580
C120	C	1.483164	0.244846	-0.517580
C121	C	1.028486	-0.297029	-0.984331
C122	C	1.528486	0.202971	-0.484331
N123	N	1.065791	-0.331521	-0.879263
N124	N	1.565791	0.168479	-0.379263
N125	N	1.025326	-0.294144	-0.908956
N126	N	1.525326	0.205856	-0.408956
C127	C	1.037819	-0.305874	-0.210298
C128	C	1.537819	0.194126	0.289702
C129	C	1.034661	-0.302670	-0.131813
C130	C	1.534661	0.197330	0.368187
H131	H	0.777459	-0.401654	-0.304703
H132	H	1.277459	0.098346	0.195297
H133	H	0.943740	-0.218765	-0.984616
H134	H	1.443740	0.281235	-0.484616
C135	C	0.833903	-0.272018	-0.523364
C136	C	1.333903	0.227982	-0.023364
C137	C	0.788089	-0.232156	-0.474793
C138	C	1.288089	0.267844	0.025207
H139	H	0.858863	-0.241729	-0.553752
H140	H	1.358863	0.258271	-0.053752
H141	H	0.866286	-0.296491	-0.498795
H142	H	1.366286	0.203509	0.001205
H143	H	0.807625	-0.304861	-0.550492
H144	H	1.307625	0.195139	-0.050492
H145	H	0.814367	-0.199316	-0.447661
H146	H	1.314367	0.300684	0.052339
H147	H	0.755701	-0.207672	-0.499364
H148	H	1.255701	0.292328	0.000636
C149	C	1.120130	-1.040128	-0.550107
C150	C	1.620130	-0.540128	-0.050107
C151	C	1.133204	-1.054651	-0.481535
C152	C	1.633204	-0.554651	0.018465
H153	H	1.152992	-1.065016	-0.583009
H154	H	1.652992	-0.565016	-0.083009
H155	H	1.073779	-1.054433	-0.559070
H156	H	1.573779	-0.554433	-0.059070
H157	H	1.124766	-0.991084	-0.554750
H158	H	1.624766	-0.491084	-0.054750
H159	H	1.128563	-1.103694	-0.476890
H160	H	1.628563	-0.603694	0.023110
H161	H	1.179566	-1.040350	-0.472569
H162	H	1.679566	-0.540350	0.027431
C163	C	0.894671	-1.100498	-0.324294
C164	C	1.394671	-0.600498	0.175706
C165	C	0.936440	-1.054942	-0.284478
C166	C	1.436440	-0.554942	0.215522
H167	H	0.863926	-1.125487	-0.293492
H168	H	1.363926	-0.625487	0.206508
H169	H	0.867798	-1.074054	-0.352778
H170	H	1.367798	-0.574054	0.147222
H171	H	0.923964	-1.132858	-0.353607
H172	H	1.423964	-0.632858	0.146393
H173	H	0.907147	-1.022579	-0.255168
H174	H	1.407147	-0.522579	0.244832
H175	H	0.963314	-1.081389	-0.255982
H176	H	1.463314	-0.581389	0.244018
H177	H	0.971720	-0.244723	-0.656690
H178	H	1.471720	0.255277	-0.156690
C179	C	0.949353	-0.223872	-1.201146
C180	C	1.449353	0.276128	-0.701146
C181	C	0.936423	-0.211957	-1.127871
C182	C	1.436423	0.288043	-0.627871
H183	H	0.918587	-0.195465	-1.223707
H184	H	1.418587	0.304535	-0.723707
H185	H	0.996718	-0.212211	-1.214635
H186	H	1.496718	0.287789	-0.714635
H187	H	0.941509	-0.272020	-1.214790
H188	H	1.441509	0.227980	-0.714790
H189	H	0.944272	-0.163810	-1.114225
H190	H	1.444272	0.336190	-0.614225
H191	H	0.889047	-0.223613	-1.114376
H192	H	1.389047	0.276387	-0.614376
H193	H	1.113768	-0.910856	-0.462099
H194	H	1.613768	-0.410856	0.037901
H195	H	0.977224	-0.714305	-0.325409
H196	H	1.477224	-0.214305	0.174591
H197	H	0.943711	-0.911099	-0.291794
H198	H	1.443711	-0.411099	0.208206
H199	H	1.119410	-0.380929	-1.131529
H200	H	1.619410	0.119071	-0.631529
C201	C	0.894577	-0.255105	-0.780025
C202	C	1.394577	0.244895	-0.280025
C203	C	0.964399	-0.237918	-0.799934
C204	C	1.464399	0.262082	-0.299934
H205	H	0.863815	-0.226686	-0.802577
H206	H	1.363815	0.273314	-0.302577
H207	H	0.886733	-0.303243	-0.793683
H208	H	1.386733	0.196757	-0.293683
H209	H	0.885827	-0.247030	-0.730310
H210	H	1.385827	0.252970	-0.230310
H211	H	0.973150	-0.245998	-0.849648
H212	H	1.473150	0.254002	-0.349648
H213	H	0.972246	-0.189769	-0.786281
H214	H	1.472246	0.310231	-0.286281
C215	C	0.561498	-0.250042	-0.456884
C216	C	1.061498	0.249958	0.043116
C217	C	0.633786	-0.238126	-0.468832
C218	C	1.133786	0.261874	0.031168
H219	H	0.536587	-0.221683	-0.485345
H220	H	1.036587	0.278317	0.014655
H221	H	0.551847	-0.298198	-0.468643
H222	H	1.051847	0.201802	0.031357
H223	H	0.547034	-0.238313	-0.408560
H224	H	1.047034	0.261687	0.091440
H225	H	0.648252	-0.249860	-0.517155
H226	H	1.148252	0.250140	-0.017155
H227	H	0.643442	-0.189959	-0.457078
H228	H	1.143442	0.310041	0.042922
C229	C	1.200224	-0.676681	-0.548694
C230	C	1.700224	-0.176681	-0.048694
C231	C	1.161099	-0.724519	-0.509518
C232	C	1.661099	-0.224519	-0.009518
H233	H	1.233102	-0.701572	-0.581575
H234	H	1.733102	-0.201572	-0.081575
H235	H	1.169462	-0.650258	-0.573298
H236	H	1.669462	-0.150258	-0.073298
H237	H	1.224651	-0.645776	-0.517774
H238	H	1.724651	-0.145776	-0.017774
H239	H	1.136667	-0.755421	-0.540437
H240	H	1.636667	-0.255421	-0.040437
H241	H	1.191865	-0.750954	-0.484913
H242	H	1.691865	-0.250954	0.015087
C243	C	0.257726	-0.353853	-0.264191
C244	C	0.757726	0.146147	0.235809
C245	C	0.303547	-0.393718	-0.312751
C246	C	0.803547	0.106282	0.187249
H247	H	0.232755	-0.384140	-0.233808
H248	H	0.732755	0.115860	0.266192
H249	H	0.283994	-0.321013	-0.237062
H250	H	0.783994	0.178987	0.262938
H251	H	0.225346	-0.329379	-0.288773
H252	H	0.725346	0.170621	0.211227
H253	H	0.335931	-0.418188	-0.288169
H254	H	0.835931	0.081812	0.211831
H255	H	0.277278	-0.426571	-0.339884
H256	H	0.777278	0.073429	0.160116
C257	C	1.169876	-0.427546	-1.039392
C258	C	1.669876	0.072454	-0.539392
C259	C	1.126726	-0.387734	-0.988276
C260	C	1.626726	0.112266	-0.488276
H261	H	1.200644	-0.455949	-1.016829
H262	H	1.700644	0.044051	-0.516829
H263	H	1.141526	-0.456750	-1.068079
H264	H	1.641526	0.043250	-0.568079
H265	H	1.196729	-0.396936	-1.067925
H266	H	1.696729	0.103064	-0.567925
H267	H	1.099868	-0.418344	-0.959746
H268	H	1.599868	0.081656	-0.459746
H269	H	1.155079	-0.358527	-0.959577
H270	H	1.655079	0.141473	-0.459577
H271	H	1.141638	-0.580721	-0.490110
H272	H	1.641638	-0.080721	0.009890
H273	H	1.141782	-0.401770	-0.669819
H274	H	1.641782	0.098230	-0.169819
H275	H	0.447384	-0.375843	-0.330658
H276	H	0.947384	0.124157	0.169342
H277	H	1.147374	-0.406896	-0.803605
H278	H	1.647374	0.093104	-0.303605
H279	H	0.447535	-0.219065	-0.487994
H280	H	0.947535	0.280935	0.012006
H281	H	0.314177	-0.224221	-0.482839
H282	H	0.814177	0.275779	0.017161
H283	H	0.644100	-0.406806	-0.299553
H284	H	1.144100	0.093194	0.200447
H285	H	0.971575	-0.580973	-0.319802
H286	H	1.471575	-0.080973	0.180198
