data_functionalizedCrystal
_audit_creation_method	'MofGen! by Chris Wilmer'
_symmetry_space_group_name_H-M	'P1'
_symmetry_Int_Tables_number	1
_symmetry_cell_setting	triclinic
loop_
_symmetry_equiv_pos_as_xyz
  x,y,z
_cell_length_a	27.731994
_cell_length_b	27.731996
_cell_length_c	26.809956
_cell_angle_alpha	89.998344
_cell_angle_beta	89.997334
_cell_angle_gamma	82.620961
loop_
_atom_site_label
_atom_site_type_symbol
_atom_site_fract_x
_atom_site_fract_y
_atom_site_fract_z
O1	O	0.640937	0.057387	-0.041415
O2	O	1.140937	0.557387	0.458585
O3	O	0.500139	0.066160	-0.041432
O4	O	1.000139	0.566160	0.458568
O5	O	0.574924	-0.008626	-0.041412
O6	O	1.074924	0.491374	0.458588
O7	O	0.566152	0.132173	-0.041435
O8	O	1.066152	0.632173	0.458565
O9	O	0.574910	-0.008615	0.041547
O10	O	1.074910	0.491385	0.541547
O11	O	0.500124	0.066171	0.041527
O12	O	1.000124	0.566171	0.541527
O13	O	0.640923	0.057398	0.041544
O14	O	1.140923	0.557398	0.541544
Zn15	Zn	0.570522	0.061787	0.054707
Zn16	Zn	1.070522	0.561787	0.554707
Zn17	Zn	0.570540	0.061772	-0.054595
Zn18	Zn	1.070540	0.561772	0.445405
O19	O	0.566138	0.132184	0.041524
O20	O	1.066138	0.632184	0.541524
C21	C	0.482124	0.065986	0.000045
C22	C	0.982124	0.565986	0.500045
C23	C	0.428468	0.065443	0.000039
C24	C	0.928468	0.565443	0.500039
C25	C	0.095742	0.062034	0.045280
C26	C	0.595742	0.562034	0.545280
C27	C	-0.105915	0.059972	0.045286
C28	C	0.394085	0.559972	0.545286
O29	O	-0.131994	0.059690	0.083745
O30	O	0.368006	0.559690	0.583745
N31	N	-0.131122	0.059710	0.000065
N32	N	0.368878	0.559710	0.500065
C33	C	-0.105912	0.059960	-0.045161
C34	C	0.394088	0.559960	0.454839
O35	O	-0.131978	0.059684	-0.083624
O36	O	0.368022	0.559684	0.416376
C37	C	0.095746	0.062018	-0.045166
C38	C	0.595746	0.562018	0.454834
C39	C	0.120950	0.062285	0.000058
C40	C	0.620950	0.562285	0.500058
C41	C	0.120946	0.062300	0.090500
C42	C	0.620946	0.562300	0.590500
C43	C	0.171357	0.062818	0.090498
C44	C	0.671357	0.562818	0.590498
C45	C	0.196565	0.063070	0.045276
C46	C	0.696565	0.563070	0.545276
C47	C	0.171361	0.062803	0.000056
C48	C	0.671361	0.562803	0.500056
C49	C	0.120956	0.062264	-0.090392
C50	C	0.620956	0.562264	0.409608
C51	C	0.171374	0.062778	-0.090389
C52	C	0.671374	0.562778	0.409611
C53	C	0.196578	0.063045	-0.045165
C54	C	0.696578	0.563045	0.454835
C55	C	0.246979	0.063573	-0.045168
C56	C	0.746979	0.563573	0.454832
N57	N	0.272186	0.063835	0.000053
N58	N	0.772186	0.563835	0.500053
C59	C	0.246979	0.063583	0.045275
C60	C	0.746979	0.563583	0.545275
C61	C	-0.211785	0.058880	-0.045155
C62	C	0.288215	0.558880	0.454845
C63	C	-0.262199	0.058366	-0.045154
C64	C	0.237801	0.558366	0.454846
C65	C	-0.262199	0.058378	0.045293
C66	C	0.237801	0.558378	0.545293
C67	C	-0.211784	0.058895	0.045292
C68	C	0.288216	0.558895	0.545292
C69	C	-0.186578	0.059142	0.000066
C70	C	0.313422	0.559142	0.500066
C71	C	0.352846	0.064672	0.045267
C72	C	0.852846	0.564672	0.545267
C73	C	0.403261	0.065192	0.045261
C74	C	0.903261	0.565192	0.545261
C75	C	0.403257	0.065178	-0.045185
C76	C	0.903257	0.565178	0.454815
C77	C	0.352846	0.064660	-0.045180
C78	C	0.852846	0.564660	0.454820
C79	C	0.327642	0.064406	0.000051
C80	C	0.827642	0.564406	0.500051
O81	O	0.273090	0.063850	-0.083607
O82	O	0.773090	0.563850	0.416393
O83	O	0.273056	0.063848	0.083732
O84	O	0.773056	0.563848	0.583732
C85	C	0.045331	0.061516	0.045282
C86	C	0.545331	0.561516	0.545282
C87	C	0.020127	0.061249	0.000062
C88	C	0.520127	0.561249	0.500062
C89	C	0.045335	0.061500	-0.045161
C90	C	0.545335	0.561500	0.454839
C91	C	-0.030287	0.060735	0.000063
C92	C	0.469713	0.560735	0.500063
C93	C	-0.055494	0.060484	0.045285
C94	C	0.444506	0.560484	0.545285
C95	C	-0.030287	0.060746	0.090506
C96	C	0.469713	0.560746	0.590506
C97	C	0.020124	0.061264	0.090504
C98	C	0.520124	0.561264	0.590504
C99	C	0.020128	0.061238	-0.090382
C100	C	0.520128	0.561238	0.409618
C101	C	-0.030284	0.060721	-0.090376
C102	C	0.469716	0.560721	0.409624
C103	C	-0.055491	0.060469	-0.045154
C104	C	0.444509	0.560469	0.454846
C105	C	0.574737	-0.026628	0.000069
C106	C	1.074737	0.473372	0.500069
C107	C	0.574194	-0.080284	0.000074
C108	C	1.074194	0.419716	0.500074
C109	C	0.570787	-0.413006	-0.045172
C110	C	1.070787	0.086994	0.454828
C111	C	0.568726	-0.614663	-0.045181
C112	C	1.068726	-0.114663	0.454819
O113	O	0.568445	-0.640739	-0.083640
O114	O	1.068445	-0.140739	0.416360
N115	N	0.568462	-0.639874	0.000040
N116	N	1.068462	-0.139874	0.500040
C117	C	0.568711	-0.614667	0.045266
C118	C	1.068711	-0.114667	0.545266
O119	O	0.568434	-0.640737	0.083729
O120	O	1.068434	-0.140737	0.583729
C121	C	0.570768	-0.413010	0.045274
C122	C	1.070768	0.086990	0.545274
C123	C	0.571037	-0.387802	0.000051
C124	C	1.071037	0.112198	0.500051
C125	C	0.571055	-0.387798	-0.090392
C126	C	1.071055	0.112202	0.409608
C127	C	0.571573	-0.337387	-0.090389
C128	C	1.071573	0.162613	0.409611
C129	C	0.571823	-0.312183	-0.045166
C130	C	1.071823	0.187817	0.454834
C131	C	0.571555	-0.337391	0.000054
C132	C	1.071555	0.162609	0.500054
C133	C	0.571013	-0.387803	0.090500
C134	C	1.071013	0.112197	0.590500
C135	C	0.571526	-0.337385	0.090498
C136	C	1.071526	0.162615	0.590498
C137	C	0.571795	-0.312178	0.045274
C138	C	1.071795	0.187822	0.545274
C139	C	0.572322	-0.261777	0.045279
C140	C	1.072322	0.238223	0.545279
N141	N	0.572586	-0.236566	0.000058
N142	N	1.072586	0.263434	0.500058
C143	C	0.572336	-0.261769	-0.045164
C144	C	1.072336	0.238231	0.454836
C145	C	0.567631	-0.720540	0.045258
C146	C	1.067631	-0.220540	0.545258
C147	C	0.567118	-0.770955	0.045256
C148	C	1.067118	-0.270955	0.545256
C149	C	0.567132	-0.770947	-0.045191
C150	C	1.067132	-0.270947	0.454809
C151	C	0.567649	-0.720533	-0.045188
C152	C	1.067649	-0.220533	0.454812
C153	C	0.567895	-0.695329	0.000038
C154	C	1.067895	-0.195329	0.500038
C155	C	0.573424	-0.155902	-0.045155
C156	C	1.073424	0.344098	0.454845
C157	C	0.573944	-0.105487	-0.045149
C158	C	1.073944	0.394513	0.454851
C159	C	0.573927	-0.105499	0.045298
C160	C	1.073927	0.394501	0.545298
C161	C	0.573410	-0.155910	0.045292
C162	C	1.073410	0.344090	0.545292
C163	C	0.573157	-0.181110	0.000061
C164	C	1.073157	0.318890	0.500061
O165	O	0.572598	-0.235669	0.083718
O166	O	1.072598	0.264331	0.583718
O167	O	0.572602	-0.235689	-0.083621
O168	O	1.072602	0.264311	0.416379
C169	C	0.570269	-0.463417	-0.045175
C170	C	1.070269	0.036583	0.454825
C171	C	0.570001	-0.488624	0.000045
C172	C	1.070001	0.011376	0.500045
C173	C	0.570251	-0.463421	0.045268
C174	C	1.070251	0.036579	0.545268
C175	C	0.569487	-0.539039	0.000043
C176	C	1.069487	-0.039039	0.500043
C177	C	0.569238	-0.564242	-0.045179
C178	C	1.069238	-0.064242	0.454821
C179	C	0.569501	-0.539031	-0.090400
C180	C	1.069501	-0.039031	0.409600
C181	C	0.570019	-0.488620	-0.090397
C182	C	1.070019	0.011380	0.409603
C183	C	0.569987	-0.488632	0.090489
C184	C	1.069987	0.011368	0.590489
C185	C	0.569470	-0.539043	0.090482
C186	C	1.069470	-0.039043	0.590482
C187	C	0.569220	-0.564246	0.045260
C188	C	1.069220	-0.064246	0.545260
C189	C	0.658938	0.057573	0.000066
C190	C	1.158938	0.557573	0.500066
C191	C	0.712594	0.058115	0.000069
C192	C	1.212594	0.558115	0.500069
C193	C	0.566325	0.150186	0.000042
C194	C	1.066325	0.650186	0.500042
C195	C	0.566868	0.203842	0.000034
C196	C	1.066868	0.703842	0.500034
N197	N	0.570513	0.061797	0.129303
N198	N	1.070513	0.561797	0.629303
N199	N	0.570553	0.061758	-0.129191
N200	N	1.070553	0.561758	0.370809
C201	C	0.603651	0.028665	0.473938
C202	C	1.103651	0.528665	0.973938
C203	C	0.603663	0.028657	0.682816
C204	C	1.103663	0.528657	1.182816
O205	O	0.631818	0.000490	0.709827
O206	O	1.131818	0.500490	1.209827
N207	N	0.570543	0.061761	0.708930
N208	N	1.070543	0.561761	1.208930
C209	C	0.537416	0.094867	0.682822
C210	C	1.037416	0.594867	1.182822
O211	O	0.509243	0.123020	0.709827
O212	O	1.009243	0.623020	1.209827
C213	C	0.537403	0.094872	0.473945
C214	C	1.037403	0.594872	0.973945
C215	C	0.570528	0.061769	0.447834
C216	C	1.070528	0.561769	0.947834
C217	C	0.636773	-0.004436	0.447826
C218	C	1.136773	0.495564	0.947826
C219	C	0.636771	-0.004432	0.395610
C220	C	1.136771	0.495568	0.895610
C221	C	0.603648	0.028672	0.369506
C222	C	1.103648	0.528672	0.869506
C223	C	0.570526	0.061773	0.395617
C224	C	1.070526	0.561773	0.895617
C225	C	0.504274	0.127975	0.447838
C226	C	1.004274	0.627975	0.947838
C227	C	0.504273	0.127972	0.395616
C228	C	1.004273	0.627972	0.895616
C229	C	0.537398	0.094870	0.369504
C230	C	1.037398	0.594870	0.869504
C231	C	0.537401	0.094881	0.317297
C232	C	1.037401	0.594881	0.817297
N233	N	0.570521	0.061777	0.291182
N234	N	1.070521	0.561777	0.791182
C235	C	0.603644	0.028673	0.317287
C236	C	1.103644	0.528673	0.817287
C237	C	0.537426	0.094863	0.792485
C238	C	1.037426	0.594863	1.292485
C239	C	0.537430	0.094862	0.844704
C240	C	1.037430	0.594862	1.344704
C241	C	0.603676	0.028652	0.844694
C242	C	1.103676	0.528652	1.344694
C243	C	0.603674	0.028655	0.792475
C244	C	1.103674	0.528655	1.292475
C245	C	0.570546	0.061759	0.766371
C246	C	1.070546	0.561759	1.266371
C247	C	0.603639	0.028684	0.207629
C248	C	1.103639	0.528684	0.707629
C249	C	0.603636	0.028692	0.155408
C250	C	1.103636	0.528692	0.655408
C251	C	0.537388	0.094901	0.155422
C252	C	1.037388	0.594901	0.655422
C253	C	0.537393	0.094895	0.207639
C254	C	1.037393	0.594895	0.707639
C255	C	0.570520	0.061782	0.233740
C256	C	1.070520	0.561782	0.733740
O257	O	0.509257	0.123030	0.290253
O258	O	1.009257	0.623030	0.790253
O259	O	0.631806	0.000517	0.290273
O260	O	1.131806	0.500517	0.790273
C261	C	0.603652	0.028661	0.526154
C262	C	1.103652	0.528661	1.026154
C263	C	0.570531	0.061761	0.552266
C264	C	1.070531	0.561761	1.052266
C265	C	0.537407	0.094865	0.526162
C266	C	1.037407	0.594865	1.026162
C267	C	0.570534	0.061761	0.604485
C268	C	1.070534	0.561761	1.104485
C269	C	0.603658	0.028656	0.630590
C270	C	1.103658	0.528656	1.130590
C271	C	0.636777	-0.004448	0.604475
C272	C	1.136777	0.495552	1.104475
C273	C	0.636776	-0.004444	0.552259
C274	C	1.136776	0.495556	1.052259
C275	C	0.504288	0.127969	0.552276
C276	C	1.004288	0.627969	1.052276
C277	C	0.504292	0.127963	0.604493
C278	C	1.004292	0.627963	1.104493
C279	C	0.537416	0.094859	0.630597
C280	C	1.037416	0.594859	1.130597
H281	H	0.040646	0.061441	-0.127208
H282	H	0.540646	0.561441	0.372792
Cl283	Cl	0.678413	-0.046051	0.362790
Cl284	Cl	1.178413	0.453949	0.862790
H285	H	0.663746	-0.031396	0.469076
H286	H	1.163746	0.468604	0.969076
H287	H	0.570850	-0.408313	-0.127219
H288	H	1.070850	0.091687	0.372781
H289	H	0.574133	-0.084969	0.082117
H290	H	1.074133	0.415031	0.582117
Cl291	Cl	0.566815	-0.802640	-0.102042
Cl292	Cl	1.066815	-0.302640	0.397958
H293	H	0.630612	0.001736	0.134149
H294	H	1.130612	0.501736	0.634149
H295	H	0.510462	0.121822	0.865961
H296	H	1.010462	0.621822	1.365961
Cl297	Cl	0.567985	-0.688848	-0.102043
Cl298	Cl	1.067985	-0.188848	0.397957
Cl299	Cl	0.321159	0.064332	-0.102033
Cl300	Cl	0.821159	0.564332	0.397967
H301	H	0.630647	0.001700	0.771217
H302	H	1.130647	0.501700	1.271217
Cl303	Cl	0.645286	-0.012943	0.240434
Cl304	Cl	1.145286	0.487057	0.740434
Cl305	Cl	0.678420	-0.046061	0.519440
Cl306	Cl	1.178420	0.453939	1.019440
Cl307	Cl	0.462622	0.169591	0.362804
Cl308	Cl	0.962622	0.669591	0.862804
Cl309	Cl	0.051802	0.061599	0.147360
Cl310	Cl	0.551802	0.561599	0.647360
H311	H	0.567834	-0.700025	0.082089
H312	H	1.067834	-0.200025	0.582089
Cl313	Cl	0.566790	-0.802639	0.102111
Cl314	Cl	1.066790	-0.302639	0.602111
Cl315	Cl	0.569189	-0.570725	-0.147251
Cl316	Cl	1.069189	-0.070725	0.352749
H317	H	0.630647	0.001697	0.865957
H318	H	1.130647	0.501697	1.365957
H319	H	0.569255	-0.559563	0.127311
H320	H	1.069255	-0.059563	0.627311
H321	H	-0.282717	0.058157	-0.081979
H322	H	0.217283	0.558157	0.418021
Cl323	Cl	0.573081	-0.187601	0.102145
Cl324	Cl	1.073081	0.312399	0.602145
H325	H	-0.282731	0.058174	0.082115
H326	H	0.217269	0.558174	0.582115
H327	H	0.191895	0.062979	-0.127218
H328	H	0.691895	0.562979	0.372782
H329	H	0.423779	0.065411	0.082090
H330	H	0.923779	0.565411	0.582090
Cl331	Cl	0.573107	-0.187575	-0.102017
Cl332	Cl	1.073107	0.312425	0.397983
Cl333	Cl	0.495777	0.136485	0.759675
Cl334	Cl	0.995777	0.636485	1.259675
H335	H	0.570795	-0.408319	0.127326
H336	H	1.070795	0.091681	0.627326
Cl337	Cl	0.571836	-0.305705	0.147357
Cl338	Cl	1.071836	0.194295	0.647357
Cl339	Cl	0.571906	-0.305704	-0.147245
Cl340	Cl	1.071906	0.194296	0.352755
Cl341	Cl	0.570356	-0.456938	-0.147253
Cl342	Cl	1.070356	0.043062	0.352747
H343	H	0.570191	-0.468116	0.127315
H344	H	1.070191	0.031884	0.627315
Cl345	Cl	0.462628	0.169591	0.480654
Cl346	Cl	0.962628	0.669591	0.980654
H347	H	-0.191266	0.059081	-0.081985
H348	H	0.308734	0.559081	0.418015
Cl349	Cl	0.089266	0.061987	0.147359
Cl350	Cl	0.589266	0.561987	0.647359
H351	H	0.510424	0.121854	0.228899
H352	H	1.010424	0.621854	0.728899
H353	H	0.100444	0.062046	-0.127218
H354	H	0.600444	0.562046	0.372782
H355	H	0.510421	0.121855	0.134160
H356	H	1.010421	0.621855	0.634160
H357	H	0.663749	-0.031401	0.625738
H358	H	1.163749	0.468599	1.125738
Cl359	Cl	0.462647	0.169584	0.637313
Cl360	Cl	0.962647	0.669584	1.137313
Cl361	Cl	-0.061986	0.060432	0.147356
Cl362	Cl	0.438014	0.560432	0.647356
Cl363	Cl	0.321168	0.064352	0.102129
Cl364	Cl	0.821168	0.564352	0.602129
Cl365	Cl	0.203035	0.063151	0.147354
Cl366	Cl	0.703035	0.563151	0.647354
H367	H	0.477314	0.154926	0.531026
H368	H	0.977314	0.654926	1.031026
H369	H	0.423789	0.065385	-0.082004
H370	H	0.923789	0.565385	0.417996
H371	H	-0.050801	0.060507	-0.127206
H372	H	0.449199	0.560507	0.372794
Cl373	Cl	0.574283	-0.073801	-0.102005
Cl374	Cl	1.074283	0.426199	0.397995
H375	H	-0.191267	0.059113	0.082117
H376	H	0.308733	0.559113	0.582117
