data_functionalizedCrystal
_audit_creation_method	'MofGen! by Chris Wilmer'
_symmetry_space_group_name_H-M	'P1'
_symmetry_Int_Tables_number	1
_symmetry_cell_setting	triclinic
loop_
_symmetry_equiv_pos_as_xyz
  x,y,z
_cell_length_a	12.759401
_cell_length_b	18.101395
_cell_length_c	18.101376
_cell_angle_alpha	89.903391
_cell_angle_beta	89.943748
_cell_angle_gamma	90.031265
loop_
_atom_site_label
_atom_site_type_symbol
_atom_site_fract_x
_atom_site_fract_y
_atom_site_fract_z
Zn1	Zn	1.606527	-0.294321	-0.418680
Zn2	Zn	1.606256	-0.418319	-0.294841
Zn3	Zn	1.430713	-0.294496	-0.294859
Zn4	Zn	1.430768	-0.418126	-0.418649
O5	O	1.518566	-0.356316	-0.356757
O6	O	1.753512	-0.310777	-0.402258
O7	O	1.582833	-0.402048	-0.191210
O8	O	1.454127	-0.190840	-0.311304
O9	O	1.753313	-0.401878	-0.311274
O10	O	1.583296	-0.190711	-0.402275
O11	O	1.453863	-0.311076	-0.191223
O12	O	1.283700	-0.310888	-0.311274
O13	O	1.454219	-0.401548	-0.522286
O14	O	1.283739	-0.401718	-0.402222
O15	O	1.583349	-0.310590	-0.522309
O16	O	1.582886	-0.521926	-0.311244
O17	O	1.453955	-0.521784	-0.402205
C18	C	1.245599	-0.356302	-0.356747
C19	C	1.128822	-0.356314	-0.356760
C20	C	1.074008	-0.403685	-0.404038
C21	C	0.964284	-0.403694	-0.404047
C22	C	0.964197	-0.308960	-0.309492
C23	C	1.073920	-0.308947	-0.309488
C24	C	1.074057	-0.458382	-0.458627
C25	C	0.964333	-0.458391	-0.458635
C26	C	1.518425	-0.548726	-0.356735
C27	C	1.518461	-0.631040	-0.356751
C28	C	1.518692	-0.930131	-0.356791
C29	C	1.437761	-0.898747	-0.414163
C30	C	1.437376	-0.813129	-0.413983
C31	C	1.518578	-0.781749	-0.356772
C32	C	1.488524	-0.812994	-0.278723
C33	C	1.488002	-0.898639	-0.279066
C34	C	1.629853	-0.898450	-0.376780
C35	C	1.629201	-0.812797	-0.378492
C36	C	1.518515	-0.697889	-0.356756
C37	C	1.518752	-1.013991	-0.356801
C38	C	1.792599	-0.356330	-0.356768
C39	C	1.909376	-0.356336	-0.356772
C40	C	1.518820	-0.356028	-0.549920
C41	C	1.518929	-0.355905	-0.632234
C42	C	1.518736	-0.163154	-0.356795
C43	C	1.518808	-0.080839	-0.356811
C44	C	1.518373	-0.356549	-0.164346
C45	C	1.518468	-0.356463	-0.082032
C46	C	1.518774	-0.356092	0.217058
C47	C	1.600746	-0.412753	0.185784
C48	C	1.600422	-0.413085	0.100167
C49	C	1.518623	-0.356276	0.068676
C50	C	1.408152	-0.377990	0.099953
C51	C	1.408715	-0.378296	0.185598
C52	C	1.546270	-0.277619	0.185236
C53	C	1.548632	-0.278126	0.099584
C54	C	1.518531	-0.356379	-0.015183
C55	C	1.518858	-0.355991	0.300917
H56	H	1.118545	-0.270368	-0.270995
Br57	Br	1.354516	-0.777393	-0.249990
Br58	Br	1.123850	-0.432787	-0.554266
H59	H	0.919483	-0.270395	-0.271005
Br60	Br	1.369717	-0.473937	0.219214
Br61	Br	1.581968	-0.933263	-0.205386
Br62	Br	1.303514	-0.312559	0.220094
Br63	Br	1.130692	-0.549206	-0.424295
H64	H	1.345412	-0.338075	0.079558
H65	H	0.930395	-0.437858	-0.513160
Br66	Br	1.368368	-0.472676	0.064520
Br67	Br	1.570123	-0.510064	0.066321
Br68	Br	1.468728	-0.777900	-0.510441
Br69	Br	0.914598	-0.553982	-0.432840
H70	H	1.657238	-0.919931	-0.432723
H71	H	1.625444	-0.257905	0.206688
Br72	Br	1.446745	-0.207249	0.218936
H73	H	1.456387	-0.919224	-0.472222
Br74	Br	1.583673	-0.779136	-0.205529
H75	H	1.651863	-0.792365	-0.435931
H76	H	1.629929	-0.261759	0.079126
H77	H	1.355868	-0.920350	-0.401089
H78	H	1.692695	-0.791432	-0.339750
Br79	Br	1.300045	-0.779109	-0.391921
Br80	Br	1.570895	-0.509094	0.221961
Br81	Br	1.352564	-0.932084	-0.250842
Br82	Br	1.730359	-0.932300	-0.307146
Br83	Br	1.737012	-0.390373	0.064906
H84	H	1.682988	-0.399200	0.206244
Br85	Br	1.456208	-0.204009	0.063829
