data_functionalizedCrystal
_audit_creation_method	'MofGen! by Chris Wilmer'
_symmetry_space_group_name_H-M	'P1'
_symmetry_Int_Tables_number	1
_symmetry_cell_setting	triclinic
loop_
_symmetry_equiv_pos_as_xyz
  x,y,z
_cell_length_a	19.077105
_cell_length_b	19.077068
_cell_length_c	19.076919
_cell_angle_alpha	85.529249
_cell_angle_beta	89.923776
_cell_angle_gamma	90.115316
loop_
_atom_site_label
_atom_site_type_symbol
_atom_site_fract_x
_atom_site_fract_y
_atom_site_fract_z
Zn1	Zn	1.044048	-0.340450	0.453500
Zn2	Zn	1.294048	-0.090450	0.703500
Zn3	Zn	1.544048	0.159550	0.953500
Zn4	Zn	1.794048	0.409550	1.203500
Zn5	Zn	1.043962	-0.453600	0.340340
Zn6	Zn	1.293962	-0.203600	0.590340
Zn7	Zn	1.543962	0.046400	0.840340
Zn8	Zn	1.793962	0.296400	1.090340
Zn9	Zn	0.931660	-0.331023	0.330931
Zn10	Zn	1.181660	-0.081023	0.580931
Zn11	Zn	1.431660	0.168977	0.830931
Zn12	Zn	1.681660	0.418977	1.080931
Zn13	Zn	0.921801	-0.453176	0.453077
Zn14	Zn	1.171801	-0.203176	0.703077
Zn15	Zn	1.421801	0.046824	0.953077
Zn16	Zn	1.671801	0.296824	1.203077
O17	O	0.985368	-0.394562	0.394462
O18	O	1.235368	-0.144562	0.644462
O19	O	1.485368	0.105438	0.894462
O20	O	1.735368	0.355438	1.144462
O21	O	1.142196	-0.359583	0.442604
O22	O	1.392196	-0.109583	0.692604
O23	O	1.642196	0.140417	0.942604
O24	O	1.892196	0.390417	1.192604
O25	O	1.033154	-0.433572	0.240616
O26	O	1.283154	-0.183572	0.490616
O27	O	1.533154	0.066428	0.740616
O28	O	1.783154	0.316428	0.990616
O29	O	0.950731	-0.233799	0.343429
O30	O	1.200731	0.016201	0.593429
O31	O	1.450731	0.266201	0.843429
O32	O	1.700731	0.516201	1.093429
O33	O	1.142133	-0.442714	0.359466
O34	O	1.392133	-0.192714	0.609466
O35	O	1.642133	0.057286	0.859466
O36	O	1.892133	0.307286	1.109466
O37	O	1.033302	-0.240725	0.433479
O38	O	1.283302	0.009275	0.683479
O39	O	1.533302	0.259275	0.933479
O40	O	1.783302	0.509275	1.183479
O41	O	0.950647	-0.343516	0.233703
O42	O	1.200647	-0.093516	0.483703
O43	O	1.450647	0.156484	0.733703
O44	O	1.700647	0.406484	0.983703
O45	O	0.832193	-0.343104	0.343019
O46	O	1.082193	-0.093104	0.593019
O47	O	1.332193	0.156896	0.843019
O48	O	1.582193	0.406896	1.093019
O49	O	0.933928	-0.441990	0.551609
O50	O	1.183928	-0.191990	0.801609
O51	O	1.433928	0.058010	1.051609
O52	O	1.683928	0.308010	1.301609
O53	O	0.824949	-0.432849	0.432759
O54	O	1.074949	-0.182849	0.682759
O55	O	1.324949	0.067151	0.932759
O56	O	1.574949	0.317151	1.182759
O57	O	1.023742	-0.359171	0.551919
O58	O	1.273742	-0.109171	0.801919
O59	O	1.523742	0.140829	1.051919
O60	O	1.773742	0.390829	1.301919
O61	O	1.023594	-0.552019	0.359056
O62	O	1.273594	-0.302019	0.609056
O63	O	1.523594	-0.052019	0.859056
O64	O	1.773594	0.197981	1.109056
O65	O	0.933844	-0.551707	0.441883
O66	O	1.183844	-0.301707	0.691883
O67	O	1.433844	-0.051707	0.941883
O68	O	1.683844	0.198293	1.191883
C69	C	0.803119	-0.386908	0.386822
C70	C	1.053119	-0.136908	0.636822
C71	C	1.303119	0.113092	0.886822
C72	C	1.553119	0.363092	1.136822
C73	C	0.725151	-0.383651	0.383571
C74	C	0.975151	-0.133651	0.633571
C75	C	1.225151	0.116349	0.883571
C76	C	1.475151	0.366349	1.133571
C77	C	0.684769	-0.428912	0.428699
C78	C	0.934769	-0.178912	0.678699
C79	C	1.184769	0.071088	0.928699
C80	C	1.434769	0.321088	1.178699
C81	C	0.611510	-0.425842	0.425647
C82	C	0.861510	-0.175842	0.675647
C83	C	1.111510	0.074158	0.925647
C84	C	1.361510	0.324158	1.175647
C85	C	0.578634	-0.377515	0.377464
C86	C	0.828634	-0.127515	0.627464
C87	C	1.078634	0.122485	0.877464
C88	C	1.328634	0.372485	1.127464
C89	C	0.619022	-0.332250	0.332335
C90	C	0.869022	-0.082250	0.582335
C91	C	1.119022	0.167750	0.832335
C92	C	1.369022	0.417750	1.082335
C93	C	0.692280	-0.335317	0.335390
C94	C	0.942280	-0.085317	0.585390
C95	C	1.192280	0.164683	0.835390
C96	C	1.442280	0.414683	1.085390
C97	C	0.359940	-0.363323	0.363326
C98	C	0.609940	-0.113323	0.613326
C99	C	0.859940	0.136677	0.863326
C100	C	1.109940	0.386677	1.113326
C101	C	0.286677	-0.360262	0.360273
C102	C	0.536677	-0.110262	0.610273
C103	C	0.786677	0.139738	0.860273
C104	C	1.036677	0.389738	1.110273
C105	C	0.279170	-0.453853	0.453586
C106	C	0.529170	-0.203853	0.703586
C107	C	0.779170	0.046147	0.953586
C108	C	1.029170	0.296147	1.203586
C109	C	0.352429	-0.456918	0.456635
C110	C	0.602429	-0.206918	0.706635
C111	C	0.852429	0.043082	0.956635
C112	C	1.102429	0.293082	1.206635
C113	C	0.392810	-0.411651	0.411508
C114	C	0.642810	-0.161651	0.661508
C115	C	0.892810	0.088349	0.911508
C116	C	1.142810	0.338349	1.161508
N117	N	0.503752	-0.374378	0.374342
N118	N	0.753752	-0.124378	0.624342
N119	N	1.003752	0.125622	0.874342
N120	N	1.253752	0.375622	1.124342
N121	N	0.467691	-0.414785	0.414634
N122	N	0.717691	-0.164785	0.664634
N123	N	0.967691	0.085215	0.914634
N124	N	1.217691	0.335215	1.164634
C125	C	0.977658	-0.577398	0.401461
C126	C	1.227658	-0.327398	0.651461
C127	C	1.477658	-0.077398	0.901461
C128	C	1.727658	0.172602	1.151461
C129	C	0.974423	-0.655619	0.404482
C130	C	1.224423	-0.405619	0.654482
C131	C	1.474423	-0.155619	0.904482
C132	C	1.724423	0.094381	1.154482
C133	C	1.019665	-0.692509	0.362816
C134	C	1.269665	-0.442509	0.612816
C135	C	1.519665	-0.192509	0.862816
C136	C	1.769665	0.057491	1.112816
C137	C	1.016626	-0.766007	0.365661
C138	C	1.266626	-0.516007	0.615661
C139	C	1.516626	-0.266007	0.865661
C140	C	1.766626	-0.016007	1.115661
C141	C	0.968342	-0.802612	0.410169
C142	C	1.218342	-0.552612	0.660169
C143	C	1.468342	-0.302612	0.910169
C144	C	1.718342	-0.052612	1.160169
C145	C	0.923098	-0.765717	0.451839
C146	C	1.173098	-0.515717	0.701839
C147	C	1.423098	-0.265717	0.951839
C148	C	1.673098	-0.015717	1.201839
C149	C	0.926141	-0.692221	0.448997
C150	C	1.176141	-0.442221	0.698997
C151	C	1.426141	-0.192221	0.948997
C152	C	1.676141	0.057779	1.198997
C153	C	0.954231	-1.022406	0.423292
C154	C	1.204231	-0.772406	0.673292
C155	C	1.454231	-0.522406	0.923292
C156	C	1.704231	-0.272406	1.173292
C157	C	0.951190	-1.095907	0.426130
C158	C	1.201190	-0.845907	0.676130
C159	C	1.451190	-0.595907	0.926130
C160	C	1.701190	-0.345907	1.176130
C161	C	1.044720	-1.096192	0.339952
C162	C	1.294720	-0.846192	0.589952
C163	C	1.544720	-0.596192	0.839952
C164	C	1.794720	-0.346192	1.089952
C165	C	1.047755	-1.022695	0.337111
C166	C	1.297755	-0.772695	0.587111
C167	C	1.547755	-0.522695	0.837111
C168	C	1.797755	-0.272695	1.087111
C169	C	1.002514	-0.985806	0.378784
C170	C	1.252514	-0.735806	0.628784
C171	C	1.502514	-0.485806	0.878784
C172	C	1.752514	-0.235806	1.128784
N173	N	0.965233	-0.877738	0.413077
N174	N	1.215233	-0.627738	0.663077
N175	N	1.465233	-0.377738	0.913077
N176	N	1.715233	-0.127738	1.163077
N177	N	1.005627	-0.910681	0.375880
N178	N	1.255627	-0.660681	0.625880
N179	N	1.505627	-0.410681	0.875880
N180	N	1.755627	-0.160681	1.125880
C181	C	1.168328	-0.402247	0.402132
C182	C	1.418328	-0.152247	0.652132
C183	C	1.668328	0.097753	0.902132
C184	C	1.918328	0.347753	1.152132
C185	C	1.246295	-0.405522	0.405400
C186	C	1.496295	-0.155522	0.655400
C187	C	1.746295	0.094478	0.905400
C188	C	1.996295	0.344478	1.155400
C189	C	0.977745	-0.401585	0.578012
C190	C	1.227745	-0.151585	0.828012
C191	C	1.477745	0.098415	1.078012
C192	C	1.727745	0.348415	1.328012
C193	C	0.974497	-0.404578	0.656230
C194	C	1.224497	-0.154578	0.906230
C195	C	1.474497	0.095422	1.156230
C196	C	1.724497	0.345422	1.406230
C197	C	0.993126	-0.211015	0.387451
C198	C	1.243126	0.038985	0.637451
C199	C	1.493126	0.288985	0.887451
C200	C	1.743126	0.538985	1.137451
C201	C	0.996432	-0.132798	0.384464
C202	C	1.246432	0.117202	0.634464
C203	C	1.496432	0.367202	0.884464
C204	C	1.746432	0.617202	1.134464
C205	C	0.993003	-0.387518	0.211626
C206	C	1.243003	-0.137518	0.461626
C207	C	1.493003	0.112482	0.711626
C208	C	1.743003	0.362482	0.961626
C209	C	0.996396	-0.384333	0.133406
C210	C	1.246396	-0.134333	0.383406
C211	C	1.496396	0.115667	0.633406
C212	C	1.746396	0.365667	0.883406
C213	C	1.019730	-0.362866	0.693140
C214	C	1.269730	-0.112866	0.943140
C215	C	1.519730	0.137134	1.193140
C216	C	1.769730	0.387134	1.443140
C217	C	1.016669	-0.365675	0.766634
C218	C	1.266669	-0.115675	1.016634
C219	C	1.516669	0.134325	1.266634
C220	C	1.766669	0.384325	1.516634
C221	C	0.968378	-0.410200	0.803216
C222	C	1.218378	-0.160200	1.053216
C223	C	1.468378	0.089800	1.303216
C224	C	1.718378	0.339800	1.553216
C225	C	0.923140	-0.451913	0.766301
C226	C	1.173140	-0.201913	1.016301
C227	C	1.423140	0.048087	1.266301
C228	C	1.673140	0.298087	1.516301
C229	C	0.926198	-0.449100	0.692809
C230	C	1.176198	-0.199100	0.942809
C231	C	1.426198	0.050900	1.192809
C232	C	1.676198	0.300900	1.442809
C233	C	0.954216	-0.423233	1.022998
C234	C	1.204216	-0.173233	1.272998
C235	C	1.454216	0.076767	1.522998
C236	C	1.704216	0.326767	1.772998
C237	C	0.951163	-0.426044	1.096496
C238	C	1.201163	-0.176044	1.346496
C239	C	1.451163	0.073956	1.596496
C240	C	1.701163	0.323956	1.846496
C241	C	1.044691	-0.339805	1.096823
C242	C	1.294691	-0.089805	1.346823
C243	C	1.544691	0.160195	1.596823
C244	C	1.794691	0.410195	1.846823
C245	C	1.047748	-0.337000	1.023329
C246	C	1.297748	-0.087000	1.273329
C247	C	1.547748	0.163000	1.523329
C248	C	1.797748	0.413000	1.773329
C249	C	1.002507	-0.378710	0.986421
C250	C	1.252507	-0.128710	1.236421
C251	C	1.502507	0.121290	1.486421
C252	C	1.752507	0.371290	1.736421
N253	N	0.965250	-0.413073	0.878339
N254	N	1.215250	-0.163073	1.128339
N255	N	1.465250	0.086927	1.378339
N256	N	1.715250	0.336927	1.628339
N257	N	1.005632	-0.375832	0.911299
N258	N	1.255632	-0.125832	1.161299
N259	N	1.505632	0.124168	1.411299
N260	N	1.755632	0.374168	1.661299
H261	H	0.379191	-0.496273	0.495869
H262	H	0.629191	-0.246273	0.745869
H263	H	0.879191	0.003727	0.995869
H264	H	1.129191	0.253727	1.245869
Br265	Br	0.892832	-0.972352	0.479849
Br266	Br	1.142832	-0.722352	0.729849
Br267	Br	1.392832	-0.472352	0.979849
Br268	Br	1.642832	-0.222352	1.229849
H269	H	0.911879	-1.125710	0.462386
H270	H	1.161879	-0.875710	0.712386
H271	H	1.411879	-0.625710	0.962386
H272	H	1.661879	-0.375710	1.212386
Br273	Br	0.857574	-0.815395	0.512250
Br274	Br	1.107574	-0.565395	0.762250
Br275	Br	1.357574	-0.315395	1.012250
Br276	Br	1.607574	-0.065395	1.262250
Br277	Br	0.885618	-0.486472	1.146144
Br278	Br	1.135618	-0.236472	1.396144
Br279	Br	1.385618	0.013528	1.646144
Br280	Br	1.635618	0.263528	1.896144
Br281	Br	0.556707	-0.487268	0.486896
Br282	Br	0.806707	-0.237268	0.736896
Br283	Br	1.056707	0.012732	0.986896
Br284	Br	1.306707	0.262732	1.236896
Br285	Br	0.224363	-0.515287	0.514824
Br286	Br	0.474363	-0.265287	0.764824
Br287	Br	0.724363	-0.015287	1.014824
Br288	Br	0.974363	0.234713	1.264824
Br289	Br	0.864743	-0.642155	0.505550
Br290	Br	1.114743	-0.392155	0.755550
Br291	Br	1.364743	-0.142155	1.005550
Br292	Br	1.614743	0.107845	1.255550
Br293	Br	0.857597	-0.512335	0.815948
Br294	Br	1.107597	-0.262335	1.065948
Br295	Br	1.357597	-0.012335	1.315948
Br296	Br	1.607597	0.237665	1.565948
H297	H	1.059056	-0.326612	0.663360
H298	H	1.309056	-0.076612	0.913360
H299	H	1.559056	0.173388	1.163360
H300	H	1.809056	0.423388	1.413360
H301	H	0.725159	-0.298457	0.298646
H302	H	0.975159	-0.048457	0.548646
H303	H	1.225159	0.201543	0.798646
H304	H	1.475159	0.451543	1.048646
Br305	Br	1.078091	-0.309098	0.816726
Br306	Br	1.328091	-0.059098	1.066726
Br307	Br	1.578091	0.190902	1.316726
Br308	Br	1.828091	0.440902	1.566726
H309	H	1.058980	-0.662710	0.326570
H310	H	1.308980	-0.412710	0.576570
H311	H	1.558980	-0.162710	0.826570
H312	H	1.808980	0.087290	1.076570
H313	H	0.711530	-0.468267	0.467932
H314	H	0.961530	-0.218267	0.717932
H315	H	1.211530	0.031733	0.967932
H316	H	1.461530	0.281733	1.217932
H317	H	1.087073	-0.300745	0.993549
H318	H	1.337073	-0.050745	1.243549
H319	H	1.587073	0.199255	1.493549
H320	H	1.837073	0.449255	1.743549
Br321	Br	0.242060	-0.294678	0.294870
Br322	Br	0.492060	-0.044678	0.544870
Br323	Br	0.742060	0.205322	0.794870
Br324	Br	0.992060	0.455322	1.044870
H325	H	0.889357	-0.483058	0.662757
H326	H	1.139357	-0.233058	0.912757
H327	H	1.389357	0.016942	1.162757
H328	H	1.639357	0.266942	1.412757
H329	H	0.392810	-0.326468	0.326576
H330	H	0.642810	-0.076468	0.576576
H331	H	0.892810	0.173532	0.826576
H332	H	1.142810	0.423532	1.076576
Br333	Br	0.574406	-0.266656	0.266949
Br334	Br	0.824406	-0.016656	0.516949
Br335	Br	1.074406	0.233344	0.766949
Br336	Br	1.324406	0.483344	1.016949
H337	H	1.053467	-0.796040	0.331732
H338	H	1.303467	-0.546040	0.581732
H339	H	1.553467	-0.296040	0.831732
H340	H	1.803467	-0.046040	1.081732
Br341	Br	1.113295	-0.973021	0.276715
Br342	Br	1.363295	-0.723021	0.526715
Br343	Br	1.613295	-0.473021	0.776715
Br344	Br	1.863295	-0.223021	1.026715
Br345	Br	0.892816	-0.479839	0.972917
Br346	Br	1.142816	-0.229839	1.222917
Br347	Br	1.392816	0.020161	1.472917
Br348	Br	1.642816	0.270161	1.722917
Br349	Br	1.106119	-1.146259	0.283403
Br350	Br	1.356119	-0.896259	0.533403
Br351	Br	1.606119	-0.646259	0.783403
Br352	Br	1.856119	-0.396259	1.033403
Br353	Br	1.106084	-0.283201	1.146917
Br354	Br	1.356084	-0.033201	1.396917
Br355	Br	1.606084	0.216799	1.646917
Br356	Br	1.856084	0.466799	1.896917
