data_functionalizedCrystal
_audit_creation_method	'MofGen! by Chris Wilmer'
_symmetry_space_group_name_H-M	'P1'
_symmetry_Int_Tables_number	1
_symmetry_cell_setting	triclinic
loop_
_symmetry_equiv_pos_as_xyz
  x,y,z
_cell_length_a	14.044190
_cell_length_b	14.044191
_cell_length_c	12.503572
_cell_angle_alpha	86.155253
_cell_angle_beta	93.853158
_cell_angle_gamma	93.191777
loop_
_atom_site_label
_atom_site_type_symbol
_atom_site_fract_x
_atom_site_fract_y
_atom_site_fract_z
O1	O	0.235248	1.272126	0.089292
O2	O	0.226936	0.995453	0.089305
O3	O	0.092755	1.129634	0.089278
O4	O	0.369430	1.137945	0.089320
O5	O	0.082651	1.139729	-0.089366
O6	O	0.216832	1.005548	-0.089339
O7	O	0.225144	1.282221	-0.089352
Cu8	Cu	0.220065	1.144806	-0.105657
Cu9	Cu	0.232015	1.132868	0.105610
O10	O	0.359326	1.148039	-0.089324
C11	C	0.218248	0.964878	-0.000016
C12	C	0.207401	0.858734	-0.000012
C13	C	0.052080	1.131045	-0.000047
C14	C	-0.054063	1.120198	-0.000056
C15	C	0.264501	0.613277	-0.000014
C16	C	0.187584	0.664402	-0.000023
C17	C	0.198613	0.772538	-0.000017
C18	C	0.253474	0.505131	-0.000020
C19	C	-0.299518	1.177297	-0.000017
C20	C	-0.248395	1.100381	-0.000021
C21	C	-0.140259	1.111410	-0.000040
C22	C	-0.407664	1.166269	0.000003
C23	C	0.400000	1.146628	0.000003
C24	C	0.506144	1.157475	0.000019
C25	C	0.233833	1.312795	-0.000029
C26	C	0.244680	1.418939	-0.000026
N27	N	0.240413	1.124471	0.254204
N28	N	0.211661	1.153210	-0.254251
C29	C	0.252766	1.112111	0.473322
C30	C	0.199311	1.165567	0.526638
C31	C	0.206184	1.158690	0.648563
C32	C	0.245893	1.118987	0.351386
H33	H	0.338629	0.650720	0.000001
C34	C	0.088818	0.614301	0.000029
C35	C	0.097371	0.515447	0.000059
C36	C	0.006414	0.469259	0.000129
H37	H	0.051500	0.635650	-0.062250
H38	H	0.058638	0.628665	0.062353
H39	H	0.127538	0.501090	-0.062259
H40	H	0.134672	0.494071	0.062333
H41	H	-0.023766	0.483623	0.062453
H42	H	-0.030896	0.490616	-0.062151
H43	H	0.012206	0.402182	0.000159
H44	H	0.148384	1.216496	0.480715
C45	C	0.320567	1.044219	0.534740
C46	C	0.313960	1.050784	0.645212
C47	C	0.376390	0.988245	0.701836
H48	H	0.384195	1.060934	0.516528
H49	H	0.303758	0.980619	0.516436
H50	H	0.330775	1.114370	0.663508
H51	H	0.250347	1.034060	0.663456
H52	H	0.359580	0.924644	0.683533
H53	H	0.440013	1.004965	0.683615
H54	H	0.371909	0.992684	0.776797
C55	C	-0.298430	1.001577	0.000154
C56	C	-0.350262	0.985600	0.092056
C57	C	-0.396379	0.894602	0.092242
H58	H	-0.252233	0.954675	0.000200
H59	H	-0.340767	0.997596	-0.062106
H60	H	-0.307928	0.989572	0.154299
H61	H	-0.396474	1.032478	0.092029
H62	H	-0.438717	0.890621	0.029982
H63	H	-0.350177	0.847708	0.092285
H64	H	-0.431560	0.883753	0.154591
C65	C	-0.249462	1.276074	0.000126
C66	C	-0.187185	1.281663	0.092006
C67	C	-0.141034	1.372635	0.092162
H68	H	-0.295644	1.322977	0.000182
H69	H	-0.214200	1.287082	-0.062149
H70	H	-0.222445	1.270665	0.154265
H71	H	-0.140984	1.234780	0.091969
H72	H	-0.105773	1.383644	0.029887
H73	H	-0.187224	1.419531	0.092215
H74	H	-0.098768	1.376437	0.154496
