data_functionalizedCrystal
_audit_creation_method	'MofGen! by Chris Wilmer'
_symmetry_space_group_name_H-M	'P1'
_symmetry_Int_Tables_number	1
_symmetry_cell_setting	triclinic
loop_
_symmetry_equiv_pos_as_xyz
  x,y,z
_cell_length_a	10.908878
_cell_length_b	19.188924
_cell_length_c	10.065875
_cell_angle_alpha	98.757069
_cell_angle_beta	83.443480
_cell_angle_gamma	71.613377
loop_
_atom_site_label
_atom_site_type_symbol
_atom_site_fract_x
_atom_site_fract_y
_atom_site_fract_z
O1	O	1.723318	-0.120358	-0.113457
O2	O	1.349147	-0.065801	-0.113470
O3	O	1.547032	-0.195970	-0.113447
O4	O	1.525433	0.009811	-0.113480
O5	O	1.509298	-0.171066	0.113538
O6	O	1.311413	-0.040897	0.113515
O7	O	1.685584	-0.095454	0.113527
Zn8	Zn	1.492507	-0.064222	0.149560
Zn9	Zn	1.542224	-0.097033	-0.149502
O10	O	1.487698	0.034715	0.113505
C11	C	1.282410	-0.048250	0.000021
C12	C	1.139772	-0.033066	0.000017
C13	C	1.091076	-0.088470	0.000025
C14	C	0.943652	-0.072778	0.000021
C15	C	1.527467	-0.209449	0.000047
C16	C	1.525370	-0.286713	0.000050
C17	C	1.544961	-0.336575	-0.123679
C18	C	1.542976	-0.409172	-0.123690
C19	C	1.521424	-0.431907	0.000036
C20	C	1.501823	-0.382034	0.123782
C21	C	1.503796	-0.309437	0.123789
N22	N	1.576137	-0.549481	0.092125
N23	N	1.574267	-0.618447	0.092110
C24	C	1.515474	-0.650637	0.000023
N25	N	1.458642	-0.611261	-0.092070
N26	N	1.460519	-0.542291	-0.092058
C27	C	1.519281	-0.510625	0.000043
C28	C	1.532911	-0.779217	-0.123726
C29	C	1.530917	-0.851812	-0.123732
C30	C	1.489776	-0.824675	0.123744
C31	C	1.491759	-0.752079	0.123746
C32	C	1.513333	-0.729355	0.000007
C33	C	1.752322	-0.113005	0.000034
C34	C	1.894961	-0.128190	0.000029
C35	C	1.507265	0.048194	0.000008
C36	C	1.509362	0.125457	-0.000004
N37	N	1.458586	-0.041830	0.353661
N38	N	1.576155	-0.119431	-0.353604
C39	C	1.530414	-0.089246	0.421449
C40	C	1.504317	-0.072009	0.578613
H41	H	0.962408	-0.187246	0.000029
O42	O	1.482672	-0.255652	0.257246
H43	H	1.570148	-0.238318	0.263162
O44	O	1.556154	-0.754694	-0.257178
H45	H	1.569419	-0.801561	-0.343220
H46	H	0.876206	-0.013724	0.000005
H47	H	1.611224	-0.142604	0.363134
O48	O	1.683203	-0.190118	0.569172
H49	H	1.756418	-0.175172	0.504056
O50	O	1.050441	0.045159	0.000016
H51	H	0.948664	0.045210	0.000027
H52	H	1.423492	-0.018651	0.636924
O53	O	1.351544	0.028856	0.430881
H54	H	1.278331	0.013916	0.496012
O55	O	1.478600	-0.406560	0.257227
H56	H	1.389170	-0.422608	0.263140
H57	H	1.472218	-0.843184	0.224484
O58	O	1.180402	-0.166692	0.000052
H59	H	1.282174	-0.166741	0.000066
H60	H	1.475816	-0.711481	0.224500
H61	H	1.562525	-0.318079	-0.224437
O62	O	1.564109	-0.462961	-0.257151
H63	H	1.559103	-0.517258	-0.236364
H64	H	1.546864	-0.892410	-0.224491
