data_functionalizedCrystal
_audit_creation_method	'MofGen! by Chris Wilmer'
_symmetry_space_group_name_H-M	'P1'
_symmetry_Int_Tables_number	1
_symmetry_cell_setting	triclinic
loop_
_symmetry_equiv_pos_as_xyz
  x,y,z
_cell_length_a	16.974829
_cell_length_b	10.065875
_cell_length_c	16.992700
_cell_angle_alpha	80.616320
_cell_angle_beta	87.024751
_cell_angle_gamma	102.336084
loop_
_atom_site_label
_atom_site_type_symbol
_atom_site_fract_x
_atom_site_fract_y
_atom_site_fract_z
O1	O	1.077671	0.232535	0.076321
O2	O	0.845823	0.206935	0.091645
O3	O	0.960815	0.219597	-0.030144
O4	O	0.962679	0.219872	0.198111
O5	O	0.938894	-0.009805	-0.006829
O6	O	0.823902	-0.022468	0.114961
O7	O	1.055749	0.003133	0.099637
Zn8	Zn	0.936345	-0.046090	0.111001
Zn9	Zn	0.965228	0.256158	0.080281
O10	O	0.940757	-0.009530	0.221427
C11	C	0.805059	0.088942	0.103153
C12	C	0.716254	0.079134	0.102695
N13	N	0.916639	-0.252366	0.131966
C14	C	0.215090	0.010505	0.101510
C15	C	0.298532	0.019723	0.101940
C16	C	0.352203	0.149382	0.089439
C17	C	0.322428	0.269830	0.076516
C18	C	0.238987	0.260611	0.076092
C19	C	0.603038	0.190364	0.089348
C20	C	0.686484	0.199574	0.089771
C21	C	0.662582	-0.050534	0.115196
C22	C	0.579141	-0.059742	0.114767
C23	C	0.549372	0.060706	0.101848
N24	N	0.437495	0.158807	0.089875
N25	N	0.464082	0.051280	0.101417
C26	C	0.958366	-0.315550	0.087571
C27	C	0.943207	-0.474386	0.103712
C28	C	1.096514	0.121128	0.088129
C29	C	1.185320	0.130945	0.088586
C30	C	0.947463	0.104626	-0.047669
C31	C	0.940327	0.103820	-0.134624
N32	N	0.984939	0.462434	0.059311
C33	C	0.892405	0.098653	-0.623009
C34	C	0.899113	0.099380	-0.541303
C35	C	0.974663	0.107704	-0.510684
C36	C	1.043510	0.115315	-0.561778
C37	C	1.036802	0.114597	-0.643483
C38	C	1.002467	0.110713	-0.267422
C39	C	1.009169	0.111426	-0.185710
C40	C	0.864772	0.095494	-0.165241
C41	C	0.858070	0.094769	-0.246948
C42	C	0.926918	0.102387	-0.298035
N43	N	0.981521	0.108443	-0.427168
N44	N	0.920060	0.101658	-0.381551
C45	C	0.954110	0.105444	0.238951
C46	C	0.961247	0.106259	0.325905
H47	H	0.171395	-0.095077	0.111693
H48	H	1.092861	0.120797	-0.685078
Cl49	Cl	0.844150	-0.350390	0.209095
H50	H	1.058527	0.116908	-0.309007
Cl51	Cl	0.335953	-0.131694	0.118193
Cl52	Cl	1.138488	0.125789	-0.523287
H53	H	0.808720	0.089294	-0.123638
Cl54	Cl	0.565626	0.341786	0.073102
Cl55	Cl	0.797422	0.088178	-0.661491
H56	H	0.843055	0.093191	-0.499711
Cl57	Cl	0.511672	-0.222748	0.130501
H58	H	0.686829	-0.148596	0.125716
Cl59	Cl	0.763090	0.084309	-0.285434
H60	H	0.896253	-0.537878	0.153670
H61	H	0.730183	0.305163	0.079597
H62	H	1.070693	0.118204	-0.160785
H63	H	0.214751	0.358686	0.065570
Cl64	Cl	0.389901	0.432831	0.060801
Cl65	Cl	1.057609	-0.439532	-0.017662
Cl66	Cl	1.030659	-0.217548	0.010265
