data_functionalizedCrystal
_audit_creation_method	'MofGen! by Chris Wilmer'
_symmetry_space_group_name_H-M	'P1'
_symmetry_Int_Tables_number	1
_symmetry_cell_setting	triclinic
loop_
_symmetry_equiv_pos_as_xyz
  x,y,z
_cell_length_a	17.077404
_cell_length_b	17.640280
_cell_length_c	17.077396
_cell_angle_alpha	78.774396
_cell_angle_beta	89.980499
_cell_angle_gamma	78.800538
loop_
_atom_site_label
_atom_site_type_symbol
_atom_site_fract_x
_atom_site_fract_y
_atom_site_fract_z
Zn1	Zn	1.263288	-0.314659	-0.380745
Zn2	Zn	1.763288	0.185341	0.119255
Zn3	Zn	1.289758	-0.446839	-0.222973
Zn4	Zn	1.789758	0.053161	0.277027
Zn5	Zn	1.132026	-0.314687	-0.249487
Zn6	Zn	1.632026	0.185313	0.250513
Zn7	Zn	1.158541	-0.446792	-0.354206
Zn8	Zn	1.658541	0.053208	0.145794
O9	O	1.210903	-0.380744	-0.301853
O10	O	1.710903	0.119256	0.198147
O11	O	1.376648	-0.332201	-0.359827
O12	O	1.876648	0.167799	0.140173
O13	O	1.268815	-0.429340	-0.116637
O14	O	1.768815	0.070660	0.383363
O15	O	1.127263	-0.204078	-0.289102
O16	O	1.627263	0.295922	0.210898
O17	O	1.396095	-0.429313	-0.243912
O18	O	1.896095	0.070687	0.256088
O19	O	1.223701	-0.204058	-0.385536
O20	O	1.723701	0.295942	0.114464
O21	O	1.152930	-0.332248	-0.136117
O22	O	1.652930	0.167752	0.363883
O23	O	1.025694	-0.332203	-0.263368
O24	O	1.525694	0.167797	0.236632
O25	O	1.172456	-0.429233	-0.467580
O26	O	1.672456	0.070767	0.032420
O27	O	1.045176	-0.429260	-0.340305
O28	O	1.545176	0.070740	0.159695
O29	O	1.249413	-0.332155	-0.487078
O30	O	1.749413	0.167845	0.012922
O31	O	1.294527	-0.557437	-0.218179
O32	O	1.794527	-0.057437	0.281821
O33	O	1.198122	-0.557403	-0.314595
O34	O	1.698122	-0.057403	0.185405
C35	C	1.006953	-0.380730	-0.301834
C36	C	1.506953	0.119270	0.198166
C37	C	0.919705	-0.380743	-0.301841
C38	C	1.419705	0.119257	0.198159
C39	C	0.888895	-0.431357	-0.341806
C40	C	1.388895	0.068643	0.158194
C41	C	0.806915	-0.431359	-0.341818
C42	C	1.306915	0.068641	0.158182
C43	C	0.755747	-0.380750	-0.301860
C44	C	1.255747	0.119250	0.198140
C45	C	0.786562	-0.330130	-0.261894
C46	C	1.286562	0.169870	0.238106
C47	C	0.868540	-0.330125	-0.261887
C48	C	1.368540	0.169875	0.238113
C49	C	0.615696	-0.330146	-0.261910
C50	C	1.115696	0.169854	0.238090
C51	C	0.533712	-0.330151	-0.261915
C52	C	1.033712	0.169849	0.238085
C53	C	0.554070	-0.431379	-0.341841
C54	C	1.054070	0.068621	0.158159
C55	C	0.636048	-0.431374	-0.341834
C56	C	1.136048	0.068626	0.158166
C57	C	0.666858	-0.380755	-0.301866
C58	C	1.166858	0.119245	0.198134
C59	C	1.252095	-0.586099	-0.260647
C60	C	1.752095	-0.086099	0.239353
C61	C	1.269789	-0.673950	-0.243045
C62	C	1.769789	-0.173950	0.256955
C63	C	1.076806	-0.962931	-0.435857
C64	C	1.576806	-0.462931	0.064143
C65	C	1.093434	-1.045481	-0.419293
C66	C	1.593434	-0.545481	0.080707
C67	C	1.193882	-1.045451	-0.318996
C68	C	1.693882	-0.545451	0.181004
C69	C	1.177265	-0.962900	-0.335555
C70	C	1.677265	-0.462900	0.164445
C71	C	1.118726	-0.921646	-0.393986
C72	C	1.618726	-0.421646	0.106014
C73	C	1.219185	-0.921615	-0.293683
C74	C	1.719185	-0.421615	0.206317
C75	C	1.202567	-0.839070	-0.310238
C76	C	1.702567	-0.339070	0.189762
C77	C	1.144029	-0.797811	-0.368665
C78	C	1.644029	-0.297811	0.131335
C79	C	1.102108	-0.839101	-0.410541
C80	C	1.602108	-0.339101	0.089459
C81	C	1.277721	-0.962870	-0.235249
C82	C	1.777721	-0.462870	0.264751
C83	C	1.319640	-0.921585	-0.193377
C84	C	1.819640	-0.421585	0.306623
C85	C	1.303026	-0.839039	-0.209936
C86	C	1.803026	-0.339039	0.290064
C87	C	1.244488	-0.797780	-0.268362
C88	C	1.744488	-0.297780	0.231638
C89	C	1.344947	-0.797748	-0.168060
C90	C	1.844947	-0.297748	0.331940
C91	C	1.328329	-0.715204	-0.184615
C92	C	1.828329	-0.215204	0.315385
C93	C	1.227870	-0.715235	-0.284917
C94	C	1.727870	-0.215235	0.215083
C95	C	1.415651	-0.380759	-0.301872
C96	C	1.915651	0.119241	0.198128
C97	C	1.502902	-0.380765	-0.301880
C98	C	2.002902	0.119235	0.198120
C99	C	1.210939	-0.380686	-0.506609
C100	C	1.710939	0.119314	-0.006609
C101	C	1.210954	-0.380661	-0.593864
C102	C	1.710954	0.119339	-0.093864
C103	C	1.169572	-0.174588	-0.343237
C104	C	1.669572	0.325412	0.156763
C105	C	1.151959	-0.086736	-0.360872
C106	C	1.651959	0.413264	0.139128
C107	C	1.251027	-0.330109	-0.645009
C108	C	1.751027	0.169891	-0.145009
C109	C	1.251031	-0.330082	-0.726995
C110	C	1.751031	0.169918	-0.226995
C111	C	1.210967	-0.380613	-0.757833
C112	C	1.710967	0.119387	-0.257833
C113	C	1.170889	-0.431168	-0.706682
C114	C	1.670889	0.068832	-0.206682
C115	C	1.170881	-0.431190	-0.624699
C116	C	1.670881	0.068810	-0.124699
C117	C	1.170911	-0.431120	-0.877562
C118	C	1.670911	0.068880	-0.377562
C119	C	1.170921	-0.431100	-0.959550
C120	C	1.670921	0.068900	-0.459550
C121	C	1.251062	-0.330013	-0.979858
C122	C	1.751062	0.169987	-0.479858
C123	C	1.251053	-0.330035	-0.897874
C124	C	1.751053	0.169965	-0.397874
C125	C	1.210977	-0.380591	-0.846729
C126	C	1.710977	0.119409	-0.346729
C127	C	1.210901	-0.380745	-0.097905
C128	C	1.710901	0.119255	0.402095
C129	C	1.210993	-0.380547	-0.010695
C130	C	1.710993	0.119453	0.489305
H131	H	0.677708	-0.472589	-0.374366
H132	H	1.177708	0.027411	0.125634
H133	H	0.528981	-0.472593	-0.374387
H134	H	1.028981	0.027407	0.125613
H135	H	1.367301	-0.955185	-0.145800
H136	H	1.867301	-0.455185	0.354200
Br137	Br	1.116518	-0.499730	-0.808151
Br138	Br	1.616518	0.000270	-0.308151
Br139	Br	0.464272	-0.261473	-0.207679
Br140	Br	0.964272	0.238527	0.292321
H141	H	1.138265	-0.472308	-0.731798
H142	H	1.638265	0.027692	-0.231798
H143	H	0.744895	-0.288920	-0.229364
H144	H	1.244895	0.211080	0.270636
H145	H	1.241543	-1.079051	-0.271419
H146	H	1.741543	-0.579051	0.228581
H147	H	1.138295	-0.472245	-0.984656
H148	H	1.638295	0.027755	-0.484656
Br149	Br	0.910354	-0.261427	-0.207652
Br150	Br	1.410354	0.238573	0.292348
Br151	Br	1.385210	-0.659169	-0.127778
Br152	Br	1.885210	-0.159169	0.372222
H153	H	1.283655	-0.288963	-0.619907
H154	H	1.783655	0.211037	-0.119907
H155	H	1.180207	-0.681645	-0.332503
H156	H	1.680207	-0.181645	0.167497
H157	H	1.138240	-0.472347	-0.583058
H158	H	1.638240	0.027653	-0.083058
Br159	Br	1.305435	-0.261463	-0.856021
Br160	Br	1.805435	0.238537	-0.356021
H161	H	1.130494	-0.730598	-0.382137
H162	H	1.630494	-0.230598	0.117863
Br163	Br	1.022670	-0.783106	-0.489851
Br164	Br	1.522670	-0.283106	0.010149
Br165	Br	0.997369	-0.906936	-0.515167
Br166	Br	1.497369	-0.406936	-0.015167
H167	H	0.781834	-0.472574	-0.374361
H168	H	1.281834	0.027426	0.125639
Br169	Br	0.958330	-0.500050	-0.396031
Br170	Br	1.458330	-0.000050	0.103969
Br171	Br	0.657508	-0.261446	-0.207670
Br172	Br	1.157508	0.238554	0.292330
Br173	Br	1.036524	-1.101509	-0.476113
Br174	Br	1.536524	-0.601509	0.023887
Br175	Br	1.424383	-0.853745	-0.088757
Br176	Br	1.924383	-0.353745	0.411243
Br177	Br	1.300304	-1.074896	-0.212811
Br178	Br	1.800304	-0.574896	0.287189
Br179	Br	1.305455	-0.261404	-1.049267
Br180	Br	1.805455	0.238596	-0.549267
Br181	Br	1.305462	-0.261509	-0.796396
Br182	Br	1.805462	0.238491	-0.296396
