data_functionalizedCrystal
_audit_creation_method	'MofGen! by Chris Wilmer'
_symmetry_space_group_name_H-M	'P1'
_symmetry_Int_Tables_number	1
_symmetry_cell_setting	triclinic
loop_
_symmetry_equiv_pos_as_xyz
  x,y,z
_cell_length_a	18.215407
_cell_length_b	16.959453
_cell_length_c	18.215399
_cell_angle_alpha	90.028024
_cell_angle_beta	90.019833
_cell_angle_gamma	90.020436
loop_
_atom_site_label
_atom_site_type_symbol
_atom_site_fract_x
_atom_site_fract_y
_atom_site_fract_z
Zn1	Zn	1.125097	-0.314680	0.416115
Zn2	Zn	1.458430	0.018653	0.749449
Zn3	Zn	1.791764	0.351986	1.082782
Zn4	Zn	1.125016	-0.446866	0.293049
Zn5	Zn	1.458349	-0.113532	0.626382
Zn6	Zn	1.791683	0.219801	0.959716
Zn7	Zn	1.002030	-0.314706	0.293063
Zn8	Zn	1.335363	0.018627	0.626396
Zn9	Zn	1.668696	0.351961	0.959730
Zn10	Zn	1.002006	-0.446822	0.416074
Zn11	Zn	1.335339	-0.113488	0.749407
Zn12	Zn	1.668673	0.219845	1.082741
O13	O	1.063537	-0.380768	0.354575
O14	O	1.396870	-0.047435	0.687909
O15	O	1.730204	0.285898	1.021242
O16	O	1.228070	-0.332222	0.399802
O17	O	1.561404	0.001111	0.733135
O18	O	1.894737	0.334444	1.066469
O19	O	1.108677	-0.429364	0.190067
O20	O	1.442011	-0.096030	0.523400
O21	O	1.775344	0.237303	0.856733
O22	O	1.018399	-0.204092	0.309409
O23	O	1.351732	0.129242	0.642743
O24	O	1.685065	0.462575	0.976076
O25	O	1.228011	-0.429339	0.309386
O26	O	1.561344	-0.096005	0.642719
O27	O	1.894678	0.237328	0.976052
O28	O	1.108816	-0.204073	0.399815
O29	O	1.442149	0.129261	0.733149
O30	O	1.775482	0.462594	1.066482
O31	O	1.018320	-0.332267	0.190077
O32	O	1.351653	0.001067	0.523410
O33	O	1.684987	0.334400	0.856743
O34	O	0.899042	-0.332224	0.309369
O35	O	1.232376	0.001109	0.642702
O36	O	1.565709	0.334443	0.976036
O37	O	1.018358	-0.429264	0.519064
O38	O	1.351692	-0.095930	0.852397
O39	O	1.685025	0.237403	1.185730
O40	O	0.899025	-0.429289	0.399745
O41	O	1.232358	-0.095955	0.733078
O42	O	1.565692	0.237378	1.066411
O43	O	1.108793	-0.332180	0.519094
O44	O	1.442126	0.001154	0.852428
O45	O	1.775459	0.334487	1.185761
O46	O	1.108655	-0.557471	0.309345
O47	O	1.441988	-0.224137	0.642679
O48	O	1.775321	0.109196	0.976012
O49	O	1.018280	-0.557438	0.399731
O50	O	1.351613	-0.224105	0.733065
O51	O	1.684946	0.109228	1.066398
C52	C	0.872331	-0.380755	0.354554
C53	C	1.205664	-0.047422	0.687888
C54	C	1.538998	0.285912	1.021221
C55	C	0.790532	-0.380768	0.354563
C56	C	1.123865	-0.047435	0.687896
C57	C	1.457199	0.285899	1.021229
C58	C	0.602348	-0.431389	0.401562
C59	C	0.935682	-0.098056	0.734896
C60	C	1.269015	0.235277	1.068229
C61	C	0.525490	-0.431392	0.401571
C62	C	0.858823	-0.098058	0.734905
C63	C	1.192156	0.235275	1.068238
C64	C	0.525478	-0.330162	0.307605
C65	C	0.858811	0.003171	0.640938
C66	C	1.192145	0.336505	0.974271
C67	C	0.602335	-0.330156	0.307600
C68	C	0.935669	0.003177	0.640933
C69	C	1.269002	0.336511	0.974266
C70	C	0.640768	-0.380774	0.354577
C71	C	0.974102	-0.047441	0.687911
C72	C	1.307435	0.285892	1.021244
C73	C	0.487052	-0.380783	0.354591
C74	C	0.820386	-0.047449	0.687925
C75	C	1.153719	0.285884	1.021258
C76	C	0.403719	-0.380785	0.354601
C77	C	0.737052	-0.047451	0.687934
C78	C	1.070385	0.285882	1.021268
C79	C	0.724107	-0.380771	0.354569
C80	C	1.057441	-0.047438	0.687902
C81	C	1.390774	0.285896	1.021236
C82	C	1.063476	-0.586135	0.354548
C83	C	1.396809	-0.252801	0.687882
C84	C	1.730142	0.080532	1.021215
C85	C	1.063517	-0.673991	0.354561
C86	C	1.396850	-0.340658	0.687895
C87	C	1.730183	-0.007325	1.021228
C88	C	1.110678	-1.045398	0.401739
C89	C	1.444011	-0.712065	0.735072
C90	C	1.777344	-0.378732	1.068405
C91	C	1.016602	-1.045535	0.307521
C92	C	1.349936	-0.712202	0.640855
C93	C	1.683269	-0.378868	0.974188
C94	C	1.016575	-0.962989	0.307504
C95	C	1.349908	-0.629656	0.640838
C96	C	1.683242	-0.296323	0.974171
C97	C	1.063599	-0.921644	0.354606
C98	C	1.396932	-0.588311	0.687939
C99	C	1.730266	-0.254977	1.021273
C100	C	1.110650	-0.962845	0.401725
C101	C	1.443983	-0.629512	0.735058
C102	C	1.777317	-0.296178	1.068391
C103	C	0.969519	-0.921782	0.260392
C104	C	1.302853	-0.588449	0.593725
C105	C	1.636186	-0.255116	0.927058
C106	C	0.969489	-0.839231	0.260374
C107	C	1.302823	-0.505898	0.593707
C108	C	1.636156	-0.172565	0.927040
C109	C	1.016518	-0.797885	0.307472
C110	C	1.349851	-0.464552	0.640806
C111	C	1.683184	-0.131218	0.974139
C112	C	1.063571	-0.839091	0.354592
C113	C	1.396905	-0.505757	0.687926
C114	C	1.730238	-0.172424	1.021259
C115	C	1.110595	-0.797745	0.401694
C116	C	1.443929	-0.464412	0.735027
C117	C	1.777262	-0.131079	1.068361
C118	C	1.157654	-0.838950	0.448811
C119	C	1.490987	-0.505616	0.782144
C120	C	1.824320	-0.172283	1.115478
C121	C	1.157678	-0.921498	0.448823
C122	C	1.491012	-0.588165	0.782157
C123	C	1.824345	-0.254832	1.115490
C124	C	1.016493	-0.715336	0.307460
C125	C	1.349826	-0.382003	0.640793
C126	C	1.683159	-0.048670	0.974126
C127	C	1.110568	-0.715192	0.401680
C128	C	1.443901	-0.381859	0.735013
C129	C	1.777235	-0.048525	1.068347
C130	C	1.255490	-0.380783	0.354597
C131	C	1.588823	-0.047449	0.687930
C132	C	1.922157	0.285884	1.021264
C133	C	1.337289	-0.380789	0.354606
C134	C	1.670622	-0.047455	0.687940
C135	C	2.003956	0.285878	1.021273
C136	C	1.063582	-0.380714	0.546528
C137	C	1.396915	-0.047381	0.879862
C138	C	1.730249	0.285953	1.213195
C139	C	1.063601	-0.380691	0.628327
C140	C	1.396934	-0.047357	0.961661
C141	C	1.730268	0.285976	1.294994
C142	C	1.063619	-0.174600	0.354619
C143	C	1.396952	0.158733	0.687952
C144	C	1.730285	0.492067	1.021285
C145	C	1.063654	-0.086744	0.354637
C146	C	1.396987	0.246590	0.687970
C147	C	1.730320	0.579923	1.021304
C148	C	1.063535	-0.380766	0.163369
C149	C	1.396868	-0.047432	0.496702
C150	C	1.730201	0.285901	0.830036
C151	C	1.063658	-0.380566	0.081571
C152	C	1.396992	-0.047233	0.414904
C153	C	1.730325	0.286100	0.748237
C154	C	1.110707	-0.330092	0.816538
C155	C	1.444041	0.003241	1.149872
C156	C	1.777374	0.336575	1.483205
C157	C	1.110716	-0.330069	0.893397
C158	C	1.444049	0.003264	1.226731
C159	C	1.777383	0.336598	1.560064
C160	C	1.016547	-0.431167	0.893354
C161	C	1.349880	-0.097834	1.226687
C162	C	1.683214	0.235499	1.560021
C163	C	1.016535	-0.431186	0.816497
C164	C	1.349868	-0.097852	1.149830
C165	C	1.683202	0.235481	1.483163
C166	C	1.063619	-0.380649	0.778091
C167	C	1.396953	-0.047316	1.111424
C168	C	1.730286	0.286017	1.444758
C169	C	1.063640	-0.380608	0.931807
C170	C	1.396973	-0.047274	1.265140
C171	C	1.730307	0.286059	1.598474
C172	C	1.063649	-0.380583	1.015141
C173	C	1.396983	-0.047250	1.348474
C174	C	1.730316	0.286084	1.681807
C175	C	1.063609	-0.380673	0.694752
C176	C	1.396943	-0.047339	1.028085
C177	C	1.730276	0.285994	1.361419
H178	H	0.494211	-0.472606	0.439832
H179	H	0.827545	-0.139273	0.773166
H180	H	1.160878	0.194060	1.106499
N181	N	0.965777	-0.485682	0.934780
N182	N	1.299110	-0.152349	1.268114
N183	N	1.632444	0.180984	1.601447
H184	H	0.935944	-0.517713	0.898759
H185	H	1.269278	-0.184379	1.232093
H186	H	1.602611	0.148954	1.565426
H187	H	0.931736	-0.453502	0.966673
H188	H	1.265069	-0.120168	1.300006
H189	H	1.598402	0.213165	1.633340
N190	N	0.965739	-0.485723	0.775034
N191	N	1.299072	-0.152389	1.108368
N192	N	1.632406	0.180944	1.441701
H193	H	0.995623	-0.522363	0.743140
H194	H	1.328957	-0.189030	1.076474
H195	H	1.662290	0.144303	1.409807
H196	H	0.931649	-0.453550	0.743193
H197	H	1.264982	-0.120216	1.076526
H198	H	1.598316	0.213117	1.409860
H199	H	1.195990	-0.955054	0.487184
H200	H	1.529323	-0.621721	0.820517
H201	H	1.862657	-0.288387	1.153851
N202	N	1.161291	-0.670600	0.452480
N203	N	1.494625	-0.337267	0.785813
N204	N	1.827958	-0.003933	1.119147
H205	H	1.191103	-0.709230	0.482327
H206	H	1.524437	-0.375897	0.815660
H207	H	1.857770	-0.042564	1.148994
H208	H	1.131304	-0.636351	0.486506
H209	H	1.464637	-0.303018	0.819840
H210	H	1.797970	0.030316	1.153173
H211	H	1.149044	-0.288940	0.785271
H212	H	1.482378	0.044394	1.118604
H213	H	1.815711	0.377727	1.451937
N214	N	1.161501	-0.275530	0.934858
N215	N	1.494835	0.057804	1.268191
N216	N	1.828168	0.391137	1.601524
H217	H	1.214078	-0.287810	0.921491
H218	H	1.547411	0.045523	1.254825
H219	H	1.880744	0.378857	1.588158
H220	H	1.154304	-0.283200	0.989363
H221	H	1.487638	0.050133	1.322696
H222	H	1.820971	0.383466	1.656029
N223	N	0.643803	-0.485981	0.452229
N224	N	0.977136	-0.152648	0.785562
N225	N	1.310470	0.180686	1.118896
H226	H	0.607798	-0.518044	0.481995
H227	H	0.941132	-0.184711	0.815329
H228	H	1.274465	0.148622	1.148662
H229	H	0.675715	-0.453850	0.486336
H230	H	1.009049	-0.120517	0.819669
H231	H	1.342382	0.212817	1.153003
H232	H	0.978314	-1.079203	0.269176
H233	H	1.311648	-0.745870	0.602510
H234	H	1.644981	-0.412537	0.935843
H235	H	0.494176	-0.288952	0.269356
H236	H	0.827510	0.044382	0.602689
H237	H	1.160843	0.377715	0.936022
H238	H	1.195938	-0.805277	0.487165
H239	H	1.529271	-0.471944	0.820498
H240	H	1.862604	-0.138610	1.153832
N241	N	1.161435	-1.089833	0.452552
N242	N	1.494768	-0.756499	0.785886
N243	N	1.828101	-0.423166	1.119219
H244	H	1.154322	-1.148401	0.445415
H245	H	1.487655	-0.815068	0.778749
H246	H	1.820988	-0.481735	1.112082
H247	H	1.149945	-1.075376	0.505099
H248	H	1.483279	-0.742042	0.838433
H249	H	1.816612	-0.408709	1.171766
H250	H	0.633618	-0.288934	0.269339
H251	H	0.966951	0.044399	0.602672
H252	H	1.300285	0.377732	0.936005
N253	N	0.918809	-0.966373	0.209587
N254	N	1.252142	-0.633040	0.542920
N255	N	1.585476	-0.299706	0.876253
H256	H	0.925974	-1.024919	0.216740
H257	H	1.259307	-0.691586	0.550073
H258	H	1.592641	-0.358252	0.883406
H259	H	0.930297	-0.951966	0.157039
H260	H	1.263630	-0.618632	0.490372
H261	H	1.596963	-0.285299	0.823705
H262	H	0.931173	-0.805688	0.222008
H263	H	1.264507	-0.472355	0.555342
H264	H	1.597840	-0.139021	0.888675
H265	H	0.978175	-0.681792	0.269101
H266	H	1.311509	-0.348458	0.602435
H267	H	1.644842	-0.015125	0.935768
