data_functionalizedCrystal
_audit_creation_method	'MofGen! by Chris Wilmer'
_symmetry_space_group_name_H-M	'P1'
_symmetry_Int_Tables_number	1
_symmetry_cell_setting	triclinic
loop_
_symmetry_equiv_pos_as_xyz
  x,y,z
_cell_length_a	12.759401
_cell_length_b	16.625546
_cell_length_c	12.759393
_cell_angle_alpha	90.036194
_cell_angle_beta	90.018496
_cell_angle_gamma	90.022629
loop_
_atom_site_label
_atom_site_type_symbol
_atom_site_fract_x
_atom_site_fract_y
_atom_site_fract_z
Zn1	Zn	1.606199	-0.320951	0.593948
Zn2	Zn	2.106199	0.179049	1.093948
Zn3	Zn	1.606069	-0.455807	0.418253
Zn4	Zn	2.106069	0.044193	0.918253
Zn5	Zn	1.430501	-0.320993	0.418287
Zn6	Zn	1.930501	0.179007	0.918287
Zn7	Zn	1.430465	-0.455745	0.593895
Zn8	Zn	1.930465	0.044255	1.093895
O9	O	1.518308	-0.388374	0.506096
O10	O	2.018308	0.111626	1.006096
O11	O	1.753203	-0.338848	0.570649
O12	O	2.253203	0.161152	1.070649
O13	O	1.582740	-0.437968	0.271237
O14	O	2.082740	0.062032	0.771237
O15	O	1.453876	-0.208155	0.441625
O16	O	1.953876	0.291845	0.941625
O17	O	1.753107	-0.437927	0.441568
O18	O	2.253107	0.062073	0.941568
O19	O	1.582961	-0.208124	0.570682
O20	O	2.082961	0.291876	1.070682
O21	O	1.453751	-0.338920	0.271261
O22	O	1.953751	0.161080	0.771261
O23	O	1.283475	-0.338860	0.441574
O24	O	1.783475	0.161140	0.941574
O25	O	1.453816	-0.437821	0.740923
O26	O	1.953816	0.062179	1.240923
O27	O	1.283449	-0.437862	0.570592
O28	O	1.783449	0.062138	1.070592
O29	O	1.582927	-0.338788	0.740962
O30	O	2.082927	0.161212	1.240962
O31	O	1.582706	-0.568632	0.441517
O32	O	2.082706	-0.068632	0.941517
O33	O	1.453691	-0.568586	0.570560
O34	O	1.953691	-0.068586	1.070560
C35	C	1.245341	-0.388359	0.506081
C36	C	1.745341	0.111641	1.006081
C37	C	1.128564	-0.388372	0.506100
C38	C	1.628564	0.111628	1.006100
C39	C	1.073717	-0.440005	0.573169
C40	C	1.573717	0.059995	1.073169
C41	C	0.963992	-0.440015	0.573180
C42	C	1.463992	0.059985	1.073180
C43	C	0.963974	-0.336758	0.439045
C44	C	1.463974	0.163242	0.939045
C45	C	1.073696	-0.336744	0.439040
C46	C	1.573696	0.163256	0.939040
C47	C	1.073726	-0.499623	0.650608
C48	C	1.573726	0.000377	1.150608
C49	C	0.964002	-0.499633	0.650619
C50	C	1.464002	0.000367	1.150619
C51	C	1.518209	-0.597865	0.506052
C52	C	2.018209	-0.097865	1.006052
C53	C	1.518263	-0.687486	0.506068
C54	C	2.018263	-0.187486	1.006068
C55	C	1.518446	-1.015662	0.506177
C56	C	2.018446	-0.515662	1.006177
C57	C	1.518392	-0.924353	0.506150
C58	C	2.018392	-0.424353	1.006150
C59	C	1.518353	-0.851577	0.506122
C60	C	2.018353	-0.351577	1.006122
C61	C	1.518301	-0.760262	0.506096
C62	C	2.018301	-0.260262	1.006096
C63	C	1.792342	-0.388390	0.506111
C64	C	2.292342	0.111610	1.006111
C65	C	1.909118	-0.388396	0.506117
C66	C	2.409118	0.111604	1.006117
C67	C	1.518382	-0.388293	0.780129
C68	C	2.018382	0.111707	1.280129
C69	C	1.518413	-0.388258	0.896906
C70	C	2.018413	0.111742	1.396906
C71	C	1.518437	-0.178065	0.506163
C72	C	2.018437	0.321935	1.006163
C73	C	1.518492	-0.088444	0.506191
C74	C	2.018492	0.411556	1.006191
C75	C	1.518296	-0.388397	0.233128
C76	C	2.018296	0.111603	0.733128
C77	C	1.518468	-0.388204	0.116352
C78	C	2.018468	0.111796	0.616352
C79	C	1.585650	-0.336687	0.951790
C80	C	2.085650	0.163313	1.451790
C81	C	1.585675	-0.336657	1.061514
C82	C	2.085675	0.163343	1.561514
C83	C	1.451223	-0.439778	1.061461
C84	C	1.951223	0.060222	1.561461
C85	C	1.451194	-0.439803	0.951739
C86	C	1.951194	0.060197	1.451739
C87	C	1.663279	-0.277153	0.951821
C88	C	2.163279	0.222847	1.451821
C89	C	1.663304	-0.277124	1.061546
C90	C	2.163304	0.222876	1.561546
H91	H	0.930008	-0.477343	0.727974
H92	H	1.430008	0.022657	1.227974
H93	H	1.396439	-0.481794	0.907056
H94	H	1.896439	0.018206	1.407056
H95	H	1.103537	-0.482970	0.732016
H96	H	1.603537	0.017030	1.232016
H97	H	1.396493	-0.481742	1.106119
H98	H	1.896493	0.018258	1.606119
F99	F	1.634840	-0.195537	0.912932
F100	F	2.134840	0.304463	1.412932
F101	F	1.118177	-0.577138	0.612402
F102	F	1.618177	-0.077138	1.112402
F103	F	1.764273	-0.306409	0.907325
F104	F	2.264273	0.193591	1.407325
H105	H	1.744671	-0.293849	1.091322
H106	H	2.244671	0.206151	1.591322
F107	F	1.625146	-0.199610	1.106062
F108	F	2.125146	0.300390	1.606062
F109	F	1.132066	-0.281777	0.367673
F110	F	1.632066	0.218223	0.867673
H111	H	0.934196	-0.562065	0.628680
H112	H	1.434196	-0.062065	1.128680
F113	F	0.905570	-0.281813	0.367680
F114	F	1.405570	0.218187	0.867680
