data_functionalizedCrystal
_audit_creation_method	'MofGen! by Chris Wilmer'
_symmetry_space_group_name_H-M	'P1'
_symmetry_Int_Tables_number	1
_symmetry_cell_setting	triclinic
loop_
_symmetry_equiv_pos_as_xyz
  x,y,z
_cell_length_a	6.817900
_cell_length_b	14.858565
_cell_length_c	16.255661
_cell_angle_alpha	95.050358
_cell_angle_beta	103.488922
_cell_angle_gamma	104.523916
loop_
_atom_site_label
_atom_site_type_symbol
_atom_site_fract_x
_atom_site_fract_y
_atom_site_fract_z
V1	V	-4.031916	-0.129422	-0.264108
O2	O	-4.013971	0.005446	-0.258838
O3	O	-3.988552	-0.255878	-0.262536
O4	O	-3.983411	-0.127770	-0.379189
O5	O	-4.019148	-0.123549	-0.141377
V6	V	-4.514905	-0.113250	-0.249400
O7	O	-4.294346	-0.164896	-0.296372
O8	O	-4.702672	-0.077776	-0.217137
O9	O	-4.335062	0.013206	-0.250973
O10	O	-4.650246	-0.248118	-0.254671
O11	O	-4.645069	-0.119123	-0.372131
O12	O	-4.340202	-0.114902	-0.134320
C13	C	-3.834781	-0.286695	-0.258429
C14	C	-3.880612	-0.390077	-0.257911
C15	C	-4.048360	-0.768643	-0.256023
C16	C	-4.001679	-0.663314	-0.256547
C17	C	-3.964487	-0.579363	-0.256966
C18	C	-3.917804	-0.474028	-0.257492
C19	C	-3.828223	-0.123279	-0.407231
C20	C	-3.869882	-0.122766	-0.501311
C21	C	-3.780192	-0.116631	-0.724119
C22	C	-3.939791	-0.195814	-0.793740
C23	C	-3.946228	-0.121803	-0.673558
C24	C	-3.860882	-0.041714	-0.771572
C25	C	-4.019958	-0.120868	-0.839940
C26	C	-4.105312	-0.201056	-0.741950
C27	C	-4.026338	-0.046887	-0.719766
C28	C	-4.186075	-0.126092	-0.789368
C29	C	-3.903748	-0.122342	-0.577710
C30	C	-4.062455	-0.120336	-0.935788
C31	C	-4.152175	0.044018	-0.255077
C32	C	-4.085582	0.147399	-0.255601
C33	C	-4.158733	-0.119396	-0.106273
C34	C	-4.096312	-0.119904	-0.012192
H35	H	-3.608281	-0.112733	-0.695631
O36	O	-3.738310	0.038719	-0.787574
C37	C	-3.642915	0.208229	-0.766446
C38	C	-3.781901	0.117219	-0.748280
H39	H	-3.678077	0.271720	-0.734671
H40	H	-3.677234	0.208258	-0.838521
H41	H	-3.470410	0.212083	-0.739545
H42	H	-3.954451	0.113306	-0.775128
H43	H	-3.747402	0.117228	-0.676198
O44	O	-3.896494	-0.270822	-0.832248
C45	C	-3.690807	-0.323781	-0.918099
C46	C	-3.739692	-0.238757	-0.874554
H47	H	-3.563998	-0.297886	-0.952299
H48	H	-3.839243	-0.369883	-0.966581
H49	H	-3.632891	-0.366524	-0.867594
H50	H	-3.797555	-0.195941	-0.924997
H51	H	-3.591206	-0.192723	-0.826056
O52	O	-4.069326	0.028159	-0.681178
C53	C	-4.079440	0.111270	-0.548769
C54	C	-4.030772	0.026216	-0.592372
H55	H	-4.048246	0.109738	-0.476960
H56	H	-4.251306	0.107973	-0.576528
H57	H	-3.974650	0.179110	-0.560540
H58	H	-4.135425	-0.041666	-0.580617
H59	H	-3.858862	0.029596	-0.564607
H60	H	-4.208239	-0.268470	-0.728606
O61	O	-4.391201	-0.130715	-0.823215
C62	C	-4.636414	-0.055390	-0.899674
C63	C	-4.404031	-0.050019	-0.861361
H64	H	-4.646862	0.009834	-0.930541
H65	H	-4.721021	-0.059071	-0.846755
H66	H	-4.713401	-0.120957	-0.950146
H67	H	-4.326862	0.015542	-0.810900
H68	H	-4.319579	-0.046390	-0.914328
