data_functionalizedCrystal
_audit_creation_method	'MofGen! by Chris Wilmer'
_symmetry_space_group_name_H-M	'P1'
_symmetry_Int_Tables_number	1
_symmetry_cell_setting	triclinic
loop_
_symmetry_equiv_pos_as_xyz
  x,y,z
_cell_length_a	12.759401
_cell_length_b	16.625545
_cell_length_c	12.759393
_cell_angle_alpha	89.969509
_cell_angle_beta	90.019676
_cell_angle_gamma	89.972623
loop_
_atom_site_label
_atom_site_type_symbol
_atom_site_fract_x
_atom_site_fract_y
_atom_site_fract_z
Zn1	Zn	1.606177	0.320953	0.593985
Zn2	Zn	2.106177	0.820953	1.093985
Zn3	Zn	1.606030	0.455808	0.418305
Zn4	Zn	2.106030	0.955808	0.918305
Zn5	Zn	1.430476	0.320994	0.418324
Zn6	Zn	1.930476	0.820994	0.918324
Zn7	Zn	1.430430	0.455749	0.593946
Zn8	Zn	1.930430	0.955749	1.093946
O9	O	1.518278	0.388376	0.506140
O10	O	2.018278	0.888376	1.006140
O11	O	1.753179	0.338850	0.570689
O12	O	2.253179	0.838850	1.070689
O13	O	1.582701	0.437966	0.271286
O14	O	2.082701	0.937966	0.771286
O15	O	1.453863	0.208156	0.441650
O16	O	1.953863	0.708156	0.941650
O17	O	1.753071	0.437927	0.441617
O18	O	2.253071	0.937927	0.941617
O19	O	1.582950	0.208126	0.570707
O20	O	2.082950	0.708126	1.070707
O21	O	1.453721	0.338919	0.271300
O22	O	1.953721	0.838919	0.771300
O23	O	1.283449	0.338862	0.441612
O24	O	1.783449	0.838862	0.941612
O25	O	1.453785	0.437826	0.740972
O26	O	1.953785	0.937826	1.240972
O27	O	1.283415	0.437865	0.570641
O28	O	1.783415	0.937865	1.070641
O29	O	1.582906	0.338793	0.741001
O30	O	2.082906	0.838793	1.241001
O31	O	1.582656	0.568632	0.441580
O32	O	2.082656	1.068632	0.941580
O33	O	1.453643	0.568589	0.570623
O34	O	1.953643	1.068589	1.070623
C35	C	1.245311	0.388362	0.506125
C36	C	1.745311	0.888362	1.006125
C37	C	1.128534	0.388376	0.506144
C38	C	1.628534	0.888376	1.006144
C39	C	1.073729	0.336879	0.573455
C40	C	1.573729	0.836879	1.073455
C41	C	0.964005	0.336888	0.573462
C42	C	1.464005	0.836888	1.073462
C43	C	0.963901	0.439895	0.438843
C44	C	1.463901	0.939895	0.938843
C45	C	1.073623	0.439882	0.438832
C46	C	1.573623	0.939882	0.938832
C47	C	1.518157	0.597867	0.506118
C48	C	2.018157	1.097867	1.006118
C49	C	1.518202	0.687488	0.506144
C50	C	2.018202	1.187488	1.006144
C51	C	1.518240	0.760270	0.506168
C52	C	2.018240	1.260270	1.006168
C53	C	1.518299	0.851579	0.506196
C54	C	2.018299	1.351579	1.006196
C55	C	1.518351	0.924355	0.506214
C56	C	2.018351	1.424355	1.006214
C57	C	1.518408	1.015669	0.506240
C58	C	2.018408	1.515669	1.006240
C59	C	1.792311	0.388390	0.506155
C60	C	2.292311	0.888390	1.006155
C61	C	1.909088	0.388397	0.506162
C62	C	2.409088	0.888397	1.006162
C63	C	1.518357	0.388299	0.780173
C64	C	2.018357	0.888299	1.280173
C65	C	1.518390	0.388266	0.896950
C66	C	2.018390	0.888266	1.396950
C67	C	1.518420	1.178067	0.506198
C68	C	2.018420	1.678067	1.006198
C69	C	1.518460	1.088446	0.506257
C70	C	2.018460	1.588446	1.006257
C71	C	1.518260	0.388395	0.233172
C72	C	2.018260	0.888395	0.733172
C73	C	1.518430	0.388201	0.116396
C74	C	2.018430	0.888201	0.616396
C75	C	1.585628	0.336691	0.951829
C76	C	2.085628	0.836691	1.451829
C77	C	1.585646	0.336656	1.061553
C78	C	2.085646	0.836656	1.561553
C79	C	1.451185	0.439778	1.061510
C80	C	1.951185	0.939778	1.561510
C81	C	1.451163	0.439808	0.951788
C82	C	1.951163	0.939808	1.451788
H83	H	0.919179	0.481831	0.384042
H84	H	1.419179	0.981831	0.884042
O85	O	0.910720	0.286782	0.638702
O86	O	1.410720	0.786782	1.138702
C87	C	0.847230	0.234665	0.579017
C88	C	1.347230	0.734665	1.079017
H89	H	0.880261	0.229599	0.496279
H90	H	1.380261	0.729599	0.996279
H91	H	0.846030	0.172651	0.617163
H92	H	1.346030	0.672651	1.117163
H93	H	0.764061	0.259599	0.575347
H94	H	1.264061	0.759599	1.075347
H95	H	1.118247	0.481817	0.384014
H96	H	1.618247	0.981817	0.884014
O97	O	1.650860	0.286580	1.115024
O98	O	2.150860	0.786580	1.615024
C99	C	1.636482	0.297612	1.223627
C100	C	2.136482	0.797612	1.723627
H101	H	1.555387	0.324012	1.238595
H102	H	2.055387	0.824012	1.738595
H103	H	1.643656	0.237202	1.265336
H104	H	2.143656	0.737202	1.765336
H105	H	1.698776	0.340542	1.254771
H106	H	2.198776	0.840542	1.754771
H107	H	1.118434	0.294937	0.628261
H108	H	1.618434	0.794937	1.128261
O109	O	1.385988	0.489822	1.114944
O110	O	1.885988	0.989822	1.614944
C111	C	1.400406	0.478724	1.223557
C112	C	1.900406	0.978724	1.723557
H113	H	1.481509	0.452319	1.238560
H114	H	1.981509	0.952319	1.738560
H115	H	1.393243	0.539108	1.265241
H116	H	1.893243	1.039108	1.765241
H117	H	1.338127	0.435772	1.254696
H118	H	1.838127	0.935772	1.754696
H119	H	1.640367	0.294719	0.907183
H120	H	2.140367	0.794719	1.407183
O121	O	1.385991	0.489952	0.898356
O122	O	1.885991	0.989952	1.398356
C123	C	1.445758	0.542062	0.834902
C124	C	1.945758	1.042062	1.334902
H125	H	1.525396	0.513635	0.818488
H126	H	2.025396	1.013635	1.318488
H127	H	1.402942	0.552882	0.757735
H128	H	1.902942	1.052882	1.257735
H129	H	1.457262	0.601807	0.877172
H130	H	1.957262	1.101807	1.377172
