data_functionalizedCrystal
_audit_creation_method	'MofGen! by Chris Wilmer'
_symmetry_space_group_name_H-M	'P1'
_symmetry_Int_Tables_number	1
_symmetry_cell_setting	triclinic
loop_
_symmetry_equiv_pos_as_xyz
  x,y,z
_cell_length_a	12.759401
_cell_length_b	29.839131
_cell_length_c	12.759393
_cell_angle_alpha	90.037890
_cell_angle_beta	90.018496
_cell_angle_gamma	90.041581
loop_
_atom_site_label
_atom_site_type_symbol
_atom_site_fract_x
_atom_site_fract_y
_atom_site_fract_z
Zn1	Zn	1.606060	-0.178825	0.593935
Zn2	Zn	1.605873	-0.253963	0.418236
Zn3	Zn	1.430362	-0.178848	0.418275
Zn4	Zn	1.430269	-0.253929	0.593877
O5	O	1.518141	-0.216391	0.506081
O6	O	1.753056	-0.188797	0.570636
O7	O	1.582551	-0.244024	0.271220
O8	O	1.453787	-0.115978	0.441617
O9	O	1.752919	-0.244001	0.441551
O10	O	1.582871	-0.115961	0.570674
O11	O	1.453605	-0.188837	0.271248
O12	O	1.283329	-0.188803	0.441561
O13	O	1.453628	-0.243942	0.740906
O14	O	1.283260	-0.243965	0.570575
O15	O	1.582781	-0.188763	0.740949
O16	O	1.582461	-0.316826	0.441495
O17	O	1.453446	-0.316801	0.570538
C18	C	1.245174	-0.216383	0.506066
C19	C	1.128397	-0.216390	0.506085
C20	C	1.517951	-0.333114	0.506029
C21	C	1.517966	-0.383048	0.506041
C22	C	1.073527	-0.245159	0.573152
C23	C	0.963803	-0.245165	0.573163
C24	C	0.963829	-0.187632	0.439032
C25	C	1.073551	-0.187624	0.439027
C26	C	1.073511	-0.278376	0.650588
C27	C	0.963787	-0.278382	0.650600
C28	C	1.585441	-0.692692	0.438986
C29	C	1.585571	-0.880365	0.439027
O30	O	1.642790	-0.904631	0.381974
N31	N	1.518359	-0.903833	0.506160
C32	C	1.451114	-0.880380	0.573292
O33	O	1.393957	-0.904648	0.630402
C34	C	1.450991	-0.692708	0.573256
C35	C	1.518200	-0.669243	0.506111
C36	C	1.652646	-0.669227	0.371848
C37	C	1.652609	-0.622311	0.371834
C38	C	1.585367	-0.598861	0.438959
C39	C	1.518163	-0.622327	0.506098
C40	C	1.383752	-0.669256	0.640393
C41	C	1.383729	-0.622335	0.640380
C42	C	1.450938	-0.598869	0.573235
C43	C	1.450884	-0.551962	0.573209
N44	N	1.518096	-0.528494	0.506076
C45	C	1.585338	-0.551944	0.438951
C46	C	1.451183	-0.978911	0.573305
C47	C	1.451212	-1.025829	0.573313
C48	C	1.585670	-1.025811	0.439049
C49	C	1.585635	-0.978892	0.439036
C50	C	1.518395	-0.955443	0.506172
C51	C	1.585254	-0.453418	0.438927
C52	C	1.585208	-0.406498	0.438916
C53	C	1.450754	-0.406521	0.573184
C54	C	1.450796	-0.453436	0.573191
C55	C	1.518054	-0.476884	0.506059
O56	O	1.393703	-0.527668	0.630240
O57	O	1.642503	-0.527668	0.381867
C58	C	1.585479	-0.739608	0.439000
C59	C	1.518274	-0.763073	0.506138
C60	C	1.451033	-0.739624	0.573263
C61	C	1.518304	-0.809991	0.506146
C62	C	1.585545	-0.833441	0.439021
C63	C	1.652757	-0.809973	0.371888
C64	C	1.652720	-0.763058	0.371875
C65	C	1.383820	-0.763092	0.640396
C66	C	1.383862	-0.810007	0.640404
C67	C	1.451104	-0.833457	0.573279
C68	C	1.792174	-0.216400	0.506096
C69	C	1.908951	-0.216404	0.506102
C70	C	1.518215	-0.216346	0.780114
C71	C	1.518246	-0.216327	0.896891
C72	C	1.518360	-0.099213	0.506156
C73	C	1.518454	-0.049279	0.506188
C74	C	1.518128	-0.216404	0.233113
C75	C	1.518301	-0.216297	0.116337
C76	C	1.585505	-0.187593	0.951777
C77	C	1.585530	-0.187576	1.061501
C78	C	1.451034	-0.245032	1.061444
C79	C	1.451004	-0.245046	0.951722
C80	C	1.663159	-0.154422	0.951811
C81	C	1.663184	-0.154406	1.061535
H82	H	0.919160	-0.164212	0.384437
C83	C	1.767529	-0.171267	0.905814
C84	C	1.856992	-0.185688	0.979447
C85	C	1.961361	-0.202534	0.933449
C86	C	1.976267	-0.204959	0.813819
C87	C	1.886801	-0.190538	0.740179
C88	C	1.782432	-0.173692	0.786177
H89	H	1.845960	-0.183893	1.068010
H90	H	2.027589	-0.213209	0.987963
H91	H	2.053527	-0.217430	0.779769
H92	H	1.897833	-0.192333	0.651616
H93	H	1.716204	-0.163016	0.731663
H94	H	1.634107	-0.121348	1.095591
C95	C	1.376997	-0.276640	0.891332
C96	C	1.422400	-0.311921	0.815850
C97	C	1.348382	-0.343511	0.755454
C98	C	1.228961	-0.339820	0.770540
C99	C	1.183551	-0.304538	0.846026
C100	C	1.257569	-0.272948	0.906422
H101	H	1.510809	-0.314655	0.804679
H102	H	1.381998	-0.369630	0.699574
H103	H	1.174168	-0.363205	0.725831
H104	H	1.095143	-0.301804	0.857196
H105	H	1.223954	-0.246829	0.962301
C106	C	1.726659	-0.737250	0.298019
C107	C	1.718158	-0.743750	0.178578
C108	C	1.792103	-0.717947	0.104719
C109	C	1.874549	-0.685643	0.150301
C110	C	1.883053	-0.679141	0.269747
C111	C	1.809108	-0.704945	0.343606
H112	H	1.657124	-0.767665	0.144831
H113	H	1.785807	-0.722760	0.016297
H114	H	1.929287	-0.666542	0.095626
H115	H	1.944087	-0.655227	0.303495
H116	H	1.815404	-0.700132	0.432029
H117	H	1.707505	-0.829074	0.317230
C118	C	1.309925	-0.835815	0.714270
C119	C	1.190488	-0.829418	0.705604
C120	C	1.116561	-0.855224	0.779476
C121	C	1.162070	-0.887427	0.862014
C122	C	1.281513	-0.893826	0.870684
C123	C	1.355440	-0.868020	0.796812
H124	H	1.156794	-0.805578	0.644501
H125	H	1.028142	-0.850487	0.773058
H126	H	1.107345	-0.906531	0.916699
H127	H	1.315207	-0.917666	0.931787
H128	H	1.443859	-0.872757	0.803230
H129	H	1.107489	-0.311410	0.621295
C130	C	0.923472	-0.325371	0.620945
C131	C	1.001831	-0.363245	0.597021
C132	C	0.961516	-0.410231	0.567364
C133	C	0.842843	-0.419343	0.561631
C134	C	0.764477	-0.381468	0.585557
C135	C	0.804791	-0.334482	0.615214
H136	H	1.089687	-0.356501	0.601263
H137	H	1.019529	-0.438269	0.549653
H138	H	0.812999	-0.454125	0.539678
H139	H	0.676621	-0.388212	0.581314
H140	H	0.746779	-0.306444	0.632925
C141	C	1.659146	-0.380687	0.365056
C142	C	1.650646	-0.387185	0.245615
C143	C	1.724583	-0.361377	0.171758
C144	C	1.807019	-0.329069	0.217342
C145	C	1.815523	-0.322569	0.336789
C146	C	1.741586	-0.348378	0.410646
H147	H	1.589618	-0.411103	0.211865
H148	H	1.718288	-0.366188	0.083335
H149	H	1.861752	-0.309964	0.162669
H150	H	1.876550	-0.298652	0.370538
H151	H	1.747881	-0.343567	0.499069
C152	C	1.659231	-0.479206	0.365076
C153	C	1.650703	-0.472792	0.245634
C154	C	1.724672	-0.498580	0.171777
C155	C	1.807169	-0.530782	0.217363
C156	C	1.815701	-0.537197	0.336812
C157	C	1.741731	-0.511409	0.410668
H158	H	1.589631	-0.448953	0.211883
H159	H	1.718356	-0.493831	0.083353
H160	H	1.861926	-0.549872	0.162690
H161	H	1.876773	-0.561036	0.370563
H162	H	1.748047	-0.516158	0.499092
C163	C	1.773083	-0.167001	1.101783
C164	C	1.787701	-0.208745	1.171149
C165	C	1.897592	-0.221341	1.211402
C166	C	1.992864	-0.192193	1.182289
C167	C	1.978249	-0.150446	1.112919
C168	C	1.868358	-0.137850	1.072666
H169	H	1.717172	-0.230325	1.192704
H170	H	1.908410	-0.252245	1.262754
H171	H	2.074212	-0.201517	1.212087
H172	H	2.048778	-0.128866	1.091364
H173	H	1.857540	-0.106945	1.021313
H174	H	1.641428	-0.119630	0.922064
H175	H	1.707339	-0.603208	0.317162
H176	H	1.118222	-0.164195	0.384422
H177	H	1.103329	-0.269097	0.731998
C178	C	1.377079	-0.276627	1.121757
C179	C	1.257646	-0.272960	1.106665
C180	C	1.183691	-0.304556	1.166974
C181	C	1.229169	-0.339820	1.242375
C182	C	1.348609	-0.343489	1.257471
C183	C	1.422563	-0.311892	1.197162
H184	H	1.223974	-0.246854	1.050845
H185	H	1.095274	-0.301841	1.155798
H186	H	1.174424	-0.363210	1.287019
H187	H	1.382280	-0.369594	1.313290
H188	H	1.510980	-0.314608	1.208337
C189	C	1.659573	-0.953082	0.365184
C190	C	1.614082	-0.920872	0.282649
C191	C	1.688026	-0.895065	0.208796
C192	C	1.807459	-0.901467	0.217478
C193	C	1.852956	-0.933678	0.300016
C194	C	1.779013	-0.959485	0.373869
H195	H	1.525665	-0.916132	0.276220
H196	H	1.654345	-0.871220	0.147696
H197	H	1.862197	-0.882363	0.162807
H198	H	1.941373	-0.938419	0.306446
H199	H	1.812693	-0.983330	0.434970
C200	C	1.659643	-1.051611	0.365215
C201	C	1.659672	-1.103219	0.365238
C202	C	1.733647	-1.129021	0.291415
C203	C	1.807593	-1.103216	0.217568
C204	C	1.807567	-1.051605	0.217543
C205	C	1.733592	-1.025803	0.291366
H206	H	1.604931	-1.122324	0.419906
H207	H	1.733666	-1.167227	0.291434
H208	H	1.862353	-1.122316	0.162920
H209	H	1.862308	-1.032500	0.162875
H210	H	1.733573	-0.987597	0.291346
H211	H	0.929803	-0.265962	0.727955
C212	C	1.377273	-1.051638	0.647165
C213	C	1.303317	-1.025837	0.721002
C214	C	1.229380	-1.051644	0.794862
C215	C	1.229399	-1.103252	0.794886
C216	C	1.303358	-1.129056	0.721046
C217	C	1.377294	-1.103249	0.647186
H218	H	1.303300	-0.987631	0.720987
H219	H	1.174630	-1.032542	0.849523
H220	H	1.174666	-1.122356	0.849562
H221	H	1.303374	-1.167261	0.721061
H222	H	1.432044	-1.122350	0.592525
H223	H	1.707408	-0.688315	0.317186
H224	H	1.396425	-0.959822	0.627977
H225	H	1.329065	-0.744003	0.695059
C226	C	1.309819	-0.695058	0.714259
C227	C	1.227362	-0.727360	0.668692
C228	C	1.153423	-0.753160	0.742563
C229	C	1.161940	-0.746657	0.862002
C230	C	1.244400	-0.714354	0.907575
C231	C	1.318340	-0.688554	0.833703
H232	H	1.221054	-0.732175	0.580271
H233	H	1.092380	-0.777073	0.708826
H234	H	1.107206	-0.765756	0.916686
H235	H	1.250709	-0.709539	0.995996
H236	H	1.379382	-0.664641	0.867440
C237	C	1.309758	-0.596541	0.714228
C238	C	1.190332	-0.603051	0.705553
C239	C	1.116359	-0.577258	0.779397
C240	C	1.161812	-0.544956	0.861915
C241	C	1.281244	-0.538445	0.870593
C242	C	1.355217	-0.564238	0.796749
H243	H	1.156679	-0.626964	0.644466
H244	H	1.027947	-0.582078	0.772972
H245	H	1.107052	-0.525862	0.916578
H246	H	1.314897	-0.514532	0.931681
H247	H	1.443629	-0.559418	0.803174
H248	H	1.396072	-0.472543	0.627869
H249	H	1.396003	-0.387420	0.627834
