data_functionalizedCrystal
_audit_creation_method	'MofGen! by Chris Wilmer'
_symmetry_space_group_name_H-M	'P1'
_symmetry_Int_Tables_number	1
_symmetry_cell_setting	triclinic
loop_
_symmetry_equiv_pos_as_xyz
  x,y,z
_cell_length_a	14.971486
_cell_length_b	15.944551
_cell_length_c	14.048226
_cell_angle_alpha	89.992949
_cell_angle_beta	89.997982
_cell_angle_gamma	83.556434
loop_
_atom_site_label
_atom_site_type_symbol
_atom_site_fract_x
_atom_site_fract_y
_atom_site_fract_z
O1	O	1.186830	0.109463	-0.079053
O2	O	1.686830	0.609463	0.420947
O3	O	0.926415	0.122571	-0.079079
O4	O	1.426415	0.622571	0.420921
O5	O	1.063734	-0.006251	-0.079057
O6	O	1.563734	0.493749	0.420943
O7	O	1.049511	0.238285	-0.079076
O8	O	1.549511	0.738285	0.420924
O9	O	1.063716	-0.006258	0.079264
O10	O	1.563716	0.493742	0.579264
O11	O	0.926397	0.122565	0.079242
O12	O	1.426397	0.622565	0.579242
O13	O	1.186812	0.109456	0.079268
O14	O	1.686812	0.609456	0.579268
Zn15	Zn	1.056602	0.116009	0.104392
Zn16	Zn	1.556602	0.616009	0.604392
Zn17	Zn	1.056625	0.116018	-0.104203
Zn18	Zn	1.556625	0.616018	0.395797
O19	O	1.049493	0.238278	0.079246
O20	O	1.549493	0.738278	0.579246
C21	C	0.893082	0.121982	0.000078
C22	C	1.393082	0.621982	0.500078
C23	C	0.793787	0.120225	0.000068
C24	C	1.293787	0.620225	0.500068
C25	C	0.736480	0.195904	0.000064
C26	C	1.236480	0.695904	0.500064
C27	C	0.643182	0.194249	0.000078
C28	C	1.143182	0.694249	0.500078
C29	C	0.607194	0.116913	0.000090
C30	C	1.107194	0.616913	0.500090
C31	C	0.664508	0.041227	0.000097
C32	C	1.164508	0.541227	0.500097
C33	C	0.757804	0.042884	0.000090
C34	C	1.257804	0.542884	0.500090
C35	C	0.470049	0.037780	0.000111
C36	C	0.970049	0.537780	0.500111
C37	C	0.376747	0.036123	0.000116
C38	C	0.876747	0.536123	0.500116
C39	C	0.355428	0.189145	0.000099
C40	C	0.855428	0.689145	0.500099
C41	C	0.448724	0.190801	0.000092
C42	C	0.948724	0.690801	0.500092
C43	C	0.506032	0.115116	0.000097
C44	C	1.006032	0.615116	0.500097
C45	C	1.063134	-0.037549	0.000104
C46	C	1.563134	0.462451	0.500104
C47	C	1.061364	-0.130797	0.000104
C48	C	1.561364	0.369203	0.500104
C49	C	0.972017	-0.345738	0.000082
C50	C	1.472017	0.154262	0.500082
C51	C	1.013498	-0.406719	0.078148
C52	C	1.513498	0.093281	0.578148
C53	C	1.058162	-0.301526	0.000096
C54	C	1.558162	0.198474	0.500096
C55	C	1.013536	-0.406696	-0.077944
C56	C	1.513536	0.093304	0.422056
C57	C	1.055062	-0.466441	0.000085
C58	C	1.555062	0.033559	0.500085
C59	C	1.099667	-0.361278	0.078227
C60	C	1.599667	0.138722	0.578227
C61	C	1.099693	-0.361249	-0.077935
C62	C	1.599693	0.138751	0.422065
C63	C	1.141236	-0.422212	0.000150
C64	C	1.641236	0.077788	0.500150
C65	C	1.059945	-0.206522	0.000104
C66	C	1.559945	0.293478	0.500104
C67	C	1.053286	-0.561444	0.000084
C68	C	1.553286	-0.061444	0.500084
C69	C	1.220145	0.110046	0.000109
C70	C	1.720145	0.610046	0.500109
C71	C	1.319440	0.111802	0.000112
C72	C	1.819440	0.611802	0.500112
C73	C	1.050093	0.269576	0.000083
C74	C	1.550093	0.769576	0.500083
C75	C	1.051863	0.362824	0.000076
C76	C	1.551863	0.862824	0.500076
N77	N	1.056592	0.116003	0.246753
N78	N	1.556592	0.616003	0.746753
C79	C	1.117415	0.058984	0.296581
C80	C	1.617415	0.558984	0.796581
C81	C	1.117420	0.058984	0.396238
C82	C	1.617420	0.558984	0.896238
C83	C	1.056606	0.116008	0.446066
C84	C	1.556606	0.616008	0.946066
C85	C	0.995776	0.173029	0.396231
C86	C	1.495776	0.673029	0.896231
C87	C	0.995767	0.173024	0.296575
C88	C	1.495767	0.673024	0.796575
C89	C	0.995800	0.173036	0.603945
C90	C	1.495800	0.673036	1.103945
C91	C	0.995810	0.173043	0.703608
C92	C	1.495810	0.673043	1.203608
C93	C	1.117453	0.058997	0.703608
C94	C	1.617453	0.558997	1.203608
C95	C	1.117444	0.058992	0.603952
C96	C	1.617444	0.558992	1.103952
C97	C	1.056615	0.116014	0.554124
C98	C	1.556615	0.616014	1.054124
N99	N	1.056633	0.116024	0.753436
N100	N	1.556633	0.616024	1.253436
H101	H	0.765774	0.258881	0.000053
H102	H	1.265774	0.758881	0.500053
H103	H	1.136105	-0.341081	-0.143930
H104	H	1.636105	0.158919	0.356070
C105	C	1.148835	-0.334232	0.167490
C106	C	1.648835	0.165768	0.667490
N107	N	1.185865	-0.313857	0.234723
N108	N	1.685865	0.186143	0.734723
C109	C	0.580148	0.277503	0.000090
C110	C	1.080148	0.777503	0.500090
N111	N	0.532671	0.340213	0.000107
N112	N	1.032671	0.840213	0.500107
H113	H	0.804463	-0.018742	0.000093
H114	H	1.304463	0.481258	0.500093
C115	C	1.237917	-0.466925	0.000221
C116	C	1.737917	0.033075	0.500221
N117	N	1.310735	-0.500605	0.000281
N118	N	1.810735	-0.000605	0.500281
H119	H	0.946264	0.219468	0.563379
H120	H	1.446264	0.719468	1.063379
H121	H	0.946255	0.219456	0.436807
H122	H	1.446255	0.719456	0.936807
H123	H	0.478022	0.253775	0.000073
H124	H	0.978022	0.753775	0.500073
H125	H	0.308763	0.250771	0.000099
H126	H	0.808763	0.750771	0.500099
C127	C	0.964304	-0.433874	-0.167104
C128	C	1.464304	0.066126	0.332896
N129	N	0.927217	-0.454341	-0.234255
N130	N	1.427217	0.045659	0.265745
C131	C	1.184317	-0.003748	0.241779
C132	C	1.684317	0.496252	0.741779
N133	N	1.234706	-0.051002	0.200505
N134	N	1.734706	0.448998	0.700505
H135	H	0.347448	-0.026851	0.000127
H136	H	0.847448	0.473149	0.500127
H137	H	0.516708	-0.023852	0.000117
H138	H	1.016708	0.476148	0.500117
C139	C	1.184310	-0.003761	0.451044
C140	C	1.684310	0.496239	0.951044
N141	N	1.234685	-0.051031	0.492324
N142	N	1.734685	0.448969	0.992324
H143	H	0.635199	-0.021741	0.000121
H144	H	1.135199	0.478259	0.500121
H145	H	1.166968	0.012563	0.563383
H146	H	1.666968	0.512563	1.063383
C147	C	1.184362	-0.003732	0.758421
C148	C	1.684362	0.496268	1.258421
N149	N	1.234758	-0.050976	0.799710
N150	N	1.734758	0.449024	1.299710
H151	H	0.946287	0.219476	0.744173
H152	H	1.446287	0.719476	1.244173
C153	C	0.875421	-0.300826	0.000179
C154	C	1.375421	0.199174	0.500179
N155	N	0.802668	-0.266995	0.000258
N156	N	1.302668	0.233005	0.500258
C157	C	0.928864	0.235756	0.241765
C158	C	1.428864	0.735756	0.741765
N159	N	0.878471	0.283008	0.200483
N160	N	1.378471	0.783008	0.700483
C161	C	0.964264	-0.433940	0.167297
C162	C	1.464264	0.066060	0.667297
N163	N	0.927175	-0.454440	0.234441
N164	N	1.427175	0.045560	0.734441
