data_functionalizedCrystal
_audit_creation_method	'MofGen! by Chris Wilmer'
_symmetry_space_group_name_H-M	'P1'
_symmetry_Int_Tables_number	1
_symmetry_cell_setting	triclinic
loop_
_symmetry_equiv_pos_as_xyz
  x,y,z
_cell_length_a	27.731994
_cell_length_b	27.732048
_cell_length_c	26.210047
_cell_angle_alpha	89.999521
_cell_angle_beta	89.997128
_cell_angle_gamma	82.631595
loop_
_atom_site_label
_atom_site_type_symbol
_atom_site_fract_x
_atom_site_fract_y
_atom_site_fract_z
O1	O	0.640948	0.057385	-0.042362
O2	O	0.890948	0.307385	0.207638
O3	O	1.140948	0.557385	0.457638
O4	O	1.390948	0.807385	0.707638
O5	O	0.500151	0.066158	-0.042379
O6	O	0.750151	0.316158	0.207621
O7	O	1.000151	0.566158	0.457621
O8	O	1.250151	0.816158	0.707621
O9	O	0.574923	-0.008626	-0.042360
O10	O	0.824923	0.241374	0.207640
O11	O	1.074923	0.491374	0.457640
O12	O	1.324923	0.741374	0.707640
O13	O	0.566177	0.132169	-0.042381
O14	O	0.816177	0.382169	0.207619
O15	O	1.066177	0.632169	0.457619
O16	O	1.316177	0.882169	0.707619
O17	O	0.574908	-0.008614	0.042498
O18	O	0.824908	0.241386	0.292498
O19	O	1.074908	0.491386	0.542498
O20	O	1.324908	0.741386	0.792498
O21	O	0.500137	0.066170	0.042479
O22	O	0.750137	0.316170	0.292479
O23	O	1.000137	0.566170	0.542479
O24	O	1.250137	0.816170	0.792479
O25	O	0.640934	0.057397	0.042496
O26	O	0.890934	0.307397	0.292496
O27	O	1.140934	0.557397	0.542496
O28	O	1.390934	0.807397	0.792496
Cu29	Cu	0.570534	0.061784	0.050236
Cu30	Cu	0.820534	0.311784	0.300236
Cu31	Cu	1.070534	0.561784	0.550236
Cu32	Cu	1.320534	0.811784	0.800236
Cu33	Cu	0.570551	0.061771	-0.050119
Cu34	Cu	0.820551	0.311771	0.199881
Cu35	Cu	1.070551	0.561771	0.449881
Cu36	Cu	1.320551	0.811771	0.699881
O37	O	0.566162	0.132181	0.042477
O38	O	0.816162	0.382181	0.292477
O39	O	1.066162	0.632181	0.542477
O40	O	1.316162	0.882181	0.792477
C41	C	0.482137	0.065984	0.000047
C42	C	0.732137	0.315984	0.250047
C43	C	0.982137	0.565984	0.500047
C44	C	1.232137	0.815984	0.750047
C45	C	0.428480	0.065442	0.000041
C46	C	0.678480	0.315442	0.250041
C47	C	0.928480	0.565442	0.500041
C48	C	1.178480	0.815442	0.750041
C49	C	0.095754	0.062032	0.046317
C50	C	0.345754	0.312032	0.296317
C51	C	0.595754	0.562032	0.546317
C52	C	0.845754	0.812032	0.796317
C53	C	-0.105904	0.059971	0.046324
C54	C	0.144096	0.309971	0.296324
C55	C	0.394096	0.559971	0.546324
C56	C	0.644096	0.809971	0.796324
O57	O	-0.131984	0.059689	0.085663
O58	O	0.118016	0.309689	0.335663
O59	O	0.368016	0.559689	0.585663
O60	O	0.618016	0.809689	0.835663
N61	N	-0.131111	0.059708	0.000067
N62	N	0.118889	0.309708	0.250067
N63	N	0.368889	0.559708	0.500067
N64	N	0.618889	0.809708	0.750067
C65	C	-0.105900	0.059958	-0.046193
C66	C	0.144100	0.309958	0.203807
C67	C	0.394100	0.559958	0.453807
C68	C	0.644100	0.809958	0.703807
O69	O	-0.131967	0.059683	-0.085537
O70	O	0.118033	0.309683	0.164463
O71	O	0.368033	0.559683	0.414463
O72	O	0.618033	0.809683	0.664463
C73	C	0.095758	0.062016	-0.046199
C74	C	0.345758	0.312016	0.203801
C75	C	0.595758	0.562016	0.453801
C76	C	0.845758	0.812016	0.703801
C77	C	0.120961	0.062283	0.000060
C78	C	0.370961	0.312283	0.250060
C79	C	0.620961	0.562283	0.500060
C80	C	0.870961	0.812283	0.750060
C81	C	0.120958	0.062299	0.092573
C82	C	0.370958	0.312299	0.342573
C83	C	0.620958	0.562299	0.592573
C84	C	0.870958	0.812299	0.842573
C85	C	0.171369	0.062817	0.092571
C86	C	0.421369	0.312817	0.342571
C87	C	0.671369	0.562817	0.592571
C88	C	0.921369	0.812817	0.842571
C89	C	0.196576	0.063068	0.046313
C90	C	0.446576	0.313068	0.296313
C91	C	0.696576	0.563068	0.546313
C92	C	0.946576	0.813068	0.796313
C93	C	0.171372	0.062802	0.000058
C94	C	0.421372	0.312802	0.250058
C95	C	0.671372	0.562802	0.500058
C96	C	0.921372	0.812802	0.750058
C97	C	0.120968	0.062263	-0.092459
C98	C	0.370968	0.312263	0.157541
C99	C	0.620968	0.562263	0.407541
C100	C	0.870968	0.812263	0.657541
C101	C	0.171386	0.062776	-0.092457
C102	C	0.421386	0.312776	0.157543
C103	C	0.671386	0.562776	0.407543
C104	C	0.921386	0.812776	0.657543
C105	C	0.196590	0.063043	-0.046197
C106	C	0.446590	0.313043	0.203803
C107	C	0.696590	0.563043	0.453803
C108	C	0.946590	0.813043	0.703803
C109	C	0.246991	0.063571	-0.046201
C110	C	0.496991	0.313571	0.203799
C111	C	0.746991	0.563571	0.453799
C112	C	0.996991	0.813571	0.703799
N113	N	0.272198	0.063833	0.000055
N114	N	0.522198	0.313833	0.250055
N115	N	0.772198	0.563833	0.500055
N116	N	1.022198	0.813833	0.750055
C117	C	0.246991	0.063582	0.046312
C118	C	0.496991	0.313582	0.296312
C119	C	0.746991	0.563582	0.546312
C120	C	0.996991	0.813582	0.796312
C121	C	-0.211773	0.058878	-0.046187
C122	C	0.038227	0.308878	0.203813
C123	C	0.288227	0.558878	0.453813
C124	C	0.538227	0.808878	0.703813
C125	C	-0.262188	0.058365	-0.046186
C126	C	-0.012188	0.308365	0.203814
C127	C	0.237812	0.558365	0.453814
C128	C	0.487812	0.808365	0.703814
C129	C	-0.262188	0.058376	0.046331
C130	C	-0.012188	0.308376	0.296331
C131	C	0.237812	0.558376	0.546331
C132	C	0.487812	0.808376	0.796331
C133	C	-0.211774	0.058894	0.046329
C134	C	0.038226	0.308894	0.296329
C135	C	0.288226	0.558894	0.546329
C136	C	0.538226	0.808894	0.796329
C137	C	-0.186566	0.059141	0.000069
C138	C	0.063434	0.309141	0.250069
C139	C	0.313434	0.559141	0.500069
C140	C	0.563434	0.809141	0.750069
C141	C	0.352858	0.064670	0.046305
C142	C	0.602858	0.314670	0.296305
C143	C	0.852858	0.564670	0.546305
C144	C	1.102858	0.814670	0.796305
C145	C	0.403273	0.065190	0.046298
C146	C	0.653273	0.315190	0.296298
C147	C	0.903273	0.565190	0.546298
C148	C	1.153273	0.815190	0.796298
C149	C	0.403269	0.065176	-0.046218
C150	C	0.653269	0.315176	0.203782
C151	C	0.903269	0.565176	0.453782
C152	C	1.153269	0.815176	0.703782
C153	C	0.352858	0.064659	-0.046213
C154	C	0.602858	0.314659	0.203787
C155	C	0.852858	0.564659	0.453787
C156	C	1.102858	0.814659	0.703787
C157	C	0.327654	0.064404	0.000053
C158	C	0.577654	0.314404	0.250053
C159	C	0.827654	0.564404	0.500053
C160	C	1.077654	0.814404	0.750053
O161	O	0.273102	0.063848	-0.085520
O162	O	0.523102	0.313848	0.164480
O163	O	0.773102	0.563848	0.414480
O164	O	1.023102	0.813848	0.664480
O165	O	0.273067	0.063847	0.085650
O166	O	0.523067	0.313847	0.335650
O167	O	0.773067	0.563847	0.585650
O168	O	1.023067	0.813847	0.835650
C169	C	0.045343	0.061514	0.046319
C170	C	0.295343	0.311514	0.296319
C171	C	0.545343	0.561514	0.546319
C172	C	0.795343	0.811514	0.796319
C173	C	0.020139	0.061247	0.000064
C174	C	0.270139	0.311247	0.250064
C175	C	0.520139	0.561247	0.500064
C176	C	0.770139	0.811247	0.750064
C177	C	0.045346	0.061499	-0.046193
C178	C	0.295346	0.311499	0.203807
C179	C	0.545346	0.561499	0.453807
C180	C	0.795346	0.811499	0.703807
C181	C	-0.030275	0.060734	0.000065
C182	C	0.219725	0.310734	0.250065
C183	C	0.469725	0.560734	0.500065
C184	C	0.719725	0.810734	0.750065
C185	C	-0.055483	0.060482	0.046323
C186	C	0.194517	0.310482	0.296323
C187	C	0.444517	0.560482	0.546323
C188	C	0.694517	0.810482	0.796323
C189	C	-0.030276	0.060745	0.092579
C190	C	0.219724	0.310745	0.342579
C191	C	0.469724	0.560745	0.592579
C192	C	0.719724	0.810745	0.842579
C193	C	0.020135	0.061263	0.092577
C194	C	0.270135	0.311263	0.342577
C195	C	0.520135	0.561263	0.592577
C196	C	0.770135	0.811263	0.842577
C197	C	0.020139	0.061236	-0.092449
C198	C	0.270139	0.311236	0.157551
C199	C	0.520139	0.561236	0.407551
C200	C	0.770139	0.811236	0.657551
C201	C	-0.030272	0.060719	-0.092443
C202	C	0.219728	0.310719	0.157557
C203	C	0.469728	0.560719	0.407557
C204	C	0.719728	0.810719	0.657557
C205	C	-0.055479	0.060468	-0.046186
C206	C	0.194521	0.310468	0.203814
C207	C	0.444521	0.560468	0.453814
C208	C	0.694521	0.810468	0.703814
C209	C	0.574732	-0.026627	0.000070
C210	C	0.824732	0.223373	0.250070
C211	C	1.074732	0.473373	0.500070
C212	C	1.324732	0.723373	0.750070
C213	C	0.574179	-0.080282	0.000074
C214	C	0.824179	0.169718	0.250074
C215	C	1.074179	0.419718	0.500074
C216	C	1.324179	0.669718	0.750074
C217	C	0.614884	-0.419105	0.000053
C218	C	0.864884	-0.169105	0.250053
C219	C	1.114884	0.080895	0.500053
C220	C	1.364884	0.330895	0.750053
C221	C	0.612833	-0.620764	0.000046
C222	C	0.862833	-0.370764	0.250046
C223	C	1.112833	-0.120764	0.500046
C224	C	1.362833	0.129236	0.750046
O225	O	0.650055	-0.652027	0.000028
O226	O	0.900055	-0.402027	0.250028
O227	O	1.150055	-0.152027	0.500028
O228	O	1.400055	0.097973	0.750028
N229	N	0.568496	-0.639879	0.000041
N230	N	0.818496	-0.389879	0.250041
N231	N	1.068496	-0.139879	0.500041
N232	N	1.318496	0.110121	0.750041
C233	C	0.524670	-0.608576	0.000034
C234	C	0.774670	-0.358576	0.250034
C235	C	1.024670	-0.108576	0.500034
C236	C	1.274670	0.141424	0.750034
O237	O	0.486912	-0.629462	0.000024
O238	O	0.736912	-0.379462	0.250024
O239	O	0.986912	-0.129462	0.500024
O240	O	1.236912	0.120538	0.750024
C241	C	0.526721	-0.406918	0.000038
C242	C	0.776721	-0.156918	0.250038
C243	C	1.026721	0.093082	0.500038
C244	C	1.276721	0.343082	0.750038
C245	C	0.571061	-0.387805	0.000048
C246	C	0.821061	-0.137805	0.250048
C247	C	1.071061	0.112195	0.500048
C248	C	1.321061	0.362195	0.750048
C249	C	0.659220	-0.399992	0.000063
C250	C	0.909220	-0.149992	0.250063
C251	C	1.159220	0.100008	0.500063
C252	C	1.409220	0.350008	0.750063
C253	C	0.659732	-0.349580	0.000068
C254	C	0.909732	-0.099580	0.250068
C255	C	1.159732	0.150420	0.500068
C256	C	1.409732	0.400420	0.750068
C257	C	0.615908	-0.318281	0.000062
C258	C	0.865908	-0.068281	0.250062
C259	C	1.115908	0.181719	0.500062
C260	C	1.365908	0.431719	0.750062
C261	C	0.571573	-0.337394	0.000053
C262	C	0.821573	-0.087394	0.250053
C263	C	1.071573	0.162606	0.500053
C264	C	1.321573	0.412606	0.750053
C265	C	0.482895	-0.375615	0.000028
C266	C	0.732895	-0.125615	0.250028
C267	C	0.982895	0.124385	0.500028
C268	C	1.232895	0.374385	0.750028
C269	C	0.483412	-0.325198	0.000027
C270	C	0.733412	-0.075198	0.250027
C271	C	0.983412	0.174802	0.500027
C272	C	1.233412	0.424802	0.750027
C273	C	0.527751	-0.306086	0.000037
C274	C	0.777751	-0.056086	0.250037
C275	C	1.027751	0.193914	0.500037
C276	C	1.277751	0.443914	0.750037
C277	C	0.528262	-0.255683	0.000052
C278	C	0.778262	-0.005683	0.250052
C279	C	1.028262	0.244317	0.500052
C280	C	1.278262	0.494317	0.750052
N281	N	0.572598	-0.236567	0.000057
N282	N	0.822598	0.013433	0.250057
N283	N	1.072598	0.263433	0.500057
N284	N	1.322598	0.513433	0.750057
C285	C	0.616421	-0.267867	0.000062
C286	C	0.866421	-0.017867	0.250062
C287	C	1.116421	0.232133	0.500062
C288	C	1.366421	0.482133	0.750062
C289	C	0.523596	-0.714450	0.000033
C290	C	0.773596	-0.464450	0.250033
C291	C	1.023596	-0.214450	0.500033
C292	C	1.273596	0.035550	0.750033
C293	C	0.523083	-0.764864	0.000033
C294	C	0.773083	-0.514864	0.250033
C295	C	1.023083	-0.264864	0.500033
C296	C	1.273083	-0.014864	0.750033
C297	C	0.611246	-0.777049	0.000044
C298	C	0.861246	-0.527049	0.250044
C299	C	1.111246	-0.277049	0.500044
C300	C	1.361246	-0.027049	0.750044
C301	C	0.611759	-0.726633	0.000048
C302	C	0.861759	-0.476633	0.250048
C303	C	1.111759	-0.226633	0.500048
C304	C	1.361759	0.023367	0.750048
C305	C	0.567932	-0.695335	0.000038
C306	C	0.817932	-0.445335	0.250038
C307	C	1.067932	-0.195335	0.500038
C308	C	1.317932	0.054665	0.750038
C309	C	0.617494	-0.161998	0.000073
C310	C	0.867494	0.088002	0.250073
C311	C	1.117494	0.338002	0.500073
C312	C	1.367494	0.588002	0.750073
C313	C	0.618002	-0.111581	0.000079
C314	C	0.868002	0.138419	0.250079
C315	C	1.118002	0.388419	0.500079
C316	C	1.368002	0.638419	0.750079
C317	C	0.529839	-0.099401	0.000066
C318	C	0.779839	0.150599	0.250066
C319	C	1.029839	0.400599	0.500066
C320	C	1.279839	0.650599	0.750066
C321	C	0.529331	-0.149813	0.000062
C322	C	0.779331	0.100187	0.250062
C323	C	1.029331	0.350187	0.500062
C324	C	1.279331	0.600187	0.750062
C325	C	0.573162	-0.181111	0.000063
C326	C	0.823162	0.068889	0.250063
C327	C	1.073162	0.318889	0.500063
C328	C	1.323162	0.568889	0.750063
O329	O	0.491060	-0.224391	0.000064
O330	O	0.741060	0.025609	0.250064
O331	O	0.991060	0.275609	0.500064
O332	O	1.241060	0.525609	0.750064
O333	O	0.654174	-0.246971	0.000061
O334	O	0.904174	0.003029	0.250061
O335	O	1.154174	0.253029	0.500061
O336	O	1.404174	0.503029	0.750061
C337	C	0.614372	-0.469517	0.000049
C338	C	0.864372	-0.219517	0.250049
C339	C	1.114372	0.030483	0.500049
C340	C	1.364372	0.280483	0.750049
C341	C	0.570036	-0.488629	0.000039
C342	C	0.820036	-0.238629	0.250039
C343	C	1.070036	0.011371	0.500039
C344	C	1.320036	0.261371	0.750039
C345	C	0.526213	-0.457330	0.000034
C346	C	0.776213	-0.207330	0.250034
C347	C	1.026213	0.042670	0.500034
C348	C	1.276213	0.292670	0.750034
C349	C	0.569523	-0.539043	0.000039
C350	C	0.819523	-0.289043	0.250039
C351	C	1.069523	-0.039043	0.500039
C352	C	1.319523	0.210957	0.750039
C353	C	0.613346	-0.570343	0.000044
C354	C	0.863346	-0.320343	0.250044
C355	C	1.113346	-0.070343	0.500044
C356	C	1.363346	0.179657	0.750044
C357	C	0.657683	-0.551228	0.000049
C358	C	0.907683	-0.301228	0.250049
C359	C	1.157683	-0.051228	0.500049
C360	C	1.407683	0.198772	0.750049
C361	C	0.658195	-0.500816	0.000054
C362	C	0.908195	-0.250816	0.250054
C363	C	1.158195	-0.000816	0.500054
C364	C	1.408195	0.249184	0.750054
C365	C	0.481876	-0.476445	0.000029
C366	C	0.731876	-0.226445	0.250029
C367	C	0.981876	0.023555	0.500029
C368	C	1.231876	0.273555	0.750029
C369	C	0.481367	-0.526857	0.000025
C370	C	0.731367	-0.276857	0.250025
C371	C	0.981367	-0.026857	0.500025
C372	C	1.231367	0.223143	0.750025
C373	C	0.525191	-0.558157	0.000030
C374	C	0.775191	-0.308157	0.250030
C375	C	1.025191	-0.058157	0.500030
C376	C	1.275191	0.191843	0.750030
C377	C	0.658949	0.057571	0.000068
C378	C	0.908949	0.307571	0.250068
C379	C	1.158949	0.557571	0.500068
C380	C	1.408949	0.807571	0.750068
C381	C	0.712605	0.058114	0.000071
C382	C	0.962605	0.308114	0.250071
C383	C	1.212605	0.558114	0.500071
C384	C	1.462605	0.808114	0.750071
C385	C	0.566353	0.150182	0.000046
C386	C	0.816353	0.400182	0.250046
C387	C	1.066353	0.650182	0.500046
C388	C	1.316353	0.900182	0.750046
C389	C	0.566906	0.203837	0.000038
C390	C	0.816906	0.453837	0.250038
C391	C	1.066906	0.703837	0.500038
C392	C	1.316906	0.953837	0.750038
N393	N	0.570526	0.061794	0.120820
N394	N	0.820526	0.311794	0.370820
N395	N	1.070526	0.561794	0.620820
N396	N	1.320526	0.811794	0.870820
N397	N	0.570563	0.061757	-0.120703
N398	N	0.820563	0.311757	0.129297
N399	N	1.070563	0.561757	0.379297
N400	N	1.320563	0.811757	0.629297
C401	C	0.603656	0.028664	0.473342
C402	C	0.853656	0.278664	0.723342
C403	C	1.103656	0.528664	0.973342
C404	C	1.353656	0.778664	1.223342
C405	C	0.603667	0.028657	0.687001
C406	C	0.853667	0.278657	0.937001
C407	C	1.103667	0.528657	1.187001
C408	C	1.353667	0.778657	1.437001
O409	O	0.631818	0.000491	0.714630
O410	O	0.881818	0.250491	0.964630
O411	O	1.131818	0.500491	1.214630
O412	O	1.381818	0.750491	1.464630
N413	N	0.570554	0.061760	0.713714
N414	N	0.820554	0.311760	0.963714
N415	N	1.070554	0.561760	1.213714
N416	N	1.320554	0.811760	1.463714
C417	C	0.537433	0.094865	0.687008
C418	C	0.787433	0.344865	0.937008
C419	C	1.037433	0.594865	1.187008
C420	C	1.287433	0.844865	1.437008
O421	O	0.509265	0.123018	0.714632
O422	O	0.759265	0.373018	0.964632
O423	O	1.009265	0.623018	1.214632
O424	O	1.259265	0.873018	1.464632
C425	C	0.537421	0.094869	0.473351
C426	C	0.787421	0.344869	0.723351
C427	C	1.037421	0.594869	0.973351
C428	C	1.287421	0.844869	1.223351
C429	C	0.570539	0.061767	0.446641
C430	C	0.820539	0.311767	0.696641
C431	C	1.070539	0.561767	0.946641
C432	C	1.320539	0.811767	1.196641
C433	C	0.636772	-0.004436	0.446632
C434	C	0.886772	0.245564	0.696632
C435	C	1.136772	0.495564	0.946632
C436	C	1.386772	0.745564	1.196632
C437	C	0.636771	-0.004432	0.393221
C438	C	0.886771	0.245568	0.643221
C439	C	1.136771	0.495568	0.893221
C440	C	1.386771	0.745568	1.143221
C441	C	0.603654	0.028671	0.366519
C442	C	0.853654	0.278671	0.616519
C443	C	1.103654	0.528671	0.866519
C444	C	1.353654	0.778671	1.116519
C445	C	0.570538	0.061771	0.393229
C446	C	0.820538	0.311771	0.643229
C447	C	1.070538	0.561771	0.893229
C448	C	1.320538	0.811771	1.143229
C449	C	0.504298	0.127971	0.446647
C450	C	0.754298	0.377971	0.696647
C451	C	1.004298	0.627971	0.946647
C452	C	1.254298	0.877971	1.196647
C453	C	0.504297	0.127969	0.393229
C454	C	0.754297	0.377969	0.643229
C455	C	1.004297	0.627969	0.893229
C456	C	1.254297	0.877969	1.143229
C457	C	0.537416	0.094867	0.366519
C458	C	0.787416	0.344867	0.616519
C459	C	1.037416	0.594867	0.866519
C460	C	1.287416	0.844867	1.116519
C461	C	0.537420	0.094878	0.313117
C462	C	0.787420	0.344878	0.563117
C463	C	1.037420	0.594878	0.813117
C464	C	1.287420	0.844878	1.063117
N465	N	0.570533	0.061775	0.286404
N466	N	0.820533	0.311775	0.536404
N467	N	1.070533	0.561775	0.786404
N468	N	1.320533	0.811775	1.036404
C469	C	0.603650	0.028672	0.313105
C470	C	0.853650	0.278672	0.563105
C471	C	1.103650	0.528672	0.813105
C472	C	1.353650	0.778672	1.063105
C473	C	0.537443	0.094861	0.799182
C474	C	0.787443	0.344861	1.049182
C475	C	1.037443	0.594861	1.299182
C476	C	1.287443	0.844861	1.549182
C477	C	0.537446	0.094861	0.852596
C478	C	0.787446	0.344861	1.102596
C479	C	1.037446	0.594861	1.352596
C480	C	1.287446	0.844861	1.602596
C481	C	0.603680	0.028652	0.852585
C482	C	0.853680	0.278652	1.102585
C483	C	1.103680	0.528652	1.352585
C484	C	1.353680	0.778652	1.602585
C485	C	0.603678	0.028655	0.799169
C486	C	0.853678	0.278655	1.049169
C487	C	1.103678	0.528655	1.299169
C488	C	1.353678	0.778655	1.549169
C489	C	0.570556	0.061758	0.772469
C490	C	0.820556	0.311758	1.022469
C491	C	1.070556	0.561758	1.272469
C492	C	1.320556	0.811758	1.522469
C493	C	0.603645	0.028682	0.200937
C494	C	0.853645	0.278682	0.450937
C495	C	1.103645	0.528682	0.700937
C496	C	1.353645	0.778682	0.950937
C497	C	0.603643	0.028690	0.147521
C498	C	0.853643	0.278690	0.397521
C499	C	1.103643	0.528690	0.647521
C500	C	1.353643	0.778690	0.897521
C501	C	0.537408	0.094897	0.147537
C502	C	0.787408	0.344897	0.397537
C503	C	1.037408	0.594897	0.647537
C504	C	1.287408	0.844897	0.897537
C505	C	0.537412	0.094891	0.200949
C506	C	0.787412	0.344891	0.450949
C507	C	1.037412	0.594891	0.700949
C508	C	1.287412	0.844891	0.950949
C509	C	0.570533	0.061780	0.227647
C510	C	0.820533	0.311780	0.477647
C511	C	1.070533	0.561780	0.727647
C512	C	1.320533	0.811780	0.977647
O513	O	0.509281	0.123026	0.285454
O514	O	0.759281	0.373026	0.535454
O515	O	1.009281	0.623026	0.785454
O516	O	1.259281	0.873026	1.035454
O517	O	0.631807	0.000516	0.285473
O518	O	0.881807	0.250516	0.535473
O519	O	1.131807	0.500516	0.785473
O520	O	1.381807	0.750516	1.035473
C521	C	0.603658	0.028660	0.526754
C522	C	0.853658	0.278660	0.776754
C523	C	1.103658	0.528660	1.026754
C524	C	1.353658	0.778660	1.276754
C525	C	0.570542	0.061760	0.553464
C526	C	0.820542	0.311760	0.803464
C527	C	1.070542	0.561760	1.053464
C528	C	1.320542	0.811760	1.303464
C529	C	0.537425	0.094863	0.526762
C530	C	0.787425	0.344863	0.776762
C531	C	1.037425	0.594863	1.026762
C532	C	1.287425	0.844863	1.276762
C533	C	0.570546	0.061759	0.606878
C534	C	0.820546	0.311759	0.856878
C535	C	1.070546	0.561759	1.106878
C536	C	1.320546	0.811759	1.356878
C537	C	0.603663	0.028656	0.633579
C538	C	0.853663	0.278656	0.883579
C539	C	1.103663	0.528656	1.133579
C540	C	1.353663	0.778656	1.383579
C541	C	0.636776	-0.004447	0.606866
C542	C	0.886776	0.245553	0.856866
C543	C	1.136776	0.495553	1.106866
C544	C	1.386776	0.745553	1.356866
C545	C	0.636775	-0.004443	0.553455
C546	C	0.886775	0.245557	0.803455
C547	C	1.136775	0.495557	1.053455
C548	C	1.386775	0.745557	1.303455
C549	C	0.504311	0.127966	0.553475
C550	C	0.754311	0.377966	0.803475
C551	C	1.004311	0.627966	1.053475
C552	C	1.254311	0.877966	1.303475
C553	C	0.504316	0.127960	0.606887
C554	C	0.754316	0.377960	0.856887
C555	C	1.004316	0.627960	1.106887
C556	C	1.254316	0.877960	1.356887
C557	C	0.537433	0.094857	0.633588
C558	C	0.787433	0.344857	0.883588
C559	C	1.037433	0.594857	1.133588
C560	C	1.287433	0.844857	1.383588
H561	H	0.332341	0.064467	0.083978
H562	H	0.582341	0.314467	0.333978
H563	H	0.832341	0.564467	0.583978
H564	H	1.082341	0.814467	0.833978
N565	N	0.501691	0.130597	0.229754
N566	N	0.751691	0.380597	0.479754
N567	N	1.001691	0.630597	0.729754
N568	N	1.251691	0.880597	0.979754
H569	H	0.480427	0.112275	0.251914
H570	H	0.730427	0.362275	0.501914
H571	H	0.980427	0.612275	0.751914
H572	H	1.230427	0.862275	1.001914
H573	H	0.520033	0.151862	0.251889
H574	H	0.770033	0.401862	0.501889
H575	H	1.020033	0.651862	0.751889
H576	H	1.270033	0.901862	1.001889
N577	N	0.198571	0.063047	-0.142354
N578	N	0.448571	0.313047	0.107646
N579	N	0.698571	0.563047	0.357646
N580	N	0.948571	0.813047	0.607646
H581	H	0.234333	0.063415	-0.135340
H582	H	0.484333	0.313415	0.114660
H583	H	0.734333	0.563415	0.364660
H584	H	0.984333	0.813415	0.614660
H585	H	0.193905	0.032976	-0.162547
H586	H	0.443905	0.282976	0.087453
H587	H	0.693905	0.532976	0.337453
H588	H	0.943905	0.782976	0.587453
H589	H	0.191886	0.063032	0.130240
H590	H	0.441886	0.313032	0.380240
H591	H	0.691886	0.563032	0.630240
H592	H	0.941886	0.813032	0.880240
H593	H	0.446189	-0.450966	0.000023
H594	H	0.696189	-0.200966	0.250023
H595	H	0.946189	0.049034	0.500023
H596	H	1.196189	0.299034	0.750023
N597	N	0.093796	0.061968	-0.142355
N598	N	0.343796	0.311968	0.107645
N599	N	0.593796	0.561968	0.357645
N600	N	0.843796	0.811968	0.607645
H601	H	0.077027	0.031775	-0.144410
H602	H	0.327027	0.281775	0.105590
H603	H	0.577027	0.531775	0.355590
H604	H	0.827027	0.781775	0.605590
H605	H	0.068757	0.091749	-0.144402
H606	H	0.318757	0.341749	0.105598
H607	H	0.568757	0.591749	0.355598
H608	H	0.818757	0.841749	0.605598
H609	H	-0.282721	0.058173	0.083996
H610	H	-0.032721	0.308173	0.333996
H611	H	0.217279	0.558173	0.583996
H612	H	0.467279	0.808173	0.833996
H613	H	0.332335	0.064449	-0.083880
H614	H	0.582335	0.314449	0.166120
H615	H	0.832335	0.564449	0.416120
H616	H	1.082335	0.814449	0.666120
H617	H	0.510483	0.121820	0.874340
H618	H	0.760483	0.371820	1.124340
H619	H	1.010483	0.621820	1.374340
H620	H	1.260483	0.871820	1.624340
H621	H	-0.191254	0.059079	-0.083860
H622	H	0.058746	0.309079	0.166140
H623	H	0.308746	0.559079	0.416140
H624	H	0.558746	0.809079	0.666140
H625	H	0.663740	-0.031395	0.468368
H626	H	0.913740	0.218605	0.718368
H627	H	1.163740	0.468605	0.968368
H628	H	1.413740	0.718605	1.218368
N629	N	0.639403	-0.007050	0.881389
N630	N	0.889403	0.242950	1.131389
N631	N	1.139403	0.492950	1.381389
N632	N	1.389403	0.742950	1.631389
H633	H	0.634095	-0.041320	0.872097
H634	H	0.884095	0.208680	1.122097
H635	H	1.134095	0.458680	1.372097
H636	H	1.384095	0.708680	1.622097
H637	H	0.673651	-0.001682	0.872076
H638	H	0.923651	0.248318	1.122076
H639	H	1.173651	0.498318	1.372076
H640	H	1.423651	0.748318	1.622076
N641	N	0.430462	0.065447	-0.096108
N642	N	0.680462	0.315447	0.153892
N643	N	0.930462	0.565447	0.403892
N644	N	1.180462	0.815447	0.653892
H645	H	0.466223	0.065813	-0.089086
H646	H	0.716223	0.315813	0.160914
H647	H	0.966223	0.565813	0.410914
H648	H	1.216223	0.815813	0.660914
H649	H	0.425798	0.035374	-0.116300
H650	H	0.675798	0.285374	0.133700
H651	H	0.925798	0.535374	0.383700
H652	H	1.175798	0.785374	0.633700
N653	N	0.704947	-0.584995	0.000053
N654	N	0.954947	-0.334995	0.250053
N655	N	1.204947	-0.084995	0.500053
N656	N	1.454947	0.165005	0.750053
H657	H	0.724314	-0.578887	-0.031401
H658	H	0.974314	-0.328887	0.218599
H659	H	1.224314	-0.078887	0.468599
H660	H	1.474314	0.171113	0.718599
H661	H	0.724267	-0.578876	0.031533
H662	H	0.974267	-0.328876	0.281533
H663	H	1.224267	-0.078876	0.531533
H664	H	1.474267	0.171124	0.781533
N665	N	-0.289370	0.058084	-0.096079
N666	N	-0.039370	0.308084	0.153921
N667	N	0.210630	0.558084	0.403921
N668	N	0.460630	0.808084	0.653921
H669	H	-0.265747	0.058320	-0.125381
H670	H	-0.015747	0.308320	0.124619
H671	H	0.234253	0.558320	0.374619
H672	H	0.484253	0.808320	0.624619
H673	H	-0.306141	0.027892	-0.098090
H674	H	-0.056141	0.277892	0.151910
H675	H	0.193859	0.527892	0.401910
H676	H	0.443859	0.777892	0.651910
N677	N	0.047316	0.061553	0.142471
N678	N	0.297316	0.311553	0.392471
N679	N	0.547316	0.561553	0.642471
N680	N	0.797316	0.811553	0.892471
H681	H	0.023691	0.061315	0.171771
H682	H	0.273691	0.311315	0.421771
H683	H	0.523691	0.561315	0.671771
H684	H	0.773691	0.811315	0.921771
H685	H	0.072379	0.031790	0.144495
H686	H	0.322379	0.281790	0.394495
H687	H	0.572379	0.531790	0.644495
H688	H	0.822379	0.781790	0.894495
H689	H	0.100439	0.062093	0.130243
H690	H	0.350439	0.312093	0.380243
H691	H	0.600439	0.562093	0.630243
H692	H	0.850439	0.812093	0.880243
N693	N	0.501690	0.130601	0.118733
N694	N	0.751690	0.380601	0.368733
N695	N	1.001690	0.630601	0.618733
N696	N	1.251690	0.880601	0.868733
H697	H	0.506715	0.125575	0.080843
H698	H	0.756715	0.375575	0.330843
H699	H	1.006715	0.625575	0.580843
H700	H	1.256715	0.875575	0.830843
H701	H	0.467442	0.125254	0.128071
H702	H	0.717442	0.375254	0.378071
H703	H	0.967442	0.625254	0.628071
H704	H	1.217442	0.875254	0.878071
N705	N	-0.057470	0.060477	0.142471
N706	N	0.192530	0.310477	0.392471
N707	N	0.442530	0.560477	0.642471
N708	N	0.692530	0.810477	0.892471
H709	H	-0.093318	0.060783	0.135450
H710	H	0.156682	0.310783	0.385450
H711	H	0.406682	0.560783	0.635450
H712	H	0.656682	0.810783	0.885450
H713	H	-0.044973	0.030255	0.162368
H714	H	0.205027	0.280255	0.412368
H715	H	0.455027	0.530255	0.662368
H716	H	0.705027	0.780255	0.912368
H717	H	-0.050789	0.060505	-0.130116
H718	H	0.199211	0.310505	0.119884
H719	H	0.449211	0.560505	0.369884
H720	H	0.699211	0.810505	0.619884
H721	H	0.040658	0.061439	-0.130118
H722	H	0.290658	0.311439	0.119882
H723	H	0.540658	0.561439	0.369882
H724	H	0.790658	0.811439	0.619882
N725	N	-0.184591	0.059183	0.096222
N726	N	0.065409	0.309183	0.346222
N727	N	0.315409	0.559183	0.596222
N728	N	0.565409	0.809183	0.846222
H729	H	-0.208215	0.058947	0.125524
H730	H	0.041785	0.308947	0.375524
H731	H	0.291785	0.558947	0.625524
H732	H	0.541785	0.808947	0.875524
H733	H	-0.159530	0.029418	0.098245
H734	H	0.090470	0.279418	0.348245
H735	H	0.340470	0.529418	0.598245
H736	H	0.590470	0.779418	0.848245
N737	N	0.665827	-0.090967	0.000093
N738	N	0.915827	0.159033	0.250093
N739	N	1.165827	0.409033	0.500093
N740	N	1.415827	0.659033	0.750093
H741	H	0.693510	-0.118448	0.000094
H742	H	0.943510	0.131552	0.250094
H743	H	1.193510	0.381552	0.500094
H744	H	1.443510	0.631552	0.750094
H745	H	0.667968	-0.070313	-0.031362
H746	H	0.917968	0.179687	0.218638
H747	H	1.167968	0.429687	0.468638
H748	H	1.417968	0.679687	0.718638
N749	N	0.664768	-0.195750	0.000074
N750	N	0.914768	0.054250	0.250074
N751	N	1.164768	0.304250	0.500074
N752	N	1.414768	0.554250	0.750074
H753	H	0.692928	-0.175986	0.000082
H754	H	0.942928	0.074014	0.250082
H755	H	1.192928	0.324014	0.500082
H756	H	1.442928	0.574014	0.750082
H757	H	0.666471	-0.216934	0.031532
H758	H	0.916471	0.033066	0.281532
H759	H	1.166471	0.283066	0.531532
H760	H	1.416471	0.533066	0.781532
H761	H	0.477347	0.154920	0.628630
H762	H	0.727347	0.404920	0.878630
H763	H	0.977347	0.654920	1.128630
H764	H	1.227347	0.904920	1.378630
H765	H	0.510470	0.121819	0.777446
H766	H	0.760470	0.371819	1.027446
H767	H	1.010470	0.621819	1.277446
H768	H	1.260470	0.871819	1.527446
N769	N	0.707555	-0.328970	0.000077
N770	N	0.957555	-0.078970	0.250077
N771	N	1.207555	0.171030	0.500077
N772	N	1.457555	0.421030	0.750077
H773	H	0.735235	-0.356454	0.000078
H774	H	0.985235	-0.106454	0.250078
H775	H	1.235235	0.143546	0.500078
H776	H	1.485235	0.393546	0.750078
H777	H	0.709696	-0.308319	-0.031381
H778	H	0.959696	-0.058319	0.218619
H779	H	1.209696	0.191681	0.468619
H780	H	1.459696	0.441681	0.718619
H781	H	0.694908	-0.425472	0.000065
H782	H	0.944908	-0.175472	0.250065
H783	H	1.194908	0.074528	0.500065
H784	H	1.444908	0.324528	0.750065
H785	H	0.647863	-0.711076	0.000056
H786	H	0.897863	-0.461076	0.250056
H787	H	1.147863	-0.211076	0.500056
H788	H	1.397863	0.038924	0.750056
N789	N	0.658514	-0.810812	0.000051
N790	N	0.908514	-0.560812	0.250051
N791	N	1.158514	-0.310812	0.500051
N792	N	1.408514	-0.060812	0.750051
H793	H	0.651457	-0.845648	0.000049
H794	H	0.901457	-0.595648	0.250049
H795	H	1.151457	-0.345648	0.500049
H796	H	1.401457	-0.095648	0.750049
H797	H	0.677856	-0.804663	-0.031407
H798	H	0.927856	-0.554663	0.218593
H799	H	1.177856	-0.304663	0.468593
H800	H	1.427856	-0.054663	0.718593
N801	N	0.672496	-0.040146	0.524650
N802	N	0.922496	0.209854	0.774650
N803	N	1.172496	0.459854	1.024650
N804	N	1.422496	0.709854	1.274650
H805	H	0.693472	-0.061115	0.549677
H806	H	0.943472	0.188885	0.799677
H807	H	1.193472	0.438885	1.049677
H808	H	1.443472	0.688885	1.299677
H809	H	0.654153	-0.061388	0.502490
H810	H	0.904153	0.188612	0.752490
H811	H	1.154153	0.438612	1.002490
H812	H	1.404153	0.688612	1.252490
N813	N	0.706020	-0.480210	0.000061
N814	N	0.956020	-0.230210	0.250061
N815	N	1.206020	0.019790	0.500061
N816	N	1.456020	0.269790	0.750061
H817	H	0.708207	-0.459564	-0.031395
H818	H	0.958207	-0.209564	0.218605
H819	H	1.208207	0.040436	0.468605
H820	H	1.458207	0.290436	0.718605
H821	H	0.708169	-0.459591	0.031540
H822	H	0.958169	-0.209591	0.281540
H823	H	1.208169	0.040409	0.531540
H824	H	1.458169	0.290409	0.781540
N825	N	0.475260	-0.785475	0.000036
N826	N	0.725260	-0.535475	0.250036
N827	N	0.975260	-0.285475	0.500036
N828	N	1.225260	-0.035475	0.750036
H829	H	0.447579	-0.757993	0.000033
H830	H	0.697579	-0.507993	0.250033
H831	H	0.947579	-0.257993	0.500033
H832	H	1.197579	-0.007993	0.750033
H833	H	0.473128	-0.806128	-0.031421
H834	H	0.723128	-0.556128	0.218579
H835	H	0.973128	-0.306128	0.468579
H836	H	1.223128	-0.056128	0.718579
H837	H	0.487905	-0.688970	0.000026
H838	H	0.737905	-0.438970	0.250026
H839	H	0.987905	-0.188970	0.500026
H840	H	1.237905	0.061030	0.750026
N841	N	0.435071	-0.396221	0.000023
N842	N	0.685071	-0.146221	0.250023
N843	N	0.935071	0.103779	0.500023
N844	N	1.185071	0.353779	0.750023
H845	H	0.407392	-0.368737	0.000019
H846	H	0.657392	-0.118737	0.250019
H847	H	0.907392	0.131263	0.500019
H848	H	1.157392	0.381263	0.750019
H849	H	0.432939	-0.416872	-0.031435
H850	H	0.682939	-0.166872	0.218565
H851	H	0.932939	0.083128	0.468565
H852	H	1.182939	0.333128	0.718565
H853	H	0.477329	0.154926	0.468387
H854	H	0.727329	0.404926	0.718387
H855	H	0.977329	0.654926	0.968387
H856	H	1.227329	0.904926	1.218387
H857	H	0.630646	0.001700	0.777425
H858	H	0.880646	0.251700	1.027425
H859	H	1.130646	0.501700	1.277425
H860	H	1.380646	0.751700	1.527425
N861	N	0.436141	-0.291440	0.000015
N862	N	0.686141	-0.041440	0.250015
N863	N	0.936141	0.208560	0.500015
N864	N	1.186141	0.458560	0.750015
H865	H	0.407978	-0.311201	0.000008
H866	H	0.657978	-0.061201	0.250008
H867	H	0.907978	0.188799	0.500008
H868	H	1.157978	0.438799	0.750008
H869	H	0.434424	-0.270259	0.031474
H870	H	0.684424	-0.020259	0.281474
H871	H	0.934424	0.229741	0.531474
H872	H	1.184424	0.479741	0.781474
N873	N	0.481509	-0.170431	0.000058
N874	N	0.731509	0.079569	0.250058
N875	N	0.981509	0.329569	0.500058
N876	N	1.231509	0.579569	0.750058
H877	H	0.453826	-0.142951	0.000057
H878	H	0.703826	0.107049	0.250057
H879	H	0.953826	0.357049	0.500057
H880	H	1.203826	0.607049	0.750057
H881	H	0.479382	-0.191078	-0.031404
H882	H	0.729382	0.058922	0.218596
H883	H	0.979382	0.308922	0.468596
H884	H	1.229382	0.558922	0.718596
N885	N	0.482574	-0.065638	0.000074
N886	N	0.732574	0.184362	0.250074
N887	N	0.982574	0.434362	0.500074
N888	N	1.232574	0.684362	0.750074
H889	H	0.489631	-0.030802	0.000080
H890	H	0.739631	0.219198	0.250080
H891	H	0.989631	0.469198	0.500080
H892	H	1.239631	0.719198	0.750080
H893	H	0.463235	-0.071781	-0.031385
H894	H	0.713235	0.178219	0.218615
H895	H	0.963235	0.428219	0.468615
H896	H	1.213235	0.678219	0.718615
N897	N	0.433541	-0.547468	0.000022
N898	N	0.683541	-0.297468	0.250022
N899	N	0.933541	-0.047468	0.500022
N900	N	1.183541	0.202532	0.750022
H901	H	0.405860	-0.519986	0.000020
H902	H	0.655860	-0.269986	0.250020
H903	H	0.905860	-0.019986	0.500020
H904	H	1.155860	0.230014	0.750020
H905	H	0.431411	-0.568117	-0.031438
H906	H	0.681411	-0.318117	0.218562
H907	H	0.931411	-0.068117	0.468562
H908	H	1.181411	0.181883	0.718562
N909	N	0.672498	-0.040150	0.635671
N910	N	0.922498	0.209850	0.885671
N911	N	1.172498	0.459850	1.135671
N912	N	1.422498	0.709850	1.385671
H913	H	0.667470	-0.035125	0.673561
H914	H	0.917470	0.214875	0.923561
H915	H	1.167470	0.464875	1.173561
H916	H	1.417470	0.714875	1.423561
H917	H	0.667172	-0.074404	0.626336
H918	H	0.917172	0.175596	0.876336
H919	H	1.167172	0.425596	1.126336
H920	H	1.417172	0.675596	1.376336
N921	N	0.639366	-0.007012	0.118712
N922	N	0.889366	0.242988	0.368712
N923	N	1.139366	0.492988	0.618712
N924	N	1.389366	0.742988	0.868712
H925	H	0.660344	-0.027984	0.143736
H926	H	0.910344	0.222016	0.393736
H927	H	1.160344	0.472016	0.643736
H928	H	1.410344	0.722016	0.893736
H929	H	0.621022	-0.028251	0.096550
H930	H	0.871022	0.221749	0.346550
H931	H	1.121022	0.471749	0.596550
H932	H	1.371022	0.721749	0.846550
H933	H	0.630615	0.001719	0.222669
H934	H	0.880615	0.251719	0.472669
H935	H	1.130615	0.501719	0.722669
H936	H	1.380615	0.751719	0.972669
H937	H	0.663738	-0.031388	0.371476
H938	H	0.913738	0.218612	0.621476
H939	H	1.163738	0.468612	0.871476
H940	H	1.413738	0.718612	1.121476
N941	N	0.468570	0.163671	0.364431
N942	N	0.718570	0.413671	0.614431
N943	N	0.968570	0.663671	0.864431
N944	N	1.218570	0.913671	1.114431
H945	H	0.447592	0.184638	0.389460
H946	H	0.697592	0.434638	0.639460
H947	H	0.947592	0.684638	0.889460
H948	H	1.197592	0.934638	1.139460
H949	H	0.486910	0.184915	0.342268
H950	H	0.736910	0.434915	0.592268
H951	H	0.986910	0.684915	0.842268
H952	H	1.236910	0.934915	1.092268
N953	N	0.468588	0.163670	0.524680
N954	N	0.718588	0.413670	0.774680
N955	N	0.968588	0.663670	1.024680
N956	N	1.218588	0.913670	1.274680
H957	H	0.447613	0.184636	0.549712
H958	H	0.697613	0.434636	0.799712
H959	H	0.947613	0.684636	1.049712
H960	H	1.197613	0.934636	1.299712
H961	H	0.486929	0.184913	0.502518
H962	H	0.736929	0.434913	0.752518
H963	H	0.986929	0.684913	1.002518
H964	H	1.236929	0.934913	1.252518
H965	H	0.423791	0.065410	0.083970
H966	H	0.673791	0.315410	0.333970
H967	H	0.923791	0.565410	0.583970
H968	H	1.173791	0.815410	0.833970
