data_functionalizedCrystal
_audit_creation_method	'MofGen! by Chris Wilmer'
_symmetry_space_group_name_H-M	'P1'
_symmetry_Int_Tables_number	1
_symmetry_cell_setting	triclinic
loop_
_symmetry_equiv_pos_as_xyz
  x,y,z
_cell_length_a	23.096457
_cell_length_b	18.426585
_cell_length_c	23.096457
_cell_angle_alpha	60.006295
_cell_angle_beta	90.011236
_cell_angle_gamma	60.000190
loop_
_atom_site_label
_atom_site_type_symbol
_atom_site_fract_x
_atom_site_fract_y
_atom_site_fract_z
Zr1	Zr	0.557784	0.794332	-0.075994
O2	O	0.465317	0.945735	-0.168442
O3	O	0.586127	0.642931	-0.047654
O4	O	0.586103	0.794333	-0.168445
O5	O	0.465363	0.794332	0.047631
O6	O	0.681386	0.794330	-0.168447
O7	O	0.465341	0.794334	-0.047651
O8	O	0.681428	0.523501	0.047626
O9	O	0.465321	1.065161	-0.168443
O10	O	0.669327	0.705201	-0.035569
O11	O	0.598236	0.705202	0.035541
O12	O	0.598208	0.883457	-0.106675
O13	O	0.527117	0.883458	-0.035566
Zr14	Zr	0.709785	0.794324	0.075966
Zr15	Zr	0.709748	0.794327	-0.075998
Zr16	Zr	0.557820	0.794328	0.075969
Zr17	Zr	0.557790	0.984802	-0.075994
Zr18	Zr	0.709778	0.603853	0.075966
O19	O	0.681442	0.945724	0.047626
O20	O	0.681391	0.945729	-0.168447
O21	O	0.465368	0.945731	0.047630
O22	O	0.802252	0.642920	0.168414
O23	O	0.802201	0.642925	-0.047658
O24	O	0.586178	0.642927	0.168419
O25	O	0.802206	0.794324	-0.047659
O26	O	0.681466	0.794323	0.168417
O27	O	0.586183	0.794326	0.168419
O28	O	0.802228	0.794322	0.047623
O29	O	0.586112	1.065158	-0.168445
O30	O	0.681457	0.523498	0.168417
O31	O	0.802248	0.523494	0.168415
O32	O	0.802219	0.523497	0.047624
O33	O	0.465349	1.065159	-0.047652
O34	O	0.586141	1.065155	-0.047654
O35	O	0.669361	0.705198	0.106647
O36	O	0.740452	0.705198	0.035538
O37	O	0.669333	0.883454	-0.035569
O38	O	0.598242	0.883454	0.035541
C39	C	0.633776	0.556078	-0.000014
C40	C	0.633774	0.475218	-0.000014
C41	C	0.633773	0.409549	-0.000012
C42	C	0.633777	0.327162	-0.000011
C43	C	0.633784	0.261495	-0.000013
C44	C	0.633788	0.179104	-0.000012
C45	C	0.443700	0.794333	-0.000010
C46	C	0.379187	0.794335	-0.000009
C47	C	0.348872	0.794344	-0.052504
C48	C	0.288260	0.794335	-0.052504
C49	C	0.257957	0.794337	-0.000014
C50	C	0.288282	0.794323	0.052491
C51	C	0.348897	0.794322	0.052493
N52	N	0.139611	0.852440	0.015877
N53	N	0.082028	0.852444	0.015870
C54	C	0.075328	0.794338	-0.000017
N55	N	0.128380	0.736242	-0.015912
N56	N	0.185967	0.736243	-0.015909
C57	C	0.192230	0.794338	-0.000010
C58	C	-0.020710	0.794335	-0.052515
C59	C	-0.081321	0.794319	-0.052511
C60	C	-0.081302	0.794318	0.052481
C61	C	-0.020688	0.794323	0.052479
C62	C	0.009603	0.794337	-0.000023
C63	C	0.823869	0.794322	-0.000018
C64	C	0.888381	0.794320	-0.000019
C65	C	0.633739	0.794332	-0.190098
C66	C	0.633724	0.794333	-0.254610
C67	C	0.633792	1.032578	-0.000014
C68	C	0.633795	1.113437	-0.000014
C69	C	0.596604	0.887378	-0.322031
C70	C	0.596622	0.887380	-0.382647
C71	C	0.633750	0.794331	-0.375839
C72	C	0.670879	0.701273	-0.308406
C73	C	0.670865	0.701275	-0.247792
N74	N	0.628626	0.725070	-0.443394
N75	N	0.628635	0.725076	-0.500978
C76	C	0.633794	0.794322	-0.558464
N77	N	0.638931	0.863578	-0.556198
N78	N	0.638918	0.863576	-0.498610
C79	C	0.633769	0.794319	-0.441561
C80	C	0.596692	0.887375	-0.691615
C81	C	0.596715	0.887372	-0.752231
C82	C	0.670967	0.701263	-0.677988
C83	C	0.670948	0.701268	-0.617374
C84	C	0.633807	0.794327	-0.624192
C85	C	0.633830	0.794324	0.190069
C86	C	0.633845	0.794322	0.254582
C87	C	0.823861	0.556072	-0.000018
C88	C	0.888371	0.475211	-0.000019
C89	C	0.633822	0.556074	0.190070
C90	C	0.633834	0.475213	0.254582
C91	C	0.823906	0.556068	0.190066
C92	C	0.888431	0.475205	0.254577
C93	C	0.443663	1.032587	-0.190094
C94	C	0.379137	1.113450	-0.254605
C95	C	0.443708	1.032583	-0.000010
C96	C	0.379198	1.113445	-0.000009
C97	C	0.633747	1.032582	-0.190098
C98	C	0.633734	1.113443	-0.254610
C99	C	0.881539	0.437239	-0.037143
C100	C	0.942147	0.361271	-0.037158
C101	C	1.009587	0.323272	-0.000045
C102	C	1.016417	0.361251	0.037079
C103	C	0.955810	0.437222	0.037090
C104	C	0.670967	0.437238	0.322001
C105	C	0.670976	0.361271	0.382624
C106	C	0.633856	0.323275	0.375825
C107	C	0.596719	0.361258	0.308399
C108	C	0.596706	0.437228	0.247779
C109	C	0.955848	0.437231	0.247754
C110	C	1.016483	0.361262	0.308363
C111	C	1.009698	0.323264	0.375795
C112	C	0.942274	0.361246	0.382617
C113	C	0.881641	0.437218	0.322008
C114	C	0.311720	1.151434	-0.247782
C115	C	0.251086	1.227426	-0.308391
C116	C	0.257870	1.265429	-0.375823
C117	C	0.325294	1.227442	-0.382645
C118	C	0.385927	1.151456	-0.322036
C119	C	0.386030	1.151425	0.037109
C120	C	0.325421	1.227413	0.037107
C121	C	0.257982	1.265416	-0.000008
C122	C	0.251151	1.227433	-0.037130
C123	C	0.311759	1.151451	-0.037132
C124	C	0.670861	1.151414	-0.247789
C125	C	0.670863	1.227382	-0.308400
C126	C	0.633734	1.265382	-0.375831
C127	C	0.596606	1.227403	-0.382651
C128	C	0.596608	1.151431	-0.322041
H129	H	0.373534	0.794351	-0.095252
Cl130	Cl	0.181796	1.360935	0.000004
H131	H	0.263607	0.794323	0.095230
H132	H	0.961386	0.468158	0.192853
Cl133	Cl	0.550049	1.004355	-0.836993
Cl134	Cl	0.796891	0.484942	0.330598
Cl135	Cl	0.550060	0.313478	0.299865
Cl136	Cl	0.796765	0.484999	-0.083809
H137	H	0.701096	1.258296	-0.302834
H138	H	0.306183	1.120497	-0.192881
Cl139	Cl	0.550025	0.484953	0.163025
Cl140	Cl	0.717639	0.484985	0.330566
Cl141	Cl	0.333811	1.275223	-0.467422
H142	H	0.196192	1.258343	-0.302823
Cl143	Cl	0.166365	1.275214	-0.083782
H144	H	0.208493	1.327301	-0.425169
H145	H	0.440820	1.120530	-0.327600
Cl146	Cl	0.387010	0.794313	0.118491
Cl147	Cl	1.085931	0.227752	0.451983
Cl148	Cl	0.470804	1.103671	0.083770
Cl149	Cl	1.101236	0.313524	0.299771
H150	H	0.633737	1.327243	-0.425178
Cl151	Cl	0.933757	0.313464	0.467394
H152	H	0.330997	1.258326	0.067339
Cl153	Cl	0.717669	0.313533	0.467379
H154	H	0.306187	1.120530	-0.067356
Cl155	Cl	0.549897	1.004366	-0.330605
Cl156	Cl	0.549922	1.103714	-0.330628
H157	H	0.701198	0.625501	-0.672443
Cl158	Cl	0.717557	0.584297	-0.299846
H159	H	0.263573	0.794341	-0.095253
Cl160	Cl	0.633881	0.227766	0.452043
Cl161	Cl	0.717545	1.103658	-0.163026
H162	H	1.058932	0.261410	-0.000059
Cl163	Cl	0.017374	0.794344	-0.118514
Cl164	Cl	-0.119430	0.794321	-0.118506
Cl165	Cl	0.549924	1.275194	-0.467427
Cl166	Cl	0.017423	0.794321	0.118472
Cl167	Cl	-0.119388	0.794310	0.118473
H168	H	0.566393	0.963151	-0.437551
H169	H	0.701093	0.625504	-0.192893
H170	H	0.701172	0.625501	-0.562476
Cl171	Cl	0.550019	1.004360	-0.700182
H172	H	0.961382	0.468129	0.067325
Cl173	Cl	0.933544	0.313538	-0.083830
H174	H	1.071335	0.330300	0.067295
