data_functionalizedCrystal
_audit_creation_method	'MofGen! by Chris Wilmer'
_symmetry_space_group_name_H-M	'P1'
_symmetry_Int_Tables_number	1
_symmetry_cell_setting	triclinic
loop_
_symmetry_equiv_pos_as_xyz
  x,y,z
_cell_length_a	16.959455
_cell_length_b	18.101395
_cell_length_c	16.959447
_cell_angle_alpha	89.970532
_cell_angle_beta	89.985678
_cell_angle_gamma	90.028051
loop_
_atom_site_label
_atom_site_type_symbol
_atom_site_fract_x
_atom_site_fract_y
_atom_site_fract_z
Zn1	Zn	1.208323	-0.294875	-0.446913
Zn2	Zn	1.208220	-0.418728	-0.314737
Zn3	Zn	1.076152	-0.294899	-0.314751
Zn4	Zn	1.076091	-0.418673	-0.446875
O5	O	1.142196	-0.356794	-0.380819
O6	O	1.318920	-0.311318	-0.429390
O7	O	1.190683	-0.402335	-0.204128
O8	O	1.093753	-0.191263	-0.332304
O9	O	1.318845	-0.402312	-0.332280
O10	O	1.190859	-0.191246	-0.429404
O11	O	1.093653	-0.311358	-0.204138
O12	O	0.965533	-0.311304	-0.332267
O13	O	1.093649	-0.402218	-0.557491
O14	O	0.965488	-0.402241	-0.429339
O15	O	1.190800	-0.311264	-0.557519
O16	O	1.190624	-0.522354	-0.332243
O17	O	1.093550	-0.522313	-0.429325
C18	C	0.936830	-0.356769	-0.380801
C19	C	0.848974	-0.356777	-0.380812
C20	C	0.477497	-0.309404	-0.330380
C21	C	0.477499	-0.404244	-0.431304
C22	C	0.560045	-0.404234	-0.431299
C23	C	0.601321	-0.356808	-0.380833
C24	C	0.560050	-0.309394	-0.330372
C25	C	0.601321	-0.451653	-0.481754
C26	C	0.683872	-0.451644	-0.481750
C27	C	0.725150	-0.404215	-0.431287
C28	C	0.683874	-0.356798	-0.380825
C29	C	0.725150	-0.309373	-0.330359
C30	C	0.683876	-0.261951	-0.279899
C31	C	0.601327	-0.261964	-0.279909
C32	C	0.807698	-0.404202	-0.431278
C33	C	0.807703	-0.309362	-0.330351
C34	C	1.142091	-0.549204	-0.380796
C35	C	1.142118	-0.631518	-0.380812
C36	C	1.142291	-0.930609	-0.380855
C37	C	1.081356	-0.899289	-0.442088
C38	C	1.081066	-0.813671	-0.441896
C39	C	1.142205	-0.782227	-0.380834
C40	C	1.119658	-0.813380	-0.297530
C41	C	1.119266	-0.899025	-0.297896
C42	C	1.225907	-0.898956	-0.402193
C43	C	1.225415	-0.813305	-0.404020
C44	C	1.142158	-0.698367	-0.380818
C45	C	1.142337	-1.014469	-0.380866
C46	C	1.348365	-0.356819	-0.380838
C47	C	1.436221	-0.356830	-0.380846
C48	C	1.142229	-0.356732	-0.586987
C49	C	1.142243	-0.356706	-0.674844
C50	C	1.142324	-0.163632	-0.380860
C51	C	1.142379	-0.081318	-0.380877
C52	C	1.091756	-0.403984	-1.046308
C53	C	1.192920	-0.309273	-1.046332
C54	C	1.192899	-0.309289	-0.963786
C55	C	1.142306	-0.356653	-0.922497
C56	C	1.091735	-0.404002	-0.963754
C57	C	1.243475	-0.261946	-0.922523
C58	C	1.243456	-0.261960	-0.839972
C59	C	1.192859	-0.309322	-0.798681
C60	C	1.142285	-0.356672	-0.839944
C61	C	1.091693	-0.404037	-0.798655
C62	C	1.041115	-0.451384	-0.839915
C63	C	1.041138	-0.451364	-0.922464
C64	C	1.192836	-0.309342	-0.716133
C65	C	1.091672	-0.404055	-0.716101
C66	C	1.142209	-0.356801	-0.175453
C67	C	1.142348	-0.356619	-0.087597
H68	H	0.841304	-0.270738	-0.289259
H69	H	0.999926	-0.489951	-0.806287
H70	H	1.284669	-0.223389	-0.956146
C71	C	0.555929	-0.209810	-0.224405
H72	H	0.592332	-0.181557	-0.194352
H73	H	0.523705	-0.238104	-0.189916
H74	H	0.523749	-0.177580	-0.254710
C75	C	0.985514	-0.503444	-0.967851
H76	H	0.992780	-0.496655	-1.022927
H77	H	0.932407	-0.492606	-0.954331
H78	H	0.997052	-0.553209	-0.954307
H79	H	1.050466	-0.442619	-0.682489
C80	C	0.729281	-0.209784	-0.224391
H81	H	0.692882	-0.181545	-0.194337
H82	H	0.761510	-0.177554	-0.254688
H83	H	0.761457	-0.238075	-0.189890
C84	C	0.555919	-0.503815	-0.537261
H85	H	0.500845	-0.497022	-0.530045
H86	H	0.569419	-0.553559	-0.525600
H87	H	0.569472	-0.493033	-0.590391
C88	C	0.432101	-0.257247	-0.274876
H89	H	0.377026	-0.264045	-0.282103
H90	H	0.445656	-0.207501	-0.286533
H91	H	0.445607	-0.268029	-0.221744
H92	H	1.095172	-0.792606	-0.503666
C93	C	1.248571	-0.257178	-1.091743
H94	H	1.278690	-0.228985	-1.055348
H95	H	1.218366	-0.224902	-1.123960
H96	H	1.283004	-0.285511	-1.123933
C97	C	1.100212	-0.927044	-0.525806
H98	H	1.062766	-0.907517	-0.561873
H99	H	1.097906	-0.979471	-0.526742
H100	H	1.151598	-0.911255	-0.540460
C101	C	1.248460	-0.257263	-0.670750
H102	H	1.278591	-0.229050	-0.707163
H103	H	1.282871	-0.285600	-0.638533
H104	H	1.218229	-0.224995	-0.638563
C105	C	0.997344	-0.786072	-0.422791
H106	H	0.963379	-0.827204	-0.415110
H107	H	0.978353	-0.756921	-0.465323
H108	H	0.998648	-0.757074	-0.376137
C109	C	0.729267	-0.503798	-0.537259
H110	H	0.692861	-0.532039	-0.567319
H111	H	0.761452	-0.536026	-0.506966
H112	H	0.761485	-0.475496	-0.571753
C113	C	1.177719	-0.785867	-0.234209
H114	H	1.162998	-0.805360	-0.184308
H115	H	1.176472	-0.733436	-0.232244
H116	H	1.229511	-0.801846	-0.247008
C117	C	1.037958	-0.784502	-0.272675
H118	H	1.017479	-0.753469	-0.312947
H119	H	1.042689	-0.757170	-0.225109
H120	H	1.003293	-0.825058	-0.264653
C121	C	1.299082	-0.209876	-0.794592
H122	H	1.329212	-0.181661	-0.831006
H123	H	1.333495	-0.238211	-0.762376
H124	H	1.268850	-0.177608	-0.762405
H125	H	0.841299	-0.442814	-0.472359
H126	H	0.443888	-0.442860	-0.472386
H127	H	1.058143	-0.919066	-0.279821
C128	C	1.036126	-0.456064	-1.091689
H129	H	1.043384	-0.449274	-1.146766
H130	H	0.983022	-0.445224	-1.078161
H131	H	1.047666	-0.505829	-1.078146
H132	H	1.019755	-0.920873	-0.428131
C133	C	1.176614	-0.927026	-0.234163
H134	H	1.176767	-0.979509	-0.233959
H135	H	1.160234	-0.909432	-0.184007
H136	H	1.228227	-0.909416	-0.245213
C137	C	1.253678	-0.928058	-0.482858
H138	H	1.214532	-0.959787	-0.504278
H139	H	1.301498	-0.954695	-0.476459
H140	H	1.262116	-0.887640	-0.517609
C141	C	1.248389	-0.785805	-0.486843
H142	H	1.298774	-0.804798	-0.500535
H143	H	1.250136	-0.733352	-0.487030
H144	H	1.210428	-0.802315	-0.524066
C145	C	1.289996	-0.784390	-0.348167
H146	H	1.339596	-0.804040	-0.363561
H147	H	1.278451	-0.799295	-0.295705
H148	H	1.291791	-0.731990	-0.350785
C149	C	1.287221	-0.926243	-0.341894
H150	H	1.262031	-0.956787	-0.303904
H151	H	1.310522	-0.885013	-0.316254
H152	H	1.326922	-0.953759	-0.368308
