data_functionalizedCrystal
_audit_creation_method	'MofGen! by Chris Wilmer'
_symmetry_space_group_name_H-M	'P1'
_symmetry_Int_Tables_number	1
_symmetry_cell_setting	triclinic
loop_
_symmetry_equiv_pos_as_xyz
  x,y,z
_cell_length_a	14.044220
_cell_length_b	16.974800
_cell_length_c	16.053802
_cell_angle_alpha	91.074188
_cell_angle_beta	87.198230
_cell_angle_gamma	91.720658
loop_
_atom_site_label
_atom_site_type_symbol
_atom_site_fract_x
_atom_site_fract_y
_atom_site_fract_z
O1	O	-0.120850	1.057573	0.002057
O2	O	0.379150	1.557573	0.502057
O3	O	-0.135363	0.829132	-0.013385
O4	O	0.364637	1.329132	0.486615
O5	O	0.009887	0.939924	-0.005892
O6	O	0.509887	1.439924	0.494108
O7	O	-0.266099	0.946782	-0.005436
O8	O	0.233901	1.446782	0.494564
O9	O	0.001925	0.933823	0.132554
O10	O	0.501925	1.433823	0.632554
O11	O	-0.143325	0.823032	0.125061
O12	O	0.356675	1.323032	0.625061
O13	O	-0.128812	1.051473	0.140504
O14	O	0.371188	1.551473	0.640504
Zn15	Zn	-0.137332	0.936284	0.154764
Zn16	Zn	0.362668	1.436284	0.654764
Zn17	Zn	-0.126842	0.944321	-0.027645
Zn18	Zn	0.373158	1.444321	0.472355
O19	O	-0.274061	0.940681	0.133010
O20	O	0.225939	1.440681	0.633010
C21	C	-0.138646	0.796670	0.053850
C22	C	0.361354	1.296670	0.553850
C23	C	-0.136555	0.709030	0.047925
C24	C	0.363445	1.209030	0.547925
C25	C	-0.139911	0.664536	0.120611
C26	C	0.360089	1.164536	0.620611
C27	C	-0.137932	0.582190	0.115047
C28	C	0.362068	1.082190	0.615047
C29	C	-0.132604	0.544339	0.036796
C30	C	0.367396	1.044339	0.536796
C31	C	-0.129245	0.588839	-0.035895
C32	C	0.370755	1.088839	0.464105
C33	C	-0.131217	0.671184	-0.030330
C34	C	0.368783	1.171184	0.469670
C35	C	-0.126233	0.298420	0.012060
C36	C	0.373767	0.798420	0.512060
C37	C	-0.124263	0.216069	0.006500
C38	C	0.375737	0.716069	0.506500
C39	C	-0.132948	0.209426	0.157443
C40	C	0.367052	0.709426	0.657443
C41	C	-0.134926	0.291772	0.163001
C42	C	0.365074	0.791772	0.663001
C43	C	-0.131562	0.336265	0.090310
C44	C	0.368438	0.836265	0.590310
N45	N	-0.130583	0.460168	0.031106
N46	N	0.369417	0.960168	0.531106
N47	N	-0.133576	0.420435	0.096000
N48	N	0.366424	0.920435	0.596000
C49	C	-0.305402	0.946733	0.063989
C50	C	0.194598	1.446733	0.563989
C51	C	-0.410650	0.955688	0.064591
C52	C	0.089350	1.455688	0.564591
C53	C	-0.603353	0.972058	0.065702
C54	C	-0.103353	1.472058	0.565702
C55	C	-0.660827	0.908551	0.061409
C56	C	-0.160827	1.408551	0.561409
C57	C	-0.768053	0.917660	0.062027
C58	C	-0.268053	1.417660	0.562027
C59	C	-0.496117	0.962950	0.065084
C60	C	0.003883	1.462950	0.565084
C61	C	0.041228	0.933872	0.063127
C62	C	0.541228	1.433872	0.563127
C63	C	0.146476	0.924918	0.062519
C64	C	0.646476	1.424918	0.562519
C65	C	-0.125529	1.083935	0.073267
C66	C	0.374471	1.583935	0.573267
C67	C	-0.127619	1.171575	0.079186
C68	C	0.372381	1.671575	0.579186
N69	N	-0.144491	0.930804	0.279253
N70	N	0.355509	1.430804	0.779253
N71	N	-0.119676	0.949807	-0.152135
N72	N	0.380324	1.449807	0.347865
C73	C	-0.082709	0.977966	0.326137
C74	C	0.417291	1.477966	0.826137
C75	C	-0.087726	0.974141	0.413285
C76	C	0.412274	1.474141	0.913285
C77	C	-0.154530	0.923157	0.453548
C78	C	0.345470	1.423157	0.953548
C79	C	-0.216314	0.875989	0.406658
C80	C	0.283686	1.375989	0.906658
C81	C	-0.211292	0.879811	0.319511
C82	C	0.288708	1.379811	0.819511
C83	C	-0.176439	0.906461	0.713828
C84	C	0.323561	1.406461	1.213828
C85	C	-0.181458	0.902645	0.800982
C86	C	0.318542	1.402645	1.300982
C87	C	-0.052868	1.000796	0.807603
C88	C	0.447132	1.500796	1.307603
C89	C	-0.047856	1.004616	0.720454
C90	C	0.452144	1.504616	1.220454
C91	C	-0.109637	0.957446	0.673571
C92	C	0.390363	1.457446	1.173571
N93	N	-0.159661	0.919247	0.542627
N94	N	0.340339	1.419247	1.042627
N95	N	-0.104500	0.961352	0.584493
N96	N	0.395500	1.461352	1.084493
H97	H	-0.135685	0.173191	0.216623
H98	H	0.364315	0.673191	0.716623
H99	H	-0.128487	0.707410	-0.089519
H100	H	0.371513	1.207410	0.410481
H101	H	-0.634677	1.033263	0.069842
H102	H	-0.134677	1.533263	0.569842
O103	O	-0.010653	1.032953	0.282711
O104	O	0.489347	1.532953	0.782711
H105	H	0.031472	1.065098	0.329956
H106	H	0.531472	1.565098	0.829956
H107	H	-0.261600	0.841405	0.281339
H108	H	0.238400	1.341405	0.781339
H109	H	-0.629502	0.847341	0.057272
H110	H	-0.129502	1.347341	0.557272
O111	O	-0.021108	1.025023	0.463857
O112	O	0.478892	1.525023	0.963857
H113	H	0.026174	1.061130	0.421219
H114	H	0.526174	1.561130	0.921219
O115	O	-0.145669	0.705353	0.205014
O116	O	0.354331	1.205353	0.705014
H117	H	-0.082225	0.745207	0.211335
H118	H	0.417775	1.245207	0.711335
H119	H	-0.002568	1.039199	0.845782
H120	H	0.497432	1.539199	1.345782
O121	O	-0.141561	0.534196	0.193442
O122	O	0.358439	1.034196	0.693442
H123	H	-0.145613	0.574349	0.248789
H124	H	0.354387	1.074349	0.748789
O125	O	-0.118514	0.175246	-0.077906
O126	O	0.381486	0.675246	0.422094
H127	H	-0.117720	0.110511	-0.069560
H128	H	0.382280	0.610511	0.430440
H129	H	0.006541	1.046131	0.687674
H130	H	0.506541	1.546131	1.187674
O131	O	-0.253502	0.847642	0.844413
O132	O	0.246498	1.347642	1.344413
H133	H	-0.295611	0.815475	0.797172
H134	H	0.204389	1.315475	1.297172
H135	H	-0.226745	0.868054	0.675663
H136	H	0.273255	1.368054	1.175663
O137	O	-0.140679	0.332607	0.247394
O138	O	0.359321	0.832607	0.747394
H139	H	-0.206352	0.367465	0.253351
H140	H	0.293648	0.867465	0.753351
H141	H	-0.270704	0.834473	0.439445
H142	H	0.229296	1.334473	0.939445
H143	H	-0.124900	0.558015	-0.099609
H144	H	0.375100	1.058015	0.400391
O145	O	-0.122615	0.346405	-0.066339
O146	O	0.377385	0.846405	0.433661
H147	H	-0.118590	0.306248	-0.121683
H148	H	0.381410	0.806248	0.378317
