data_functionalizedCrystal
_audit_creation_method	'MofGen! by Chris Wilmer'
_symmetry_space_group_name_H-M	'P1'
_symmetry_Int_Tables_number	1
_symmetry_cell_setting	triclinic
loop_
_symmetry_equiv_pos_as_xyz
  x,y,z
_cell_length_a	10.654550
_cell_length_b	15.995350
_cell_length_c	9.130313
_cell_angle_alpha	89.997713
_cell_angle_beta	89.999724
_cell_angle_gamma	83.988653
loop_
_atom_site_label
_atom_site_type_symbol
_atom_site_fract_x
_atom_site_fract_y
_atom_site_fract_z
O1	O	1.666303	0.117603	-0.121682
O2	O	1.300678	0.128807	-0.121708
O3	O	1.493485	0.001375	-0.121693
O4	O	1.473496	0.245034	-0.121697
O5	O	1.493472	0.001371	0.121906
O6	O	1.300665	0.128803	0.121891
O7	O	1.666290	0.117599	0.121917
Cu8	Cu	1.483476	0.123201	0.144146
Cu9	Cu	1.483492	0.123205	-0.143938
O10	O	1.473483	0.245031	0.121902
C11	C	1.253884	0.127982	0.000088
C12	C	1.114473	0.125521	0.000078
C13	C	1.034008	0.200551	0.000080
C14	C	0.903017	0.198233	0.000106
C15	C	0.932971	0.045849	0.000120
C16	C	1.063959	0.048168	0.000105
C17	C	1.492652	-0.029826	0.000103
C18	C	1.490175	-0.122791	0.000095
C19	C	1.481277	-0.460590	0.000099
C20	C	1.343964	-0.413954	-0.000457
C21	C	1.346442	-0.317249	0.000092
C22	C	1.485691	-0.293004	0.000096
C23	C	1.553411	-0.333690	0.139205
C24	C	1.549962	-0.430346	0.139322
C25	C	1.552813	-0.430684	-0.137696
C26	C	1.552781	-0.333738	-0.139534
C27	C	1.488192	-0.198292	0.000100
C28	C	1.478780	-0.555303	0.000106
C29	C	1.713084	0.118423	0.000118
C30	C	1.852495	0.120885	0.000118
C31	C	1.474316	0.276232	0.000102
C32	C	1.476793	0.369197	0.000101
N33	N	1.483475	0.123197	0.346769
N34	N	1.483504	0.123202	-0.346560
C35	C	1.568878	0.066794	0.423427
C36	C	1.568890	0.066794	0.576764
C37	C	1.398091	0.179608	0.576770
C38	C	1.398074	0.179603	0.423436
H39	H	1.075132	0.263537	0.000069
C40	C	0.877398	-0.039235	0.000133
C41	C	0.791469	-0.061784	0.126632
C42	C	0.735899	-0.146870	0.126640
C43	C	0.766258	-0.209407	0.000148
C44	C	0.852191	-0.186860	-0.126361
C45	C	0.907761	-0.101774	-0.126369
H46	H	0.768992	-0.015488	0.220278
H47	H	0.672285	-0.163560	0.220291
H48	H	0.725121	-0.272393	0.000154
H49	H	0.874668	-0.233156	-0.220006
H50	H	0.971375	-0.085084	-0.220020
C51	C	1.489854	-0.295731	0.279058
C52	C	1.485378	-0.200650	0.308303
C53	C	1.421812	-0.162693	0.448151
C54	C	1.362723	-0.219816	0.558754
C55	C	1.367197	-0.314902	0.529512
C56	C	1.430763	-0.352860	0.389664
H57	H	1.529121	-0.158359	0.226425
H58	H	1.418500	-0.092303	0.469796
H59	H	1.315667	-0.191717	0.662277
H60	H	1.323454	-0.357193	0.611390
H61	H	1.434075	-0.423249	0.368018
C62	C	0.814506	0.280768	0.000105
C63	C	0.820147	0.343940	-0.126402
C64	C	0.731636	0.426479	-0.126399
C65	C	0.637484	0.445846	0.000110
C66	C	0.631839	0.382673	0.126626
C67	C	0.720350	0.300134	0.126624
H68	H	0.889847	0.329604	-0.220060
H69	H	0.735815	0.473244	-0.220055
H70	H	0.571963	0.506947	0.000112
H71	H	0.562138	0.397009	0.220284
H72	H	0.716170	0.253369	0.220280
C73	C	1.152482	-0.034371	0.000099
C74	C	1.146838	-0.097547	0.126598
C75	C	1.235360	-0.180082	0.126599
C76	C	1.329525	-0.199440	0.000100
C77	C	1.335172	-0.136262	-0.126409
C78	C	1.246651	-0.053728	-0.126410
H79	H	1.077128	-0.083218	0.220249
H80	H	1.231179	-0.226850	0.220250
H81	H	1.395054	-0.260537	0.000100
H82	H	1.404883	-0.150591	-0.220060
H83	H	1.250832	-0.006960	-0.220061
C84	C	1.269822	-0.439403	-0.135233
C85	C	1.333048	-0.502847	-0.246436
C86	C	1.258909	-0.528296	-0.381225
C87	C	1.121545	-0.490302	-0.404810
C88	C	1.058312	-0.426855	-0.293603
C89	C	1.132451	-0.401405	-0.158814
H90	H	1.434740	-0.530976	-0.228980
H91	H	1.305719	-0.575264	-0.463548
H92	H	1.066663	-0.509141	-0.504588
H93	H	0.956620	-0.398726	-0.311059
H94	H	1.085641	-0.354437	-0.076491
H95	H	1.328522	0.225533	0.361017
H96	H	1.293209	-0.289135	-0.099627
C97	C	1.304162	0.241659	0.661105
C98	C	1.304246	0.241720	0.829767
C99	C	1.210318	0.303775	0.914097
C100	C	1.116306	0.365769	0.829765
C101	C	1.116218	0.365710	0.661094
C102	C	1.210147	0.303655	0.576764
H103	H	1.373843	0.195826	0.892203
H104	H	1.210383	0.303818	1.038958
H105	H	1.046774	0.411706	0.892191
H106	H	1.046622	0.411604	0.598658
H107	H	1.210081	0.303612	0.451903
H108	H	1.289319	-0.433866	0.098738
H109	H	1.292840	-0.289697	0.099974
H110	H	1.500569	-0.448936	0.243305
H111	H	1.654327	-0.317787	-0.147930
H112	H	1.503268	-0.306776	-0.242443
H113	H	1.650775	-0.462009	0.145636
H114	H	1.638432	0.020865	0.639175
C115	C	1.691604	-0.313783	0.146218
C116	C	1.737921	-0.265431	0.278090
C117	C	1.876107	-0.245511	0.285100
C118	C	1.967977	-0.273943	0.160238
C119	C	1.921662	-0.322297	0.028356
C120	C	1.783475	-0.342217	0.021346
H121	H	1.669912	-0.244382	0.370529
H122	H	1.910392	-0.209716	0.382728
H123	H	2.070271	-0.259197	0.165427
H124	H	1.989671	-0.343346	-0.064083
H125	H	1.749190	-0.378012	-0.076282
C126	C	1.492174	-0.458773	-0.280140
C127	C	1.570654	-0.516516	-0.388612
C128	C	1.510000	-0.544604	-0.531047
C129	C	1.370866	-0.514950	-0.565011
C130	C	1.292378	-0.457205	-0.456536
C131	C	1.353033	-0.429116	-0.314101
H132	H	1.673656	-0.538470	-0.363473
H133	H	1.568102	-0.587352	-0.611347
H134	H	1.325966	-0.535743	-0.670450
H135	H	1.189376	-0.435250	-0.481675
H136	H	1.294930	-0.386369	-0.233801
H137	H	1.654054	-0.461856	-0.138627
H138	H	1.638415	0.020864	0.361008
