data_functionalizedCrystal
_audit_creation_method	'MofGen! by Chris Wilmer'
_symmetry_space_group_name_H-M	'P1'
_symmetry_Int_Tables_number	1
_symmetry_cell_setting	triclinic
loop_
_symmetry_equiv_pos_as_xyz
  x,y,z
_cell_length_a	16.625546
_cell_length_b	17.077404
_cell_length_c	16.625539
_cell_angle_alpha	90.018422
_cell_angle_beta	89.971468
_cell_angle_gamma	89.984053
loop_
_atom_site_label
_atom_site_type_symbol
_atom_site_fract_x
_atom_site_fract_y
_atom_site_fract_z
Zn1	Zn	-0.321155	-1.200037	-0.455927
Zn2	Zn	-0.455994	-1.199951	-0.321089
Zn3	Zn	-0.321164	-1.068775	-0.321104
Zn4	Zn	-0.455934	-1.068738	-0.455876
O5	O	-0.388562	-1.134375	-0.388499
O6	O	-0.339063	-1.309873	-0.438056
O7	O	-0.438137	-1.182530	-0.208259
O8	O	-0.208330	-1.086239	-0.339016
O9	O	-0.438129	-1.309809	-0.338991
O10	O	-0.208324	-1.182677	-0.438070
O11	O	-0.339078	-1.086155	-0.208270
O12	O	-0.339020	-0.958923	-0.338967
O13	O	-0.438027	-1.086176	-0.568715
O14	O	-0.438035	-0.958896	-0.437983
O15	O	-0.339005	-1.182641	-0.568753
O16	O	-0.568818	-1.182494	-0.338941
O17	O	-0.568775	-1.086092	-0.437969
C18	C	-0.388523	-0.930428	-0.388472
C19	C	-0.388525	-0.843178	-0.388479
C20	C	-0.440212	-0.467370	-0.439985
C21	C	-0.440204	-0.549350	-0.439974
C22	C	-0.388565	-0.590329	-0.388501
C23	C	-0.336935	-0.549323	-0.337028
C24	C	-0.336948	-0.467344	-0.337035
C25	C	-0.336912	-0.720193	-0.337019
C26	C	-0.336898	-0.802177	-0.337012
C27	C	-0.440168	-0.802199	-0.439958
C28	C	-0.440180	-0.720220	-0.439965
C29	C	-0.388550	-0.679220	-0.388493
C30	C	-0.598053	-1.134301	-0.388465
C31	C	-0.687674	-1.134341	-0.388478
C32	C	-1.015849	-1.134478	-0.388562
C33	C	-0.924541	-1.134437	-0.388541
C34	C	-0.851764	-1.134409	-0.388519
C35	C	-0.760450	-1.134370	-0.388499
C36	C	-0.178253	-1.134471	-0.388551
C37	C	-0.088632	-1.134512	-0.388573
C38	C	-0.388509	-1.134414	-0.598808
C39	C	-0.388486	-1.134430	-0.688429
C40	C	-0.388593	-0.339120	-0.388522
C41	C	-0.388585	-0.426369	-0.388518
C42	C	-0.388468	-1.134443	-0.761212
C43	C	-0.388438	-1.134461	-0.852520
C44	C	-0.388410	-1.134480	-0.925297
C45	C	-0.388381	-1.134499	-1.016611
C46	C	-0.388557	-1.134382	-0.179008
C47	C	-0.388352	-1.134518	-0.089388
H48	H	-0.294906	-0.433962	-0.295128
O49	O	-0.286655	-0.842015	-0.287118
C50	C	-0.234636	-0.889475	-0.333104
H51	H	-0.229734	-0.864797	-0.396619
H52	H	-0.259559	-0.951604	-0.335832
C53	C	-0.156791	-0.921035	-0.215840
C54	C	-0.150764	-0.890722	-0.293849
H55	H	-0.105055	-0.921809	-0.191624
H56	H	-0.191838	-0.889063	-0.184857
H57	H	-0.177562	-0.972807	-0.218124
H58	H	-0.130002	-0.838949	-0.291563
H59	H	-0.115711	-0.922686	-0.324830
O60	O	-0.286682	-0.680485	-0.286994
C61	C	-0.241112	-0.734231	-0.241548
H62	H	-0.238358	-0.792682	-0.274573
H63	H	-0.270553	-0.742920	-0.180254
C64	C	-0.158669	-0.630452	-0.189529
C65	C	-0.155280	-0.702241	-0.230095
H66	H	-0.105725	-0.610719	-0.182461
H67	H	-0.189372	-0.594242	-0.220145
H68	H	-0.183207	-0.637703	-0.138455
H69	H	-0.130752	-0.694987	-0.281171
H70	H	-0.124571	-0.738450	-0.199488
H71	H	-0.482226	-0.686858	-0.481883
O72	O	-0.490447	-0.427688	-0.490017
C73	C	-0.535996	-0.481460	-0.535456
H74	H	-0.538739	-0.539882	-0.502416
H75	H	-0.506546	-0.490211	-0.596744
C76	C	-0.618462	-0.377703	-0.587509
C77	C	-0.621836	-0.449456	-0.546926
H78	H	-0.671411	-0.357960	-0.594589
H79	H	-0.587773	-0.341475	-0.556899
H80	H	-0.593917	-0.385005	-0.638579
H81	H	-0.646372	-0.442151	-0.495855
H82	H	-0.652532	-0.485682	-0.577528
O83	O	-0.490238	-0.589261	-0.490016
C84	C	-0.444390	-0.636692	-0.542184
H85	H	-0.383250	-0.648976	-0.513851
H86	H	-0.435605	-0.605119	-0.601953
C87	C	-0.563857	-0.699472	-0.591508
C88	C	-0.488767	-0.714565	-0.556704
H89	H	-0.591232	-0.747507	-0.600468
H90	H	-0.594747	-0.667515	-0.556363
H91	H	-0.556526	-0.673159	-0.641311
H92	H	-0.496100	-0.740868	-0.506898
H93	H	-0.457880	-0.746528	-0.591841
H94	H	-0.294893	-0.582694	-0.295114
O95	O	-0.490213	-0.842107	-0.489998
C96	C	-0.444367	-0.889539	-0.542166
H97	H	-0.383226	-0.901822	-0.513834
H98	H	-0.435585	-0.857968	-0.601936
C99	C	-0.563836	-0.952321	-0.591483
C100	C	-0.488745	-0.967413	-0.556682
H101	H	-0.591211	-1.000356	-0.600440
H102	H	-0.594725	-0.920363	-0.556338
H103	H	-0.556507	-0.926010	-0.641287
H104	H	-0.496075	-0.993715	-0.506874
H105	H	-0.457859	-0.999378	-0.591819
