data_functionalizedCrystal
_audit_creation_method	'MofGen! by Chris Wilmer'
_symmetry_space_group_name_H-M	'P1'
_symmetry_Int_Tables_number	1
_symmetry_cell_setting	triclinic
loop_
_symmetry_equiv_pos_as_xyz
  x,y,z
_cell_length_a	17.640112
_cell_length_b	13.897448
_cell_length_c	17.640968
_cell_angle_alpha	101.231639
_cell_angle_beta	87.860920
_cell_angle_gamma	101.242525
loop_
_atom_site_label
_atom_site_type_symbol
_atom_site_fract_x
_atom_site_fract_y
_atom_site_fract_z
Zn1	Zn	1.247780	-0.027714	0.195080
Zn2	Zn	1.747780	0.472286	0.695080
Zn3	Zn	1.222024	-0.226719	0.068097
Zn4	Zn	1.722024	0.273281	0.568097
Zn5	Zn	1.095117	-0.090459	0.093726
Zn6	Zn	1.595117	0.409541	0.593726
Zn7	Zn	1.120765	-0.214022	0.220679
Zn8	Zn	1.620765	0.285978	0.720679
O9	O	1.171421	-0.139729	0.144395
O10	O	1.671421	0.360271	0.644395
O11	O	1.350631	-0.033168	0.156796
O12	O	1.850631	0.466832	0.656796
O13	O	1.183677	-0.240217	-0.034777
O14	O	1.683677	0.259783	0.465223
O15	O	1.115413	0.052860	0.107183
O16	O	1.615413	0.552860	0.607183
O17	O	1.331709	-0.179376	0.063502
O18	O	1.831709	0.320624	0.563502
O19	O	1.227574	0.098958	0.181648
O20	O	1.727574	0.598958	0.681648
O21	O	1.090439	-0.140107	-0.015947
O22	O	1.590439	0.359893	0.484053
O23	O	0.992251	-0.127795	0.132005
O24	O	1.492251	0.372205	0.632005
O25	O	1.159126	-0.157736	0.323556
O26	O	1.659126	0.342264	0.823556
O27	O	1.011094	-0.218577	0.225277
O28	O	1.511094	0.281423	0.725277
O29	O	1.252444	-0.020856	0.304749
O30	O	1.752444	0.479144	0.804749
O31	O	1.208547	-0.360031	0.088325
O32	O	1.708547	0.139969	0.588325
O33	O	1.134152	-0.350703	0.200426
O34	O	1.634152	0.149297	0.700426
C35	C	0.974119	-0.178617	0.184201
C36	C	1.474119	0.321383	0.684201
C37	C	0.889716	-0.195272	0.201248
C38	C	1.389716	0.304728	0.701248
C39	C	0.563040	-0.013187	0.014898
C40	C	1.063040	0.486813	0.514898
C41	C	0.483732	-0.028853	0.030926
C42	C	0.983732	0.471147	0.530926
C43	C	0.503374	-0.123604	0.127883
C44	C	1.003374	0.376396	0.627883
C45	C	0.582686	-0.107942	0.111865
C46	C	1.082686	0.392058	0.611865
C47	C	0.612512	-0.052734	0.055371
C48	C	1.112512	0.447266	0.555371
C49	C	0.632158	-0.147488	0.152339
C50	C	1.132158	0.352512	0.652339
C51	C	0.711462	-0.131831	0.136319
C52	C	1.211462	0.368169	0.636319
C53	C	0.741294	-0.076628	0.079826
C54	C	1.241294	0.423372	0.579826
C55	C	0.691816	-0.037077	0.039352
C56	C	1.191816	0.462923	0.539352
C57	C	0.602329	-0.202701	0.208829
C58	C	1.102329	0.297299	0.708829
C59	C	0.651801	-0.242247	0.249302
C60	C	1.151801	0.257753	0.749302
C61	C	0.731108	-0.226585	0.233287
C62	C	1.231108	0.273415	0.733287
C63	C	0.760940	-0.171382	0.176794
C64	C	1.260940	0.328618	0.676794
C65	C	0.780586	-0.266136	0.273761
C66	C	1.280586	0.233864	0.773761
C67	C	0.859889	-0.250480	0.257742
C68	C	1.359889	0.249520	0.757742
C69	C	0.840244	-0.155726	0.160774
C70	C	1.340244	0.344274	0.660774
C71	C	1.171362	-0.390361	0.144385
C72	C	1.671362	0.109639	0.644385
C73	C	1.171411	-0.497561	0.144391
C74	C	1.671411	0.002439	0.644391
C75	C	1.171500	-0.693826	0.144423
C76	C	1.671500	-0.193826	0.644423
C77	C	1.171449	-0.584610	0.144408
C78	C	1.671449	-0.084610	0.644408
C79	C	1.369495	-0.100689	0.104435
C80	C	1.869495	0.399311	0.604435
C81	C	1.453902	-0.084053	0.087406
C82	C	1.953902	0.415947	0.587406
C83	C	1.211519	-0.080881	0.342478
C84	C	1.711519	0.419119	0.842478
C85	C	1.228606	-0.055803	0.426890
C86	C	1.728606	0.444197	0.926890
C87	C	1.171506	0.111891	0.144419
C88	C	1.671506	0.611891	0.644419
C89	C	1.171541	0.219116	0.144429
C90	C	1.671541	0.719116	0.644429
C91	C	1.131524	-0.198270	-0.052926
C92	C	1.631524	0.301730	0.447074
C93	C	1.114584	-0.223047	-0.137366
C94	C	1.614584	0.276953	0.362634
C95	C	1.041904	-0.329658	0.753462
C96	C	1.541904	0.170342	1.253462
C97	C	1.057976	-0.306079	0.832776
C98	C	1.557976	0.193921	1.332776
C99	C	1.155140	-0.163558	0.813183
C100	C	1.655140	0.336442	1.313183
C101	C	1.139073	-0.187123	0.733866
C102	C	1.639073	0.312877	1.233866
C103	C	1.082455	-0.270175	0.704012
C104	C	1.582455	0.229825	1.204012
C105	C	1.179624	-0.127639	0.684416
C106	C	1.679624	0.372361	1.184416
C107	C	1.163562	-0.151206	0.605106
C108	C	1.663562	0.348794	1.105106
C109	C	1.106948	-0.234255	0.575246
C110	C	1.606948	0.265745	1.075246
C111	C	1.066393	-0.293741	0.624702
C112	C	1.566393	0.206259	1.124702
C113	C	1.236246	-0.044592	0.714271
C114	C	1.736246	0.455408	1.214271
C115	C	1.276797	0.014891	0.664821
C116	C	1.776797	0.514891	1.164821
C117	C	1.260731	-0.008670	0.585510
C118	C	1.760731	0.491330	1.085510
C119	C	1.204117	-0.091720	0.555650
C120	C	1.704117	0.408280	1.055650
C121	C	1.301286	0.050815	0.536054
C122	C	1.801286	0.550815	1.036054
C123	C	1.285224	0.027249	0.456744
C124	C	1.785224	0.527249	0.956744
C125	C	1.188055	-0.115286	0.476339
C126	C	1.688055	0.384714	0.976339
H127	H	0.479078	-0.168557	0.173878
H128	H	0.979078	0.331443	0.673878
O129	O	0.525321	-0.217884	0.224528
O130	O	1.025321	0.282116	0.724528
C131	C	0.513576	-0.176845	0.302692
C132	C	1.013576	0.323155	0.802692
H133	H	0.568139	-0.171385	0.337180
H134	H	1.068139	0.328615	0.837180
H135	H	0.463250	-0.226882	0.326841
H136	H	0.963250	0.273118	0.826841
H137	H	0.499841	-0.099087	0.307260
H138	H	0.999841	0.400913	0.807260
H139	H	1.020271	-0.361351	0.600397
H140	H	1.520271	0.138649	1.100397
H141	H	0.805868	-0.063884	0.066783
H142	H	1.305868	0.436116	0.566783
H143	H	0.587328	0.031786	-0.031094
H144	H	1.087328	0.531786	0.468906
H145	H	0.627505	-0.287201	0.295297
H146	H	1.127505	0.212799	0.795297
H147	H	0.756288	-0.311095	0.319753
H148	H	1.256288	0.188905	0.819753
O149	O	1.091481	-0.257129	0.498176
O150	O	1.591481	0.242871	0.998176
C151	C	1.158878	-0.275459	0.456984
C152	C	1.658878	0.224541	0.956984
H153	H	1.211883	-0.236774	0.493857
H154	H	1.711883	0.263226	0.993857
H155	H	1.161640	-0.245056	0.401202
H156	H	1.661640	0.254944	0.901202
H157	H	1.157612	-0.359367	0.442583
H158	H	1.657612	0.140633	0.942583
O159	O	0.435787	0.009675	-0.008439
O160	O	0.935787	0.509675	0.491561
C161	C	0.479119	0.061734	-0.061750
C162	C	0.979119	0.561734	0.438250
H163	H	0.541955	0.085419	-0.042060
H164	H	1.041955	0.585419	0.457940
H165	H	0.454589	0.130849	-0.065122
H166	H	0.954589	0.630849	0.434878
H167	H	0.475852	0.011033	-0.121175
H168	H	0.975852	0.511033	0.378825
H169	H	0.995782	-0.397268	0.729157
H170	H	1.495782	0.102732	1.229157
H171	H	0.900171	-0.282681	0.290700
H172	H	1.400171	0.217319	0.790700
O173	O	1.132967	-0.195856	0.447324
O174	O	1.632967	0.304144	0.947324
C175	C	1.074652	-0.164247	0.411332
C176	C	1.574652	0.335753	0.911332
H177	H	1.074823	-0.082090	0.436177
H178	H	1.574823	0.417910	0.936177
H179	H	1.016020	-0.210923	0.422231
H180	H	1.516020	0.289077	0.922231
H181	H	1.085956	-0.174167	0.346484
H182	H	1.585956	0.325833	0.846484
H183	H	1.024950	-0.354524	0.873037
H184	H	1.524950	0.145476	1.373037
O185	O	1.210088	-0.082895	0.842318
O186	O	1.710088	0.417105	1.342318
C187	C	1.215587	-0.074864	0.922921
C188	C	1.715587	0.425136	1.422921
H189	H	1.159168	-0.114794	0.945580
H190	H	1.659168	0.385206	1.445580
H191	H	1.226863	0.007366	0.952030
H192	H	1.726863	0.507366	1.452030
H193	H	1.265174	-0.110669	0.936329
H194	H	1.765174	0.389331	1.436329
H195	H	1.318244	0.075688	0.416480
H196	H	1.818244	0.575688	0.916480
H197	H	0.864532	-0.110752	0.114783
H198	H	1.364532	0.389248	0.614783
O199	O	1.356387	0.131394	0.565002
O200	O	1.856387	0.631394	1.065002
C201	C	1.428134	0.119480	0.530325
C202	C	1.928134	0.619480	1.030325
H203	H	1.427525	0.036691	0.507738
H204	H	1.927525	0.536691	1.007738
H205	H	1.476219	0.150677	0.574908
H206	H	1.976219	0.650677	1.074908
H207	H	1.438675	0.161437	0.480288
H208	H	1.938675	0.661437	0.980288
H209	H	1.322898	0.082510	0.689139
H210	H	1.822898	0.582510	1.189139
H211	H	1.249324	-0.025409	0.778851
H212	H	1.749324	0.474591	1.278851
O213	O	0.720743	0.016408	-0.015629
O214	O	1.220743	0.516408	0.484371
C215	C	0.686005	-0.030835	-0.087427
C216	C	1.186005	0.469165	0.412573
H217	H	0.663391	-0.113359	-0.086959
H218	H	1.163391	0.386641	0.413041
H219	H	0.730562	-0.023313	-0.135466
H220	H	1.230562	0.476687	0.364534
H221	H	0.635974	0.005963	-0.097915
H222	H	1.135974	0.505963	0.402085
