data_functionalizedCrystal
_audit_creation_method	'MofGen! by Chris Wilmer'
_symmetry_space_group_name_H-M	'P1'
_symmetry_Int_Tables_number	1
_symmetry_cell_setting	triclinic
loop_
_symmetry_equiv_pos_as_xyz
  x,y,z
_cell_length_a	13.635800
_cell_length_b	10.943567
_cell_length_c	10.992421
_cell_angle_alpha	88.198214
_cell_angle_beta	108.764763
_cell_angle_gamma	71.162216
loop_
_atom_site_label
_atom_site_type_symbol
_atom_site_fract_x
_atom_site_fract_y
_atom_site_fract_z
V1	V	2.057551	-0.402534	0.177732
O2	O	2.036607	-0.394889	-0.008570
O3	O	2.046337	-0.399763	0.352441
O4	O	2.046533	-0.578101	0.174985
O5	O	2.036410	-0.215317	0.170114
V6	V	2.295974	-0.380143	0.155450
O7	O	2.195503	-0.451649	0.226610
O8	O	2.383121	-0.331028	0.106571
O9	O	2.195584	-0.382914	-0.019259
O10	O	2.375617	-0.387787	0.341752
O11	O	2.375814	-0.567360	0.163068
O12	O	2.195389	-0.204576	0.158197
V13	V	2.557551	-0.402534	0.177732
O14	O	2.536607	-0.394889	-0.008570
O15	O	2.546337	-0.399763	0.352441
O16	O	2.546533	-0.578101	0.174985
O17	O	2.536410	-0.215317	0.170114
V18	V	2.795974	-0.380143	0.155450
O19	O	2.695503	-0.451649	0.226610
O20	O	2.883121	-0.331028	0.106571
O21	O	2.695584	-0.382914	-0.019259
O22	O	2.875617	-0.387787	0.341752
O23	O	2.875814	-0.567360	0.163068
O24	O	2.695389	-0.204576	0.158197
C25	C	1.971820	-0.620894	0.168668
C26	C	2.003539	-0.764421	0.167578
C27	C	1.944951	-0.927418	0.159561
C28	C	1.946486	-0.828271	0.057148
C29	C	2.001545	-0.861651	0.269954
C30	C	2.061603	-0.920978	0.063086
C31	C	2.116675	-0.954380	0.275987
C32	C	2.118281	-0.855273	0.173552
C33	C	1.971571	-0.393408	0.395032
C34	C	2.003133	-0.392313	0.537859
C35	C	2.102023	-0.389265	-0.061843
C36	C	2.060079	-0.390369	-0.204669
C37	C	2.101773	-0.161776	0.164518
C38	C	2.059672	-0.018248	0.165602
C39	C	2.471571	-0.393408	0.395032
C40	C	2.503133	-0.392313	0.537859
C41	C	2.471820	-0.620894	0.168668
C42	C	2.503539	-0.764421	0.167578
C43	C	1.936956	-0.383484	0.733146
C44	C	1.903916	-0.384111	0.584502
C45	C	2.038310	-0.271911	0.576503
C46	C	2.070427	-0.270636	0.725046
C47	C	2.136441	-0.517453	0.763610
C48	C	2.101917	-0.520065	0.615096
C49	C	2.602023	-0.389265	-0.061843
C50	C	2.560079	-0.390369	-0.204669
C51	C	2.601773	-0.161776	0.164518
C52	C	2.559672	-0.018248	0.165602
C53	C	2.436956	-0.383484	0.733146
C54	C	2.403916	-0.384111	0.584502
C55	C	2.538310	-0.271911	0.576503
C56	C	2.570427	-0.270636	0.725046
C57	C	2.636441	-0.517453	0.763610
C58	C	2.601917	-0.520065	0.615096
C59	C	2.437309	-0.960499	0.157727
C60	C	2.404375	-0.811290	0.159393
C61	C	2.602629	-0.841889	0.294253
C62	C	2.634944	-0.991182	0.293122
C63	C	2.573787	-0.952989	0.047826
C64	C	2.538274	-0.803247	0.047236
H65	H	1.874238	-0.773543	-0.035367
O66	O	2.305983	-0.740276	0.038742
H67	H	2.235900	-0.681505	0.067140
H68	H	2.329478	-0.292387	0.532066
O69	O	2.755568	-0.525822	0.818053
H70	H	2.780995	-0.528817	0.925027
H71	H	2.627213	-1.037669	0.382246
H72	H	2.111128	-0.273300	0.546267
H73	H	2.677786	-0.812944	0.304816
H74	H	2.077512	-0.609144	0.591194
H75	H	2.725991	-1.034021	0.304134
O76	O	2.255565	-0.525812	0.818047
H77	H	2.305253	-0.616723	0.888905
O78	O	1.848285	-0.969662	0.151529
H79	H	1.822722	-0.944632	0.236463
H80	H	2.676822	-0.533512	0.584888
O81	O	2.359711	-0.985588	0.036243
H82	H	2.301077	-0.890982	-0.024076
H83	H	1.975805	-0.835126	0.357371
O84	O	2.692379	-1.007366	0.053898
H85	H	2.747214	-0.990940	0.146255
H86	H	2.424891	-1.008717	0.242299
H87	H	2.579721	-0.816149	0.383601
H88	H	2.188892	-1.009149	0.368500
O89	O	2.496905	-0.144021	0.748273
H90	H	2.438788	-0.084279	0.653513
O91	O	2.095522	-0.955831	-0.052874
H92	H	2.118940	-1.062850	-0.052829
O93	O	1.919958	-0.496728	0.794623
H94	H	1.939506	-0.493675	0.900359
H95	H	2.191341	-0.823609	0.179448
O96	O	2.419963	-0.496731	0.794626
H97	H	2.356239	-0.458965	0.839854
O98	O	2.187118	-0.270341	0.779185
H99	H	2.186764	-0.181305	0.824960
H100	H	1.967915	-0.177333	0.522272
H101	H	2.522351	-0.973457	-0.048374
H102	H	1.875445	-0.470143	0.558732
O103	O	1.860114	-0.262016	0.760259
H104	H	1.909233	-0.206533	0.817842
O105	O	1.996903	-0.144015	0.748261
H106	H	2.019067	-0.141847	0.854371
H107	H	2.466591	-0.750643	-0.046473
H108	H	1.829478	-0.292387	0.532066
H109	H	2.609295	-0.770577	0.045750
H110	H	2.133369	-0.608558	0.813120
O111	O	2.201150	-0.537886	0.575103
H112	H	2.181527	-0.455594	0.499219
H113	H	2.375759	-0.786345	0.245145
H114	H	2.375445	-0.470143	0.558732
H115	H	2.378962	-0.291834	0.753713
H116	H	2.658532	-0.270446	0.765929
O117	O	2.634755	-0.273723	0.536443
H118	H	2.658693	-0.360664	0.488445
O119	O	2.445069	-0.146621	0.504687
H120	H	2.373607	-0.169791	0.441440
O121	O	2.632391	-0.638141	0.829199
H122	H	2.575897	-0.608885	0.885142
O123	O	2.569278	-0.638001	0.584291
H124	H	2.483106	-0.605789	0.514148
