data_functionalizedCrystal
_audit_creation_method	'MofGen! by Chris Wilmer'
_symmetry_space_group_name_H-M	'P1'
_symmetry_Int_Tables_number	1
_symmetry_cell_setting	triclinic
loop_
_symmetry_equiv_pos_as_xyz
  x,y,z
_cell_length_a	10.489741
_cell_length_b	19.188930
_cell_length_c	8.965430
_cell_angle_alpha	89.995304
_cell_angle_beta	89.998843
_cell_angle_gamma	83.841978
loop_
_atom_site_label
_atom_site_type_symbol
_atom_site_fract_x
_atom_site_fract_y
_atom_site_fract_z
O1	O	1.691851	0.098497	-0.123966
O2	O	1.320449	0.107743	-0.123991
O3	O	1.516868	0.001536	-0.123949
O4	O	1.495432	0.204704	-0.124008
O5	O	1.516851	0.001543	0.124130
O6	O	1.320432	0.107750	0.124088
O7	O	1.691834	0.098504	0.124113
Cu8	Cu	1.506132	0.103128	0.146752
Cu9	Cu	1.506151	0.103120	-0.146630
O10	O	1.495415	0.204711	0.124070
C11	C	1.272924	0.107048	0.000046
C12	C	1.131341	0.104959	0.000037
C13	C	1.064712	0.037383	0.000071
C14	C	0.971880	0.069302	-0.122251
C15	C	0.971897	0.069325	0.122336
C16	C	1.040374	0.136906	-0.122386
C17	C	1.040401	0.136919	0.122310
C18	C	0.947595	0.168887	-0.000041
C19	C	1.516165	-0.024476	0.000095
C20	C	1.514081	-0.101994	0.000108
C21	C	1.629334	-0.146146	0.000123
C22	C	1.627376	-0.218983	0.000099
C23	C	1.510159	-0.247665	0.000090
C24	C	1.394892	-0.203503	0.000066
C25	C	1.396853	-0.130668	0.000075
N26	N	1.420556	-0.356268	0.084510
N27	N	1.418701	-0.425459	0.084504
C28	C	1.504244	-0.467113	0.000059
N29	N	1.591732	-0.436964	-0.084362
N30	N	1.593591	-0.367767	-0.084350
C31	C	1.508020	-0.326642	0.000079
C32	C	1.617382	-0.590244	0.000046
C33	C	1.615419	-0.663081	0.000012
C34	C	1.382932	-0.647600	-0.000005
C35	C	1.384898	-0.574764	0.000013
C36	C	1.502126	-0.546090	0.000046
C37	C	1.739359	0.099199	0.000073
C38	C	1.880941	0.101288	0.000071
C39	C	1.496118	0.230723	0.000023
C40	C	1.498202	0.308242	0.000001
N41	N	1.506127	0.103133	0.353101
N42	N	1.506166	0.103109	-0.352979
C43	C	1.415262	0.152234	0.450387
C44	C	1.530443	0.166361	0.549804
C45	C	1.390995	0.089012	0.549812
C46	C	1.621366	0.117292	0.450329
C47	C	1.481842	0.039916	0.450328
C48	C	1.597106	0.054016	0.549700
H49	H	0.941512	0.040706	-0.225651
H50	H	1.070570	0.165474	-0.225917
C51	C	1.264197	-0.039772	-0.127456
C52	C	1.270157	-0.082132	0.000065
H53	H	1.185975	-0.009811	-0.127463
H54	H	1.334280	-0.012271	-0.127429
H55	H	1.268273	-0.068509	-0.213962
H56	H	1.266091	-0.053396	0.086571
H57	H	1.200055	-0.109636	0.000051
C58	C	1.164525	0.124394	0.558649
C59	C	1.259536	0.072893	0.608793
H60	H	1.083367	0.114443	0.595050
H61	H	1.182411	0.168951	0.594182
H62	H	1.163351	0.124707	0.452702
H63	H	1.260717	0.072584	0.714740
H64	H	1.241646	0.028325	0.573267
H65	H	1.461239	-0.013519	0.406599
C66	C	1.257836	-0.276432	-0.127469
C67	C	1.266047	-0.235029	0.000059
H68	H	1.178292	-0.295897	-0.127471
H69	H	1.263434	-0.248335	-0.213961
H70	H	1.326207	-0.313151	-0.127446
H71	H	1.197681	-0.198307	0.000030
H72	H	1.260437	-0.263128	0.086573
H73	H	1.718768	0.129289	0.406814
H74	H	0.896927	0.224498	-0.000124
C75	C	1.821395	0.012891	0.557723
C76	C	1.700967	-0.002054	0.608217
H77	H	1.885514	-0.021720	0.593861
H78	H	1.822397	0.012853	0.451787
H79	H	1.837953	0.057673	0.593300
H80	H	1.684405	-0.046834	0.572631
H81	H	1.699963	-0.002023	0.714175
H82	H	1.115644	-0.018169	-0.000065
H83	H	1.724790	-0.122805	0.000144
H84	H	1.070801	0.165492	0.225715
H85	H	0.941552	0.040722	0.225750
H86	H	1.721231	-0.254938	0.000105
C87	C	1.670321	0.230913	0.694713
C88	C	1.558207	0.238514	0.608815
H89	H	1.687454	0.275458	0.731135
H90	H	1.659481	0.200558	0.776360
H91	H	1.740068	0.211577	0.634889
H92	H	1.488457	0.257845	0.668644
H93	H	1.569039	0.268880	0.527158
H94	H	1.712836	-0.566896	0.000065
C95	C	1.845416	-0.671063	0.000072
C96	C	1.742115	-0.711617	0.000033
H97	H	1.923632	-0.701029	0.000095
H98	H	1.841362	-0.642329	-0.086429
H99	H	1.841320	-0.642337	0.086593
H100	H	1.746206	-0.740339	-0.086495
H101	H	1.746171	-0.740364	0.086542
H102	H	1.287492	-0.670952	-0.000019
H103	H	1.291047	-0.538814	0.000010
H104	H	1.338490	0.193796	0.406782
