data_functionalizedCrystal
_audit_creation_method	'MofGen! by Chris Wilmer'
_symmetry_space_group_name_H-M	'P1'
_symmetry_Int_Tables_number	1
_symmetry_cell_setting	triclinic
loop_
_symmetry_equiv_pos_as_xyz
  x,y,z
_cell_length_a	6.817900
_cell_length_b	9.514072
_cell_length_c	16.255661
_cell_angle_alpha	91.323020
_cell_angle_beta	103.488922
_cell_angle_gamma	118.843421
loop_
_atom_site_label
_atom_site_type_symbol
_atom_site_fract_x
_atom_site_fract_y
_atom_site_fract_z
V1	V	-4.111881	-0.223505	-0.264538
O2	O	-4.010606	0.009405	-0.258820
O3	O	-4.146651	-0.441889	-0.263385
O4	O	-4.062356	-0.220653	-0.379613
O5	O	-4.095485	-0.213362	-0.141788
V6	V	-4.584878	-0.195577	-0.249776
O7	O	-4.396230	-0.284767	-0.296919
O8	O	-4.750727	-0.134315	-0.217395
O9	O	-4.326902	0.022807	-0.250929
O10	O	-4.803550	-0.428487	-0.255494
O11	O	-4.718672	-0.205720	-0.372527
O12	O	-4.411196	-0.198429	-0.134702
C13	C	-4.011921	-0.495108	-0.259381
C14	C	-4.121629	-0.673643	-0.259205
C15	C	-3.904393	-0.212897	-0.407640
C16	C	-3.945735	-0.212010	-0.501719
C17	C	-3.852254	-0.201415	-0.724506
C18	C	-4.060779	-0.338160	-0.794390
C19	C	-4.021486	-0.210347	-0.673962
C20	C	-3.886655	-0.072037	-0.771711
C21	C	-4.094639	-0.208733	-0.840341
C22	C	-4.229538	-0.347214	-0.742617
C23	C	-4.055307	-0.080971	-0.719922
C24	C	-4.263983	-0.217754	-0.789787
C25	C	-3.979340	-0.211278	-0.578116
C26	C	-4.136807	-0.207815	-0.936187
C27	C	-4.124977	0.076017	-0.254931
C28	C	-3.994508	0.254551	-0.255112
C29	C	-4.232504	-0.206190	-0.106670
C30	C	-4.170397	-0.207069	-0.012590
H31	H	-4.314425	-0.748769	-0.262605
C32	C	-4.064520	-0.485048	-0.838184
C33	C	-3.847884	-0.504693	-0.813209
C34	C	-3.851606	-0.651574	-0.856998
C35	C	-4.071964	-0.778811	-0.925763
C36	C	-4.288616	-0.759171	-0.950742
C37	C	-4.284894	-0.612289	-0.906953
H38	H	-3.684747	-0.410501	-0.762302
H39	H	-3.691225	-0.666112	-0.838507
H40	H	-4.074719	-0.887541	-0.958179
H41	H	-4.451752	-0.853363	-1.001649
H42	H	-4.445275	-0.597751	-0.925444
H43	H	-4.438502	-0.224699	-0.818154
H44	H	-3.801719	-0.670327	-0.251700
C45	C	-4.051463	0.065924	-0.676095
C46	C	-3.868620	0.239797	-0.681867
C47	C	-3.864743	0.386708	-0.638035
C48	C	-4.043708	0.359747	-0.588430
C49	C	-4.226564	0.185867	-0.582656
C50	C	-4.230442	0.038956	-0.626488
H51	H	-3.736127	0.259761	-0.718589
H52	H	-3.729380	0.515425	-0.642309
H53	H	-4.040838	0.468500	-0.555982
H54	H	-4.359057	0.165903	-0.545933
H55	H	-4.365805	-0.089761	-0.622213
H56	H	-3.677935	-0.194685	-0.696005
H57	H	-4.374118	-0.463635	-0.729497
H58	H	-3.742117	0.044227	-0.784974
