data_functionalizedCrystal
_audit_creation_method	'MofGen! by Chris Wilmer'
_symmetry_space_group_name_H-M	'P1'
_symmetry_Int_Tables_number	1
_symmetry_cell_setting	triclinic
loop_
_symmetry_equiv_pos_as_xyz
  x,y,z
_cell_length_a	12.759400
_cell_length_b	12.759401
_cell_length_c	12.759393
_cell_angle_alpha	90.022497
_cell_angle_beta	89.976116
_cell_angle_gamma	89.995733
loop_
_atom_site_label
_atom_site_type_symbol
_atom_site_fract_x
_atom_site_fract_y
_atom_site_fract_z
Zn1	Zn	-0.418192	-1.606349	-0.594112
Zn2	Zn	-0.084859	-1.273015	-0.260779
Zn3	Zn	0.248474	-0.939682	0.072555
Zn4	Zn	-0.593908	-1.606274	-0.418453
Zn5	Zn	-0.260575	-1.272941	-0.085119
Zn6	Zn	0.072759	-0.939607	0.248214
Zn7	Zn	-0.418246	-1.430647	-0.418442
Zn8	Zn	-0.084913	-1.097314	-0.085109
Zn9	Zn	0.248421	-0.763981	0.248224
Zn10	Zn	-0.593832	-1.430674	-0.594085
Zn11	Zn	-0.260499	-1.097340	-0.260752
Zn12	Zn	0.072834	-0.764007	0.072582
O13	O	-0.506045	-1.518486	-0.506273
O14	O	-0.172711	-1.185153	-0.172940
O15	O	0.160622	-0.851819	0.160394
O16	O	-0.441511	-1.753360	-0.570826
O17	O	-0.108177	-1.420026	-0.237493
O18	O	0.225156	-1.086693	0.095841
O19	O	-0.570660	-1.582935	-0.271430
O20	O	-0.237327	-1.249601	0.061903
O21	O	0.096007	-0.916268	0.395237
O22	O	-0.271218	-1.453975	-0.441753
O23	O	0.062115	-1.120641	-0.108419
O24	O	0.395449	-0.787308	0.224914
O25	O	-0.570608	-1.753305	-0.441770
O26	O	-0.237275	-1.419972	-0.108436
O27	O	0.096059	-1.086638	0.224897
O28	O	-0.271178	-1.583061	-0.570816
O29	O	0.062155	-1.249728	-0.237483
O30	O	0.395488	-0.916395	0.095850
O31	O	-0.441602	-1.453902	-0.271423
O32	O	-0.108269	-1.120569	0.061911
O33	O	0.225065	-0.787236	0.395244
O34	O	-0.441529	-1.283630	-0.441726
O35	O	-0.108196	-0.950296	-0.108393
O36	O	0.225138	-0.616963	0.224940
O37	O	-0.570479	-1.454019	-0.741110
O38	O	-0.237146	-1.120686	-0.407776
O39	O	0.096187	-0.787353	-0.074443
O40	O	-0.570531	-1.283649	-0.570770
O41	O	-0.237198	-0.950316	-0.237437
O42	O	0.096135	-0.616982	0.095897
O43	O	-0.441437	-1.583087	-0.741130
O44	O	-0.108104	-1.249754	-0.407796
O45	O	0.225229	-0.916420	-0.074463
O46	O	-0.740919	-1.582960	-0.441743
O47	O	-0.407586	-1.249627	-0.108410
O48	O	-0.074252	-0.916294	0.224923
O49	O	-0.740863	-1.453947	-0.570780
O50	O	-0.407530	-1.120614	-0.237446
O51	O	-0.074197	-0.787281	0.095887
C52	C	-0.506028	-1.245519	-0.506245
C53	C	-0.172695	-0.912185	-0.172911
C54	C	0.160638	-0.578852	0.160422
C55	C	-0.506047	-1.128742	-0.506258
C56	C	-0.172714	-0.795409	-0.172924
C57	C	0.160620	-0.462075	0.160409
C58	C	-0.573320	-1.073918	-0.573343
C59	C	-0.239987	-0.740584	-0.240010
C60	C	0.093347	-0.407251	0.093323
C61	C	-0.573323	-0.964194	-0.573361
C62	C	-0.239989	-0.630860	-0.240028
C63	C	0.093344	-0.297527	0.093305
C64	C	-0.438776	-0.964128	-0.439198
C65	C	-0.105443	-0.630794	-0.105865
C66	C	0.227891	-0.297461	0.227468
C67	C	-0.438769	-1.073850	-0.439187
C68	C	-0.105436	-0.740517	-0.105853
C69	C	0.227898	-0.407183	0.227480
C70	C	-0.779012	-1.518477	-0.506283
C71	C	-0.445679	-1.185144	-0.172949
C72	C	-0.112345	-0.851810	0.160384
C73	C	-0.895789	-1.518569	-0.506322
C74	C	-0.562455	-1.185236	-0.172988
C75	C	-0.229122	-0.851903	0.160345
C76	C	-0.232011	-1.518523	-0.506286
C77	C	0.101322	-1.185190	-0.172953
C78	C	0.434655	-0.851857	0.160380
C79	C	-0.115235	-1.518539	-0.506292
C80	C	0.218099	-1.185206	-0.172959
C81	C	0.551432	-0.851873	0.160375
C82	C	-0.060392	-1.451342	-0.439101
C83	C	0.272942	-1.118008	-0.105768
C84	C	0.606275	-0.784675	0.227566
C85	C	0.049332	-1.451354	-0.439118
C86	C	0.382666	-1.118020	-0.105785
C87	C	0.715999	-0.784687	0.227548
C88	C	0.049361	-1.585770	-0.573520
C89	C	0.382694	-1.252437	-0.240187
C90	C	0.716027	-0.919103	0.093146
C91	C	-0.060361	-1.585752	-0.573508
C92	C	0.272972	-1.252419	-0.240174
C93	C	0.606305	-0.919085	0.093159
C94	C	-0.505944	-1.518565	-0.780306
C95	C	-0.172610	-1.185231	-0.446973
C96	C	0.160723	-0.851898	-0.113640
C97	C	-0.505901	-1.518598	-0.897083
C98	C	-0.172567	-1.185265	-0.563750
C99	C	0.160766	-0.851931	-0.230417
C100	C	-0.506059	-0.792519	-0.506295
C101	C	-0.172725	-0.459186	-0.172962
C102	C	0.160608	-0.125852	0.160371
C103	C	-0.506057	-0.909296	-0.506287
C104	C	-0.172723	-0.575962	-0.172954
C105	C	0.160610	-0.242629	0.160379
C106	C	-0.438698	-1.585808	-0.951957
C107	C	-0.105365	-1.252475	-0.618624
C108	C	0.227969	-0.919142	-0.285291
C109	C	-0.438653	-1.585826	-1.061681
C110	C	-0.105319	-1.252493	-0.728348
C111	C	0.228014	-0.919160	-0.395015
C112	C	-0.573022	-1.451420	-1.061648
C113	C	-0.239689	-1.118087	-0.728314
C114	C	0.093644	-0.784753	-0.394981
C115	C	-0.573061	-1.451398	-0.951926
C116	C	-0.239728	-1.118065	-0.618592
C117	C	0.093605	-0.784731	-0.285259
C118	C	-0.506069	-1.518468	-0.233306
C119	C	-0.172736	-1.185135	0.100028
C120	C	0.160597	-0.851801	0.433361
C121	C	-0.505816	-1.518638	-0.116529
C122	C	-0.172483	-1.185305	0.216804
C123	C	0.160850	-0.851971	0.550137
H124	H	-0.384002	-0.919421	-0.384590
H125	H	-0.050669	-0.586088	-0.051257
H126	H	0.282664	-0.252755	0.282077
H127	H	0.093983	-1.396634	-0.384407
H128	H	0.427316	-1.063301	-0.051073
H129	H	0.760649	-0.729967	0.282260
Br130	Br	-0.347550	-1.677006	-0.877531
Br131	Br	-0.014217	-1.343672	-0.544198
Br132	Br	0.319117	-1.010339	-0.210864
Br133	Br	-0.134860	-1.360123	-0.347883
Br134	Br	0.198474	-1.026790	-0.014549
Br135	Br	0.531807	-0.693457	0.318784
H136	H	-0.627704	-1.396710	-1.106314
H137	H	-0.294371	-1.063377	-0.772980
H138	H	0.038962	-0.730044	-0.439647
Br139	Br	0.123838	-1.676979	-0.664740
Br140	Br	0.457171	-1.343646	-0.331407
Br141	Br	0.790505	-1.010312	0.001926
Br142	Br	-0.347453	-1.148262	-0.348145
Br143	Br	-0.014119	-0.814928	-0.014812
Br144	Br	0.319214	-0.481595	0.318522
H145	H	-0.383928	-1.640554	-1.106355
H146	H	-0.050594	-1.307221	-0.773022
H147	H	0.282739	-0.973887	-0.439688
H148	H	-0.627785	-1.396660	-0.907246
H149	H	-0.294452	-1.063326	-0.573913
H150	H	0.038881	-0.729993	-0.240579
H151	H	-0.628099	-1.118607	-0.627960
H152	H	-0.294766	-0.785274	-0.294626
H153	H	0.038567	-0.451941	0.038707
Br154	Br	-0.664621	-0.889793	-0.664415
Br155	Br	-0.331288	-0.556459	-0.331082
Br156	Br	0.002046	-0.223126	0.002251
H157	H	-0.105016	-1.640472	-0.628230
H158	H	0.228318	-1.307139	-0.294896
H159	H	0.561651	-0.973805	0.038437
