data_functionalizedCrystal
_audit_creation_method	'MofGen! by Chris Wilmer'
_symmetry_space_group_name_H-M	'P1'
_symmetry_Int_Tables_number	1
_symmetry_cell_setting	triclinic
loop_
_symmetry_equiv_pos_as_xyz
  x,y,z
_cell_length_a	10.967874
_cell_length_b	11.026607
_cell_length_c	10.065875
_cell_angle_alpha	100.732634
_cell_angle_beta	69.229500
_cell_angle_gamma	96.380367
loop_
_atom_site_label
_atom_site_type_symbol
_atom_site_fract_x
_atom_site_fract_y
_atom_site_fract_z
O1	O	1.760378	0.088173	-0.527501
O2	O	1.389779	0.118101	-0.440344
O3	O	1.544364	-0.072636	-0.476697
O4	O	1.605794	0.278910	-0.491148
O5	O	1.514920	-0.036124	-0.242784
O6	O	1.360335	0.154613	-0.206431
O7	O	1.730934	0.124686	-0.293588
Zn8	Zn	1.540960	0.145447	-0.212871
Zn9	Zn	1.579754	0.097340	-0.521061
O10	O	1.576350	0.315423	-0.257235
C11	C	1.326875	0.136938	-0.312056
C12	C	1.183304	0.138655	-0.278291
C13	C	1.134549	0.120506	-0.384412
C14	C	0.986161	0.122280	-0.349517
C15	C	1.518309	-0.099267	-0.357078
C16	C	1.484527	-0.233015	-0.349140
C17	C	1.793839	0.105848	-0.421879
C18	C	1.937411	0.104129	-0.455653
N19	N	1.514493	0.178277	-0.002541
C20	C	1.602405	0.342053	-0.376857
C21	C	1.636188	0.475799	-0.384804
C22	C	1.542907	0.552276	-0.362867
C23	C	1.577822	0.690510	-0.371080
N24	N	1.606228	0.064499	-0.731392
C25	C	1.570535	0.108755	0.052059
C26	C	1.550178	0.134031	0.214013
H27	H	1.115190	0.155514	-0.161604
H28	H	1.633581	0.030517	-0.021092
C29	C	0.765021	0.142373	-0.187903
C30	C	0.894224	0.145023	-0.191979
H31	H	0.708265	0.156404	-0.090647
H32	H	0.756156	0.204987	-0.236674
H33	H	0.743013	0.063918	-0.233605
H34	H	0.916235	0.223482	-0.146286
H35	H	0.903094	0.082405	-0.143188
C36	C	1.338218	0.218727	0.308174
C37	C	1.465050	0.239648	0.312756
H38	H	1.285665	0.283926	0.369142
H39	H	1.340741	0.215607	0.212301
H40	H	1.302226	0.142467	0.339996
H41	H	1.501046	0.315905	0.280924
H42	H	1.462532	0.242782	0.408648
H43	H	1.683544	0.727361	-0.395993
H44	H	1.005521	0.087284	-0.572349
C45	C	1.265250	0.777046	-0.180887
C46	C	1.341809	0.717244	-0.315576
H47	H	1.177144	0.746341	-0.160174
H48	H	1.296665	0.761942	-0.109135
H49	H	1.270004	0.863414	-0.182019
H50	H	1.337063	0.630876	-0.314441
H51	H	1.310385	0.732338	-0.387347
H52	H	1.437199	0.515410	-0.338014
H53	H	1.741904	0.512656	-0.409716
C54	C	1.694547	-0.046090	0.028662
C55	C	1.691008	-0.041377	0.169953
H56	H	1.746789	-0.111524	-0.032216
H57	H	1.608431	-0.059969	0.025759
H58	H	1.730843	0.030023	-0.003384
H59	H	1.654702	-0.117487	0.202003
H60	H	1.777141	-0.027507	0.172862
C61	C	1.302537	0.262968	0.091624
C62	C	1.429370	0.283889	0.096206
H63	H	1.249984	0.328167	0.152592
H64	H	1.305060	0.259848	-0.004248
H65	H	1.266545	0.186707	0.123446
H66	H	1.465366	0.360146	0.064374
H67	H	1.426852	0.287023	0.192098
H68	H	1.202664	0.103661	-0.501099
