data_functionalizedCrystal
_audit_creation_method	'MofGen! by Chris Wilmer'
_symmetry_space_group_name_H-M	'P1'
_symmetry_Int_Tables_number	1
_symmetry_cell_setting	triclinic
loop_
_symmetry_equiv_pos_as_xyz
  x,y,z
_cell_length_a	16.109302
_cell_length_b	16.974813
_cell_length_c	15.186229
_cell_angle_alpha	86.341696
_cell_angle_beta	89.994701
_cell_angle_gamma	83.428323
loop_
_atom_site_label
_atom_site_type_symbol
_atom_site_fract_x
_atom_site_fract_y
_atom_site_fract_z
O1	O	1.103043	0.101636	-0.080509
O2	O	1.603043	0.601636	0.419491
O3	O	0.860970	0.114284	-0.081404
O4	O	1.360970	0.614284	0.418596
O5	O	0.988755	-0.007145	-0.072750
O6	O	1.488755	0.492855	0.427250
O7	O	0.975258	0.223065	-0.089163
O8	O	1.475258	0.723065	0.410837
O9	O	0.988747	-0.007147	0.073707
O10	O	1.488747	0.492853	0.573707
O11	O	0.860962	0.114282	0.065054
O12	O	1.360962	0.614282	0.565054
O13	O	1.103035	0.101635	0.065948
O14	O	1.603035	0.601635	0.565948
Zn15	Zn	0.981997	0.107958	0.088754
Zn16	Zn	1.481997	0.607958	0.588754
Zn17	Zn	0.982008	0.107961	-0.104210
Zn18	Zn	1.482008	0.607961	0.395790
O19	O	0.975250	0.223064	0.057294
O20	O	1.475250	0.723064	0.557294
C21	C	0.829992	0.113771	-0.008138
C22	C	1.329992	0.613771	0.491862
C23	C	0.737698	0.112235	-0.008025
C24	C	1.237698	0.612235	0.491975
C25	C	0.525355	0.108681	0.072053
C26	C	1.025355	0.608681	0.572053
C27	C	0.438636	0.107229	0.072154
C28	C	0.938636	0.607229	0.572154
C29	C	0.438656	0.107235	-0.087523
C30	C	0.938656	0.607235	0.412477
C31	C	0.525374	0.108682	-0.087622
C32	C	1.025374	0.608682	0.412378
C33	C	0.568721	0.109409	-0.007832
C34	C	1.068721	0.609409	0.492168
C35	C	0.395284	0.106510	-0.007632
C36	C	0.895284	0.606510	0.492368
C37	C	0.301260	0.104936	-0.007524
C38	C	0.801260	0.604936	0.492476
C39	C	0.662751	0.110981	-0.007939
C40	C	1.162751	0.610981	0.492061
C41	C	0.988237	-0.036604	0.002577
C42	C	1.488237	0.463396	0.502577
C43	C	0.986698	-0.124380	0.008830
C44	C	1.486698	0.375620	0.508830
C45	C	0.985981	-0.165612	-0.068066
C46	C	1.485981	0.334388	0.431934
C47	C	0.984529	-0.248087	-0.062188
C48	C	1.484529	0.251913	0.437812
C49	C	0.983799	-0.289329	0.020587
C50	C	1.483799	0.210671	0.520587
C51	C	0.984514	-0.248091	0.097488
C52	C	1.484514	0.251909	0.597488
C53	C	0.985960	-0.165617	0.091609
C54	C	1.485960	0.334383	0.591609
C55	C	0.979468	-0.535989	0.046729
C56	C	1.479468	-0.035989	0.546729
C57	C	0.978024	-0.618469	0.052602
C58	C	1.478024	-0.118469	0.552602
C59	C	0.978038	-0.618459	-0.107075
C60	C	1.478038	-0.118459	0.392925
C61	C	0.979489	-0.535985	-0.112946
C62	C	1.479489	-0.035985	0.387054
C63	C	0.980199	-0.494753	-0.036044
C64	C	1.480199	0.005247	0.463956
N65	N	0.982317	-0.373631	0.026597
N66	N	1.482317	0.126369	0.526597
N67	N	0.981674	-0.410451	-0.042055
N68	N	1.481674	0.089549	0.457945
C69	C	1.134013	0.102148	-0.007320
C70	C	1.634013	0.602148	0.492680
C71	C	1.226307	0.103684	-0.007438
C72	C	1.726307	0.603684	0.492562
C73	C	0.975767	0.252523	-0.018035
C74	C	1.475767	0.752523	0.481965
C75	C	0.977307	0.340299	-0.024293
C76	C	1.477307	0.840299	0.475707
N77	N	0.981995	0.107956	0.220447
N78	N	1.481995	0.607956	0.720447
N79	N	0.982016	0.107956	-0.235902
N80	N	1.482016	0.607956	0.264098
C81	C	1.038598	0.054206	0.450000
C82	C	1.538598	0.554206	0.950000
C83	C	1.038600	0.054204	0.542190
C84	C	1.538600	0.554204	1.042190
C85	C	0.925408	0.161709	0.534538
C86	C	1.425408	0.661709	1.034538
C87	C	0.925402	0.161707	0.442350
C88	C	1.425402	0.661707	0.942350
C89	C	0.982001	0.107956	0.400084
C90	C	1.482001	0.607956	0.900084
C91	C	0.982010	0.107957	0.584461
C92	C	1.482010	0.607957	1.084461
C93	C	0.982012	0.107955	0.684417
C94	C	1.482012	0.607955	1.184417
C95	C	0.981998	0.107956	0.300121
C96	C	1.481998	0.607956	0.800121
H97	H	0.403332	0.106637	0.137204
H98	H	0.903332	0.606637	0.637204
H99	H	0.403352	0.106644	-0.152485
H100	H	0.903352	0.606644	0.347515
N101	N	0.572104	0.109463	0.158111
N102	N	1.072104	0.609463	0.658111
H103	H	0.563806	0.060223	0.196521
H104	H	1.063806	0.560223	0.696521
H105	H	0.633602	0.110523	0.145857
H106	H	1.133602	0.610523	0.645857
H107	H	1.084685	0.010435	0.582830
H108	H	1.584685	0.510435	1.082830
H109	H	0.560684	0.109272	-0.152677
H110	H	1.060684	0.609272	0.347323
N111	N	0.977251	-0.662953	0.141886
N112	N	1.477251	-0.162953	0.641886
H113	H	0.976240	-0.721457	0.133938
H114	H	1.476240	-0.221457	0.633938
H115	H	1.029022	-0.654951	0.176166
H116	H	1.529022	-0.154951	0.676166
N117	N	0.986716	-0.121157	-0.157363
N118	N	1.486716	0.378843	0.342637
H119	H	0.935787	-0.080534	-0.163797
H120	H	1.435787	0.419466	0.336203
H121	H	1.038848	-0.093392	-0.162908
H122	H	1.538848	0.406608	0.337092
H123	H	1.084683	0.010437	0.415589
H124	H	1.584683	0.510437	0.915589
N125	N	0.983875	-0.292575	-0.145124
N126	N	1.483875	0.207425	0.354876
H127	H	0.984602	-0.253939	-0.198452
H128	H	1.484602	0.246061	0.301548
H129	H	1.034830	-0.333176	-0.145616
H130	H	1.534830	0.166824	0.354384
N131	N	0.864369	0.219680	0.580133
N132	N	1.364369	0.719680	1.080133
H133	H	0.896101	0.254700	0.615875
H134	H	1.396101	0.754700	1.115875
H135	H	0.828525	0.253677	0.534470
H136	H	1.328525	0.753677	1.034470
N137	N	0.980278	-0.491504	-0.202224
N138	N	1.480278	0.008496	0.297776
H139	H	0.979603	-0.530140	-0.250047
H140	H	1.479603	-0.030140	0.249953
H141	H	0.929364	-0.450862	-0.208598
H142	H	1.429364	0.049138	0.291402
N143	N	0.977271	-0.662929	-0.190014
N144	N	1.477271	-0.162929	0.309986
H145	H	0.976244	-0.721434	-0.173734
H146	H	1.476244	-0.221434	0.326266
H147	H	0.926010	-0.642089	-0.226361
H148	H	1.426010	-0.142089	0.273639
N149	N	0.980244	-0.491525	0.129669
N150	N	1.480244	0.008475	0.629669
H151	H	0.979569	-0.530169	0.182996
H152	H	1.479569	-0.030169	0.682996
H153	H	1.032360	-0.463730	0.131161
H154	H	1.532360	0.036270	0.631161
H155	H	0.983915	-0.281676	0.164885
H156	H	1.483915	0.218324	0.664885
H157	H	0.986532	-0.132045	0.154226
H158	H	1.486532	0.367955	0.654226
H159	H	0.879311	0.205477	0.401705
H160	H	1.379311	0.705477	0.901705
