data_functionalizedCrystal
_audit_creation_method	'MofGen! by Chris Wilmer'
_symmetry_space_group_name_H-M	'P1'
_symmetry_Int_Tables_number	1
_symmetry_cell_setting	triclinic
loop_
_symmetry_equiv_pos_as_xyz
  x,y,z
_cell_length_a	12.759401
_cell_length_b	18.050590
_cell_length_c	12.759401
_cell_angle_alpha	90.014675
_cell_angle_beta	90.004845
_cell_angle_gamma	90.020285
loop_
_atom_site_label
_atom_site_type_symbol
_atom_site_fract_x
_atom_site_fract_y
_atom_site_fract_z
Zn1	Zn	1.606058	-0.295736	0.594025
Zn2	Zn	1.605991	-0.419900	0.418332
Zn3	Zn	1.430410	-0.295732	0.418356
Zn4	Zn	1.430337	-0.419892	0.593966
O5	O	1.518199	-0.357815	0.506170
O6	O	1.753070	-0.312211	0.570734
O7	O	1.582702	-0.403431	0.271315
O8	O	1.453769	-0.191808	0.441694
O9	O	1.753021	-0.403434	0.441653
O10	O	1.582817	-0.191811	0.570757
O11	O	1.453704	-0.312205	0.271332
O12	O	1.283379	-0.312198	0.441636
O13	O	1.453644	-0.403421	0.740994
O14	O	1.283326	-0.403417	0.570656
O15	O	1.582746	-0.312203	0.741038
O16	O	1.582631	-0.523824	0.441596
O17	O	1.453579	-0.523818	0.570633
C18	C	1.245232	-0.357807	0.506143
C19	C	1.128455	-0.357821	0.506156
C20	C	1.518118	-0.550767	0.506128
C21	C	1.518180	-0.633313	0.506145
C22	C	0.963868	-0.405391	0.573267
C23	C	1.073592	-0.405390	0.573238
C24	C	1.073588	-0.310256	0.439092
C25	C	0.963866	-0.310262	0.439116
C26	C	0.963870	-0.460313	0.650718
C27	C	1.073594	-0.460312	0.650690
C28	C	1.588504	-0.832740	0.436073
C29	C	1.614144	-0.882088	0.531960
C30	C	1.518239	-0.784443	0.506187
C31	C	1.492706	-0.882177	0.410343
C32	C	1.518299	-0.930429	0.506219
C33	C	1.543929	-0.832704	0.602125
C34	C	1.422446	-0.832789	0.480443
C35	C	1.448050	-0.882115	0.576396
C36	C	1.518208	-0.700345	0.506167
C37	C	1.518330	-1.014525	0.506250
C38	C	1.792232	-0.357824	0.506198
C39	C	1.909009	-0.357828	0.506209
C40	C	1.518194	-0.357812	0.780203
C41	C	1.518192	-0.357810	0.896980
C42	C	1.518309	-0.164110	0.506235
C43	C	1.518355	-0.081564	0.506263
C44	C	1.585409	-0.310323	0.951866
C45	C	1.585403	-0.310325	1.061590
C46	C	1.450960	-0.405307	1.061532
C47	C	1.450962	-0.405301	0.951810
C48	C	1.663032	-0.255488	0.951901
C49	C	1.663026	-0.255490	1.061625
C50	C	1.518192	-0.357831	1.233203
C51	C	1.518184	-0.357818	1.116426
H52	H	0.919204	-0.271540	0.384499
H53	H	1.107593	-0.514919	0.621400
H54	H	0.934065	-0.517810	0.628791
H55	H	1.103405	-0.444989	0.732091
Cl56	Cl	1.297363	-0.799329	0.446752
H57	H	1.471086	-0.903908	0.329275
H58	H	1.647945	-0.811060	0.376841
H59	H	1.396221	-0.443971	1.106188
H60	H	1.641277	-0.197967	0.922150
H61	H	0.929870	-0.439795	0.728071
Cl62	Cl	1.739260	-0.915509	0.565630
Cl63	Cl	1.142560	-0.250462	0.354751
H64	H	1.744387	-0.270900	1.091405
Cl65	Cl	1.366440	-0.464989	0.882813
H66	H	1.740312	-0.276096	0.917866
H67	H	1.565469	-0.811066	0.683263
Cl68	Cl	1.356348	-0.915380	0.668063
H69	H	1.633908	-0.200852	1.095677
