data_functionalizedCrystal
_audit_creation_method	'MofGen! by Chris Wilmer'
_symmetry_space_group_name_H-M	'P1'
_symmetry_Int_Tables_number	1
_symmetry_cell_setting	triclinic
loop_
_symmetry_equiv_pos_as_xyz
  x,y,z
_cell_length_a	19.188930
_cell_length_b	11.792254
_cell_length_c	10.268362
_cell_angle_alpha	89.999156
_cell_angle_beta	89.981535
_cell_angle_gamma	83.671690
loop_
_atom_site_label
_atom_site_type_symbol
_atom_site_fract_x
_atom_site_fract_y
_atom_site_fract_z
O1	O	0.926951	0.141694	-0.108707
O2	O	0.723749	0.160768	-0.108616
O3	O	0.830277	-0.014013	-0.108669
O4	O	0.820423	0.316474	-0.108653
O5	O	0.830267	-0.014020	0.107931
O6	O	0.723739	0.160761	0.107985
O7	O	0.926942	0.141687	0.107894
Cu8	Cu	0.825340	0.151223	0.127717
Cu9	Cu	0.825351	0.151231	-0.128439
O10	O	0.820414	0.316467	0.107948
C11	C	0.697729	0.160147	-0.000304
C12	C	0.620214	0.158292	-0.000270
C13	C	0.575874	0.260848	-0.000285
C14	C	0.503040	0.259106	-0.000300
C15	C	0.474550	0.154803	-0.000325
C16	C	0.518900	0.052234	-0.000302
C17	C	0.591732	0.053979	-0.000275
N18	N	0.366119	0.075078	-0.074100
N19	N	0.296931	0.073428	-0.074129
C20	C	0.255112	0.149539	-0.000405
N21	N	0.285092	0.227381	0.073333
N22	N	0.354286	0.229035	0.073356
C23	C	0.395577	0.152899	-0.000354
C24	C	0.131796	0.250213	-0.000434
C25	C	0.058962	0.248466	-0.000440
C26	C	0.074823	0.041591	-0.000456
C27	C	0.147656	0.043340	-0.000436
C28	C	0.176138	0.147654	-0.000432
C29	C	0.829651	-0.056298	-0.000373
C30	C	0.827793	-0.182283	-0.000385
C31	C	0.952961	0.142308	-0.000421
C32	C	1.030476	0.144162	-0.000463
C33	C	0.821039	0.358752	-0.000352
C34	C	0.822897	0.484737	-0.000348
N35	N	0.825337	0.151216	0.307883
C36	C	0.824407	0.587051	-0.000356
C37	C	0.826294	0.715409	-0.000372
N38	N	0.825359	0.151229	-0.308605
C39	C	0.825347	0.151229	0.573553
C40	C	0.825339	0.151225	0.425715
H41	H	0.466932	0.342621	-0.000309
H42	H	0.599059	0.345788	-0.000284
H43	H	0.183759	-0.040172	-0.000431
N44	N	0.637019	-0.050795	-0.000253
N45	N	0.611577	-0.143919	-0.000262
H46	H	0.643561	-0.217918	-0.000247
H47	H	0.051627	-0.043335	-0.000557
N48	N	0.013656	0.353220	-0.000449
N49	N	-0.051371	0.351649	-0.000456
H50	H	-0.083370	0.425633	-0.000456
N51	N	0.489813	-0.054320	-0.000344
N52	N	0.529415	-0.145884	-0.000337
H53	H	0.508874	-0.221142	-0.000362
H54	H	0.154988	0.335151	-0.000411
