data_functionalizedCrystal
_audit_creation_method	'MofGen! by Chris Wilmer'
_symmetry_space_group_name_H-M	'P1'
_symmetry_Int_Tables_number	1
_symmetry_cell_setting	triclinic
loop_
_symmetry_equiv_pos_as_xyz
  x,y,z
_cell_length_a	14.628931
_cell_length_b	14.628931
_cell_length_c	14.628931
_cell_angle_alpha	90.000000
_cell_angle_beta	60.000028
_cell_angle_gamma	59.999836
loop_
_atom_site_label
_atom_site_type_symbol
_atom_site_fract_x
_atom_site_fract_y
_atom_site_fract_z
Zr1	Zr	1.000578	0.880617	-0.119961
O2	O	1.191284	0.734656	-0.265923
O3	O	0.809872	0.925362	-0.075216
O4	O	1.000577	0.925362	-0.265922
O5	O	1.000579	0.734656	0.075215
O6	O	1.000577	1.075794	-0.265922
O7	O	1.000578	0.734656	-0.075217
O8	O	0.659439	1.075795	0.075216
O9	O	1.341716	0.734656	-0.265923
O10	O	0.888311	1.056711	-0.056133
O11	O	0.888312	0.944445	0.056132
O12	O	1.112843	0.944445	-0.168399
O13	O	1.112844	0.832179	-0.056134
Zr14	Zr	1.000578	1.120539	0.119960
Zr15	Zr	1.000577	1.120539	-0.119961
Zr16	Zr	1.000578	0.880617	0.119960
Zr17	Zr	1.240500	0.880617	-0.119962
Zr18	Zr	0.760656	1.120539	0.119961
O19	O	1.191284	1.075793	0.075215
O20	O	1.191283	1.075794	-0.265922
O21	O	1.191285	0.734655	0.075214
O22	O	0.809872	1.266500	0.265921
O23	O	0.809871	1.266500	-0.075216
O24	O	0.809873	0.925362	0.265921
O25	O	1.000577	1.266500	-0.075216
O26	O	1.000578	1.075794	0.265921
O27	O	1.000579	0.925361	0.265920
O28	O	1.000577	1.266500	0.075216
O29	O	1.341715	0.925362	-0.265923
O30	O	0.659440	1.075794	0.265921
O31	O	0.659439	1.266500	0.265922
O32	O	0.659439	1.266500	0.075216
O33	O	1.341716	0.734655	-0.075218
O34	O	1.341716	0.925361	-0.075217
O35	O	0.888312	1.056711	0.168398
O36	O	0.888311	1.168977	0.056133
O37	O	1.112843	1.056711	-0.056133
O38	O	1.112844	0.944445	0.056132
C39	C	0.700472	1.000578	0.000000
C40	C	0.598619	1.000579	0.000000
C41	C	0.631969	0.921819	-0.078759
C42	C	0.526700	0.921818	-0.078761
C43	C	1.000578	0.700472	-0.000001
C44	C	1.000579	0.598619	-0.000001
C45	C	0.889196	0.608901	0.055690
C46	C	0.889194	0.503632	0.055691
C47	C	1.300683	1.000577	-0.000001
C48	C	1.402537	1.000577	-0.000001
C49	C	1.000577	1.000578	-0.300105
C50	C	1.000576	1.000578	-0.401958
C51	C	1.000577	1.300684	-0.000000
C52	C	1.000576	1.402537	-0.000000
C53	C	1.111959	0.944887	-0.503059
C54	C	1.111962	0.944886	-0.608330
C55	C	1.000578	1.000577	0.300104
C56	C	1.000579	1.000577	0.401957
C57	C	0.700471	1.300684	0.000000
C58	C	0.598617	1.402537	0.000001
C59	C	0.700473	1.000578	0.300105
C60	C	0.598620	1.000578	0.401958
C61	C	0.700472	1.300684	0.300105
C62	C	0.598619	1.402537	0.401958
C63	C	1.300683	0.700472	-0.300106
C64	C	1.402537	0.598619	-0.401960
C65	C	1.300684	0.700472	-0.000002
C66	C	1.402538	0.598618	-0.000002
C67	C	1.300683	1.000578	-0.300106
C68	C	1.402535	1.000578	-0.401959
C69	C	0.553208	1.392256	-0.055690
C70	C	0.447937	1.497525	-0.055691
C71	C	0.553211	1.056270	0.503058
C72	C	0.447940	1.056271	0.608330
C73	C	0.553209	1.503638	0.391677
C74	C	0.447938	1.608910	0.496946
H75	H	0.374149	1.068005	0.067435
F76	F	1.236607	0.882556	-0.721693
F77	F	0.563799	0.833675	-0.166894
F78	F	0.453563	0.938261	0.484685
H79	H	0.793839	0.695638	0.103374
H80	H	0.408883	1.695640	0.488316
H81	H	0.441573	1.511895	0.606678
F82	F	0.771152	0.833686	-0.166899
H83	H	0.492133	1.068008	0.067426
F84	F	1.125227	0.391244	-0.062332
F85	F	1.125222	0.485250	-0.062317
H86	H	0.408882	1.488897	-0.103367
F87	F	0.764548	0.514916	0.118008
H88	H	1.207316	0.897214	-0.511679
H89	H	0.559566	0.952895	0.393338
F90	F	0.604262	1.514912	0.278308
F91	F	0.547578	1.391262	0.515327
H92	H	0.905215	1.048253	-0.511316
F93	F	0.875933	1.062907	-0.390683
H94	H	0.592271	1.305519	-0.103374
H95	H	0.559563	1.489274	0.047675
F96	F	0.453560	1.609912	0.062332
H97	H	0.592273	1.103943	0.511679
H98	H	0.408888	1.103952	0.695060
