data_functionalizedCrystal
_audit_creation_method	'MofGen! by Chris Wilmer'
_symmetry_space_group_name_H-M	'P1'
_symmetry_Int_Tables_number	1
_symmetry_cell_setting	triclinic
loop_
_symmetry_equiv_pos_as_xyz
  x,y,z
_cell_length_a	6.394989
_cell_length_b	17.699083
_cell_length_c	16.776229
_cell_angle_alpha	90.001114
_cell_angle_beta	90.003593
_cell_angle_gamma	84.890363
loop_
_atom_site_label
_atom_site_type_symbol
_atom_site_fract_x
_atom_site_fract_y
_atom_site_fract_z
O1	O	-0.264131	-1.006774	-0.066171
O2	O	-0.298495	-0.786746	-0.066197
O3	O	0.022767	-0.899883	-0.066184
O4	O	-0.585393	-0.893637	-0.066184
O5	O	0.022786	-0.899868	0.066392
O6	O	-0.298476	-0.786731	0.066380
O7	O	-0.264112	-1.006758	0.066405
Zn8	Zn	-0.281290	-0.896742	0.087442
Zn9	Zn	-0.281316	-0.896763	-0.087233
O10	O	-0.585374	-0.893621	0.066393
C11	C	-0.297254	-0.758529	0.000088
C12	C	-0.293560	-0.674473	0.000078
C13	C	-0.265353	-1.034976	0.000119
C14	C	-0.269047	-1.119031	0.000123
N15	N	-0.281271	-0.896733	0.206653
C16	C	0.100592	-0.898640	0.000101
C17	C	0.336808	-0.894866	0.000100
N18	N	-0.281319	-0.896777	-0.206444
C19	C	-0.482134	-0.627777	0.000079
C20	C	-0.478651	-0.548798	0.000089
C21	C	-0.286591	-0.516517	0.000093
C22	C	-0.098003	-0.563220	0.000095
C23	C	-0.101488	-0.642197	0.000091
C24	C	-0.083942	-0.244713	0.000115
C25	C	-0.080470	-0.165730	0.000117
C26	C	-0.461104	-0.151314	0.000113
C27	C	-0.464590	-0.230291	0.000109
C28	C	-0.276002	-0.276987	0.000115
C29	C	-0.279782	-0.362625	0.000105
C30	C	-0.282810	-0.430881	0.000097
C31	C	-0.139075	-0.946847	0.248376
C32	C	-0.139073	-0.946851	0.331828
C33	C	-0.281280	-0.896745	0.373556
C34	C	-0.423483	-0.846626	0.331828
C35	C	-0.423473	-0.846619	0.248377
C36	C	-0.423524	-0.846654	0.668375
C37	C	-0.423527	-0.846667	0.751831
C38	C	-0.139124	-0.946886	0.751826
C39	C	-0.139114	-0.946879	0.668375
C40	C	-0.281309	-0.896758	0.626654
C41	C	-0.281307	-0.896753	0.536166
C42	C	-0.281294	-0.896753	0.464043
H43	H	-0.638531	-0.654053	0.000075
H44	H	-0.023334	-0.987695	0.785804
H45	H	-0.539308	-0.805845	0.634412
H46	H	-0.620984	-0.256569	0.000102
H47	H	-0.023323	-0.987682	0.634403
H48	H	-0.023285	-0.987656	0.365798
C49	C	-0.668561	-0.099947	0.000116
C50	C	-0.826055	-0.104866	0.068953
C51	C	-1.033505	-0.053502	0.068952
C52	C	-1.083461	0.002780	0.000113
C53	C	-0.925963	0.007702	-0.068729
C54	C	-0.718513	-0.043662	-0.068728
H55	H	-0.789078	-0.146532	0.119916
H56	H	-1.150095	-0.057146	0.119914
H57	H	-1.237028	0.040803	0.000113
H58	H	-0.962940	0.049368	-0.119692
H59	H	-0.601923	-0.040018	-0.119691
C60	C	-0.579952	-0.791542	0.797735
C61	C	-0.498519	-0.732903	0.855121
C62	C	-0.654935	-0.677782	0.901025
C63	C	-0.892784	-0.681301	0.889542
C64	C	-0.974228	-0.739943	0.832153
C65	C	-0.817812	-0.795064	0.786249
H66	H	-0.322439	-0.730295	0.863624
H67	H	-0.594644	-0.634371	0.943509
H68	H	-1.008573	-0.640498	0.923523
H69	H	-1.150309	-0.742551	0.823650
H70	H	-0.878104	-0.838475	0.743766
H71	H	0.075937	-0.139450	0.000122
C72	C	-0.579916	-0.791508	0.377724
C73	C	-0.580044	-0.791549	0.469517
C74	C	-0.736488	-0.736430	0.515410
C75	C	-0.892804	-0.681271	0.469512
C76	C	-0.892682	-0.681228	0.377714
C77	C	-0.736238	-0.736346	0.331820
H78	H	-0.464325	-0.832383	0.503498
H79	H	-0.736578	-0.736462	0.583365
H80	H	-1.008613	-0.640469	0.503485
H81	H	-1.008401	-0.640394	0.343732
H82	H	-0.736148	-0.736314	0.263865
H83	H	-0.632207	-0.510780	0.000089
H84	H	0.052069	-0.680217	0.000090
H85	H	0.069618	-0.282724	0.000121
H86	H	0.058376	-0.536930	0.000110
H87	H	-0.023283	-0.987652	0.214406
H88	H	-0.539261	-0.805811	0.214407
