data_functionalizedCrystal
_audit_creation_method	'MofGen! by Chris Wilmer'
_symmetry_space_group_name_H-M	'P1'
_symmetry_Int_Tables_number	1
_symmetry_cell_setting	triclinic
loop_
_symmetry_equiv_pos_as_xyz
  x,y,z
_cell_length_a	16.959454
_cell_length_b	17.077404
_cell_length_c	17.077396
_cell_angle_alpha	89.980499
_cell_angle_beta	90.018257
_cell_angle_gamma	89.996935
loop_
_atom_site_label
_atom_site_type_symbol
_atom_site_fract_x
_atom_site_fract_y
_atom_site_fract_z
Zn1	Zn	0.314677	1.200164	-0.443899
Zn2	Zn	0.814677	1.700164	0.056101
Zn3	Zn	0.446865	1.200117	-0.312656
Zn4	Zn	0.946865	1.700117	0.187344
Zn5	Zn	0.314704	1.068896	-0.312646
Zn6	Zn	0.814704	1.568896	0.187354
Zn7	Zn	0.446818	1.068910	-0.443880
Zn8	Zn	0.946818	1.568910	0.056120
O9	O	0.380766	1.134522	-0.378270
O10	O	0.880766	1.634522	0.121730
O11	O	0.332220	1.310005	-0.426501
O12	O	0.832220	1.810005	0.073499
O13	O	0.429364	1.182685	-0.202808
O14	O	0.929364	1.682685	0.297192
O15	O	0.204090	1.086323	-0.330061
O16	O	0.704090	1.586323	0.169939
O17	O	0.429338	1.309970	-0.330077
O18	O	0.929338	1.809970	0.169923
O19	O	0.204070	1.182765	-0.426492
O20	O	0.704070	1.682765	0.073508
O21	O	0.332267	1.086277	-0.202801
O22	O	0.832267	1.586277	0.297199
O23	O	0.332222	0.959051	-0.330043
O24	O	0.832222	1.459051	0.169957
O25	O	0.429258	1.086346	-0.553729
O26	O	0.929258	1.586346	-0.053729
O27	O	0.429285	0.959061	-0.426459
O28	O	0.929285	1.459061	0.073541
O29	O	0.332174	1.182778	-0.553743
O30	O	0.832174	1.682778	-0.053743
O31	O	0.557469	1.182698	-0.330059
O32	O	1.057469	1.682698	0.169941
O33	O	0.557435	1.086301	-0.426468
O34	O	1.057435	1.586301	0.073532
C35	C	0.380752	0.930574	-0.378248
C36	C	0.880752	1.430574	0.121752
C37	C	0.380764	0.843324	-0.378258
C38	C	0.880764	1.343324	0.121742
C39	C	0.174598	1.134547	-0.378278
C40	C	0.674598	1.634547	0.121722
C41	C	0.086741	1.134558	-0.378281
C42	C	0.586741	1.634558	0.121719
C43	C	0.431381	0.802360	-0.428381
C44	C	0.931381	1.302360	0.071619
C45	C	0.431383	0.720379	-0.428394
C46	C	0.931383	1.220379	0.071606
C47	C	0.380771	0.679365	-0.378278
C48	C	0.880771	1.179365	0.121722
C49	C	0.330149	0.720335	-0.328153
C50	C	0.830149	1.220335	0.171847
C51	C	0.330144	0.802314	-0.328145
C52	C	0.830144	1.302314	0.171855
C53	C	0.330164	0.549465	-0.328172
C54	C	0.830164	1.049465	0.171828
C55	C	0.330170	0.467480	-0.328178
C56	C	0.830170	0.967480	0.171822
C57	C	0.431404	0.467530	-0.428421
C58	C	0.931404	0.967530	0.071579
C59	C	0.431399	0.549509	-0.428413
C60	C	0.931399	1.049509	0.071587
C61	C	0.380777	0.590474	-0.378286
C62	C	0.880777	1.090474	0.121714
C63	C	0.045455	1.184778	-0.428488
C64	C	0.545455	1.684778	0.071512
C65	C	0.045474	1.084345	-0.328081
C66	C	0.545474	1.584345	0.171919
C67	C	-0.037072	1.084351	-0.328085
C68	C	0.462928	1.584351	0.171915
C69	C	-0.078358	1.134570	-0.378292
C70	C	0.421642	1.634570	0.121708
C71	C	-0.037099	1.184783	-0.428495
C72	C	0.462901	1.684783	0.071505
C73	C	-0.078338	1.034133	-0.277888
C74	C	0.421662	1.534133	0.222112
C75	C	-0.160889	1.034136	-0.277891
C76	C	0.339111	1.534136	0.222109
C77	C	-0.202177	1.084360	-0.328094
C78	C	0.297823	1.584360	0.171906
C79	C	-0.160912	1.134576	-0.378299
C80	C	0.339088	1.634576	0.121701
C81	C	-0.202198	1.184795	-0.428506
C82	C	0.297802	1.684795	0.071494
C83	C	-0.160935	1.235015	-0.478708
C84	C	0.339065	1.735015	0.021292
C85	C	-0.078386	1.235007	-0.478699
C86	C	0.421614	1.735007	0.021301
C87	C	-0.284725	1.084368	-0.328103
C88	C	0.215275	1.584368	0.171897
C89	C	-0.284752	1.184800	-0.428513
C90	C	0.215248	1.684800	0.071487
C91	C	0.586132	1.134517	-0.378280
C92	C	1.086132	1.634517	0.121720
C93	C	0.673989	1.134587	-0.378310
C94	C	1.173989	1.634587	0.121690
C95	C	0.380708	1.134569	-0.583014
C96	C	0.880708	1.634569	-0.083014
C97	C	0.380683	1.134589	-0.670264
C98	C	0.880683	1.634589	-0.170264
C99	C	0.380781	1.339266	-0.378292
C100	C	0.880781	1.839266	0.121708
C101	C	0.380787	1.426516	-0.378302
C102	C	0.880787	1.926516	0.121698
C103	C	0.330127	1.184803	-0.711263
C104	C	0.830127	1.684803	-0.211263
C105	C	0.330101	1.184813	-0.793244
C106	C	0.830101	1.684813	-0.293244
C107	C	0.380635	1.134612	-0.834224
C108	C	0.880635	1.634612	-0.334224
C109	C	0.431192	1.084392	-0.793219
C110	C	0.931192	1.584392	-0.293219
C111	C	0.431214	1.084379	-0.711240
C112	C	0.931214	1.584379	-0.211240
C113	C	0.431145	1.084424	-0.964090
C114	C	0.931145	1.584424	-0.464090
C115	C	0.431124	1.084437	-1.046074
C116	C	0.931124	1.584437	-0.546074
C117	C	0.330032	1.184857	-1.046093
C118	C	0.830032	1.684857	-0.546093
C119	C	0.330053	1.184844	-0.964114
C120	C	0.830053	1.684844	-0.464114
C121	C	0.380612	1.134626	-0.923115
C122	C	0.880612	1.634626	-0.423115
C123	C	0.380767	1.134519	-0.174322
C124	C	0.880767	1.634519	0.325678
C125	C	0.380569	1.134651	-0.087073
C126	C	0.880569	1.634651	0.412927
H127	H	0.472598	0.835748	-0.469189
H128	H	0.972598	1.335748	0.030811
H129	H	0.472335	1.043515	-0.826592
H130	H	0.972335	1.543515	-0.326592
Cl131	Cl	-0.026508	1.298131	-0.541807
Cl132	Cl	0.473492	1.798131	-0.041807
Cl133	Cl	0.266524	0.600961	-0.265154
Cl134	Cl	0.766524	1.100961	0.234846
H135	H	0.079055	1.225668	-0.469358
H136	H	0.579055	1.725668	0.030642
H137	H	0.288935	1.225704	-0.826621
H138	H	0.788935	1.725704	-0.326621
H139	H	0.472601	0.687030	-0.469209
H140	H	0.972601	1.187030	0.030791
Cl141	Cl	0.266517	0.668773	-0.265155
Cl142	Cl	0.766517	1.168773	0.234845
Cl143	Cl	0.266506	0.853812	-0.265131
Cl144	Cl	0.766506	1.353812	0.234869
Cl145	Cl	0.495031	0.601070	-0.491411
Cl146	Cl	0.995031	1.101070	0.008589
H147	H	0.288979	1.225685	-0.677903
H148	H	0.788979	1.725685	-0.177903
H149	H	-0.194481	0.993245	-0.237014
H150	H	0.305519	1.493245	0.262986
H151	H	0.472619	0.434173	-0.469238
H152	H	0.972619	0.934173	0.030762
H153	H	0.288948	0.434088	-0.287379
H154	H	0.788948	0.934088	0.212621
Cl155	Cl	-0.336647	1.247941	-0.491631
Cl156	Cl	0.163353	1.747941	0.008369
H157	H	-0.194559	1.275901	-0.519590
H158	H	0.305441	1.775901	-0.019590
Cl159	Cl	0.097377	1.021205	-0.264978
Cl160	Cl	0.597377	1.521205	0.235022
H161	H	0.472272	1.043557	-1.079438
H162	H	0.972272	1.543557	-0.579438
Cl163	Cl	-0.336596	1.021238	-0.265000
Cl164	Cl	0.163404	1.521238	0.235000
Cl165	Cl	-0.026433	0.970989	-0.214790
Cl166	Cl	0.473567	1.470989	0.285210
H167	H	0.288909	1.225727	-0.930750
H168	H	0.788909	1.725727	-0.430750
H169	H	0.288863	1.225746	-1.079478
H170	H	0.788863	1.725746	-0.579478
Cl171	Cl	0.494705	1.021290	-0.912549
Cl172	Cl	0.994705	1.521290	-0.412549
H173	H	0.472374	1.043482	-0.677860
H174	H	0.972374	1.543482	-0.177860
