data_functionalizedCrystal
_audit_creation_method	'MofGen! by Chris Wilmer'
_symmetry_space_group_name_H-M	'P1'
_symmetry_Int_Tables_number	1
_symmetry_cell_setting	triclinic
loop_
_symmetry_equiv_pos_as_xyz
  x,y,z
_cell_length_a	6.394989
_cell_length_b	19.288864
_cell_length_c	18.366186
_cell_angle_alpha	90.022894
_cell_angle_beta	90.003129
_cell_angle_gamma	84.816979
loop_
_atom_site_label
_atom_site_type_symbol
_atom_site_fract_x
_atom_site_fract_y
_atom_site_fract_z
O1	O	-0.260546	-0.923905	-0.060779
O2	O	-0.295693	-0.721988	-0.060729
O3	O	0.025972	-0.825812	-0.060755
O4	O	-0.582211	-0.820080	-0.060753
O5	O	0.025987	-0.825794	0.060344
O6	O	-0.295677	-0.721970	0.060370
O7	O	-0.260530	-0.923886	0.060320
Zn8	Zn	-0.278101	-0.822925	0.079572
Zn9	Zn	-0.278122	-0.822949	-0.079981
O10	O	-0.582195	-0.820062	0.060347
C11	C	-0.294554	-0.696092	-0.000173
C12	C	-0.291159	-0.618955	-0.000154
C13	C	-0.261669	-0.949783	-0.000238
C14	C	-0.265064	-1.026920	-0.000261
N15	N	-0.278086	-0.822914	0.188464
C16	C	0.103790	-0.824670	-0.000208
C17	C	0.339993	-0.821206	-0.000208
N18	N	-0.278121	-0.822966	-0.188872
C19	C	-0.479898	-0.576107	-0.000164
C20	C	-0.476708	-0.503629	-0.000173
C21	C	-0.284770	-0.474001	-0.000185
C22	C	-0.096007	-0.516859	-0.000170
C23	C	-0.099202	-0.589335	-0.000154
C24	C	-0.133890	-0.364268	-0.042636
C25	C	-0.130704	-0.291792	-0.042656
C26	C	-0.274908	-0.250459	-0.000229
C27	C	-0.422335	-0.281609	0.042209
C28	C	-0.425530	-0.354086	0.042225
C29	C	-0.281284	-0.395413	-0.000201
C30	C	-0.460201	-0.129022	-0.000247
C31	C	-0.457004	-0.056542	-0.000251
C32	C	-0.076297	-0.069774	-0.000255
C33	C	-0.079500	-0.142252	-0.000244
C34	C	-0.271458	-0.171871	-0.000244
C35	C	-0.135722	-0.868903	0.226552
C36	C	-0.135713	-0.868908	0.302780
C37	C	-0.278103	-0.822929	0.340916
C38	C	-0.420477	-0.776931	0.302818
C39	C	-0.420469	-0.776923	0.226592
C40	C	-0.468405	-0.815495	0.461679
C41	C	-0.468416	-0.815508	0.537904
C42	C	-0.278129	-0.822949	0.576024
C43	C	-0.087823	-0.830393	0.537910
C44	C	-0.087814	-0.830385	0.461683
C45	C	-0.278127	-0.822932	0.423571
C46	C	-0.135744	-0.868946	0.696767
C47	C	-0.135732	-0.868946	0.772997
C48	C	-0.420514	-0.776973	0.773034
C49	C	-0.420508	-0.776970	0.696806
C50	C	-0.278125	-0.822960	0.658677
H51	H	-0.636205	-0.600218	-0.000165
Cl52	Cl	-0.701514	-0.166261	-0.000239
H53	H	-0.019779	-0.906359	0.333798
Cl54	Cl	0.043266	-0.926761	0.820883
Cl55	Cl	-0.610848	-0.393245	0.095576
H56	H	-0.536400	-0.739472	0.195580
H57	H	-0.623370	-0.809423	0.430648
Cl58	Cl	0.151412	-0.839754	0.585823
H59	H	-0.630407	-0.468735	-0.000179
H60	H	-0.536443	-0.739533	0.804083
Cl61	Cl	0.165000	-0.032535	-0.000262
H62	H	0.074192	-0.177139	-0.000239
Cl63	Cl	-0.603636	-0.229656	0.095550
H64	H	-0.610704	-0.021656	-0.000255
Cl65	Cl	0.145287	-0.479614	-0.000181
H66	H	-0.010668	-0.266435	-0.077214
Cl67	Cl	0.043261	-0.926758	0.648833
H68	H	0.067140	-0.836444	0.430654
H69	H	0.054497	-0.624223	-0.000146
H70	H	-0.536442	-0.739523	0.665792
Cl71	Cl	0.043279	-0.926715	0.178620
H72	H	-0.016457	-0.397916	-0.077190
Cl73	Cl	-0.707655	-0.806155	0.585811
Cl74	Cl	-0.599475	-0.719127	0.350759
