data_functionalizedCrystal
_audit_creation_method	'MofGen! by Chris Wilmer'
_symmetry_space_group_name_H-M	'P1'
_symmetry_Int_Tables_number	1
_symmetry_cell_setting	triclinic
loop_
_symmetry_equiv_pos_as_xyz
  x,y,z
_cell_length_a	11.026607
_cell_length_b	15.944545
_cell_length_c	9.482900
_cell_angle_alpha	99.332832
_cell_angle_beta	78.636152
_cell_angle_gamma	96.041094
loop_
_atom_site_label
_atom_site_type_symbol
_atom_site_fract_x
_atom_site_fract_y
_atom_site_fract_z
O1	O	1.629099	0.341445	-0.120926
O2	O	1.275790	0.301392	-0.120925
O3	O	1.462094	0.200604	-0.120908
O4	O	1.442795	0.442233	-0.120943
O5	O	1.424251	0.221182	0.120881
O6	O	1.237948	0.321970	0.120864
O7	O	1.591256	0.362022	0.120863
Cu8	Cu	1.411147	0.343875	0.142941
Cu9	Cu	1.455900	0.319540	-0.143003
O10	O	1.404953	0.462811	0.120846
C11	C	1.211658	0.304292	-0.000030
C12	C	1.076942	0.282266	-0.000028
C13	C	1.442372	0.179478	-0.000012
C14	C	1.439973	0.085869	-0.000008
C15	C	1.003141	0.343085	-0.000038
C16	C	0.863906	0.320320	-0.000037
C17	C	1.317329	-0.203306	-0.000037
C18	C	1.395119	-0.153928	-0.119253
C19	C	1.431426	-0.251071	-0.000049
C20	C	1.357840	-0.133663	0.119132
C21	C	1.435619	-0.085521	-0.000027
C22	C	1.509200	-0.202934	-0.119364
C23	C	1.471888	-0.182665	0.119129
C24	C	1.549766	-0.133310	-0.000116
C25	C	1.429007	-0.346440	-0.000064
C26	C	1.438048	0.009846	-0.000023
C27	C	1.655389	0.359122	-0.000035
C28	C	1.790106	0.381148	-0.000046
C29	C	1.424675	0.483937	-0.000053
C30	C	1.427075	0.577544	-0.000066
N31	N	1.379679	0.360992	0.344058
N32	N	1.487377	0.302418	-0.344120
C33	C	1.446610	0.324583	0.416263
C34	C	1.420436	0.338832	0.583678
H35	H	1.043036	0.412007	-0.000040
H36	H	1.564057	0.260691	0.593762
H37	H	0.829993	0.450076	-0.000047
H38	H	1.343748	0.380552	0.645796
H39	H	1.362708	-0.140855	-0.220041
H40	H	0.824021	0.251391	-0.000064
H41	H	1.037052	0.213340	-0.000056
H42	H	1.219088	-0.233822	-0.000153
H43	H	1.573141	-0.233048	-0.220262
H44	H	1.302995	0.402709	0.406181
H45	H	1.504255	-0.195759	0.219920
H46	H	1.293861	-0.103458	0.219917
H47	H	1.648112	-0.102959	-0.000184
H48	H	1.523285	0.282858	0.354142
