data_functionalizedCrystal
_audit_creation_method	'MofGen! by Chris Wilmer'
_symmetry_space_group_name_H-M	'P1'
_symmetry_Int_Tables_number	1
_symmetry_cell_setting	triclinic
loop_
_symmetry_equiv_pos_as_xyz
  x,y,z
_cell_length_a	14.560438
_cell_length_b	14.560438
_cell_length_c	14.560438
_cell_angle_alpha	60.001909
_cell_angle_beta	60.000378
_cell_angle_gamma	90.000844
loop_
_atom_site_label
_atom_site_type_symbol
_atom_site_fract_x
_atom_site_fract_y
_atom_site_fract_z
Zr1	Zr	0.884754	-0.120512	1.005288
O2	O	0.738107	-0.267153	1.196883
O3	O	0.929709	-0.075561	0.813688
O4	O	0.929708	-0.267158	1.005286
O5	O	0.738109	0.075583	1.005288
O6	O	1.080846	-0.267159	1.005288
O7	O	0.738108	-0.075556	1.005286
O8	O	1.080848	0.075574	0.662556
O9	O	0.738108	-0.267150	1.348021
O10	O	1.061675	-0.056387	0.892499
O11	O	0.948882	0.056406	0.892499
O12	O	0.948882	-0.169175	1.118080
O13	O	0.836089	-0.056382	1.118080
Zr14	Zr	1.125803	0.120535	1.005296
Zr15	Zr	1.125802	-0.120513	1.005292
Zr16	Zr	0.884755	0.120536	1.005292
Zr17	Zr	0.884754	-0.120507	1.246335
Zr18	Zr	1.125803	0.120530	0.764248
O19	O	1.080849	0.075584	1.196895
O20	O	1.080847	-0.267156	1.196889
O21	O	0.738109	0.075586	1.196889
O22	O	1.272450	0.267176	0.813700
O23	O	1.272448	-0.075563	0.813694
O24	O	0.929711	0.267179	0.813694
O25	O	1.272449	-0.075560	1.005295
O26	O	1.080849	0.267181	1.005297
O27	O	0.929711	0.267182	1.005295
O28	O	1.272449	0.075579	1.005297
O29	O	0.929709	-0.267152	1.348025
O30	O	1.080849	0.267175	0.662559
O31	O	1.272450	0.267173	0.662562
O32	O	1.272449	0.075572	0.662559
O33	O	0.738109	-0.075549	1.348025
O34	O	0.929710	-0.075551	1.348028
O35	O	1.061676	0.169198	0.892503
O36	O	1.174468	0.056405	0.892503
O37	O	1.061675	-0.056383	1.118084
O38	O	0.948883	0.056410	1.118084
C39	C	0.703764	0.000014	1.005287
C40	C	0.601433	0.000014	1.005285
C41	C	1.005278	0.000006	0.703778
C42	C	1.005278	0.000004	0.601447
C43	C	1.005280	0.301526	1.005297
C44	C	1.005281	0.403857	1.005299
C45	C	0.612231	0.058884	0.887536
C46	C	0.516077	0.058885	0.887542
C47	C	0.398328	-0.058863	1.123057
C48	C	0.494482	-0.058857	1.123049
C49	C	1.306793	0.000009	1.005297
C50	C	1.409124	0.000009	1.005299
C51	C	1.005277	-0.301503	1.005287
C52	C	1.005277	-0.403834	1.005285
C53	C	0.946406	0.393061	1.123047
C54	C	0.946400	0.489216	1.123041
C55	C	1.064153	0.606959	0.887527
C56	C	1.064152	0.510805	0.887534
C57	C	1.064152	-0.058873	0.553371
C58	C	1.064156	-0.058863	0.457211
C59	C	0.946404	0.058904	0.457217
C60	C	0.946406	0.058899	0.553368
C61	C	1.005279	0.000017	1.306806
C62	C	1.005279	0.000019	1.409137
C63	C	1.306793	0.000004	0.703783
C64	C	1.409124	0.000001	0.601454
C65	C	1.005280	0.301520	0.703783
C66	C	1.005280	0.403850	0.601454
C67	C	1.306794	0.301518	0.703788
C68	C	1.409126	0.403847	0.601460
C69	C	0.703763	-0.301495	1.306795
C70	C	0.601432	-0.403824	1.409123
C71	C	0.703765	0.000019	1.306800
C72	C	0.601434	0.000022	1.409130
C73	C	1.005278	-0.301497	1.306800
C74	C	1.005277	-0.403827	1.409130
C75	C	1.398325	-0.058874	0.553375
C76	C	1.494480	-0.058880	0.457233
C77	C	1.612228	0.058872	0.457255
C78	C	1.516075	0.058871	0.553401
C79	C	1.064156	0.510800	0.553379
C80	C	1.064144	0.606946	0.457239
C81	C	0.946377	0.489176	0.457252
C82	C	0.946384	0.393033	0.553397
C83	C	1.516078	0.393047	0.553385
C84	C	1.612225	0.489199	0.457245
C85	C	1.494455	0.606948	0.457263
C86	C	1.398310	0.510797	0.553407
H87	H	0.524879	0.106824	0.791659
H88	H	1.524876	0.106814	0.592551
C89	C	0.881640	0.123678	0.404334
C90	C	0.816884	0.188447	0.457215
C91	C	0.752117	0.253222	0.404337
C92	C	0.752106	0.253227	0.298579
C93	C	0.816865	0.188456	0.245692
C94	C	0.881632	0.123681	0.298570
H95	H	0.816889	0.188446	0.535509
H96	H	0.704178	0.301170	0.443488
H97	H	0.704162	0.301177	0.259435
H98	H	0.816859	0.188457	0.167398
H99	H	0.929571	0.075733	0.259419
H100	H	1.485677	-0.106824	0.418093
C101	C	1.729874	0.477318	0.404357
C102	C	1.835635	0.583075	0.298609
C103	C	1.953286	0.571190	0.245723
C104	C	1.965176	0.453549	0.298585
C105	C	1.859411	0.347783	0.404339
C106	C	1.741760	0.359668	0.457225
H107	H	1.826837	0.670168	0.259472
H108	H	2.031580	0.649486	0.167437
H109	H	2.052268	0.444751	0.259436
H110	H	1.868209	0.260690	0.443476
H111	H	1.663466	0.281373	0.535512
C112	C	1.482563	0.724593	0.404381
C113	C	1.588315	0.830360	0.298614
C114	C	1.576418	0.948004	0.245727
C115	C	1.458770	0.959882	0.298608
C116	C	1.353009	0.854112	0.404381
C117	C	1.364906	0.736467	0.457268
H118	H	1.675413	0.821570	0.259463
H119	H	1.654710	1.026302	0.167427
H120	H	1.449963	1.046969	0.259458
H121	H	1.265911	0.862901	0.443532
H122	H	1.286614	0.658170	0.535569
H123	H	1.112095	0.519604	0.791643
H124	H	1.311219	0.519599	0.592554
H125	H	0.699312	0.106833	0.791645
H126	H	0.898463	0.106849	0.592510
C127	C	1.128913	-0.123635	0.404333
C128	C	1.128921	-0.123630	0.298566
C129	C	1.193682	-0.188404	0.245688
C130	C	1.258434	-0.253184	0.298577
C131	C	1.258429	-0.253191	0.404351
C132	C	1.193669	-0.188417	0.457229
H133	H	1.080985	-0.075674	0.259409
H134	H	1.193685	-0.188399	0.167387
H135	H	1.306374	-0.301134	0.259433
H136	H	1.306365	-0.301147	0.443508
H137	H	1.193665	-0.188422	0.535530
H138	H	1.311244	-0.106822	0.592508
H139	H	0.311239	-0.106795	1.218936
H140	H	0.485681	-0.106793	1.218940
H141	H	0.898466	0.305983	1.218939
H142	H	0.898456	0.480416	1.218924
H143	H	1.112086	0.694046	0.791647
H144	H	1.699318	0.106804	0.418116
H145	H	1.112091	-0.106827	0.592513
H146	H	1.112109	0.519614	0.592508
H147	H	1.112085	0.694027	0.418103
H148	H	0.898428	0.480383	0.418111
H149	H	0.898434	0.305942	0.592543
H150	H	1.524890	0.305966	0.592510
