data_functionalizedCrystal
_audit_creation_method	'MofGen! by Chris Wilmer'
_symmetry_space_group_name_H-M	'P1'
_symmetry_Int_Tables_number	1
_symmetry_cell_setting	triclinic
loop_
_symmetry_equiv_pos_as_xyz
  x,y,z
_cell_length_a	6.817900
_cell_length_b	17.078472
_cell_length_c	10.992410
_cell_angle_alpha	95.080907
_cell_angle_beta	108.764651
_cell_angle_gamma	99.306020
loop_
_atom_site_label
_atom_site_type_symbol
_atom_site_fract_x
_atom_site_fract_y
_atom_site_fract_z
V1	V	-4.066459	-0.109767	-0.400464
O2	O	-4.074672	0.005275	-0.392974
O3	O	-3.997069	-0.217650	-0.397597
O4	O	-4.044786	-0.108079	-0.575179
O5	O	-4.026625	-0.105055	-0.214163
V6	V	-4.549343	-0.096007	-0.378196
O7	O	-4.329118	-0.139952	-0.449310
O8	O	-4.736882	-0.065822	-0.329351
O9	O	-4.395527	0.011876	-0.381063
O10	O	-4.658527	-0.211049	-0.385687
O11	O	-4.706574	-0.100719	-0.564497
O12	O	-4.347810	-0.097695	-0.203482
C13	C	-3.836098	-0.243950	-0.391247
C14	C	-3.860829	-0.332145	-0.390068
C15	C	-4.054756	-0.377620	-0.395918
C16	C	-4.077984	-0.460490	-0.394817
C17	C	-3.907279	-0.497882	-0.387858
C18	C	-3.713339	-0.452401	-0.382011
C19	C	-3.690117	-0.369534	-0.383121
C20	C	-3.957184	-0.745286	-0.383861
C21	C	-3.980420	-0.828159	-0.382748
C22	C	-4.345066	-0.836242	-0.395556
C23	C	-4.321823	-0.753373	-0.396657
C24	C	-4.127889	-0.707899	-0.390818
N25	N	-3.931016	-0.582587	-0.386729
N26	N	-4.104159	-0.623196	-0.391956
C27	C	-3.896966	-0.104180	-0.617768
C28	C	-3.960390	-0.103513	-0.760597
C29	C	-3.830158	-0.097439	-0.955727
C30	C	-3.764163	-0.098461	-0.807243
C31	C	-4.124349	-0.181738	-0.837609
C32	C	-4.188964	-0.181046	-0.986176
C33	C	-4.132676	-0.029574	-0.948322
C34	C	-4.062129	-0.029203	-0.799310
C35	C	-4.219838	0.038171	-0.387410
C36	C	-4.174347	0.126366	-0.388598
C37	C	-4.158971	-0.101597	-0.160886
C38	C	-4.074785	-0.102260	-0.018056
H39	H	-3.640196	-0.042214	-0.753968
O40	O	-4.554225	-0.885291	-0.401854
H41	H	-4.678984	-0.879794	-0.493099
O42	O	-4.319801	-0.190385	-0.799469
H43	H	-4.340549	-0.247202	-0.759005
O44	O	-3.766997	-0.166617	-1.019211
H45	H	-3.594041	-0.162638	-0.974507
O46	O	-3.657887	-0.168600	-0.774271
H47	H	-3.653504	-0.201925	-0.864445
H48	H	-4.460838	-0.722935	-0.402334
O49	O	-4.238871	-0.337290	-0.403421
H50	H	-4.278773	-0.308195	-0.492195
H51	H	-4.149441	-0.236082	-1.032382
H52	H	-4.204642	-0.028285	-0.766799
H53	H	-3.841415	-0.858603	-0.377110
O54	O	-4.426117	-0.190052	-1.042658
H55	H	-4.503614	-0.247662	-1.023476
O56	O	-4.287138	-0.509540	-0.401108
H57	H	-4.401927	-0.469615	-0.406111
H58	H	-3.799271	-0.708271	-0.379098
H59	H	-4.054568	-0.236909	-0.811939
H60	H	-4.310423	-0.032417	-0.989160
H61	H	-4.055624	0.029828	-0.968751
H62	H	-3.574353	-0.482853	-0.376353
O63	O	-3.707540	-0.022431	-0.980771
H64	H	-3.819633	0.012215	-1.037915
H65	H	-3.532205	-0.332509	-0.378363
O66	O	-3.905756	0.047455	-0.730066
H67	H	-3.756198	0.032702	-0.668324
