data_functionalizedCrystal
_audit_creation_method	'MofGen! by Chris Wilmer'
_symmetry_space_group_name_H-M	'P1'
_symmetry_Int_Tables_number	1
_symmetry_cell_setting	triclinic
loop_
_symmetry_equiv_pos_as_xyz
  x,y,z
_cell_length_a	17.038272
_cell_length_b	17.000383
_cell_length_c	16.098538
_cell_angle_alpha	92.506243
_cell_angle_beta	87.069734
_cell_angle_gamma	83.355930
loop_
_atom_site_label
_atom_site_type_symbol
_atom_site_fract_x
_atom_site_fract_y
_atom_site_fract_z
O1	O	1.029308	0.168741	-0.069150
O2	O	1.529308	0.668741	0.430850
O3	O	0.801865	0.166008	-0.069174
O4	O	1.301865	0.666008	0.430826
O5	O	0.929708	0.052464	-0.069157
O6	O	1.429708	0.552464	0.430843
O7	O	0.901465	0.282284	-0.069167
O8	O	1.401465	0.782284	0.430833
O9	O	0.922242	0.059069	0.069354
O10	O	1.422242	0.559069	0.569354
O11	O	0.794399	0.172612	0.069337
O12	O	1.294399	0.672612	0.569337
O13	O	1.021842	0.175345	0.069362
O14	O	1.521842	0.675345	0.569362
Zn15	Zn	0.906935	0.175028	0.091342
Zn16	Zn	1.406935	0.675028	0.591342
Zn17	Zn	0.916772	0.166325	-0.091154
Zn18	Zn	1.416772	0.666325	0.408846
O19	O	0.893999	0.288889	0.069345
O20	O	1.393999	0.788889	0.569345
C21	C	0.769174	0.166825	0.000078
C22	C	1.269174	0.666825	0.500078
C23	C	0.682890	0.159412	0.000069
C24	C	1.182890	0.659412	0.500069
C25	C	0.628115	0.227470	0.000067
C26	C	1.128115	0.727470	0.500067
C27	C	0.547041	0.220501	0.000079
C28	C	1.047041	0.720501	0.500079
C29	C	0.520744	0.145472	0.000087
C30	C	1.020744	0.645472	0.500087
C31	C	0.575525	0.077409	0.000091
C32	C	1.075525	0.577409	0.500091
C33	C	0.656597	0.084379	0.000086
C34	C	1.156597	0.584379	0.500086
C35	C	0.276671	0.120848	0.000110
C36	C	0.776671	0.620848	0.500110
C37	C	0.195592	0.113882	0.000113
C38	C	0.695592	0.613882	0.500113
C39	C	0.167114	0.256975	0.000102
C40	C	0.667114	0.756975	0.500102
C41	C	0.248189	0.263938	0.000091
C42	C	0.748189	0.763938	0.500091
C43	C	0.302963	0.195875	0.000100
C44	C	0.802963	0.695875	0.500100
C45	C	0.437874	0.138347	0.000096
C46	C	0.937874	0.638347	0.500096
C47	C	0.385831	0.203002	0.000097
C48	C	0.885831	0.703002	0.500097
C49	C	0.927491	0.026216	0.000098
C50	C	1.427491	0.526216	0.500098
C51	C	0.932002	-0.061837	0.000095
C52	C	1.432002	0.438163	0.500095
C53	C	0.961126	-0.560082	0.000095
C54	C	1.461126	-0.060082	0.500095
C55	C	0.956882	-0.477346	0.000100
C56	C	1.456882	0.022654	0.500100
C57	C	0.883216	-0.431340	0.000088
C58	C	1.383216	0.068660	0.500088
C59	C	0.813790	-0.468074	0.000080
C60	C	1.313790	0.031926	0.500080
C61	C	0.818035	-0.550808	0.000081
C62	C	1.318035	-0.050808	0.500081
C63	C	0.866820	-0.181305	0.000089
C64	C	1.366820	0.318695	0.500089
C65	C	0.862581	-0.098565	0.000085
C66	C	1.362581	0.401435	0.500085
C67	C	1.005673	-0.107844	0.000106
C68	C	1.505673	0.392156	0.500106
C69	C	1.009912	-0.190579	0.000103
C70	C	1.509912	0.309421	0.500103
C71	C	0.940485	-0.227305	0.000099
C72	C	1.440485	0.272695	0.500099
C73	C	0.878876	-0.346771	0.000090
C74	C	1.378876	0.153229	0.500090
C75	C	0.944826	-0.311873	0.000103
C76	C	1.444826	0.188127	0.500103
C77	C	1.054533	0.174528	0.000107
C78	C	1.554533	0.674528	0.500107
C79	C	1.140818	0.181941	0.000111
C80	C	1.640818	0.681941	0.500111
C81	C	0.896216	0.315137	0.000088
C82	C	1.396216	0.815137	0.500088
C83	C	0.891705	0.403190	0.000085
C84	C	1.391705	0.903190	0.500085
N85	N	0.900227	0.180966	0.215890
N86	N	1.400227	0.680966	0.715890
N87	N	0.923486	0.160381	-0.215702
N88	N	1.423486	0.660381	0.284298
C89	C	0.954506	0.132794	0.259482
C90	C	1.454506	0.632794	0.759482
C91	C	0.949820	0.136956	0.346670
C92	C	1.449820	0.636956	0.846670
C93	C	0.890859	0.189296	0.390265
C94	C	1.390859	0.689296	0.890265
C95	C	0.836575	0.237471	0.346667
C96	C	1.336575	0.737471	0.846667
C97	C	0.841258	0.233303	0.259480
C98	C	1.341258	0.733303	0.759480
C99	C	0.873885	0.204388	0.653513
C100	C	1.373885	0.704388	1.153513
C101	C	0.869207	0.208553	0.740706
C102	C	1.369207	0.708553	1.240706
C103	C	0.982453	0.108037	0.740703
C104	C	1.482453	0.608037	1.240703
C105	C	0.987133	0.103878	0.653515
C106	C	1.487133	0.603878	1.153515
C107	C	0.932846	0.152050	0.609924
C108	C	1.432846	0.652050	1.109924
C109	C	0.886070	0.193554	0.479385
C110	C	1.386070	0.693554	0.979385
C111	C	0.937633	0.147788	0.520805
C112	C	1.437633	0.647788	1.020805
H113	H	0.416452	0.077259	0.000126
H114	H	0.916452	0.577259	0.500126
Br115	Br	0.092775	0.349341	0.000091
Br116	Br	0.592775	0.849341	0.500091
H117	H	0.802591	-0.061109	0.000078
H118	H	1.302591	0.438891	0.500078
Br119	Br	1.051101	-0.427505	0.000093
Br120	Br	1.551101	0.072495	0.500093
H121	H	1.069898	-0.228032	0.000116
H122	H	1.569898	0.271968	0.500116
H123	H	1.002522	0.090177	0.223993
H124	H	1.502522	0.590177	0.723993
Br125	Br	0.539837	-0.024416	0.000111
Br126	Br	1.039837	0.475584	0.500111
Br127	Br	1.067155	0.032849	0.594350
Br128	Br	1.567155	0.532849	1.094350
H129	H	0.174186	0.052782	0.000119
H130	H	0.674186	0.552782	0.500119
H131	H	1.021113	-0.597535	0.000098
H132	H	1.521113	-0.097535	0.500098
H133	H	0.649518	0.288566	0.000060
H134	H	1.149518	0.788566	0.500060
H135	H	0.502446	0.275921	0.000076
H136	H	1.002446	0.775921	0.500076
H137	H	0.818898	-0.309304	0.000077
H138	H	1.318898	0.190696	0.500077
Br139	Br	0.772599	-0.231137	0.000078
Br140	Br	1.272599	0.268863	0.500078
Br141	Br	1.023483	0.071575	0.405834
Br142	Br	1.523483	0.571575	0.905834
Br143	Br	0.806051	0.264586	0.538553
Br144	Br	1.306051	0.764586	1.038553
Br145	Br	0.713814	-0.405638	0.000071
Br146	Br	1.213814	0.094362	0.500071
H147	H	0.321259	0.065426	0.000118
H148	H	0.821259	0.565426	0.500118
Br149	Br	0.723817	-0.600653	0.000076
Br150	Br	1.223817	-0.100653	0.500076
Br151	Br	0.730936	-0.007989	0.000096
Br152	Br	1.230936	0.492011	0.500096
Br153	Br	1.099889	-0.057997	0.000113
Br154	Br	1.599889	0.442003	0.500113
Br155	Br	1.056123	0.042663	0.799865
Br156	Br	1.556123	0.542663	1.299865
Br157	Br	0.283872	0.365766	0.000071
Br158	Br	0.783872	0.865766	0.500071
H159	H	0.821191	0.251178	0.776196
H160	H	1.321191	0.751178	1.276196
H161	H	0.407245	0.264090	0.000095
H162	H	0.907245	0.764090	0.500095
Br163	Br	0.756549	0.308499	0.405827
Br164	Br	1.256549	0.808499	0.905827
H165	H	0.797057	0.272530	0.223988
H166	H	1.297057	0.772530	0.723988
H167	H	1.004804	-0.349334	0.000117
H168	H	1.504804	0.150666	0.500117
H169	H	0.829683	0.243613	0.618028
H170	H	1.329683	0.743613	1.118028
H171	H	0.985637	0.105170	0.485308
H172	H	1.485637	0.605170	0.985308
