data_functionalizedCrystal
_audit_creation_method	'MofGen! by Chris Wilmer'
_symmetry_space_group_name_H-M	'P1'
_symmetry_Int_Tables_number	1
_symmetry_cell_setting	triclinic
loop_
_symmetry_equiv_pos_as_xyz
  x,y,z
_cell_length_a	14.908571
_cell_length_b	16.625546
_cell_length_c	14.908308
_cell_angle_alpha	86.735930
_cell_angle_beta	89.824947
_cell_angle_gamma	86.718495
loop_
_atom_site_label
_atom_site_type_symbol
_atom_site_fract_x
_atom_site_fract_y
_atom_site_fract_z
Zn1	Zn	1.345280	-0.420778	0.587557
Zn2	Zn	1.353856	-0.548312	0.437189
Zn3	Zn	1.203596	-0.405291	0.428555
Zn4	Zn	1.194884	-0.547354	0.578841
O5	O	1.274404	-0.480434	0.508036
O6	O	1.472243	-0.444578	0.574871
O7	O	1.341159	-0.523260	0.310220
O8	O	1.222448	-0.294517	0.449681
O9	O	1.478544	-0.538277	0.464397
O10	O	1.326543	-0.305896	0.566499
O11	O	1.230763	-0.418182	0.303876
O12	O	1.076615	-0.417254	0.441230
O13	O	1.207599	-0.536644	0.705821
O14	O	1.070214	-0.521627	0.551644
O15	O	1.318095	-0.443649	0.712225
O16	O	1.332711	-0.661013	0.455945
O17	O	1.215914	-0.660309	0.560016
C18	C	1.040789	-0.467656	0.494555
C19	C	0.940846	-0.462211	0.488810
C20	C	0.746435	-0.560814	0.592833
C21	C	0.652530	-0.555700	0.587437
C22	C	0.659128	-0.446865	0.472629
C23	C	0.753033	-0.451979	0.478024
C24	C	0.796683	-0.508956	0.538127
C25	C	0.890591	-0.514074	0.543517
C26	C	0.897187	-0.405236	0.428714
C27	C	0.803282	-0.400121	0.423318
C28	C	1.274321	-0.689918	0.507993
C29	C	1.274366	-0.779542	0.508010
C30	C	1.274517	-1.107731	0.508112
C31	C	1.274472	-1.016419	0.508086
C32	C	1.274441	-0.943640	0.508060
C33	C	1.274397	-0.852322	0.508035
C34	C	1.508931	-0.493262	0.521569
C35	C	1.608873	-0.498728	0.527336
C36	C	1.260918	-0.491767	0.742560
C37	C	1.255172	-0.496597	0.842501
C38	C	1.274511	-0.270134	0.508099
C39	C	1.274556	-0.180516	0.508127
C40	C	1.287889	-0.469089	0.274426
C41	C	1.293810	-0.464042	0.174497
C42	C	1.359429	-0.408817	1.036969
C43	C	1.354033	-0.413353	1.130872
C44	C	1.238977	-0.510198	1.124211
C45	C	1.244374	-0.505662	1.030308
C46	C	1.304603	-0.454971	0.986690
C47	C	1.310004	-0.450441	0.892786
C48	C	1.194945	-0.547281	0.886127
C49	C	1.189548	-0.551817	0.980030
H50	H	0.926129	-0.560469	0.592455
H51	H	0.767729	-0.353730	0.374387
C52	C	1.472620	-0.313550	1.052980
C53	C	1.425632	-0.353102	0.989018
H54	H	1.513487	-0.279150	1.023376
H55	H	1.504890	-0.352328	1.091577
H56	H	1.431346	-0.282336	1.087357
H57	H	1.466906	-0.384321	0.954645
H58	H	1.393360	-0.314318	0.950405
C59	C	1.125785	-0.605465	1.108207
C60	C	1.172773	-0.565909	1.172166
H61	H	1.084910	-0.639855	1.137814
H62	H	1.167050	-0.636682	1.073839
H63	H	1.093515	-0.566682	1.069600
H64	H	1.205049	-0.604693	1.210768
H65	H	1.131502	-0.534691	1.206548
C66	C	1.152127	-0.583336	0.739224
C67	C	1.134673	-0.598018	0.830858
H68	H	1.114916	-0.614657	0.705106
H69	H	1.213413	-0.597695	0.727324
H70	H	1.139873	-0.527699	0.723096
H71	H	1.146933	-0.653654	0.846988
H72	H	1.073372	-0.583664	0.842764
C73	C	1.360502	-0.310676	1.237213
C74	C	1.414299	-0.362617	1.186136
H75	H	1.397710	-0.279348	1.271325
H76	H	1.323874	-0.341514	1.276630
H77	H	1.323446	-0.275930	1.198318
H78	H	1.451350	-0.397366	1.225031
H79	H	1.450942	-0.331776	1.146715
H80	H	0.781976	-0.607211	0.641766
H81	H	0.611620	-0.597926	0.631986
H82	H	0.623571	-0.400472	0.423701
H83	H	0.938110	-0.363011	0.384166
H84	H	1.140510	-0.593086	1.015557
C85	C	1.328606	-0.337569	0.787933
C86	C	1.376201	-0.394718	0.844837
H87	H	1.369474	-0.303169	0.758331
H88	H	1.287343	-0.306364	0.822316
H89	H	1.296733	-0.364418	0.744550
H90	H	1.408068	-0.367869	0.888225
H91	H	1.417479	-0.425927	0.810451
