data_functionalizedCrystal
_audit_creation_method	'MofGen! by Chris Wilmer'
_symmetry_space_group_name_H-M	'P1'
_symmetry_Int_Tables_number	1
_symmetry_cell_setting	triclinic
loop_
_symmetry_equiv_pos_as_xyz
  x,y,z
_cell_length_a	14.971486
_cell_length_b	17.038272
_cell_length_c	13.448316
_cell_angle_alpha	89.993314
_cell_angle_beta	89.998199
_cell_angle_gamma	87.362843
loop_
_atom_site_label
_atom_site_type_symbol
_atom_site_fract_x
_atom_site_fract_y
_atom_site_fract_z
O1	O	1.194577	0.101898	-0.082578
O2	O	1.694577	0.601898	0.417422
O3	O	0.935090	0.114100	-0.082605
O4	O	1.435090	0.614100	0.417395
O5	O	1.063291	-0.005818	-0.082584
O6	O	1.563291	0.494182	0.417416
O7	O	1.066375	0.221816	-0.082599
O8	O	1.566375	0.721816	0.417401
O9	O	1.063273	-0.005826	0.082800
O10	O	1.563273	0.494174	0.582800
O11	O	0.935072	0.114093	0.082779
O12	O	1.435072	0.614093	0.582779
O13	O	1.194559	0.101890	0.082806
O14	O	1.694559	0.601890	0.582806
Cu15	Cu	1.064814	0.107991	0.097893
Cu16	Cu	1.564814	0.607991	0.597893
Cu17	Cu	1.064835	0.107999	-0.097692
Cu18	Cu	1.564835	0.607999	0.402308
O19	O	1.066358	0.221809	0.082785
O20	O	1.566358	0.721809	0.582785
C21	C	0.901716	0.113551	0.000083
C22	C	1.401716	0.613551	0.500083
C23	C	0.802296	0.111915	0.000073
C24	C	1.302296	0.611915	0.500073
C25	C	0.750345	0.182364	0.000070
C26	C	1.250345	0.682364	0.500070
C27	C	0.656930	0.180823	0.000085
C28	C	1.156930	0.680823	0.500085
C29	C	0.615468	0.108832	0.000096
C30	C	1.115468	0.608832	0.500096
C31	C	0.667426	0.038378	0.000102
C32	C	1.167426	0.538378	0.500102
C33	C	0.760839	0.039920	0.000095
C34	C	1.260839	0.539920	0.500095
C35	C	0.472723	0.035169	0.000116
C36	C	0.972723	0.535169	0.500116
C37	C	0.379303	0.033626	0.000122
C38	C	0.879303	0.533626	0.500122
C39	C	0.368815	0.176072	0.000107
C40	C	0.868815	0.676072	0.500107
C41	C	0.462228	0.177614	0.000099
C42	C	0.962228	0.677614	0.500099
C43	C	0.514179	0.107159	0.000103
C44	C	1.014179	0.607159	0.500103
C45	C	1.060477	-0.034954	0.000108
C46	C	1.560477	0.465046	0.500108
C47	C	1.052107	-0.121756	0.000107
C48	C	1.552107	0.378244	0.500107
C49	C	1.128951	-0.171781	0.000116
C50	C	1.628951	0.328219	0.500116
C51	C	1.121081	-0.253341	0.000105
C52	C	1.621081	0.246659	0.500105
C53	C	1.036367	-0.284874	0.000093
C54	C	1.536367	0.215126	0.500093
C55	C	0.959518	-0.234843	0.000081
C56	C	1.459518	0.265157	0.500081
C57	C	0.967388	-0.153285	0.000084
C58	C	1.467388	0.346715	0.500084
C59	C	1.008563	-0.530664	0.000077
C60	C	1.508563	-0.030664	0.500077
C61	C	1.000698	-0.612229	0.000077
C62	C	1.500698	-0.112229	0.500077
C63	C	1.162262	-0.630721	0.000099
C64	C	1.662262	-0.130721	0.500099
C65	C	1.170125	-0.549161	0.000108
C66	C	1.670125	-0.049161	0.500108
C67	C	1.093276	-0.499137	0.000091
C68	C	1.593276	0.000863	0.500091
C69	C	1.028321	-0.368241	0.000086
C70	C	1.528321	0.131759	0.500086
C71	C	1.101323	-0.415771	0.000091
C72	C	1.601323	0.084229	0.500091
C73	C	1.227933	0.102440	0.000115
C74	C	1.727933	0.602440	0.500115
C75	C	1.327353	0.104075	0.000119
C76	C	1.827353	0.604075	0.500119
C77	C	1.069172	0.250944	0.000091
C78	C	1.569172	0.750944	0.500091
C79	C	1.077542	0.337746	0.000086
C80	C	1.577542	0.837746	0.500086
N81	N	1.064806	0.107984	0.235458
N82	N	1.564806	0.607984	0.735458
N83	N	1.064850	0.108000	-0.235257
N84	N	1.564850	0.608000	0.264743
C85	C	1.121593	0.054906	0.287507
C86	C	1.621593	0.554906	0.787507
C87	C	1.121599	0.054905	0.391611
C88	C	1.621599	0.554905	0.891611
C89	C	1.064821	0.107987	0.443662
C90	C	1.564821	0.607987	0.943662
C91	C	1.008026	0.161068	0.391605
C92	C	1.508026	0.661068	0.891605
C93	C	1.008017	0.161064	0.287504
C94	C	1.508017	0.661064	0.787504
C95	C	1.008052	0.161073	0.608585
C96	C	1.508052	0.661073	1.108585
C97	C	1.008062	0.161078	0.712694
C98	C	1.508062	0.661078	1.212694
C99	C	1.121634	0.054914	0.712692
C100	C	1.621634	0.554914	1.212692
C101	C	1.121624	0.054911	0.608591
C102	C	1.621624	0.554911	1.108591
C103	C	1.064831	0.107992	0.556541
C104	C	1.564831	0.607992	1.056541
H105	H	0.614636	0.238189	0.000081
H106	H	1.114636	0.738189	0.500081
O107	O	0.892769	-0.104655	-0.000098
O108	O	1.392769	0.395345	0.499902
C109	C	0.892512	-0.056905	-0.085740
C110	C	1.392512	0.443095	0.414260
H111	H	0.935988	-0.086728	-0.145600
H112	H	1.435988	0.413272	0.354400
H113	H	0.821159	-0.047796	-0.114501
H114	H	1.321159	0.452204	0.385499
H115	H	0.920178	0.002419	-0.066371
H116	H	1.420178	0.502419	0.433629
O117	O	0.952859	0.212526	0.763374
O118	O	1.452859	0.712526	1.263374
C119	C	0.894497	0.170558	0.823591
C120	C	1.394497	0.670558	1.323591
H121	H	0.925485	0.109426	0.839180
H122	H	1.425485	0.609426	1.339180
H123	H	0.882837	0.203168	0.896797
H124	H	1.382837	0.703168	1.396797
H125	H	0.827975	0.165143	0.783491
H126	H	1.327975	0.665143	1.283491
H127	H	0.633660	-0.020239	0.000126
H128	H	1.133660	0.479761	0.500126
O129	O	1.183660	-0.385237	0.000234
O130	O	1.683660	0.114763	0.500234
C131	C	1.230861	-0.410779	0.085908
C132	C	1.730861	0.089221	0.585908
H133	H	1.202180	-0.467371	0.114461
H134	H	1.702180	0.032629	0.614461
H135	H	1.304496	-0.422022	0.066656
H136	H	1.804496	0.077978	0.566656
H137	H	1.224078	-0.363600	0.145884
H138	H	1.724078	0.136400	0.645884
O139	O	1.176807	0.003274	0.558180
O140	O	1.676807	0.503274	1.058180
C141	C	1.226951	-0.043565	0.626440
C142	C	1.726951	0.456435	1.126440
H143	H	1.190221	-0.044503	0.700656
H144	H	1.690221	0.455497	1.200656
H145	H	1.235847	-0.105989	0.596369
H146	H	1.735847	0.394011	1.096369
H147	H	1.295332	-0.018078	0.637493
H148	H	1.795332	0.481922	1.137493
H149	H	1.183656	-0.294068	0.000115
H150	H	1.683656	0.205932	0.500115
H151	H	0.961773	0.204284	0.245126
H152	H	1.461773	0.704284	0.745126
H153	H	0.961801	0.204295	0.566210
H154	H	1.461801	0.704295	1.066210
O155	O	0.502363	0.247612	0.000130
O156	O	1.002363	0.747612	0.500130
C157	C	0.436481	0.309467	0.000104
C158	C	0.936481	0.809467	0.500104
H159	H	0.371430	0.287492	0.031422
H160	H	0.871430	0.787492	0.531422
H161	H	0.459807	0.359720	0.048113
H162	H	0.959807	0.859720	0.548113
H163	H	0.424932	0.331205	-0.079240
H164	H	0.924932	0.831205	0.420760
O165	O	0.811344	-0.028494	0.000269
O166	O	1.311344	0.471506	0.500269
C167	C	0.865711	-0.031859	0.085907
C168	C	1.365711	0.468141	0.585907
H169	H	0.834584	0.008091	0.145773
H170	H	1.334584	0.508091	0.645773
H171	H	0.871412	-0.094833	0.114664
H172	H	1.371412	0.405167	0.614664
H173	H	0.935097	-0.011556	0.066536
H174	H	1.435097	0.488444	0.566536
H175	H	0.959346	-0.393925	0.000078
H176	H	1.459346	0.106075	0.500078
O177	O	1.211312	-0.141283	0.000081
O178	O	1.711312	0.358717	0.500081
C179	C	1.277447	-0.202930	0.000108
C180	C	1.777447	0.297070	0.500108
H181	H	1.248155	-0.258352	-0.031204
H182	H	1.748155	0.241648	0.468796
H183	H	1.336222	-0.185830	-0.047904
H184	H	1.836222	0.314170	0.452096
H185	H	1.301443	-0.214455	0.079452
H186	H	1.801443	0.285545	0.579452
O187	O	0.318221	0.244440	0.000146
O188	O	0.818221	0.744440	0.500146
C189	C	0.226881	0.227646	0.000133
C190	C	0.726881	0.727646	0.500133
H191	H	0.218632	0.166229	0.031460
H192	H	0.718632	0.666229	0.531460
H193	H	0.188031	0.272549	0.048139
H194	H	0.688031	0.772549	0.548139
H195	H	0.200121	0.230579	-0.079209
H196	H	0.700121	0.730579	0.420791
O197	O	0.339169	-0.036372	0.000179
O198	O	0.839169	0.463628	0.500179
C199	C	0.405050	-0.098227	0.000164
C200	C	0.905050	0.401773	0.500164
H201	H	0.470102	-0.076254	0.031471
H202	H	0.970102	0.423746	0.531471
H203	H	0.381724	-0.148482	0.048187
H204	H	0.881724	0.351518	0.548187
H205	H	0.416598	-0.119963	-0.079176
H206	H	0.916598	0.380037	0.420824
H207	H	0.515019	-0.022203	0.000121
H208	H	1.015019	0.477797	0.500121
H209	H	0.961791	0.204285	0.433991
H210	H	1.461791	0.704285	0.933991
H211	H	1.167876	0.011694	0.755077
H212	H	1.667876	0.511694	1.255077
H213	H	0.784097	0.240987	0.000060
H214	H	1.284097	0.740987	0.500060
O215	O	1.252439	-0.518573	-0.000056
O216	O	1.752439	-0.018573	0.499944
C217	C	1.299682	-0.544136	-0.085690
C218	C	1.799682	-0.044136	0.414310
H219	H	1.250263	-0.561134	-0.145569
H220	H	1.750263	-0.061134	0.354431
H221	H	1.341508	-0.494693	-0.114428
H222	H	1.841508	0.005307	0.385572
H223	H	1.345476	-0.597248	-0.066319
H224	H	1.845476	-0.097248	0.433681
O225	O	1.236936	-0.679282	0.000281
O226	O	1.736936	-0.179282	0.500281
C227	C	1.288007	-0.664974	0.085925
C228	C	1.788007	-0.164974	0.585925
H229	H	1.242901	-0.637152	0.145793
H230	H	1.742901	-0.137152	0.645793
H231	H	1.319475	-0.722808	0.114674
H232	H	1.819475	-0.222808	0.614674
H233	H	1.342943	-0.623395	0.066566
H234	H	1.842943	-0.123395	0.566566
H235	H	1.167839	0.011685	0.433989
H236	H	1.667839	0.511685	0.933989
O237	O	0.918383	-0.642827	-0.000120
O238	O	1.418383	-0.142827	0.499880
C239	C	0.871170	-0.617255	-0.085774
C240	C	1.371170	-0.117255	0.414226
H241	H	0.920610	-0.600235	-0.145629
H242	H	1.420610	-0.100235	0.354371
H243	H	0.829368	-0.666700	-0.114534
H244	H	1.329368	-0.166700	0.385466
H245	H	0.825357	-0.564154	-0.066421
H246	H	1.325357	-0.064154	0.433579
O247	O	0.933981	-0.481996	0.000198
O248	O	1.433981	0.018004	0.500198
C249	C	0.933676	-0.434285	0.085863
C250	C	1.433676	0.065715	0.585863
H251	H	1.004988	-0.430098	0.114428
H252	H	1.504988	0.069902	0.614428
H253	H	0.905024	-0.373018	0.066593
H254	H	1.405024	0.126982	0.566593
H255	H	0.890772	-0.461157	0.145836
H256	H	1.390772	0.038843	0.645836
O257	O	0.877207	-0.265436	-0.000109
O258	O	1.377207	0.234564	0.499891
C259	C	0.829990	-0.239857	-0.085757
C260	C	1.329990	0.260143	0.414243
H261	H	0.879427	-0.222842	-0.145618
H262	H	1.379427	0.277158	0.354382
H263	H	0.788177	-0.289297	-0.114514
H264	H	1.288177	0.210703	0.385486
H265	H	0.784185	-0.186752	-0.066399
H266	H	1.284185	0.313248	0.433601
O267	O	1.176778	0.003266	0.237103
O268	O	1.676778	0.503266	0.737103
C269	C	1.226915	-0.043569	0.305372
C270	C	1.726915	0.456431	0.805372
H271	H	1.190180	-0.044501	0.379584
H272	H	1.690180	0.455499	0.879584
H273	H	1.235811	-0.105996	0.275307
H274	H	1.735811	0.394004	0.775307
H275	H	1.295297	-0.018084	0.316429
H276	H	1.795297	0.481916	0.816429
