data_functionalizedCrystal
_audit_creation_method	'MofGen! by Chris Wilmer'
_symmetry_space_group_name_H-M	'P1'
_symmetry_Int_Tables_number	1
_symmetry_cell_setting	triclinic
loop_
_symmetry_equiv_pos_as_xyz
  x,y,z
_cell_length_a	15.944557
_cell_length_b	15.021413
_cell_length_c	14.853567
_cell_angle_alpha	89.992183
_cell_angle_beta	96.431850
_cell_angle_gamma	89.994532
loop_
_atom_site_label
_atom_site_type_symbol
_atom_site_fract_x
_atom_site_fract_y
_atom_site_fract_z
O1	O	-1.114655	0.073986	0.116289
O2	O	-0.870122	0.073995	0.130618
O3	O	-0.998920	0.073993	-0.007784
O4	O	-0.985857	0.073988	0.254692
O5	O	-0.998900	-0.074071	-0.007765
O6	O	-0.870102	-0.074069	0.130638
O7	O	-1.114635	-0.074078	0.116309
Zn8	Zn	-0.992365	-0.097582	0.123476
Zn9	Zn	-0.992392	0.097499	0.123450
O10	O	-0.985836	-0.074076	0.254711
C11	C	-0.838817	-0.000035	0.130032
C12	C	-0.745570	-0.000032	0.128246
N13	N	-0.992353	-0.230719	0.123494
C14	C	-0.474837	-0.000044	0.037116
C15	C	-0.525457	-0.073049	0.081057
C16	C	-0.409921	-0.000052	0.121875
C17	C	-0.525458	0.072930	0.081060
C18	C	-0.574837	-0.000041	0.125000
C19	C	-0.459313	-0.073118	0.165793
C20	C	-0.459310	0.072927	0.165784
C21	C	-0.509897	-0.000096	0.209788
C22	C	-0.314917	-0.000060	0.120071
C23	C	-0.669837	-0.000040	0.126810
C24	C	-0.932787	-0.470402	0.187461
C25	C	-1.008707	-0.529740	0.204965
C26	C	-0.992374	-0.412326	0.123471
C27	C	-0.916475	-0.529730	0.105987
C28	C	-0.992388	-0.587750	0.123451
C29	C	-1.068332	-0.470358	0.141016
C30	C	-0.976050	-0.470343	0.042002
C31	C	-1.052025	-0.529654	0.059472
C32	C	-0.992365	-0.311269	0.123485
C33	C	-0.992406	-0.688806	0.123437
C34	C	-0.145941	-0.000050	0.116882
C35	C	-0.239193	-0.000061	0.118632
C36	C	-0.998318	-0.000036	-0.041363
C37	C	-0.996544	-0.000028	-0.141444
N38	N	-0.992411	0.230637	0.123426
C39	C	-0.912537	-0.000042	-0.553872
C40	C	-1.065553	-0.000048	-0.575346
C41	C	-1.067220	-0.000043	-0.481314
C42	C	-0.991546	-0.000039	-0.423557
C43	C	-0.914203	-0.000040	-0.459831
C44	C	-1.144562	-0.000051	-0.445032
C45	C	-1.146233	-0.000047	-0.350995
C46	C	-1.070557	-0.000036	-0.293236
C47	C	-0.993211	-0.000036	-0.329516
C48	C	-0.917536	-0.000032	-0.271759
C49	C	-0.840189	-0.000026	-0.308037
C50	C	-0.838527	-0.000029	-0.402072
C51	C	-1.072219	-0.000033	-0.199201
C52	C	-0.919202	-0.000030	-0.177718
C53	C	-0.986438	-0.000044	0.288289
C54	C	-0.988212	-0.000046	0.388371
H55	H	-0.459102	-0.000114	-0.035883
H56	H	-0.849563	-0.000034	-0.583414
N57	N	-0.563729	-0.154796	0.033653
H58	H	-0.593282	-0.191363	0.077665
H59	H	-0.517681	-0.191557	0.010407
N60	N	-0.866113	-0.435923	0.259195
H61	H	-0.823882	-0.398916	0.229724
H62	H	-0.836288	-0.487800	0.292099
N63	N	-0.421016	0.154681	0.213140
H64	H	-0.379735	0.136081	0.266386
H65	H	-0.467183	0.192095	0.235276
H66	H	-0.430535	-0.134906	0.201571
N67	N	-1.118844	-0.563914	-0.012224
H68	H	-1.149379	-0.511984	-0.044277
H69	H	-1.160457	-0.601795	0.017200
N70	N	-0.530542	-0.000140	0.306550
H71	H	-0.505405	0.054467	0.338798
H72	H	-0.506245	-0.055341	0.338385
N73	N	-0.563726	0.154682	0.033622
H74	H	-0.551259	0.154614	-0.031562
H75	H	-0.538715	0.209776	0.065025
N76	N	-1.027020	-0.564300	0.296210
H77	H	-0.981974	-0.542753	0.344515
H78	H	-1.027453	-0.631527	0.295262
N79	N	-0.957723	-0.435756	-0.049221
H80	H	-0.900340	-0.457316	-0.062366
H81	H	-0.958452	-0.368529	-0.048649
N82	N	-1.229649	-0.000038	-0.311865
H83	H	-1.233746	-0.054922	-0.273314
H84	H	-1.277288	-0.000007	-0.362771
H85	H	-1.135194	-0.000044	-0.169668
H86	H	-1.132538	-0.444388	0.155878
H87	H	-0.852283	-0.555812	0.091208
N88	N	-0.837580	-0.000018	-0.115425
H89	H	-0.788333	-0.000013	-0.152678
H90	H	-0.834927	-0.054907	-0.075933
H91	H	-0.778575	-0.000029	-0.260999
H92	H	-0.775555	-0.000025	-0.431619
H93	H	-1.127164	-0.000058	-0.622377
H94	H	-1.206172	-0.000062	-0.492064
