data_functionalizedCrystal
_audit_creation_method	'MofGen! by Chris Wilmer'
_symmetry_space_group_name_H-M	'P1'
_symmetry_Int_Tables_number	1
_symmetry_cell_setting	triclinic
loop_
_symmetry_equiv_pos_as_xyz
  x,y,z
_cell_length_a	12.827893
_cell_length_b	16.625539
_cell_length_c	12.827892
_cell_angle_alpha	90.023194
_cell_angle_beta	89.984447
_cell_angle_gamma	89.984909
loop_
_atom_site_label
_atom_site_type_symbol
_atom_site_fract_x
_atom_site_fract_y
_atom_site_fract_z
Zn1	Zn	1.597626	-0.455885	0.416046
Zn2	Zn	2.097626	0.044115	0.916046
Zn3	Zn	1.597533	-0.321060	0.590803
Zn4	Zn	2.097533	0.178940	1.090803
Zn5	Zn	1.422881	-0.321070	0.416077
Zn6	Zn	1.922881	0.178930	0.916077
Zn7	Zn	1.422853	-0.455855	0.590746
Zn8	Zn	1.922853	0.044145	1.090746
O9	O	1.510223	-0.388468	0.503418
O10	O	2.010223	0.111532	1.003418
O11	O	1.743850	-0.438009	0.439239
O12	O	2.243850	0.061991	0.939239
O13	O	1.574338	-0.208229	0.567662
O14	O	2.074338	0.291771	1.067662
O15	O	1.446112	-0.338971	0.269837
O16	O	1.946112	0.161029	0.769837
O17	O	1.743782	-0.338954	0.567632
O18	O	2.243782	0.161046	1.067632
O19	O	1.574497	-0.438019	0.269814
O20	O	2.074497	0.061981	0.769814
O21	O	1.446021	-0.208237	0.439292
O22	O	1.946021	0.291763	0.939292
O23	O	1.276641	-0.338941	0.439237
O24	O	1.776641	0.161059	0.939237
O25	O	1.446065	-0.568691	0.567535
O26	O	1.946065	-0.068691	1.067535
O27	O	1.276621	-0.437967	0.567565
O28	O	1.776621	0.062033	1.067565
O29	O	1.574470	-0.568714	0.439183
O30	O	2.074470	-0.068714	0.939183
O31	O	1.574311	-0.338924	0.737032
O32	O	2.074311	0.161076	1.237032
O33	O	1.445974	-0.437957	0.736990
O34	O	1.945974	0.062043	1.236990
C35	C	1.238713	-0.388452	0.503399
C36	C	1.738713	0.111548	1.003399
C37	C	1.122560	-0.388465	0.503416
C38	C	1.622560	0.111535	1.003416
C39	C	1.070809	-0.437557	0.439995
C40	C	1.570809	0.062443	0.939995
C41	C	0.950759	-0.437571	0.440011
C42	C	1.450759	0.062429	0.940011
C43	C	1.510275	-0.598777	0.503349
C44	C	2.010275	-0.098777	1.003349
C45	C	1.510296	-0.688398	0.503320
C46	C	2.010296	-0.188398	1.003320
C47	C	1.510313	-0.761180	0.503297
C48	C	2.010313	-0.261180	1.003297
C49	C	1.510338	-0.852489	0.503258
C50	C	2.010338	-0.352489	1.003258
C51	C	1.510362	-0.925265	0.503221
C52	C	2.010362	-0.425265	1.003221
C53	C	1.510389	-1.016580	0.503183
C54	C	2.010389	-0.516580	1.003183
C55	C	1.782793	-0.388483	0.503438
C56	C	2.282793	0.111517	1.003438
C57	C	1.898947	-0.388490	0.503447
C58	C	2.398947	0.111510	1.003447
C59	C	1.510158	-0.388453	0.774928
C60	C	2.010158	0.111547	1.274928
C61	C	1.510226	-0.388474	0.891081
C62	C	2.010226	0.111526	1.391081
C63	C	1.510232	-0.178977	0.503411
C64	C	2.010232	0.321023	1.003411
C65	C	1.510413	-0.089356	0.503146
C66	C	2.010413	0.410644	1.003146
C67	C	1.510317	-0.388500	0.230848
C68	C	2.010317	0.111500	0.730848
C69	C	1.510358	-0.388513	0.114695
C70	C	2.010358	0.111487	0.614695
C71	C	1.573806	-0.339524	0.942852
C72	C	2.073806	0.160476	1.442852
C73	C	1.573878	-0.339544	1.062902
C74	C	2.073878	0.160456	1.562902
H75	H	0.906254	-0.479603	0.385718
H76	H	1.406254	0.020397	0.885718
H77	H	0.943445	-0.346463	0.557752
H78	H	1.443445	0.153537	1.057752
H79	H	1.628308	-0.297634	1.107424
H80	H	2.128308	0.202366	1.607424
H81	H	1.077990	-0.346444	0.557722
H82	H	1.577990	0.153556	1.057722
C83	C	1.436813	-0.445134	1.054565
C84	C	1.936813	0.054866	1.554565
C85	C	1.445261	-0.536815	1.069389
C86	C	1.945261	-0.036815	1.569389
C87	C	1.371717	-0.593437	1.009250
C88	C	1.871717	-0.093437	1.509250
C89	C	1.289725	-0.558377	0.934288
C90	C	1.789725	-0.058377	1.434288
C91	C	1.281274	-0.466691	0.919461
C92	C	1.781274	0.033309	1.419461
C93	C	1.354818	-0.410070	0.979599
C94	C	1.854818	0.089930	1.479599
H95	H	1.505960	-0.562773	1.124884
H96	H	2.005960	-0.062773	1.624884
H97	H	1.377974	-0.661309	1.020227
H98	H	1.877974	-0.161309	1.520227
H99	H	1.235283	-0.600291	0.889770
H100	H	1.735283	-0.100291	1.389770
H101	H	1.220575	-0.440733	0.863966
H102	H	1.720575	0.059267	1.363966
H103	H	1.348561	-0.342198	0.968623
H104	H	1.848561	0.157802	1.468623
H105	H	1.628192	-0.297603	0.898301
H106	H	2.128192	0.202397	1.398301
H107	H	1.115380	-0.479573	0.385683
H108	H	1.615380	0.020427	0.885683
H109	H	1.455849	-0.430401	0.935635
H110	H	1.955849	0.069599	1.435635
