data_functionalizedCrystal
_audit_creation_method	'MofGen! by Chris Wilmer'
_symmetry_space_group_name_H-M	'P1'
_symmetry_Int_Tables_number	1
_symmetry_cell_setting	triclinic
loop_
_symmetry_equiv_pos_as_xyz
  x,y,z
_cell_length_a	13.032831
_cell_length_b	15.299816
_cell_length_c	13.032268
_cell_angle_alpha	72.095154
_cell_angle_beta	89.113023
_cell_angle_gamma	74.594753
loop_
_atom_site_label
_atom_site_type_symbol
_atom_site_fract_x
_atom_site_fract_y
_atom_site_fract_z
Zn1	Zn	1.608034	-0.636635	0.922463
Zn2	Zn	1.653946	-0.777088	0.781728
Zn3	Zn	1.451116	-0.597255	0.719943
Zn4	Zn	1.459317	-0.771991	0.930720
O5	O	1.543103	-0.695742	0.838713
O6	O	1.761248	-0.673880	0.926196
O7	O	1.642822	-0.738885	0.626424
O8	O	1.449285	-0.470571	0.717495
O9	O	1.794979	-0.777070	0.822799
O10	O	1.564572	-0.499503	0.866285
O11	O	1.493804	-0.606762	0.581030
O12	O	1.305080	-0.601820	0.725501
O13	O	1.463263	-0.768383	1.076733
O14	O	1.311105	-0.730198	0.880358
O15	O	1.572524	-0.668938	1.070667
O16	O	1.650775	-0.908319	0.830805
O17	O	1.507782	-0.904574	0.940269
C18	C	1.269945	-0.661183	0.797122
C19	C	1.153088	-0.646424	0.779359
C20	C	1.104024	-0.703445	0.847984
C21	C	0.983247	-0.688192	0.829627
C22	C	1.585176	-0.940655	0.893165
C23	C	1.603268	-1.045445	0.916509
C24	C	1.414452	-1.280894	0.672331
C25	C	1.397449	-1.182438	0.650399
C26	C	1.448902	-1.148185	0.716925
C27	C	1.517362	-1.212398	0.805385
C28	C	1.534360	-1.310863	0.827324
C29	C	1.568810	-1.178154	0.871918
C30	C	1.637270	-1.242367	0.960379
C31	C	1.654266	-1.340822	0.982313
C32	C	1.602812	-1.375076	0.915787
C33	C	1.551812	-1.079688	0.849979
C34	C	1.671720	-1.109657	1.004972
C35	C	1.688723	-1.208113	1.026904
C36	C	1.817328	-0.730436	0.880468
C37	C	1.934186	-0.745221	0.898262
C38	C	1.513687	-0.722485	1.112910
C39	C	1.501151	-0.733881	1.229756
C40	C	1.500892	-0.449879	0.784077
C41	C	1.482904	-0.345106	0.760794
C42	C	1.572454	-0.669043	0.565578
C43	C	1.585147	-0.657407	0.448704
C44	C	1.549623	-0.689758	1.278848
C45	C	1.536669	-0.701536	1.399615
H46	H	1.496071	-1.027414	0.777954
H47	H	1.105677	-0.586310	0.707019
H48	H	1.485568	-0.748026	1.446986
H49	H	1.450054	-0.780368	1.277131
H50	H	1.151434	-0.763552	0.920330
O51	O	1.610576	-0.634220	1.222485
C52	C	1.722272	-0.532654	1.227578
C53	C	1.653254	-0.595506	1.291527
H54	H	1.756815	-0.501352	1.283377
H55	H	1.671053	-0.472226	1.157896
H56	H	1.790110	-0.577915	1.194129
H57	H	1.585409	-0.550324	1.325048
H58	H	1.704547	-0.655938	1.361154
O59	O	0.926553	-0.616554	0.743334
C60	C	0.754465	-0.535990	0.646412
C61	C	0.818546	-0.617161	0.744170
H62	H	0.667126	-0.536441	0.647068
H63	H	0.787829	-0.546857	0.568490
H64	H	0.760998	-0.464529	0.651348
H65	H	0.812039	-0.688658	0.739339
H66	H	0.785165	-0.606210	0.822052
O67	O	0.990897	-0.816917	0.984497
C68	C	1.162962	-0.897424	1.081485
C69	C	1.098872	-0.816211	0.983767
H70	H	1.250267	-0.896867	1.080940
H71	H	1.156575	-0.968928	1.076550
H72	H	1.129465	-0.886558	1.159359
H73	H	1.132324	-0.826985	0.905845
H74	H	1.105258	-0.744736	0.988798
O75	O	1.432311	-1.052517	0.695439
C76	C	1.342075	-0.894780	0.578954
C77	C	1.360788	-1.003104	0.603157
H78	H	1.284232	-0.854798	0.504357
H79	H	1.421185	-0.876111	0.563552
H80	H	1.306899	-0.873237	0.651095
H81	H	1.395930	-1.024724	0.531051
H82	H	1.281651	-1.021714	0.618602
O83	O	1.646104	-0.601865	1.392347
C84	C	1.757801	-0.500301	1.397446
C85	C	1.688781	-0.563153	1.461391
H86	H	1.792343	-0.469000	1.453247
H87	H	1.706583	-0.439872	1.327764
H88	H	1.825640	-0.545562	1.363997
H89	H	1.620935	-0.517971	1.494912
H90	H	1.740072	-0.623586	1.531019
O91	O	1.330964	-1.120198	0.564398
C92	C	1.213788	-1.100869	0.413011
C93	C	1.289074	-1.171463	0.510367
H94	H	1.179881	-1.142287	0.369313
H95	H	1.259999	-1.055522	0.355094
H96	H	1.145687	-1.052522	0.442605
H97	H	1.357189	-1.219870	0.480872
H98	H	1.242787	-1.216741	0.568264
O99	O	1.364597	-1.314330	0.607798
C100	C	1.337597	-1.452739	0.572955
C101	C	1.394150	-1.415004	0.646116
H102	H	1.361451	-1.534138	0.603920
H103	H	1.361895	-1.427548	0.486706
H104	H	1.247505	-1.424455	0.574116
H105	H	1.484251	-1.443272	0.645047
H106	H	1.369764	-1.440187	0.732330
O107	O	1.755147	-1.270624	1.112820
C108	C	1.834519	-1.435592	1.215256
C109	C	1.759249	-1.364905	1.117938
H110	H	1.837878	-1.511834	1.219412
H111	H	1.803562	-1.422216	1.292911
H112	H	1.917908	-1.425048	1.205444
H113	H	1.675841	-1.375407	1.127644
H114	H	1.790294	-1.378298	1.040319
H115	H	1.616657	-1.455246	0.933636
O116	O	1.721539	-1.076279	1.069607
C117	C	1.701136	-0.980712	1.188951
C118	C	1.644590	-1.018436	1.115772
H119	H	1.638948	-0.933956	1.226314
H120	H	1.753325	-0.936786	1.138871
H121	H	1.753009	-1.043534	1.255908
H122	H	1.592662	-0.955672	1.048804
H123	H	1.592466	-1.062392	1.165926
H124	H	1.710005	-1.393103	1.054347
