data_functionalizedCrystal
_audit_creation_method	'MofGen! by Chris Wilmer'
_symmetry_space_group_name_H-M	'P1'
_symmetry_Int_Tables_number	1
_symmetry_cell_setting	triclinic
loop_
_symmetry_equiv_pos_as_xyz
  x,y,z
_cell_length_a	17.038278
_cell_length_b	17.038272
_cell_length_c	9.730223
_cell_angle_alpha	90.004701
_cell_angle_beta	89.996643
_cell_angle_gamma	88.888972
loop_
_atom_site_label
_atom_site_type_symbol
_atom_site_fract_x
_atom_site_fract_y
_atom_site_fract_z
O1	O	1.048753	-0.170527	-0.114303
O2	O	0.820941	-0.167821	-0.114304
O3	O	0.933493	-0.055268	-0.114293
O4	O	0.936201	-0.283080	-0.114314
O5	O	0.933485	-0.055264	0.114287
O6	O	0.820933	-0.167817	0.114276
O7	O	1.048745	-0.170523	0.114277
Zn8	Zn	0.934838	-0.169170	0.150568
Zn9	Zn	0.934848	-0.169174	-0.150595
O10	O	0.936193	-0.283076	0.114266
C11	C	0.791645	-0.165356	-0.000014
C12	C	0.704361	-0.158009	-0.000014
C13	C	0.210935	-0.112872	-0.000014
C14	C	0.292947	-0.119781	-0.000007
C15	C	0.329347	-0.194155	-0.000020
C16	C	0.283730	-0.261623	-0.000027
C17	C	0.201720	-0.254713	-0.000025
C18	C	0.576734	-0.218567	-0.000018
C19	C	0.658751	-0.225473	-0.000025
C20	C	0.667962	-0.083630	-0.000002
C21	C	0.585949	-0.076726	-0.000008
C22	C	0.540340	-0.144194	-0.000008
C23	C	0.413176	-0.201219	-0.000017
C24	C	0.456513	-0.137129	-0.000001
C25	C	0.931026	-0.025974	-0.000003
C26	C	0.923678	0.061310	-0.000003
C27	C	1.078041	-0.172988	-0.000016
C28	C	1.165325	-0.180335	-0.000026
N29	N	0.934836	-0.169166	0.356105
C30	C	0.938660	-0.312370	-0.000027
C31	C	0.946008	-0.399654	-0.000036
C32	C	0.991142	0.106920	-0.000002
C33	C	0.984233	0.188932	-0.000015
C34	C	0.909859	0.225332	-0.000019
C35	C	0.842391	0.179716	-0.000025
C36	C	0.849300	0.097706	-0.000022
C37	C	0.885449	0.472720	-0.000038
C38	C	0.878544	0.554736	-0.000037
C39	C	1.020387	0.563946	-0.000030
C40	C	1.027290	0.481934	-0.000018
C41	C	0.959821	0.436325	-0.000031
C42	C	0.902796	0.309161	-0.000028
C43	C	0.966886	0.352497	-0.000032
N44	N	0.934855	-0.169172	-0.356132
C45	C	0.984694	-0.119351	0.428036
C46	C	0.984702	-0.119352	0.571919
C47	C	0.884992	-0.218989	0.571927
C48	C	0.884981	-0.218984	0.428047
H49	H	0.330080	-0.064845	0.000008
H50	H	0.313374	-0.322180	-0.000030
H51	H	1.075316	0.601089	-0.000022
O52	O	1.033061	-0.070988	0.642005
C53	C	1.022396	-0.081684	0.784425
H54	H	0.961911	-0.106843	0.804092
H55	H	1.027189	-0.022797	0.839115
H56	H	1.069464	-0.124059	0.825233
O57	O	1.033140	-0.070881	0.358363
C58	C	1.077160	-0.026927	0.452712
H59	H	1.044910	-0.023885	0.555286
H60	H	1.084969	0.034988	0.411156
H61	H	1.137194	-0.056341	0.467988
H62	H	0.688384	-0.286039	-0.000016
H63	H	0.844378	-0.259549	0.369477
H64	H	0.181305	-0.052309	-0.000012
O65	O	0.783686	0.053515	0.000038
C66	C	0.716560	0.103226	-0.000002
H67	H	0.732422	0.163038	0.043278
H68	H	0.668951	0.076310	0.066353
H69	H	0.694027	0.110528	-0.109666
H70	H	0.556319	-0.016163	0.000003
H71	H	0.164585	-0.309649	-0.000029
H72	H	0.426872	-0.076575	-0.000006
O73	O	1.039087	0.317051	-0.000210
C74	C	1.047339	0.269898	-0.118610
H75	H	0.986800	0.253618	-0.158087
H76	H	1.082203	0.214174	-0.091979
H77	H	1.079686	0.303769	-0.201501
O78	O	1.099518	0.446537	0.000220
C79	C	1.107743	0.399365	0.118587
H80	H	1.065416	0.421474	0.201332
H81	H	1.170545	0.402504	0.158322
H82	H	1.093920	0.335973	0.091824
H83	H	0.442822	-0.261775	-0.000031
O84	O	0.712383	-0.018176	0.000070
C85	C	0.792573	-0.040218	0.000031
H86	H	0.799815	-0.102113	0.043290
H87	H	0.826681	0.002447	0.066405
H88	H	0.816069	-0.038813	-0.109630
O89	O	0.532553	-0.284184	-0.000087
C90	C	0.582270	-0.351306	-0.000071
H91	H	0.642080	-0.335436	-0.043348
H92	H	0.555356	-0.398912	-0.066440
H93	H	0.589577	-0.373848	0.109586
O94	O	1.063406	0.071599	-0.000243
C95	C	1.104870	0.094452	-0.118613
H96	H	1.061475	0.114296	-0.201354
H97	H	1.141584	0.042607	-0.158352
H98	H	1.145079	0.144930	-0.091852
H99	H	1.039169	0.226064	-0.000010
O100	O	0.806353	0.590223	0.000015
C101	C	0.814727	0.672387	-0.000010
H102	H	0.874731	0.687543	0.043271
H103	H	0.766806	0.700618	0.066351
H104	H	0.809413	0.695440	-0.109670
H105	H	0.830511	0.435595	-0.000048
O106	O	0.830594	0.344614	-0.000204
C107	C	0.822354	0.391753	-0.118608
H108	H	0.882896	0.408027	-0.158084
H109	H	0.787488	0.447481	-0.091983
H110	H	0.790012	0.357872	-0.201498
H111	H	0.781834	0.209360	-0.000038
O112	O	0.836532	-0.267274	0.641970
C113	C	0.785284	-0.221966	0.725202
H114	H	0.812481	-0.162612	0.746760
H115	H	0.775050	-0.253915	0.826376
H116	H	0.726884	-0.212734	0.669779
