data_functionalizedCrystal
_audit_creation_method	'MofGen! by Chris Wilmer'
_symmetry_space_group_name_H-M	'P1'
_symmetry_Int_Tables_number	1
_symmetry_cell_setting	triclinic
loop_
_symmetry_equiv_pos_as_xyz
  x,y,z
_cell_length_a	14.446369
_cell_length_b	14.560438
_cell_length_c	14.560438
_cell_angle_alpha	120.000493
_cell_angle_beta	89.999405
_cell_angle_gamma	59.998281
loop_
_atom_site_label
_atom_site_type_symbol
_atom_site_fract_x
_atom_site_fract_y
_atom_site_fract_z
Zr1	Zr	0.891770	1.005231	0.120476
O2	O	0.743958	1.196847	0.267129
O3	O	0.937082	0.813626	0.075522
O4	O	0.937078	1.005235	0.267125
O5	O	0.743965	1.005231	-0.075617
O6	O	1.089415	1.005227	0.267120
O7	O	0.743962	1.005238	0.075525
O8	O	1.089422	0.662474	-0.075624
O9	O	0.743958	1.347984	0.267126
O10	O	1.070095	0.892426	0.056342
O11	O	0.956410	0.892428	-0.056450
O12	O	0.956405	1.118023	0.169138
O13	O	0.842720	1.118024	0.056346
Zr14	Zr	1.134736	1.005208	-0.120588
Zr15	Zr	1.134730	1.005218	0.120467
Zr16	Zr	0.891775	1.005221	-0.120579
Zr17	Zr	0.891770	1.246279	0.120472
Zr18	Zr	1.134735	0.764160	-0.120583
O19	O	1.089423	1.196813	-0.075634
O20	O	1.089416	1.196828	0.267116
O21	O	0.743965	1.196832	-0.075621
O22	O	1.282548	0.813593	-0.267240
O23	O	1.282540	0.813608	0.075509
O24	O	0.937090	0.813612	-0.267228
O25	O	1.282541	1.005208	0.075506
O26	O	1.089427	1.005204	-0.267237
O27	O	0.937090	1.005212	-0.267231
O28	O	1.282544	1.005202	-0.075637
O29	O	0.937079	1.347974	0.267119
O30	O	1.089427	0.662465	-0.267230
O31	O	1.282548	0.662455	-0.267237
O32	O	1.282543	0.662463	-0.075631
O33	O	0.743962	1.347976	0.075519
O34	O	0.937083	1.347966	0.075512
O35	O	1.070100	0.892417	-0.169250
O36	O	1.183785	0.892415	-0.056458
O37	O	1.070095	1.118012	0.056338
O38	O	0.956411	1.118013	-0.056454
C39	C	1.013252	0.703706	-0.000050
C40	C	1.013252	0.601375	-0.000048
C41	C	1.072592	0.553298	0.058828
C42	C	1.072596	0.457139	0.058818
C43	C	0.953912	0.457145	-0.058947
C44	C	0.953915	0.553296	-0.058943
C45	C	0.709347	1.005236	-0.000045
C46	C	0.606204	1.005242	-0.000041
C47	C	0.387834	1.147510	0.070741
C48	C	0.495065	1.147606	0.071139
C49	C	0.602879	0.934572	0.051852
C50	C	0.495110	0.935476	0.052371
C51	C	0.496478	0.932538	-0.122806
C52	C	0.602447	0.935219	-0.122612
C53	C	1.317159	1.005203	-0.000067
C54	C	1.420302	1.005197	-0.000071
C55	C	1.013246	1.005233	0.301468
C56	C	1.013244	1.005237	0.403802
C57	C	1.013253	1.306733	-0.000062
C58	C	1.013254	1.409064	-0.000063
C59	C	0.953907	1.122990	0.606913
C60	C	0.953898	1.122995	0.510764
C61	C	1.072593	0.887465	0.392990
C62	C	1.072595	0.887461	0.489138
C63	C	1.013258	1.005213	0.698424
C64	C	1.013255	1.005227	0.596099
C65	C	1.317158	0.703689	-0.000061
C66	C	1.420301	0.601353	-0.000063
C67	C	1.013259	0.703693	-0.301574
C68	C	1.013261	0.601357	-0.403906
C69	C	1.317165	0.703676	-0.301585
C70	C	1.420310	0.601335	-0.403921
C71	C	0.709340	1.306763	0.301473
C72	C	0.606195	1.409104	0.403809
C73	C	0.709347	1.306750	-0.000050
C74	C	0.606205	1.409087	-0.000049
C75	C	1.013247	1.306746	0.301462
C76	C	1.013244	1.409082	0.403794
C77	C	1.409416	0.553278	0.058814
C78	C	1.506333	0.457130	0.058816
C79	C	1.625018	0.457135	-0.058945
C80	C	1.528102	0.553289	-0.058940
C81	C	1.072606	0.553272	-0.510863
C82	C	1.072595	0.457126	-0.607011
C83	C	0.953893	0.457155	-0.489232
C84	C	0.953898	0.553306	-0.393086
C85	C	1.528110	0.553252	-0.393125
C86	C	1.625022	0.457100	-0.489285
C87	C	1.506320	0.457119	-0.607032
C88	C	1.409411	0.553276	-0.510874
H89	H	1.120918	0.417996	0.106758
H90	H	1.120939	0.592397	-0.519679
H91	H	0.905566	0.592461	-0.305991
C92	C	1.599422	0.504367	-0.237849
C93	C	1.540067	0.606133	-0.123669
H94	H	1.606800	0.536996	-0.277805
H95	H	1.672561	0.440236	-0.246271
H96	H	1.559147	0.466866	-0.266909
H97	H	1.580347	0.643628	-0.094607
H98	H	1.466915	0.670286	-0.115240
C99	C	0.836573	1.355800	0.713664
C100	C	0.888670	1.252436	0.724483
H101	H	0.796290	1.435715	0.786248
H102	H	0.892726	1.350903	0.673716
H103	H	0.785355	1.350890	0.673706
H104	H	0.939895	1.257340	0.764434
H105	H	0.832511	1.257335	0.764449
H106	H	1.120910	0.592439	0.106782
H107	H	1.497460	0.417993	0.106762
C108	C	0.367757	1.263445	0.266640
C109	C	0.313617	1.222551	0.192233
H110	H	0.321935	1.309775	0.341642
H111	H	0.438972	1.189882	0.249915
H112	H	0.379063	1.318433	0.258834
H113	H	0.302318	1.167556	0.200033
H114	H	0.242381	1.296125	0.208963
H115	H	0.905563	0.418018	-0.480437
C116	C	1.602169	0.309714	-0.806720
C117	C	1.494345	0.404275	-0.724596
H118	H	1.594771	0.277086	-0.879298
H119	H	1.642428	0.347221	-0.798292
H120	H	1.642427	0.240693	-0.798276
H121	H	1.454090	0.473302	-0.733035
H122	H	1.454070	0.366770	-0.733028
H123	H	1.712796	0.417955	-0.480487
H124	H	0.905600	0.417989	-0.106895
H125	H	0.521765	0.831063	0.004129
H126	H	1.321629	0.592429	-0.519672
H127	H	0.905592	0.592439	-0.106892
C128	C	1.252919	0.686696	0.418370
C129	C	1.137836	0.758009	0.477260
H130	H	1.293189	0.606787	0.411047
H131	H	1.261409	0.669839	0.345806
H132	H	1.282211	0.735095	0.458331
H133	H	1.108542	0.709615	0.437294
H134	H	1.129339	0.774863	0.549836
H135	H	0.493307	1.203335	0.036601
H136	H	0.333878	1.203360	0.036109
C137	C	1.301840	0.543619	0.175223
C138	C	1.290921	0.606121	0.123540
H139	H	1.228686	0.576249	0.215190
H140	H	1.342109	0.452851	0.119507
H141	H	1.342115	0.559389	0.226038
H142	H	1.250654	0.590343	0.072719
H143	H	1.250635	0.696910	0.179263
C144	C	0.483676	1.042725	0.246183
C145	C	0.427132	1.003291	0.174293
H146	H	0.441705	1.084601	0.321455
H147	H	0.556923	0.968957	0.225235
H148	H	0.490729	1.101378	0.240627
H149	H	0.420086	0.944630	0.179843
H150	H	0.353864	1.077069	0.195248
C151	C	0.778139	0.767873	-0.102933
C152	C	0.708541	0.793266	-0.014408
H153	H	0.843374	0.680638	-0.143834
H154	H	0.737494	0.780547	-0.151548
H155	H	0.800765	0.825201	-0.073450
H156	H	0.685908	0.735944	-0.043892
H157	H	0.749194	0.780579	0.034214
H158	H	0.492617	1.203398	0.161676
C159	C	0.426702	0.900770	-0.278129
C160	C	0.428978	0.993977	-0.181355
H161	H	0.385024	0.938704	-0.314269
H162	H	0.502006	0.830214	-0.327949
H163	H	0.391513	0.870196	-0.257792
H164	H	0.464174	1.024544	-0.201693
H165	H	0.353660	1.064556	-0.131525
C166	C	0.598374	0.941677	-0.284221
C167	C	0.601735	1.004779	-0.174951
H168	H	0.597926	0.984632	-0.316524
H169	H	0.663181	0.854102	-0.328566
H170	H	0.531721	0.943522	-0.281674
H171	H	0.668393	1.002926	-0.177499
H172	H	0.536921	1.092377	-0.130596
C173	C	0.652034	0.706831	-0.233627
C174	C	0.533533	0.791011	-0.194367
H175	H	0.674901	0.619464	-0.277792
H176	H	0.682777	0.721669	-0.278238
H177	H	0.678786	0.722259	-0.171471
H178	H	0.506781	0.775590	-0.256523
H179	H	0.502777	0.776166	-0.149754
H180	H	1.536991	0.592382	-0.306043
C181	C	1.125310	0.782890	0.193307
C182	C	1.137835	0.758021	0.275418
H183	H	1.165599	0.702973	0.120725
H184	H	1.047245	0.831264	0.201740
H185	H	1.154613	0.831284	0.201761
H186	H	1.108525	0.709636	0.266969
H187	H	1.215916	0.709628	0.266981
C188	C	0.901172	1.227586	0.415674
C189	C	0.888656	1.252443	0.522650
H190	H	0.860883	1.307507	0.423017
H191	H	0.979236	1.179211	0.375726
H192	H	0.871865	1.179198	0.375735
H193	H	0.917971	1.300823	0.562586
H194	H	0.810576	1.300838	0.562614
H195	H	0.605012	0.983663	0.141311
H196	H	0.681606	0.831355	-0.179812
C197	C	1.826284	0.309731	-0.111252
C198	C	1.743514	0.404287	-0.123673
H199	H	1.899437	0.277100	-0.151222
H200	H	1.817785	0.347243	-0.033800
H201	H	1.817773	0.240710	-0.140330
H202	H	1.752019	0.473312	-0.094587
H203	H	1.752016	0.366776	-0.201141
H204	H	1.120918	0.417981	-0.694097
