data_functionalizedCrystal
_audit_creation_method	'MofGen! by Chris Wilmer'
_symmetry_space_group_name_H-M	'P1'
_symmetry_Int_Tables_number	1
_symmetry_cell_setting	triclinic
loop_
_symmetry_equiv_pos_as_xyz
  x,y,z
_cell_length_a	11.792241
_cell_length_b	17.699083
_cell_length_c	16.776229
_cell_angle_alpha	90.007545
_cell_angle_beta	90.002923
_cell_angle_gamma	83.738215
loop_
_atom_site_label
_atom_site_type_symbol
_atom_site_fract_x
_atom_site_fract_y
_atom_site_fract_z
O1	O	-1.505669	-0.103738	-0.066213
O2	O	-1.005669	0.396262	0.433787
O3	O	-1.175200	-0.114429	-0.066231
O4	O	-0.675200	0.385571	0.433769
O5	O	-1.349771	0.001056	-0.066214
O6	O	-0.849771	0.501056	0.433786
O7	O	-1.331098	-0.219223	-0.066229
O8	O	-0.831098	0.280777	0.433771
O9	O	-1.349748	0.001063	0.066362
O10	O	-0.849748	0.501063	0.566362
O11	O	-1.175177	-0.114422	0.066345
O12	O	-0.675177	0.385578	0.566345
O13	O	-1.505646	-0.103731	0.066364
O14	O	-1.005646	0.396269	0.566364
Zn15	Zn	-1.340408	-0.109075	0.087404
Zn16	Zn	-0.840408	0.390925	0.587404
Zn17	Zn	-1.340438	-0.109085	-0.087271
Zn18	Zn	-0.840438	0.390915	0.412729
O19	O	-1.331075	-0.219216	0.066347
O20	O	-0.831075	0.280784	0.566347
C21	C	-1.132906	-0.113754	0.000055
C22	C	-0.632906	0.386246	0.500055
C23	C	-1.006916	-0.111744	0.000048
C24	C	-0.506916	0.388256	0.500048
C25	C	-1.349091	0.029260	0.000074
C26	C	-0.849091	0.529260	0.500074
C27	C	-1.347083	0.113289	0.000074
C28	C	-0.847083	0.613289	0.500074
C29	C	-1.547941	-0.104406	0.000076
C30	C	-1.047941	0.395594	0.500076
C31	C	-1.673930	-0.106416	0.000078
C32	C	-1.173930	0.393584	0.500078
C33	C	-0.776248	-0.108048	0.000071
C34	C	-0.276248	0.391952	0.500071
C35	C	-0.904609	-0.110101	0.000058
C36	C	-0.404609	0.389899	0.500058
C37	C	-1.331756	-0.247420	0.000057
C38	C	-0.831756	0.252580	0.500057
C39	C	-1.333763	-0.331449	0.000051
C40	C	-0.833763	0.168551	0.500051
N41	N	-1.340396	-0.109068	0.206615
N42	N	-0.840396	0.390932	0.706615
C43	C	-1.449553	0.161364	0.000081
C44	C	-0.949553	0.661364	0.500081
C45	C	-1.447660	0.240317	0.000074
C46	C	-0.947660	0.740317	0.500074
C47	C	-1.343297	0.271194	0.000066
C48	C	-0.843297	0.771194	0.500066
C49	C	-1.240819	0.223113	0.000056
C50	C	-0.740819	0.723113	0.500056
C51	C	-1.242713	0.144161	0.000058
C52	C	-0.742713	0.644161	0.500058
C53	C	-1.233178	0.541517	0.000049
C54	C	-0.733178	1.041517	0.500049
C55	C	-1.231292	0.620475	0.000050
C56	C	-0.731292	1.120475	0.500050
C57	C	-1.438126	0.637673	0.000066
C58	C	-0.938126	1.137673	0.500066
C59	C	-1.440020	0.558721	0.000067
C60	C	-0.940020	1.058721	0.500067
C61	C	-1.337543	0.510647	0.000054
C62	C	-0.837543	1.010647	0.500054
C63	C	-1.339596	0.425037	0.000060
C64	C	-0.839596	0.925037	0.500060
C65	C	-1.341242	0.356803	0.000065
C66	C	-0.841242	0.856803	0.500065
N67	N	-1.340460	-0.109086	-0.206483
N68	N	-0.840460	0.390914	0.293517
C69	C	-1.417719	-0.057953	0.248340
C70	C	-0.917719	0.442047	0.748340
C71	C	-1.417725	-0.057952	0.331792
C72	C	-0.917725	0.442048	0.831792
C73	C	-1.340413	-0.109071	0.373518
C74	C	-0.840413	0.390929	0.873518
C75	C	-1.263081	-0.160189	0.331788
C76	C	-0.763081	0.339811	0.831788
C77	C	-1.263070	-0.160185	0.248337
C78	C	-0.763070	0.339815	0.748337
C79	C	-1.263122	-0.160204	0.668335
C80	C	-0.763122	0.339796	1.168335
C81	C	-1.263141	-0.160205	0.751791
C82	C	-0.763141	0.339795	1.251791
C83	C	-1.417777	-0.057971	0.751790
C84	C	-0.917777	0.442029	1.251790
C85	C	-1.417766	-0.057967	0.668339
C86	C	-0.917766	0.442033	1.168339
C87	C	-1.340431	-0.109082	0.626616
C88	C	-0.840431	0.390918	1.126616
C89	C	-1.340424	-0.109081	0.536128
C90	C	-0.840424	0.390919	1.036128
C91	C	-1.340425	-0.109076	0.464005
C92	C	-0.840425	0.390924	0.964005
H93	H	-1.534538	0.136230	0.000093
H94	H	-1.034538	0.636230	0.500093
H95	H	-1.200104	-0.201808	0.214366
H96	H	-0.700104	0.298192	0.714366
H97	H	-1.480725	-0.016344	0.634368
H98	H	-0.980725	0.483656	1.134368
H99	H	-1.480687	-0.016329	0.365764
H100	H	-0.980687	0.483671	0.865764
H101	H	-1.155844	0.248259	0.000044
H102	H	-0.655844	0.748259	0.500044
H103	H	-1.149735	0.502384	0.000039
H104	H	-0.649735	1.002384	0.500039
H105	H	-1.531101	0.279457	0.000081
H106	H	-1.031101	0.779457	0.500081
H107	H	-1.200179	-0.201834	0.785763
H108	H	-0.700179	0.298166	1.285763
H109	H	-1.480745	-0.016348	0.785770
H110	H	-0.980745	0.483652	1.285770
H111	H	-1.525003	0.533586	0.000078
H112	H	-1.025003	1.033586	0.500078
H113	H	-1.159272	0.105019	0.000052
H114	H	-0.659272	0.605019	0.500052
H115	H	-1.200155	-0.201825	0.634370
H116	H	-0.700155	0.298175	1.134370
H117	H	-1.200126	-0.201809	0.365766
H118	H	-0.700126	0.298191	0.865766
H119	H	-1.521567	0.676825	0.000073
H120	H	-1.021567	1.176825	0.500073
H121	H	-1.480681	-0.016329	0.214372
H122	H	-0.980681	0.483671	0.714372
H123	H	-1.146302	0.645611	0.000045
H124	H	-0.646302	1.145611	0.500045
