data_functionalizedCrystal
_audit_creation_method	'MofGen! by Chris Wilmer'
_symmetry_space_group_name_H-M	'P1'
_symmetry_Int_Tables_number	1
_symmetry_cell_setting	triclinic
loop_
_symmetry_equiv_pos_as_xyz
  x,y,z
_cell_length_a	12.827893
_cell_length_b	19.121063
_cell_length_c	12.827885
_cell_angle_alpha	92.403967
_cell_angle_beta	89.980728
_cell_angle_gamma	92.468878
loop_
_atom_site_label
_atom_site_type_symbol
_atom_site_fract_x
_atom_site_fract_y
_atom_site_fract_z
Zn1	Zn	1.579835	-0.279579	-0.608539
Zn2	Zn	1.913169	0.053754	-0.275206
Zn3	Zn	2.246502	0.387087	0.058128
Zn4	Zn	1.572236	-0.397046	-0.441232
Zn5	Zn	1.905570	-0.063713	-0.107898
Zn6	Zn	2.238903	0.269621	0.225435
Zn7	Zn	1.405075	-0.279614	-0.433815
Zn8	Zn	1.738408	0.053720	-0.100481
Zn9	Zn	2.071741	0.387053	0.232852
Zn10	Zn	1.397572	-0.396994	-0.615928
Zn11	Zn	1.730906	-0.063660	-0.282595
Zn12	Zn	2.064239	0.269673	0.050738
O13	O	1.488680	-0.338308	-0.524878
O14	O	1.822013	-0.004975	-0.191545
O15	O	2.155346	0.328358	0.141788
O16	O	1.725063	-0.295169	-0.586357
O17	O	2.058396	0.038164	-0.253023
O18	O	2.391730	0.371497	0.080310
O19	O	1.550022	-0.381505	-0.294014
O20	O	1.883355	-0.048171	0.039319
O21	O	2.216688	0.285162	0.372653
O22	O	1.434577	-0.181325	-0.450796
O23	O	1.767910	0.152008	-0.117462
O24	O	2.101244	0.485342	0.215871
O25	O	1.719480	-0.381471	-0.463437
O26	O	2.052813	-0.048138	-0.130104
O27	O	2.386147	0.285195	0.203230
O28	O	1.562973	-0.181300	-0.579165
O29	O	1.896306	0.152034	-0.245831
O30	O	2.229640	0.485367	0.087502
O31	O	1.427209	-0.295227	-0.288565
O32	O	1.760542	0.038106	0.044769
O33	O	2.093875	0.371439	0.378102
O34	O	1.257844	-0.295177	-0.457961
O35	O	1.591177	0.038157	-0.124628
O36	O	1.924511	0.371490	0.208706
O37	O	1.421790	-0.381382	-0.761182
O38	O	1.755124	-0.048049	-0.427849
O39	O	2.088457	0.285284	-0.094515
O40	O	1.252332	-0.381415	-0.591759
O41	O	1.585665	-0.048082	-0.258426
O42	O	1.918999	0.285251	0.074907
O43	O	1.555698	-0.295118	-0.755753
O44	O	1.889032	0.038215	-0.422420
O45	O	2.222365	0.371548	-0.089086
O46	O	1.542747	-0.495323	-0.470602
O47	O	1.876080	-0.161990	-0.137269
O48	O	2.209414	0.171343	0.196064
O49	O	1.414422	-0.495285	-0.598951
O50	O	1.747755	-0.161952	-0.265618
O51	O	2.081089	0.171382	0.067715
C52	C	1.217171	-0.338295	-0.524858
C53	C	1.550504	-0.004961	-0.191524
C54	C	1.883837	0.328372	0.141809
C55	C	1.101017	-0.338306	-0.524875
C56	C	1.434350	-0.004972	-0.191541
C57	C	1.767683	0.328361	0.141792
C58	C	1.046528	-0.381046	-0.590989
C59	C	1.379861	-0.047713	-0.257655
C60	C	1.713195	0.285621	0.075678
C61	C	0.926477	-0.381059	-0.591008
C62	C	1.259810	-0.047725	-0.257674
C63	C	1.593144	0.285608	0.075659
C64	C	1.476974	-0.520788	-0.536406
C65	C	1.810307	-0.187455	-0.203073
C66	C	2.143641	0.145879	0.130260
C67	C	1.472062	-0.598854	-0.541373
C68	C	1.805395	-0.265520	-0.208040
C69	C	2.138729	0.067813	0.125294
C70	C	1.536618	-0.635526	-0.476937
C71	C	1.869951	-0.302193	-0.143604
C72	C	2.203285	0.031141	0.189729
C73	C	1.532005	-0.708877	-0.481615
C74	C	1.865338	-0.375544	-0.148281
C75	C	2.198671	-0.042210	0.185052
C76	C	1.462829	-0.745554	-0.550723
C77	C	1.796162	-0.412221	-0.217390
C78	C	2.129495	-0.078888	0.115944
C79	C	1.398270	-0.708877	-0.615166
C80	C	1.731603	-0.375544	-0.281832
C81	C	2.064937	-0.042211	0.051501
C82	C	1.402890	-0.635528	-0.610493
C83	C	1.736223	-0.302194	-0.277160
C84	C	2.069556	0.031139	0.056174
C85	C	1.445540	-0.967023	-0.568177
C86	C	1.778873	-0.633690	-0.234843
C87	C	2.112207	-0.300356	0.098490
C88	C	1.440923	-1.040378	-0.572842
C89	C	1.774257	-0.707045	-0.239509
C90	C	2.107590	-0.373711	0.093824
C91	C	1.574660	-1.040373	-0.439292
C92	C	1.907993	-0.707039	-0.105959
C93	C	2.241326	-0.373706	0.227375
C94	C	1.579269	-0.967021	-0.434621
C95	C	1.912602	-0.633688	-0.101288
C96	C	2.245935	-0.300355	0.232046
C97	C	1.514714	-0.930351	-0.499067
C98	C	1.848047	-0.597017	-0.165734
C99	C	2.181381	-0.263684	0.167599
C100	C	1.458109	-0.820531	-0.555503
C101	C	1.791442	-0.487198	-0.222170
C102	C	2.124776	-0.153864	0.111164
C103	C	1.519440	-0.855375	-0.494292
C104	C	1.852773	-0.522042	-0.160958
C105	C	2.186106	-0.188709	0.172375
C106	C	1.761249	-0.338322	-0.524900
C107	C	2.094582	-0.004989	-0.191567
C108	C	2.427916	0.328344	0.141767
C109	C	1.877402	-0.338328	-0.524909
C110	C	2.210735	-0.004995	-0.191576
C111	C	2.544068	0.328338	0.141758
C112	C	1.488755	-0.338241	-0.797445
C113	C	1.822088	-0.004907	-0.464111
C114	C	2.155422	0.328426	-0.130778
C115	C	1.488787	-0.338212	-0.913596
C116	C	1.822121	-0.004879	-0.580263
C117	C	2.155454	0.328455	-0.246929
C118	C	1.500460	-0.155116	-0.513328
C119	C	1.833793	0.178218	-0.179995
C120	C	2.167126	0.511551	0.153338
C121	C	1.505479	-0.077050	-0.508407
C122	C	1.838813	0.256283	-0.175073
C123	C	2.172146	0.589617	0.158260
C124	C	1.555057	-0.295518	-0.962694
C125	C	1.888390	0.037816	-0.629360
C126	C	2.221723	0.371149	-0.296027
C127	C	1.555091	-0.295487	-1.082742
C128	C	1.888425	0.037846	-0.749409
C129	C	2.221758	0.371180	-0.416075
C130	C	1.488668	-0.338325	-0.253370
C131	C	1.822001	-0.004991	0.079964
C132	C	2.155335	0.328342	0.413297
C133	C	1.488851	-0.338156	-0.137206
C134	C	1.822184	-0.004822	0.196127
C135	C	2.155518	0.328511	0.529460
H136	H	0.924244	-0.301737	-0.468300
H137	H	1.257577	0.031596	-0.134967
H138	H	1.590910	0.364929	0.198367
H139	H	1.611830	-0.258937	-1.124975
H140	H	1.945164	0.074396	-0.791642
H141	H	2.278497	0.407730	-0.458309
Cl142	Cl	1.642592	-0.239098	-0.890382
Cl143	Cl	1.975925	0.094235	-0.557049
Cl144	Cl	2.309259	0.427569	-0.223716
Cl145	Cl	1.111714	-0.437533	-0.678357
Cl146	Cl	1.445048	-0.104199	-0.345024
Cl147	Cl	1.778381	0.229134	-0.011690
Cl148	Cl	1.401253	-0.394599	-1.072015
Cl149	Cl	1.734586	-0.061265	-0.738681
Cl150	Cl	2.067920	0.272068	-0.405348
Cl151	Cl	1.035830	-0.281819	-0.437507
Cl152	Cl	1.369164	0.051515	-0.104174
Cl153	Cl	1.702497	0.384848	0.229159
H154	H	1.635597	-0.937160	-0.378347
H155	H	1.968930	-0.603827	-0.045014
H156	H	2.302264	-0.270493	0.288319
H157	H	1.392975	-0.937171	-0.620650
H158	H	1.726308	-0.603838	-0.287316
H159	H	2.059642	-0.270505	0.046017
Cl160	Cl	0.854152	-0.437560	-0.678397
Cl161	Cl	1.187485	-0.104227	-0.345064
Cl162	Cl	1.520818	0.229107	-0.011730
Cl163	Cl	1.623580	-0.589424	-0.390047
Cl164	Cl	1.956913	-0.256091	-0.056713
Cl165	Cl	2.290247	0.077242	0.276620
H166	H	1.432071	-0.374737	-0.960437
H167	H	1.765404	-0.041404	-0.627103
H168	H	2.098738	0.291930	-0.293770
H169	H	1.584572	-0.738732	-0.429143
H170	H	1.917906	-0.405399	-0.095810
H171	H	2.251239	-0.072065	0.237523
H172	H	1.627218	-1.070238	-0.386825
H173	H	1.960551	-0.736904	-0.053491
H174	H	2.293885	-0.403571	0.279842
H175	H	1.384604	-1.070239	-0.629137
H176	H	1.717938	-0.736905	-0.295804
H177	H	2.051271	-0.403572	0.037530
Cl178	Cl	1.311311	-0.754986	-0.702051
Cl179	Cl	1.644645	-0.421653	-0.368718
Cl180	Cl	1.977978	-0.088320	-0.035385
Cl181	Cl	1.321733	-0.589425	-0.691505
Cl182	Cl	1.655066	-0.256092	-0.358172
Cl183	Cl	1.988400	0.077241	-0.024838
H184	H	1.401784	-0.850402	-0.611769
H185	H	1.735117	-0.517069	-0.278436
H186	H	2.068450	-0.183735	0.054897
Cl187	Cl	1.606404	-0.809266	-0.407420
Cl188	Cl	1.939738	-0.475932	-0.074087
Cl189	Cl	2.273071	-0.142599	0.259247
