data_functionalizedCrystal
_audit_creation_method	'MofGen! by Chris Wilmer'
_symmetry_space_group_name_H-M	'P1'
_symmetry_Int_Tables_number	1
_symmetry_cell_setting	triclinic
loop_
_symmetry_equiv_pos_as_xyz
  x,y,z
_cell_length_a	23.096457
_cell_length_b	12.970454
_cell_length_c	12.970454
_cell_angle_alpha	59.999426
_cell_angle_beta	59.999719
_cell_angle_gamma	89.998138
loop_
_atom_site_label
_atom_site_type_symbol
_atom_site_fract_x
_atom_site_fract_y
_atom_site_fract_z
Zr1	Zr	0.557765	-0.135342	1.128538
O2	O	0.465317	-0.299962	1.343627
O3	O	0.586105	-0.084877	0.913448
O4	O	0.586105	-0.299969	1.128540
O5	O	0.465316	0.084798	1.128534
O6	O	0.681386	-0.299975	1.128543
O7	O	0.465316	-0.084870	1.128535
O8	O	0.681385	0.084785	0.743783
O9	O	0.465317	-0.299963	1.513295
O10	O	0.669299	-0.063359	1.001920
O11	O	0.598192	0.063266	1.001918
O12	O	0.598192	-0.189977	1.255161
O13	O	0.527085	-0.063351	1.255158
Zr14	Zr	0.709726	0.135248	1.128541
Zr15	Zr	0.709726	-0.135352	1.128543
Zr16	Zr	0.557765	0.135258	1.128537
Zr17	Zr	0.557765	-0.135343	1.399138
Zr18	Zr	0.709726	0.135249	0.857942
O19	O	0.681386	0.084782	1.343632
O20	O	0.681386	-0.299976	1.343634
O21	O	0.465316	0.084797	1.343625
O22	O	0.802174	0.299868	0.913453
O23	O	0.802175	-0.084891	0.913455
O24	O	0.586105	0.299882	0.913446
O25	O	0.802175	-0.084892	1.128545
O26	O	0.681385	0.299874	1.128540
O27	O	0.586105	0.299881	1.128537
O28	O	0.802174	0.084776	1.128545
O29	O	0.586105	-0.299971	1.513298
O30	O	0.681385	0.299876	0.743782
O31	O	0.802174	0.299868	0.743785
O32	O	0.802174	0.084778	0.743786
O33	O	0.465316	-0.084872	1.513294
O34	O	0.586105	-0.084880	1.513297
O35	O	0.669299	0.189883	1.001919
O36	O	0.740405	0.063257	1.001922
O37	O	0.669299	-0.063360	1.255162
O38	O	0.598192	0.063265	1.255159
C39	C	0.443665	-0.000035	1.128534
C40	C	0.379154	-0.000030	1.128532
C41	C	0.633745	-0.000045	0.790061
C42	C	0.633745	-0.000045	0.675184
C43	C	0.633745	0.338432	1.128538
C44	C	0.633745	0.453309	1.128538
C45	C	0.385965	0.066051	0.996347
C46	C	0.325349	0.066056	0.996345
C47	C	0.257923	-0.000044	1.128536
C48	C	0.251114	-0.066128	1.260738
C49	C	0.311730	-0.066121	1.260736
N50	N	0.135127	-0.107618	1.226932
N51	N	0.077548	-0.107622	1.226925
C52	C	0.075290	-0.000067	1.128549
N53	N	0.132793	0.107492	1.030158
N54	N	0.190379	0.107494	1.030161
C55	C	0.192192	-0.000058	1.128552
C56	C	0.016378	0.066026	0.996353
C57	C	-0.044240	0.066035	0.996356
C58	C	-0.118475	-0.066161	1.260752
C59	C	-0.057857	-0.066158	1.260745
C60	C	0.009567	-0.000067	1.128541
C61	C	0.823826	-0.000059	1.128546
C62	C	0.888337	-0.000064	1.128548
C63	C	0.633746	-0.338526	1.128542
C64	C	0.633746	-0.453403	1.128542
C65	C	0.633745	-0.000049	1.467019
C66	C	0.633745	-0.000049	1.581896
C67	C	0.823826	-0.000058	0.790066
C68	C	0.888337	-0.000061	0.675192
C69	C	0.633745	0.338434	0.790059
C70	C	0.633745	0.453311	0.675182
C71	C	0.823825	0.338422	0.790065
C72	C	0.888337	0.453295	0.675189
C73	C	0.443665	-0.338516	1.467015
C74	C	0.379154	-0.453389	1.581891
C75	C	0.443665	-0.000036	1.467013
C76	C	0.379154	-0.000033	1.581888
C77	C	0.633746	-0.338528	1.467021
C78	C	0.633746	-0.453405	1.581898
C79	C	0.881516	-0.066167	0.621244
C80	C	0.942125	-0.066195	0.513322
C81	C	1.009556	-0.000111	0.459342
C82	C	1.016376	0.065997	0.513300
C83	C	0.955767	0.066017	0.621227
C84	C	0.955755	0.441143	0.621244
C85	C	1.016376	0.549068	0.513321
C86	C	1.009577	0.669144	0.459339
C87	C	0.942152	0.681293	0.513294
C88	C	0.881532	0.573369	0.621222
C89	C	0.311735	-0.441237	1.635849
C90	C	0.251114	-0.549162	1.743805
C91	C	0.257913	-0.669238	1.797794
C92	C	0.325339	-0.681387	1.743831
C93	C	0.385959	-0.573463	1.635884
C94	C	0.385975	0.066061	1.635847
C95	C	0.325366	0.066060	1.743799
C96	C	0.257935	-0.000028	1.797783
C97	C	0.251115	-0.066131	1.743820
C98	C	0.311724	-0.066136	1.635877
H99	H	0.440860	0.119859	0.888697
H100	H	1.071272	0.539154	0.469401
H101	H	0.440875	0.119887	1.591901
F102	F	0.963038	0.136388	0.678623
F103	F	0.193390	-0.784091	1.912681
F104	F	-0.036987	0.136385	0.855659
F105	F	0.963008	0.313360	0.678684
H106	H	0.306160	-0.119955	1.591947
F107	F	1.074056	-0.000142	0.344473
H108	H	0.330867	-0.779165	1.787802
H109	H	0.826639	0.583281	0.665131
H110	H	0.306186	-0.343475	1.591898
H111	H	-0.173374	-0.119982	1.368384
H112	H	-0.063407	-0.119977	1.368385
F113	F	1.074101	0.783997	0.344469
H114	H	0.196219	-0.539246	1.787723
F115	F	0.332595	0.136387	0.855651
H116	H	0.440852	-0.583372	1.591952
F117	F	0.934852	-0.136554	0.455911
H118	H	1.071286	0.119800	0.469333
F119	F	0.193435	-0.000010	1.912665
F120	F	0.179344	-0.136459	1.801285
H121	H	0.196212	-0.119946	1.368368
H122	H	0.826616	-0.119996	0.665194
H123	H	0.306178	-0.119929	1.368381
H124	H	0.071278	0.119868	0.888704
H125	H	0.936626	0.779073	0.469326
H126	H	0.330933	0.119893	1.787717
