data_functionalizedCrystal
_audit_creation_method	'MofGen! by Chris Wilmer'
_symmetry_space_group_name_H-M	'P1'
_symmetry_Int_Tables_number	1
_symmetry_cell_setting	triclinic
loop_
_symmetry_equiv_pos_as_xyz
  x,y,z
_cell_length_a	19.077068
_cell_length_b	19.077241
_cell_length_c	11.169409
_cell_angle_alpha	92.325682
_cell_angle_beta	92.259065
_cell_angle_gamma	85.292229
loop_
_atom_site_label
_atom_site_type_symbol
_atom_site_fract_x
_atom_site_fract_y
_atom_site_fract_z
Zn1	Zn	-0.237396	-1.066489	-0.768078
Zn2	Zn	-0.355310	-1.061652	-0.575112
Zn3	Zn	-0.242163	-0.948589	-0.559631
Zn4	Zn	-0.359974	-0.943826	-0.767973
O5	O	-0.298711	-1.005139	-0.667699
O6	O	-0.249091	-1.164500	-0.749003
O7	O	-0.340344	-1.046624	-0.405109
O8	O	-0.142879	-0.968247	-0.580848
O9	O	-0.335722	-1.160946	-0.607232
O10	O	-0.139377	-1.054868	-0.733993
O11	O	-0.257216	-0.963557	-0.393736
O12	O	-0.261738	-0.849305	-0.580746
O13	O	-0.343671	-0.960128	-0.935936
O14	O	-0.348293	-0.845805	-0.733814
O15	O	-0.253613	-1.050249	-0.936013
O16	O	-0.454580	-1.042004	-0.607130
O17	O	-0.458007	-0.955438	-0.748825
C18	C	-0.306039	-0.821976	-0.655589
C19	C	-0.309191	-0.743617	-0.650439
C20	C	-0.265639	-0.708652	-0.721954
C21	C	-0.268597	-0.635026	-0.717103
C22	C	-0.315111	-0.596366	-0.640744
C23	C	-0.358665	-0.631336	-0.569221
C24	C	-0.355702	-0.704961	-0.574065
C25	C	-0.328796	-0.375972	-0.618320
C26	C	-0.331756	-0.302342	-0.613483
C27	C	-0.241688	-0.306037	-0.761365
C28	C	-0.238733	-0.379663	-0.766208
C29	C	-0.282283	-0.414627	-0.694680
N30	N	-0.318138	-0.521108	-0.635787
N31	N	-0.279253	-0.489884	-0.699632
C32	C	-0.481872	-0.997698	-0.679673
C33	C	-0.560227	-0.994580	-0.684840
C34	C	-0.595229	-1.038220	-0.613561
C35	C	-0.668851	-1.035291	-0.618428
C36	C	-0.707470	-0.988717	-0.694569
C37	C	-0.672462	-0.945075	-0.765857
C38	C	-0.598841	-0.948008	-0.760995
C39	C	-0.927848	-0.975111	-0.717019
C40	C	-1.001474	-0.972180	-0.721873
C41	C	-0.997858	-1.062397	-0.574446
C42	C	-0.924235	-1.065323	-0.569586
C43	C	-0.889234	-1.021683	-0.640877
N44	N	-0.782724	-0.985720	-0.699543
N45	N	-0.813981	-1.024684	-0.635909
C46	C	-0.114834	-1.012628	-0.655705
C47	C	-0.036476	-1.015820	-0.650594
C48	C	-0.298630	-1.005197	-0.980740
C49	C	-0.298596	-1.005221	-1.114139
C50	C	-0.291351	-0.189018	-0.679846
C51	C	-0.288205	-0.267377	-0.684998
C52	C	-0.298739	-1.005125	-0.355875
C53	C	-0.298569	-1.005245	-0.222472
H54	H	-0.206230	-0.277561	-0.819596
H55	H	-0.892793	-1.103247	-0.507585
C56	C	-0.220689	-0.596568	-0.795780
N57	N	-0.184602	-0.567601	-0.855043
C58	C	-1.036365	-1.110399	-0.496034
N59	N	-1.065369	-1.146558	-0.436974
H60	H	-0.369637	-0.270866	-0.551301
H61	H	-0.570343	-0.912472	-0.819039
C62	C	-0.707351	-1.083294	-0.540007
N63	N	-0.736348	-1.119452	-0.480934
H64	H	-1.032915	-0.934262	-0.783898
C65	C	-0.187557	-0.422184	-0.850198
N66	N	-0.149011	-0.454211	-0.913460
H67	H	-0.899356	-0.939577	-0.775066
H68	H	-0.563790	-1.076142	-0.551553
C69	C	-0.403614	-0.743422	-0.495396
N70	N	-0.439702	-0.772390	-0.436137
H71	H	-0.396534	-0.599853	-0.507041
C72	C	-0.376707	-0.414422	-0.539642
N73	N	-0.412796	-0.443386	-0.480379
C74	C	-0.714946	-0.893841	-0.849609
N75	N	-0.746944	-0.855247	-0.912687
H76	H	-0.227764	-0.740124	-0.784137
