data_functionalizedCrystal
_audit_creation_method	'MofGen! by Chris Wilmer'
_symmetry_space_group_name_H-M	'P1'
_symmetry_Int_Tables_number	1
_symmetry_cell_setting	triclinic
loop_
_symmetry_equiv_pos_as_xyz
  x,y,z
_cell_length_a	12.759401
_cell_length_b	21.295417
_cell_length_c	12.759393
_cell_angle_alpha	90.038123
_cell_angle_beta	90.018567
_cell_angle_gamma	90.028746
loop_
_atom_site_label
_atom_site_type_symbol
_atom_site_fract_x
_atom_site_fract_y
_atom_site_fract_z
Zn1	Zn	1.606146	-0.250588	0.593935
Zn2	Zn	1.605994	-0.355872	0.418235
Zn3	Zn	1.430448	-0.250619	0.418275
Zn4	Zn	1.430390	-0.355822	0.593877
O5	O	1.518245	-0.303225	0.506081
O6	O	1.753147	-0.264563	0.570637
O7	O	1.582668	-0.341944	0.271219
O8	O	1.453842	-0.162526	0.441617
O9	O	1.753035	-0.341914	0.441551
O10	O	1.582927	-0.162503	0.570675
O11	O	1.453695	-0.264615	0.271248
O12	O	1.283419	-0.264566	0.441560
O13	O	1.453744	-0.341828	0.740906
O14	O	1.283377	-0.341858	0.570574
O15	O	1.582871	-0.264514	0.740949
O16	O	1.582612	-0.443955	0.441494
O17	O	1.453597	-0.443918	0.570536
C18	C	1.245277	-0.303210	0.506066
C19	C	1.128501	-0.303219	0.506085
C20	C	1.518111	-0.466777	0.506027
C21	C	1.518150	-0.536745	0.506040
C22	C	1.073690	-0.263018	0.573404
C23	C	0.963966	-0.263030	0.573410
C24	C	0.963873	-0.343450	0.438776
C25	C	1.073595	-0.343434	0.438765
C26	C	1.073742	-0.216591	0.651137
C27	C	0.964018	-0.216603	0.651144
C28	C	1.585325	-0.569543	0.573288
C29	C	1.585362	-0.635285	0.573314
C30	C	1.518235	-0.668227	0.506073
C31	C	1.451046	-0.635422	0.438820
C32	C	1.451003	-0.569681	0.438803
N33	N	1.510296	-0.771497	0.414126
N34	N	1.510342	-0.833948	0.414145
C35	C	1.518357	-0.866302	0.506120
N36	N	1.526345	-0.833846	0.598078
N37	N	1.526303	-0.771388	0.598058
C38	C	1.518273	-0.739513	0.506084
C39	C	1.585577	-0.970385	0.573402
C40	C	1.585607	-1.036129	0.573430
C41	C	1.451296	-1.036265	0.438927
C42	C	1.451260	-0.970522	0.438908
C43	C	1.518407	-0.937586	0.506145
C44	C	1.792278	-0.303241	0.506096
C45	C	1.909054	-0.303247	0.506102
C46	C	1.518318	-0.303162	0.780114
C47	C	1.518350	-0.303135	0.896891
C48	C	1.518408	-0.139035	0.506157
C49	C	1.518477	-0.069067	0.506189
C50	C	1.518232	-0.303243	0.233113
C51	C	1.518404	-0.303093	0.116337
C52	C	1.585595	-0.262873	0.951777
C53	C	1.585620	-0.262850	1.061501
C54	C	1.451151	-0.343356	1.061443
C55	C	1.451122	-0.343375	0.951721
C56	C	1.663233	-0.216396	0.951811
C57	C	1.663258	-0.216373	1.061535
H58	H	1.118218	-0.376164	0.383937
N59	N	1.765319	-0.232771	1.098893
N60	N	1.777207	-0.280253	1.155188
H61	H	1.849284	-0.291835	1.181570
N62	N	0.907770	-0.384519	0.370015
N63	N	0.809805	-0.384525	0.370027
H64	H	0.770182	-0.413531	0.321463
N65	N	1.626763	-0.158262	1.104253
N66	N	1.599415	-0.114763	1.044489
H67	H	1.573637	-0.073723	1.074659
H68	H	1.396388	-0.662248	0.384074
H69	H	1.641486	-0.167645	0.922065
N70	N	1.382405	-0.384488	0.895660
N71	N	1.285470	-0.380292	0.907919
H72	H	1.236932	-0.409328	0.868327
H73	H	1.103530	-0.167817	0.629493
N74	N	1.653954	-0.535908	0.641932
N75	N	1.720908	-0.499226	0.604975
H76	H	1.769395	-0.475475	0.653445
N77	N	0.926684	-0.233078	0.753161
N78	N	0.870341	-0.280585	0.764934
H79	H	0.843973	-0.292222	0.836980
N80	N	1.653990	-0.668787	0.642017
N81	N	1.713932	-0.639372	0.702043
H82	H	1.762403	-0.663031	0.750564
H83	H	1.640309	-1.062832	0.628196
H84	H	1.396299	-0.542976	0.384041
N85	N	1.116471	-0.238573	0.748019
N86	N	1.095892	-0.292783	0.779408
H87	H	1.126067	-0.308312	0.847830
H88	H	1.640249	-0.943568	0.628154
H89	H	0.929997	-0.170271	0.622153
H90	H	1.396414	-0.376117	1.106099
H91	H	1.396564	-0.943816	0.384144
H92	H	1.740497	-0.233873	0.917772
H93	H	1.396632	-1.063086	0.384184
