data_functionalizedCrystal
_audit_creation_method	'MofGen! by Chris Wilmer'
_symmetry_space_group_name_H-M	'P1'
_symmetry_Int_Tables_number	1
_symmetry_cell_setting	triclinic
loop_
_symmetry_equiv_pos_as_xyz
  x,y,z
_cell_length_a	17.640112
_cell_length_b	12.645330
_cell_length_c	17.640968
_cell_angle_alpha	78.771593
_cell_angle_beta	92.139080
_cell_angle_gamma	101.241872
loop_
_atom_site_label
_atom_site_type_symbol
_atom_site_fract_x
_atom_site_fract_y
_atom_site_fract_z
Zn1	Zn	1.247780	-0.030458	-0.195081
Zn2	Zn	1.222027	-0.249165	-0.068107
Zn3	Zn	1.095118	-0.099415	-0.093730
Zn4	Zn	1.120767	-0.235211	-0.220689
O5	O	1.171423	-0.153562	-0.144402
O6	O	1.350632	-0.036452	-0.156798
O7	O	1.183680	-0.263999	0.034766
O8	O	1.115413	0.058093	-0.107181
O9	O	1.331711	-0.197135	-0.063511
O10	O	1.227573	0.108755	-0.181643
O11	O	1.090440	-0.153978	0.015941
O12	O	0.992252	-0.140447	-0.132011
O13	O	1.159127	-0.173352	-0.323563
O14	O	1.011096	-0.240216	-0.225287
O15	O	1.252444	-0.022921	-0.304750
O16	O	1.208550	-0.395675	-0.088341
O17	O	1.134155	-0.385423	-0.200442
C18	C	0.974120	-0.196301	-0.184209
C19	C	0.889717	-0.214604	-0.201257
C20	C	1.171365	-0.429008	-0.144402
C21	C	1.171415	-0.546821	-0.144414
C22	C	0.563040	-0.014493	-0.014899
C23	C	0.483733	-0.031710	-0.030928
C24	C	0.503375	-0.135841	-0.127889
C25	C	0.582687	-0.118628	-0.111870
C26	C	0.612512	-0.057954	-0.055374
C27	C	0.632159	-0.162089	-0.152345
C28	C	0.711463	-0.144883	-0.136325
C29	C	0.741294	-0.084215	-0.079830
C30	C	0.691816	-0.040748	-0.039354
C31	C	0.602331	-0.222769	-0.208838
C32	C	0.651804	-0.266231	-0.249313
C33	C	0.731110	-0.249018	-0.233297
C34	C	0.760941	-0.188350	-0.176801
C35	C	0.780588	-0.292485	-0.273773
C36	C	0.859892	-0.275278	-0.257753
C37	C	0.840245	-0.171143	-0.160781
C38	C	1.124892	-0.707868	-0.215069
C39	C	1.124554	-0.585435	-0.214940
C40	C	1.133571	-0.622203	-0.068749
C41	C	1.133287	-0.744763	-0.069178
C42	C	1.256009	-0.689787	-0.148703
C43	C	1.255870	-0.566716	-0.150553
C44	C	1.369496	-0.110658	-0.104440
C45	C	1.453902	-0.092374	-0.087410
C46	C	1.211520	-0.088888	-0.342482
C47	C	1.228606	-0.061328	-0.426892
C48	C	1.171505	0.122968	-0.144414
C49	C	1.171539	0.240809	-0.144419
C50	C	1.041907	-0.362295	-0.753477
C51	C	1.057979	-0.336381	-0.832790
C52	C	1.155141	-0.179751	-0.813190
C53	C	1.139075	-0.205649	-0.733875
C54	C	1.082458	-0.296923	-0.704024
C55	C	1.179626	-0.140276	-0.684422
C56	C	1.163563	-0.166176	-0.605113
C57	C	1.106950	-0.257448	-0.575256
C58	C	1.066395	-0.322822	-0.624715
C59	C	1.236246	-0.049007	-0.714273
C60	C	1.276797	0.016366	-0.664821
C61	C	1.260731	-0.009529	-0.585511
C62	C	1.204118	-0.100801	-0.555654
C63	C	1.301286	0.055846	-0.536052
C64	C	1.285224	0.029947	-0.456742
C65	C	1.188056	-0.126700	-0.476345
C66	C	1.131526	-0.217899	0.052917
C67	C	1.114586	-0.245129	0.137356
H68	H	0.864533	-0.121717	-0.114788
F69	F	1.014813	-0.405965	-0.885420
H70	H	1.093876	-0.278537	-0.510676
F71	F	1.006131	-0.419960	-0.592944
H72	H	1.150358	-0.714958	-0.271900
F73	F	0.981642	-0.459433	-0.721705
F74	F	1.215398	-0.082616	-0.844967
F75	F	0.748832	-0.357076	-0.333886
F76	F	0.620051	-0.330815	-0.309431
H77	H	1.318243	0.083181	-0.416477
F78	F	1.044004	-0.770745	-0.213171
H79	H	1.249324	-0.027925	-0.778852
F80	F	1.337053	0.113501	-0.696598
F81	F	1.361547	0.152975	-0.567830
H82	H	1.164912	-0.780360	-0.015614
F83	F	1.052949	-0.606190	-0.060971
H84	H	0.443454	0.003695	0.002031
F85	F	0.825697	-0.065908	-0.062776
H86	H	0.716104	0.008678	0.006640
F87	F	1.175635	-0.591591	0.001008
F88	F	1.305388	-0.530571	-0.086512
F89	F	1.043130	-0.569871	-0.212904
H90	H	0.587328	0.034933	0.031095
H91	H	1.150106	-0.532996	-0.271552
F92	F	1.301699	-0.733595	-0.081196
H93	H	1.287369	-0.697644	-0.202086
H94	H	0.479080	-0.185245	-0.173886
H95	H	0.537756	-0.236777	-0.221879
H96	H	0.900174	-0.310667	-0.290713
H97	H	1.071058	-0.791839	-0.063665
F98	F	1.292791	-0.498887	-0.223234
H99	H	1.141934	-0.201003	-0.452043
