data_functionalizedCrystal
_audit_creation_method	'MofGen! by Chris Wilmer'
_symmetry_space_group_name_H-M	'P1'
_symmetry_Int_Tables_number	1
_symmetry_cell_setting	triclinic
loop_
_symmetry_equiv_pos_as_xyz
  x,y,z
_cell_length_a	14.908520
_cell_length_b	14.908941
_cell_length_c	14.908308
_cell_angle_alpha	83.630660
_cell_angle_beta	96.360765
_cell_angle_gamma	83.580981
loop_
_atom_site_label
_atom_site_type_symbol
_atom_site_fract_x
_atom_site_fract_y
_atom_site_fract_z
Zn1	Zn	-0.308088	-1.335359	-0.450935
Zn2	Zn	-0.450739	-1.335256	-0.308311
Zn3	Zn	-0.308126	-1.192730	-0.308312
Zn4	Zn	-0.469283	-1.174091	-0.469473
O5	O	-0.384059	-1.259359	-0.384258
O6	O	-0.319234	-1.462484	-0.424257
O7	O	-0.424077	-1.324107	-0.181177
O8	O	-0.180976	-1.219494	-0.319473
O9	O	-0.424040	-1.462408	-0.319472
O10	O	-0.180948	-1.324283	-0.424258
O11	O	-0.319299	-1.219394	-0.181177
O12	O	-0.337280	-1.063119	-0.337448
O13	O	-0.455645	-1.187726	-0.594148
O14	O	-0.455682	-1.049425	-0.455853
O15	O	-0.337216	-1.306209	-0.580529
O16	O	-0.580344	-1.306033	-0.337448
O17	O	-0.593968	-1.187626	-0.455852
C18	C	-0.398498	-1.023306	-0.398663
C19	C	-0.404698	-0.922319	-0.404848
C20	C	-0.292893	-0.746763	-0.293328
C21	C	-0.298715	-0.651877	-0.299137
C22	C	-0.422170	-0.637659	-0.422269
C23	C	-0.416347	-0.732545	-0.416460
C24	C	-0.351706	-0.787094	-0.351989
C25	C	-0.345879	-0.881982	-0.346185
C26	C	-0.469337	-0.867763	-0.469312
C27	C	-0.475160	-0.772877	-0.475121
C28	C	-0.620123	-1.244819	-0.398680
C29	C	-0.721110	-1.238680	-0.404875
C30	C	-0.896624	-1.350556	-0.293309
C31	C	-0.991509	-1.344791	-0.299126
C32	C	-1.005766	-1.221391	-0.422332
C33	C	-0.910881	-1.227156	-0.416515
C34	C	-0.856313	-1.291739	-0.352000
C35	C	-0.761426	-1.297499	-0.346178
C36	C	-0.775686	-1.174104	-0.469388
C37	C	-0.870571	-1.168339	-0.475206
C38	C	-0.147073	-1.273979	-0.369797
C39	C	-0.046083	-1.280210	-0.363635
C40	C	-0.398495	-1.244900	-0.621225
C41	C	-0.404646	-1.238738	-0.722206
C42	C	-0.369555	-0.496335	-0.369790
C43	C	-0.363351	-0.597322	-0.363606
C44	C	-0.292864	-1.350535	-0.897779
C45	C	-0.298640	-1.344748	-0.992660
C46	C	-0.421971	-1.221375	-1.006850
C47	C	-0.416194	-1.227162	-0.911969
C48	C	-0.351640	-1.291745	-0.857437
C49	C	-0.345868	-1.297535	-0.762555
C50	C	-0.469194	-1.174158	-0.776746
C51	C	-0.474970	-1.168372	-0.871627
C52	C	-0.369611	-1.273818	-0.148205
C53	C	-0.363193	-1.280172	-0.047198
H54	H	-0.517223	-0.900610	-0.517083
H55	H	-0.716997	-1.350084	-0.293645
H56	H	-0.250823	-0.619043	-0.251370
H57	H	-0.250777	-1.392619	-1.025502
H58	H	-1.024326	-1.392687	-0.251336
H59	H	-0.527791	-0.728451	-0.527609
C60	C	-0.221858	-1.421579	-0.837792
N61	N	-0.168374	-1.475091	-0.792611
H62	H	-0.474528	-1.168795	-1.051266
H63	H	-0.915013	-1.115759	-0.527734
C64	C	-0.836597	-1.421595	-0.222341
N65	N	-0.791385	-1.475105	-0.168887
C66	C	-0.533852	-1.109485	-0.732362
N67	N	-0.582552	-1.060776	-0.698932
C68	C	-0.731337	-1.109401	-0.533952
N69	N	-0.697932	-1.060668	-0.582579
H70	H	-0.474805	-0.593230	-0.474750
C71	C	-0.274854	-1.368574	-0.702571
N72	N	-0.221361	-1.422079	-0.657393
C73	C	-1.065807	-1.150353	-0.493292
N74	N	-1.111031	-1.096844	-0.546737
C75	C	-0.274775	-0.941984	-0.275264
N76	N	-0.221220	-0.987175	-0.221841
C77	C	-0.221784	-0.806768	-0.222414
N78	N	-0.168224	-0.851963	-0.168999
H79	H	-0.527527	-1.115789	-0.916039
