data_functionalizedCrystal
_audit_creation_method	'MofGen! by Chris Wilmer'
_symmetry_space_group_name_H-M	'P1'
_symmetry_Int_Tables_number	1
_symmetry_cell_setting	triclinic
loop_
_symmetry_equiv_pos_as_xyz
  x,y,z
_cell_length_a	19.077105
_cell_length_b	19.120786
_cell_length_c	19.076919
_cell_angle_alpha	90.269320
_cell_angle_beta	89.923776
_cell_angle_gamma	90.063747
loop_
_atom_site_label
_atom_site_type_symbol
_atom_site_fract_x
_atom_site_fract_y
_atom_site_fract_z
Zn1	Zn	1.044393	-0.338642	0.425365
Zn2	Zn	1.044421	-0.451190	0.302856
Zn3	Zn	0.931995	-0.329265	0.303575
Zn4	Zn	0.922260	-0.450768	0.415627
O5	O	0.985768	-0.392466	0.361856
O6	O	1.142561	-0.357673	0.412888
O7	O	1.033594	-0.431269	0.204786
O8	O	0.950968	-0.232557	0.324108
O9	O	1.142581	-0.440361	0.322881
O10	O	1.033546	-0.239446	0.413586
O11	O	0.950995	-0.341691	0.205315
O12	O	0.832540	-0.341281	0.314665
O13	O	0.934376	-0.439642	0.515084
O14	O	0.825388	-0.430549	0.396989
O15	O	1.024106	-0.357263	0.522238
O16	O	1.024154	-0.549086	0.313438
O17	O	0.934403	-0.548776	0.396291
C18	C	0.803511	-0.384853	0.354849
C19	C	0.725540	-0.381613	0.351867
C20	C	0.685204	-0.426633	0.393254
C21	C	0.611941	-0.423580	0.390456
C22	C	0.579017	-0.375510	0.346267
C23	C	0.619359	-0.330485	0.304878
C24	C	0.692620	-0.333535	0.307680
C25	C	0.360308	-0.361393	0.333302
C26	C	0.287042	-0.358348	0.330501
C27	C	0.279630	-0.451442	0.416081
C28	C	0.352892	-0.454491	0.418876
C29	C	0.393228	-0.409464	0.377490
N30	N	0.504131	-0.372389	0.343404
N31	N	0.468112	-0.412581	0.380357
C32	C	0.978243	-0.574330	0.353746
C33	C	0.975088	-0.652136	0.350302
C34	C	1.016564	-0.692215	0.395306
C35	C	1.013596	-0.765322	0.392072
C36	C	0.969155	-0.798347	0.343829
C37	C	0.927673	-0.758262	0.298823
C38	C	0.930638	-0.685157	0.302062
C39	C	0.958050	-1.018902	0.331722
C40	C	0.955090	-1.092012	0.328486
C41	C	1.041012	-1.099067	0.421736
C42	C	1.043976	-1.025960	0.424967
C43	C	1.002492	-0.985881	0.379963
C44	C	0.966121	-0.873074	0.340521
C45	C	1.005522	-0.911156	0.383276
C46	C	1.168736	-0.400110	0.368891
C47	C	1.246706	-0.403367	0.371889
C48	C	0.978152	-0.399452	0.544826
C49	C	0.974907	-0.402428	0.622796
C50	C	0.993340	-0.209894	0.370014
C51	C	0.996567	-0.132092	0.373490
C52	C	0.993396	-0.385459	0.179602
C53	C	0.996785	-0.382291	0.101645
C54	C	1.020097	-0.360938	0.663153
C55	C	1.017040	-0.363732	0.736415
C56	C	0.968794	-0.408020	0.769318
C57	C	0.923598	-0.449512	0.728956
C58	C	0.926653	-0.446714	0.655696
C59	C	0.954645	-0.420984	0.988023
C60	C	0.951595	-0.423781	1.061289
C61	C	1.045036	-0.338000	1.068742
C62	C	1.048089	-0.335209	0.995480
C63	C	1.002891	-0.376698	0.955125
N64	N	0.965669	-0.410879	0.844203
N65	N	1.006013	-0.373835	0.880241
H66	H	0.246781	-0.488100	0.449776
C67	C	0.583147	-0.277606	0.256271
H68	H	0.617665	-0.251226	0.232029
H69	H	0.554731	-0.301974	0.223377
H70	H	0.554715	-0.246984	0.283426
H71	H	0.889847	-0.480492	0.622838
C72	C	0.878791	-0.794588	0.245756
H73	H	0.882970	-0.843868	0.250267
H74	H	0.831708	-0.781071	0.254698
H75	H	0.891549	-0.781243	0.199557
C76	C	0.736990	-0.284012	0.262156
H77	H	0.706890	-0.254950	0.235433
H78	H	0.765713	-0.255773	0.291494
H79	H	0.765733	-0.310763	0.231444
C80	C	0.250823	-0.305475	0.281886
H81	H	0.201415	-0.310117	0.286138
H82	H	0.264336	-0.259351	0.294779
H83	H	0.264366	-0.314354	0.234741
H84	H	1.052756	-0.665331	0.434587
H85	H	1.047376	-0.797952	0.428714
C86	C	0.870530	-0.498228	0.765148
H87	H	0.875187	-0.493959	0.814559
H88	H	0.824322	-0.485558	0.751785
H89	H	0.879351	-0.545231	0.751433
C90	C	0.404668	-0.311877	0.287766
H91	H	0.374565	-0.282820	0.261041
H92	H	0.433397	-0.283631	0.317093
H93	H	0.433405	-0.338636	0.257057
H94	H	1.059387	-0.324877	0.636369
C95	C	1.092873	-0.989637	0.478023
H96	H	1.117151	-1.023978	0.504363
H97	H	1.125727	-0.961360	0.453640
H98	H	1.065907	-0.961171	0.508803
C99	C	1.086633	-1.143154	0.471241
H100	H	1.078500	-1.191423	0.462409
H101	H	1.134688	-1.132712	0.463361
H102	H	1.074846	-1.132533	0.518501
C103	C	0.906197	-1.128339	0.275422
H104	H	0.881909	-1.094000	0.249088
H105	H	0.933168	-1.156799	0.244647
H106	H	0.873340	-1.156622	0.299802
C107	C	0.912430	-0.974824	0.282212
H108	H	0.885546	-1.004966	0.253011
H109	H	0.881880	-0.946069	0.309100
H110	H	0.941724	-0.946251	0.253963
H111	H	1.081832	-0.304222	1.101608
C112	C	0.885015	-0.641069	0.252557
H113	H	0.858127	-0.671207	0.223357
H114	H	0.854470	-0.612316	0.279454
H115	H	0.914305	-0.612493	0.224307
C116	C	0.389104	-0.507364	0.467489
H117	H	0.354588	-0.533735	0.491742
H118	H	0.417539	-0.537984	0.440341
H119	H	0.417518	-0.482987	0.500385
H120	H	1.041704	-0.884265	0.422558
C121	C	0.904915	-0.466605	0.943641
H122	H	0.875745	-0.493380	0.973732
H123	H	0.876657	-0.437445	0.915093
H124	H	0.931660	-0.497142	0.914722
C125	C	1.066753	-0.318097	0.780804
H126	H	1.095930	-0.291327	0.750716
H127	H	1.039997	-0.287566	0.809713
H128	H	1.095015	-0.347248	0.809363
H129	H	0.929939	-0.899972	0.301240
H130	H	0.912305	-0.459847	1.088076
C131	C	0.721414	-0.479509	0.441864
H132	H	0.686896	-0.505879	0.466117
H133	H	0.749848	-0.510131	0.414718
H134	H	0.749829	-0.455134	0.474761
C135	C	0.567574	-0.473143	0.435937
H136	H	0.597675	-0.502226	0.462636
H137	H	0.538810	-0.446434	0.466659
H138	H	0.538873	-0.501369	0.406559
C139	C	1.101160	-0.286493	0.959292
H140	H	1.127634	-0.262179	0.993820
H141	H	1.131803	-0.313457	0.930694
H142	H	1.076781	-0.253778	0.931042
