data_functionalizedCrystal
_audit_creation_method	'MofGen! by Chris Wilmer'
_symmetry_space_group_name_H-M	'P1'
_symmetry_Int_Tables_number	1
_symmetry_cell_setting	triclinic
loop_
_symmetry_equiv_pos_as_xyz
  x,y,z
_cell_length_a	19.121102
_cell_length_b	19.121063
_cell_length_c	19.120904
_cell_angle_alpha	94.741613
_cell_angle_beta	89.911827
_cell_angle_gamma	89.873098
loop_
_atom_site_label
_atom_site_type_symbol
_atom_site_fract_x
_atom_site_fract_y
_atom_site_fract_z
Zn1	Zn	1.039579	0.343506	0.456040
Zn2	Zn	1.539579	0.843506	0.956040
Zn3	Zn	1.039493	0.456149	0.343386
Zn4	Zn	1.539493	0.956149	0.843386
Zn5	Zn	0.927792	0.333518	0.333417
Zn6	Zn	1.427792	0.833518	0.833417
Zn7	Zn	0.917325	0.455677	0.455570
Zn8	Zn	1.417325	0.955677	0.955570
O9	O	0.981047	0.397212	0.397103
O10	O	1.481047	0.897212	0.897103
O11	O	1.137479	0.362826	0.445465
O12	O	1.637479	0.862826	0.945465
O13	O	1.029020	0.435899	0.243797
O14	O	1.529020	0.935899	0.743797
O15	O	0.947038	0.236577	0.345708
O16	O	1.447038	0.736577	0.845708
O17	O	1.137415	0.445584	0.362699
O18	O	1.637415	0.945584	0.862699
O19	O	1.029167	0.243915	0.435798
O20	O	1.529167	0.743915	0.935798
O21	O	0.946954	0.345802	0.236473
O22	O	1.446954	0.845802	0.736473
O23	O	0.828493	0.345345	0.345252
O24	O	1.328493	0.845345	0.845252
O25	O	0.929198	0.444780	0.553899
O26	O	1.429198	0.944780	1.053899
O27	O	0.820803	0.435094	0.434997
O28	O	1.320803	0.935094	0.934997
O29	O	1.019018	0.362368	0.554244
O30	O	1.519018	0.862368	1.054244
O31	O	1.018870	0.554352	0.362243
O32	O	1.518870	1.054352	0.862243
O33	O	0.929114	0.554005	0.444664
O34	O	1.429114	1.054005	0.944664
C35	C	0.799261	0.389085	0.388992
C36	C	1.299261	0.889085	0.888992
C37	C	0.721490	0.385626	0.385539
C38	C	1.221490	0.885626	0.885539
C39	C	0.972865	0.579659	0.404501
C40	C	1.472865	1.079659	0.904501
C41	C	0.969428	0.657714	0.407691
C42	C	1.469428	1.157714	0.907691
C43	C	0.680968	0.430793	0.430575
C44	C	1.180968	0.930793	0.930575
C45	C	0.607894	0.427534	0.427334
C46	C	1.107894	0.927534	0.927334
C47	C	0.575344	0.379110	0.379053
C48	C	1.075344	0.879110	0.879053
C49	C	0.615872	0.333937	0.334016
C50	C	1.115872	0.833937	0.834016
C51	C	0.688944	0.337194	0.337261
C52	C	1.188944	0.837194	0.837261
C53	C	0.354913	0.366933	0.366924
C54	C	0.854913	0.866933	0.866924
C55	C	0.281835	0.363681	0.363681
C56	C	0.781835	0.863681	0.863681
C57	C	0.273863	0.457277	0.457000
C58	C	0.773863	0.957277	0.957000
C59	C	0.346937	0.460532	0.460238
C60	C	0.846937	0.960532	0.960238
C61	C	0.387458	0.415357	0.415203
C62	C	0.887458	0.915357	0.915203
C63	C	0.500651	0.375778	0.375738
C64	C	1.000651	0.875778	0.875738
C65	C	0.462149	0.418686	0.418523
C66	C	0.962149	0.918686	0.918523
C67	C	0.972950	0.404635	0.580263
C68	C	1.472950	0.904635	1.080263
C69	C	0.969500	0.407799	0.658315
C70	C	1.469500	0.907799	1.158315
C71	C	1.163544	0.405372	0.405246
C72	C	1.663544	0.905372	0.905246
C73	C	1.241313	0.408849	0.408717
C74	C	1.741313	0.908849	0.908717
C75	C	0.989280	0.214054	0.389693
C76	C	1.489280	0.714054	0.889693
C77	C	0.992788	0.136003	0.386535
C78	C	1.492788	0.636003	0.886535
C79	C	1.014577	0.694545	0.366317
C80	C	1.514577	1.194545	0.866317
C81	C	1.011348	0.767887	0.369323
C82	C	1.511348	1.267887	0.869323
C83	C	0.962966	0.804396	0.413699
C84	C	1.462966	1.304396	0.913699
C85	C	0.917815	0.767560	0.455078
C86	C	1.417815	1.267560	0.955078
C87	C	0.921048	0.694220	0.452076
C88	C	1.421048	1.194220	0.952076
C89	C	0.950869	1.025828	0.424912
C90	C	1.450869	1.525828	0.924912
C91	C	0.947638	1.099173	0.427909
C92	C	1.447638	1.599173	0.927909
C93	C	1.041173	1.099494	0.342155
C94	C	1.541173	1.599494	0.842155
C95	C	1.044399	1.026153	0.339154
C96	C	1.544399	1.526153	0.839154
C97	C	0.999250	0.989323	0.380535
C98	C	1.499250	1.489323	0.880535
C99	C	0.959663	0.879363	0.416770
C100	C	1.459663	1.379363	0.916770
C101	C	1.002557	0.914358	0.377467
C102	C	1.502557	1.414358	0.877467
C103	C	0.989156	0.389769	0.214655
C104	C	1.489156	0.889769	0.714655
C105	C	0.992751	0.386414	0.136602
C106	C	1.492751	0.886414	0.636602
C107	C	1.014640	0.366379	0.695165
C108	C	1.514640	0.866379	1.195165
C109	C	1.011390	0.369348	0.768503
C110	C	1.511390	0.869348	1.268503
C111	C	0.963001	0.413741	0.804990
C112	C	1.463001	0.913741	1.304990
C113	C	0.917856	0.455162	0.768135
C114	C	1.417856	0.955162	1.268135
C115	C	0.921103	0.452188	0.694798
C116	C	1.421103	0.952188	1.194798
C117	C	0.950853	0.424862	1.026410
C118	C	1.450853	0.924862	1.526410
C119	C	0.947610	0.427833	1.099752
C120	C	1.447610	0.927833	1.599752
C121	C	1.041143	0.342019	1.100115
C122	C	1.541143	0.842019	1.600115
C123	C	1.044390	0.339052	1.026777
C124	C	1.544390	0.839052	1.526777
C125	C	0.999242	0.380470	0.989928
C126	C	1.499242	0.880470	1.489928
C127	C	0.959679	0.416779	0.879953
C128	C	1.459679	0.916779	1.379953
C129	C	1.002561	0.377429	0.914966
C130	C	1.502561	0.877429	1.414966
H131	H	0.707464	0.470228	0.469888
H132	H	1.207464	0.970228	0.969888
H133	H	0.488655	0.458110	0.457836
H134	H	0.988655	0.958110	0.957836
H135	H	1.077932	1.129489	0.308466
H136	H	1.577932	1.629489	0.808466
H137	H	0.474141	0.336353	0.336426
H138	H	0.974141	0.836353	0.836426
H139	H	0.884338	0.485909	0.664795
H140	H	1.384338	0.985909	1.164795
H141	H	0.920284	0.452927	0.909669
H142	H	1.420284	0.952927	1.409669
N143	N	0.904728	0.467162	0.988780
N144	N	1.404728	0.967162	1.488780
N145	N	0.840014	0.459946	0.993907
N146	N	1.340014	0.959946	1.493907
H147	H	0.807434	0.489823	0.967329
H148	H	1.307434	0.989823	1.467329
H149	H	1.048150	0.335622	0.798503
H150	H	1.548150	0.835622	1.298503
N151	N	0.910228	0.916646	0.462090
N152	N	1.410228	1.416646	0.962090
N153	N	0.869909	0.883756	0.499023
N154	N	1.369909	1.383756	0.999023
H155	H	0.834994	0.910088	0.531030
H156	H	1.334994	1.410088	1.031030
H157	H	0.373433	0.499966	0.499552
H158	H	0.873433	0.999966	0.999552
H159	H	1.077899	0.308298	1.130125
H160	H	1.577899	0.808298	1.630125
N161	N	0.904757	0.988220	0.467191
N162	N	1.404757	1.488220	0.967191
N163	N	0.906126	0.999222	0.532529
N164	N	1.406126	1.499222	1.032529
H165	H	0.873557	0.972661	0.562393
H166	H	1.373557	1.472661	1.062393
H167	H	0.878454	0.491305	0.797848
H168	H	1.378454	0.991305	1.297848
H169	H	1.083795	0.996429	0.303019
H170	H	1.583795	1.496429	0.803019
H171	H	0.908204	0.463985	1.129457
H172	H	1.408204	0.963985	1.629457
N173	N	1.057463	0.805524	0.327070
N174	N	1.557463	1.305524	0.827070
N175	N	1.099132	0.849393	0.355478
N176	N	1.599132	1.349393	0.855478
H177	H	1.131703	0.875978	0.325638
H178	H	1.631703	1.375978	0.825638
N179	N	1.064007	0.657256	0.320997
N180	N	1.564007	1.157256	0.820997
N181	N	1.109286	0.619277	0.346051
N182	N	1.609286	1.119277	0.846051
H183	H	1.144199	0.592942	0.314044
H184	H	1.644199	1.092942	0.814044
N185	N	0.898205	1.136456	0.473239
N186	N	1.398205	1.636456	0.973239
N187	N	0.857895	1.103565	0.510180
N188	N	1.357895	1.603565	1.010180
H189	H	0.822982	1.129896	0.542190
H190	H	1.322982	1.629896	1.042190
N191	N	1.051966	0.877058	0.332135
N192	N	1.551966	1.377058	0.832135
N193	N	1.031155	0.833260	0.284604
N194	N	1.531155	1.333260	0.784604
H195	H	1.066047	0.806910	0.252585
H196	H	1.566047	1.306910	0.752585
N197	N	1.064059	0.321030	0.657887
N198	N	1.564059	0.821030	1.157887
N199	N	1.066953	0.318378	0.592409
N200	N	1.566953	0.818378	1.092409
H201	H	1.101854	0.286347	0.566081
H202	H	1.601854	0.786347	1.066081
H203	H	1.083794	0.302905	0.997075
H204	H	1.583794	0.802905	1.497075
H205	H	1.041956	0.341281	0.885255
H206	H	1.541956	0.841281	1.385255
H207	H	0.878424	0.797292	0.491213
H208	H	1.378424	1.297292	0.991213
N209	N	0.730337	0.291066	0.291246
N210	N	1.230337	0.791066	0.791246
N211	N	0.771978	0.315703	0.249265
N212	N	1.271978	0.815703	0.749265
H213	H	0.801211	0.283122	0.216767
H214	H	1.301211	0.783122	0.716767
N215	N	0.566513	0.473673	0.473346
N216	N	1.066513	0.973673	0.973346
N217	N	0.595583	0.516906	0.516449
N218	N	1.095583	1.016906	1.016449
H219	H	0.566358	0.549494	0.548949
H220	H	1.066358	1.049494	1.048949
N221	N	0.232461	0.503415	0.502994
N222	N	0.732461	1.003415	1.002994
N223	N	0.167219	0.500505	0.500092
N224	N	0.667219	1.000505	1.000092
H225	H	0.137977	0.533091	0.532577
H226	H	0.637977	1.033091	1.032577
H227	H	0.255336	0.324240	0.324369
H228	H	0.755336	0.824240	0.824369
H229	H	0.884283	0.664233	0.485768
H230	H	1.384283	1.164233	0.985768
H231	H	0.589364	0.294506	0.294708
H232	H	1.089364	0.794506	0.794708
N233	N	0.396287	0.320788	0.320915
N234	N	0.896287	0.820788	0.820915
N235	N	0.367213	0.277561	0.277807
N236	N	0.867213	0.777561	0.777807
H237	H	0.396436	0.244971	0.245309
H238	H	0.896436	0.744971	0.745309
