data_functionalizedCrystal
_audit_creation_method	'MofGen! by Chris Wilmer'
_symmetry_space_group_name_H-M	'P1'
_symmetry_Int_Tables_number	1
_symmetry_cell_setting	triclinic
loop_
_symmetry_equiv_pos_as_xyz
  x,y,z
_cell_length_a	15.944551
_cell_length_b	17.699083
_cell_length_c	16.776229
_cell_angle_alpha	90.007545
_cell_angle_beta	89.988667
_cell_angle_gamma	96.609124
loop_
_atom_site_label
_atom_site_type_symbol
_atom_site_fract_x
_atom_site_fract_y
_atom_site_fract_z
O1	O	1.114322	-0.097616	-0.066367
O2	O	0.869747	-0.109651	-0.066352
O3	O	0.998944	0.006544	-0.066353
O4	O	0.985125	-0.213811	-0.066366
O5	O	0.998927	0.006551	0.066224
O6	O	0.869730	-0.109644	0.066225
O7	O	1.114305	-0.097609	0.066209
Zn8	Zn	0.992015	-0.103625	0.087266
Zn9	Zn	0.992037	-0.103634	-0.087409
O10	O	0.985107	-0.213804	0.066210
C11	C	0.998440	0.034746	-0.000065
C12	C	0.996955	0.118766	-0.000064
C13	C	0.838445	-0.109147	-0.000062
C14	C	0.745203	-0.107650	-0.000056
C15	C	1.145606	-0.098112	-0.000083
C16	C	1.238849	-0.099610	-0.000094
C17	C	1.453547	-0.175213	-0.000080
C18	C	1.514649	-0.140109	-0.065445
C19	C	1.409569	-0.102319	-0.000083
C20	C	1.514610	-0.140085	0.065265
C21	C	1.574476	-0.104942	-0.000068
C22	C	1.469443	-0.067195	-0.065501
C23	C	1.469398	-0.067181	0.065268
C24	C	1.530483	-0.032024	-0.000112
C25	C	1.314570	-0.100811	-0.000092
C26	C	1.669474	-0.106445	-0.000065
C27	C	0.985611	-0.242005	-0.000080
C28	C	0.987097	-0.326026	-0.000085
N29	N	0.992005	-0.103618	0.206478
C30	C	1.072791	0.167258	-0.000068
C31	C	1.071390	0.246203	-0.000075
C32	C	0.994152	0.276656	-0.000072
C33	C	0.918310	0.228158	-0.000071
C34	C	0.919712	0.149214	-0.000070
C35	C	0.912656	0.546531	-0.000077
C36	C	0.911260	0.625481	-0.000076
C37	C	1.064334	0.643520	-0.000082
C38	C	1.065735	0.564576	-0.000081
C39	C	0.989894	0.516085	-0.000084
C40	C	0.991414	0.430484	-0.000078
C41	C	0.992632	0.362256	-0.000073
N42	N	0.992053	-0.103635	-0.206620
C43	C	1.049231	-0.052188	0.248194
C44	C	1.049236	-0.052188	0.331646
C45	C	0.992018	-0.103621	0.373380
C46	C	0.934786	-0.155053	0.331658
C47	C	0.934778	-0.155050	0.248207
C48	C	0.934816	-0.155068	0.668205
C49	C	0.934830	-0.155069	0.751662
C50	C	1.049274	-0.052206	0.751644
C51	C	1.049266	-0.052202	0.668194
C52	C	0.992032	-0.103632	0.626478
C53	C	0.992026	-0.103631	0.535990
C54	C	0.992027	-0.103626	0.463867
H55	H	1.420114	-0.235718	-0.000149
H56	H	1.095861	-0.010323	0.634216
Cl57	Cl	0.862893	-0.219733	0.804127
Cl58	Cl	0.862830	-0.219705	0.195764
H59	H	0.855422	0.252959	-0.000074
Cl60	Cl	1.162838	0.526297	-0.000086
Cl61	Cl	1.121171	0.012472	0.195737
H62	H	1.126087	0.683011	-0.000084
Cl63	Cl	1.169896	0.128983	-0.000063
Cl64	Cl	1.166732	0.307161	-0.000077
Cl65	Cl	0.824371	0.088253	-0.000068
Cl66	Cl	1.545605	-0.187710	-0.150773
Cl67	Cl	1.121225	0.012452	0.804091
H68	H	1.095833	-0.010309	0.365612
H69	H	1.534623	-0.170926	0.120526
Cl70	Cl	0.862870	-0.219723	0.615769
Cl71	Cl	1.581876	0.061471	-0.000158
H72	H	0.888194	-0.196929	0.365643
H73	H	0.848360	0.650272	-0.000073
Cl74	Cl	0.817312	0.485582	-0.000083
Cl75	Cl	1.438399	-0.019617	0.150597
Cl76	Cl	1.438701	-0.019634	-0.150914
