data_functionalizedCrystal
_audit_creation_method	'MofGen! by Chris Wilmer'
_symmetry_space_group_name_H-M	'P1'
_symmetry_Int_Tables_number	1
_symmetry_cell_setting	triclinic
loop_
_symmetry_equiv_pos_as_xyz
  x,y,z
_cell_length_a	19.077569
_cell_length_b	19.077241
_cell_length_c	16.120484
_cell_angle_alpha	84.670961
_cell_angle_beta	90.690422
_cell_angle_gamma	94.521759
loop_
_atom_site_label
_atom_site_type_symbol
_atom_site_fract_x
_atom_site_fract_y
_atom_site_fract_z
Zn1	Zn	-0.452650	-1.083087	-0.258976
Zn2	Zn	0.047350	-0.583087	0.241024
Zn3	Zn	-0.340731	-1.072288	-0.404232
Zn4	Zn	0.159269	-0.572288	0.095768
Zn5	Zn	-0.330508	-0.959984	-0.270654
Zn6	Zn	0.169492	-0.459984	0.229346
Zn7	Zn	-0.453832	-0.959184	-0.404175
Zn8	Zn	0.046168	-0.459184	0.095825
O9	O	-0.394430	-1.018636	-0.334509
O10	O	0.105570	-0.518636	0.165491
O11	O	-0.441587	-1.180508	-0.273381
O12	O	0.058413	-0.680508	0.226619
O13	O	-0.240925	-1.053207	-0.391424
O14	O	0.259075	-0.553207	0.108576
O15	O	-0.341938	-0.981168	-0.152436
O16	O	0.158062	-0.481168	0.347564
O17	O	-0.359360	-1.172574	-0.380100
O18	O	0.140640	-0.672574	0.119900
O19	O	-0.431675	-1.071611	-0.143856
O20	O	0.068325	-0.571611	0.356144
O21	O	-0.233414	-0.970698	-0.293285
O22	O	0.266586	-0.470698	0.206715
O23	O	-0.343084	-0.861025	-0.293230
O24	O	0.156916	-0.361025	0.206770
O25	O	-0.552125	-0.979804	-0.380003
O26	O	-0.052125	-0.479804	0.119997
O27	O	-0.433690	-0.860436	-0.391327
O28	O	0.066310	-0.360436	0.108673
O29	O	-0.551257	-1.070835	-0.273326
O30	O	-0.051257	-0.570835	0.226674
O31	O	-0.360507	-1.052430	-0.520894
O32	O	0.139493	-0.552430	-0.020894
O33	O	-0.443602	-0.969333	-0.520852
O34	O	0.056398	-0.469333	-0.020852
C35	C	-0.387406	-0.835099	-0.343540
C36	C	0.112594	-0.335099	0.156460
C37	C	-0.384419	-0.756581	-0.347423
C38	C	0.115581	-0.256581	0.152577
C39	C	-0.403308	-1.009643	-0.551123
C40	C	0.096692	-0.509643	-0.051123
C41	C	-0.407132	-1.005861	-0.643786
C42	C	0.092868	-0.505861	-0.143786
C43	C	-0.577932	-1.026434	-0.325355
C44	C	-0.077932	-0.526434	0.174645
C45	C	-0.656129	-1.029758	-0.321454
C46	C	-0.156129	-0.529758	0.178546
C47	C	-0.693320	-0.983925	-0.375159
C48	C	-0.193320	-0.483925	0.124841
C49	C	-0.766795	-0.987054	-0.371493
C50	C	-0.266795	-0.487054	0.128507
C51	C	-0.803078	-1.036012	-0.314118
C52	C	-0.303078	-0.536012	0.185882
C53	C	-0.765882	-1.081849	-0.260411
C54	C	-0.265882	-0.581849	0.239589
C55	C	-0.692409	-1.078724	-0.264082
C56	C	-0.192409	-0.578724	0.235918
C57	C	-1.022771	-1.050445	-0.297189
C58	C	-0.522771	-0.550445	0.202811
C59	C	-1.096250	-1.053566	-0.293521
C60	C	-0.596250	-0.553566	0.206479
C61	C	-1.097157	-0.958771	-0.404604
C62	C	-0.597157	-0.458771	0.095396
C63	C	-1.023682	-0.955647	-0.408266
C64	C	-0.523682	-0.455647	0.091734
C65	C	-0.986493	-1.001487	-0.354562
C66	C	-0.486493	-0.501487	0.145438
N67	N	-0.878181	-1.039209	-0.310368
N68	N	-0.378181	-0.539209	0.189632
N69	N	-0.911392	-0.998292	-0.358317
N70	N	-0.411392	-0.498292	0.141683
C71	C	-0.211642	-1.010910	-0.343566
C72	C	0.288358	-0.510910	0.156434
C73	C	-0.133440	-1.007734	-0.347225
C74	C	0.366560	-0.507734	0.152775
C75	C	-0.425899	-0.723824	-0.293765
C76	C	0.074101	-0.223824	0.206235
C77	C	-0.423086	-0.650048	-0.297409
C78	C	0.076914	-0.150048	0.202591
C79	C	-0.378796	-0.609030	-0.354716
C80	C	0.121204	-0.109030	0.145284
C81	C	-0.337311	-0.641792	-0.408376
C82	C	0.162689	-0.141792	0.091624
C83	C	-0.340121	-0.715567	-0.404727
C84	C	0.159879	-0.215567	0.095273
C85	C	-0.365790	-0.387944	-0.371575
C86	C	0.134210	0.112056	0.128425
C87	C	-0.362985	-0.314164	-0.375222
C88	C	0.137015	0.185836	0.124778
C89	C	-0.448758	-0.322425	-0.264253
C90	C	0.051242	0.177575	0.235747
C91	C	-0.451567	-0.396200	-0.260613
C92	C	0.048433	0.103800	0.239387
C93	C	-0.410080	-0.428956	-0.314270
C94	C	0.089920	0.071044	0.185730
N95	N	-0.375921	-0.533619	-0.358444
N96	N	0.124079	-0.033619	0.141556
N97	N	-0.412952	-0.504366	-0.310537
N98	N	0.087048	-0.004366	0.189463
C99	C	-0.401476	-0.202889	-0.325440
C100	C	0.098524	0.297111	0.174560
C101	C	-0.404464	-0.281407	-0.321564
C102	C	0.095536	0.218593	0.178436
C103	C	-0.414127	-0.998962	-0.813443
C104	C	0.085873	-0.498962	-0.313443
C105	C	-0.374750	-1.038437	-0.854729
C106	C	0.125250	-0.538437	-0.354729
C107	C	-0.378642	-1.034598	-0.949131
C108	C	0.121358	-0.534598	-0.449131
C109	C	-0.410236	-1.002800	-0.719032
C110	C	0.089764	-0.502800	-0.219032
C111	C	-0.385534	-1.027684	-0.117049
C112	C	0.114466	-0.527684	0.382951
C113	C	-0.381744	-1.031539	-0.024380
C114	C	0.118256	-0.531539	0.475620
H115	H	-0.663783	-0.944050	-0.421870
H116	H	-0.163783	-0.444050	0.078130
H117	H	-0.338114	-1.075115	-0.819176
H118	H	0.161886	-0.575115	-0.319176
Cl119	Cl	-0.287974	-0.756747	-0.472186
Cl120	Cl	0.212026	-0.256747	0.027814
Cl121	Cl	-0.811496	-1.143401	-0.188287
Cl122	Cl	-0.311496	-0.643401	0.311713
H123	H	-0.994147	-0.915790	-0.454999
H124	H	-0.494147	-0.415790	0.045001
H125	H	-0.487635	-0.429592	-0.213950
H126	H	0.012365	0.070408	0.286050
Cl127	Cl	-0.813546	-0.929439	-0.439018
Cl128	Cl	-0.313546	-0.429439	0.060982
Cl129	Cl	-1.143913	-0.901151	-0.472116
Cl130	Cl	-0.643913	-0.401151	0.027884
Cl131	Cl	-0.470685	-0.942334	-0.868331
Cl132	Cl	0.029315	-0.442334	-0.368331
H133	H	-1.125789	-1.093432	-0.246792
H134	H	-0.625789	-0.593432	0.253208
Cl135	Cl	-0.500908	-0.281242	-0.196801
Cl136	Cl	-0.000908	0.218758	0.303199
Cl137	Cl	-0.976029	-1.108070	-0.229671
Cl138	Cl	-0.476029	-0.608070	0.270329
Cl139	Cl	-0.307319	-0.262599	-0.447289
Cl140	Cl	0.192681	0.237401	0.052711
H141	H	-0.461966	-0.757215	-0.247101
H142	H	0.038034	-0.257215	0.252899
Cl143	Cl	-0.645655	-1.136347	-0.196568
Cl144	Cl	-0.145655	-0.636347	0.303432
H145	H	-0.332009	-0.414604	-0.415267
H146	H	0.167991	0.085396	0.084733
H147	H	-0.456864	-0.623380	-0.253717
H148	H	0.043136	-0.123380	0.246283
H149	H	-0.301246	-0.608390	-0.455033
H150	H	0.198754	-0.108390	0.044967
