data_functionalizedCrystal
_audit_creation_method	'MofGen! by Chris Wilmer'
_symmetry_space_group_name_H-M	'P1'
_symmetry_Int_Tables_number	1
_symmetry_cell_setting	triclinic
loop_
_symmetry_equiv_pos_as_xyz
  x,y,z
_cell_length_a	12.759399
_cell_length_b	19.077262
_cell_length_c	19.076919
_cell_angle_alpha	89.898951
_cell_angle_beta	92.274423
_cell_angle_gamma	92.318333
loop_
_atom_site_label
_atom_site_type_symbol
_atom_site_fract_x
_atom_site_fract_y
_atom_site_fract_z
Zn1	Zn	-0.381077	1.058339	-0.440332
Zn2	Zn	-0.549444	1.062997	-0.322830
Zn3	Zn	-0.380558	0.945554	-0.318136
Zn4	Zn	-0.563495	0.940817	-0.435594
O5	O	-0.468644	1.001927	-0.379223
O6	O	-0.397748	1.157290	-0.428692
O7	O	-0.520944	1.051350	-0.223875
O8	O	-0.233605	0.960548	-0.334363
O9	O	-0.521447	1.160713	-0.342364
O10	O	-0.233986	1.043410	-0.424140
O11	O	-0.396864	0.965064	-0.220426
O12	O	-0.410488	0.846592	-0.329769
O13	O	-0.545395	0.952475	-0.534554
O14	O	-0.544891	0.843112	-0.416066
O15	O	-0.411373	1.038817	-0.538035
O16	O	-0.698330	1.046757	-0.337770
O17	O	-0.708653	0.956992	-0.420617
C18	C	-0.741613	1.001884	-0.379205
C19	C	-0.858388	1.001929	-0.379224
C20	C	-0.479159	0.819355	-0.371894
C21	C	-0.483684	0.741249	-0.368776
C22	C	-0.480009	0.994598	-0.562504
C23	C	-0.484852	0.991475	-0.640608
C24	C	-0.907840	1.048719	-0.336138
C25	C	-1.017562	1.048763	-0.336163
C26	C	-1.028372	0.955222	-0.422362
C27	C	-0.918651	0.955181	-0.422339
C28	C	-1.161090	1.132713	-0.314481
C29	C	-1.210545	1.179497	-0.271384
C30	C	-1.170091	1.193068	-0.203256
C31	C	-1.080183	1.159846	-0.178211
C32	C	-1.030733	1.113057	-0.221304
C33	C	-1.071186	1.099498	-0.289442
C34	C	-0.775121	0.871231	-0.444015
C35	C	-0.725670	0.824438	-0.487104
C36	C	-0.766122	0.810860	-0.555233
C37	C	-0.856035	0.844070	-0.580275
C38	C	-0.905487	0.890863	-0.537186
C39	C	-0.865026	0.904443	-0.469058
C40	C	-0.194609	1.001988	-0.379257
C41	C	-0.077831	1.002014	-0.379271
C42	C	-0.458088	1.185211	-0.386580
C43	C	-0.453590	1.263316	-0.389715
C44	C	-0.421390	1.702771	-0.412242
C45	C	-0.425609	1.629384	-0.409284
C46	C	-0.492126	1.594475	-0.362862
C47	C	-0.554422	1.632958	-0.319391
C48	C	-0.550198	1.706345	-0.322346
C49	C	-0.511661	1.375186	-0.349200
C50	C	-0.515883	1.301794	-0.346249
C51	C	-0.387068	1.298225	-0.436141
C52	C	-0.382854	1.371612	-0.439096
C53	C	-0.445146	1.410089	-0.395622
N54	N	-0.496442	1.519462	-0.359838
N55	N	-0.440824	1.485102	-0.398643
C56	C	-0.417353	1.034960	-0.679114
C57	C	-0.421900	1.032017	-0.752500
C58	C	-0.493952	0.985593	-0.787379
C59	C	-0.561455	0.942103	-0.748867
C60	C	-0.556902	0.945043	-0.675482
C61	C	-0.515047	0.971976	-1.006662
C62	C	-0.519597	0.969041	-1.080052
C63	C	-0.380040	1.058955	-1.083680
C64	C	-0.375498	1.061893	-1.010294
C65	C	-0.442996	1.018401	-0.971788
N66	N	-0.498604	0.982585	-0.862391
N67	N	-0.438339	1.021406	-0.896777
C68	C	-0.457245	1.009267	-0.196656
C69	C	-0.452098	1.012526	-0.118559
H70	H	-0.858775	1.086785	-0.301032
Br71	Br	-0.648505	0.886022	-0.623222
H72	H	-0.328692	1.400030	-0.476900
H73	H	-0.608577	1.604530	-0.281590
H74	H	-0.957530	1.086009	-0.200913
Br75	Br	-0.288439	1.117975	-1.135941
Br76	Br	-1.110164	0.891780	-0.480872
Br77	Br	-0.330336	1.091067	-0.804758
H78	H	-0.358683	1.072766	-0.650721
Br79	Br	-0.720209	0.889663	-0.351552
H80	H	-0.316828	1.099699	-0.981901
H81	H	-0.578273	0.931235	-1.108448
H82	H	-0.367227	1.731188	-0.450046
H83	H	-0.374885	1.598058	-0.444680
Br84	Br	-0.606651	0.912950	-0.954413
Br85	Br	-0.659235	0.879093	-0.796201
H86	H	-1.194030	1.121674	-0.369959
H87	H	-0.336352	1.266889	-0.471534
H88	H	-1.210365	1.231162	-0.168167
Br89	Br	-1.025295	1.178257	-0.085741
H90	H	-0.570055	1.273374	-0.308446
H91	H	-1.283749	1.206547	-0.291783
H92	H	-0.978695	0.917907	-0.557582
H93	H	-0.725850	0.772755	-0.590315
Br94	Br	-0.910944	0.825642	-0.672738
Br95	Br	-0.603675	0.779338	-0.453105
H96	H	-0.600923	1.737672	-0.286951
Br97	Br	-0.596172	1.427396	-0.290181
