data_functionalizedCrystal
_audit_creation_method	'MofGen! by Chris Wilmer'
_symmetry_space_group_name_H-M	'P1'
_symmetry_Int_Tables_number	1
_symmetry_cell_setting	triclinic
loop_
_symmetry_equiv_pos_as_xyz
  x,y,z
_cell_length_a	21.295417
_cell_length_b	12.759401
_cell_length_c	12.759393
_cell_angle_alpha	90.017380
_cell_angle_beta	89.960626
_cell_angle_gamma	89.969332
loop_
_atom_site_label
_atom_site_type_symbol
_atom_site_fract_x
_atom_site_fract_y
_atom_site_fract_z
Zn1	Zn	-0.250568	-1.606128	-0.593926
Zn2	Zn	-0.355853	-1.605978	-0.418223
Zn3	Zn	-0.250601	-1.430434	-0.418265
Zn4	Zn	-0.355804	-1.430371	-0.593864
O5	O	-0.303206	-1.518228	-0.506069
O6	O	-0.264541	-1.753129	-0.570626
O7	O	-0.341925	-1.582655	-0.271207
O8	O	-0.162508	-1.453830	-0.441611
O9	O	-0.341893	-1.753019	-0.441538
O10	O	-0.162483	-1.582912	-0.570668
O11	O	-0.264598	-1.453683	-0.271238
O12	O	-0.264550	-1.283404	-0.441551
O13	O	-0.341810	-1.453722	-0.740893
O14	O	-0.341842	-1.283358	-0.570562
O15	O	-0.264493	-1.582850	-0.740939
O16	O	-0.443935	-1.582593	-0.441478
O17	O	-0.443900	-1.453576	-0.570521
C18	C	-0.466758	-1.518090	-0.506011
C19	C	-0.536726	-1.518127	-0.506021
C20	C	-0.303195	-1.245260	-0.506055
C21	C	-0.303205	-1.128484	-0.506074
C22	C	-0.303219	-1.792261	-0.506084
C23	C	-0.303224	-1.909037	-0.506091
C24	C	-0.569591	-1.585366	-0.438898
C25	C	-0.635333	-1.585416	-0.438921
C26	C	-0.668209	-1.518207	-0.506058
C27	C	-0.635336	-1.450963	-0.573195
C28	C	-0.569595	-1.450923	-0.573177
N29	N	-0.771474	-1.426299	-0.514062
N30	N	-0.833925	-1.426340	-0.514073
C31	C	-0.866283	-1.518324	-0.506118
N32	N	-0.833831	-1.610268	-0.498130
N33	N	-0.771373	-1.610226	-0.498114
C34	C	-0.739494	-1.518243	-0.506085
C35	C	-0.970433	-1.585623	-0.439016
C36	C	-1.036177	-1.585674	-0.439047
C37	C	-1.036179	-1.451212	-0.573315
C38	C	-0.970437	-1.451170	-0.573289
C39	C	-0.937568	-1.518374	-0.506134
C40	C	-0.139016	-1.518395	-0.506151
C41	C	-0.069048	-1.518466	-0.506185
C42	C	-0.303142	-1.518296	-0.780103
C43	C	-0.303115	-1.518325	-0.896880
C44	C	-0.343515	-1.073625	-0.573139
C45	C	-0.343523	-0.963901	-0.573151
C46	C	-0.262909	-0.963904	-0.439022
C47	C	-0.262898	-1.073626	-0.439017
C48	C	-0.383822	-1.128483	-0.640196
C49	C	-0.424136	-1.073624	-0.707266
C50	C	-0.424144	-0.963900	-0.707277
C51	C	-0.383838	-0.909034	-0.640219
C52	C	-0.262843	-1.451198	-0.951764
C53	C	-0.262824	-1.451230	-1.061488
C54	C	-0.343351	-1.585524	-1.061434
C55	C	-0.343373	-1.585487	-0.951712
C56	C	-0.222586	-1.384036	-0.896932
C57	C	-0.182310	-1.316905	-0.951816
C58	C	-0.182291	-1.316937	-1.061541
C59	C	-0.222548	-1.384100	-1.116380
C60	C	-0.303225	-1.518220	-0.233102
C61	C	-0.303075	-1.518395	-0.116326
H62	H	-0.542831	-1.640090	-0.384219
H63	H	-0.230094	-0.919224	-0.384426
N64	N	-0.670791	-1.657942	-0.366522
H65	H	-0.639993	-1.700509	-0.323980
H66	H	-0.698114	-1.615211	-0.317879
N67	N	-0.138897	-1.244458	-0.892676
H68	H	-0.145018	-1.254623	-0.814839
H69	H	-0.093937	-1.260863	-0.911885
H70	H	-0.542836	-1.396168	-0.627838
N71	N	-0.138860	-1.244526	-1.120741
H72	H	-0.113363	-1.201976	-1.069352
H73	H	-0.109724	-1.287337	-1.166285
N74	N	-0.219421	-1.132805	-0.366687
H75	H	-0.193892	-1.081405	-0.324202
H76	H	-0.245006	-1.178298	-0.317987
H77	H	-0.222531	-1.384118	-1.205725
H78	H	-0.383842	-0.819690	-0.640243
N79	N	-0.386770	-1.657958	-1.120577
H80	H	-0.380646	-1.647795	-1.198414
H81	H	-0.376983	-1.732997	-1.101403
H82	H	-0.376157	-1.640161	-0.907024
H83	H	-0.943670	-1.640348	-0.384338
H84	H	-0.662108	-1.396243	-0.627859
H85	H	-1.062946	-1.396494	-0.627983
N86	N	-1.071627	-1.658205	-0.366651
H87	H	-1.040827	-1.700768	-0.324108
H88	H	-1.098954	-1.615480	-0.318008
N89	N	-0.222602	-1.384010	-0.778588
H90	H	-0.190988	-1.331281	-0.752178
H91	H	-0.265808	-1.364673	-0.752208
H92	H	-0.943677	-1.396413	-0.627944
H93	H	-0.383821	-1.217825	-0.640192
H94	H	-0.456965	-0.919236	-0.761896
N95	N	-0.467604	-1.132792	-0.779595
H96	H	-0.461485	-1.210625	-0.769411
H97	H	-0.512551	-1.113572	-0.763100
