data_functionalizedCrystal
_audit_creation_method	'MofGen! by Chris Wilmer'
_symmetry_space_group_name_H-M	'P1'
_symmetry_Int_Tables_number	1
_symmetry_cell_setting	triclinic
loop_
_symmetry_equiv_pos_as_xyz
  x,y,z
_cell_length_a	11.169416
_cell_length_b	11.169417
_cell_length_c	17.077396
_cell_angle_alpha	90.018074
_cell_angle_beta	89.977334
_cell_angle_gamma	89.991438
loop_
_atom_site_label
_atom_site_type_symbol
_atom_site_fract_x
_atom_site_fract_y
_atom_site_fract_z
Zn1	Zn	-0.477864	-1.834920	-0.443845
Zn2	Zn	-0.144531	-1.501587	-0.110511
Zn3	Zn	0.188803	-1.168253	0.222822
Zn4	Zn	-0.678576	-1.834822	-0.312592
Zn5	Zn	-0.345243	-1.501489	0.020741
Zn6	Zn	-0.011909	-1.168155	0.354075
Zn7	Zn	-0.477899	-1.634218	-0.312596
Zn8	Zn	-0.144566	-1.300885	0.020738
Zn9	Zn	0.188767	-0.967552	0.354071
Zn10	Zn	-0.678498	-1.634213	-0.443819
Zn11	Zn	-0.345164	-1.300880	-0.110485
Zn12	Zn	-0.011831	-0.967547	0.222848
O13	O	-0.578209	-1.734543	-0.378213
O14	O	-0.244876	-1.401210	-0.044879
O15	O	0.088457	-1.067877	0.288454
O16	O	-0.504507	-2.002857	-0.426443
O17	O	-0.171174	-1.669523	-0.093109
O18	O	0.162160	-1.336190	0.240224
O19	O	-0.652003	-1.808172	-0.202745
O20	O	-0.318670	-1.474839	0.130588
O21	O	0.014664	-1.141506	0.463921
O22	O	-0.309945	-1.660885	-0.330019
O23	O	0.023389	-1.327552	0.003315
O24	O	0.356722	-0.994218	0.336648
O25	O	-0.651969	-2.002785	-0.330012
O26	O	-0.318636	-1.669451	0.003321
O27	O	0.014698	-1.336118	0.336655
O28	O	-0.309919	-1.808340	-0.426447
O29	O	0.023414	-1.475006	-0.093113
O30	O	0.356748	-1.141673	0.240220
O31	O	-0.504567	-1.660790	-0.202748
O32	O	-0.171233	-1.327457	0.130585
O33	O	0.162100	-0.994123	0.463918
O34	O	-0.504491	-1.466268	-0.329994
O35	O	-0.171158	-1.132935	0.003340
O36	O	0.162176	-0.799601	0.336673
O37	O	-0.651836	-1.660876	-0.553669
O38	O	-0.318502	-1.327543	-0.220336
O39	O	0.014831	-0.994210	0.112998
O40	O	-0.651870	-1.466264	-0.426403
O41	O	-0.318536	-1.132931	-0.093069
O42	O	0.014797	-0.799598	0.240264
O43	O	-0.504431	-1.808335	-0.553688
O44	O	-0.171098	-1.475001	-0.220355
O45	O	0.162236	-1.141668	0.112979
O46	O	-0.846515	-1.808168	-0.329987
O47	O	-0.513182	-1.474834	0.003346
O48	O	-0.179849	-1.141501	0.336680
O49	O	-0.846458	-1.660781	-0.426399
O50	O	-0.513124	-1.327448	-0.093065
O51	O	-0.179791	-0.994115	0.240268
C52	C	-0.578177	-1.422719	-0.378196
C53	C	-0.244843	-1.089385	-0.044863
C54	C	0.088490	-0.756052	0.288471
C55	C	-0.578191	-1.289319	-0.378208
C56	C	-0.244858	-0.955985	-0.044874
C57	C	0.088475	-0.622652	0.288459
C58	C	-0.890034	-1.734496	-0.378207
C59	C	-0.556701	-1.401162	-0.044873
C60	C	-0.223367	-1.067829	0.288460
C61	C	-1.023434	-1.734585	-0.378230
C62	C	-0.690100	-1.401252	-0.044897
C63	C	-0.356767	-1.067919	0.288436
C64	C	-0.265167	-1.734624	-0.378236
C65	C	0.068167	-1.401291	-0.044903
C66	C	0.401500	-1.067957	0.288431
C67	C	-0.131767	-1.734658	-0.378246
C68	C	0.201567	-1.401325	-0.044912
C69	C	0.534900	-1.067991	0.288421
C70	C	-0.578121	-1.734616	-0.582957
C71	C	-0.244787	-1.401283	-0.249624
C72	C	0.088546	-1.067949	0.083710
C73	C	-0.578083	-1.734647	-0.670207
C74	C	-0.244750	-1.401314	-0.336874
C75	C	0.088584	-1.067980	-0.003540
C76	C	-0.578231	-1.047586	-0.378225
C77	C	-0.244898	-0.714252	-0.044891
C78	C	0.088435	-0.380919	0.288442
C79	C	-0.578211	-1.180986	-0.378216
C80	C	-0.244877	-0.847652	-0.044883
C81	C	0.088456	-0.514319	0.288450
C82	C	-0.501323	-1.811431	-0.711208
C83	C	-0.167990	-1.478098	-0.377875
C84	C	0.165344	-1.144765	-0.044542
C85	C	-0.501283	-1.811446	-0.793189
C86	C	-0.167950	-1.478112	-0.459855
C87	C	0.165383	-1.144779	-0.126522
C88	C	-0.578010	-1.734681	-0.834166
C89	C	-0.244677	-1.401348	-0.500833
C90	C	0.088657	-1.068014	-0.167500
C91	C	-0.654773	-1.657888	-0.793159
C92	C	-0.321440	-1.324555	-0.459826
C93	C	0.011893	-0.991222	-0.126493
C94	C	-0.654806	-1.657869	-0.711180
C95	C	-0.321473	-1.324535	-0.377847
C96	C	0.011860	-0.991202	-0.044514
C97	C	-0.654701	-1.657936	-0.964030
C98	C	-0.321368	-1.324603	-0.630696
C99	C	0.011965	-0.991270	-0.297363
C100	C	-0.654670	-1.657957	-1.046014
C101	C	-0.321337	-1.324624	-0.712681
C102	C	0.011996	-0.991291	-0.379348
C103	C	-0.501178	-1.811514	-1.046038
C104	C	-0.167845	-1.478180	-0.712705
C105	C	0.165489	-1.144847	-0.379371
C106	C	-0.501211	-1.811494	-0.964059
C107	C	-0.167878	-1.478161	-0.630726
C108	C	0.165456	-1.144827	-0.297392
C109	C	-0.577976	-1.734702	-0.923057
C110	C	-0.244643	-1.401369	-0.589724
C111	C	0.088690	-1.068036	-0.256391
C112	C	-0.578211	-1.734540	-0.174265
C113	C	-0.244877	-1.401207	0.159068
C114	C	0.088456	-1.067873	0.492402
C115	C	-0.577910	-1.734742	-0.087015
C116	C	-0.244577	-1.401408	0.246318
C117	C	0.088756	-1.068075	0.579651
H118	H	-0.438847	-1.873946	-0.677850
H119	H	-0.105513	-1.540613	-0.344517
H120	H	0.227820	-1.207279	-0.011183
Cl121	Cl	-0.751206	-1.561395	-0.912486
Cl122	Cl	-0.417873	-1.228062	-0.579153
Cl123	Cl	-0.084540	-0.894729	-0.245820
Cl124	Cl	-0.404675	-1.908053	-1.097582
Cl125	Cl	-0.071341	-1.574720	-0.764248
Cl126	Cl	0.261992	-1.241386	-0.430915
H127	H	-0.717145	-1.595446	-1.079376
H128	H	-0.383812	-1.262113	-0.746043
H129	H	-0.050479	-0.928779	-0.412709
H130	H	-0.717241	-1.595381	-0.826530
H131	H	-0.383908	-1.262047	-0.493197
H132	H	-0.050575	-0.928714	-0.159863
Cl133	Cl	-0.751305	-1.561332	-0.659636
Cl134	Cl	-0.417972	-1.227998	-0.326302
Cl135	Cl	-0.084638	-0.894665	0.007031
H136	H	-0.438740	-1.874009	-0.930697
H137	H	-0.105407	-1.540676	-0.597364
H138	H	0.227927	-1.207343	-0.264030
Cl139	Cl	-0.404833	-1.908032	-0.844730
Cl140	Cl	-0.071500	-1.574699	-0.511397
Cl141	Cl	0.261833	-1.241366	-0.178063
