data_functionalizedCrystal
_audit_creation_method	'MofGen! by Chris Wilmer'
_symmetry_space_group_name_H-M	'P1'
_symmetry_Int_Tables_number	1
_symmetry_cell_setting	triclinic
loop_
_symmetry_equiv_pos_as_xyz
  x,y,z
_cell_length_a	14.519710
_cell_length_b	10.654550
_cell_length_c	13.596369
_cell_angle_alpha	89.994113
_cell_angle_beta	90.000021
_cell_angle_gamma	95.917462
loop_
_atom_site_label
_atom_site_type_symbol
_atom_site_fract_x
_atom_site_fract_y
_atom_site_fract_z
O1	O	1.224716	-0.164626	0.081770
O2	O	1.558049	0.168707	0.415103
O3	O	1.891383	0.502041	0.748436
O4	O	0.956340	-0.184013	0.081776
O5	O	1.289673	0.149321	0.415110
O6	O	1.623006	0.482654	0.748443
O7	O	1.096698	0.008479	0.081767
O8	O	1.430032	0.341813	0.415100
O9	O	1.763365	0.675146	0.748433
O10	O	1.084357	-0.357118	0.081779
O11	O	1.417691	-0.023785	0.415113
O12	O	1.751024	0.309549	0.748446
O13	O	1.096696	0.008491	-0.081816
O14	O	1.430029	0.341825	0.251517
O15	O	1.763363	0.675158	0.584850
O16	O	0.956337	-0.184001	-0.081807
O17	O	1.289671	0.149333	0.251527
O18	O	1.623004	0.482666	0.584860
O19	O	1.224714	-0.164614	-0.081813
O20	O	1.558047	0.168719	0.251520
O21	O	1.891380	0.502053	0.584853
Zn22	Zn	1.090525	-0.174305	-0.107782
Zn23	Zn	1.423859	0.159028	0.225551
Zn24	Zn	1.757192	0.492361	0.558884
Zn25	Zn	1.090528	-0.174321	0.107745
Zn26	Zn	1.423862	0.159012	0.441079
Zn27	Zn	1.757195	0.492345	0.774412
O28	O	1.084355	-0.357106	-0.081804
O29	O	1.417688	-0.023772	0.251530
O30	O	1.751022	0.309561	0.584863
C31	C	0.921974	-0.183103	-0.000014
C32	C	1.255307	0.150230	0.333319
C33	C	1.588641	0.483564	0.666652
C34	C	0.819579	-0.180396	-0.000012
C35	C	1.152912	0.152938	0.333321
C36	C	1.486245	0.486271	0.666655
C37	C	1.259079	-0.165524	-0.000020
C38	C	1.592413	0.167810	0.333313
C39	C	1.925746	0.501143	0.666646
C40	C	1.361475	-0.168231	-0.000016
C41	C	1.694808	0.165102	0.333317
C42	C	2.028141	0.498436	0.666650
C43	C	1.095791	0.055275	-0.000024
C44	C	1.429124	0.388608	0.333309
C45	C	1.762458	0.721941	0.666642
C46	C	1.093080	0.194692	-0.000023
C47	C	1.426413	0.528025	0.333311
C48	C	1.759747	0.861358	0.666644
C49	C	1.736422	-0.178198	-0.000016
C50	C	2.069756	0.155135	0.333318
C51	C	2.403089	0.488468	0.666651
C52	C	1.632100	-0.175430	-0.000016
C53	C	1.965433	0.157903	0.333318
C54	C	2.298767	0.491236	0.666651
C55	C	1.548952	-0.173215	-0.000015
C56	C	1.882285	0.160118	0.333318
C57	C	2.215618	0.493452	0.666652
C58	C	1.444623	-0.170446	-0.000017
C59	C	1.777956	0.162887	0.333316
C60	C	2.111289	0.496220	0.666650
C61	C	1.085262	-0.403901	-0.000011
C62	C	1.418596	-0.070568	0.333323
C63	C	1.751929	0.262766	0.666656
C64	C	1.087973	-0.543318	-0.000006
C65	C	1.421307	-0.209985	0.333328
C66	C	1.754640	0.123348	0.666661
N67	N	1.090530	-0.174294	-0.254874
N68	N	1.423863	0.159040	0.078459
N69	N	1.757196	0.492373	0.411793
C70	C	1.175721	0.274972	-0.000024
C71	C	1.509054	0.608305	0.333309
C72	C	1.842388	0.941639	0.666642
C73	C	1.173168	0.405968	-0.000012
C74	C	1.506501	0.739302	0.333321
C75	C	1.839835	1.072635	0.666654
C76	C	1.005326	0.376391	-0.000001
C77	C	1.338660	0.709724	0.333332
C78	C	1.671993	1.043058	0.666666
C79	C	1.007880	0.245397	-0.000006
C80	C	1.341213	0.578731	0.333327
C81	C	1.674547	0.912064	0.666661
N82	N	1.090531	-0.174323	0.254837
N83	N	1.423864	0.159010	0.588170
N84	N	1.757198	0.492344	0.921504
C85	C	1.090526	-0.174309	0.656128
C86	C	1.423859	0.159024	0.989461
C87	C	1.757193	0.492357	1.322795
C88	C	1.090524	-0.174317	0.544477
C89	C	1.423858	0.159016	0.877810
C90	C	1.757191	0.492350	1.211143
C91	C	1.090528	-0.174316	0.455486
C92	C	1.423861	0.159018	0.788819
C93	C	1.757194	0.492351	1.122153
C94	C	1.090527	-0.174324	0.343828
C95	C	1.423861	0.159009	0.677161
C96	C	1.757194	0.492342	1.010494
H97	H	1.240463	0.471328	-0.000012
H98	H	1.573796	0.804661	0.333322
H99	H	1.907130	1.137995	0.666655
C100	C	0.913384	0.080915	0.084092
C101	C	1.246717	0.414249	0.417425
C102	C	1.580050	0.747582	0.750759
C103	C	0.917033	0.157144	-0.000001
C104	C	1.250366	0.490478	0.333332
C105	C	1.583699	0.823811	0.666666
H106	H	0.857298	0.026439	0.084099
H107	H	1.190631	0.359772	0.417433
H108	H	1.523965	0.693106	0.750766
H109	H	0.964483	0.031975	0.084079
H110	H	1.297816	0.365308	0.417412
H111	H	1.631150	0.698641	0.750745
H112	H	0.915880	0.132639	0.141130
H113	H	1.249213	0.465972	0.474463
H114	H	1.582546	0.799306	0.807797
H115	H	0.914543	0.105421	-0.057039
H116	H	1.247877	0.438754	0.276294
H117	H	1.581210	0.772087	0.609627
H118	H	0.865919	0.206089	0.000003
H119	H	1.199253	0.539423	0.333336
H120	H	1.532586	0.872756	0.666670
C121	C	1.275971	0.144843	-0.084128
C122	C	1.609305	0.478177	0.249205
C123	C	1.942638	0.811510	0.582539
C124	C	1.269373	0.219238	-0.000032
C125	C	1.602706	0.552571	0.333301
C126	C	1.936039	0.885904	0.666634
H127	H	1.333793	0.110447	-0.084131
H128	H	1.667126	0.443780	0.249202
H129	H	2.000459	0.777113	0.582536
H130	H	1.227128	0.078284	-0.084123
H131	H	1.560461	0.411618	0.249211
H132	H	1.893795	0.744951	0.582544
H133	H	1.271484	0.195355	-0.141164
H134	H	1.604817	0.528688	0.192169
H135	H	1.938151	0.862021	0.525503
H136	H	1.273853	0.168724	0.057004
H137	H	1.607186	0.502057	0.390338
H138	H	1.940520	0.835391	0.723671
H139	H	1.318230	0.285806	-0.000029
H140	H	1.651563	0.619139	0.333305
H141	H	1.984896	0.952472	0.666638
C142	C	0.926885	0.564064	-0.000001
C143	C	1.260219	0.897397	0.333332
C144	C	1.593552	1.230730	0.666666
C145	C	0.911677	0.432132	0.000003
C146	C	1.245011	0.765466	0.333336
C147	C	1.578344	1.098799	0.666669
H148	H	0.869068	0.598470	-0.000007
H149	H	1.202401	0.931804	0.333326
H150	H	1.535734	1.265137	0.666659
H151	H	0.960941	0.591592	0.057041
H152	H	1.294274	0.924925	0.390374
H153	H	1.627607	1.258258	0.723707
H154	H	0.960949	0.591602	-0.057050
H155	H	1.294283	0.924935	0.276283
H156	H	1.627616	1.258269	0.609617
H157	H	0.877619	0.404593	0.057056
H158	H	1.210952	0.737927	0.390389
H159	H	1.544286	1.071260	0.723723
H160	H	0.877607	0.404593	-0.057044
H161	H	1.210941	0.737926	0.276289
H162	H	1.544274	1.071260	0.609622
