data_functionalizedCrystal
_audit_creation_method	'MofGen! by Chris Wilmer'
_symmetry_space_group_name_H-M	'P1'
_symmetry_Int_Tables_number	1
_symmetry_cell_setting	triclinic
loop_
_symmetry_equiv_pos_as_xyz
  x,y,z
_cell_length_a	19.077105
_cell_length_b	18.050589
_cell_length_c	19.077271
_cell_angle_alpha	87.709704
_cell_angle_beta	89.912562
_cell_angle_gamma	87.724731
loop_
_atom_site_label
_atom_site_type_symbol
_atom_site_fract_x
_atom_site_fract_y
_atom_site_fract_z
Zn1	Zn	1.058165	-0.359400	0.440435
Zn2	Zn	1.391499	-0.026067	0.773768
Zn3	Zn	1.724832	0.307267	1.107102
Zn4	Zn	1.062819	-0.478776	0.322936
Zn5	Zn	1.396153	-0.145443	0.656269
Zn6	Zn	1.729486	0.187890	0.989603
Zn7	Zn	0.945407	-0.349418	0.318229
Zn8	Zn	1.278740	-0.016085	0.651562
Zn9	Zn	1.612073	0.317248	0.984895
Zn10	Zn	0.940620	-0.478359	0.435688
Zn11	Zn	1.273954	-0.145026	0.769021
Zn12	Zn	1.607287	0.188308	1.102354
O13	O	1.001753	-0.416488	0.379322
O14	O	1.335086	-0.083155	0.712655
O15	O	1.668420	0.250178	1.045988
O16	O	1.157114	-0.379588	0.428805
O17	O	1.490447	-0.046254	0.762139
O18	O	1.823780	0.287079	1.095472
O19	O	1.051195	-0.457614	0.223981
O20	O	1.384528	-0.124281	0.557314
O21	O	1.717862	0.209052	0.890647
O22	O	0.960420	-0.246821	0.334456
O23	O	1.293753	0.086512	0.667790
O24	O	1.627086	0.419846	1.001123
O25	O	1.160533	-0.467293	0.342479
O26	O	1.493866	-0.133960	0.675812
O27	O	1.827199	0.199374	1.009146
O28	O	1.043263	-0.254154	0.424241
O29	O	1.376596	0.079179	0.757574
O30	O	1.709930	0.412512	1.090907
O31	O	0.964932	-0.362575	0.220522
O32	O	1.298266	-0.029242	0.553856
O33	O	1.631599	0.304091	0.887189
O34	O	0.846441	-0.362171	0.329853
O35	O	1.179774	-0.028837	0.663186
O36	O	1.513108	0.304496	0.996520
O37	O	0.952262	-0.466581	0.534648
O38	O	1.285595	-0.133248	0.867981
O39	O	1.618929	0.200085	1.201315
O40	O	0.842924	-0.456903	0.416150
O41	O	1.176258	-0.123569	0.749483
O42	O	1.509591	0.209764	1.082816
O43	O	1.038622	-0.379183	0.538136
O44	O	1.371955	-0.045849	0.871469
O45	O	1.705289	0.287484	1.204803
O46	O	1.046554	-0.582643	0.337876
O47	O	1.379887	-0.249309	0.671209
O48	O	1.713221	0.084024	1.004543
O49	O	0.956775	-0.582336	0.420714
O50	O	1.290108	-0.249003	0.754047
O51	O	1.623441	0.084331	1.087381
C52	C	0.819187	-0.408409	0.371976
C53	C	1.152520	-0.075075	0.705309
C54	C	1.485853	0.258258	1.038642
C55	C	0.741083	-0.404971	0.368850
C56	C	1.074416	-0.071638	0.702183
C57	C	1.407750	0.261696	1.035517
C58	C	0.702580	-0.452746	0.412241
C59	C	1.035914	-0.119413	0.745574
C60	C	1.369247	0.213920	1.078907
C61	C	0.629194	-0.449506	0.409307
C62	C	0.962527	-0.116173	0.742640
C63	C	1.295861	0.217160	1.075974
C64	C	0.594312	-0.398494	0.362978
C65	C	0.927645	-0.065161	0.696312
C66	C	1.260978	0.268173	1.029645
C67	C	0.632820	-0.350713	0.319586
C68	C	0.966153	-0.017380	0.652919
C69	C	1.299486	0.315953	0.986252
C70	C	0.706205	-0.353950	0.322524
C71	C	1.039538	-0.020617	0.655857
C72	C	1.372871	0.312716	0.989190
C73	C	0.375028	-0.383513	0.349385
C74	C	0.708361	-0.050180	0.682718
C75	C	1.041694	0.283153	1.016052
C76	C	0.301638	-0.380282	0.346449
C77	C	0.634971	-0.046948	0.679782
C78	C	0.968304	0.286385	1.013115
C79	C	0.298017	-0.479074	0.436171
C80	C	0.631350	-0.145741	0.769505
C81	C	0.964684	0.187593	1.102838
C82	C	0.371404	-0.482309	0.439102
C83	C	0.704737	-0.148976	0.772435
C84	C	1.038070	0.184357	1.105769
C85	C	0.409905	-0.434526	0.395712
C86	C	0.743238	-0.101193	0.729045
C87	C	1.076572	0.232140	1.062379
N88	N	0.519299	-0.395183	0.359977
N89	N	0.852632	-0.061849	0.693310
N90	N	1.185965	0.271484	1.026643
N91	N	0.484916	-0.437835	0.398718
N92	N	0.818250	-0.104501	0.732051
N93	N	1.151583	0.228832	1.065384
C94	C	1.001669	-0.609436	0.379307
C95	C	1.335002	-0.276103	0.712640
C96	C	1.668335	0.057230	1.045973
C97	C	1.001696	-0.691984	0.379326
C98	C	1.335029	-0.358651	0.712660
C99	C	1.668362	-0.025318	1.045993
C100	C	0.952921	-0.891296	0.424359
C101	C	1.286254	-0.557963	0.757693
C102	C	1.619587	-0.224630	1.091026
C103	C	0.938383	-0.937353	0.359553
C104	C	1.271716	-0.604019	0.692886
C105	C	1.605049	-0.270686	1.026219
C106	C	1.001764	-0.843118	0.379338
C107	C	1.335098	-0.509785	0.712672
C108	C	1.668431	-0.176451	1.046005
C109	C	1.016337	-0.944145	0.444153
C110	C	1.349670	-0.610812	0.777487
C111	C	1.683003	-0.277478	1.110820
C112	C	1.001829	-0.989106	0.379355
C113	C	1.335163	-0.655773	0.712689
C114	C	1.668496	-0.322440	1.046022
C115	C	0.987194	-0.888084	0.314497
C116	C	1.320528	-0.554751	0.647830
C117	C	1.653861	-0.221418	0.981163
C118	C	1.065176	-0.894875	0.399142
C119	C	1.398509	-0.561542	0.732475
C120	C	1.731843	-0.228209	1.065808
C121	C	1.050664	-0.940909	0.334292
C122	C	1.383998	-0.607575	0.667625
C123	C	1.717331	-0.274242	1.000959
C124	C	1.001725	-0.759018	0.379329
C125	C	1.335059	-0.425684	0.712663
C126	C	1.668392	-0.092351	1.045996
C127	C	1.001869	-1.073205	0.379357
C128	C	1.335202	-0.739871	0.712691
C129	C	1.668535	-0.406538	1.046024
C130	C	1.185032	-0.424600	0.386697
C131	C	1.518365	-0.091267	0.720030
C132	C	1.851699	0.242066	1.053363
C133	C	1.263135	-0.428057	0.389840
C134	C	1.596468	-0.094724	0.723173
C135	C	1.929801	0.238610	1.056506
C136	C	0.994389	-0.423949	0.562601
C137	C	1.327722	-0.090616	0.895934
C138	C	1.661056	0.242718	1.229268
C139	C	0.991251	-0.427128	0.640704
C140	C	1.324584	-0.093795	0.974037
C141	C	1.657918	0.239538	1.307370
C142	C	1.001856	-0.222789	0.379353
C143	C	1.335189	0.110545	0.712686
C144	C	1.668523	0.443878	1.046020
C145	C	1.001900	-0.140245	0.379366
C146	C	1.335233	0.193088	0.712700
C147	C	1.668567	0.526421	1.046033
C148	C	1.034737	-0.383120	0.679213
C149	C	1.368071	-0.049787	1.012547
C150	C	1.701404	0.283547	1.345880
C151	C	1.031780	-0.386104	0.752599
C152	C	1.365113	-0.052771	1.085932
C153	C	1.698447	0.280563	1.419265
C154	C	0.985340	-0.433101	0.787473
C155	C	1.318673	-0.099767	1.120806
C156	C	1.652006	0.233566	1.454140
C157	C	0.941849	-0.477110	0.748958
C158	C	1.275182	-0.143777	1.082291
C159	C	1.608515	0.189556	1.415625
C160	C	0.944803	-0.474122	0.675574
C161	C	1.278136	-0.140789	1.008907
C162	C	1.611469	0.192545	1.342241
C163	C	0.971680	-0.446914	1.006753
C164	C	1.305013	-0.113581	1.340087
C165	C	1.638347	0.219753	1.673420
C166	C	0.968731	-0.449901	1.080143
C167	C	1.302064	-0.116567	1.413476
C168	C	1.635397	0.216766	1.746809
C169	C	1.058662	-0.358893	1.083778
C170	C	1.391995	-0.025560	1.417112
C171	C	1.725329	0.307774	1.750445
C172	C	1.061615	-0.355912	1.010393
C173	C	1.394948	-0.022579	1.343726
C174	C	1.728281	0.310755	1.677059
C175	C	1.018121	-0.399919	0.971884
C176	C	1.351454	-0.066586	1.305217
C177	C	1.684788	0.266748	1.638551
N178	N	0.982318	-0.436154	0.862485
N179	N	1.315651	-0.102820	1.195818
N180	N	1.648984	0.230513	1.529151
N181	N	1.021140	-0.396862	0.896873
N182	N	1.354474	-0.063528	1.230207
N183	N	1.687807	0.269805	1.563540
C184	C	1.009082	-0.409073	1.196755
C185	C	1.342415	-0.075740	1.530089
C186	C	1.675749	0.257594	1.863422
C187	C	1.012217	-0.405893	1.118653
C188	C	1.345551	-0.072559	1.451986
C189	C	1.678884	0.260774	1.785319
H190	H	0.604412	-0.309175	0.281867
H191	H	0.937746	0.024158	0.615200
H192	H	1.271079	0.357492	0.948534
H193	H	1.092000	-0.962550	0.296181
H194	H	1.425333	-0.629217	0.629514
H195	H	1.758666	-0.295884	0.962847
H196	H	1.118758	-0.876087	0.415907
H197	H	1.452091	-0.542753	0.749240
H198	H	1.785424	-0.209420	1.082574
C199	C	0.923833	-0.495321	0.964403
C200	C	1.257166	-0.161988	1.297736
C201	C	1.590500	0.171346	1.631070
N202	N	0.887791	-0.531782	0.932502
N203	N	1.221124	-0.198449	1.265835
N204	N	1.554458	0.134885	1.599169
H205	H	1.028636	-0.968658	0.498960
H206	H	1.361970	-0.635324	0.832293
H207	H	1.695303	-0.301991	1.165627
H208	H	0.974832	-0.863658	0.259673
H209	H	1.308166	-0.530325	0.593006
H210	H	1.641499	-0.196991	0.926339
H211	H	0.737553	-0.315043	0.287194
H212	H	1.070886	0.018291	0.620527
H213	H	1.404219	0.351624	0.953860
C214	C	1.085825	-0.331419	0.640858
C215	C	1.419159	0.001914	0.974192
C216	C	1.752492	0.335248	1.307525
N217	N	1.124304	-0.292473	0.611971
N218	N	1.457637	0.040860	0.945305
N219	N	1.790971	0.374193	1.278638
C220	C	1.079620	-0.337693	0.794956
C221	C	1.412954	-0.004359	1.128290
C222	C	1.746287	0.328974	1.461623
N223	N	1.115656	-0.301227	0.826860
N224	N	1.448989	0.032106	1.160193
N225	N	1.782322	0.365440	1.493526
H226	H	1.099434	-0.317645	0.982003
H227	H	1.432767	0.015689	1.315337
H228	H	1.766100	0.349022	1.648670
H229	H	1.094071	-0.323064	1.115140
H230	H	1.427404	0.010269	1.448473
H231	H	1.760738	0.343603	1.781807
C232	C	0.255659	-0.531627	0.483902
C233	C	0.588993	-0.198293	0.817235
C234	C	0.922326	0.135040	1.150569
N235	N	0.223755	-0.571209	0.519857
N236	N	0.557089	-0.237876	0.853191
N237	N	0.890422	0.095458	1.186524
H238	H	0.909384	-0.509950	0.644220
H239	H	1.242718	-0.176617	0.977553
H240	H	1.576051	0.156716	1.310886
H241	H	0.911559	-0.869512	0.462373
H242	H	1.244892	-0.536179	0.795707
H243	H	1.578226	-0.202845	1.129040
C244	C	0.917638	-0.501600	1.118503
C245	C	1.250972	-0.168267	1.451836
C246	C	1.584305	0.165066	1.785169
N247	N	0.879158	-0.540539	1.147396
N248	N	1.212491	-0.207206	1.480729
N249	N	1.545824	0.126128	1.814062
H250	H	0.884788	-0.956144	0.342818
H251	H	1.218121	-0.622811	0.676151
H252	H	1.551454	-0.289478	1.009484
C253	C	0.586845	-0.502077	0.457027
C254	C	0.920178	-0.168744	0.790360
C255	C	1.253511	0.164589	1.123694
N256	N	0.554948	-0.541681	0.492968
N257	N	0.888281	-0.208347	0.826301
N258	N	1.221614	0.124986	1.159634
H259	H	0.904033	-0.515373	0.777358
H260	H	1.237366	-0.182040	1.110692
H261	H	1.570700	0.151293	1.444025
C262	C	0.417370	-0.330954	0.301650
C263	C	0.750703	0.002379	0.634983
C264	C	1.084037	0.335712	0.968316
N265	N	0.449265	-0.291366	0.265692
N266	N	0.782598	0.041968	0.599026
N267	N	1.115932	0.375301	0.932359
C268	C	0.409769	-0.538430	0.490064
C269	C	0.743102	-0.205097	0.823397
C270	C	1.076435	0.128236	1.156730
N271	N	0.438665	-0.580705	0.528446
N272	N	0.771999	-0.247371	0.861779
N273	N	1.105332	0.085962	1.195113
C274	C	0.740944	-0.508865	0.463206
C275	C	1.074277	-0.175531	0.796539
C276	C	1.407611	0.157802	1.129873
N277	N	0.769837	-0.551133	0.501597
N278	N	1.103171	-0.217799	0.834930
N279	N	1.436504	0.115534	1.168263
H280	H	0.273238	-0.338733	0.308727
H281	H	0.606572	-0.005399	0.642060
H282	H	0.939905	0.327934	0.975393
