data_functionalizedCrystal
_audit_creation_method	'MofGen! by Chris Wilmer'
_symmetry_space_group_name_H-M	'P1'
_symmetry_Int_Tables_number	1
_symmetry_cell_setting	triclinic
loop_
_symmetry_equiv_pos_as_xyz
  x,y,z
_cell_length_a	10.489741
_cell_length_b	17.038272
_cell_length_c	8.965430
_cell_angle_alpha	90.000179
_cell_angle_beta	89.998843
_cell_angle_gamma	87.825365
loop_
_atom_site_label
_atom_site_type_symbol
_atom_site_fract_x
_atom_site_fract_y
_atom_site_fract_z
O1	O	1.704377	0.110369	-0.123948
O2	O	1.334150	0.120730	-0.123972
O3	O	1.517063	0.001722	-0.123948
O4	O	1.521464	0.229378	-0.123972
O5	O	1.517047	0.001729	0.124130
O6	O	1.334134	0.120738	0.124107
O7	O	1.704361	0.110377	0.124130
Cu8	Cu	1.519246	0.115558	0.146770
Cu9	Cu	1.519265	0.115549	-0.146612
O10	O	1.521448	0.229386	0.124107
C11	C	1.286537	0.119951	0.000065
C12	C	1.144689	0.117610	0.000056
C13	C	1.069466	0.041889	0.000078
C14	C	0.980693	0.077655	-0.122238
C15	C	0.980713	0.077681	0.122348
C16	C	1.057784	0.153408	-0.122361
C17	C	1.057813	0.153423	0.122335
C18	C	0.969072	0.189244	-0.000011
C19	C	1.513053	-0.027426	0.000091
C20	C	1.501111	-0.114288	0.000089
C21	C	1.610749	-0.163767	0.000098
C22	C	1.599521	-0.245383	0.000083
C23	C	1.478654	-0.277518	0.000070
C24	C	1.369007	-0.228032	0.000057
C25	C	1.380237	-0.146418	0.000062
C26	C	1.438983	-0.523505	0.000047
C27	C	1.427762	-0.605126	0.000048
C28	C	1.658277	-0.622471	0.000071
C29	C	1.669495	-0.540855	0.000084
C30	C	1.559849	-0.491376	0.000063
C31	C	1.467174	-0.360942	0.000060
C32	C	1.571330	-0.407954	0.000063
C33	C	1.751974	0.111156	0.000091
C34	C	1.893822	0.113497	0.000089
C35	C	1.525458	0.258533	0.000065
C36	C	1.537400	0.345395	0.000056
N37	N	1.519243	0.115564	0.353119
N38	N	1.519278	0.115537	-0.352961
C39	C	1.434622	0.170583	0.450415
C40	C	1.551599	0.186413	0.549834
C41	C	1.402315	0.099741	0.549828
C42	C	1.636282	0.131430	0.450350
C43	C	1.486918	0.044727	0.450335
C44	C	1.603976	0.060527	0.549709
H45	H	1.091846	0.185439	0.225745
O46	O	1.584036	0.257917	0.601916
C47	C	1.494581	0.315772	0.551306
H48	H	1.400985	0.287212	0.523409
H49	H	1.477356	0.361685	0.642315
H50	H	1.533066	0.345204	0.447274
H51	H	0.946688	0.045612	-0.225643
O52	O	1.097986	0.191516	-0.246031
C53	C	1.057788	0.151744	-0.374627
H54	H	0.971802	0.115631	-0.346121
H55	H	1.030258	0.196333	-0.464946
H56	H	1.138795	0.111111	-0.416800
O57	O	1.349501	0.226181	0.398204
C58	C	1.413743	0.280460	0.309585
H59	H	1.506362	0.251801	0.265926
H60	H	1.350592	0.299428	0.211546
H61	H	1.436220	0.334043	0.379622
O62	O	0.916990	0.263565	0.000172
C63	C	0.841778	0.275079	0.129230
H64	H	0.875090	0.231614	0.219062
H65	H	0.851875	0.337584	0.171797
H66	H	0.737555	0.265350	0.101191
H67	H	1.669740	-0.381786	0.000040
H68	H	1.113334	-0.020359	-0.000069
H69	H	0.946731	0.045631	0.225757
O70	O	1.754221	0.147643	0.398422
C71	C	1.746206	0.216427	0.310961
H72	H	1.657580	0.253152	0.344032
H73	H	1.834710	0.251923	0.330058
H74	H	1.739848	0.199826	0.188075
O75	O	1.454385	-0.026766	0.398317
C76	C	1.542501	-0.084845	0.451074
H77	H	1.590328	-0.062926	0.556546
H78	H	1.490444	-0.140732	0.477292
H79	H	1.617983	-0.097842	0.362046
H80	H	1.747544	-0.662765	0.000085
O81	O	1.728259	-0.132685	0.000040
C82	C	1.822618	-0.193862	0.000077
H83	H	1.780824	-0.249495	-0.046890
H84	H	1.906473	-0.176350	-0.071947
H85	H	1.856860	-0.205210	0.119093
O86	O	1.705928	-0.293530	0.000289
C87	C	1.706332	-0.341250	0.128780
H88	H	1.604578	-0.345944	0.171606
H89	H	1.747213	-0.402313	0.099875
H90	H	1.767532	-0.314084	0.218759
H91	H	1.767918	-0.514697	0.000094
H92	H	1.329333	-0.631286	0.000062
O93	O	1.689633	0.005087	0.601340
C94	C	1.812724	0.022042	0.550345
H95	H	1.816146	0.087223	0.522604
H96	H	1.885638	0.006704	0.641062
H97	H	1.835922	-0.014092	0.446139
O98	O	1.332346	-0.475561	0.000113
C99	C	1.223263	-0.521429	0.000076
H100	H	1.249055	-0.582149	0.047037
H101	H	1.145895	-0.491786	0.072103
H102	H	1.186631	-0.527441	-0.118940
H103	H	1.270594	-0.254202	0.000038
H104	H	1.290957	-0.106132	0.000054
O105	O	1.349837	-0.392253	-0.000138
C106	C	1.336445	-0.438926	-0.128643
H107	H	1.434836	-0.458673	-0.171481
H108	H	1.279784	-0.492652	-0.099751
H109	H	1.283887	-0.403194	-0.218607
O110	O	1.284270	0.083737	0.601703
C111	C	1.201169	0.073281	0.480309
H112	H	1.259119	0.055990	0.377059
H113	H	1.132742	0.024934	0.507850
H114	H	1.144450	0.130461	0.457857
