data_functionalizedCrystal
_audit_creation_method	'MofGen! by Chris Wilmer'
_symmetry_space_group_name_H-M	'P1'
_symmetry_Int_Tables_number	1
_symmetry_cell_setting	triclinic
loop_
_symmetry_equiv_pos_as_xyz
  x,y,z
_cell_length_a	13.033291
_cell_length_b	13.032721
_cell_length_c	13.032268
_cell_angle_alpha	76.710373
_cell_angle_beta	90.920764
_cell_angle_gamma	105.184202
loop_
_atom_site_label
_atom_site_type_symbol
_atom_site_fract_x
_atom_site_fract_y
_atom_site_fract_z
Zn1	Zn	1.451144	-0.335773	0.818085
Zn2	Zn	1.951144	0.164227	1.318085
Zn3	Zn	1.451030	-0.490870	0.663020
Zn4	Zn	1.951030	0.009130	1.163020
Zn5	Zn	1.301807	-0.330074	0.623640
Zn6	Zn	1.801807	0.169926	1.123640
Zn7	Zn	1.250940	-0.535862	0.817965
Zn8	Zn	1.750940	-0.035862	1.317965
O9	O	1.363731	-0.423145	0.730678
O10	O	1.863731	0.076855	1.230678
O11	O	1.597365	-0.339903	0.814047
O12	O	2.097365	0.160097	1.314047
O13	O	1.452476	-0.448326	0.511575
O14	O	1.952476	0.051674	1.011575
O15	O	1.342953	-0.179798	0.633003
O16	O	1.842953	0.320202	1.133003
O17	O	1.597281	-0.453852	0.700121
O18	O	2.097281	0.046148	1.200121
O19	O	1.452670	-0.183985	0.775861
O20	O	1.952670	0.316015	1.275861
O21	O	1.342843	-0.330190	0.482642
O22	O	1.842843	0.169810	0.982642
O23	O	1.148824	-0.373816	0.632886
O24	O	1.648824	0.126184	1.132886
O25	O	1.256257	-0.530534	0.964202
O26	O	1.756257	-0.030534	1.464202
O27	O	1.111452	-0.525007	0.775656
O28	O	1.611452	-0.025007	1.275656
O29	O	1.403346	-0.383529	0.964290
O30	O	1.903346	0.116471	1.464290
O31	O	1.403152	-0.647870	0.700004
O32	O	1.903152	-0.147870	1.200004
O33	O	1.256147	-0.680925	0.813842
O34	O	1.756147	-0.180925	1.313842
C35	C	1.092220	-0.453676	0.699986
C36	C	1.592220	0.046324	1.199986
C37	C	0.976060	-0.466768	0.686883
C38	C	1.476060	0.033232	1.186883
C39	C	0.804229	-0.429861	0.723984
C40	C	1.304229	0.070139	1.223984
C41	C	0.924287	-0.416333	0.737526
C42	C	1.424287	0.083667	1.237526
C43	C	1.324142	-0.703558	0.761209
C44	C	1.824142	-0.203558	1.261209
C45	C	1.307297	-0.823515	0.774317
C46	C	1.807297	-0.323515	1.274317
C47	C	1.372571	-0.860606	0.723890
C48	C	1.872571	-0.360606	1.223890
C49	C	1.355162	-0.984587	0.737436
C50	C	1.855162	-0.484587	1.237436
C51	C	1.636301	-0.392495	0.761490
C52	C	2.136301	0.107505	1.261490
C53	C	1.752454	-0.379433	0.774620
C54	C	2.252454	0.120567	1.274620
C55	C	1.324141	-0.462686	1.003220
C56	C	1.824141	0.037314	1.503220
C57	C	1.307270	-0.479536	1.119361
C58	C	1.807270	0.020464	1.619361
C59	C	1.403498	-0.141636	0.700052
C60	C	1.903498	0.358364	1.200052
C61	C	1.420445	-0.021674	0.687002
C62	C	1.920445	0.478326	1.187002
C63	C	1.403238	-0.383673	0.459194
C64	C	1.903238	0.116327	0.959194
C65	C	1.420354	-0.366496	0.343043
C66	C	1.920354	0.133504	0.843043
C67	C	1.372525	-0.414313	1.171184
C68	C	1.872525	0.085687	1.671184
C69	C	1.355089	-0.431727	1.291222
C70	C	1.855089	0.068273	1.791222
H71	H	0.931509	-0.519960	0.633503
H72	H	1.431509	-0.019960	1.133503
H73	H	0.968840	-0.363136	0.790901
H74	H	1.468840	0.136864	1.290901
C75	C	1.214363	-0.572392	1.179468
C76	C	1.714363	-0.072392	1.679468
H77	H	1.214838	-0.571921	1.252264
H78	H	1.714838	-0.071921	1.752264
H79	H	1.148949	-0.561932	1.151981
H80	H	1.648949	-0.061932	1.651981
H81	H	1.221997	-0.640621	1.171253
H82	H	1.721997	-0.140621	1.671253
H83	H	1.441347	-0.800577	0.670693
H84	H	1.941347	-0.300577	1.170693
H85	H	1.286389	-1.044616	0.790645
H86	H	1.786389	-0.544616	1.290645
C87	C	1.513339	-0.940591	0.615101
C88	C	2.013339	-0.440591	1.115101
H89	H	1.512843	-0.867898	0.615411
H90	H	2.012843	-0.367898	1.115411
H91	H	1.578765	-0.953251	0.640353
H92	H	2.078765	-0.453251	1.140353
H93	H	1.505696	-0.950590	0.545165
H94	H	2.005696	-0.450590	1.045165
C95	C	0.812634	-0.307583	0.846732
C96	C	1.312634	0.192417	1.346732
H97	H	0.885430	-0.307924	0.846380
H98	H	1.385430	0.192076	1.346380
H99	H	0.807232	-0.234837	0.821664
H100	H	1.307232	0.265163	1.321664
H101	H	0.782371	-0.335679	0.916654
H102	H	1.282371	0.164321	1.416654
H103	H	1.441297	-0.345579	1.126683
H104	H	1.941297	0.154421	1.626683
C105	C	1.214390	-0.904602	0.846189
C106	C	1.714390	-0.404602	1.346189
H107	H	1.214874	-0.977294	0.845859
H108	H	1.714874	-0.477294	1.345859
H109	H	1.221998	-0.894618	0.916127
H110	H	1.721998	-0.394618	1.416127
H111	H	1.148973	-0.891928	0.820905
H112	H	1.648973	-0.391928	1.320905
H113	H	1.286304	-0.500457	1.335717
H114	H	1.786304	-0.000457	1.835717
C115	C	1.513270	-0.273638	1.282943
C116	C	2.013270	0.226362	1.782943
H117	H	1.512806	-0.274117	1.210150
H118	H	2.012806	0.225883	1.710150
H119	H	1.505651	-0.205411	1.291162
H120	H	2.005651	0.294589	1.791162
H121	H	1.578683	-0.284115	1.310434
H122	H	2.078683	0.215885	1.810434
H123	H	0.759675	-0.483044	0.670603
H124	H	1.259675	0.016956	1.170603
