data_functionalizedCrystal
_audit_creation_method	'MofGen! by Chris Wilmer'
_symmetry_space_group_name_H-M	'P1'
_symmetry_Int_Tables_number	1
_symmetry_cell_setting	triclinic
loop_
_symmetry_equiv_pos_as_xyz
  x,y,z
_cell_length_a	12.759401
_cell_length_b	12.827892
_cell_length_c	12.759393
_cell_angle_alpha	90.029972
_cell_angle_beta	90.020938
_cell_angle_gamma	90.016726
loop_
_atom_site_label
_atom_site_type_symbol
_atom_site_fract_x
_atom_site_fract_y
_atom_site_fract_z
Zn1	Zn	1.606263	-0.415940	0.594024
Zn2	Zn	1.606152	-0.590717	0.418346
Zn3	Zn	1.430561	-0.415996	0.418359
Zn4	Zn	1.430552	-0.590644	0.593983
O5	O	1.518382	-0.503324	0.506178
O6	O	1.753269	-0.439132	0.570731
O7	O	1.582818	-0.567594	0.271326
O8	O	1.453919	-0.269752	0.441684
O9	O	1.753188	-0.567540	0.441661
O10	O	1.583006	-0.269711	0.570744
O11	O	1.453812	-0.439227	0.271336
O12	O	1.283539	-0.439156	0.441644
O13	O	1.453902	-0.567416	0.741009
O14	O	1.283532	-0.567469	0.570674
O15	O	1.582996	-0.439061	0.741040
O16	O	1.582808	-0.736944	0.441622
O17	O	1.453795	-0.736890	0.570661
C18	C	1.245415	-0.503312	0.506157
C19	C	1.128638	-0.503331	0.506173
C20	C	1.518317	-0.774834	0.506158
C21	C	1.518386	-0.890987	0.506185
C22	C	1.073800	-0.570246	0.573253
C23	C	0.964076	-0.570250	0.573274
C24	C	0.964038	-0.436422	0.439125
C25	C	1.073760	-0.436413	0.439111
C26	C	0.814179	-0.607747	0.697135
C27	C	0.759338	-0.674678	0.764206
C28	C	0.794934	-0.776661	0.780155
C29	C	0.885371	-0.811735	0.729017
C30	C	0.940208	-0.744809	0.661938
C31	C	0.904612	-0.642811	0.646010
C32	C	1.223658	-0.398927	0.315248
C33	C	1.278496	-0.332006	0.248164
C34	C	1.242902	-0.230021	0.232204
C35	C	1.152461	-0.194951	0.283323
C36	C	1.097623	-0.261872	0.350408
C37	C	1.133225	-0.363856	0.366369
C38	C	1.582370	-1.062808	0.442432
C39	C	1.582301	-0.942758	0.442403
C40	C	1.792415	-0.503338	0.506199
C41	C	1.909192	-0.503344	0.506209
C42	C	1.518461	-0.503224	0.780211
C43	C	1.518494	-0.503181	0.896988
C44	C	1.518476	-0.230754	0.506220
C45	C	1.518516	-0.114601	0.506239
C46	C	1.518364	-0.503349	0.233211
C47	C	1.518534	-0.503097	0.116434
C48	C	1.585718	-0.436336	0.951867
C49	C	1.585736	-0.436291	1.061592
C50	C	1.451303	-0.569945	1.061547
C51	C	1.451280	-0.569984	0.951825
C52	C	1.623349	-0.312997	1.211569
C53	C	1.690590	-0.246161	1.266452
C54	C	1.793103	-0.230136	1.230860
C55	C	1.828396	-0.280963	1.140387
C56	C	1.761161	-0.347806	1.085510
C57	C	1.658633	-0.363811	1.121100
C58	C	1.413678	-0.693280	0.801846
C59	C	1.346447	-0.760130	0.746967
C60	C	1.243933	-0.776165	0.782556
C61	C	1.208643	-0.725357	0.873033
C62	C	1.275874	-0.658507	0.927912
C63	C	1.378387	-0.642470	0.892315
H64	H	1.013839	-0.773365	0.620303
N65	N	1.446025	-1.055615	0.578565
H66	H	1.488709	-1.010253	0.627238
H67	H	1.403433	-1.106735	0.621080
H68	H	1.636974	-0.898219	0.387780
N69	N	1.654842	-1.121798	0.370091
H70	H	1.703491	-1.167015	0.412879
H71	H	1.697377	-1.070682	0.327514
H72	H	1.189198	-0.830609	0.737869
H73	H	1.911876	-0.267917	1.111421
H74	H	1.463719	-0.935521	0.560819
H75	H	0.914341	-0.894784	0.741999
H76	H	1.640445	-0.381938	0.907222
N77	N	1.799212	-0.402628	0.987937
H78	H	1.874362	-0.382340	0.973717
H79	H	1.754017	-0.381699	0.926455
H80	H	1.847851	-0.175716	1.275554
H81	H	1.118479	-0.624732	0.627862
H82	H	1.661845	-0.204778	1.340115
H83	H	1.539873	-0.326030	1.240551
N84	N	1.378795	-0.641978	1.120693
H85	H	1.389004	-0.631808	1.198530
H86	H	1.395097	-0.716626	1.101513
H87	H	1.247133	-0.617137	1.001583
N88	N	1.098076	-0.742651	0.911432
H89	H	1.060840	-0.792707	0.862937
H90	H	1.059428	-0.673963	0.912587
H91	H	0.919343	-0.381941	0.384524
N92	N	1.384509	-0.814945	0.649389
H93	H	1.459653	-0.794640	0.635163
H94	H	1.339306	-0.794031	0.587907
H95	H	1.497152	-0.680222	0.772855
H96	H	0.750275	-0.831157	0.834767
H97	H	0.785195	-0.524701	0.684166
N98	N	0.661797	-0.636856	0.819359
H99	H	0.647571	-0.562087	0.799089
H100	H	0.672303	-0.641501	0.897675
H101	H	1.023987	-0.233307	0.392039
H102	H	1.287556	-0.175538	0.177569
N103	N	1.114055	-0.084955	0.266110
H104	H	1.162518	-0.047882	0.215858
H105	H	1.112948	-0.046571	0.335230
H106	H	1.252655	-0.481969	0.328247
N107	N	1.376042	-0.369828	0.193021
H108	H	1.390278	-0.444588	0.213316
H109	H	1.437535	-0.324887	0.214142
