data_functionalizedCrystal
_audit_creation_method	'MofGen! by Chris Wilmer'
_symmetry_space_group_name_H-M	'P1'
_symmetry_Int_Tables_number	1
_symmetry_cell_setting	triclinic
loop_
_symmetry_equiv_pos_as_xyz
  x,y,z
_cell_length_a	16.974885
_cell_length_b	14.853559
_cell_length_c	16.053802
_cell_angle_alpha	92.571272
_cell_angle_beta	91.069328
_cell_angle_gamma	83.511792
loop_
_atom_site_label
_atom_site_type_symbol
_atom_site_fract_x
_atom_site_fract_y
_atom_site_fract_z
O1	O	1.049190	0.114949	0.001401
O2	O	0.819746	0.128744	-0.014089
O3	O	0.940600	-0.009378	-0.005930
O4	O	0.928336	0.253070	-0.006759
O5	O	0.933948	-0.001807	0.132480
O6	O	0.813093	0.136315	0.124320
O7	O	1.042538	0.122520	0.139810
Zn8	Zn	0.926760	0.130619	0.154041
Zn9	Zn	0.935524	0.120644	-0.028320
O10	O	0.921683	0.260642	0.131651
C11	C	0.787056	0.131865	0.053133
C12	C	0.699562	0.129875	0.047226
C13	C	0.207459	0.118196	0.005821
C14	C	0.289669	0.120067	0.011382
C15	C	0.327138	0.125136	0.089611
C16	C	0.282395	0.128325	0.162283
C17	C	0.200188	0.126448	0.156721
C18	C	0.572612	0.131187	0.114336
C19	C	0.654825	0.133067	0.119893
C20	C	0.662092	0.124806	-0.031008
C21	C	0.579883	0.122935	-0.036564
C22	C	0.535148	0.126120	0.036108
N23	N	0.411169	0.127051	0.095297
N24	N	0.451119	0.124198	0.030421
C25	C	0.936720	-0.039182	0.063236
C26	C	0.935058	-0.139268	0.063120
C27	C	0.931635	-0.566577	-0.012804
C28	C	0.924382	-0.558317	0.138096
C29	C	0.925950	-0.464282	0.138203
C30	C	0.930359	-0.421390	0.062805
C31	C	0.933201	-0.472533	-0.012700
C32	C	0.923101	-0.413131	0.213705
C33	C	0.924668	-0.319090	0.213815
C34	C	0.929083	-0.276198	0.138416
C35	C	0.931925	-0.327347	0.062909
C36	C	0.936334	-0.284455	-0.012489
C37	C	0.939182	-0.335603	-0.087997
C38	C	0.937615	-0.429640	-0.088098
C39	C	0.930649	-0.182160	0.138517
C40	C	0.937900	-0.190411	-0.012385
C41	C	1.075228	0.119398	0.072586
C42	C	1.162722	0.121388	0.078487
C43	C	0.925564	0.290445	0.062483
C44	C	0.927226	0.390531	0.062594
N45	N	0.920784	0.137427	0.278498
N46	N	0.941506	0.113830	-0.152776
C47	C	0.972226	0.078677	0.325665
C48	C	0.968054	0.083447	0.412790
C49	C	0.912441	0.146973	0.452746
C50	C	0.860993	0.205725	0.405573
C51	C	0.865163	0.200950	0.318449
C52	C	0.894228	0.167807	0.712926
C53	C	0.890064	0.172580	0.800056
C54	C	0.997123	0.050300	0.807268
C55	C	1.001291	0.045534	0.720142
C56	C	0.949840	0.104283	0.672976
N57	N	0.908176	0.151852	0.541802
N58	N	0.954102	0.099398	0.583922
H59	H	0.698525	0.122213	-0.090174
H60	H	0.941494	-0.155496	-0.073783
F61	F	0.525010	0.134595	0.191681
H62	H	0.919507	-0.448061	0.275089
H63	H	1.017515	0.026952	0.293139
H64	H	0.922352	-0.277454	0.275298
H65	H	0.928312	-0.140517	0.199993
F66	F	0.810408	0.263478	0.268251
F67	F	0.943876	-0.289943	-0.168238
H68	H	1.009942	0.035608	0.451193
F69	F	0.801802	0.273331	0.448098
F70	F	1.060480	-0.022076	0.677619
H71	H	0.685329	0.137201	0.183599
F72	F	0.152577	0.129839	0.234063
H73	H	1.039011	0.002468	0.845678
F74	F	0.540011	0.117541	-0.119825
H75	H	0.844775	0.224313	0.832584
H76	H	0.852336	0.215644	0.674530
F77	F	0.337279	0.116666	-0.065960
F78	F	0.919678	-0.603967	0.218334
F79	F	0.940649	-0.484082	-0.168451
H80	H	0.176957	0.114075	-0.057881
F81	F	0.322276	0.133718	0.245540
H82	H	0.933957	-0.608226	-0.074280
