data_functionalizedCrystal
_audit_creation_method	'MofGen! by Chris Wilmer'
_symmetry_space_group_name_H-M	'P1'
_symmetry_Int_Tables_number	1
_symmetry_cell_setting	triclinic
loop_
_symmetry_equiv_pos_as_xyz
  x,y,z
_cell_length_a	19.121063
_cell_length_b	12.759401
_cell_length_c	12.759393
_cell_angle_alpha	90.017380
_cell_angle_beta	92.402665
_cell_angle_gamma	87.530983
loop_
_atom_site_label
_atom_site_type_symbol
_atom_site_fract_x
_atom_site_fract_y
_atom_site_fract_z
Zn1	Zn	-0.279567	-1.588309	-0.611771
Zn2	Zn	-0.397036	-1.580672	-0.443566
Zn3	Zn	-0.279604	-1.412612	-0.436113
Zn4	Zn	-0.396981	-1.405068	-0.619204
O5	O	-0.338297	-1.496665	-0.527664
O6	O	-0.295157	-1.734317	-0.589467
O7	O	-0.381497	-1.558339	-0.295559
O8	O	-0.181315	-1.442273	-0.453184
O9	O	-0.381461	-1.728705	-0.465888
O10	O	-0.181288	-1.571357	-0.582240
O11	O	-0.295220	-1.434867	-0.290083
O12	O	-0.295167	-1.264591	-0.460392
O13	O	-0.381368	-1.429414	-0.765237
O14	O	-0.381404	-1.259048	-0.594908
O15	O	-0.295104	-1.564041	-0.759776
O16	O	-0.495313	-1.551023	-0.473095
O17	O	-0.495273	-1.422008	-0.602136
C18	C	-0.338284	-1.223699	-0.527649
C19	C	-0.338295	-1.106921	-0.527668
C20	C	-0.520777	-1.484897	-0.539254
C21	C	-0.598842	-1.479958	-0.544247
C22	C	-0.338226	-1.496738	-0.801693
C23	C	-0.338195	-1.496769	-0.918468
C24	C	-0.635515	-1.544862	-0.479464
C25	C	-0.708866	-1.540223	-0.484167
C26	C	-0.745543	-1.470675	-0.553647
C27	C	-0.708865	-1.405769	-0.618437
C28	C	-0.635515	-1.410414	-0.613740
C29	C	-0.967011	-1.453294	-0.571195
C30	C	-1.040366	-1.448652	-0.575886
C31	C	-1.040362	-1.583108	-0.441616
C32	C	-0.967011	-1.587742	-0.436920
C33	C	-0.930340	-1.522840	-0.501714
C34	C	-0.820519	-1.465930	-0.558453
C35	C	-0.855365	-1.527591	-0.496912
C36	C	-0.155105	-1.508508	-0.516052
C37	C	-0.077039	-1.513555	-0.511103
C38	C	-0.338311	-1.770698	-0.527680
C39	C	-0.338316	-1.887474	-0.527686
C40	C	-0.383271	-1.049196	-0.597604
C41	C	-0.383280	-0.939471	-0.597616
C42	C	-0.293336	-0.945207	-0.457747
C43	C	-0.293324	-1.054930	-0.457741
C44	C	-0.428242	-1.101187	-0.667532
C45	C	-0.473222	-1.043462	-0.737473
C46	C	-0.473231	-0.933737	-0.737485
C47	C	-0.428260	-0.881738	-0.667556
C48	C	-0.293262	-1.432506	-0.970484
C49	C	-0.293242	-1.432539	-1.080207
C50	C	-0.383088	-1.561107	-1.085887
C51	C	-0.383112	-1.561068	-0.976167
C52	C	-0.248346	-1.368207	-0.912784
C53	C	-0.203409	-1.303940	-0.964800
C54	C	-0.203388	-1.303973	-1.074523
C55	C	-0.248304	-1.368274	-1.132230
C56	C	-0.338318	-1.496656	-0.254698
C57	C	-0.338150	-1.496842	-0.137911
H58	H	-0.605658	-1.601490	-0.422881
N59	N	-0.157481	-1.238328	-1.127638
N60	N	-0.092676	-1.249492	-1.111277
H61	H	-0.060249	-1.203130	-1.148786
H62	H	-0.738722	-1.593074	-0.431413
N63	N	-0.817893	-1.598614	-0.425937
N64	N	-0.777019	-1.564259	-0.356349
H65	H	-0.750549	-1.614415	-0.306218
H66	H	-0.248356	-1.368175	-0.823442
H67	H	-0.937151	-1.644373	-0.380343
N68	N	-0.247396	-0.892096	-0.386330
N69	N	-0.202677	-0.833759	-0.420571
H70	H	-0.170231	-0.796249	-0.370130
N71	N	-0.157533	-1.238276	-0.905841
N72	N	-0.112794	-1.278122	-0.841786
H73	H	-0.080393	-1.231746	-0.800144
H74	H	-0.428265	-0.792393	-0.667580
H75	H	-0.256696	-1.101932	-0.400800
H76	H	-0.428241	-1.190530	-0.667528
H77	H	-1.070228	-1.635949	-0.388866
H78	H	-1.070226	-1.392030	-0.632484
H79	H	-0.248285	-1.368293	-1.221574
N80	N	-0.428962	-1.626776	-1.144846
N81	N	-0.428934	-1.626801	-1.242809
H82	H	-0.461332	-1.673183	-1.284450
N83	N	-0.519144	-1.096589	-0.808903
N84	N	-0.519130	-1.194555	-0.808886
H85	H	-0.551563	-1.232076	-0.859336
H86	H	-0.605657	-1.357564	-0.666494
H87	H	-0.419690	-1.613411	-0.933814
N88	N	-0.929569	-1.386993	-0.637385
N89	N	-0.962327	-1.324900	-0.699412
H90	H	-0.935882	-1.278071	-0.746162
N91	N	-0.746338	-1.334742	-0.689415
N92	N	-0.811828	-1.330604	-0.693602
H93	H	-0.838293	-1.280439	-0.743730
H94	H	-0.850390	-1.409302	-0.615023
H95	H	-0.509850	-0.886740	-0.794441
