data_functionalizedCrystal
_audit_creation_method	'MofGen! by Chris Wilmer'
_symmetry_space_group_name_H-M	'P1'
_symmetry_Int_Tables_number	1
_symmetry_cell_setting	triclinic
loop_
_symmetry_equiv_pos_as_xyz
  x,y,z
_cell_length_a	26.374263
_cell_length_b	26.373608
_cell_length_c	26.370205
_cell_angle_alpha	60.005297
_cell_angle_beta	60.010839
_cell_angle_gamma	59.993700
loop_
_atom_site_label
_atom_site_type_symbol
_atom_site_fract_x
_atom_site_fract_y
_atom_site_fract_z
O1	O	0.070152	-0.740800	0.619517
O2	O	0.570152	-0.240800	1.119517
O3	O	0.026377	-0.576764	0.499159
O4	O	0.526377	-0.076764	0.999159
O5	O	0.130245	-0.680560	0.499088
O6	O	0.630245	-0.180560	0.999088
O7	O	-0.033715	-0.637003	0.619589
O8	O	0.466285	-0.137003	1.119589
O9	O	0.164701	-0.646107	0.533470
O10	O	0.664701	-0.146107	1.033470
O11	O	0.060833	-0.542310	0.533541
O12	O	0.560833	-0.042310	1.033541
O13	O	0.104608	-0.706346	0.653899
O14	O	0.604608	-0.206346	1.153899
Cu15	Cu	0.085867	-0.621182	0.596859
Cu16	Cu	0.585867	-0.121182	1.096859
Cu17	Cu	0.045119	-0.661927	0.556199
Cu18	Cu	0.545119	-0.161927	1.056199
O19	O	0.000741	-0.602549	0.653971
O20	O	0.500741	-0.102549	1.153971
N21	N	0.114528	-0.592529	0.625461
N22	N	0.614528	-0.092529	1.125461
N23	N	0.016463	-0.690587	0.527598
N24	N	0.516463	-0.190587	1.027598
C25	C	0.181428	-0.355400	0.692330
C26	C	0.681428	0.144600	1.192330
C27	C	0.181530	-0.525690	0.862573
C28	C	0.681530	-0.025690	1.362573
C29	C	0.181440	-0.525667	0.692313
C30	C	0.681440	-0.025667	1.192313
C31	C	0.351736	-0.525673	0.692271
C32	C	0.851736	-0.025673	1.192271
C33	C	0.200174	-0.411588	0.711047
C34	C	0.700174	0.088412	1.211047
C35	C	0.200232	-0.506954	0.806384
C36	C	0.700232	-0.006954	1.306384
C37	C	0.295546	-0.506943	0.711016
C38	C	0.795546	-0.006943	1.211016
C39	C	0.200182	-0.506940	0.711037
C40	C	0.700182	-0.006940	1.211037
C41	C	0.157567	-0.283881	0.668507
C42	C	0.657567	0.216119	1.168507
C43	C	0.157587	-0.549500	0.668479
C44	C	0.657587	-0.049500	1.168479
C45	C	0.224035	-0.483107	0.734871
C46	C	0.724035	0.016893	1.234871
C47	C	0.455739	-0.507754	0.637520
C48	C	0.955739	-0.007754	1.137520
C49	C	0.520749	-0.529425	0.615835
C50	C	1.020749	-0.029425	1.115835
C51	C	0.520768	-0.634611	0.655947
C52	C	1.020768	-0.134611	1.155947
C53	C	0.455759	-0.612939	0.677633
C54	C	0.955759	-0.112939	1.177633
C55	C	0.173240	-0.251367	0.604595
C56	C	0.673240	0.248633	1.104595
C57	C	0.151546	-0.186351	0.582941
C58	C	0.651546	0.313649	1.082941
C59	C	0.098512	-0.186369	0.689113
C60	C	0.598512	0.313631	1.189113
C61	C	0.120206	-0.251385	0.710768
C62	C	0.620206	0.248615	1.210768
C63	C	0.093669	-0.533798	0.684205
C64	C	0.593669	-0.033798	1.184205
C65	C	0.071992	-0.555464	0.662532
C66	C	0.571992	-0.055464	1.162532
C67	C	0.178144	-0.608536	0.609422
C68	C	0.678144	-0.108536	1.109422
C69	C	0.199825	-0.586869	0.631088
C70	C	0.699825	-0.086869	1.131088
C71	C	0.093821	-0.533842	0.966616
C72	C	0.593821	-0.033842	1.466616
C73	C	0.072187	-0.555526	1.031630
C74	C	0.572187	-0.055526	1.531630
C75	C	0.178370	-0.608608	1.031591
C76	C	0.678370	-0.108608	1.531591
C77	C	0.200004	-0.586926	0.966576
C78	C	0.700004	-0.086926	1.466576
C79	C	0.157728	-0.549541	0.934090
C80	C	0.657728	-0.049541	1.434090
C81	C	0.423247	-0.549509	0.668416
C82	C	0.923247	-0.049509	1.168416
C83	C	-0.097522	-0.709158	0.508557
C84	C	0.402478	-0.209158	1.008557
C85	C	-0.002050	-0.709295	0.413344
C86	C	0.497950	-0.209295	0.913344
C87	C	-0.002241	-0.804604	0.508735
C88	C	0.497759	-0.304604	1.008735
C89	C	-0.002225	-0.709288	0.508793
C90	C	0.497775	-0.209288	1.008793
C91	C	-0.026009	-0.733087	0.484858
C92	C	0.473991	-0.233087	0.984858
N93	N	0.552340	-0.592538	0.625346
N94	N	1.052340	-0.092538	1.125346
O95	O	0.750867	-0.598274	0.477076
O96	O	1.250867	-0.098274	0.977076
O97	O	0.751048	-0.718989	0.640960
O98	O	1.251048	-0.218989	1.140960
O99	O	0.750981	-0.718715	0.537020
O100	O	1.250981	-0.218715	1.037020
O101	O	0.750934	-0.598547	0.581017
O102	O	1.250934	-0.098547	1.081017
O103	O	0.647701	-0.684348	0.571512
O104	O	1.147701	-0.184348	1.071512
O105	O	0.647768	-0.684622	0.675452
O106	O	1.147768	-0.184622	1.175452
O107	O	0.647587	-0.563907	0.511569
O108	O	1.147587	-0.063907	1.011569
Cu109	Cu	0.638247	-0.621127	0.596660
Cu110	Cu	1.138247	-0.121127	1.096660
Cu111	Cu	0.760388	-0.661769	0.555869
Cu112	Cu	1.260388	-0.161769	1.055869
O113	O	0.647654	-0.564181	0.615509
O114	O	1.147654	-0.064181	1.115509
N115	N	0.846295	-0.690358	0.527176
N116	N	1.346295	-0.190358	1.027176
N117	N	0.114503	-0.154778	0.625499
N118	N	0.614503	0.345222	1.125499
O119	O	-0.033701	0.043855	0.619632
O120	O	0.466299	0.543855	1.119632
O121	O	0.130190	0.043858	0.498933
O122	O	0.630190	0.543858	0.998933
O123	O	0.026233	0.043841	0.499224
O124	O	0.526233	0.543841	0.999224
O125	O	0.070257	0.043872	0.619341
O126	O	0.570257	0.543872	1.119341
O127	O	0.060690	-0.059448	0.533654
O128	O	0.560690	0.440552	1.033654
O129	O	0.164647	-0.059431	0.533363
O130	O	0.664647	0.440569	1.033363
O131	O	0.000756	-0.059434	0.654062
O132	O	0.500756	0.440566	1.154062
Cu133	Cu	0.085848	-0.068863	0.596857
Cu134	Cu	0.585848	0.431137	1.096857
Cu135	Cu	0.045099	0.053287	0.556138
Cu136	Cu	0.545099	0.553287	1.056138
O137	O	0.104714	-0.059417	0.653771
O138	O	0.604714	0.440583	1.153771
N139	N	0.016435	0.139202	0.527497
N140	N	0.516435	0.639202	1.027497
N141	N	0.114760	-0.592585	1.063190
N142	N	0.614760	-0.092585	1.563190
O143	O	0.108896	-0.740779	1.261808
O144	O	0.608896	-0.240779	1.761808
O145	O	-0.011787	-0.576838	1.261822
O146	O	0.488213	-0.076838	1.761822
O147	O	-0.011509	-0.680779	1.261780
O148	O	0.488491	-0.180779	1.761780
O149	O	0.108618	-0.636838	1.261850
O150	O	0.608618	-0.136838	1.761850
O151	O	0.022916	-0.646341	1.158496
O152	O	0.522916	-0.146341	1.658496
O153	O	0.022638	-0.542399	1.158538
O154	O	0.522638	-0.042399	1.658538
O155	O	0.143321	-0.706341	1.158524
O156	O	0.643321	-0.206341	1.658524
Cu157	Cu	0.086123	-0.621225	1.149100
Cu158	Cu	0.586123	-0.121225	1.649100
Cu159	Cu	0.045411	-0.661953	1.271246
Cu160	Cu	0.545411	-0.161953	1.771246
O161	O	0.143044	-0.602399	1.158566
O162	O	0.643044	-0.102399	1.658566
N163	N	0.016774	-0.690600	1.357156
N164	N	0.516774	-0.190600	1.857156
C165	C	0.039504	-0.538867	0.499769
C166	C	0.539504	-0.038867	0.999769
C167	C	0.168130	-0.667407	0.499680
C168	C	0.668130	-0.167407	0.999680
C169	C	0.091482	-0.744243	0.653289
C170	C	0.591482	-0.244243	1.153289
C171	C	-0.037145	-0.615703	0.653378
C172	C	0.462855	-0.115703	1.153378
C173	C	0.699429	-0.718429	0.678853
C174	C	1.199429	-0.218429	1.178853
C175	C	0.699348	-0.718091	0.550135
C176	C	1.199348	-0.218091	1.050135
C177	C	0.699202	-0.564465	0.473677
C178	C	1.199202	-0.064465	0.973677
C179	C	0.699287	-0.564805	0.602393
C180	C	1.199287	-0.064805	1.102393
C181	C	0.168023	-0.007659	0.499484
C182	C	0.668023	0.492341	0.999484
C183	C	0.039327	-0.007807	0.499887
C184	C	0.539327	0.492193	0.999887
C185	C	-0.037119	-0.007789	0.653468
C186	C	0.462881	0.492211	1.153468
C187	C	0.091620	-0.007770	0.653109
C188	C	0.591620	0.492230	1.153109
C189	C	-0.011194	-0.538964	1.210181
C190	C	0.488806	-0.038964	1.710181
C191	C	-0.010843	-0.667676	1.210109
C192	C	0.489157	-0.167676	1.710109
C193	C	0.142729	-0.744214	1.210165
C194	C	0.642729	-0.244214	1.710165
C195	C	0.142386	-0.615494	1.210214
C196	C	0.642386	-0.115494	1.710214
H197	H	0.020147	-0.542732	1.058106
H198	H	0.520147	-0.042732	1.558106
H199	H	0.180620	-0.791296	1.210154
H200	H	0.680620	-0.291296	1.710154
H201	H	0.029900	-0.007810	0.462151
H202	H	0.529900	0.492190	0.962151
C203	C	0.230917	-0.679900	0.449243
C204	C	0.730917	-0.179900	0.949243
C205	C	0.241896	-0.729825	0.435056
C206	C	0.741896	-0.229825	0.935056
C207	C	0.299732	-0.741356	0.388603
C208	C	0.799732	-0.241356	0.888603
H209	H	0.231097	-0.644006	0.413107
H210	H	0.731097	-0.144006	0.913107
H211	H	0.262526	-0.689764	0.463500
H212	H	0.762526	-0.189764	0.963500
H213	H	0.210295	-0.719958	0.420798
H214	H	0.710295	-0.219958	0.920798
H215	H	0.241728	-0.765729	0.471179
H216	H	0.741728	-0.265729	0.971179
H217	H	0.331340	-0.751220	0.402859
H218	H	0.831340	-0.251220	0.902859
H219	H	0.299907	-0.705459	0.352470
H220	H	0.799907	-0.205459	0.852470
H221	H	0.307191	-0.775234	0.378975
H222	H	0.807191	-0.275234	0.878975
H223	H	0.699278	-0.527058	0.611808
H224	H	1.199278	-0.027058	1.111808
C225	C	0.269246	-0.603999	0.613965
C226	C	0.769246	-0.103999	1.113965
C227	C	0.301595	-0.641370	0.576589
C228	C	0.801595	-0.141370	1.076589
C229	C	0.365545	-0.657165	0.560806
C230	C	0.865545	-0.157165	1.060806
H231	H	0.279966	-0.567280	0.591878
H232	H	0.779966	-0.067280	1.091878
H233	H	0.279965	-0.626094	0.650703
H234	H	0.779965	-0.126094	1.150703
H235	H	0.290881	-0.619275	0.539857
H236	H	0.790881	-0.119275	1.039857
H237	H	0.290894	-0.678097	0.598663
H238	H	0.790894	-0.178097	1.098663
H239	H	0.376264	-0.679260	0.597544
H240	H	0.876264	-0.179260	1.097544
H241	H	0.376259	-0.620442	0.538721
H242	H	0.876259	-0.120442	1.038721
H243	H	0.387502	-0.682527	0.535450
H244	H	0.887502	-0.182527	1.035450
H245	H	0.101045	-0.007760	0.690842
H246	H	0.601045	0.492240	1.190842
C247	C	0.699400	-0.768519	0.537696
C248	C	1.199400	-0.268519	1.037696
C249	C	0.699482	-0.821726	0.590663
C250	C	1.199482	-0.321726	1.090663
C251	C	0.699538	-0.868196	0.579224
C252	C	1.199538	-0.368196	1.079224
H253	H	0.663378	-0.754276	0.527882
H254	H	1.163378	-0.254276	1.027882
H255	H	0.735415	-0.778202	0.503823
H256	H	1.235415	-0.278202	1.003823
H257	H	0.663470	-0.812044	0.624526
H258	H	1.163470	-0.312044	1.124526
H259	H	0.735501	-0.835988	0.600485
H260	H	1.235501	-0.335988	1.100485
H261	H	0.735553	-0.877878	0.545351
H262	H	1.235553	-0.377878	1.045351
H263	H	0.663515	-0.853946	0.569410
H264	H	1.163515	-0.353946	1.069410
H265	H	0.699599	-0.904303	0.615158
H266	H	1.199599	-0.404303	1.115158
C267	C	-0.099933	-0.007744	0.703904
C268	C	0.400067	0.492256	1.203904
C269	C	-0.138284	-0.007734	0.681651
C270	C	0.361716	0.492266	1.181651
C271	C	-0.196157	-0.007679	0.728090
C272	C	0.303843	0.492321	1.228090
H273	H	-0.094576	-0.043745	0.739229
H274	H	0.405424	0.456255	1.239229
H275	H	-0.118538	0.028297	0.715167
H276	H	0.381462	0.528297	1.215167
H277	H	-0.119683	-0.043772	0.670397
H278	H	0.380317	0.456228	1.170397
H279	H	-0.143659	0.028264	0.646332
H280	H	0.356341	0.528264	1.146332
H281	H	-0.214762	0.028363	0.739353
H282	H	0.285238	0.528363	1.239353
H283	H	-0.190794	-0.043680	0.763412
H284	H	0.309206	0.456320	1.263412
H285	H	-0.222187	-0.007666	0.712997
H286	H	0.277813	0.492334	1.212997
H287	H	0.180125	-0.606093	1.210228
H288	H	0.680125	-0.106093	1.710228
C289	C	0.699155	-0.514016	0.410872
C290	C	1.199155	-0.014016	0.910872
C291	C	0.699157	-0.536280	0.372534
C292	C	1.199157	-0.036280	0.872534
C293	C	0.699120	-0.489825	0.314672
C294	C	1.199120	0.010175	0.814672
H295	H	0.663129	-0.478713	0.416253
H296	H	1.163129	0.021287	0.916253
H297	H	0.735166	-0.502710	0.392241
H298	H	1.235166	-0.002710	0.892241
H299	H	0.663150	-0.547576	0.391161
H300	H	1.163150	-0.047576	0.891161
H301	H	0.735180	-0.571576	0.367135
H302	H	1.235180	-0.071576	0.867135
H303	H	0.735131	-0.478520	0.296041
H304	H	1.235131	0.021480	0.796041
H305	H	0.663093	-0.454526	0.320060
H306	H	1.163093	0.045474	0.820060
H307	H	0.699127	-0.504926	0.288651
H308	H	1.199127	-0.004926	0.788651
C309	C	0.047820	-0.493282	0.931461
C310	C	0.547820	0.006718	1.431461
C311	C	-0.012777	-0.484187	0.973864
C312	C	0.487223	0.015813	1.473864
C313	C	-0.055168	-0.446836	0.941502
C314	C	0.444832	0.053164	1.441502
H315	H	0.053969	-0.454278	0.906102
H316	H	0.553969	0.045722	1.406102
H317	H	0.054015	-0.513127	0.906111
H318	H	0.554015	-0.013127	1.406111
H319	H	-0.018970	-0.464341	0.999203
H320	H	0.481030	0.035659	1.499203
H321	H	-0.018946	-0.523179	0.999225
H322	H	0.481054	-0.023179	1.499225
H323	H	-0.048973	-0.466681	0.916151
H324	H	0.451027	0.033319	1.416151
H325	H	-0.049014	-0.407836	0.916143
H326	H	0.450986	0.092164	1.416143
H327	H	-0.096288	-0.440665	0.970266
H328	H	0.403712	0.059335	1.470266
C329	C	0.699595	-0.769053	0.741549
C330	C	1.199595	-0.269053	1.241549
C331	C	0.752749	-0.820972	0.733324
C332	C	1.252749	-0.320972	1.233324
C333	C	0.752920	-0.867621	0.791064
C334	C	1.252920	-0.367621	1.291064
H335	H	0.699633	-0.754139	0.767694
H336	H	1.199633	-0.254139	1.267694
H337	H	0.663616	-0.780402	0.760148
H338	H	1.163616	-0.280402	1.260148
H339	H	0.788719	-0.809624	0.714734
H340	H	1.288719	-0.309624	1.214734
H341	H	0.752722	-0.835904	0.707190
H342	H	1.252722	-0.335904	1.207190
H343	H	0.716942	-0.878970	0.809663
H344	H	1.216942	-0.378970	1.309663
H345	H	0.752957	-0.852701	0.817205
H346	H	1.252957	-0.352701	1.317205
H347	H	0.788982	-0.902856	0.785491
H348	H	1.288982	-0.402856	1.285491
H349	H	0.212798	-0.639038	1.058038
H350	H	0.712798	-0.139038	1.558038
H351	H	0.214995	-0.007372	0.461496
H352	H	0.714995	0.492628	0.961496
H353	H	0.100832	-0.791364	0.691090
H354	H	0.600832	-0.291364	1.191090
H355	H	-0.048566	-0.677061	1.210046
H356	H	0.451434	-0.177061	1.710046
C357	C	0.269416	-0.604013	0.931375
C358	C	0.769416	-0.104013	1.431375
C359	C	0.301805	-0.641375	0.973743
C360	C	0.801805	-0.141375	1.473743
C361	C	0.365748	-0.657119	0.941340
C362	C	0.865748	-0.157119	1.441340
H363	H	0.280152	-0.626099	0.906007
H364	H	0.780152	-0.126099	1.406007
H365	H	0.280086	-0.567257	0.906031
H366	H	0.780086	-0.067257	1.406031
H367	H	0.291140	-0.678124	0.999076
H368	H	0.791140	-0.178124	1.499076
H369	H	0.291088	-0.619301	0.999113
H370	H	0.791088	-0.119301	1.499113
H371	H	0.376417	-0.620364	0.915996
H372	H	0.876417	-0.120364	1.415996
H373	H	0.376477	-0.679203	0.915973
H374	H	0.876477	-0.179203	1.415973
H375	H	0.387732	-0.682466	0.970082
H376	H	0.887732	-0.182466	1.470082
C377	C	0.047713	-0.493203	0.724762
C378	C	0.547713	0.006797	1.224762
C379	C	-0.012903	-0.484072	0.733875
C380	C	0.487097	0.015928	1.233875
C381	C	-0.055255	-0.446672	0.771227
C382	C	0.444745	0.053328	1.271227
H383	H	0.053896	-0.513008	0.763759
H384	H	0.553896	-0.013008	1.263759
H385	H	0.053913	-0.454213	0.704915
H386	H	0.553913	0.045787	1.204915
H387	H	-0.019101	-0.523055	0.753723
H388	H	0.480899	-0.023055	1.253723
H389	H	-0.019106	-0.464260	0.694890
H390	H	0.480894	0.035740	1.194890
H391	H	-0.049055	-0.407682	0.751379
H392	H	0.450945	0.092318	1.251379
H393	H	-0.049066	-0.466481	0.810220
H394	H	0.450934	0.033519	1.310220
H395	H	-0.096387	-0.440468	0.777410
H396	H	0.403613	0.059532	1.277410
C397	C	-0.099904	-0.603252	0.703859
C398	C	0.400096	-0.103252	1.203859
C399	C	-0.110871	-0.553347	0.718069
C400	C	0.389129	-0.053347	1.218069
C401	C	-0.168674	-0.541865	0.764575
C402	C	0.331326	-0.041865	1.264575
H403	H	-0.131550	-0.593386	0.689661
H404	H	0.368450	-0.093386	1.189661
H405	H	-0.100024	-0.639182	0.739973
H406	H	0.399976	-0.139182	1.239973
H407	H	-0.110757	-0.517425	0.681962
H408	H	0.389243	-0.017425	1.181962
H409	H	-0.079240	-0.563199	0.732277
H410	H	0.420760	-0.063199	1.232277
H411	H	-0.168793	-0.577796	0.800689
H412	H	0.331207	-0.077796	1.300689
H413	H	-0.200315	-0.532002	0.750372
H414	H	0.299685	-0.032002	1.250372
H415	H	-0.176120	-0.508008	0.774227
H416	H	0.323880	-0.008008	1.274227
C417	C	0.223973	-0.649211	0.568922
C418	C	0.723973	-0.149211	1.068922
C419	C	0.214665	-0.706599	0.598308
C420	C	0.714665	-0.206599	1.098308
C421	C	0.256872	-0.744082	0.561018
C422	C	0.756872	-0.244082	1.061018
H423	H	0.217738	-0.629425	0.529954
H424	H	0.717738	-0.129425	1.029954
H425	H	0.265157	-0.655503	0.562671
H426	H	0.765157	-0.155503	1.062671
H427	H	0.173491	-0.700306	0.604552
H428	H	0.673491	-0.200306	1.104552
H429	H	0.220906	-0.726402	0.637274
H430	H	0.720906	-0.226402	1.137274
H431	H	0.298056	-0.750374	0.554766
H432	H	0.798056	-0.250374	1.054766
H433	H	0.250633	-0.724291	0.522051
H434	H	0.750633	-0.224291	1.022051
H435	H	0.250566	-0.783026	0.580953
H436	H	0.750566	-0.283026	1.080953
C437	C	0.420596	-0.658371	0.711136
C438	C	0.920596	-0.158371	1.211136
C439	C	0.462990	-0.718554	0.714546
C440	C	0.962990	-0.218554	1.214546
C441	C	0.430621	-0.760423	0.745397
C442	C	0.930621	-0.260423	1.245397
H443	H	0.395250	-0.656796	0.751892
H444	H	0.895250	-0.156796	1.251892
H445	H	0.395234	-0.647528	0.688987
H446	H	0.895234	-0.147528	1.188987
H447	H	0.488342	-0.729394	0.736696
H448	H	0.988342	-0.229394	1.236696
H449	H	0.488338	-0.720149	0.673800
H450	H	0.988338	-0.220149	1.173800
H451	H	0.405259	-0.749580	0.723248
H452	H	0.905259	-0.249580	1.223248
H453	H	0.405276	-0.758843	0.786150
H454	H	0.905276	-0.258843	1.286150
H455	H	0.459380	-0.801261	0.747710
H456	H	0.959380	-0.301261	1.247710
H457	H	-0.049082	-0.491880	1.210184
H458	H	0.450918	0.008120	1.710184
H459	H	0.547237	-0.686258	0.663446
H460	H	1.047237	-0.186258	1.163446
C461	C	0.555920	-0.483988	0.582273
C462	C	1.055920	0.016012	1.082273
C463	C	0.513534	-0.423797	0.578827
C464	C	1.013534	0.076203	1.078827
C465	C	0.545911	-0.381924	0.547903
C466	C	1.045911	0.118076	1.047903
H467	H	0.581301	-0.494782	0.604373
H468	H	1.081301	0.005218	1.104373
H469	H	0.581249	-0.485612	0.541523
H470	H	1.081249	0.014388	1.041523
H471	H	0.488216	-0.422174	0.619570
H472	H	0.988216	0.077826	1.119570
H473	H	0.488152	-0.412983	0.556722
H474	H	0.988152	0.087017	1.056722
H475	H	0.571240	-0.383549	0.507153
H476	H	1.071240	0.116451	1.007153
H477	H	0.571291	-0.392725	0.570006
H478	H	1.071291	0.107275	1.070006
H479	H	0.517158	-0.341080	0.545556
H480	H	1.017158	0.158920	1.045556
H481	H	0.429268	-0.456103	0.630015
H482	H	0.929268	0.043897	1.130015
C483	C	0.213768	-0.286535	0.558613
C484	C	0.713768	0.213465	1.058613
C485	C	0.222831	-0.244142	0.498004
C486	C	0.722831	0.255858	0.998004
C487	C	0.260156	-0.276519	0.455631
C488	C	0.760156	0.223481	0.955631
H489	H	0.252779	-0.311897	0.564761
H490	H	0.752779	0.188103	1.064761
H491	H	0.193920	-0.311885	0.564828
H492	H	0.693920	0.188115	1.064828
H493	H	0.242680	-0.218802	0.491791
H494	H	0.742680	0.281198	0.991791
H495	H	0.183832	-0.218778	0.491836
H496	H	0.683832	0.281222	0.991836
H497	H	0.240308	-0.301869	0.461846
H498	H	0.740308	0.198131	0.961846
H499	H	0.299164	-0.301880	0.461784
H500	H	0.799164	0.198120	0.961784
H501	H	0.266305	-0.247760	0.414503
H502	H	0.766305	0.252240	0.914503
H503	H	0.019945	-0.542665	0.675322
H504	H	0.519945	-0.042665	1.175322
H505	H	0.164306	-0.159876	0.530897
H506	H	0.664306	0.340124	1.030897
C507	C	0.057935	-0.151196	0.735094
C508	C	0.557935	0.348804	1.235094
C509	C	0.048849	-0.193589	0.795702
C510	C	0.548849	0.306411	1.295702
C511	C	0.011465	-0.161213	0.838076
C512	C	0.511465	0.338787	1.338076
H513	H	0.077732	-0.125829	0.728922
H514	H	0.577732	0.374171	1.228922
H515	H	0.018934	-0.125851	0.728902
H516	H	0.518934	0.374149	1.228902
H517	H	0.087842	-0.218924	0.801892
H518	H	0.587842	0.281076	1.301892
H519	H	0.029045	-0.218958	0.801893
H520	H	0.529045	0.281042	1.301893
H521	H	-0.027536	-0.135867	0.831884
H522	H	0.472464	0.364133	1.331884
H523	H	0.031266	-0.135847	0.831899
H524	H	0.531266	0.364153	1.331899
H525	H	0.005290	-0.189971	0.879203
H526	H	0.505290	0.310029	1.379203
H527	H	0.107441	-0.277854	0.762810
H528	H	0.607441	0.222146	1.262810
H529	H	0.030155	-0.491745	0.461969
H530	H	0.530155	0.008255	0.961969
