data_functionalizedCrystal
_audit_creation_method	'MofGen! by Chris Wilmer'
_symmetry_space_group_name_H-M	'P1'
_symmetry_Int_Tables_number	1
_symmetry_cell_setting	triclinic
loop_
_symmetry_equiv_pos_as_xyz
  x,y,z
_cell_length_a	14.908993
_cell_length_b	13.897447
_cell_length_c	14.908858
_cell_angle_alpha	86.673207
_cell_angle_beta	96.752355
_cell_angle_gamma	93.321013
loop_
_atom_site_label
_atom_site_type_symbol
_atom_site_fract_x
_atom_site_fract_y
_atom_site_fract_z
Zn1	Zn	1.354261	-0.273705	-0.432062
Zn2	Zn	1.362894	-0.443830	-0.280710
Zn3	Zn	1.211628	-0.291353	-0.289438
Zn4	Zn	1.202872	-0.443773	-0.440744
O5	O	1.282914	-0.363166	-0.360739
O6	O	1.482068	-0.288911	-0.404699
O7	O	1.350106	-0.431014	-0.155205
O8	O	1.230600	-0.154026	-0.308376
O9	O	1.488411	-0.413901	-0.293501
O10	O	1.335392	-0.141061	-0.413161
O11	O	1.238972	-0.318989	-0.161617
O12	O	1.083805	-0.318934	-0.316795
O13	O	1.215676	-0.413803	-0.566256
O14	O	1.077371	-0.430916	-0.427959
O15	O	1.326901	-0.288856	-0.559877
O16	O	1.341615	-0.578809	-0.301920
O17	O	1.224047	-0.578767	-0.419497
C18	C	1.047746	-0.376834	-0.374267
C19	C	0.947139	-0.382704	-0.380076
C20	C	0.764725	-0.276932	-0.275398
C21	C	0.670196	-0.282443	-0.280853
C22	C	0.663550	-0.399244	-0.396436
C23	C	0.758079	-0.393732	-0.390981
C24	C	0.808664	-0.332573	-0.330461
C25	C	0.903194	-0.327056	-0.325011
C26	C	0.896546	-0.443862	-0.440589
C27	C	0.802017	-0.449374	-0.446044
C28	C	1.282841	-0.613785	-0.360722
C29	C	1.282891	-0.720995	-0.360740
C30	C	1.282934	-0.808061	-0.360758
C31	C	1.282996	-0.917288	-0.360778
C32	C	1.519000	-0.349444	-0.347158
C33	C	1.619605	-0.343597	-0.341371
C34	C	1.269349	-0.349355	-0.596827
C35	C	1.263568	-0.343469	-0.697434
C36	C	1.283010	-0.111564	-0.360774
C37	C	1.283051	-0.004347	-0.360789
C38	C	1.197566	-0.276851	-0.842572
C39	C	1.202994	-0.282379	-0.748043
C40	C	1.318721	-0.399033	-0.741360
C41	C	1.313293	-0.393504	-0.835889
C42	C	1.252713	-0.332413	-0.886492
C43	C	1.247281	-0.326890	-0.981023
C44	C	1.363012	-0.443538	-0.974338
C45	C	1.368440	-0.449066	-0.879809
C46	C	1.296478	-0.376850	-0.125565
C47	C	1.302434	-0.382454	-0.024949
H48	H	0.634426	-0.237133	-0.236016
O49	O	1.138620	-0.217655	-0.891780
C50	C	1.077019	-0.272777	-0.949833
H51	H	1.073039	-0.350741	-0.921653
H52	H	1.100893	-0.270283	-1.019862
C53	C	0.987743	-0.135286	-0.991323
C54	C	0.982849	-0.231040	-0.956709
H55	H	0.929656	-0.109539	-0.995569
H56	H	1.029247	-0.098148	-0.952215
H57	H	1.007642	-0.133220	-1.049677
H58	H	0.962962	-0.233103	-0.898352
H59	H	0.941340	-0.268178	-0.995808
H60	H	1.417765	-0.498802	-0.838595
O61	O	1.188337	-0.267689	-1.030226
C62	C	1.126726	-0.322802	-1.088277
H63	H	1.122741	-0.400767	-1.060101
H64	H	1.150594	-0.320308	-1.158309
C65	C	1.037462	-0.185299	-1.129754
C66	C	1.032561	-0.281055	-1.095144
H67	H	0.979378	-0.159547	-1.133994
H68	H	1.078972	-0.148167	-1.090647
H69	H	1.057356	-0.183234	-1.188111
H70	H	1.012679	-0.283118	-1.036784
H71	H	0.991046	-0.318187	-1.134242
H72	H	1.407921	-0.488775	-1.010107
O73	O	1.149327	-0.228377	-0.705524
C74	C	1.094714	-0.173255	-0.770461
H75	H	1.087698	-0.209006	-0.838020
H76	H	1.127309	-0.097479	-0.778617
C77	C	1.009119	-0.123201	-0.656142
C78	C	1.000496	-0.167116	-0.739117
H79	H	0.951003	-0.119410	-0.636807
H80	H	1.045915	-0.160335	-0.612392
H81	H	1.036286	-0.060059	-0.662950
H82	H	0.973341	-0.230261	-0.732306
H83	H	0.963693	-0.129993	-0.782865
O84	O	1.377437	-0.458481	-0.692158
C85	C	1.329019	-0.526951	-0.640411
H86	H	1.256095	-0.535393	-0.673006
H87	H	1.330019	-0.501482	-0.568960
C88	C	1.462853	-0.614376	-0.596342
C89	C	1.373288	-0.624751	-0.636380
H90	H	1.490162	-0.674702	-0.593851
H91	H	1.495475	-0.568244	-0.631202
H92	H	1.463674	-0.593149	-0.536803
H93	H	1.372469	-0.645966	-0.695921
H94	H	1.340667	-0.670888	-0.601530
O95	O	0.813898	-0.217409	-0.216741
C96	C	0.865652	-0.148998	-0.265214
H97	H	0.833085	-0.140647	-0.338157
H98	H	0.937112	-0.174470	-0.264148
C99	C	0.909647	-0.061400	-0.131482
C100	C	0.869643	-0.051136	-0.221070
H101	H	0.912114	-0.001034	-0.104250
H102	H	0.874783	-0.107491	-0.098824
H103	H	0.969194	-0.082630	-0.130606
H104	H	0.810095	-0.029919	-0.221944
H105	H	0.904498	-0.005039	-0.253727
H106	H	0.944378	-0.277251	-0.275738
O107	O	0.752964	-0.508711	-0.504955
C108	C	0.770882	-0.481116	-0.593865
H109	H	0.839417	-0.439929	-0.591833
H110	H	0.715944	-0.432876	-0.627489
C111	C	0.687913	-0.622362	-0.650807
C112	C	0.772092	-0.571782	-0.648312
H113	H	0.688655	-0.678287	-0.684395
H114	H	0.675838	-0.640952	-0.590908
H115	H	0.642140	-0.582151	-0.678825
H116	H	0.817861	-0.611988	-0.620285
H117	H	0.784174	-0.553201	-0.708209
O118	O	0.939323	-0.497773	-0.494123
C119	C	0.990636	-0.436327	-0.549531
H120	H	1.006636	-0.364213	-0.516900
H121	H	0.950357	-0.424029	-0.618722
C122	C	1.059830	-0.571801	-0.600748
C123	C	1.079489	-0.483233	-0.560665
H124	H	1.114637	-0.600736	-0.607620
H125	H	1.025257	-0.613200	-0.563421
H126	H	1.026263	-0.561541	-0.658403
H127	H	1.113045	-0.493496	-0.503007
H128	H	1.114069	-0.441838	-0.597983
H129	H	0.622349	-0.449047	-0.445700
