data_functionalizedCrystal
_audit_creation_method	'MofGen! by Chris Wilmer'
_symmetry_space_group_name_H-M	'P1'
_symmetry_Int_Tables_number	1
_symmetry_cell_setting	triclinic
loop_
_symmetry_equiv_pos_as_xyz
  x,y,z
_cell_length_a	22.610064
_cell_length_b	27.732066
_cell_length_c	23.532357
_cell_angle_alpha	97.260802
_cell_angle_beta	90.016169
_cell_angle_gamma	90.015866
loop_
_atom_site_label
_atom_site_type_symbol
_atom_site_fract_x
_atom_site_fract_y
_atom_site_fract_z
O1	O	0.049072	-0.641006	0.067823
O2	O	0.049101	-0.500229	0.078117
O3	O	0.049073	-0.574875	-0.009973
O4	O	0.049099	-0.566360	0.155912
O5	O	-0.049296	-0.574887	-0.009988
O6	O	-0.049269	-0.500240	0.078102
O7	O	-0.049297	-0.641018	0.067808
Zn8	Zn	-0.064901	-0.570631	0.072953
Zn9	Zn	0.064705	-0.570616	0.072972
O10	O	-0.049270	-0.566371	0.155897
C11	C	-0.000081	-0.482227	0.077891
C12	C	-0.000070	-0.428572	0.077236
N13	N	-0.153353	-0.570644	0.072939
N14	N	0.153157	-0.570606	0.072982
C15	C	-0.000105	-0.051421	0.020717
C16	C	-0.000093	-0.253085	0.023130
O17	O	-0.000123	-0.284276	-0.020725
N18	N	-0.000083	-0.272284	0.075365
C19	C	-0.000079	-0.241065	0.127002
O20	O	-0.000076	-0.262023	0.171487
C21	C	-0.000095	-0.039402	0.124589
C22	C	-0.000099	-0.020206	0.072350
C23	C	-0.000110	-0.032224	-0.031517
C24	C	-0.000109	0.018189	-0.032120
C25	C	-0.000104	0.049405	0.019512
C26	C	-0.000099	0.030207	0.071747
C27	C	-0.000095	-0.008184	0.176224
C28	C	-0.000101	0.042234	0.175616
C29	C	-0.000105	0.061431	0.123377
C30	C	-0.000093	0.111836	0.122777
N31	N	-0.000103	0.131036	0.070541
C32	C	-0.000109	0.099820	0.018909
C33	C	-0.000070	-0.346941	0.128265
C34	C	-0.000065	-0.397356	0.128868
C35	C	-0.000080	-0.409373	0.024996
C36	C	-0.000081	-0.358956	0.024393
C37	C	-0.000080	-0.327741	0.076029
C38	C	-0.000108	0.205691	0.017648
C39	C	-0.000105	0.256109	0.017050
C40	C	-0.000093	0.268121	0.120921
C41	C	-0.000092	0.217707	0.121520
C42	C	-0.000102	0.186493	0.069878
O43	O	-0.000070	0.143056	0.166608
O44	O	-0.000125	0.120787	-0.025570
C45	C	-0.000105	-0.101834	0.021320
C46	C	-0.000100	-0.121031	0.073555
C47	C	-0.000095	-0.089816	0.125187
C48	C	-0.000095	-0.171447	0.074158
C49	C	-0.000100	-0.202662	0.022526
C50	C	-0.000111	-0.183462	-0.029710
C51	C	-0.000110	-0.133050	-0.030312
C52	C	-0.000084	-0.109016	0.177423
C53	C	-0.000084	-0.159429	0.178021
C54	C	-0.000089	-0.190645	0.126389
C55	C	0.561787	-0.603752	0.034031
C56	C	0.623706	-0.603756	0.034029
O57	O	0.655715	-0.631931	0.000935
N58	N	0.654694	-0.570641	0.072953
C59	C	0.623759	-0.537523	0.111886
O60	O	0.655802	-0.509356	0.144995
C61	C	0.561840	-0.537522	0.111891
C62	C	0.530856	-0.570636	0.072961
C63	C	0.530802	-0.636864	-0.004896
C64	C	0.468886	-0.636860	-0.004894
C65	C	0.437955	-0.603744	0.034036
C66	C	0.468940	-0.570632	0.072963
C67	C	0.530906	-0.504407	0.150827
C68	C	0.468983	-0.504409	0.150829
C69	C	0.437998	-0.537523	0.111898
C70	C	0.376093	-0.537511	0.111895
N71	N	0.345106	-0.570626	0.072970
C72	C	0.376036	-0.603743	0.034041
C73	C	0.753793	-0.537528	0.111874
C74	C	0.815710	-0.537526	0.111866
C75	C	0.815653	-0.603760	0.034009
C76	C	0.753735	-0.603759	0.034014
C77	C	0.722805	-0.570643	0.072949
C78	C	0.246009	-0.603731	0.034048
C79	C	0.184088	-0.603722	0.034052
C80	C	0.184150	-0.537490	0.111911
C81	C	0.246066	-0.537497	0.111905
C82	C	0.276994	-0.570621	0.072972
O83	O	0.344046	-0.509352	0.144973
O84	O	0.343986	-0.631909	0.000943
C85	C	-0.000113	-0.574668	-0.031196
C86	C	-0.000118	-0.574028	-0.094413
C87	C	-0.000109	0.340981	0.068032
C88	C	-0.000099	0.287325	0.068682
C89	C	0.053535	-0.570001	-0.486408
C90	C	0.053539	-0.569392	-0.545806
O91	O	0.099142	-0.569056	-0.576515
N92	N	-0.000081	-0.569097	-0.575525
C93	C	-0.053709	-0.569405	-0.545842
O94	O	-0.099316	-0.569097	-0.576574
C95	C	-0.053711	-0.570010	-0.486444
C96	C	-0.000088	-0.570311	-0.456729
C97	C	0.107155	-0.570301	-0.456693
C98	C	0.107151	-0.570911	-0.397299
C99	C	0.053528	-0.571220	-0.367620
C100	C	-0.000091	-0.570920	-0.397335
C101	C	-0.107338	-0.570315	-0.456761
C102	C	-0.107336	-0.570920	-0.397360
C103	C	-0.053713	-0.571220	-0.367645
C104	C	-0.053718	-0.571839	-0.308263
N105	N	-0.000098	-0.572135	-0.278544
C106	C	0.053525	-0.571826	-0.308223
C107	C	-0.053698	-0.568133	-0.670581
C108	C	-0.053696	-0.567531	-0.729978
C109	C	0.053552	-0.567518	-0.729938
C110	C	0.053549	-0.568123	-0.670541
C111	C	-0.000078	-0.568428	-0.640862
C112	C	0.053513	-0.573106	-0.183491
C113	C	0.053505	-0.573718	-0.124092
C114	C	-0.053743	-0.573729	-0.124137
C115	C	-0.053735	-0.573120	-0.183531
C116	C	-0.000102	-0.572807	-0.213206
O117	O	-0.099298	-0.572174	-0.277516
O118	O	0.099125	-0.572127	-0.277482
C119	C	-0.000082	-0.566578	0.177121
C120	C	-0.000073	-0.567219	0.240338
H121	H	-0.000107	0.271736	-0.025491
H122	H	-0.000053	-0.412982	0.171406
C123	C	-0.000209	-0.217303	-0.085812
C124	C	-0.050815	-0.208673	-0.117308
C125	C	-0.050925	-0.239835	-0.168992
H126	H	-0.000238	-0.250093	-0.078047
H127	H	0.034073	-0.211497	-0.107278
H128	H	-0.085089	-0.214483	-0.095847
H129	H	-0.050797	-0.175889	-0.125088
H130	H	-0.016642	-0.234029	-0.190458
H131	H	-0.050952	-0.272623	-0.161222
H132	H	-0.085257	-0.233981	-0.190371
C133	C	-0.000112	0.196956	0.178294
C134	C	-0.000118	0.235087	0.223382
C135	C	-0.000149	0.215993	0.275691
H136	H	0.034180	0.177552	0.180777
H137	H	-0.034431	0.177547	0.180713
H138	H	0.034198	0.254487	0.220964
H139	H	-0.034408	0.254494	0.220918
H140	H	-0.034469	0.196584	0.278110
H141	H	0.034143	0.196590	0.278168
H142	H	-0.000159	0.241861	0.306289
C143	C	0.165442	-0.569993	-0.488811
C144	C	0.212391	-0.570398	-0.450065
C145	C	0.266097	-0.570125	-0.479629
H146	H	0.167772	-0.541574	-0.507396
H147	H	0.167700	-0.597962	-0.516560
H148	H	0.210134	-0.542432	-0.422327
H149	H	0.210081	-0.598815	-0.431480
H150	H	0.268356	-0.598093	-0.507377
H151	H	0.268421	-0.541705	-0.498212
H152	H	0.297959	-0.570404	-0.453345
C153	C	0.150590	-0.501459	0.154109
C154	C	0.165650	-0.454032	0.145141
C155	C	0.134737	-0.420830	0.184000
H156	H	0.160719	-0.506392	0.192125
H157	H	0.109271	-0.506172	0.148529
H158	H	0.206959	-0.449321	0.150726
H159	H	0.155519	-0.449084	0.107133
H160	H	0.093419	-0.425543	0.178419
H161	H	0.144868	-0.425767	0.222013
H162	H	0.144947	-0.388647	0.177916
H163	H	0.097214	-0.568367	-0.646351
C164	C	0.000003	-0.443326	-0.031020
C165	C	0.050604	-0.472616	-0.033695
C166	C	0.050692	-0.503905	-0.085281
H167	H	0.000024	-0.424737	-0.062268
H168	H	-0.034283	-0.463280	-0.032947
H169	H	0.084881	-0.452664	-0.031774
H170	H	0.050594	-0.491215	-0.002459
H171	H	0.016407	-0.523860	-0.087208
H172	H	0.050712	-0.485312	-0.116525
H173	H	0.085022	-0.523785	-0.087100
C174	C	0.849240	-0.501547	0.154194
C175	C	0.808891	-0.472555	0.188293
C176	C	0.839754	-0.439411	0.227301
H177	H	0.873399	-0.481520	0.133886
H178	H	0.873381	-0.518762	0.177841
H179	H	0.784760	-0.455342	0.164650
H180	H	0.784731	-0.492569	0.208614
H181	H	0.863896	-0.456626	0.250947
H182	H	0.863912	-0.419387	0.206988
H183	H	0.812383	-0.419739	0.250445
H184	H	0.728613	-0.510557	0.143578
C185	C	0.564570	-0.468404	0.193011
C186	C	0.600112	-0.439007	0.162851
C187	C	0.631125	-0.405833	0.201695
H188	H	0.588770	-0.485580	0.216636
H189	H	0.537293	-0.448658	0.216189
H190	H	0.627386	-0.458751	0.139682
H191	H	0.575926	-0.421821	0.139227
H192	H	0.603849	-0.386087	0.224874
H193	H	0.655323	-0.423013	0.225319
H194	H	0.655240	-0.385881	0.181237
H195	H	-0.097362	-0.567294	-0.754168
C196	C	0.279628	-0.639725	-0.008147
C197	C	0.315180	-0.669125	0.021997
C198	C	0.346158	-0.702281	-0.016861
H199	H	0.303819	-0.622535	-0.031764
H200	H	0.252330	-0.659471	-0.031333
H201	H	0.342475	-0.649382	0.045174
H202	H	0.291004	-0.686327	0.045612
H203	H	0.318861	-0.722026	-0.040048
H204	H	0.370346	-0.685086	-0.040476
H205	H	0.370280	-0.722235	0.003586
H206	H	0.097214	-0.567264	-0.754113
C207	C	0.165349	-0.571098	-0.364980
C208	C	0.168448	-0.529833	-0.324133
C209	C	0.222059	-0.529964	-0.294359
H210	H	0.197306	-0.570782	-0.391124
H211	H	0.167650	-0.599494	-0.346338
H212	H	0.166152	-0.501444	-0.342774
H213	H	0.136503	-0.530139	-0.297977
H214	H	0.224361	-0.558359	-0.275717
H215	H	0.254013	-0.529649	-0.320508
H216	H	0.224167	-0.501968	-0.266638
H217	H	0.097174	-0.573964	-0.099901
C218	C	0.150555	-0.639732	-0.008243
C219	C	0.190901	-0.668743	-0.042323
C220	C	0.160035	-0.701923	-0.081285
H221	H	0.126399	-0.622561	-0.031911
H222	H	0.126411	-0.659739	0.012119
H223	H	0.215035	-0.648738	-0.062683
H224	H	0.215059	-0.685924	-0.018671
H225	H	0.135891	-0.721930	-0.060923
H226	H	0.135880	-0.684748	-0.104949
H227	H	0.187405	-0.721614	-0.104410
H228	H	-0.000069	-0.321529	0.170315
H229	H	0.555980	-0.663834	-0.036597
C230	C	0.111804	-0.572783	-0.215604
C231	C	0.158755	-0.573184	-0.176860
C232	C	0.212460	-0.572891	-0.206422
H233	H	0.114122	-0.544358	-0.234179
H234	H	0.114072	-0.600745	-0.243361
H235	H	0.156488	-0.545225	-0.149113
H236	H	0.156456	-0.601607	-0.158283
H237	H	0.214728	-0.600853	-0.234178
H238	H	0.214772	-0.544466	-0.224995
H239	H	0.244322	-0.573168	-0.180139
C240	C	0.435510	-0.468395	0.193126
C241	C	0.475903	-0.439390	0.227204
C242	C	0.445091	-0.406205	0.266166
H243	H	0.411353	-0.485562	0.216796
H244	H	0.411372	-0.448385	0.172765
H245	H	0.500031	-0.459398	0.247563
H246	H	0.500062	-0.422213	0.203550
H247	H	0.420953	-0.386194	0.245805
H248	H	0.420935	-0.423375	0.289832
H249	H	0.472493	-0.386518	0.289289
H250	H	0.443662	-0.663826	-0.036593
H251	H	-0.151007	-0.571161	-0.373197
C252	C	-0.000082	0.171887	-0.038481
C253	C	-0.000069	0.199499	-0.084349
C254	C	-0.000032	0.168375	-0.136062
H255	H	-0.034374	0.151948	-0.040501
H256	H	0.034237	0.151987	-0.040429
H257	H	-0.034384	0.219390	-0.082401
H258	H	0.034221	0.219437	-0.082348
H259	H	0.034287	0.148476	-0.138011
H260	H	-0.034325	0.148438	-0.138076
H261	H	-0.000017	0.187105	-0.167189
H262	H	-0.000089	-0.023805	0.218763
H263	H	0.271294	-0.510527	0.143601
H264	H	-0.000115	0.033814	-0.074658
C265	C	-0.111884	-0.568549	-0.638303
C266	C	-0.115025	-0.610483	-0.610967
C267	C	-0.168612	-0.610878	-0.581225
H268	H	-0.143863	-0.568312	-0.664453
H269	H	-0.114119	-0.540608	-0.610511
H270	H	-0.112795	-0.638416	-0.638756
H271	H	-0.083058	-0.610729	-0.584808
H272	H	-0.170847	-0.582938	-0.553433
H273	H	-0.200587	-0.610640	-0.607379
H274	H	-0.170748	-0.639328	-0.562669
H275	H	-0.151004	-0.570071	-0.480945
C276	C	-0.112015	-0.572774	-0.215691
C277	C	-0.158976	-0.573166	-0.176981
C278	C	-0.212674	-0.572836	-0.206579
H279	H	-0.114335	-0.600718	-0.243460
H280	H	-0.114269	-0.544331	-0.234251
H281	H	-0.156724	-0.601605	-0.158430
H282	H	-0.156676	-0.545223	-0.149211
H283	H	-0.214927	-0.544393	-0.225139
H284	H	-0.214987	-0.600781	-0.234347
H285	H	-0.244543	-0.573097	-0.180318
H286	H	-0.000116	-0.057635	-0.073565
C287	C	-0.000120	-0.338210	-0.032382
C288	C	-0.000136	-0.376344	-0.077466
C289	C	-0.000180	-0.357255	-0.129778
H290	H	0.034171	-0.318789	-0.034854
H291	H	-0.034440	-0.318819	-0.034817
H292	H	0.034181	-0.395727	-0.075033
H293	H	-0.034424	-0.395768	-0.075013
H294	H	-0.034501	-0.337864	-0.132213
H295	H	0.034111	-0.337834	-0.132244
H296	H	-0.000197	-0.383125	-0.160374
C297	C	-0.111939	-0.573960	-0.091854
C298	C	-0.115052	-0.532708	-0.050993
C299	C	-0.168655	-0.532896	-0.021244
H300	H	-0.114232	-0.602355	-0.073221
H301	H	-0.143898	-0.573667	-0.118028
H302	H	-0.083101	-0.533006	-0.024822
H303	H	-0.112768	-0.504307	-0.069610
H304	H	-0.200614	-0.532602	-0.047418
H305	H	-0.170944	-0.561292	-0.002614
H306	H	-0.170776	-0.504905	0.006481
C307	C	-0.000067	0.076044	0.231742
C308	C	-0.000047	0.048437	0.277614
C309	C	-0.000005	0.079564	0.329324
H310	H	-0.034360	0.095965	0.233742
H311	H	0.034251	0.095962	0.233705
H312	H	-0.034361	0.028527	0.275651
H313	H	0.034244	0.028518	0.275633
H314	H	0.034313	0.099483	0.331287
H315	H	-0.034299	0.099483	0.331318
H316	H	0.000014	0.060837	0.360454
H317	H	-0.000085	0.293546	0.162959
C318	C	-0.000210	-0.112144	-0.086988
C319	C	-0.050813	-0.083557	-0.090378
C320	C	-0.050922	-0.064290	-0.142579
H321	H	-0.000244	-0.137911	-0.117697
H322	H	0.034074	-0.092691	-0.089385
H323	H	-0.085089	-0.103009	-0.087987
H324	H	-0.050790	-0.057783	-0.059681
H325	H	-0.016637	-0.044837	-0.144975
H326	H	-0.050954	-0.090059	-0.173283
H327	H	-0.085252	-0.044887	-0.144883
C328	C	0.000015	-0.180198	0.234786
C329	C	0.050618	-0.164282	0.265989
C330	C	0.050721	-0.183396	0.318285
H331	H	0.000044	-0.214692	0.227841
H332	H	-0.034269	-0.169456	0.256046
H333	H	0.084894	-0.175027	0.244733
H334	H	0.050601	-0.129790	0.272949
H335	H	0.016437	-0.172654	0.339545
H336	H	0.050748	-0.217890	0.311335
H337	H	0.085052	-0.172597	0.339465
C338	C	0.720204	-0.639767	-0.008279
C339	C	0.760553	-0.668772	-0.042362
C340	C	0.729689	-0.701954	-0.081325
H341	H	0.696044	-0.622597	-0.031945
H342	H	0.696063	-0.659777	0.012081
H343	H	0.784683	-0.648765	-0.062721
H344	H	0.784713	-0.685953	-0.018712
H345	H	0.705549	-0.721964	-0.060966
H346	H	0.705531	-0.684779	-0.104988
H347	H	0.757061	-0.721641	-0.104452
H348	H	-0.000081	-0.083604	0.219469
H349	H	0.840849	-0.630726	0.002311
