data_functionalizedCrystal
_audit_creation_method	'MofGen! by Chris Wilmer'
_symmetry_space_group_name_H-M	'P1'
_symmetry_Int_Tables_number	1
_symmetry_cell_setting	triclinic
loop_
_symmetry_equiv_pos_as_xyz
  x,y,z
_cell_length_a	14.519710
_cell_length_b	16.992695
_cell_length_c	15.455438
_cell_angle_alpha	87.167513
_cell_angle_beta	87.312537
_cell_angle_gamma	92.825816
loop_
_atom_site_label
_atom_site_type_symbol
_atom_site_fract_x
_atom_site_fract_y
_atom_site_fract_z
O1	O	1.235035	-0.099388	-0.072111
O2	O	0.967427	-0.111494	-0.072117
O3	O	1.100158	0.008703	-0.072107
O4	O	1.102304	-0.219585	-0.072121
O5	O	1.092562	0.001892	0.072151
O6	O	0.959831	-0.118305	0.072141
O7	O	1.227439	-0.106199	0.072147
Cu8	Cu	1.092941	-0.112874	0.085316
Cu9	Cu	1.101925	-0.104819	-0.085286
O10	O	1.094708	-0.226396	0.072138
C11	C	0.929229	-0.114335	0.000011
C12	C	0.826726	-0.112644	0.000009
C13	C	1.265637	-0.103358	0.000017
C14	C	1.368140	-0.105048	0.000013
C15	C	1.743483	-0.111272	0.000013
C16	C	1.639051	-0.109544	0.000012
C17	C	1.555815	-0.108160	0.000012
C18	C	1.451376	-0.106432	0.000014
C19	C	1.093600	0.034514	0.000022
C20	C	1.085364	0.121570	0.000021
C21	C	1.101266	-0.252207	0.000006
C22	C	1.109502	-0.339262	0.000001
N23	N	1.108243	-0.099148	-0.205279
C24	C	1.164824	0.171698	0.000024
C25	C	1.157081	0.253496	0.000016
C26	C	1.069877	0.285163	0.000011
C27	C	0.990412	0.235028	0.000006
C28	C	0.998156	0.153232	0.000008
C29	C	1.037781	0.528807	-0.000002
C30	C	1.030042	0.610609	-0.000001
C31	C	1.196713	0.629072	0.000007
C32	C	1.204449	0.547273	0.000015
C33	C	1.124984	0.497145	0.000005
N34	N	1.061960	0.368774	0.000005
N35	N	1.132902	0.413537	0.000004
C36	C	1.051732	-0.150104	-0.250699
C37	C	1.056500	-0.145782	-0.341504
C38	C	1.117784	-0.090509	-0.386889
C39	C	1.174297	-0.039548	-0.341463
C40	C	1.169524	-0.043866	-0.250659
C41	C	1.138370	-0.071896	-0.658461
C42	C	1.143141	-0.067583	-0.749271
C43	C	1.025341	-0.173817	-0.749307
C44	C	1.020578	-0.178133	-0.658501
C45	C	1.077088	-0.127170	-0.613083
N46	N	1.122661	-0.086092	-0.479707
N47	N	1.072206	-0.131583	-0.520266
N48	N	1.086630	-0.118539	0.205309
H49	H	1.235835	0.145922	0.000033
H50	H	0.959026	0.636388	0.000009
H51	H	0.979332	-0.215309	-0.786294
C52	C	1.244493	0.308635	0.000033
N53	N	1.310336	0.350164	0.000050
C54	C	0.953154	-0.238934	-0.608585
N55	N	0.902371	-0.284730	-0.570988
C56	C	0.994464	-0.201944	-0.391462
N57	N	0.947783	-0.244286	-0.429089
C58	C	0.950365	0.473677	-0.000017
N59	N	0.884520	0.432150	-0.000032
H60	H	1.215541	-0.002372	-0.213679
H61	H	1.275459	0.521496	0.000019
H62	H	1.193050	-0.022570	-0.786219
H63	H	1.261409	0.669894	0.000013
H64	H	0.919408	0.260818	-0.000004
H65	H	1.184385	-0.030400	-0.621489
H66	H	0.933451	0.112417	0.000005
H67	H	1.224193	0.005461	-0.378420
C68	C	0.984313	-0.210909	-0.200784
N69	N	0.933528	-0.256707	-0.163191
