data_functionalizedCrystal
_audit_creation_method	'MofGen! by Chris Wilmer'
_symmetry_space_group_name_H-M	'P1'
_symmetry_Int_Tables_number	1
_symmetry_cell_setting	triclinic
loop_
_symmetry_equiv_pos_as_xyz
  x,y,z
_cell_length_a	21.295420
_cell_length_b	21.295417
_cell_length_c	12.759393
_cell_angle_alpha	90.037048
_cell_angle_beta	90.022797
_cell_angle_gamma	90.025484
loop_
_atom_site_label
_atom_site_type_symbol
_atom_site_fract_x
_atom_site_fract_y
_atom_site_fract_z
Zn1	Zn	0.962348	-0.250650	0.594024
Zn2	Zn	1.462348	0.249350	1.094024
Zn3	Zn	0.962255	-0.355932	0.418324
Zn4	Zn	1.462255	0.144068	0.918324
Zn5	Zn	0.857074	-0.250673	0.418354
Zn6	Zn	1.357074	0.249327	0.918354
Zn7	Zn	0.857042	-0.355877	0.593956
Zn8	Zn	1.357042	0.144123	1.093956
O9	O	0.909680	-0.303283	0.506165
O10	O	1.409680	0.196717	1.006165
O11	O	1.050425	-0.264629	0.570734
O12	O	1.550425	0.235371	1.070734
O13	O	0.948277	-0.342001	0.271307
O14	O	1.448277	0.157999	0.771307
O15	O	0.871091	-0.162580	0.441698
O16	O	1.371091	0.337420	0.941698
O17	O	1.050357	-0.341979	0.441648
O18	O	1.550357	0.158021	0.941648
O19	O	0.948435	-0.162563	0.570762
O20	O	1.448435	0.337437	1.070762
O21	O	0.871001	-0.264668	0.271329
O22	O	1.371001	0.235332	0.771329
O23	O	0.768981	-0.264615	0.441631
O24	O	1.268981	0.235385	0.941631
O25	O	0.871036	-0.341886	0.740986
O26	O	1.371036	0.158114	1.240986
O27	O	0.768957	-0.341908	0.570645
O28	O	1.268957	0.158092	1.070645
O29	O	0.948404	-0.264576	0.741036
O30	O	1.448404	0.235424	1.241036
O31	O	0.948246	-0.444014	0.441581
O32	O	1.448246	0.055986	0.941581
O33	O	0.870946	-0.443974	0.570617
O34	O	1.370946	0.056026	1.070617
C35	C	0.746128	-0.303259	0.506135
C36	C	1.246128	0.196741	1.006135
C37	C	0.676160	-0.303263	0.506147
C38	C	1.176160	0.196737	1.006147
C39	C	0.176737	-0.263101	0.573505
C40	C	0.676737	0.236899	1.073505
C41	C	0.242479	-0.263097	0.573504
C42	C	0.742479	0.236903	1.073504
C43	C	0.275321	-0.303302	0.506189
C44	C	0.775321	0.196698	1.006189
C45	C	0.242414	-0.343526	0.438888
C46	C	0.742414	0.156474	0.938888
C47	C	0.176672	-0.343534	0.438897
C48	C	0.676672	0.156466	0.938897
N49	N	0.378512	-0.308053	0.414194
N50	N	0.878512	0.191947	0.914194
N51	N	0.440964	-0.308042	0.414188
N52	N	0.940964	0.191958	0.914188
C53	C	0.473395	-0.303281	0.506158
C54	C	0.973395	0.196719	1.006158
N55	N	0.441016	-0.298520	0.598136
N56	N	0.941016	0.201480	1.098136
N57	N	0.378559	-0.298528	0.598141
N58	N	0.878559	0.201472	1.098141
C59	C	0.346606	-0.303298	0.506172
C60	C	0.846606	0.196702	1.006172
C61	C	0.577580	-0.263057	0.573460
C62	C	1.077580	0.236943	1.073460
C63	C	0.643323	-0.263057	0.573462
C64	C	1.143323	0.236943	1.073462
C65	C	0.643256	-0.343483	0.438836
C66	C	1.143256	0.156517	0.938836
C67	C	0.577514	-0.343487	0.438843
C68	C	1.077514	0.156513	0.938843
C69	C	0.544680	-0.303271	0.506154
C70	C	1.044680	0.196729	1.006154
C71	C	0.909599	-0.466834	0.506111
C72	C	1.409599	0.033166	1.006111
C73	C	0.909623	-0.536802	0.506124
C74	C	1.409623	-0.036802	1.006124
C75	C	0.949873	-0.569603	0.573376
C76	C	1.449873	-0.069603	1.073376
C77	C	0.949895	-0.635346	0.573401
C78	C	1.449895	-0.135346	1.073401
C79	C	0.909674	-0.668285	0.506157
C80	C	1.409674	-0.168285	1.006157
C81	C	0.869416	-0.635476	0.438900
C82	C	1.369416	-0.135476	0.938900
C83	C	0.869390	-0.569735	0.438884
C84	C	1.369390	-0.069735	0.938884
N85	N	0.904916	-0.771553	0.414210
N86	N	1.404916	-0.271553	0.914210
N87	N	0.904944	-0.834004	0.414229
N88	N	1.404944	-0.334004	0.914229
C89	C	0.909747	-0.866360	0.506204
C90	C	1.409747	-0.366360	1.006204
N91	N	0.914534	-0.833904	0.598162
N92	N	1.414534	-0.333904	1.098162
N93	N	0.914509	-0.771447	0.598143
N94	N	1.414509	-0.271447	1.098143
C95	C	0.909697	-0.739570	0.506168
C96	C	1.409697	-0.239570	1.006168
C97	C	0.950023	-0.970446	0.573490
C98	C	1.450023	-0.470446	1.073490
C99	C	0.950041	-1.036190	0.573518
C100	C	1.450041	-0.536190	1.073518
C101	C	0.869566	-1.036319	0.439007
C102	C	1.369566	-0.536319	0.939007
C103	C	0.869545	-0.970577	0.438989
C104	C	1.369545	-0.470577	0.938989
C105	C	0.909777	-0.937644	0.506229
C106	C	1.409777	-0.437644	1.006229
C107	C	1.073870	-0.303307	0.506195
C108	C	1.573870	0.196693	1.006195
C109	C	1.143838	-0.303318	0.506208
C110	C	1.643838	0.196682	1.006208
C111	C	0.909727	-0.303222	0.780198
C112	C	1.409727	0.196778	1.280198
C113	C	0.909747	-0.303197	0.896975
C114	C	1.409747	0.196803	1.396975
C115	C	0.909777	-0.139092	0.506241
C116	C	1.409777	0.360908	1.006241
C117	C	0.909819	-0.069124	0.506273
C118	C	1.409819	0.430876	1.006273
C119	C	0.909669	-0.303297	0.233197
C120	C	1.409669	0.196703	0.733197
C121	C	0.909771	-0.303146	0.116421
C122	C	1.409771	0.196854	0.616421
C123	C	0.950035	-0.262935	0.951865
C124	C	1.450035	0.237065	1.451865
C125	C	0.950046	-0.262908	1.061589
C126	C	1.450046	0.237092	1.561589
C127	C	0.869478	-0.343410	1.061524
C128	C	1.369478	0.156590	1.561524
C129	C	0.869465	-0.343433	0.951801
C130	C	1.369465	0.156567	1.451801
H131	H	0.550727	-0.376233	0.384039
H132	H	1.050727	0.123767	0.884039
O133	O	0.989122	-0.223816	1.115071
O134	O	1.489122	0.276184	1.615071
C135	C	0.980506	-0.232428	1.223672
C136	C	1.480506	0.267572	1.723672
H137	H	0.931916	-0.253035	1.238631
H138	H	1.431916	0.246965	1.738631
H139	H	0.984807	-0.185266	1.265390
H140	H	1.484807	0.314734	1.765390
H141	H	1.017829	-0.265947	1.254813
H142	H	1.517829	0.234053	1.754813
O143	O	0.830272	-0.537967	0.373449
O144	O	1.330272	-0.037967	0.873449
C145	C	0.794761	-0.581133	0.314123
C146	C	1.294761	-0.081133	0.814123
H147	H	0.820561	-0.627978	0.310537
H148	H	1.320561	-0.127978	0.810537
H149	H	0.788064	-0.562184	0.231330
H150	H	1.288064	-0.062184	0.731330
H151	H	0.746943	-0.588143	0.352528
H152	H	1.246943	-0.088143	0.852528
H153	H	0.149887	-0.376285	0.384095
H154	H	0.649887	0.123715	0.884095
O155	O	0.989224	-0.223935	0.898556
O156	O	1.489224	0.276065	1.398556
C157	C	1.029844	-0.259789	0.835062
C158	C	1.529844	0.240211	1.335062
H159	H	1.033711	-0.309361	0.868103
H160	H	1.533711	0.190639	1.368103
H161	H	1.078300	-0.237025	0.833842
H162	H	1.578300	0.262975	1.333842
H163	H	1.010368	-0.261973	0.751899
H164	H	1.510368	0.238027	1.251899
H165	H	0.836653	-0.376219	0.907109
H166	H	1.336653	0.123781	1.407109
H167	H	0.836683	-0.376170	1.106177
H168	H	1.336683	0.123830	1.606177
H169	H	0.836813	-1.063137	0.384262
H170	H	1.336813	-0.563137	0.884262
H171	H	0.150007	-0.230357	0.628319
H172	H	0.650007	0.269643	1.128319
H173	H	0.269271	-0.230345	0.628304
H174	H	0.769271	0.269655	1.128304
O175	O	0.988959	-0.667153	0.638882
O176	O	1.488959	-0.167153	1.138882
C177	C	0.975152	-0.651065	0.743571
C178	C	1.475152	-0.151065	1.243571
H179	H	0.950943	-0.603348	0.745705
H180	H	1.450943	-0.103348	1.245705
H181	H	1.020566	-0.648767	0.790755
H182	H	1.520566	-0.148767	1.290755
H183	H	0.942783	-0.688072	0.778908
H184	H	1.442783	-0.188072	1.278908
H185	H	0.982781	-0.943631	0.628244
H186	H	1.482781	-0.443631	1.128244
O187	O	0.988861	-0.537546	0.638751
O188	O	1.488861	-0.037546	1.138751
C189	C	0.952986	-0.499531	0.706567
C190	C	1.452986	0.000469	1.206567
H191	H	0.905289	-0.489736	0.669438
H192	H	1.405289	0.010264	1.169438
H193	H	0.978606	-0.453275	0.720682
H194	H	1.478606	0.046725	1.220682
H195	H	0.946054	-0.524840	0.784417
H196	H	1.446054	-0.024840	1.284417
O197	O	0.989203	-1.067957	0.638881
O198	O	1.489203	-0.567957	1.138881
C199	C	1.024696	-1.024789	0.698235
C200	C	1.524696	-0.524789	1.198235
H201	H	1.026867	-0.977945	0.655192
H202	H	1.526867	-0.477945	1.155192
H203	H	1.074298	-1.043738	0.709511
H204	H	1.574298	-0.543738	1.209511
H205	H	1.001624	-1.017777	0.777997
H206	H	1.501624	-0.517777	1.277997
O207	O	0.274285	-0.382671	0.373609
O208	O	0.774285	0.117329	0.873609
C209	C	0.258197	-0.445427	0.396372
C210	C	0.758197	0.054573	0.896372
H211	H	0.240148	-0.448664	0.480298
H212	H	0.740148	0.051336	0.980298
H213	H	0.301419	-0.476514	0.387225
H214	H	0.801419	0.023486	0.887225
H215	H	0.220016	-0.461851	0.340003
H216	H	0.720016	0.038149	0.840003
O217	O	0.545707	-0.224068	0.639002
O218	O	1.045707	0.275932	1.139002
C219	C	0.561806	-0.237889	0.743669
C220	C	1.061806	0.262111	1.243669
H221	H	0.579863	-0.288179	0.748817
H222	H	1.079863	0.211821	1.248817
H223	H	0.518587	-0.232509	0.795594
H224	H	1.018587	0.267491	1.295594
H225	H	0.599984	-0.204155	0.771234
H226	H	1.099984	0.295845	1.271234
O227	O	0.675311	-0.224079	0.638952
O228	O	1.175311	0.275921	1.138952
C229	C	0.713354	-0.259957	0.706689
C230	C	1.213354	0.240043	1.206689
H231	H	0.693527	-0.309541	0.713039
H232	H	1.193527	0.190459	1.213039
H233	H	0.714129	-0.237240	0.787607
H234	H	1.214129	0.262760	1.287607
H235	H	0.763169	-0.262100	0.674197
H236	H	1.263169	0.237900	1.174197
H237	H	0.836772	-0.943868	0.384221
H238	H	1.336772	-0.443868	0.884221
H239	H	0.836666	-0.662300	0.384152
H240	H	1.336666	-0.162300	0.884152
O241	O	0.675248	-0.382482	0.373481
O242	O	1.175248	0.117518	0.873481
C243	C	0.740328	-0.373866	0.387925
C244	C	1.240328	0.126134	0.887925
H245	H	0.749334	-0.325308	0.422474
H246	H	1.249334	0.174692	0.922474
H247	H	0.765291	-0.378083	0.309215
H248	H	1.265291	0.121917	0.809215
H249	H	0.758985	-0.411240	0.443764
H250	H	1.258985	0.088760	0.943764
