data_functionalizedCrystal
_audit_creation_method	'MofGen! by Chris Wilmer'
_symmetry_space_group_name_H-M	'P1'
_symmetry_Int_Tables_number	1
_symmetry_cell_setting	triclinic
loop_
_symmetry_equiv_pos_as_xyz
  x,y,z
_cell_length_a	12.827892
_cell_length_b	19.077300
_cell_length_c	19.076919
_cell_angle_alpha	94.667263
_cell_angle_beta	87.724465
_cell_angle_gamma	92.279524
loop_
_atom_site_label
_atom_site_type_symbol
_atom_site_fract_x
_atom_site_fract_y
_atom_site_fract_z
Zn1	Zn	-0.500501	-1.061702	0.355322
Zn2	Zn	-0.000501	-0.561702	0.855322
Zn3	Zn	-0.668504	-1.066374	0.237448
Zn4	Zn	-0.168504	-0.566374	0.737448
Zn5	Zn	-0.487041	-0.948558	0.242185
Zn6	Zn	0.012959	-0.448558	0.742185
Zn7	Zn	-0.668458	-0.943806	0.360027
Zn8	Zn	-0.168458	-0.443806	0.860027
O9	O	-0.581126	-1.005110	0.298745
O10	O	-0.081126	-0.505110	0.798745
O11	O	-0.528439	-1.160968	0.335733
O12	O	-0.028439	-0.660968	0.835733
O13	O	-0.638819	-1.054690	0.139428
O14	O	-0.138819	-0.554690	0.639428
O15	O	-0.342594	-0.963600	0.257207
O16	O	0.157406	-0.463600	0.757207
O17	O	-0.651870	-1.164401	0.249132
O18	O	-0.151870	-0.664401	0.749132
O19	O	-0.352482	-1.046727	0.340327
O20	O	0.147518	-0.546727	0.840327
O21	O	-0.505499	-0.968131	0.142909
O22	O	-0.005499	-0.468131	0.642909
O23	O	-0.505454	-0.849281	0.261769
O24	O	-0.005454	-0.349281	0.761769
O25	O	-0.651792	-0.955501	0.458050
O26	O	-0.151792	-0.455501	0.958050
O27	O	-0.638740	-0.845790	0.348347
O28	O	-0.138740	-0.345790	0.848347
O29	O	-0.528395	-1.042118	0.454593
O30	O	-0.028395	-0.542118	0.954593
O31	O	-0.814731	-1.050082	0.253694
O32	O	-0.314731	-0.550082	0.753694
O33	O	-0.814697	-0.960031	0.343753
O34	O	-0.314697	-0.460031	0.843753
C35	C	-0.570633	-0.821958	0.306083
C36	C	-0.070633	-0.321958	0.806083
C37	C	-0.566170	-0.743604	0.309239
C38	C	-0.066170	-0.243604	0.809239
C39	C	-0.852633	-1.005066	0.298735
C40	C	-0.352633	-0.505066	0.798735
C41	C	-0.968790	-1.005111	0.298751
C42	C	-0.468790	-0.505111	0.798751
C43	C	-0.534079	-0.302361	0.331884
C44	C	-0.034079	0.197639	0.831884
C45	C	-0.538292	-0.375983	0.328915
C46	C	-0.038292	0.124017	0.828915
C47	C	-0.604548	-0.414575	0.282268
C48	C	-0.104548	0.085425	0.782268
C49	C	-0.666603	-0.379541	0.238593
C50	C	-0.166603	0.120459	0.738593
C51	C	-0.662395	-0.305920	0.241566
C52	C	-0.162395	0.194080	0.741566
C53	C	-0.624017	-0.634949	0.268537
C54	C	-0.124017	-0.134949	0.768537
C55	C	-0.628218	-0.708575	0.265565
C56	C	-0.128218	-0.208575	0.765565
C57	C	-0.499907	-0.705012	0.355888
C58	C	0.000093	-0.205012	0.855888
C59	C	-0.495701	-0.631389	0.358854
C60	C	0.004299	-0.131389	0.858854
C61	C	-0.557760	-0.596362	0.315182
C62	C	-0.057760	-0.096362	0.815182
N63	N	-0.608853	-0.489829	0.279231
N64	N	-0.108853	0.010171	0.779231
N65	N	-0.553460	-0.521110	0.318224
N66	N	-0.053460	-0.021110	0.818224
C67	C	-1.020562	-1.049720	0.254233
C68	C	-0.520562	-0.549720	0.754233
C69	C	-1.140616	-1.049768	0.254249
C70	C	-0.640616	-0.549768	0.754249
C71	C	-0.308561	-1.005172	0.298771
C72	C	0.191439	-0.505172	0.798771
C73	C	-0.192410	-1.005199	0.298781
C74	C	0.307590	-0.505199	0.798781
C75	C	-0.591590	-0.997758	0.482615
C76	C	-0.091590	-0.497758	0.982615
C77	C	-0.596049	-0.994625	0.560970
C78	C	-0.096049	-0.494625	1.060970
C79	C	-0.591655	-0.188978	0.291372
C80	C	-0.091655	0.311022	0.791372
C81	C	-0.596127	-0.267332	0.288210
C82	C	-0.096127	0.232668	0.788210
C83	C	-0.570630	-1.012474	0.115589
C84	C	-0.070630	-0.512474	0.615589
C85	C	-0.565885	-1.015743	0.037229
C86	C	-0.065885	-0.515743	0.537229
C87	C	-0.533900	-1.038248	0.595982
C88	C	-0.033900	-0.538248	1.095982
C89	C	-0.538085	-1.035296	0.669605
C90	C	-0.038085	-0.535296	1.169605
C91	C	-0.604425	-0.988724	0.708214
C92	C	-0.104425	-0.488724	1.208214
C93	C	-0.666576	-0.945096	0.673196
C94	C	-0.166576	-0.445096	1.173196
C95	C	-0.662385	-0.948045	0.599575
C96	C	-0.162385	-0.448045	1.099575
C97	C	-0.623844	-0.975065	0.928591
C98	C	-0.123844	-0.475065	1.428591
C99	C	-0.628033	-0.972120	1.002217
C100	C	-0.128033	-0.472120	1.502217
C101	C	-0.499540	-1.062320	0.998621
C102	C	0.000460	-0.562320	1.498621
C103	C	-0.495360	-1.065268	0.924998
C104	C	0.004640	-0.565268	1.424998
C105	C	-0.557506	-1.021637	0.889987
C106	C	-0.057506	-0.521637	1.389987
N107	N	-0.608707	-0.985707	0.783468
N108	N	-0.108707	-0.485707	1.283468
N109	N	-0.553218	-1.024651	0.814734
N110	N	-0.053218	-0.524651	1.314734
H111	H	-0.480120	-0.270944	0.369864
H112	H	0.019880	0.229056	0.869864
Cl113	Cl	-0.421901	-0.749050	0.410791
Cl114	Cl	0.078099	-0.249050	0.910791
H115	H	-0.487480	-1.070820	0.698109
H116	H	0.012520	-0.570820	1.198109
H117	H	-1.013345	-0.966958	0.336879
H118	H	-0.513345	-0.466958	0.836879
Cl119	Cl	-0.711432	-0.913564	1.050753
Cl120	Cl	-0.211432	-0.413564	1.550753
H121	H	-0.674547	-0.606439	0.232974
H122	H	-0.174547	-0.106439	0.732974
Cl123	Cl	-0.411958	-1.123818	0.876467
Cl124	Cl	0.088042	-0.623818	1.376467
Cl125	Cl	-0.740514	-0.893200	0.555559
Cl126	Cl	-0.240514	-0.393200	1.055559
H127	H	-0.479882	-1.076175	0.564552
H128	H	0.020118	-0.576175	1.064552
H129	H	-0.674465	-0.939548	0.900093
H130	H	-0.174465	-0.439548	1.400093
H131	H	-0.712924	-0.277401	0.206004
H132	H	-0.212924	0.222599	0.706004
Cl133	Cl	-0.951782	-1.108638	0.195371
Cl134	Cl	-0.451782	-0.608638	0.695371
Cl135	Cl	-1.209350	-1.108731	0.195397
Cl136	Cl	-0.709350	-0.608731	0.695397
Cl137	Cl	-0.421414	-1.117163	1.042639
Cl138	Cl	0.078586	-0.617163	1.542639
H139	H	-0.487769	-0.404500	0.364480
H140	H	0.012231	0.095500	0.864480
H141	H	-0.441752	-0.599972	0.396841
H142	H	0.058248	-0.099972	0.896841
H143	H	-0.720555	-0.410969	0.200615
H144	H	-0.220555	0.089031	0.700615
H145	H	-0.720587	-0.907173	0.704637
H146	H	-0.220587	-0.407173	1.204637
H147	H	-1.147895	-0.967003	0.336895
H148	H	-0.647895	-0.467003	0.836895
H149	H	-0.682175	-0.739995	0.227579
H150	H	-0.182175	-0.239995	0.727579
