data_functionalizedCrystal
_audit_creation_method	'MofGen! by Chris Wilmer'
_symmetry_space_group_name_H-M	'P1'
_symmetry_Int_Tables_number	1
_symmetry_cell_setting	triclinic
loop_
_symmetry_equiv_pos_as_xyz
  x,y,z
_cell_length_a	8.559649
_cell_length_b	16.176319
_cell_length_c	17.699083
_cell_angle_alpha	90.007696
_cell_angle_beta	76.530839
_cell_angle_gamma	90.007370
loop_
_atom_site_label
_atom_site_type_symbol
_atom_site_fract_x
_atom_site_fract_y
_atom_site_fract_z
O1	O	2.120234	0.068732	-0.025680
O2	O	1.654878	0.068738	0.013416
O3	O	1.900704	0.068727	-0.117074
O4	O	1.874409	0.068742	0.104810
O5	O	1.900670	-0.068766	-0.117080
O6	O	1.654845	-0.068756	0.013410
O7	O	2.120200	-0.068761	-0.025686
Cu8	Cu	1.887519	-0.081313	-0.006138
Cu9	Cu	1.887559	0.081289	-0.006132
O10	O	1.874375	-0.068751	0.104804
C11	C	1.595320	-0.000008	0.016376
C12	C	1.417906	-0.000007	0.025195
N13	N	1.887503	-0.195678	-0.006144
C14	C	1.996387	-0.238946	-0.063906
C15	C	1.996395	-0.325494	-0.063907
C16	C	1.887526	-0.368770	-0.006143
C17	C	1.778630	-0.325496	0.051622
C18	C	1.778615	-0.238950	0.051620
C19	C	1.778685	-0.674524	0.051633
C20	C	1.778711	-0.761075	0.051633
C21	C	1.996464	-0.761067	-0.063893
C22	C	1.996450	-0.674522	-0.063896
C23	C	1.887549	-0.631255	-0.006134
C24	C	1.887540	-0.537410	-0.006134
C25	C	1.887541	-0.462613	-0.006139
C26	C	2.179758	-0.000013	-0.028646
C27	C	2.357173	-0.000010	-0.037465
C28	C	1.899745	-0.000019	-0.145220
C29	C	1.896918	-0.000020	-0.229076
N30	N	1.887588	0.195654	-0.006133
C31	C	2.041212	-0.000022	-0.285959
C32	C	2.038547	-0.000015	-0.364749
C33	C	1.891585	-0.000011	-0.386656
C34	C	1.747280	-0.000006	-0.329767
C35	C	1.749947	-0.000007	-0.250978
C36	C	1.736521	0.000001	-0.647514
C37	C	1.733865	0.000000	-0.726310
C38	C	2.025120	-0.000007	-0.761286
C39	C	2.027787	-0.000008	-0.682496
C40	C	1.883483	0.000001	-0.625614
C41	C	1.886375	-0.000005	-0.540181
C42	C	1.888692	-0.000010	-0.472088
C43	C	1.875334	-0.000002	0.132950
C44	C	1.878161	0.000003	0.216806
H45	H	1.440904	-0.000010	-0.097859
H46	H	1.689978	-0.360737	0.098653
H47	H	1.619019	0.000009	-0.601208
H48	H	1.334165	0.000002	0.085592
Cl49	Cl	2.219954	-0.000021	-0.436257
H50	H	2.085107	-0.639288	-0.110931
H51	H	2.085048	-0.203716	-0.110941
H52	H	1.690050	-0.796310	0.098673
Cl53	Cl	2.133279	-0.379890	-0.136524
H54	H	2.085133	-0.796305	-0.110929
H55	H	1.690017	-0.639303	0.098667
H56	H	1.689949	-0.203722	0.098655
Cl57	Cl	2.206535	-0.000016	-0.832800
H58	H	2.160885	-0.000031	-0.268130
H59	H	2.147458	-0.000016	-0.664666
H60	H	1.614184	0.000002	-0.744141
H61	H	1.627621	0.000003	-0.347609
Cl62	Cl	1.568541	-0.000000	-0.179467
