data_functionalizedCrystal
_audit_creation_method	'MofGen! by Chris Wilmer'
_symmetry_space_group_name_H-M	'P1'
_symmetry_Int_Tables_number	1
_symmetry_cell_setting	triclinic
loop_
_symmetry_equiv_pos_as_xyz
  x,y,z
_cell_length_a	16.974800
_cell_length_b	11.026607
_cell_length_c	16.053802
_cell_angle_alpha	93.134017
_cell_angle_beta	91.074188
_cell_angle_gamma	95.962169
loop_
_atom_site_label
_atom_site_type_symbol
_atom_site_fract_x
_atom_site_fract_y
_atom_site_fract_z
O1	O	1.071034	0.154760	0.002968
O2	O	0.844209	0.173345	-0.012366
O3	O	0.938822	-0.012661	-0.005967
O4	O	0.976421	0.340766	-0.003431
O5	O	0.933609	-0.002465	0.132540
O6	O	0.838995	0.183541	0.126141
O7	O	1.065820	0.164956	0.141474
Zn8	Zn	0.951580	0.175867	0.155798
Zn9	Zn	0.958449	0.162434	-0.026690
O10	O	0.971207	0.350962	0.135075
C11	C	0.812112	0.177550	0.054894
C12	C	0.724240	0.174872	0.048954
C13	C	0.680120	0.179170	0.121665
C14	C	0.597553	0.176635	0.116086
C15	C	0.559109	0.169812	0.037795
C16	C	0.603235	0.165511	-0.034922
C17	C	0.685799	0.168037	-0.029342
C18	C	0.312481	0.161653	0.013011
C19	C	0.229910	0.159131	0.007436
C20	C	0.224234	0.170253	0.158444
C21	C	0.306801	0.172786	0.164017
C22	C	0.350919	0.168478	0.091301
N23	N	0.474712	0.167225	0.032090
N24	N	0.435313	0.171057	0.097006
C25	C	0.929279	-0.052796	0.062817
C26	C	0.908603	-0.187577	0.061416
C27	C	0.965695	-0.261199	0.065274
C28	C	0.944326	-0.400502	0.063826
C29	C	1.097917	0.160752	0.074213
C30	C	1.185790	0.163428	0.080147
C31	C	0.980750	0.391097	0.066290
C32	C	1.001427	0.525878	0.067685
N33	N	0.946898	0.185035	0.280342
N34	N	0.963137	0.153257	-0.151233
C35	C	0.987178	0.105917	0.326760
C36	C	0.983912	0.112342	0.413946
C37	C	0.940369	0.197890	0.454712
C38	C	0.900083	0.277011	0.408288
C39	C	0.903345	0.270580	0.321103
C40	C	0.926113	0.225947	0.715158
C41	C	0.922856	0.232374	0.802349
C42	C	1.006684	0.067703	0.808001
C43	C	1.009947	0.061284	0.720815
C44	C	0.969657	0.140401	0.674398
N45	N	0.937031	0.204461	0.543830
N46	N	0.972991	0.133823	0.585281
H47	H	0.348392	0.158141	-0.046200
F48	F	0.860470	0.354785	0.271702
H49	H	0.571926	0.159946	-0.098668
H50	H	0.338096	0.178337	0.227770
H51	H	0.864624	0.346663	0.441484
H52	H	1.045403	-0.008376	0.687625
H53	H	0.879623	-0.440597	0.059447
F54	F	0.721028	0.186440	0.204994
H55	H	0.188304	0.173758	0.217646
F56	F	1.050264	-0.208793	0.070986
H57	H	0.561632	0.180114	0.175295
H58	H	0.721722	0.164540	-0.088551
H59	H	1.066133	-0.434034	0.071997
F60	F	1.033528	0.014870	0.283382
F61	F	0.188997	0.151872	-0.075896
H62	H	0.843903	-0.227677	0.057037
F63	F	1.026782	0.028135	0.463348
F64	F	1.049558	-0.016496	0.857406
F65	F	0.876509	0.323435	0.845730
H66	H	0.893310	0.290369	0.677372
