data_functionalizedCrystal
_audit_creation_method	'MofGen! by Chris Wilmer'
_symmetry_space_group_name_H-M	'P1'
_symmetry_Int_Tables_number	1
_symmetry_cell_setting	triclinic
loop_
_symmetry_equiv_pos_as_xyz
  x,y,z
_cell_length_a	14.044220
_cell_length_b	10.654550
_cell_length_c	9.730223
_cell_angle_alpha	90.000193
_cell_angle_beta	89.995496
_cell_angle_gamma	88.836890
loop_
_atom_site_label
_atom_site_type_symbol
_atom_site_fract_x
_atom_site_fract_y
_atom_site_fract_z
O1	O	-1.259693	-0.302980	-0.114137
O2	O	-0.983652	-0.292047	-0.114172
O3	O	-1.128019	-0.115412	-0.114149
O4	O	-1.115326	-0.479615	-0.114161
O5	O	-1.128018	-0.115417	0.114431
O6	O	-0.983650	-0.292052	0.114408
O7	O	-1.259691	-0.302985	0.114443
Zn8	Zn	-1.121671	-0.297519	0.150717
Zn9	Zn	-1.121673	-0.297513	-0.150447
O10	O	-1.115324	-0.479620	0.114419
C11	C	-0.948305	-0.287263	0.000113
C12	C	-0.842986	-0.272988	0.000100
C13	C	-1.127086	-0.068523	0.000139
C14	C	-1.124298	0.071201	0.000134
C15	C	-1.295038	-0.307769	0.000154
C16	C	-1.400358	-0.322044	0.000159
C17	C	-0.650153	-0.246889	0.000128
C18	C	-0.593185	-0.348137	0.000130
C19	C	-0.485886	-0.333615	0.000146
C20	C	-0.757461	-0.261409	0.000112
C21	C	-1.116257	-0.526509	0.000128
C22	C	-1.119045	-0.666233	0.000124
N23	N	-1.121676	-0.297523	0.356254
C24	C	-1.209299	0.142144	0.000149
C25	C	-1.206673	0.273429	0.000139
C26	C	-1.034038	0.262814	0.000105
C27	C	-1.036664	0.131532	0.000105
C28	C	-1.308969	0.148274	0.000175
C29	C	-1.306343	0.279559	0.000165
N30	N	-1.121675	-0.297500	-0.355983
C31	C	-1.185618	-0.219340	0.428190
C32	C	-1.185616	-0.219324	0.572073
C33	C	-1.057725	-0.375686	0.572070
C34	C	-1.057724	-0.375694	0.428190
C35	C	-1.259458	-0.129069	0.428193
C36	C	-1.259455	-0.129054	0.572076
H37	H	-0.624998	-0.445725	0.000121
H38	H	-0.967448	0.073774	0.000074
Cl39	Cl	-0.923876	0.338668	0.000066
Cl40	Cl	-1.223866	0.015353	0.640970
Cl41	Cl	-1.369156	0.096892	-0.147495
H42	H	-1.243262	-0.030909	0.389139
Cl43	Cl	-1.371995	-0.173574	0.632391
H44	H	-1.340707	0.109456	0.098875
Cl45	Cl	-0.601039	-0.096230	0.000135
Cl46	Cl	-1.352848	0.345369	-0.152200
H47	H	-1.343897	0.317543	0.095828
Cl48	Cl	-1.365780	-0.186995	0.359294
H49	H	-1.005649	-0.439345	0.369621
Cl50	Cl	-0.977333	-0.473953	0.662513
