data_functionalizedCrystal
_audit_creation_method	'MofGen! by Chris Wilmer'
_symmetry_space_group_name_H-M	'P1'
_symmetry_Int_Tables_number	1
_symmetry_cell_setting	triclinic
loop_
_symmetry_equiv_pos_as_xyz
  x,y,z
_cell_length_a	15.944551
_cell_length_b	15.944551
_cell_length_c	15.021413
_cell_angle_alpha	90.003065
_cell_angle_beta	89.997174
_cell_angle_gamma	83.498738
loop_
_atom_site_label
_atom_site_type_symbol
_atom_site_fract_x
_atom_site_fract_y
_atom_site_fract_z
O1	O	1.114529	0.108321	-0.073941
O2	O	1.614529	0.608321	0.426059
O3	O	0.869979	0.121677	-0.073964
O4	O	1.369979	0.621677	0.426036
O5	O	0.998932	-0.007276	-0.073944
O6	O	1.498932	0.492724	0.426056
O7	O	0.985576	0.237274	-0.073961
O8	O	1.485576	0.737274	0.426039
O9	O	0.998912	-0.007257	0.074121
O10	O	1.498912	0.492743	0.574121
O11	O	0.869959	0.121695	0.074101
O12	O	1.369959	0.621695	0.574101
O13	O	1.114508	0.108339	0.074123
O14	O	1.614508	0.608339	0.574123
Zn15	Zn	0.992230	0.115020	0.097620
Zn16	Zn	1.492230	0.615020	0.597620
Zn17	Zn	0.992257	0.114996	-0.097461
Zn18	Zn	1.492257	0.614996	0.402539
O19	O	0.985555	0.237292	0.074103
O20	O	1.485555	0.737292	0.574103
C21	C	0.838675	0.121132	0.000066
C22	C	1.338675	0.621132	0.500066
C23	C	0.745429	0.119470	0.000057
C24	C	1.245429	0.619470	0.500057
C25	C	0.530572	0.035565	0.000081
C26	C	1.030572	0.535565	0.500081
C27	C	0.469562	0.074518	-0.072926
C28	C	0.969562	0.574518	0.427074
C29	C	0.574703	0.116462	0.000068
C30	C	1.074703	0.616462	0.500068
C31	C	0.469564	0.074556	0.073054
C32	C	0.969564	0.574556	0.573054
C33	C	0.409790	0.113551	0.000083
C34	C	0.909790	0.613551	0.500083
C35	C	0.514921	0.155438	-0.072998
C36	C	1.014921	0.655438	0.427002
C37	C	0.514930	0.155464	0.073047
C38	C	1.014930	0.655464	0.573047
C39	C	0.453937	0.194476	0.000023
C40	C	0.953937	0.694476	0.500023
C41	C	0.669705	0.118137	0.000059
C42	C	1.169705	0.618137	0.500059
C43	C	0.314789	0.111883	0.000085
C44	C	0.814789	0.611883	0.500085
C45	C	0.998367	-0.038561	0.000089
C46	C	1.498367	0.461439	0.500089
C47	C	0.996705	-0.131807	0.000089
C48	C	1.496705	0.368193	0.500089
C49	C	0.912801	-0.346663	0.000069
C50	C	1.412801	0.153337	0.500069
C51	C	0.951753	-0.407672	0.073077
C52	C	1.451753	0.092328	0.573077
C53	C	0.993698	-0.302533	0.000082
C54	C	1.493698	0.197467	0.500082
C55	C	0.951792	-0.407673	-0.072903
C56	C	1.451792	0.092327	0.427097
C57	C	0.990787	-0.467445	0.000071
C58	C	1.490787	0.032555	0.500071
C59	C	1.032672	-0.362313	0.073150
C60	C	1.532672	0.137687	0.573150
C61	C	1.032700	-0.362308	-0.072895
C62	C	1.532700	0.137692	0.427105
C63	C	1.071711	-0.423298	0.000131
C64	C	1.571711	0.076702	0.500131
C65	C	0.995372	-0.207530	0.000089
C66	C	1.495372	0.292470	0.500089
C67	C	0.989119	-0.562446	0.000070
C68	C	1.489119	-0.062446	0.500070
C69	C	1.145813	0.108885	0.000092
C70	C	1.645813	0.608885	0.500092
C71	C	1.239059	0.110547	0.000094
C72	C	1.739059	0.610547	0.500094
C73	C	0.986120	0.268577	0.000069
C74	C	1.486120	0.768577	0.500069
C75	C	0.987782	0.361823	0.000063
C76	C	1.487782	0.861823	0.500063
N77	N	0.992218	0.115036	0.230758
N78	N	1.492218	0.615036	0.730758
N79	N	0.992276	0.114973	-0.230598
N80	N	1.492276	0.614973	0.269402
C81	C	0.932581	0.174636	0.470432
C82	C	1.432581	0.674636	0.970432
C83	C	1.008481	0.190943	0.529772
C84	C	1.508481	0.690943	1.029772
C85	C	0.992239	0.115015	0.412365
C86	C	1.492239	0.615015	0.912365
C87	C	0.916360	0.098727	0.529766
C88	C	1.416360	0.598727	1.029766
C89	C	0.992253	0.114997	0.587789
C90	C	1.492253	0.614997	1.087789
C91	C	1.068178	0.131360	0.470398
C92	C	1.568178	0.631360	0.970398
C93	C	0.976006	0.039111	0.470387
C94	C	1.476006	0.539111	0.970387
C95	C	1.051962	0.055386	0.529701
C96	C	1.551962	0.555386	1.029701
C97	C	0.992230	0.115028	0.311307
C98	C	1.492230	0.615028	0.811307
C99	C	0.992271	0.114984	0.688844
C100	C	1.492271	0.614984	1.188844
H101	H	0.449461	0.040295	-0.134642
H102	H	0.949461	0.540295	0.365358
O103	O	0.410019	0.283500	-0.000035
O104	O	0.910019	0.783500	0.499965
H105	H	0.340641	0.281655	0.000547
H106	H	0.840641	0.781655	0.500547
O107	O	1.077952	-0.335828	0.154996
O108	O	1.577952	0.164172	0.654996
H109	H	1.099244	-0.392389	0.195636
H110	H	1.599244	0.107611	0.695636
O111	O	1.153210	0.149700	0.436015
O112	O	1.653210	0.649700	0.936015
H113	H	1.145288	0.207903	0.394909
H114	H	1.645288	0.707903	0.894909
O115	O	0.541415	0.200688	-0.154860
O116	O	1.041415	0.700688	0.345140
H117	H	0.572970	0.256215	-0.134434
H118	H	1.072970	0.756215	0.365566
H119	H	1.138919	-0.456457	0.000178
H120	H	1.638919	0.043543	0.500178
H121	H	0.852184	0.084959	0.555847
H122	H	1.352184	0.584959	1.055847
O123	O	0.865819	0.241473	0.435958
O124	O	1.365819	0.741473	0.935958
H125	H	0.819489	0.211211	0.395315
H126	H	1.319489	0.711211	0.895315
H127	H	1.102474	0.004956	0.555561
H128	H	1.602474	0.504956	1.055561
O129	O	0.957777	-0.045877	0.435796
O130	O	1.457777	0.454123	0.935796
H131	H	0.894718	-0.059247	0.459529
H132	H	1.394718	0.440753	0.959529
O133	O	1.078046	-0.335680	-0.154630
O134	O	1.578046	0.164320	0.345370
H135	H	1.079418	-0.266243	-0.153540
H136	H	1.579418	0.233757	0.346460
H137	H	0.535052	0.189659	0.134767
H138	H	1.035052	0.689659	0.634767
O139	O	0.442950	0.029236	0.154817
O140	O	0.942950	0.529236	0.654817
H141	H	0.473954	-0.036700	0.154662
H142	H	0.973954	0.463300	0.654662
O143	O	0.906422	-0.434295	0.154830
O144	O	1.406422	0.065705	0.654830
H145	H	0.906139	-0.503874	0.154406
H146	H	1.406139	-0.003874	0.654406
O147	O	0.574659	-0.053393	0.000028
O148	O	1.074659	0.446607	0.500028
H149	H	0.556599	-0.086788	-0.060653
H150	H	1.056599	0.413212	0.439347
H151	H	0.845652	-0.313356	0.000136
H152	H	1.345652	0.186644	0.500136
H153	H	0.917574	-0.427758	-0.134630
H154	H	1.417574	0.072242	0.365370
H155	H	1.022224	0.255126	0.555856
H156	H	1.522224	0.755126	1.055856
