data_functionalizedCrystal
_audit_creation_method	'MofGen! by Chris Wilmer'
_symmetry_space_group_name_H-M	'P1'
_symmetry_Int_Tables_number	1
_symmetry_cell_setting	triclinic
loop_
_symmetry_equiv_pos_as_xyz
  x,y,z
_cell_length_a	21.395362
_cell_length_b	18.101395
_cell_length_c	21.395364
_cell_angle_alpha	90.009348
_cell_angle_beta	90.027061
_cell_angle_gamma	90.046983
loop_
_atom_site_label
_atom_site_type_symbol
_atom_site_fract_x
_atom_site_fract_y
_atom_site_fract_z
Zn1	Zn	0.957753	-0.294648	0.354598
Zn2	Zn	0.957686	-0.418458	0.249825
Zn3	Zn	0.852999	-0.294669	0.249799
Zn4	Zn	0.852937	-0.418487	0.354530
O5	O	0.905344	-0.356565	0.302188
O6	O	1.045422	-0.311051	0.340739
O7	O	0.943797	-0.402033	0.162144
O8	O	0.866949	-0.191033	0.263718
O9	O	1.045373	-0.402013	0.263763
O10	O	0.943912	-0.191018	0.340713
O11	O	0.866884	-0.311086	0.162124
O12	O	0.765313	-0.311114	0.263652
O13	O	0.866843	-0.402063	0.442217
O14	O	0.765267	-0.402083	0.340598
O15	O	0.943851	-0.311079	0.442266
O16	O	0.943736	-0.522095	0.263697
O17	O	0.866778	-0.522116	0.340623
C18	C	0.742556	-0.356605	0.302115
C19	C	0.672915	-0.356639	0.302099
C20	C	0.640194	-0.404069	0.342104
C21	C	0.574759	-0.404051	0.342132
C22	C	0.542047	-0.356611	0.302144
C23	C	0.574775	-0.309171	0.262135
C24	C	0.640209	-0.309186	0.262113
C25	C	0.438338	-0.350637	0.245738
C26	C	0.372906	-0.350628	0.245759
C27	C	0.340226	-0.356562	0.302213
C28	C	0.372987	-0.362521	0.358647
C29	C	0.438421	-0.362535	0.358624
C30	C	0.471094	-0.356590	0.302164
C31	C	0.236553	-0.403975	0.342252
C32	C	0.171116	-0.403952	0.342281
C33	C	0.171134	-0.309076	0.262278
C34	C	0.236569	-0.309096	0.262255
C35	C	0.269275	-0.356549	0.302241
C36	C	0.905260	-0.548976	0.302169
C37	C	0.905281	-0.631290	0.302182
C38	C	0.905419	-0.930381	0.302216
C39	C	0.857111	-0.899100	0.350736
C40	C	0.856881	-0.813482	0.350584
C41	C	0.905351	-0.781999	0.302200
C42	C	0.887487	-0.813131	0.236161
C43	C	0.887176	-0.898777	0.236451
C44	C	0.971696	-0.898709	0.319154
C45	C	0.971306	-0.813059	0.320602
C46	C	0.905313	-0.698139	0.302187
C47	C	0.905455	-1.014240	0.302225
C48	C	1.068767	-0.356527	0.302261
C49	C	1.138408	-0.356510	0.302292
C50	C	0.905348	-0.356572	0.465611
C51	C	0.905349	-0.356575	0.535252
C52	C	0.905445	-0.163403	0.302220
C53	C	0.905488	-0.081089	0.302234
C54	C	0.945392	-0.403915	1.037059
C55	C	0.945391	-0.403921	0.971624
C56	C	0.905348	-0.356570	0.938891
C57	C	0.865292	-0.309223	0.971598
C58	C	0.865290	-0.309225	1.037033
C59	C	0.900438	-0.289847	0.835231
C60	C	0.900445	-0.289845	0.769798
C61	C	0.905350	-0.356566	0.737070
C62	C	0.910262	-0.423292	0.769783
C63	C	0.910260	-0.423293	0.835217
C64	C	0.905345	-0.356563	0.867938
C65	C	0.945399	-0.403919	0.633417
C66	C	0.945393	-0.403925	0.567981
C67	C	0.865298	-0.309221	0.567957
C68	C	0.865300	-0.309222	0.633392
C69	C	0.905354	-0.356569	0.666119
C70	C	0.905338	-0.356575	1.139400
C71	C	0.905344	-0.356572	1.069759
H72	H	0.144476	-0.442574	0.374862
H73	H	0.868174	-0.919662	0.399862
H74	H	0.978012	-0.442474	0.660065
H75	H	0.263183	-0.442611	0.374814
C76	C	0.821783	-0.257932	0.532347
C77	C	0.781615	-0.299875	0.494745
C78	C	0.741523	-0.252654	0.461924
H79	H	0.797873	-0.229717	0.561125
H80	H	0.845748	-0.225668	0.506800
H81	H	0.757652	-0.332126	0.520290
H82	H	0.805508	-0.328089	0.465955
H83	H	0.765488	-0.220390	0.436377
H84	H	0.717617	-0.224441	0.490707
H85	H	0.714268	-0.281105	0.436403
H86	H	0.832691	-0.270667	0.660017
C87	C	0.791345	-0.786404	0.335573
C88	C	0.751800	-0.847159	0.326607
C89	C	0.691425	-0.822244	0.312765
H90	H	0.776204	-0.757291	0.369253
H91	H	0.792355	-0.757412	0.298576
H92	H	0.750788	-0.876139	0.363600
H93	H	0.766921	-0.876278	0.292925
H94	H	0.692435	-0.793252	0.275767
H95	H	0.676290	-0.793131	0.346447
H96	H	0.664587	-0.863462	0.306674
H97	H	0.144500	-0.270446	0.229721
H98	H	0.838728	-0.918830	0.222106
H99	H	0.832687	-0.270671	0.944943
H100	H	0.868056	-0.792433	0.399551
C101	C	0.675771	-0.257600	0.218776
C102	C	0.713398	-0.210198	0.254309
C103	C	0.746161	-0.162663	0.214407
H104	H	0.701300	-0.285800	0.191413
H105	H	0.646939	-0.229298	0.194975
H106	H	0.742226	-0.238498	0.278099
H107	H	0.687885	-0.181983	0.281670
H108	H	0.717330	-0.134360	0.190607
H109	H	0.771686	-0.190869	0.187046
H110	H	0.771690	-0.130491	0.238510
C111	C	0.932970	-0.785829	0.186722
C112	C	0.977977	-0.740438	0.214766
C113	C	1.019881	-0.715265	0.169243
H114	H	0.952959	-0.826862	0.167616
H115	H	0.910874	-0.758494	0.155928
H116	H	1.000071	-0.767772	0.245550
H117	H	0.958007	-0.699394	0.233868
H118	H	0.997785	-0.687931	0.138448
H119	H	1.039866	-0.756303	0.150140
H120	H	1.050420	-0.684460	0.188263
C121	C	0.931964	-0.926348	0.186511
C122	C	0.912694	-0.900327	0.127975
C123	C	0.953928	-0.925722	0.081957
H124	H	0.972895	-0.908747	0.195192
H125	H	0.932066	-0.978832	0.186314
H126	H	0.912598	-0.847853	0.128173
H127	H	0.871769	-0.917925	0.119275
H128	H	0.954031	-0.978207	0.081760
H129	H	0.994857	-0.908120	0.090644
H130	H	0.940856	-0.908077	0.042235
C131	C	0.271985	-0.257576	0.218746
C132	C	0.229335	-0.216038	0.183719
C133	C	0.261937	-0.168573	0.143626
H134	H	0.297561	-0.225294	0.242682
H135	H	0.297451	-0.285844	0.191362
H136	H	0.203880	-0.187772	0.211099
H137	H	0.203758	-0.248300	0.159769
H138	H	0.287403	-0.196841	0.116242
H139	H	0.287512	-0.136296	0.167568
H140	H	0.233004	-0.140389	0.119851
C141	C	0.988912	-0.455210	0.532394
C142	C	1.029076	-0.413264	0.494839
C143	C	1.069169	-0.460483	0.462041
H144	H	1.012826	-0.483424	0.561186
H145	H	0.964947	-0.487476	0.506817
H146	H	1.053039	-0.381012	0.520414
H147	H	1.005180	-0.385052	0.466036
H148	H	1.045204	-0.492749	0.436464
H149	H	1.093078	-0.488694	0.490837
H150	H	1.096421	-0.432030	0.436551
H151	H	0.839553	-0.791757	0.221559
C152	C	0.337424	-0.344271	0.184434
C153	C	0.353277	-0.403638	0.145612
C154	C	0.320613	-0.397802	0.089108
H155	H	0.293763	-0.345145	0.192435
H156	H	0.348183	-0.299168	0.164431
H157	H	0.342513	-0.448730	0.165610
H158	H	0.396932	-0.402776	0.137593
H159	H	0.331373	-0.352699	0.069106
H160	H	0.276955	-0.398675	0.097116
H161	H	0.331370	-0.438077	0.062759
H162	H	0.465093	-0.367385	0.404575
H163	H	0.984777	-0.792709	0.369204
H164	H	0.464941	-0.345802	0.199764
H165	H	0.548113	-0.442674	0.374712
H166	H	0.896448	-0.235512	0.743168
C167	C	0.993293	-0.927501	0.382300
C168	C	0.947457	-0.974252	0.407174
C169	C	0.967318	-1.000781	0.465348
H170	H	1.031182	-0.954170	0.377319
H171	H	0.999957	-0.887110	0.409876
H172	H	0.940800	-1.014637	0.379604
H173	H	0.909564	-0.947599	0.412170
H174	H	0.973983	-0.960390	0.492924
H175	H	1.005209	-1.027447	0.460361
H176	H	0.936220	-1.032499	0.482235
C177	C	0.675589	-0.455612	0.385590
C178	C	0.632923	-0.497132	0.420643
C179	C	0.665507	-0.544612	0.460714
H180	H	0.701072	-0.487905	0.361636
H181	H	0.701147	-0.427356	0.412958
H182	H	0.607376	-0.525385	0.393278
H183	H	0.607439	-0.464858	0.444609
H184	H	0.691065	-0.516356	0.488083
H185	H	0.690989	-0.576900	0.436756
H186	H	0.636564	-0.572784	0.484507
H187	H	1.009201	-0.791622	0.287840
H188	H	1.007687	-0.918934	0.283816
C189	C	0.821785	-0.257736	1.072426
C190	C	0.786725	-0.216256	1.029759
C191	C	0.746649	-0.168809	1.062342
H192	H	0.794418	-0.285990	1.097939
H193	H	0.845756	-0.225421	1.097953
H194	H	0.762756	-0.248567	1.004243
H195	H	0.814076	-0.187987	1.004245
H196	H	0.770620	-0.136494	1.087868
H197	H	0.719286	-0.197069	1.087853
H198	H	0.722860	-0.140654	1.033397
H199	H	0.346381	-0.367352	0.404616
C200	C	0.895013	-0.217358	0.870684
C201	C	0.838781	-0.182614	0.854736
C202	C	0.833766	-0.115836	0.887377
H203	H	0.895675	-0.226817	0.914348
H204	H	0.929092	-0.186161	0.859970
H205	H	0.804711	-0.213805	0.865455
H206	H	0.838107	-0.173137	0.811078
H207	H	0.867845	-0.084639	0.876662
H208	H	0.834430	-0.125302	0.931039
H209	H	0.795616	-0.092251	0.876556
C210	C	0.539344	-0.257708	0.218614
C211	C	0.555213	-0.273708	0.156595
C212	C	0.522594	-0.226304	0.116487
H213	H	0.495677	-0.264445	0.224268
H214	H	0.550130	-0.207956	0.227817
H215	H	0.544423	-0.323447	0.147395
H216	H	0.598874	-0.266967	0.150921
H217	H	0.533380	-0.176553	0.125689
H218	H	0.478929	-0.233045	0.122146
H219	H	0.533361	-0.237149	0.074403
C220	C	0.988896	-0.455408	1.072477
C221	C	1.023956	-0.496885	1.029828
C222	C	1.064031	-0.544336	1.062434
H223	H	1.016264	-0.427156	1.098025
H224	H	0.964925	-0.487724	1.097970
H225	H	1.047926	-0.464573	1.004346
H226	H	0.996605	-0.525152	1.004279
H227	H	1.040060	-0.576652	1.087927
H228	H	1.091395	-0.516078	1.087981
H229	H	1.087820	-0.572488	1.033502
H230	H	0.808283	-0.920698	0.339656
H231	H	0.978012	-0.442464	0.944994
C232	C	0.915560	-0.495814	0.870621
C233	C	0.919841	-0.554252	0.827961
C234	C	0.924712	-0.621069	0.860552
H235	H	0.951875	-0.494948	0.896169
H236	H	0.879635	-0.502370	0.896113
H237	H	0.955763	-0.547697	0.802479
H238	H	0.883531	-0.555141	0.802411
H239	H	0.888788	-0.627626	0.886044
H240	H	0.961027	-0.620196	0.886099
H241	H	0.927612	-0.660728	0.831612
C242	C	0.915461	-0.495735	0.734232
C243	C	0.862460	-0.505180	0.696653
C244	C	0.867227	-0.571909	0.663902
H245	H	0.951743	-0.494841	0.708672
H246	H	0.918354	-0.535491	0.763071
H247	H	0.859573	-0.465435	0.667818
H248	H	0.826170	-0.506088	0.722197
H249	H	0.870120	-0.611665	0.692741
H250	H	0.903510	-0.571009	0.638345
H251	H	0.831265	-0.578330	0.638405
