data_functionalizedCrystal
_audit_creation_method	'MofGen! by Chris Wilmer'
_symmetry_space_group_name_H-M	'P1'
_symmetry_Int_Tables_number	1
_symmetry_cell_setting	triclinic
loop_
_symmetry_equiv_pos_as_xyz
  x,y,z
_cell_length_a	16.974823
_cell_length_b	23.532407
_cell_length_c	16.053802
_cell_angle_alpha	87.440303
_cell_angle_beta	91.088171
_cell_angle_gamma	96.877748
loop_
_atom_site_label
_atom_site_type_symbol
_atom_site_fract_x
_atom_site_fract_y
_atom_site_fract_z
O1	O	-0.092341	0.758193	-0.075564
O2	O	0.407659	1.258193	0.424436
O3	O	-0.106183	0.592408	-0.076524
O4	O	0.393817	1.092408	0.423476
O5	O	0.015504	0.679655	-0.068283
O6	O	0.515504	1.179655	0.431717
O7	O	-0.214028	0.670946	-0.083804
O8	O	0.285972	1.170946	0.416196
O9	O	0.008833	0.674852	0.070124
O10	O	0.508833	1.174852	0.570124
O11	O	-0.112853	0.587606	0.061884
O12	O	0.387147	1.087606	0.561884
O13	O	-0.099011	0.753390	0.062843
O14	O	0.400989	1.253390	0.562843
Zn15	Zn	-0.106992	0.669735	0.084339
Zn16	Zn	0.393008	1.169735	0.584339
Zn17	Zn	-0.098203	0.676063	-0.098019
Zn18	Zn	0.401797	1.176063	0.401981
O19	O	-0.220698	0.666143	0.054603
O20	O	0.279302	1.166143	0.554603
C21	C	-0.109165	0.568789	-0.007299
C22	C	0.390835	1.068789	0.492701
C23	C	-0.108105	0.505566	-0.007237
C24	C	0.391895	1.005566	0.492763
C25	C	0.041529	0.676833	0.002903
C26	C	0.541529	1.176833	0.502903
C27	C	0.129012	0.675575	0.008813
C28	C	0.629012	1.175575	0.508813
C29	C	0.173744	0.677602	-0.063856
C30	C	0.673744	1.177602	0.436144
C31	C	0.255944	0.676416	-0.058301
C32	C	0.755944	1.176416	0.441699
C33	C	0.293411	0.673206	0.019924
C34	C	0.793411	1.173206	0.519924
C35	C	0.248673	0.671176	0.092598
C36	C	0.748673	1.171176	0.592598
C37	C	0.166474	0.672359	0.087042
C38	C	0.666474	1.172359	0.587042
C39	C	0.538858	0.669384	0.044631
C40	C	1.038858	1.169384	0.544631
C41	C	0.621063	0.668204	0.050181
C42	C	1.121063	1.168204	0.550181
C43	C	0.628328	0.673442	-0.100718
C44	C	1.128328	1.173442	0.399282
C45	C	0.546128	0.674628	-0.106268
C46	C	1.046128	1.174628	0.393732
C47	C	0.501397	0.672595	-0.033593
C48	C	1.001397	1.172595	0.466407
N49	N	0.377432	0.671994	0.025604
N50	N	0.877432	1.171994	0.525604
N51	N	0.417376	0.673803	-0.039274
N52	N	0.917376	1.173803	0.460726
C53	C	-0.173471	0.106830	-0.011619
C54	C	0.326529	0.606830	0.488381
C55	C	-0.172487	0.047424	-0.011547
C56	C	0.327513	0.547424	0.488453
O57	O	-0.233082	0.011020	-0.015614
O58	O	0.266918	0.511020	0.484386
N59	N	-0.100144	0.024390	-0.006657
N60	N	0.399856	0.524390	0.493343
C61	C	-0.028781	0.060766	-0.001830
C62	C	0.471219	0.560766	0.498170
O63	O	0.032843	0.035719	0.002337
O64	O	0.532843	0.535719	0.502337
C65	C	-0.029766	0.120170	-0.001895
C66	C	0.470234	0.620170	0.498105
C67	C	-0.102114	0.143201	-0.006794
C68	C	0.397886	0.643201	0.493206
C69	C	-0.245813	0.129862	-0.016517
C70	C	0.254187	0.629862	0.483483
C71	C	-0.246797	0.189264	-0.016590
C72	C	0.253203	0.689264	0.483410
C73	C	-0.175439	0.225634	-0.011765
C74	C	0.324561	0.725634	0.488235
C75	C	-0.103098	0.202603	-0.006868
C76	C	0.396902	0.702603	0.493132
C77	C	0.041596	0.156544	0.002938
C78	C	0.541596	0.656544	0.502938
C79	C	0.040604	0.215952	0.002872
C80	C	0.540604	0.715952	0.502872
C81	C	-0.031744	0.238983	-0.002027
C82	C	0.468256	0.738983	0.497973
C83	C	-0.032724	0.298375	-0.002116
C84	C	0.467276	0.798375	0.497884
N85	N	-0.105067	0.321409	-0.007006
N86	N	0.394933	0.821409	0.492994
C87	C	-0.176425	0.285039	-0.011831
C88	C	0.323575	0.785039	0.488169
C89	C	-0.026717	-0.063989	-0.001690
C90	C	0.473283	0.436011	0.498310
C91	C	-0.025730	-0.123392	-0.001630
C92	C	0.474270	0.376608	0.498370
C93	C	-0.169437	-0.136729	-0.011347
C94	C	0.330563	0.363271	0.488653
C95	C	-0.170423	-0.077324	-0.011412
C96	C	0.329577	0.422676	0.488588
C97	C	-0.099060	-0.040955	-0.006581
C98	C	0.400940	0.459045	0.493419
C99	C	-0.178485	0.409788	-0.011985
C100	C	0.321515	0.909788	0.488015
C101	C	-0.179463	0.469196	-0.012061
C102	C	0.320537	0.969196	0.487939
C103	C	-0.035757	0.482527	-0.002341
C104	C	0.464243	0.982527	0.497659
C105	C	-0.034779	0.423125	-0.002269
C106	C	0.465221	0.923125	0.497731
C107	C	-0.106150	0.386756	-0.007089
C108	C	0.393850	0.886756	0.492911
O109	O	0.027839	0.334814	0.001952
O110	O	0.527839	0.834814	0.501952
O111	O	-0.238039	0.310094	-0.015986
O112	O	0.261961	0.810094	0.484014
C113	C	0.753277	0.668967	-0.016582
C114	C	1.253277	1.168967	0.483418
C115	C	0.665794	0.670231	-0.022487
C116	C	1.165794	1.170231	0.477513
C117	C	-0.096029	0.777009	-0.006383
C118	C	0.403971	1.277009	0.493617
C119	C	-0.097089	0.840232	-0.006451
C120	C	0.402911	1.340232	0.493549
N121	N	-0.112989	0.665421	0.208793
N122	N	0.387011	1.165421	0.708793
N123	N	-0.092199	0.680381	-0.222473
N124	N	0.407801	1.180381	0.277527
C125	C	-0.061229	0.702559	0.255992
C126	C	0.438771	1.202559	0.755992
C127	C	-0.065432	0.699546	0.343114
C128	C	0.434568	1.199546	0.843114
C129	C	-0.121399	0.659399	0.383035
C130	C	0.378601	1.159399	0.883035
C131	C	-0.173161	0.622258	0.335830
C132	C	0.326839	1.122258	0.835830
C133	C	-0.168954	0.625268	0.248710
C134	C	0.331046	1.125268	0.748710
C135	C	-0.139754	0.646250	0.643202
C136	C	0.360246	1.146250	1.143202
C137	C	-0.143959	0.643244	0.730329
C138	C	0.356041	1.143244	1.230329
C139	C	-0.036228	0.720532	0.737606
C140	C	0.463772	1.220532	1.237606
C141	C	-0.032029	0.723541	0.650484
C142	C	0.467971	1.223541	1.150484
C143	C	-0.083789	0.686398	0.603287
C144	C	0.416211	1.186398	1.103287
N145	N	-0.125698	0.656320	0.472088
N146	N	0.374302	1.156320	0.972088
N147	N	-0.079485	0.689475	0.514236
N148	N	0.420515	1.189475	1.014236
H149	H	0.292361	0.678069	-0.117476
H150	H	0.792361	1.178069	0.382524
H151	H	0.651565	0.665587	0.113885
H152	H	1.151565	1.165587	0.613885
H153	H	-0.023285	0.729786	0.381543
H154	H	0.476715	1.229786	0.881543
H155	H	0.100508	0.137803	0.006928
H156	H	0.600508	0.637803	0.506928
H157	H	0.143245	0.680219	-0.127555
H158	H	0.643245	1.180219	0.372445
N159	N	-0.255456	0.370560	-0.017190
N160	N	0.244544	0.870560	0.482810
H161	H	-0.260726	0.343841	0.033931
H162	H	0.239274	0.843841	0.533931
H163	H	-0.301387	0.394207	-0.020333
H164	H	0.198613	0.894207	0.479667
N165	N	-0.322798	0.090654	-0.021717
N166	N	0.177202	0.590654	0.478283
H167	H	-0.323140	0.067485	-0.073214
H168	H	0.176860	0.567485	0.426786
H169	H	-0.328039	0.063969	0.029438
H170	H	0.171961	0.563969	0.529438
H171	H	0.005912	0.750772	0.776042
H172	H	0.505912	1.250772	1.276042
H173	H	0.130053	0.670699	0.146217
H174	H	0.630053	1.170699	0.646217
H175	H	-0.305709	0.208009	-0.020579
H176	H	0.194291	0.708009	0.479421
H177	H	0.033183	-0.142137	0.002346
H178	H	0.533183	0.357863	0.502346
N179	N	-0.248453	-0.052486	-0.016699
N180	N	0.251547	0.447514	0.483301
H181	H	-0.293504	-0.084546	-0.019748
H182	H	0.206496	0.415454	0.480252
H183	H	-0.254472	-0.029907	0.034371
H184	H	0.245528	0.470093	0.534371
N185	N	0.117575	0.255179	0.008089
N186	N	0.617575	0.755179	0.508089
H187	H	0.163550	0.231571	0.011204
H188	H	0.663550	0.731571	0.511204
H189	H	0.122776	0.281893	-0.043036
H190	H	0.622776	0.781893	0.456964
N191	N	0.490619	0.667199	0.123012
N192	N	0.990619	1.167199	0.623012
H193	H	0.526831	0.664991	0.173407
H194	H	1.026831	1.164991	0.673407
H195	H	0.463022	0.702849	0.124446
H196	H	0.963022	1.202849	0.624446
H197	H	-0.189537	0.610549	0.762828
H198	H	0.310463	1.110549	1.262828
N199	N	0.050257	-0.024762	0.003517
N200	N	0.550257	0.475238	0.503517
H201	H	0.096230	-0.048373	0.006625
H202	H	0.596230	0.451627	0.506625
H203	H	0.055457	0.001953	-0.047607
H204	H	0.555457	0.501953	0.452393
H205	H	-0.227541	-0.166353	-0.015271
H206	H	0.272459	0.333647	0.484729
H207	H	0.664757	0.675096	-0.159886
H208	H	1.164757	1.175096	0.340114
N209	N	0.041205	0.521761	0.002863
N210	N	0.541205	1.021761	0.502863
H211	H	0.029596	0.562887	0.002078
H212	H	0.529596	1.062887	0.502078
H213	H	0.070275	0.512515	0.056310
H214	H	0.570275	1.012515	0.556310
N215	N	-0.195573	0.606188	0.592303
N216	N	0.304427	1.106188	1.092303
H217	H	-0.231665	0.580299	0.630815
H218	H	0.268335	1.080299	1.130815
H219	H	-0.228520	0.629285	0.553797
H220	H	0.271480	1.129285	1.053797
N221	N	0.043251	0.398281	0.002999
N222	N	0.543251	0.898281	0.502999
H223	H	0.088306	0.430338	0.006040
H224	H	0.588306	0.930338	0.506040
H225	H	0.044319	0.372152	0.054553
H226	H	0.544319	0.872152	0.554553
H227	H	-0.015659	0.735253	0.223494
H228	H	0.484341	1.235253	0.723494
N229	N	0.028334	0.766844	0.607427
N230	N	0.528334	1.266844	1.107427
H231	H	0.060487	0.789913	0.650548
H232	H	0.560487	1.289913	1.150548
H233	H	0.064769	0.746238	0.573634
H234	H	0.564769	1.246238	1.073634
N235	N	-0.233521	0.578951	0.378884
N236	N	0.266479	1.078951	0.878884
H237	H	-0.228334	0.582679	0.441236
H238	H	0.271666	1.082679	0.941236
H239	H	-0.288651	0.586138	0.359869
H240	H	0.211349	1.086138	0.859869
N241	N	-0.257497	0.494036	-0.017354
N242	N	0.242503	0.994036	0.482646
H243	H	-0.302550	0.461978	-0.020398
H244	H	0.197450	0.961978	0.479602
H245	H	-0.263514	0.516620	0.033711
H246	H	0.236486	1.016620	0.533711
N247	N	-0.224776	0.585210	0.197798
N248	N	0.275224	1.085210	0.697798
H249	H	-0.260870	0.559320	0.236306
H250	H	0.239130	1.059320	0.736306
H251	H	-0.257721	0.608310	0.159294
H252	H	0.242279	1.108310	0.659294
H253	H	0.515628	0.677243	-0.169967
H254	H	1.015628	1.177243	0.330033
H255	H	0.279184	0.668559	0.156291
H256	H	0.779184	1.168559	0.656291
