data_functionalizedCrystal
_audit_creation_method	'MofGen! by Chris Wilmer'
_symmetry_space_group_name_H-M	'P1'
_symmetry_Int_Tables_number	1
_symmetry_cell_setting	triclinic
loop_
_symmetry_equiv_pos_as_xyz
  x,y,z
_cell_length_a	23.196402
_cell_length_b	16.704494
_cell_length_c	23.196401
_cell_angle_alpha	90.013666
_cell_angle_beta	60.007332
_cell_angle_gamma	56.636520
loop_
_atom_site_label
_atom_site_type_symbol
_atom_site_fract_x
_atom_site_fract_y
_atom_site_fract_z
Zr1	Zr	0.570704	0.815267	-0.045489
O2	O	0.700957	0.680135	-0.142532
O3	O	0.447381	0.856680	-0.015744
O4	O	0.567645	0.856656	-0.136011
O5	O	0.580688	0.680192	0.072607
O6	O	0.557350	0.995913	-0.130862
O7	O	0.580692	0.680159	-0.022266
O8	O	0.342218	0.995956	0.084273
O9	O	0.795820	0.680149	-0.142528
O10	O	0.487855	0.978283	0.000789
O11	O	0.495536	0.874382	0.067749
O12	O	0.637132	0.874353	-0.073850
O13	O	0.644813	0.770452	-0.006890
Zr14	Zr	0.554278	1.037419	0.114033
Zr15	Zr	0.554284	1.037366	-0.037278
Zr16	Zr	0.570698	0.815320	0.105822
Zr17	Zr	0.722000	0.815289	-0.045483
Zr18	Zr	0.402982	1.037396	0.114026
O19	O	0.677601	0.996006	0.084288
O20	O	0.677610	0.995930	-0.130857
O21	O	0.700948	0.680210	0.072612
O22	O	0.424025	1.172551	0.211076
O23	O	0.424033	1.172476	-0.004068
O24	O	0.447372	0.856756	0.199401
O25	O	0.544293	1.172494	-0.004063
O26	O	0.557336	0.996030	0.204554
O27	O	0.567632	0.856773	0.199406
O28	O	0.544289	1.172527	0.090809
O29	O	0.782768	0.856688	-0.136002
O30	O	0.342213	0.995998	0.204545
O31	O	0.329162	1.172537	0.211072
O32	O	0.329167	1.172495	0.090800
O33	O	0.795815	0.680191	-0.022256
O34	O	0.782763	0.856730	-0.015730
O35	O	0.487849	0.978333	0.142393
O36	O	0.480169	1.082234	0.075433
O37	O	0.629446	0.978304	0.000795
O38	O	0.637126	0.874403	0.067755
C39	C	0.373243	0.926315	0.034264
C40	C	0.309014	0.926305	0.034261
C41	C	0.220912	1.003042	0.089359
C42	C	0.160550	1.003049	0.089365
C43	C	0.188297	0.926327	0.034264
C44	C	0.276414	0.849577	-0.020839
C45	C	0.336773	0.849566	-0.020840
C46	C	0.134478	0.902418	-0.030412
C47	C	0.074118	0.902436	-0.030411
C48	C	0.002133	0.926355	0.034268
C49	C	-0.009496	0.950279	0.098950
C50	C	0.050863	0.950268	0.098949
C51	C	0.122854	0.926330	0.034260
C52	C	-0.151424	1.003104	0.089377
C53	C	-0.211783	1.003105	0.089384
C54	C	-0.095917	0.849636	-0.020826
C55	C	-0.035560	0.849632	-0.020827
C56	C	-0.063319	0.926371	0.034274
C57	C	0.583030	0.648531	0.024001
C58	C	0.590000	0.554245	0.020515
C59	C	0.447240	0.485581	0.091904
C60	C	0.453786	0.396993	0.088631
C61	C	0.609636	0.288480	0.010699
C62	C	0.603091	0.377068	0.013973
C63	C	0.521890	0.475617	0.054576
C64	C	0.515345	0.564206	0.057845
C65	C	0.671195	0.455692	-0.020083
C66	C	0.677740	0.367104	-0.023356
C67	C	0.751739	0.926371	0.034280
C68	C	0.815967	0.926381	0.034283
C69	C	0.562499	0.926277	-0.154995
C70	C	0.562501	0.926254	-0.219230
C71	C	0.541952	1.204155	0.044543
C72	C	0.534981	1.298441	0.048029
C73	C	0.640420	0.872009	-0.288364
C74	C	0.640419	0.872035	-0.348718
C75	C	0.562496	0.926293	-0.339935
C76	C	0.484567	0.980550	-0.270789
C77	C	0.484570	0.980530	-0.210437
C78	C	0.506441	0.918578	-0.407540
C79	C	0.506442	0.918590	-0.467893
C80	C	0.562485	0.926358	-0.526081
C81	C	0.618543	0.934093	-0.523915
C82	C	0.618545	0.934074	-0.463563
C83	C	0.562485	0.926320	-0.405373
C84	C	0.640408	0.872139	-0.660660
C85	C	0.640404	0.872173	-0.721013
C86	C	0.484551	0.980680	-0.643083
C87	C	0.484557	0.980653	-0.582731
C88	C	0.562488	0.926377	-0.591524
C89	C	0.562483	0.926409	0.223539
C90	C	0.562480	0.926432	0.287774
C91	C	0.352704	1.204127	0.044535
C92	C	0.281504	1.298404	0.048018
C93	C	0.373235	0.926381	0.223531
C94	C	0.309004	0.926394	0.287763
C95	C	0.352696	1.204193	0.233802
C96	C	0.281494	1.298493	0.301520
C97	C	0.772285	0.648493	-0.165258
C98	C	0.843488	0.554193	-0.232977
C99	C	0.772277	0.648559	0.024009
C100	C	0.843477	0.554282	0.020526
C101	C	0.751746	0.926305	-0.154987
C102	C	0.815978	0.926292	-0.219220
C103	C	0.252080	1.288416	0.010684
C104	C	0.185190	1.376991	0.013942
C105	C	0.147720	1.475553	0.054539
C106	C	0.177150	1.485538	0.091875
C107	C	0.244044	1.396964	0.088612
C108	C	0.274828	0.980662	0.356898
C109	C	0.214484	0.980670	0.417257
C110	C	0.188313	0.926417	0.408480
C111	C	0.222495	0.872142	0.339338
C112	C	0.282842	0.872129	0.278981
C113	C	0.244047	1.397021	0.298369
C114	C	0.177152	1.485635	0.361993
C115	C	0.147702	1.475717	0.428766
C116	C	0.185156	1.377178	0.431915
C117	C	0.252053	1.288567	0.368293
C118	C	0.880942	0.455664	-0.229826
C119	C	0.947855	0.367051	-0.293449
C120	C	0.977309	0.376969	-0.360223
C121	C	0.939851	0.475508	-0.363372
C122	C	0.872943	0.564119	-0.299749
C123	C	0.872907	0.564270	0.057854
C124	C	0.939815	0.475695	0.054579
C125	C	0.977287	0.377133	0.013979
C126	C	0.947854	0.367148	-0.023353
C127	C	0.880952	0.455722	-0.020082
C128	C	0.842129	0.980556	-0.210420
C129	C	0.902472	0.980564	-0.270767
C130	C	0.936667	0.926301	-0.339913
C131	C	0.910510	0.872035	-0.348711
C132	C	0.850164	0.872034	-0.288365
H133	H	-0.174027	1.065585	0.134247
H134	H	0.139174	0.926436	0.457633
C135	C	0.357928	0.593985	0.136558
H136	H	0.364722	0.645317	0.133157
H137	H	0.326978	0.601776	0.185468
H138	H	0.326990	0.601745	0.118585
H139	H	-0.283524	1.065592	0.134255
H140	H	0.161237	1.368840	-0.016462
C141	C	0.176886	1.040384	0.493304
H142	H	0.201107	1.072706	0.489881
H143	H	0.190241	0.993581	0.516660
H144	H	0.116109	1.091725	0.520281
H145	H	0.703871	0.827860	-0.405017
C146	C	0.213599	0.876239	-0.101550
H147	H	0.211855	0.862049	-0.140065
H148	H	0.264717	0.817128	-0.109827
H149	H	0.213008	0.933444	-0.098643
C150	C	1.050902	0.279495	-0.430203
H151	H	1.063087	0.299505	-0.470426
H152	H	1.034081	0.239415	-0.431682
H153	H	1.100949	0.239433	-0.431678
H154	H	0.985805	0.926310	-0.389045
C155	C	0.972249	0.486405	-0.436824
H156	H	1.017453	0.419515	-0.474259
H157	H	0.993074	0.523216	-0.440770
H158	H	0.926203	0.523191	-0.440764
C159	C	0.831718	0.672498	-0.303220
H160	H	0.787647	0.723859	-0.255769
H161	H	0.807617	0.680208	-0.328018
H162	H	0.874457	0.680292	-0.328009
H163	H	0.449227	0.644447	0.090910
C164	C	0.831699	0.672676	0.102516
H165	H	0.858823	0.665924	0.124270
H166	H	0.772001	0.709494	0.138852
H167	H	0.838872	0.709482	0.071974
H168	H	0.093230	1.547878	0.480566
C169	C	0.193691	0.812482	0.329694
H170	H	0.152848	0.820281	0.375546
H171	H	0.242280	0.741105	0.301980
H172	H	0.168153	0.839278	0.305615
C173	C	0.293290	1.180010	-0.033980
H174	H	0.266185	1.186762	-0.055752
H175	H	0.286119	1.143199	-0.003447
H176	H	0.352992	1.143197	-0.070314
C177	C	0.398861	1.040173	-0.134387
H178	H	0.410023	1.032386	-0.099702
H179	H	0.370484	1.013374	-0.130111
H180	H	0.363202	1.111557	-0.126425
H181	H	0.392998	0.405114	0.119029
C182	C	0.753312	0.444732	-0.060922
H183	H	0.737787	0.511604	-0.053087
H184	H	0.786607	0.407881	-0.110938
H185	H	0.786196	0.407961	-0.043856
H186	H	0.310661	0.827941	0.222690
C187	C	0.698947	0.180074	-0.033959
H188	H	0.692149	0.128744	-0.030563
H189	H	0.729898	0.172305	-0.016002
H190	H	0.729887	0.172287	-0.082873
H191	H	0.743851	0.286856	-0.056411
C192	C	0.303616	1.040330	0.366566
H193	H	0.274623	1.072633	0.416387
H194	H	0.289933	1.091664	0.346461
H195	H	0.364060	0.993488	0.342825
C196	C	0.293236	1.180188	0.371763
H197	H	0.337300	1.128827	0.324313
H198	H	0.250474	1.172438	0.396559
H199	H	0.317354	1.172434	0.396556
C200	C	0.135939	1.594016	0.358520
H201	H	0.091879	1.645376	0.405971
H202	H	0.111824	1.601744	0.333731
H203	H	0.178686	1.601795	0.333721
C204	C	0.726140	0.812317	-0.298038
H205	H	0.772545	0.780021	-0.347859
H206	H	0.733010	0.760975	-0.277942
H207	H	0.725752	0.859141	-0.274287
C208	C	0.989040	0.258672	-0.289972
H209	H	0.961901	0.265465	-0.241091
H210	H	1.048737	0.221851	-0.313327
H211	H	0.981871	0.221846	-0.313344
H212	H	0.978373	0.286887	-0.056409
C213	C	0.074132	1.572975	0.058130
H214	H	0.061973	1.552901	0.030084
H215	H	0.090940	1.613058	0.039826
H216	H	0.024074	1.613058	0.106699
H217	H	0.146633	1.565799	0.124928
C218	C	0.190377	1.087444	0.149973
H219	H	0.129258	1.133142	0.182792
H220	H	0.208954	1.125327	0.129905
H221	H	0.214073	1.055926	0.174627
H222	H	0.856992	0.447575	-0.050477
H223	H	0.268015	1.405117	0.244005
H224	H	0.161168	1.369118	0.486291
H225	H	0.856966	0.447569	-0.175462
H226	H	0.963767	0.483846	0.084983
H227	H	0.938361	0.827856	-0.405018
C228	C	-0.065390	0.765239	-0.081434
H229	H	-0.113955	0.776236	-0.073544
H230	H	-0.029134	0.699014	-0.081713
H231	H	-0.034258	0.768409	-0.126439
C232	C	0.276393	1.407963	0.129692
H233	H	0.244487	1.479351	0.154341
H234	H	0.335759	1.375662	0.096613
H235	H	0.268872	1.375682	0.163481
H236	H	1.031762	0.305019	0.011322
C237	C	0.306936	0.765187	-0.081450
H238	H	0.258370	0.776189	-0.073562
H239	H	0.343190	0.698960	-0.081731
H240	H	0.338069	0.768359	-0.126453
H241	H	0.664188	0.940375	-0.461803
H242	H	0.814296	1.024743	-0.154123
C243	C	0.931244	1.040245	-0.261076
H244	H	0.902245	1.072541	-0.211252
H245	H	0.917555	1.091585	-0.281175
H246	H	0.991687	0.993413	-0.284814
H247	H	0.088804	1.065539	0.134234
H248	H	0.828879	0.827841	-0.295540
C249	C	0.433689	0.765157	-0.081454
H250	H	0.441573	0.719466	-0.114273
H251	H	0.462208	0.727269	-0.061386
H252	H	0.457077	0.796669	-0.106108
H253	H	-0.068105	0.969749	0.151617
C254	C	0.038081	0.976566	0.170091
H255	H	-0.013429	0.990807	0.208614
H256	H	0.034110	1.035685	0.178309
H257	H	0.085678	0.919412	0.167243
C258	C	0.398851	1.040276	-0.506682
H259	H	0.410013	1.032489	-0.471997
H260	H	0.370485	1.013464	-0.502414
H261	H	0.363183	1.111661	-0.498714
C262	C	0.061356	0.765227	-0.081437
H263	H	0.093330	0.776203	-0.073543
H264	H	0.072710	0.768392	-0.126439
H265	H	0.077824	0.699003	-0.081710
C266	C	0.086912	0.876120	-0.101557
H267	H	0.138435	0.861853	-0.140079
H268	H	0.039326	0.933258	-0.098724
H269	H	0.090886	0.816993	-0.109768
H270	H	0.664182	0.940414	-0.571295
H271	H	0.703864	0.827945	-0.667820
H272	H	0.703856	0.828004	-0.777307
H273	H	0.421105	1.024859	-0.635930
H274	H	0.460800	0.912286	-0.469651
H275	H	0.460804	0.912245	-0.360165
H276	H	0.421122	1.024728	-0.263642
