data_functionalizedCrystal
_audit_creation_method	'MofGen! by Chris Wilmer'
_symmetry_space_group_name_H-M	'P1'
_symmetry_Int_Tables_number	1
_symmetry_cell_setting	triclinic
loop_
_symmetry_equiv_pos_as_xyz
  x,y,z
_cell_length_a	16.992694
_cell_length_b	15.455313
_cell_length_c	10.540495
_cell_angle_alpha	87.305300
_cell_angle_beta	87.587867
_cell_angle_gamma	92.857794
loop_
_atom_site_label
_atom_site_type_symbol
_atom_site_fract_x
_atom_site_fract_y
_atom_site_fract_z
O1	O	-1.045276	-0.072012	-0.264114
O2	O	-0.816975	-0.072038	-0.261158
O3	O	-0.936352	-0.072025	-0.078379
O4	O	-0.925899	-0.072024	-0.446893
O5	O	-0.929525	0.072236	-0.088786
O6	O	-0.810149	0.072224	-0.271564
O7	O	-1.038449	0.072249	-0.274520
Cu8	Cu	-0.923675	0.085409	-0.273992
Cu9	Cu	-0.931749	-0.085197	-0.261686
O10	O	-0.919072	0.072237	-0.457299
C11	C	-0.784329	0.000090	-0.262560
C12	C	-0.697223	0.000080	-0.251218
C13	C	-0.932162	0.000103	-0.036211
C14	C	-0.929839	0.000096	0.104942
C15	C	-1.071096	0.000120	-0.273118
C16	C	-1.158202	0.000124	-0.284459
N17	N	-0.918003	0.205404	-0.282648
C18	C	-0.647584	0.000080	-0.360640
C19	C	-0.565738	0.000092	-0.349977
C20	C	-0.533533	0.000097	-0.229892
C21	C	-0.583177	0.000099	-0.120463
C22	C	-0.665021	0.000093	-0.131127
C23	C	-0.289691	0.000120	-0.185694
C24	C	-0.207841	0.000123	-0.175038
C25	C	-0.190407	0.000119	-0.404554
C26	C	-0.272253	0.000108	-0.415207
C27	C	-0.321891	0.000114	-0.305778
N28	N	-0.449874	0.000107	-0.218990
N29	N	-0.405548	0.000111	-0.316681
N30	N	-0.937428	-0.205192	-0.253021
C31	C	-0.968736	0.250803	-0.205029
C32	C	-0.964453	0.341610	-0.211588
C33	C	-0.909441	0.387017	-0.295772
C34	C	-0.858702	0.341611	-0.373393
C35	C	-0.862981	0.250805	-0.366828
C36	C	-0.890968	0.658596	-0.324077
C37	C	-0.886694	0.749409	-0.330639
C38	C	-0.992445	0.749402	-0.168831
C39	C	-0.996723	0.658594	-0.162279
C40	C	-0.945982	0.613196	-0.239895
N41	N	-0.905063	0.479837	-0.302480
N42	N	-0.950356	0.520378	-0.233180
C43	C	-1.015213	0.000108	0.168239
C44	C	-1.012809	0.000441	0.315036
C45	C	-0.879527	0.082318	0.295376
C46	C	-0.882518	0.082382	0.148571
C47	C	-0.889018	-0.081676	0.160117
C48	C	-0.888251	-0.082751	0.307245
C49	C	-0.923273	0.000107	0.500534
C50	C	-0.925627	0.000108	0.359385
H51	H	-0.673799	0.000076	-0.458426
F52	F	-0.930012	-0.163151	0.121600
H53	H	-1.013537	0.213839	-0.136484
H54	H	-0.149984	0.000115	-0.493644
F55	F	-1.056177	0.077060	0.119308
F56	F	-0.808981	0.202489	-0.449437
F57	F	-0.173567	0.000144	-0.047222
F58	F	-0.800148	0.389937	-0.462983
H59	H	-0.298469	0.000094	-0.512992
H60	H	-0.841894	0.786374	-0.399197
H61	H	-0.525325	0.000092	-0.439080
H62	H	-0.921976	-0.143572	0.349953
F63	F	-0.805524	-0.089620	0.346667
F64	F	-0.548900	0.000110	0.007341
H65	H	-0.330096	0.000126	-0.096589
H66	H	-0.849654	0.621641	-0.387278
H67	H	-1.005764	0.378574	-0.148384
H68	H	-0.815349	0.085136	0.323045
H69	H	-0.826079	-0.082470	0.118397
H70	H	-0.705437	0.000092	-0.042024
F71	F	-1.046443	0.797723	-0.086229
F72	F	-1.064126	-0.076941	0.132575
F73	F	-1.055274	0.610270	-0.072683
H74	H	-1.048797	-0.058476	0.359071
H75	H	-1.043060	0.059728	0.349622
H76	H	-0.910423	0.144078	0.113220
F77	F	-0.800332	0.086959	0.092602
F78	F	-0.913574	0.162603	0.341931
