data_functionalizedCrystal
_audit_creation_method	'MofGen! by Chris Wilmer'
_symmetry_space_group_name_H-M	'P1'
_symmetry_Int_Tables_number	1
_symmetry_cell_setting	triclinic
loop_
_symmetry_equiv_pos_as_xyz
  x,y,z
_cell_length_a	15.625950
_cell_length_b	15.538191
_cell_length_c	15.455313
_cell_angle_alpha	91.603349
_cell_angle_beta	105.363083
_cell_angle_gamma	66.741480
loop_
_atom_site_label
_atom_site_type_symbol
_atom_site_fract_x
_atom_site_fract_y
_atom_site_fract_z
O1	O	1.134909	0.139247	0.284732
O2	O	0.873710	0.149191	0.202601
O3	O	1.055154	0.008072	0.259650
O4	O	0.953465	0.280365	0.227683
O5	O	1.044789	0.016108	0.400653
O6	O	0.863345	0.157227	0.343604
O7	O	1.124544	0.147283	0.425735
Cu8	Cu	0.992998	0.152989	0.397544
Cu9	Cu	1.005256	0.143485	0.230792
O10	O	0.943100	0.288401	0.368686
C11	C	0.835915	0.151958	0.262848
C12	C	0.738743	0.148221	0.232293
C13	C	0.390804	0.157877	0.515997
C14	C	0.299491	0.154381	0.487244
C15	C	0.310835	0.145622	0.333542
C16	C	0.402150	0.149122	0.362282
C17	C	0.442127	0.155248	0.453510
C18	C	0.453472	0.146493	0.299795
C19	C	0.544781	0.149987	0.328533
C20	C	0.584766	0.156110	0.419757
C21	C	0.533435	0.158742	0.482248
C22	C	0.413496	0.140360	0.208568
C23	C	0.464819	0.137731	0.146081
C24	C	0.556126	0.141232	0.174817
C25	C	0.596112	0.147355	0.266042
C26	C	0.607457	0.138601	0.112327
C27	C	0.698765	0.142095	0.141065
C28	C	0.687420	0.150850	0.294780
C29	C	1.060611	-0.022800	0.333494
C30	C	1.092303	-0.126761	0.343450
C31	C	0.777459	-0.420638	0.244470
C32	C	0.807260	-0.518328	0.253843
C33	C	0.974882	-0.537530	0.306549
C34	C	0.945096	-0.439840	0.297177
C35	C	0.846383	-0.381402	0.266138
C36	C	1.014020	-0.400603	0.318845
C37	C	0.984235	-0.302922	0.309478
C38	C	0.885527	-0.244477	0.278443
C39	C	0.816598	-0.283720	0.256771
C40	C	1.112732	-0.459043	0.349889
C41	C	1.181656	-0.419806	0.371557
C42	C	1.151872	-0.322124	0.362184
C43	C	1.053164	-0.263679	0.331150
C44	C	1.220800	-0.282881	0.383856
C45	C	1.191016	-0.185199	0.374489
C46	C	1.023379	-0.165998	0.321782
C47	C	1.162339	0.144515	0.365486
C48	C	1.259512	0.148252	0.396035
C49	C	0.937643	0.319273	0.294840
C50	C	0.905951	0.423234	0.284878
N51	N	0.984383	0.159672	0.514831
N52	N	1.013880	0.136794	0.113508
C53	C	1.061480	0.099743	0.584466
C54	C	1.054970	0.104807	0.673227
C55	C	0.971366	0.169804	0.692352
C56	C	0.894262	0.229736	0.622710
C57	C	0.900770	0.224667	0.533949
C58	C	0.943284	0.191657	0.955105
C59	C	0.936783	0.196723	1.043873
C60	C	1.097491	0.071792	1.094384
C61	C	1.103994	0.066733	1.005621
C62	C	1.026888	0.126661	0.935985
N63	N	0.964711	0.174984	0.783080
N64	N	1.033541	0.121477	0.845258
H65	H	0.565981	0.163745	0.556533
H66	H	1.129562	0.046819	0.568903
O67	O	0.564346	0.131974	0.013936
H68	H	0.556243	0.194154	-0.026323
O69	O	0.730538	0.157470	0.393177
H70	H	0.802649	0.159465	0.402657
O71	O	0.754130	0.139245	0.073670
H72	H	0.824345	0.142689	0.108984
O73	O	0.683244	0.159891	0.450755
H74	H	0.738123	0.095312	0.434062
O75	O	0.243800	0.157395	0.554394
H76	H	0.286662	0.096623	0.605798
H77	H	0.751125	-0.550268	0.236208
H78	H	0.942998	-0.118414	0.296501
H79	H	0.339145	0.137520	0.185171
H80	H	0.697078	-0.373054	0.219189
O81	O	1.138122	0.040173	0.748339
H82	H	1.165255	0.082753	0.798236
O83	O	0.433932	0.164494	0.614392
H84	H	0.442046	0.102306	0.654649
H85	H	0.861277	-0.164939	0.270822
H86	H	0.736217	-0.236136	0.231490
O87	O	1.081348	-0.600559	0.340028
H88	H	1.090483	-0.675076	0.342899
O89	O	1.327264	-0.345917	0.417346
H90	H	1.365974	-0.335056	0.370723
O91	O	1.144869	-0.564402	0.359999
H92	H	1.120780	-0.589298	0.293620
H93	H	1.262028	-0.467400	0.396833
H94	H	0.868699	0.249656	1.059437
H95	H	1.247141	-0.153253	0.392134
O96	O	1.194162	-0.003380	0.984990
H97	H	1.246676	-0.044210	1.048323
H98	H	1.160266	0.023000	1.151088
H99	H	0.837989	0.273467	0.477251
H100	H	0.278275	0.140630	0.259264
O101	O	0.860128	0.256298	0.880006
H102	H	0.846630	0.330474	0.893178
O103	O	0.421697	0.131131	0.047686
H104	H	0.349579	0.129149	0.038197
O105	O	0.804088	0.299848	0.643331
H106	H	0.812518	0.293314	0.716752
