data_functionalizedCrystal
_audit_creation_method	'MofGen! by Chris Wilmer'
_symmetry_space_group_name_H-M	'P1'
_symmetry_Int_Tables_number	1
_symmetry_cell_setting	triclinic
loop_
_symmetry_equiv_pos_as_xyz
  x,y,z
_cell_length_a	11.792241
_cell_length_b	17.666332
_cell_length_c	11.792254
_cell_angle_alpha	90.006615
_cell_angle_beta	84.196007
_cell_angle_gamma	90.005137
loop_
_atom_site_label
_atom_site_type_symbol
_atom_site_fract_x
_atom_site_fract_y
_atom_site_fract_z
O1	O	1.506924	0.062875	0.155569
O2	O	1.176583	0.062893	0.171602
O3	O	1.349762	0.062878	-0.001584
O4	O	1.333744	0.062890	0.328755
O5	O	1.349732	-0.063019	-0.001594
O6	O	1.176553	-0.063004	0.171592
O7	O	1.506893	-0.063022	0.155559
Cu8	Cu	1.341720	-0.074508	0.163575
Cu9	Cu	1.341756	0.074379	0.163586
O10	O	1.333714	-0.063007	0.328745
C11	C	1.134277	-0.000053	0.170590
C12	C	1.008263	-0.000047	0.167576
N13	N	1.341703	-0.179228	0.163566
C14	C	0.777551	-0.000069	0.162033
C15	C	0.905936	-0.000057	0.165112
C16	C	1.418412	-0.218844	0.086918
C17	C	1.418418	-0.298091	0.086912
C18	C	1.341727	-0.337720	0.163575
C19	C	1.265003	-0.298094	0.240230
C20	C	1.264991	-0.218848	0.240225
N21	N	1.327902	-0.462134	0.263917
N22	N	1.327920	-0.537415	0.263918
C23	C	1.341757	-0.576484	0.163591
N24	N	1.355597	-0.537428	0.063261
N25	N	1.355585	-0.462141	0.063262
C26	C	1.341731	-0.423649	0.163588
C27	C	1.418477	-0.702029	0.086930
C28	C	1.418476	-0.781278	0.086923
C29	C	1.265066	-0.781279	0.240251
C30	C	1.265062	-0.702032	0.240248
C31	C	1.341774	-0.662412	0.163589
C32	C	1.549199	-0.000074	0.156571
C33	C	1.675213	-0.000075	0.159586
C34	C	1.348738	-0.000070	-0.043880
C35	C	1.345718	-0.000069	-0.169893
N36	N	1.341782	0.179099	0.163586
C37	C	1.343264	-0.000066	-0.272229
C38	C	1.340196	-0.000059	-0.400616
C39	C	1.334738	-0.000057	0.371041
C40	C	1.337758	-0.000053	0.497054
H41	H	1.480886	-0.330353	0.024493
O42	O	1.190459	-0.336670	0.314545
C43	C	1.120060	-0.382513	0.253287
H44	H	1.164723	-0.394387	0.164777
H45	H	1.102407	-0.438236	0.300544
H46	H	1.036125	-0.351986	0.245006
H47	H	1.202524	-0.186592	0.302643
O48	O	1.493023	-0.663654	0.012350
C49	C	1.560744	-0.715618	-0.055295
H50	H	1.514209	-0.772113	-0.056890
H51	H	1.577497	-0.692727	-0.145823
H52	H	1.645285	-0.724035	-0.017875
O53	O	1.493042	-0.819849	0.012618
C54	C	1.563449	-0.865662	0.073885
H55	H	1.518783	-0.877529	0.162394
H56	H	1.581120	-0.921391	0.026634
H57	H	1.647374	-0.835113	0.082170
H58	H	1.202618	-0.813544	0.302667
O59	O	1.190513	-0.663662	0.314824
C60	C	1.122803	-0.715628	0.382471
H61	H	1.169350	-0.772112	0.384069
H62	H	1.106043	-0.692724	0.472997
H63	H	1.038265	-0.724070	0.345049
H64	H	1.480872	-0.186587	0.024495
