data_functionalizedCrystal
_audit_creation_method	'MofGen! by Chris Wilmer'
_symmetry_space_group_name_H-M	'P1'
_symmetry_Int_Tables_number	1
_symmetry_cell_setting	triclinic
loop_
_symmetry_equiv_pos_as_xyz
  x,y,z
_cell_length_a	17.699083
_cell_length_b	14.971486
_cell_length_c	16.776229
_cell_angle_alpha	90.003623
_cell_angle_beta	89.999727
_cell_angle_gamma	83.448572
loop_
_atom_site_label
_atom_site_type_symbol
_atom_site_fract_x
_atom_site_fract_y
_atom_site_fract_z
O1	O	-1.004356	-0.113109	-0.066177
O2	O	-0.504356	0.386891	0.433823
O3	O	-0.784014	-0.127825	-0.066203
O4	O	-0.284014	0.372175	0.433797
O5	O	-0.900090	0.009754	-0.066184
O6	O	-0.400090	0.509754	0.433816
O7	O	-0.888279	-0.250687	-0.066196
O8	O	-0.388279	0.249313	0.433804
O9	O	-0.900077	0.009754	0.066393
O10	O	-0.400077	0.509754	0.566393
O11	O	-0.784000	-0.127824	0.066374
O12	O	-0.284000	0.372176	0.566374
O13	O	-1.004343	-0.113108	0.066400
O14	O	-0.504343	0.386892	0.566400
Zn15	Zn	-0.894169	-0.120466	0.087436
Zn16	Zn	-0.394169	0.379534	0.587436
Zn17	Zn	-0.894187	-0.120467	-0.087239
Zn18	Zn	-0.394187	0.379533	0.412761
O19	O	-0.888266	-0.250687	0.066380
O20	O	-0.388266	0.249313	0.566380
C21	C	-0.755809	-0.127297	0.000082
C22	C	-0.255809	0.372703	0.500082
C23	C	-0.671787	-0.125715	0.000072
C24	C	-0.171787	0.374285	0.500072
C25	C	-0.899556	0.043077	0.000104
C26	C	-0.399556	0.543077	0.500104
C27	C	-0.897973	0.142368	0.000104
C28	C	-0.397973	0.642368	0.500104
C29	C	-1.032547	-0.113636	0.000113
C30	C	-0.532547	0.386364	0.500113
C31	C	-1.116569	-0.115218	0.000118
C32	C	-0.616569	0.384782	0.500118
C33	C	-0.623365	-0.206471	0.000068
C34	C	-0.123365	0.293529	0.500068
C35	C	-0.544418	-0.204979	0.000079
C36	C	-0.044418	0.295021	0.500079
C37	C	-0.513894	-0.122731	0.000087
C38	C	-0.013894	0.377269	0.500087
C39	C	-0.562323	-0.041969	0.000093
C40	C	-0.062323	0.458031	0.500093
C41	C	-0.641268	-0.043462	0.000089
C42	C	-0.141268	0.456538	0.500089
C43	C	-0.243945	-0.035947	0.000113
C44	C	0.256055	0.464053	0.500113
C45	C	-0.164993	-0.034461	0.000116
C46	C	0.335007	0.465539	0.500116
C47	C	-0.147094	-0.197465	0.000103
C48	C	0.352906	0.302535	0.500103
C49	C	-0.226040	-0.198958	0.000099
C50	C	0.273960	0.301042	0.500099
C51	C	-0.274461	-0.118196	0.000109
C52	C	0.225539	0.381804	0.500109
C53	C	-0.360064	-0.119815	0.000099
C54	C	0.139936	0.380185	0.500099
C55	C	-0.428293	-0.121111	0.000091
C56	C	0.071707	0.378889	0.500091
C57	C	-0.888801	-0.284010	0.000091
C58	C	-0.388801	0.215990	0.500091
C59	C	-0.890383	-0.383301	0.000086
C60	C	-0.390383	0.116699	0.500086
N61	N	-0.894163	-0.120465	0.206647
N62	N	-0.394163	0.379535	0.706647
C63	C	-0.966165	0.199828	0.000112
C64	C	-0.466165	0.699828	0.500112
C65	C	-0.964673	0.293123	0.000104
C66	C	-0.464673	0.793123	0.500104
C67	C	-0.894988	0.328955	0.000093
C68	C	-0.394988	0.828955	0.500093
C69	C	-0.826791	0.271488	0.000082
C70	C	-0.326791	0.771488	0.500082
C71	C	-0.828284	0.178196	0.000084
C72	C	-0.328284	0.678196	0.500084
C73	C	-0.823685	0.465940	0.000079
C74	C	-0.323685	0.965940	0.500079
C75	C	-0.822192	0.559239	0.000078
C76	C	-0.322192	1.059239	0.500078
C77	C	-0.960074	0.580867	0.000098
C78	C	-0.460074	1.080867	0.500098
C79	C	-0.961566	0.487574	0.000101
C80	C	-0.461566	0.987574	0.500101
C81	C	-0.893369	0.430114	0.000091
C82	C	-0.393369	0.930114	0.500091
N83	N	-0.894199	-0.120460	-0.206451
N84	N	-0.394199	0.379540	0.293549
C85	C	-0.940111	-0.174649	0.248364
C86	C	-0.440111	0.325351	0.748364
C87	C	-0.940120	-0.174645	0.331816
C88	C	-0.440120	0.325355	0.831816
C89	C	-0.894175	-0.120463	0.373550
C90	C	-0.394175	0.379537	0.873550
C91	C	-0.848225	-0.066273	0.331828
C92	C	-0.348225	0.433727	0.831828
C93	C	-0.848221	-0.066272	0.248377
C94	C	-0.348221	0.433728	0.748377
C95	C	-0.848240	-0.066274	0.668375
C96	C	-0.348240	0.433726	1.168375
C97	C	-0.848246	-0.066281	0.751831
C98	C	-0.348246	0.433719	1.251831
C99	C	-0.940139	-0.174647	0.751814
C100	C	-0.440139	0.325353	1.251814
C101	C	-0.940135	-0.174646	0.668363
C102	C	-0.440135	0.325354	1.168363
C103	C	-0.894188	-0.120454	0.626648
C104	C	-0.394188	0.379546	1.126648
C105	C	-0.894181	-0.120457	0.536160
C106	C	-0.394181	0.379543	1.036160
C107	C	-0.894178	-0.120464	0.464037
C108	C	-0.394178	0.379536	0.964037
H109	H	-0.648210	-0.273447	0.000061
H110	H	-0.148210	0.226553	0.500061
H111	H	-0.768151	0.419157	0.000069
H112	H	-0.268151	0.919157	0.500069
Br113	Br	-0.785874	0.007265	0.388466
Br114	Br	-0.285874	0.507265	0.888466
Br115	Br	-0.785871	0.007278	0.191760
Br116	Br	-0.285871	0.507278	0.691760
Br117	Br	-0.309650	0.073658	0.000129
Br118	Br	0.190350	0.573658	0.500129
H119	H	-0.977537	-0.218765	0.365778
H120	H	-0.477537	0.281235	0.865778
H121	H	-0.770052	0.300671	0.000068
H122	H	-0.270052	0.800671	0.500068
H123	H	-0.250887	-0.265933	0.000088
H124	H	0.249113	0.234067	0.500088
H125	H	-0.977545	-0.218771	0.634387
H126	H	-0.477545	0.281229	1.134387
H127	H	-0.977553	-0.218771	0.785788
H128	H	-0.477553	0.281229	1.285788
H129	H	-0.504995	-0.270739	0.000075
H130	H	-0.004995	0.229261	0.500075
Br131	Br	-0.081375	-0.307072	0.000090
Br132	Br	0.418625	0.192928	0.500090
H133	H	-0.140145	0.032519	0.000124
H134	H	0.359855	0.532519	0.500124
H135	H	-0.810831	-0.022156	0.785809
H136	H	-0.310831	0.477844	1.285809
H137	H	-0.537465	0.024999	0.000112
H138	H	-0.037465	0.524999	0.500112
H139	H	-1.018310	0.458403	0.000116
H140	H	-0.518310	0.958403	0.500116
Br141	Br	-0.727619	0.607869	0.000066
Br142	Br	-0.227619	1.107869	0.500066
H143	H	-0.810828	-0.022147	0.634420
H144	H	-0.310828	0.477853	1.134420
Br145	Br	-1.060742	0.151208	0.000139
Br146	Br	-0.560742	0.651208	0.500139
H147	H	-0.680693	0.022298	0.000091
H148	H	-0.180693	0.522298	0.500091
H149	H	-1.015603	0.627656	0.000104
H150	H	-0.515603	1.127656	0.500104
Br151	Br	-1.057223	0.371101	0.000116
Br152	Br	-0.557223	0.871101	0.500116
H153	H	-0.772754	0.131412	0.000077
H154	H	-0.272754	0.631412	0.500077
H155	H	-0.977520	-0.218776	0.214390
H156	H	-0.477520	0.281224	0.714390
