data_functionalizedCrystal
_audit_creation_method	'MofGen! by Chris Wilmer'
_symmetry_space_group_name_H-M	'P1'
_symmetry_Int_Tables_number	1
_symmetry_cell_setting	triclinic
loop_
_symmetry_equiv_pos_as_xyz
  x,y,z
_cell_length_a	16.120530
_cell_length_b	25.639239
_cell_length_c	16.120297
_cell_angle_alpha	87.131297
_cell_angle_beta	89.871860
_cell_angle_gamma	87.134054
loop_
_atom_site_label
_atom_site_type_symbol
_atom_site_fract_x
_atom_site_fract_y
_atom_site_fract_z
Zn1	Zn	1.247330	-0.264883	0.534536
Zn2	Zn	1.254246	-0.348114	0.395469
Zn3	Zn	1.115324	-0.256048	0.388455
Zn4	Zn	1.108202	-0.347633	0.527439
O5	O	1.181275	-0.304170	0.461475
O6	O	1.364612	-0.279823	0.521994
O7	O	1.241692	-0.332406	0.278174
O8	O	1.132921	-0.184058	0.407868
O9	O	1.369693	-0.340973	0.419823
O10	O	1.229905	-0.190549	0.515193
O11	O	1.139627	-0.264765	0.273020
O12	O	0.998015	-0.264298	0.400986
O13	O	1.120783	-0.340152	0.644745
O14	O	0.992782	-0.331585	0.503096
O15	O	1.223000	-0.279356	0.649960
O16	O	1.234787	-0.421212	0.412941
O17	O	1.127489	-0.420858	0.509898
C18	C	0.965226	-0.296931	0.450510
C19	C	0.872799	-0.293847	0.445839
C20	C	1.181138	-0.440006	0.461430
C21	C	1.181153	-0.498121	0.461442
C22	C	0.703571	-0.288206	0.437318
C23	C	0.659817	-0.320174	0.485692
C24	C	0.565653	-0.317035	0.480951
C25	C	0.797744	-0.291344	0.442058
C26	C	1.237279	-0.858668	0.411087
C27	C	1.237311	-0.913274	0.411099
O28	O	1.284889	-0.941661	0.368236
N29	N	1.181419	-0.940415	0.461537
C30	C	1.125497	-0.912948	0.511972
O31	O	1.077960	-0.941048	0.554875
C32	C	1.125470	-0.858344	0.511963
C33	C	1.181360	-0.831205	0.461515
C34	C	1.293166	-0.831529	0.360644
C35	C	1.293133	-0.776927	0.360630
C36	C	1.237214	-0.749464	0.411059
C37	C	1.181327	-0.776603	0.461502
C38	C	1.069553	-0.830878	0.562401
C39	C	1.069531	-0.776270	0.562388
C40	C	1.125421	-0.749131	0.511941
C41	C	1.125375	-0.694538	0.511917
N42	N	1.181267	-0.667396	0.461479
C43	C	1.237187	-0.694860	0.411050
C44	C	1.125559	-1.027621	0.511988
C45	C	1.125581	-1.082224	0.511993
C46	C	1.237397	-1.082546	0.411121
C47	C	1.237370	-1.027942	0.411113
C48	C	1.181451	-1.000480	0.461550
C49	C	1.237113	-0.580191	0.411025
C50	C	1.237072	-0.525584	0.411013
C51	C	1.125260	-0.525267	0.511887
C52	C	1.125297	-0.579869	0.511896
C53	C	1.181230	-0.607330	0.461463
O54	O	1.077824	-0.666116	0.554760
O55	O	1.284723	-0.666754	0.368163
C56	C	1.398168	-0.311437	0.472483
C57	C	1.490595	-0.314534	0.477173
C58	C	1.170326	-0.310686	0.678368
C59	C	1.165659	-0.313462	0.770795
C60	C	1.181436	-0.167804	0.461539
C61	C	1.181504	-0.109693	0.461567
C62	C	1.192231	-0.297643	0.245427
C63	C	1.197058	-0.294724	0.153009
C64	C	1.157110	-0.318520	0.940019
C65	C	1.205605	-0.289668	0.983790
C66	C	1.200848	-0.292482	1.077952
C67	C	1.161866	-0.315706	0.845849
H68	H	0.693077	-0.349899	0.530667
O69	O	0.663771	-0.252791	0.383684
C70	C	0.577251	-0.257500	0.390844
H71	H	0.564097	-0.298305	0.417386
H72	H	0.547294	-0.250945	0.326935
H73	H	0.550402	-0.227059	0.433999
O74	O	1.259426	-0.257638	0.944267
C75	C	1.303602	-0.231377	1.003511
H76	H	1.266476	-0.230235	1.063719
H77	H	1.313778	-0.189746	0.978795
H78	H	1.366274	-0.252914	1.015924
O79	O	1.291334	-0.499275	0.361890
C80	C	1.277407	-0.509547	0.278081
H81	H	1.245551	-0.548092	0.274722
H82	H	1.339333	-0.512278	0.243892
H83	H	1.236079	-0.476578	0.247859
O84	O	1.291561	-0.606805	0.362078
C85	C	1.373491	-0.596723	0.384539
H86	H	1.373536	-0.558089	0.416596
H87	H	1.413852	-0.594278	0.326450
H88	H	1.399335	-0.629650	0.428730
O89	O	1.347513	-0.750652	0.311612
C90	C	1.396858	-0.786609	0.267099
H91	H	1.397995	-0.826641	0.301318
H92	H	1.462824	-0.772728	0.261612
H93	H	1.369658	-0.789535	0.202375
O94	O	1.347618	-0.858217	0.311804
C95	C	1.398904	-0.892966	0.361947
H96	H	1.400599	-0.878637	0.427706
H97	H	1.464461	-0.894754	0.335223
H98	H	1.373127	-0.933606	0.363458
H99	H	1.080017	-1.005264	0.553057
O100	O	1.071253	-1.108504	0.561068
C101	C	1.021879	-1.072547	0.605553
H102	H	1.055773	-1.034828	0.610174
H103	H	1.009655	-1.089979	0.670616
H104	H	0.960287	-1.063759	0.571844
O105	O	1.291743	-1.001664	0.362089
C106	C	1.341083	-1.037619	0.317566
H107	H	1.342229	-1.077651	0.351783
H108	H	1.407047	-1.023735	0.312068
H109	H	1.313872	-1.040545	0.252846
H110	H	1.112023	-0.345331	0.973262
H111	H	1.282932	-1.104917	0.370062
H112	H	1.024037	-0.852965	0.603477
H113	H	1.023996	-0.753913	0.603463
H114	H	1.079789	-0.601967	0.552977
O115	O	1.071062	-0.498565	0.560968
C116	C	1.115648	-0.470125	0.617083
H117	H	1.180880	-0.488892	0.625593
H118	H	1.082300	-0.470416	0.679529
H119	H	1.119817	-0.428072	0.591505
