data_functionalizedCrystal
_audit_creation_method	'MofGen! by Chris Wilmer'
_symmetry_space_group_name_H-M	'P1'
_symmetry_Int_Tables_number	1
_symmetry_cell_setting	triclinic
loop_
_symmetry_equiv_pos_as_xyz
  x,y,z
_cell_length_a	19.188930
_cell_length_b	19.188930
_cell_length_c	17.666332
_cell_angle_alpha	90.011603
_cell_angle_beta	89.976766
_cell_angle_gamma	96.855221
loop_
_atom_site_label
_atom_site_type_symbol
_atom_site_fract_x
_atom_site_fract_y
_atom_site_fract_z
O1	O	0.926150	-0.087169	-0.063200
O2	O	0.722838	-0.098903	-0.063149
O3	O	0.830361	0.008620	-0.063161
O4	O	0.818627	-0.194692	-0.063188
O5	O	0.830342	0.008625	0.062735
O6	O	0.722820	-0.098897	0.062747
O7	O	0.926131	-0.087163	0.062697
Cu8	Cu	0.824473	-0.093030	0.074217
Cu9	Cu	0.824496	-0.093036	-0.074670
O10	O	0.818608	-0.194686	0.062709
C11	C	0.696818	-0.098520	-0.000194
C12	C	0.619313	-0.097380	-0.000174
C13	C	0.574389	-0.160470	-0.000194
C14	C	0.501566	-0.159399	-0.000203
C15	C	0.473669	-0.095233	-0.000206
C16	C	0.518603	-0.032133	-0.000181
C17	C	0.591425	-0.033207	-0.000166
N18	N	0.365695	-0.046188	-0.043078
N19	N	0.296517	-0.045172	-0.043095
C20	C	0.254260	-0.091994	-0.000252
N21	N	0.283795	-0.139881	0.042599
N22	N	0.352979	-0.140899	0.042612
C23	C	0.394707	-0.094062	-0.000222
C24	C	0.130372	-0.153928	-0.000280
C25	C	0.057547	-0.152853	-0.000283
C26	C	0.074586	-0.025586	-0.000270
C27	C	0.147409	-0.026662	-0.000258
C28	C	0.175298	-0.090835	-0.000267
C29	C	0.829972	0.034634	-0.000211
C30	C	0.828831	0.112138	-0.000204
C31	C	0.952151	-0.087546	-0.000260
C32	C	1.029656	-0.088687	-0.000285
C33	C	0.818997	-0.220700	-0.000244
C34	C	0.820138	-0.298204	-0.000255
N35	N	0.824463	-0.093025	0.178937
C36	C	0.891922	0.157062	-0.000216
C37	C	0.890850	0.229886	-0.000228
C38	C	0.826684	0.257782	-0.000212
C39	C	0.763585	0.212849	-0.000205
C40	C	0.764658	0.140026	-0.000200
N41	N	0.777630	0.365789	0.042645
N42	N	0.776615	0.434968	0.042642
C43	C	0.823446	0.477191	-0.000227
N44	N	0.871341	0.447624	-0.043084
N45	N	0.872359	0.378439	-0.043079
C46	C	0.825513	0.336745	-0.000218
C47	C	0.885379	0.601079	-0.000253
C48	C	0.884305	0.673904	-0.000270
C49	C	0.757038	0.656865	-0.000239
C50	C	0.758114	0.584042	-0.000230
C51	C	0.822287	0.556154	-0.000233
N52	N	0.824512	-0.093036	-0.179390
C53	C	0.872089	-0.045437	0.218541
C54	C	0.872093	-0.045433	0.297789
C55	C	0.824478	-0.093030	0.337429
C56	C	0.776842	-0.140621	0.297815
C57	C	0.776835	-0.140619	0.218569
N58	N	0.815401	-0.154837	0.461841
N59	N	0.815413	-0.154837	0.537121
C60	C	0.824496	-0.093040	0.576193
N61	N	0.833582	-0.031239	0.537140
N62	N	0.833574	-0.031240	0.461853
C63	C	0.824480	-0.093038	0.423358
C64	C	0.872130	-0.045444	0.701727
C65	C	0.872129	-0.045440	0.780976
C66	C	0.776881	-0.140634	0.781000
C67	C	0.776878	-0.140632	0.701753
C68	C	0.824506	-0.093038	0.662121
H69	H	0.153080	-0.206181	-0.000276
H70	H	0.020970	-0.204232	-0.000295
N71	N	0.696611	0.091562	-0.000182
H72	H	0.668611	0.100496	-0.046846
H73	H	0.668653	0.100544	0.046525
N74	N	0.453105	-0.227452	-0.000233
H75	H	0.422540	-0.229836	-0.046911
H76	H	0.422528	-0.229806	0.046459
H77	H	0.495885	0.020111	-0.000194
N78	N	0.690064	0.535585	-0.000199
H79	H	0.700480	0.485220	-0.000198
H80	H	0.662094	0.544582	-0.046864
N81	N	0.694380	0.242939	-0.000182
H82	H	0.666741	0.226550	0.046494
H83	H	0.666810	0.226528	-0.046876
N84	N	0.961133	0.126982	-0.000221
H85	H	1.000939	0.166496	-0.000231
H86	H	0.964361	0.097129	-0.046892
N87	N	0.639878	0.034848	-0.000150
H88	H	0.670495	0.037237	-0.046815
H89	H	0.670402	0.037201	0.046556
H90	H	0.051874	0.026659	-0.000319
H91	H	0.183988	0.024713	-0.000246
H92	H	0.937632	0.578372	-0.000259
N93	N	0.725518	-0.191965	0.823746
H94	H	0.733397	-0.241502	0.809939
H95	H	0.676017	-0.183977	0.809961
N96	N	0.958900	0.278352	-0.000243
H97	H	0.999715	0.249634	-0.000246
H98	H	0.961213	0.308946	0.046428
H99	H	0.935683	0.710481	-0.000284
N100	N	0.687828	0.686943	-0.000230
H101	H	0.696720	0.739893	-0.000238
H102	H	0.660220	0.670506	0.046448
H103	H	0.910869	-0.006681	0.186275
N104	N	0.923462	0.005897	0.340518
H105	H	0.953631	0.036048	0.303386
H106	H	0.954243	-0.020764	0.373373
H107	H	0.597091	-0.212725	-0.000203
N108	N	0.725481	-0.191955	0.340564
H109	H	0.732713	-0.184737	0.396776
H110	H	0.733387	-0.241467	0.326693
H111	H	0.738051	-0.179371	0.186322
H112	H	0.910909	-0.006688	0.669457
H113	H	0.910910	-0.006684	0.813222
N114	N	0.725509	-0.191959	0.659031
H115	H	0.695344	-0.222111	0.696165
H116	H	0.752136	-0.222761	0.626126
