data_functionalizedCrystal
_audit_creation_method	'MofGen! by Chris Wilmer'
_symmetry_space_group_name_H-M	'P1'
_symmetry_Int_Tables_number	1
_symmetry_cell_setting	triclinic
loop_
_symmetry_equiv_pos_as_xyz
  x,y,z
_cell_length_a	14.044220
_cell_length_b	17.699083
_cell_length_c	16.176319
_cell_angle_alpha	89.992304
_cell_angle_beta	89.997715
_cell_angle_gamma	88.235946
loop_
_atom_site_label
_atom_site_type_symbol
_atom_site_fract_x
_atom_site_fract_y
_atom_site_fract_z
O1	O	1.257290	0.182444	-0.068662
O2	O	1.757290	0.682444	0.431338
O3	O	0.981336	0.175860	-0.068683
O4	O	1.481336	0.675860	0.431317
O5	O	1.127110	0.069501	-0.068664
O6	O	1.627110	0.569501	0.431336
O7	O	1.111517	0.288803	-0.068680
O8	O	1.611517	0.788803	0.431320
O9	O	1.127090	0.069492	0.068829
O10	O	1.627090	0.569492	0.568829
O11	O	0.981316	0.175851	0.068810
O12	O	1.481316	0.675851	0.568810
O13	O	1.257270	0.182435	0.068831
O14	O	1.757270	0.682435	0.568831
Cu15	Cu	1.119291	0.179142	0.081375
Cu16	Cu	1.619291	0.679142	0.581375
Cu17	Cu	1.119315	0.179153	-0.081227
Cu18	Cu	1.619315	0.679153	0.418773
O19	O	1.111497	0.288795	0.068813
O20	O	1.611497	0.788795	0.568813
C21	C	1.126541	0.041261	0.000082
C22	C	1.626541	0.541261	0.500082
C23	C	1.124865	-0.042873	0.000082
C24	C	1.624865	0.457127	0.500082
C25	C	0.946018	0.172974	0.000061
C26	C	1.446018	0.672974	0.500061
C27	C	0.840812	0.164378	0.000054
C28	C	1.340812	0.664378	0.500054
C29	C	1.210431	-0.085591	0.000090
C30	C	1.710431	0.414409	0.500090
C31	C	1.208850	-0.164644	0.000083
C32	C	1.708850	0.335356	0.500083
C33	C	1.121702	-0.200976	0.000073
C34	C	1.621702	0.299024	0.500073
C35	C	1.036130	-0.158252	0.000063
C36	C	1.536130	0.341748	0.500063
C37	C	1.037712	-0.079201	0.000065
C38	C	1.537712	0.420799	0.500065
C39	C	1.029750	-0.477055	0.000056
C40	C	1.529750	0.022945	0.500056
C41	C	1.028175	-0.556112	0.000057
C42	C	1.528175	-0.056112	0.500057
C43	C	1.200888	-0.562498	0.000074
C44	C	1.700888	-0.062498	0.500074
C45	C	1.202470	-0.483447	0.000075
C46	C	1.702470	0.016553	0.500075
C47	C	1.116898	-0.440730	0.000061
C48	C	1.616898	0.059270	0.500061
C49	C	1.118613	-0.355012	0.000067
C50	C	1.618613	0.144988	0.500067
C51	C	1.119987	-0.286692	0.000073
C52	C	1.619987	0.213308	0.500073
C53	C	0.648187	0.148663	0.000071
C54	C	1.148187	0.648663	0.500071
C55	C	0.590414	0.209629	0.000070
C56	C	1.090414	0.709629	0.500070
C57	C	0.483230	0.200885	0.000080
C58	C	0.983230	0.700885	0.500080
C59	C	0.755381	0.157406	0.000061
C60	C	1.255381	0.657406	0.500061
C61	C	1.292588	0.185321	0.000085
C62	C	1.792588	0.685321	0.500085
C63	C	1.397794	0.193917	0.000088
C64	C	1.897794	0.693917	0.500088
C65	C	1.112066	0.317035	0.000064
C66	C	1.612066	0.817035	0.500064
C67	C	1.113742	0.401168	0.000059
C68	C	1.613742	0.901168	0.500059
N69	N	1.119282	0.179135	0.195740
N70	N	1.619282	0.679135	0.695740
N71	N	1.119332	0.179155	-0.195592
N72	N	1.619332	0.679155	0.304408
C73	C	1.183849	0.132061	0.239013
C74	C	1.683849	0.632061	0.739013
C75	C	1.183854	0.132061	0.325560
C76	C	1.683854	0.632061	0.825560
C77	C	1.119295	0.179139	0.368833
C78	C	1.619295	0.679139	0.868833
C79	C	1.054720	0.226214	0.325555
C80	C	1.554720	0.726214	0.825555
C81	C	1.054712	0.226210	0.239009
C82	C	1.554712	0.726210	0.739009
C83	C	1.054753	0.226231	0.674583
C84	C	1.554753	0.726231	1.174583
C85	C	1.054768	0.226233	0.761134
C86	C	1.554768	0.726233	1.261134
C87	C	1.183895	0.132081	0.761133
C88	C	1.683895	0.632081	1.261133
C89	C	1.183887	0.132077	0.674588
C90	C	1.683887	0.632077	1.174588
C91	C	1.119309	0.179150	0.631317
C92	C	1.619309	0.679150	1.131317
C93	C	1.119303	0.179149	0.537473
C94	C	1.619303	0.679149	1.037473
C95	C	1.119304	0.179144	0.462675
C96	C	1.619304	0.679144	0.962675
H97	H	1.278527	-0.199422	0.000091
H98	H	1.778527	0.300578	0.500091
O99	O	0.607084	0.070830	0.000082
O100	O	1.107084	0.570830	0.500082
H101	H	0.631489	0.039661	-0.055956
H102	H	1.131489	0.539661	0.444044
H103	H	1.236425	0.093729	0.203785
H104	H	1.736425	0.593729	0.703785
H105	H	1.236430	0.093730	0.360792
H106	H	1.736430	0.593730	0.860792
O107	O	1.253512	0.081297	0.627912
O108	O	1.753512	0.581297	1.127912
H109	H	1.298405	0.048556	0.672543
H110	H	1.798405	0.548556	1.172543
H111	H	1.273434	-0.453869	0.000087
H112	H	1.773434	0.046131	0.500087
H113	H	1.236475	0.093750	0.796374
H114	H	1.736475	0.593750	1.296374
H115	H	0.960072	-0.442284	0.000045
H116	H	1.460072	0.057716	0.500045
O117	O	0.631511	0.287469	0.000062
O118	O	1.131511	0.787469	0.500062
H119	H	0.607094	0.318642	-0.055976
H120	H	1.107094	0.818642	0.444024
H121	H	1.002193	0.264570	0.796366
H122	H	1.502193	0.764570	1.296366
H123	H	1.281396	-0.056016	0.000103
H124	H	1.781396	0.443984	0.500103
H125	H	0.965173	-0.187840	0.000051
H126	H	1.465173	0.312160	0.500051
H127	H	0.968035	-0.044420	0.000059
H128	H	1.468035	0.455580	0.500059
H129	H	1.002173	0.264560	0.639359
H130	H	1.502173	0.764560	1.139359
O131	O	0.985089	0.276997	0.372221
O132	O	1.485089	0.776997	0.872221
H133	H	0.995949	0.269099	0.439672
H134	H	1.495949	0.769099	0.939672
H135	H	1.002133	0.264541	0.203778
H136	H	1.502133	0.764541	0.703778
H137	H	1.270565	-0.597288	0.000081
H138	H	1.770565	-0.097288	0.500081
H139	H	0.957205	-0.585691	0.000051
H140	H	1.457205	-0.085691	0.500051
