data_functionalizedCrystal
_audit_creation_method	'MofGen! by Chris Wilmer'
_symmetry_space_group_name_H-M	'P1'
_symmetry_Int_Tables_number	1
_symmetry_cell_setting	triclinic
loop_
_symmetry_equiv_pos_as_xyz
  x,y,z
_cell_length_a	10.967874
_cell_length_b	11.026607
_cell_length_c	16.776229
_cell_angle_alpha	89.996140
_cell_angle_beta	77.864182
_cell_angle_gamma	96.380181
loop_
_atom_site_label
_atom_site_type_symbol
_atom_site_fract_x
_atom_site_fract_y
_atom_site_fract_z
O1	O	1.694042	0.170539	-0.298986
O2	O	2.194042	0.670539	0.201014
O3	O	1.334403	0.186858	-0.249586
O4	O	1.834403	0.686858	0.250414
O5	O	1.484416	0.001797	-0.270189
O6	O	1.984416	0.501797	0.229811
O7	O	1.544029	0.355600	-0.278383
O8	O	2.044029	0.855600	0.221617
O9	O	1.484388	0.001786	-0.137608
O10	O	1.984388	0.501786	0.362392
O11	O	1.334375	0.186846	-0.117005
O12	O	1.834375	0.686846	0.382995
O13	O	1.694014	0.170528	-0.166405
O14	O	2.194014	0.670528	0.333595
Zn15	Zn	1.514190	0.178685	-0.120655
Zn16	Zn	2.014190	0.678685	0.379345
Zn17	Zn	1.514227	0.178701	-0.295336
Zn18	Zn	2.014227	0.678701	0.204664
O19	O	1.544001	0.355589	-0.145803
O20	O	2.044001	0.855589	0.354197
C21	C	1.287632	0.185664	-0.176873
C22	C	1.787632	0.685664	0.323127
C23	C	1.148307	0.182109	-0.157735
C24	C	1.648307	0.682109	0.342265
C25	C	1.086207	0.180530	-0.217884
C26	C	1.586207	0.680530	0.282116
C27	C	0.942207	0.176856	-0.198106
C28	C	1.442207	0.676856	0.301894
C29	C	1.473404	-0.043511	-0.202389
C30	C	1.973404	0.456489	0.297611
C31	C	1.440620	-0.178498	-0.197888
C32	C	1.940620	0.321502	0.302112
C33	C	1.531143	-0.251550	-0.210324
C34	C	2.031143	0.248450	0.289676
C35	C	1.497261	-0.391066	-0.205673
C36	C	1.997261	0.108934	0.294327
C37	C	1.740785	0.171722	-0.239120
C38	C	2.240785	0.671722	0.260880
C39	C	1.880110	0.175277	-0.258263
C40	C	2.380110	0.675277	0.241737
C41	C	1.555012	0.400897	-0.213604
C42	C	2.055012	0.900897	0.286396
C43	C	1.587797	0.535884	-0.218110
C44	C	2.087797	1.035884	0.281890
N45	N	1.514174	0.178674	-0.001442
N46	N	2.014174	0.678674	0.498558
N47	N	1.514251	0.178702	-0.414550
N48	N	2.014251	0.678702	0.085450
C49	C	1.580633	0.096763	0.031148
C50	C	2.080633	0.596763	0.531148
C51	C	1.580640	0.096762	0.114599
C52	C	2.080640	0.596762	0.614599
C53	C	1.514194	0.178679	0.165458
C54	C	2.014194	0.678679	0.665458
C55	C	1.447726	0.260594	0.132864
C56	C	1.947726	0.760594	0.632864
C57	C	1.447713	0.260588	0.049415
C58	C	1.947713	0.760588	0.549415
C59	C	1.447777	0.260618	0.469404
C60	C	1.947777	0.760618	0.969404
C61	C	1.447798	0.260620	0.552858
C62	C	1.947798	0.760620	1.052858
C63	C	1.580703	0.096793	0.534588
C64	C	2.080703	0.596793	1.034588
C65	C	1.580690	0.096787	0.451139
C66	C	2.080690	0.596787	0.951139
C67	C	1.514218	0.178696	0.418553
C68	C	2.014218	0.678696	0.918553
C69	C	1.514209	0.178695	0.328066
C70	C	2.014209	0.678695	0.828066
C71	C	1.514209	0.178687	0.255943
C72	C	2.014209	0.678687	0.755943
H73	H	0.888772	0.175494	-0.131964
H74	H	1.388772	0.675494	0.368036
Br75	Br	0.969161	0.177581	-0.368506
Br76	Br	1.469161	0.677581	0.131494
Br77	Br	1.059251	0.179843	-0.047497
Br78	Br	1.559251	0.679843	0.452503
H79	H	1.633726	-0.210803	-0.224410
H80	H	2.133726	0.289197	0.275590
H81	H	1.394671	-0.431807	-0.191586
H82	H	1.894671	0.068193	0.308414
H83	H	1.690387	-0.423377	-0.232261
H84	H	2.190387	0.076623	0.267739
Br85	Br	1.670916	-0.014375	0.578816
Br86	Br	2.170916	0.485625	1.078816
Br87	Br	1.269635	-0.246397	-0.174413
Br88	Br	1.769635	0.253603	0.325587
H89	H	1.634747	0.030063	-0.010259
H90	H	2.134747	0.530063	0.489741
Br91	Br	1.670830	-0.014408	0.158831
Br92	Br	2.170830	0.485592	0.658831
Br93	Br	1.670877	-0.014382	0.382117
Br94	Br	2.170877	0.485618	0.882117
Br95	Br	1.357617	0.371801	0.621882
Br96	Br	1.857617	0.871801	1.121882
Br97	Br	1.357570	0.371780	0.425184
Br98	Br	1.857570	0.871780	0.925184
Br99	Br	1.357536	0.371760	0.201886
Br100	Br	1.857536	0.871760	0.701886
H101	H	1.139647	0.181905	-0.284021
H102	H	1.639647	0.681905	0.215979
Br103	Br	1.357504	0.371749	0.005188
Br104	Br	1.857504	0.871749	0.505188
