data_functionalizedCrystal
_audit_creation_method	'MofGen! by Chris Wilmer'
_symmetry_space_group_name_H-M	'P1'
_symmetry_Int_Tables_number	1
_symmetry_cell_setting	triclinic
loop_
_symmetry_equiv_pos_as_xyz
  x,y,z
_cell_length_a	10.489741
_cell_length_b	19.288857
_cell_length_c	17.766277
_cell_angle_alpha	90.007107
_cell_angle_beta	90.007022
_cell_angle_gamma	83.836141
loop_
_atom_site_label
_atom_site_type_symbol
_atom_site_fract_x
_atom_site_fract_y
_atom_site_fract_z
O1	O	-1.691842	-0.097993	-0.062552
O2	O	-1.320438	-0.107191	-0.062564
O3	O	-1.516877	-0.001533	-0.062548
O4	O	-1.495403	-0.203651	-0.062567
O5	O	-1.516841	-0.001531	0.062640
O6	O	-1.320402	-0.107188	0.062625
O7	O	-1.691806	-0.097990	0.062637
Cu8	Cu	-1.506101	-0.102589	0.074061
Cu9	Cu	-1.506144	-0.102592	-0.073988
O10	O	-1.495367	-0.203648	0.062621
C11	C	-1.272904	-0.106495	0.000029
C12	C	-1.131322	-0.104417	0.000025
C13	C	-1.516170	0.024349	0.000047
C14	C	-1.514101	0.101467	0.000049
C15	C	-1.739340	-0.098686	0.000042
C16	C	-1.880923	-0.100765	0.000042
C17	C	-1.064705	-0.037190	0.000038
C18	C	-0.971877	-0.068948	-0.061688
C19	C	-0.971875	-0.068962	0.061738
C20	C	-1.040358	-0.136203	-0.061752
C21	C	-1.040365	-0.136207	0.061729
C22	C	-0.947563	-0.168014	-0.000011
C23	C	-1.496075	-0.229530	0.000025
C24	C	-1.498144	-0.306648	0.000018
N25	N	-1.506080	-0.102586	0.178192
C26	C	-1.513155	0.137683	-0.068192
C27	C	-1.511192	0.210142	-0.068197
C28	C	-1.510201	0.246384	0.000041
C29	C	-1.511140	0.210159	0.068291
C30	C	-1.513090	0.137701	0.068294
C31	C	-1.581803	0.366137	0.052318
C32	C	-1.579862	0.438594	0.052312
C33	C	-1.504183	0.469870	0.000033
C34	C	-1.430462	0.428681	-0.052253
C35	C	-1.432411	0.356222	-0.052249
C36	C	-1.508087	0.324953	0.000045
C37	C	-1.501107	0.584655	-0.068219
C38	C	-1.499137	0.657114	-0.068222
C39	C	-1.499098	0.657132	0.068268
C40	C	-1.501055	0.584672	0.068269
C41	C	-1.502066	0.548438	0.000024
C42	C	-1.583177	-0.145128	0.217571
C43	C	-1.583196	-0.145126	0.296373
C44	C	-1.506094	-0.102591	0.335792
C45	C	-1.428992	-0.060042	0.296404
C46	C	-1.428985	-0.060039	0.217603
C47	C	-1.391121	-0.100064	0.460648
C48	C	-1.391125	-0.100072	0.539447
C49	C	-1.506118	-0.102595	0.578839
C50	C	-1.621109	-0.105125	0.539422
C51	C	-1.621101	-0.105123	0.460621
C52	C	-1.506095	-0.102589	0.421238
C53	C	-1.583243	-0.145137	0.703664
C54	C	-1.583265	-0.145130	0.782467
C55	C	-1.429049	-0.060050	0.782496
C56	C	-1.429039	-0.060052	0.703695
C57	C	-1.506134	-0.102600	0.664283
N58	N	-1.506164	-0.102594	0.821881
H59	H	-1.115648	0.018075	-0.000034
H60	H	-1.297493	-0.098015	0.571534
H61	H	-1.368837	0.454144	-0.094824
H62	H	-1.645959	-0.179770	0.185487
H63	H	-0.896885	-0.223338	-0.000050
H64	H	-1.714731	-0.107182	0.428531
H65	H	-1.639895	0.472126	0.094883
H66	H	-1.645979	-0.179770	0.328442
H67	H	-1.643429	0.340678	0.094896
H68	H	-1.366253	-0.025413	0.671632
H69	H	-1.070752	-0.164628	0.113912
H70	H	-1.513855	0.108214	0.123866
H71	H	-1.498360	0.686600	-0.123793
H72	H	-0.941526	-0.040503	0.113923
H73	H	-1.646056	-0.179770	0.814528
H74	H	-1.297471	-0.098014	0.428582
H75	H	-1.510330	0.239672	0.123851
H76	H	-0.941522	-0.040504	-0.113868
H77	H	-1.714747	-0.107184	0.571493
H78	H	-1.366201	-0.025396	0.185541
H79	H	-1.498281	0.686639	0.123830
H80	H	-1.646019	-0.179781	0.671573
H81	H	-1.070557	-0.164627	-0.113996
H82	H	-1.366273	-0.025416	0.814591
H83	H	-1.513974	0.108185	-0.123763
H84	H	-1.372383	0.322688	-0.094820
H85	H	-1.510414	0.239634	-0.123769
H86	H	-1.501923	0.555151	-0.123788
H87	H	-1.366217	-0.025409	0.328504
H88	H	-1.501836	0.555186	0.123838
