data_functionalizedCrystal
_audit_creation_method	'MofGen! by Chris Wilmer'
_symmetry_space_group_name_H-M	'P1'
_symmetry_Int_Tables_number	1
_symmetry_cell_setting	triclinic
loop_
_symmetry_equiv_pos_as_xyz
  x,y,z
_cell_length_a	6.817900
_cell_length_b	16.418042
_cell_length_c	9.582860
_cell_angle_alpha	93.122023
_cell_angle_beta	111.206767
_cell_angle_gamma	103.389568
loop_
_atom_site_label
_atom_site_type_symbol
_atom_site_fract_x
_atom_site_fract_y
_atom_site_fract_z
V1	V	-4.065734	-0.260999	-0.208271
V2	V	-3.565734	0.239001	0.291729
O3	O	-4.011405	-0.256189	0.008757
O4	O	-3.511405	0.243811	0.508757
O5	O	-4.056512	-0.259062	-0.411763
O6	O	-3.556512	0.240938	0.088237
O7	O	-4.016296	-0.374899	-0.205617
O8	O	-3.516296	0.125101	0.294383
O9	O	-4.051900	-0.139550	-0.198817
O10	O	-3.551900	0.360450	0.301183
V11	V	-4.544419	-0.246491	-0.182247
V12	V	-4.044419	0.253509	0.317753
O13	O	-4.337603	-0.292823	-0.265357
O14	O	-3.837603	0.207177	0.234643
O15	O	-4.722747	-0.214667	-0.125162
O16	O	-4.222747	0.285333	0.374838
O17	O	-4.330434	-0.248428	0.021245
O18	O	-3.830434	0.251572	0.521245
O19	O	-4.716145	-0.251302	-0.399275
O20	O	-4.216145	0.248698	0.100725
O21	O	-4.675650	-0.367941	-0.191702
O22	O	-4.175650	0.132059	0.308298
O23	O	-4.370650	-0.132591	-0.184902
O24	O	-3.870650	0.367409	0.315098
C25	C	-3.911078	-0.254906	-0.461353
C26	C	-3.411078	0.245094	0.038647
C27	C	-3.984818	-0.254081	-0.627714
C28	C	-3.484818	0.245919	-0.127714
C29	C	-3.859777	-0.402666	-0.198391
C30	C	-3.359777	0.097334	0.301609
C31	C	-3.900899	-0.495779	-0.197567
C32	C	-3.400899	0.004221	0.302433
C33	C	-4.178993	-0.714261	-0.203134
C34	C	-3.678993	-0.214261	0.296866
C35	C	-4.217610	-0.801749	-0.202347
C36	C	-3.717610	-0.301749	0.297653
C37	C	-3.850514	-0.793218	-0.187377
C38	C	-3.350514	-0.293218	0.312623
C39	C	-3.811895	-0.705730	-0.188153
C40	C	-3.311895	-0.205730	0.311847
C41	C	-3.976145	-0.666255	-0.196040
C42	C	-3.476145	-0.166255	0.303960
C43	C	-4.053381	-0.841230	-0.194476
C44	C	-3.553381	-0.341230	0.305524
C45	C	-4.095250	-0.936089	-0.193623
C46	C	-3.595250	-0.436089	0.306377
C47	C	-3.934273	-0.571390	-0.196890
C48	C	-3.434273	-0.071390	0.303110
C49	C	-4.139212	-0.252583	0.070826
C50	C	-3.639212	0.247417	0.570826
C51	C	-4.044710	-0.253413	0.237186
C52	C	-3.544710	0.246587	0.737186
C53	C	-4.190513	-0.104820	-0.192133
C54	C	-3.690513	0.395180	0.307867
C55	C	-4.128628	-0.011706	-0.192949
C56	C	-3.628628	0.488294	0.307051
H57	H	-4.312738	-0.682123	-0.209553
H58	H	-3.812738	-0.182123	0.290447
C59	C	-3.669785	-0.836636	-0.178560
C60	C	-3.169785	-0.336636	0.321440
N61	N	-3.533629	-0.869334	-0.171868
N62	N	-3.033629	-0.369334	0.328132
C63	C	-3.588740	-0.652921	-0.180356
C64	C	-3.088740	-0.152921	0.319644
N65	N	-3.420666	-0.613145	-0.174484
N66	N	-2.920666	-0.113145	0.325516
H67	H	-4.382785	-0.840832	-0.208122
H68	H	-3.882785	-0.340832	0.291878
