data_functionalizedCrystal
_audit_creation_method	'MofGen! by Chris Wilmer'
_symmetry_space_group_name_H-M	'P1'
_symmetry_Int_Tables_number	1
_symmetry_cell_setting	triclinic
loop_
_symmetry_equiv_pos_as_xyz
  x,y,z
_cell_length_a	17.038272
_cell_length_b	14.971482
_cell_length_c	13.448316
_cell_angle_alpha	90.006202
_cell_angle_beta	90.006686
_cell_angle_gamma	87.362082
loop_
_atom_site_label
_atom_site_type_symbol
_atom_site_fract_x
_atom_site_fract_y
_atom_site_fract_z
O1	O	0.101884	1.194578	0.082680
O2	O	0.114089	0.935091	0.082685
O3	O	-0.005831	1.063292	0.082675
O4	O	0.221803	1.066376	0.082690
O5	O	-0.005838	1.063274	-0.082709
O6	O	0.114082	0.935073	-0.082699
O7	O	0.101876	1.194560	-0.082704
Cu8	Cu	0.107978	1.064815	-0.097802
Cu9	Cu	0.107987	1.064836	0.097783
O10	O	0.221796	1.066359	-0.082693
C11	C	0.113540	0.901716	-0.000006
C12	C	0.111906	0.802297	-0.000005
C13	C	0.111132	0.755585	-0.090157
C14	C	0.109584	0.662170	-0.090158
C15	C	0.108816	0.615469	-0.000006
C16	C	0.109587	0.662188	0.090153
C17	C	0.111129	0.755601	0.090153
C18	C	0.106374	0.467485	0.090146
C19	C	0.104833	0.374066	0.090146
C20	C	0.104829	0.374055	-0.090164
C21	C	0.106371	0.467468	-0.090164
C22	C	0.107144	0.514180	-0.000005
C23	C	-0.034966	1.060478	-0.000017
C24	C	-0.121769	1.052108	-0.000017
C25	C	-0.171794	1.128952	-0.000019
C26	C	-0.253354	1.121082	-0.000010
C27	C	-0.284886	1.036368	-0.000005
C28	C	-0.234854	0.959518	0.000001
C29	C	-0.153296	0.967389	-0.000002
C30	C	-0.530676	1.008563	0.000010
C31	C	-0.612241	1.000699	0.000009
C32	C	-0.630735	1.162263	0.000000
C33	C	-0.549174	1.170126	-0.000008
C34	C	-0.499149	1.093277	0.000003
C35	C	-0.368253	1.028322	0.000002
C36	C	-0.415784	1.101324	0.000003
C37	C	0.250931	1.069173	0.000000
C38	C	0.337734	1.077543	0.000007
C39	C	0.102425	1.227934	-0.000010
C40	C	0.104059	1.327354	-0.000005
N41	N	0.107972	1.064806	-0.235366
C42	C	0.054893	1.121594	-0.287411
C43	C	0.054892	1.121600	-0.391515
C44	C	0.107975	1.064821	-0.443571
C45	C	0.161056	1.008027	-0.391519
C46	C	0.161052	1.008018	-0.287417
C47	C	0.161061	1.008052	-0.608499
C48	C	0.161066	1.008063	-0.712607
C49	C	0.054901	1.121635	-0.712596
C50	C	0.054898	1.121625	-0.608495
C51	C	0.107980	1.064832	-0.556450
N52	N	0.107987	1.064851	0.235348
H53	H	0.104200	0.336017	-0.163575
H54	H	0.011680	1.167877	-0.754977
O55	O	-0.482171	0.933847	0.000141
C56	C	-0.496458	0.882800	0.085805
H57	H	-0.558299	0.900067	0.114364
H58	H	-0.451829	0.898423	0.145783
C59	C	-0.412857	0.761400	0.024706
C60	C	-0.488814	0.782603	0.059778
H61	H	-0.408139	0.699594	0.008653
H62	H	-0.403229	0.795793	-0.033006
H63	H	-0.375675	0.774427	0.074693
H64	H	-0.525994	0.769587	0.009786
H65	H	-0.498448	0.748205	0.117481
O66	O	-0.302031	1.195661	-0.000144
C67	C	-0.349762	1.195941	-0.085803
H68	H	-0.353951	1.124622	-0.114356
H69	H	-0.322906	1.238833	-0.145787
C70	C	-0.427373	1.322244	-0.024706
C71	C	-0.432524	1.234647	-0.059771
H72	H	-0.478424	1.346123	-0.008651
H73	H	-0.395215	1.322058	0.033003
H74	H	-0.404991	1.357976	-0.074698
H75	H	-0.454897	1.198915	-0.009775
H76	H	-0.464689	1.234828	-0.117471
H77	H	0.104208	0.336044	0.163556
O78	O	0.108813	0.616966	0.177816
C79	C	0.109848	0.678228	0.257387
H80	H	0.086204	0.746635	0.230958
H81	H	0.172696	0.683552	0.285105
C82	C	0.087061	0.561532	0.375025
C83	C	0.058015	0.645548	0.342567
H84	H	0.055092	0.541373	0.427571
H85	H	0.086367	0.520257	0.321418
H86	H	0.139434	0.565980	0.398116
H87	H	0.005647	0.641097	0.319465
H88	H	0.058700	0.686822	0.396173
H89	H	0.011671	1.167840	-0.433889
H90	H	0.204291	0.961827	-0.754987
O91	O	0.212702	0.952858	-0.558095
C92	C	0.259545	0.902732	-0.626361
H93	H	0.260481	0.939478	-0.700561
H94	H	0.234064	0.834351	-0.637452
C95	C	0.342720	0.845579	-0.494586
C96	C	0.343875	0.890715	-0.585717
H97	H	0.394738	0.838162	-0.469514
H98	H	0.311160	0.879347	-0.448593
H99	H	0.321483	0.788599	-0.503841
H100	H	0.365103	0.947697	-0.576459
H101	H	0.375441	0.856957	-0.631708
H102	H	-0.671473	1.224830	-0.000006
O103	O	-0.642967	0.918452	0.000151
C104	C	-0.689572	0.909079	0.085815
H105	H	-0.709811	0.978045	0.114364
H106	H	-0.653577	0.872253	0.145798
C107	C	-0.736907	0.770723	0.024732
C108	C	-0.761770	0.855428	0.059792
H109	H	-0.781440	0.737625	0.008683
H110	H	-0.705506	0.777036	-0.032980
H111	H	-0.706911	0.740046	0.074725
H112	H	-0.791757	0.886108	0.009796
H113	H	-0.793177	0.849119	0.117495
H114	H	0.107002	0.505489	-0.163574
H115	H	0.111761	0.793633	0.163564
O116	O	-0.141297	1.211313	0.000023
C117	C	-0.202944	1.277448	0.000001
H118	H	-0.258367	1.248156	0.031311
H119	H	-0.214470	1.301444	-0.079341
C120	C	-0.111778	1.392821	0.026406
C121	C	-0.179847	1.356846	0.064869
H122	H	-0.097531	1.441800	0.066416
H123	H	-0.070245	1.348265	0.026417
H124	H	-0.121392	1.412811	-0.039711
H125	H	-0.170230	1.336847	0.130981
H126	H	-0.221379	1.401401	0.064871
O127	O	-0.265446	0.877207	0.000185
C128	C	-0.239867	0.829990	0.085828
H129	H	-0.222853	0.879427	0.145693
H130	H	-0.186761	0.784186	0.066466
C131	C	-0.327545	0.712788	0.051144
C132	C	-0.306654	0.773507	0.124673
H133	H	-0.368740	0.677943	0.075103
H134	H	-0.344776	0.744597	-0.006559
H135	H	-0.283285	0.674626	0.035015
H136	H	-0.350911	0.811675	0.140792
H137	H	-0.289432	0.741704	0.182379
H138	H	-0.523507	1.239110	-0.000012
O139	O	0.111738	0.800917	-0.177757
C140	C	0.043701	0.783053	-0.232615
H141	H	-0.004014	0.760865	-0.179865
H142	H	0.058100	0.727698	-0.288827
C143	C	0.072989	0.895542	-0.352647
C144	C	0.014382	0.868297	-0.287859
H145	H	0.054904	0.948122	-0.386729
H146	H	0.118828	0.907575	-0.315691
H147	H	0.084983	0.849405	-0.399482
H148	H	0.002396	0.914429	-0.241018
H149	H	-0.031461	0.856274	-0.324808
H150	H	-0.112565	0.904814	0.000001
O151	O	0.108930	0.616683	-0.177664
C152	C	0.175707	0.557668	-0.183067
H153	H	0.198042	0.542021	-0.104792
H154	H	0.223683	0.590161	-0.227562
C155	C	0.126238	0.489662	-0.330739
C156	C	0.153667	0.470438	-0.234600
H157	H	0.112645	0.435856	-0.362531
H158	H	0.081250	0.529423	-0.327102
H159	H	0.166223	0.516741	-0.367806
H160	H	0.113679	0.443370	-0.197531
H161	H	0.198648	0.430670	-0.238232
H162	H	-0.390107	1.170297	0.000021
O163	O	0.003253	1.176779	-0.237002
C164	C	-0.043583	1.226916	-0.305267
H165	H	-0.044515	1.190181	-0.379483
H166	H	-0.018099	1.295298	-0.316318
C167	C	-0.126766	1.284056	-0.173503
C168	C	-0.127916	1.238932	-0.264654
H169	H	-0.178786	1.291472	-0.148450
H170	H	-0.095210	1.250280	-0.127511
H171	H	-0.105525	1.341035	-0.182725
H172	H	-0.149147	1.181950	-0.255429
H173	H	-0.159477	1.272699	-0.310644
H174	H	-0.393936	0.959347	0.000004
O175	O	0.003260	1.176808	-0.558079
C176	C	-0.043579	1.226952	-0.626335
H177	H	-0.044516	1.190222	-0.700554
H178	H	-0.018093	1.295334	-0.637383
C179	C	-0.126752	1.284084	-0.494558
C180	C	-0.127909	1.238968	-0.585712
H181	H	-0.178770	1.291500	-0.469500
H182	H	-0.095194	1.250304	-0.448572
H183	H	-0.105510	1.341064	-0.503777
H184	H	-0.149141	1.181986	-0.576491
H185	H	-0.159472	1.272739	-0.631697
H186	H	0.107004	0.505516	0.163563
H187	H	0.204274	0.961792	-0.433909
H188	H	0.204273	0.961774	-0.245043
