data_functionalizedCrystal
_audit_creation_method	'MofGen! by Chris Wilmer'
_symmetry_space_group_name_H-M	'P1'
_symmetry_Int_Tables_number	1
_symmetry_cell_setting	triclinic
loop_
_symmetry_equiv_pos_as_xyz
  x,y,z
_cell_length_a	17.699083
_cell_length_b	17.038272
_cell_length_c	16.176319
_cell_angle_alpha	89.993159
_cell_angle_beta	90.006703
_cell_angle_gamma	92.802881
loop_
_atom_site_label
_atom_site_type_symbol
_atom_site_fract_x
_atom_site_fract_y
_atom_site_fract_z
O1	O	-1.010621	0.098858	-0.068733
O2	O	-0.791093	0.111721	-0.068738
O3	O	-0.899552	-0.008524	-0.068729
O4	O	-0.902162	0.219103	-0.068742
O5	O	-0.899536	-0.008532	0.068764
O6	O	-0.791077	0.111713	0.068755
O7	O	-1.010604	0.098850	0.068760
Cu8	Cu	-0.900839	0.105281	0.081312
Cu9	Cu	-0.900858	0.105290	-0.081290
O10	O	-0.902145	0.219095	0.068751
C11	C	-0.762857	0.111256	0.000008
C12	C	-0.678748	0.109874	0.000006
C13	C	-0.639228	0.109218	0.074954
C14	C	-0.560199	0.107907	0.074955
C15	C	-0.520691	0.107257	0.000007
C16	C	-0.560216	0.107910	-0.074947
C17	C	-0.639244	0.109216	-0.074947
C18	C	-0.241505	0.102643	-0.074950
C19	C	-0.162471	0.101339	-0.074944
C20	C	-0.162460	0.101334	0.074953
C21	C	-0.241488	0.102640	0.074953
C22	C	-0.281007	0.103289	-0.000001
C23	C	-0.366699	0.104709	-0.000000
C24	C	-0.434999	0.105842	0.000006
C25	C	-0.897171	-0.037652	0.000017
C26	C	-0.890090	-0.124433	0.000017
C27	C	-0.955100	-0.174654	0.000019
C28	C	-0.948442	-0.256193	0.000011
C29	C	-0.876774	-0.287511	0.000007
C30	C	-0.811758	-0.237285	0.000002
C31	C	-0.818417	-0.155746	0.000004
C32	C	-0.853251	-0.533231	-0.000005
C33	C	-0.846597	-0.614775	-0.000005
C34	C	-0.983282	-0.633679	0.000003
C35	C	-0.989934	-0.552138	0.000010
C36	C	-0.924919	-0.501918	0.000001
C37	C	-0.869967	-0.370858	0.000001
C38	C	-0.931726	-0.418574	0.000000
C39	C	-0.038840	0.099310	0.000011
C40	C	-0.122951	0.100678	0.000005
C41	C	-0.904527	0.248223	0.000003
C42	C	-0.911608	0.335004	-0.000002
N43	N	-0.900831	0.105274	0.195677
N44	N	-0.900872	0.105291	-0.195655
C45	C	-0.948873	0.052052	0.238945
C46	C	-0.948877	0.052051	0.325492
C47	C	-0.900842	0.105277	0.368769
C48	C	-0.852794	0.158502	0.325495
C49	C	-0.852787	0.158498	0.238950
C50	C	-0.852821	0.158517	0.674523
C51	C	-0.852833	0.158518	0.761075
C52	C	-0.948911	0.052069	0.761066
C53	C	-0.948904	0.052065	0.674520
C54	C	-0.900853	0.105287	0.631254
C55	C	-0.900849	0.105287	0.537410
C56	C	-0.900849	0.105282	0.462612
H57	H	-0.671390	0.109754	0.135986
H58	H	-1.001381	-0.297080	0.000015
O59	O	-0.800333	-0.401246	-0.000145
C60	C	-0.681466	-0.410003	-0.071352
C61	C	-0.760307	-0.375547	-0.071295
H62	H	-0.649076	-0.389225	-0.128862
H63	H	-0.687838	-0.476910	-0.071409
H64	H	-0.649096	-0.389338	-0.013783
H65	H	-0.792720	-0.396152	-0.128854
H66	H	-0.753880	-0.308643	-0.071195
O67	O	-0.279892	0.103408	0.147736
C68	C	-0.364931	0.172545	0.234708
C69	C	-0.321466	0.171788	0.152259
H70	H	-0.398566	0.227815	0.238384
H71	H	-0.323141	0.171899	0.288311
H72	H	-0.405304	0.118440	0.238441
H73	H	-0.281092	0.225883	0.148446
H74	H	-0.363299	0.172393	0.098695
H75	H	-0.988034	0.008730	0.796303
O76	O	-0.755189	-0.107071	0.000038
C77	C	-0.618914	-0.096922	-0.000025
C78	C	-0.690459	-0.152134	-0.000038
H79	H	-0.566563	-0.133333	-0.000105
H80	H	-0.618550	-0.058294	0.057527
H81	H	-0.618669	-0.058255	-0.057554
H82	H	-0.690752	-0.190850	0.057451
H83	H	-0.690796	-0.190709	-0.057629
O84	O	-0.995560	0.000272	0.197037
C85	C	-1.090889	-0.105286	0.206173
C86	C	-1.038044	-0.046697	0.253733
H87	H	-1.125263	-0.143264	0.251990
H88	H	-1.055737	-0.144354	0.165692
H89	H	-1.130830	-0.071570	0.165617
H90	H	-0.998093	-0.080348	0.294333
H91	H	-1.073243	-0.007629	0.294161
H92	H	-0.130305	0.100809	-0.135980
O93	O	-0.521884	0.107143	-0.147776
C94	C	-0.501971	0.039085	-0.275920
C95	C	-0.545418	0.039841	-0.193462
H96	H	-0.520994	-0.015315	-0.312888
H97	H	-0.438692	0.037993	-0.263100
H98	H	-0.514099	0.094058	-0.312845
H99	H	-0.533353	-0.015122	-0.156496
H100	H	-0.608684	0.040974	-0.206340
O101	O	-0.677594	0.109996	-0.147773
C102	C	-0.697539	0.178079	-0.275918
C103	C	-0.654068	0.177305	-0.193463
H104	H	-0.678523	0.232485	-0.312889
H105	H	-0.760814	0.179174	-0.263091
H106	H	-0.685425	0.123112	-0.312841
H107	H	-0.666119	0.232262	-0.156498
H108	H	-0.590806	0.176170	-0.206348
O109	O	-0.995476	0.000382	0.367650
C110	C	-1.038103	-0.046765	0.500975
C111	C	-0.985278	0.011784	0.453335
H112	H	-1.029888	-0.037556	0.570259
H113	H	-1.024216	-0.109387	0.484031
H114	H	-1.099361	-0.036660	0.483895
H115	H	-0.924003	0.001751	0.470390
H116	H	-0.999231	0.074385	0.470283
H117	H	-1.013460	-0.149162	0.000028
H118	H	-0.800310	-0.492351	-0.000012
H119	H	-0.130275	0.100802	0.135984
O120	O	-0.806233	0.210330	0.632543
C121	C	-0.770605	0.346326	0.606108
C122	C	-0.823427	0.287728	0.653688
H123	H	-0.784477	0.408915	0.623199
H124	H	-0.778844	0.337257	0.536806
H125	H	-0.709345	0.336178	0.623137
H126	H	-0.884708	0.297840	0.636728
H127	H	-0.815123	0.296811	0.722979
H128	H	-1.048294	-0.526646	0.000014
H129	H	-0.273671	0.103169	-0.135981
H130	H	-0.813714	0.201862	0.796310
O131	O	-1.046411	-0.682494	-0.000143
C132	C	-1.118205	-0.785547	-0.071354
C133	C	-1.046686	-0.730296	-0.071297
H134	H	-1.118444	-0.824220	-0.128867
H135	H	-1.170599	-0.749196	-0.071406
H136	H	-1.118494	-0.824166	-0.013789
H137	H	-1.046325	-0.691665	-0.128853
H138	H	-0.994325	-0.766694	-0.071203
O139	O	-1.001401	-0.388285	-0.000033
C140	C	-1.136272	-0.415630	0.000028
C141	C	-1.057413	-0.450045	0.000044
H142	H	-1.181579	-0.465545	0.000108
H143	H	-1.142862	-0.377951	-0.057526
H144	H	-1.142752	-0.377905	0.057555
H145	H	-1.050879	-0.487804	-0.057444
H146	H	-1.050859	-0.487679	0.057636
H147	H	-0.788233	-0.640270	0.000005
O148	O	-0.995588	0.000286	0.632610
C149	C	-1.090917	-0.105274	0.641737
C150	C	-1.038074	-0.046685	0.689302
H151	H	-1.125292	-0.143254	0.687551
H152	H	-1.055762	-0.144341	0.601257
H153	H	-1.130856	-0.071558	0.601180
H154	H	-0.998125	-0.080337	0.729904
H155	H	-1.073277	-0.007619	0.729729
O156	O	-0.806093	0.210098	0.367625
C157	C	-0.703794	0.226874	0.465325
C158	C	-0.756644	0.168354	0.417681
H159	H	-0.663791	0.193147	0.505793
H160	H	-0.738942	0.265878	0.505883
H161	H	-0.669488	0.264929	0.419518
H162	H	-0.790961	0.130247	0.463428
H163	H	-0.721453	0.129405	0.377110
H164	H	-0.753404	-0.262790	-0.000007
O165	O	-0.806097	0.210277	0.197044
C166	C	-0.710765	0.315832	0.206182
C167	C	-0.763620	0.257250	0.253741
H168	H	-0.676397	0.353814	0.252000
H169	H	-0.745909	0.354897	0.165670
H170	H	-0.670819	0.282110	0.165657
H171	H	-0.803576	0.290908	0.294310
H172	H	-0.728428	0.218185	0.294200
H173	H	-0.528027	0.107360	0.135986
