data_functionalizedCrystal
_audit_creation_method	'MofGen! by Chris Wilmer'
_symmetry_space_group_name_H-M	'P1'
_symmetry_Int_Tables_number	1
_symmetry_cell_setting	triclinic
loop_
_symmetry_equiv_pos_as_xyz
  x,y,z
_cell_length_a	12.827892
_cell_length_b	10.686154
_cell_length_c	10.686551
_cell_angle_alpha	90.306020
_cell_angle_beta	94.405078
_cell_angle_gamma	85.605784
loop_
_atom_site_label
_atom_site_type_symbol
_atom_site_fract_x
_atom_site_fract_y
_atom_site_fract_z
Zn1	Zn	-0.254846	-1.972290	0.562453
Zn2	Zn	0.245154	-1.472290	1.062453
Zn3	Zn	-0.443990	-1.956060	0.352697
Zn4	Zn	0.056010	-1.456060	0.852697
Zn5	Zn	-0.281570	-1.746408	0.368764
Zn6	Zn	0.218430	-1.246408	0.868764
Zn7	Zn	-0.441865	-1.762489	0.578468
Zn8	Zn	0.058135	-1.262489	1.078468
O9	O	-0.355567	-1.859312	0.465595
O10	O	0.144433	-1.359312	0.965595
O11	O	-0.269642	-2.145680	0.521202
O12	O	0.230358	-1.645680	1.021202
O13	O	-0.434518	-1.914726	0.179282
O14	O	0.065482	-1.414726	0.679282
O15	O	-0.131783	-1.776435	0.394479
O16	O	0.368217	-1.276435	0.894479
O17	O	-0.408605	-2.133755	0.367095
O18	O	0.091395	-1.633755	0.867095
O19	O	-0.112149	-1.942389	0.536782
O20	O	0.387851	-1.442389	1.036782
O21	O	-0.315188	-1.760696	0.191087
O22	O	0.184812	-1.260696	0.691087
O23	O	-0.313128	-1.572999	0.410008
O24	O	0.186872	-1.072999	0.910008
O25	O	-0.404983	-1.803843	0.751889
O26	O	0.095017	-1.303843	1.251889
O27	O	-0.430896	-1.584814	0.564077
O28	O	0.069104	-1.084814	1.064077
O29	O	-0.267581	-1.957983	0.740124
O30	O	0.232419	-1.457983	1.240124
O31	O	-0.589949	-1.930319	0.382624
O32	O	-0.089949	-1.430319	0.882624
O33	O	-0.588388	-1.788104	0.548497
O34	O	-0.088388	-1.288104	1.048497
C35	C	-0.374682	-1.533390	0.490524
C36	C	0.125318	-1.033390	0.990524
C37	C	-0.382882	-1.393962	0.501219
C38	C	0.117118	-0.893962	1.001219
C39	C	-0.627084	-1.859232	0.465579
C40	C	-0.127084	-1.359232	0.965579
C41	C	-0.743230	-1.859315	0.465606
C42	C	-0.243230	-1.359315	0.965606
C43	C	-0.795741	-1.929785	0.383604
C44	C	-0.295741	-1.429785	0.883604
C45	C	-0.915784	-1.929873	0.383629
C46	C	-0.415784	-1.429873	0.883629
C47	C	-0.082987	-1.859429	0.465636
C48	C	0.417013	-1.359429	0.965636
C49	C	0.033170	-1.859478	0.465654
C50	C	0.533170	-1.359478	0.965654
C51	C	-0.333064	-1.884517	0.792796
C52	C	0.166936	-1.384517	1.292796
C53	C	-0.323474	-1.895258	0.932230
C54	C	0.176526	-1.395258	1.432230
C55	C	-0.336370	-1.186506	0.440562
C56	C	0.163630	-0.686506	0.940562
C57	C	-0.328164	-1.325935	0.429873
C58	C	0.171836	-0.825935	0.929873
C59	C	-0.377904	-1.834277	0.139662
C60	C	0.122096	-1.334277	0.639662
C61	C	-0.387185	-1.823779	0.000211
C62	C	0.112815	-1.323779	0.500211
H63	H	-0.275045	-1.374360	0.360608
H64	H	0.224955	-0.874360	0.860608
H65	H	-0.436012	-1.345529	0.570480
H66	H	0.063988	-0.845529	1.070480
H67	H	-0.449070	-1.754370	0.951741
H68	H	0.050930	-1.254370	1.451741
O69	O	-0.249536	-1.977899	0.990117
O70	O	0.250464	-1.477899	1.490117
C71	C	-0.181091	-1.912282	1.071409
C72	C	0.318909	-1.412282	1.571409
H73	H	-0.183124	-1.810472	1.039406
H74	H	0.316876	-1.310472	1.539406
H75	H	-0.097894	-1.957805	1.069560
H76	H	0.402106	-1.457805	1.569560
H77	H	-0.206907	-1.915511	1.170994
H78	H	0.293093	-1.415511	1.670994
H79	H	-0.960941	-1.990201	0.313421
H80	H	-0.460941	-1.490201	0.813421
O81	O	-0.743333	-2.001495	0.299704
O82	O	-0.243333	-1.501495	0.799704
C83	C	-0.690019	-1.923787	0.224166
C84	C	-0.190019	-1.423787	0.724166
H85	H	-0.729389	-1.824449	0.223861
H86	H	-0.229389	-1.324449	0.723861
H87	H	-0.692636	-1.961798	0.124187
H88	H	-0.192636	-1.461798	0.624187
H89	H	-0.604924	-1.922277	0.263365
H90	H	-0.104924	-1.422277	0.763365
O91	O	-0.795441	-1.787383	0.549508
O92	O	-0.295441	-1.287383	1.049508
C93	C	-0.723312	-1.721818	0.625727
C94	C	-0.223312	-1.221818	1.125727
H95	H	-0.642127	-1.773396	0.626256
H96	H	-0.142127	-1.273396	1.126256
H97	H	-0.748899	-1.716024	0.725554
H98	H	-0.248899	-1.216024	1.225554
H99	H	-0.720584	-1.623018	0.587005
H100	H	-0.220584	-1.123018	1.087005
O101	O	-0.913073	-1.787574	0.549587
O102	O	-0.413073	-1.287574	1.049587
C103	C	-0.929380	-1.824539	0.672584
C104	C	-0.429380	-1.324539	1.172584
H105	H	-1.005602	-1.872940	0.671644
H106	H	-0.505602	-1.372940	1.171644
H107	H	-0.934503	-1.738288	0.735698
H108	H	-0.434503	-1.238288	1.235698
H109	H	-0.861225	-1.892276	0.709870
H110	H	-0.361225	-1.392276	1.209870
