data_functionalizedCrystal
_audit_creation_method	'MofGen! by Chris Wilmer'
_symmetry_space_group_name_H-M	'P1'
_symmetry_Int_Tables_number	1
_symmetry_cell_setting	triclinic
loop_
_symmetry_equiv_pos_as_xyz
  x,y,z
_cell_length_a	12.827893
_cell_length_b	18.101395
_cell_length_c	12.827885
_cell_angle_alpha	89.967625
_cell_angle_beta	89.980538
_cell_angle_gamma	90.031075
loop_
_atom_site_label
_atom_site_type_symbol
_atom_site_fract_x
_atom_site_fract_y
_atom_site_fract_z
Zn1	Zn	1.597557	-0.294794	-0.590830
Zn2	Zn	1.597403	-0.418654	-0.416082
Zn3	Zn	1.422798	-0.294830	-0.416103
Zn4	Zn	1.422736	-0.418598	-0.590782
O5	O	1.510124	-0.356719	-0.503449
O6	O	1.743773	-0.311233	-0.567660
O7	O	1.574203	-0.402266	-0.269849
O8	O	1.446071	-0.191193	-0.439310
O9	O	1.743660	-0.402231	-0.439274
O10	O	1.574466	-0.191166	-0.567681
O11	O	1.445921	-0.311294	-0.269865
O12	O	1.276554	-0.311241	-0.439264
O13	O	1.445965	-0.402137	-0.737025
O14	O	1.276508	-0.402172	-0.567600
O15	O	1.574406	-0.311179	-0.737060
O16	O	1.574143	-0.522279	-0.439228
O17	O	1.445816	-0.522239	-0.567579
C18	C	1.238614	-0.356705	-0.503430
C19	C	1.122461	-0.356717	-0.503446
C20	C	1.509984	-0.549130	-0.503419
C21	C	1.510020	-0.631444	-0.503440
C22	C	1.070681	-0.401783	-0.566852
C23	C	0.950631	-0.401796	-0.566871
C24	C	1.510249	-0.930535	-0.503497
C25	C	1.429696	-0.899215	-0.584452
C26	C	1.429314	-0.813597	-0.584199
C27	C	1.510135	-0.782152	-0.503470
C28	C	1.480315	-0.813311	-0.393335
C29	C	1.479796	-0.898956	-0.393820
C30	C	1.620798	-0.898877	-0.531706
C31	C	1.620148	-0.813226	-0.534121
C32	C	1.510073	-0.698293	-0.503448
C33	C	1.510309	-1.014394	-0.503511
C34	C	1.782694	-0.356734	-0.503470
C35	C	1.898847	-0.356740	-0.503479
C36	C	1.510196	-0.356648	-0.776020
C37	C	1.510227	-0.356618	-0.892173
C38	C	1.510293	-0.163557	-0.503503
C39	C	1.510365	-0.081243	-0.503526
C40	C	1.446769	-0.311593	-0.943965
C41	C	1.446799	-0.311561	-1.064016
C42	C	1.510112	-0.356737	-0.231940
C43	C	1.510284	-0.356558	-0.115787
H44	H	0.906101	-0.440381	-0.621152
H45	H	1.077915	-0.318141	-0.449179
N46	N	0.957804	-0.305625	-0.431561
H47	H	1.003049	-0.335702	-0.383090
H48	H	1.003069	-0.271374	-0.474220
H49	H	1.392476	-0.273010	-1.108556
N50	N	1.582221	-0.407647	-0.951162
H51	H	1.656910	-0.396167	-0.932234
H52	H	1.565869	-0.460557	-0.932185
N53	N	1.454019	-0.785681	-0.692370
H54	H	1.465256	-0.829010	-0.740647
H55	H	1.394000	-0.754796	-0.718721
N56	N	1.555578	-0.786327	-0.311257
H57	H	1.516378	-0.757311	-0.256638
H58	H	1.590906	-0.830057	-0.277463
N59	N	1.454149	-0.926427	-0.692979
H60	H	1.517679	-0.959324	-0.690726
H61	H	1.392786	-0.955318	-0.720754
H62	H	1.683339	-0.791817	-0.479455
H63	H	1.115227	-0.440353	-0.621127
N64	N	1.656834	-0.927411	-0.636264
H65	H	1.605709	-0.911834	-0.691946
H66	H	1.727915	-0.906400	-0.652714
H67	H	1.348253	-0.920803	-0.566002
H68	H	1.347372	-0.793175	-0.565514
H69	H	1.392414	-0.273073	-0.899430
H70	H	1.398985	-0.919000	-0.369923
H71	H	1.535922	-0.919677	-0.331445
H72	H	1.642635	-0.792857	-0.615174
N73	N	1.374409	-0.784989	-0.361103
H74	H	1.345595	-0.751984	-0.417673
H75	H	1.325722	-0.828122	-0.349786
N76	N	1.700300	-0.925699	-0.453608
H77	H	1.664939	-0.958198	-0.400208
H78	H	1.756048	-0.954915	-0.490868
H79	H	1.564619	-0.395105	-1.071253
