data_functionalizedCrystal
_audit_creation_method	'MofGen! by Chris Wilmer'
_symmetry_space_group_name_H-M	'P1'
_symmetry_Int_Tables_number	1
_symmetry_cell_setting	triclinic
loop_
_symmetry_equiv_pos_as_xyz
  x,y,z
_cell_length_a	12.645329
_cell_length_b	12.645331
_cell_length_c	16.120256
_cell_angle_alpha	92.877946
_cell_angle_beta	92.877118
_cell_angle_gamma	90.018192
loop_
_atom_site_label
_atom_site_type_symbol
_atom_site_fract_x
_atom_site_fract_y
_atom_site_fract_z
Zn1	Zn	-0.452474	1.590308	-0.471413
Zn2	Zn	0.047526	2.090308	0.028587
Zn3	Zn	-0.620757	1.599185	-0.332008
Zn4	Zn	-0.120757	2.099185	0.167992
Zn5	Zn	-0.443510	1.422018	-0.332015
Zn6	Zn	0.056490	1.922018	0.167985
Zn7	Zn	-0.629694	1.413006	-0.471374
Zn8	Zn	-0.129694	1.913006	0.028626
O9	O	-0.536609	1.506129	-0.401703
O10	O	-0.036609	2.006129	0.098297
O11	O	-0.474809	1.739831	-0.452934
O12	O	0.025191	2.239831	0.047066
O13	O	-0.589754	1.583170	-0.215346
O14	O	-0.089754	2.083170	0.284654
O15	O	-0.296353	1.444399	-0.350525
O16	O	0.203647	1.944399	0.149475
O17	O	-0.598446	1.746353	-0.350514
O18	O	-0.098446	2.246353	0.149486
O19	O	-0.302938	1.568040	-0.452940
O20	O	0.197062	2.068040	0.047060
O21	O	-0.459530	1.453006	-0.215350
O22	O	0.040470	1.953006	0.284650
O23	O	-0.468196	1.272476	-0.350488
O24	O	0.031804	1.772476	0.149512
O25	O	-0.613676	1.429038	-0.588043
O26	O	-0.113676	1.929038	-0.088043
O27	O	-0.604984	1.265855	-0.452874
O28	O	-0.104984	1.765855	0.047126
O29	O	-0.483474	1.559301	-0.588071
O30	O	0.016526	2.059301	-0.088071
O31	O	-0.770289	1.574431	-0.350477
O32	O	-0.270289	2.074431	0.149523
O33	O	-0.776854	1.437646	-0.452868
O34	O	-0.276854	1.937646	0.047132
C35	C	-0.536588	1.230701	-0.401678
C36	C	-0.036588	1.730701	0.098322
C37	C	-0.536606	1.112870	-0.401687
C38	C	-0.036606	1.612870	0.098313
C39	C	-0.450431	1.072111	-0.337381
C40	C	0.049569	1.572111	0.162619
C41	C	-0.450142	0.949537	-0.337601
C42	C	0.049858	1.449537	0.162399
C43	C	-0.512498	0.939362	-0.489694
C44	C	-0.012498	1.439362	0.010306
C45	C	-0.511859	1.061985	-0.489293
C46	C	-0.011859	1.561985	0.010707
C47	C	-0.647186	1.069130	-0.378817
C48	C	-0.147186	1.569130	0.121183
C49	C	-0.646478	0.946646	-0.376909
C50	C	-0.146478	1.446646	0.123091
C51	C	-0.812037	1.506051	-0.401686
C52	C	-0.312037	2.006051	0.098314
C53	C	-0.929869	1.506113	-0.401706
C54	C	-0.429869	2.006113	0.098294
C55	C	-0.978923	1.420026	-0.466083
C56	C	-0.478923	1.920026	0.033917
C57	C	-1.101500	1.420347	-0.466363
C58	C	-0.601500	1.920347	0.033637
C59	C	-1.099164	1.616509	-0.425384
C60	C	-0.599164	2.116509	0.074616
C61	C	-0.976595	1.615908	-0.425824
C62	C	-0.476595	2.115908	0.074176
C63	C	-0.969465	1.482995	-0.313547
C64	C	-0.469465	1.982995	0.186453
C65	C	-1.092105	1.480596	-0.314043
C66	C	-0.592105	1.980596	0.185957
C67	C	-0.260106	1.506235	-0.401738
C68	C	0.239894	2.006235	0.098262
C69	C	-0.142276	1.506280	-0.401753
C70	C	0.357724	2.006280	0.098247
C71	C	-0.550572	1.492174	-0.619152
C72	C	-0.050572	1.992174	-0.119152
C73	C	-0.556522	1.486228	-0.711817
C74	C	-0.056522	1.986228	-0.211817
C75	C	-0.536630	1.782632	-0.401728
C76	C	-0.036630	2.282632	0.098272
C77	C	-0.536640	1.900462	-0.401739
C78	C	-0.036640	2.400462	0.098261
C79	C	-0.505551	1.537138	-0.922776
C80	C	-0.005551	2.037138	-0.422776
C81	C	-0.567342	1.475335	-0.881470
C82	C	-0.067342	1.975335	-0.381470
C83	C	-0.561320	1.481398	-0.787066
C84	C	-0.061320	1.981398	-0.287066
C85	C	-0.511572	1.531077	-1.017189
C86	C	-0.011572	2.031077	-0.517189
C87	C	-0.522623	1.520090	-0.185099
C88	C	-0.022623	2.020090	0.314901
C89	C	-0.516374	1.526242	-0.092435
C90	C	-0.016374	2.026242	0.407565
H91	H	-0.368098	0.919248	-0.352789
H92	H	0.131902	1.419248	0.147211
C93	C	-0.402904	1.098966	-0.515403
C94	C	0.097096	1.598966	-0.015403
N95	N	-0.320834	1.126814	-0.535067
N96	N	0.179166	1.626814	-0.035067
H97	H	-0.624759	1.417865	-0.917006
H98	H	-0.124759	1.917865	-0.417006
C99	C	-0.937951	1.308942	-0.446360
C100	C	-0.437951	1.808942	0.053640
N101	N	-0.907081	1.225271	-0.431505
N102	N	-0.407081	1.725271	0.068495
H103	H	-0.572228	1.088501	-0.538865
H104	H	-0.072228	1.588501	-0.038865
H105	H	-0.464597	1.105737	-0.271952
H106	H	0.035403	1.605737	0.228048
H107	H	-0.664793	0.921684	-0.312177
H108	H	-0.164793	1.421684	0.187823
C109	C	-0.427985	1.614769	-0.874771
C110	C	0.072015	2.114769	-0.374771
N111	N	-0.369566	1.673243	-0.838604
N112	N	0.130434	2.173243	-0.338604
H113	H	-0.943989	1.681950	-0.380963
H114	H	-0.443989	2.181950	0.119037
H115	H	-0.464537	0.923602	-0.272394
H116	H	0.035463	1.423602	0.227606
H117	H	-0.368836	1.101971	-0.352370
H118	H	0.131164	1.601971	0.147630
H119	H	-0.573601	0.907084	-0.538939
H120	H	-0.073601	1.407084	-0.038939
C121	C	-1.128992	1.559808	-0.245821
C122	C	-0.628992	2.059808	0.254179
N123	N	-1.156758	1.619492	-0.194441
N124	N	-0.656758	2.119492	0.305559
H125	H	-0.432780	0.907412	-0.509372
H126	H	0.067220	1.407412	-0.009372
H127	H	-0.670343	1.104066	-0.315746
H128	H	-0.170343	1.604066	0.184254
C129	C	-0.733825	1.104294	-0.442083
C130	C	-0.233825	1.604294	0.057917
N131	N	-0.799074	1.130786	-0.489737
N132	N	-0.299074	1.630786	0.010263
H133	H	-0.713634	0.913247	-0.420306
H134	H	-0.213634	1.413247	0.079694
H135	H	-0.952082	1.636135	-0.490262
H136	H	-0.452082	2.136135	0.009738
C137	C	-1.134525	1.705263	-0.364007
C138	C	-0.634525	2.205263	0.135993
N139	N	-1.161161	1.772112	-0.317778
N140	N	-0.661161	2.272112	0.182222
H141	H	-1.130734	1.338442	-0.451593
H142	H	-0.630734	1.838442	0.048407
C143	C	-0.942882	1.439845	-0.553833
C144	C	-0.442882	1.939845	-0.053833
N145	N	-0.915738	1.454778	-0.619926
N146	N	-0.415738	1.954778	-0.119926
H147	H	-1.134975	1.435306	-0.531693
H148	H	-0.634975	1.935306	-0.031693
C149	C	-1.146092	1.644529	-0.511501
C150	C	-0.646092	2.144529	-0.011501
N151	N	-1.181435	1.665627	-0.576367
N152	N	-0.681435	2.165627	-0.076367
H153	H	-0.937251	1.404235	-0.291982
H154	H	-0.437251	1.904235	0.208018
H155	H	-1.120144	1.399501	-0.296218
H156	H	-0.620144	1.899501	0.203782
H157	H	-0.937320	1.545759	-0.265583
H158	H	-0.437320	2.045759	0.234417
