data_functionalizedCrystal
_audit_creation_method	'MofGen! by Chris Wilmer'
_symmetry_space_group_name_H-M	'P1'
_symmetry_Int_Tables_number	1
_symmetry_cell_setting	triclinic
loop_
_symmetry_equiv_pos_as_xyz
  x,y,z
_cell_length_a	10.489741
_cell_length_b	9.065218
_cell_length_c	8.965430
_cell_angle_alpha	89.995524
_cell_angle_beta	90.002667
_cell_angle_gamma	84.777530
loop_
_atom_site_label
_atom_site_type_symbol
_atom_site_fract_x
_atom_site_fract_y
_atom_site_fract_z
O1	O	-1.694808	-0.208151	-0.123940
O2	O	-1.323683	-0.227691	-0.123963
O3	O	-1.516917	-0.003242	-0.123948
O4	O	-1.501575	-0.432601	-0.123955
O5	O	-1.516894	-0.003267	0.124131
O6	O	-1.323661	-0.227716	0.124116
O7	O	-1.694786	-0.208176	0.124138
Cu8	Cu	-1.509221	-0.217949	0.146779
Cu9	Cu	-1.509248	-0.217919	-0.146603
O10	O	-1.501552	-0.432626	0.124124
C11	C	-1.276135	-0.226228	0.000073
C12	C	-1.134489	-0.221813	0.000065
C13	C	-1.742334	-0.209640	0.000099
C14	C	-1.883979	-0.214055	0.000098
C15	C	-1.515431	0.051725	0.000089
C16	C	-1.511022	0.215547	0.000081
C17	C	-1.065834	-0.079002	0.000081
C18	C	-0.973962	-0.146452	-0.122233
C19	C	-0.973973	-0.146511	0.122353
C20	C	-1.044483	-0.289321	-0.122350
C21	C	-1.044504	-0.289360	0.122346
C22	C	-0.952660	-0.356914	0.000002
C23	C	-1.503038	-0.487593	0.000083
C24	C	-1.507447	-0.651414	0.000081
N25	N	-1.509211	-0.217968	0.353128
C26	C	-1.420592	-0.322584	0.549831
C27	C	-1.393258	-0.189395	0.450367
C28	C	-1.536488	-0.351146	0.450384
C29	C	-1.481854	-0.084657	0.549773
C30	C	-1.625137	-0.246495	0.549798
C31	C	-1.597850	-0.113210	0.450379
N32	N	-1.509247	-0.217914	0.647048
H33	H	-1.115099	0.038397	-0.000070
N34	N	-1.697142	0.004119	0.392875
H35	H	-1.784464	-0.016551	0.430649
H36	H	-1.676275	0.104588	0.429234
N37	N	-1.451165	0.064599	0.607342
H38	H	-1.451331	0.063686	0.719992
H39	H	-1.363926	0.086322	0.570186
N40	N	-1.085929	-0.369376	0.259299
H41	H	-1.043075	-0.473758	0.260257
H42	H	-1.060557	-0.315258	0.351594
H43	H	-0.942768	-0.086069	0.225761
H44	H	-1.723126	-0.270701	0.593511
N45	N	-1.263425	-0.157370	0.392517
H46	H	-1.196525	-0.236466	0.428688
H47	H	-1.264723	-0.156636	0.279878
N48	N	-1.321246	-0.439674	0.607681
H49	H	-1.233720	-0.417902	0.571510
H50	H	-1.322630	-0.439402	0.720320
N51	N	-1.567035	-0.500354	0.392539
H52	H	-1.500019	-0.579314	0.428717
H53	H	-1.653959	-0.522605	0.430272
N54	N	-0.932596	-0.066411	-0.259210
H55	H	-0.974149	0.038566	-0.259123
H56	H	-0.836438	-0.064974	-0.258601
N57	N	-1.085604	-0.369286	-0.259484
H58	H	-1.181669	-0.371738	-0.258673
H59	H	-1.059262	-0.315690	-0.351678
N60	N	-0.887741	-0.512578	-0.000077
H61	H	-0.913377	-0.566299	-0.092510
H62	H	-0.791835	-0.508623	0.000861
