data_functionalizedCrystal
_audit_creation_method	'MofGen! by Chris Wilmer'
_symmetry_space_group_name_H-M	'P1'
_symmetry_Int_Tables_number	1
_symmetry_cell_setting	triclinic
loop_
_symmetry_equiv_pos_as_xyz
  x,y,z
_cell_length_a	10.489711
_cell_length_b	15.944551
_cell_length_c	9.565339
_cell_angle_alpha	89.999279
_cell_angle_beta	89.994873
_cell_angle_gamma	84.012873
loop_
_atom_site_label
_atom_site_type_symbol
_atom_site_fract_x
_atom_site_fract_y
_atom_site_fract_z
O1	O	1.692434	0.118382	-0.116314
O2	O	1.321079	0.129532	-0.116306
O3	O	1.516897	0.001742	-0.116298
O4	O	1.496615	0.246171	-0.116322
O5	O	1.516882	0.001750	0.116223
O6	O	1.321063	0.129539	0.116214
O7	O	1.692418	0.118390	0.116206
Zn8	Zn	1.506738	0.123966	0.153128
Zn9	Zn	1.506759	0.123955	-0.153227
O10	O	1.496600	0.246179	0.116198
C11	C	1.273550	0.128699	-0.000045
C12	C	1.131954	0.126195	-0.000041
C13	C	0.948502	0.203044	-0.000065
C14	C	1.041187	0.164653	-0.114704
C15	C	1.041145	0.164640	0.114543
C16	C	0.972364	0.083301	-0.114804
C17	C	0.972312	0.083300	0.114546
C18	C	1.064971	0.044850	-0.000121
C19	C	1.516047	-0.029553	-0.000037
C20	C	1.513523	-0.122814	-0.000036
C21	C	1.386112	-0.338428	-0.000053
C22	C	1.445270	-0.399089	0.114592
C23	C	1.508956	-0.293567	-0.000047
C24	C	1.445314	-0.399081	-0.114654
C25	C	1.504536	-0.458506	-0.000063
C26	C	1.568148	-0.353000	0.114693
C27	C	1.568175	-0.352985	-0.114657
C28	C	1.627422	-0.413629	0.000016
C29	C	1.511499	-0.198550	-0.000036
C30	C	1.502003	-0.553522	-0.000064
C31	C	1.739947	0.119223	-0.000058
C32	C	1.881543	0.121726	-0.000071
C33	C	1.497450	0.277474	-0.000066
C34	C	1.499974	0.370735	-0.000076
N35	N	1.506734	0.123973	0.362207
N36	N	1.506773	0.123942	-0.362307
C37	C	1.416147	0.183051	0.453406
C38	C	1.531410	0.200039	0.546581
C39	C	1.391521	0.106991	0.546588
C40	C	1.622055	0.140998	0.453330
C41	C	1.482090	0.047918	0.453329
C42	C	1.597436	0.064874	0.546461
H43	H	0.897885	0.269881	-0.000186
O44	O	0.932212	0.037764	-0.243342
H45	H	0.826666	0.036264	-0.242374
O46	O	1.699038	-0.001319	0.600270
H47	H	1.749972	-0.033772	0.510549
O48	O	1.636956	-0.325959	-0.243080
H49	H	1.736520	-0.357324	-0.243934
O50	O	0.931822	0.037763	0.242932
H51	H	0.959043	0.071648	0.337963
H52	H	1.620056	-0.332698	0.211723
O53	O	1.751167	0.160110	0.399301
H54	H	1.826329	0.111320	0.437439
H55	H	1.393346	-0.419470	-0.211584
O56	O	1.081614	0.210223	-0.243094
H57	H	1.148473	0.166853	-0.306093
H58	H	1.461182	-0.016367	0.412336
H59	H	1.071617	0.199065	0.211462
O60	O	1.314765	0.249283	0.399262
H61	H	1.335556	0.312345	0.436611
H62	H	1.729478	-0.446181	0.000079
H63	H	1.294070	0.092642	0.587556
H64	H	1.115356	-0.022049	-0.000172
H65	H	1.552281	0.264343	0.587541
H66	H	1.393305	-0.419503	0.211518
O67	O	1.251055	-0.295098	0.000091
H68	H	1.200360	-0.313444	0.095408
