data_functionalizedCrystal
_audit_creation_method	'MofGen! by Chris Wilmer'
_symmetry_space_group_name_H-M	'P1'
_symmetry_Int_Tables_number	1
_symmetry_cell_setting	triclinic
loop_
_symmetry_equiv_pos_as_xyz
  x,y,z
_cell_length_a	16.625539
_cell_length_b	12.759401
_cell_length_c	12.759400
_cell_angle_alpha	90.012209
_cell_angle_beta	89.975351
_cell_angle_gamma	89.982532
loop_
_atom_site_label
_atom_site_type_symbol
_atom_site_fract_x
_atom_site_fract_y
_atom_site_fract_z
Zn1	Zn	-0.455863	1.606255	-0.418291
Zn2	Zn	-0.321039	1.606158	-0.593992
Zn3	Zn	-0.321051	1.430561	-0.418325
Zn4	Zn	-0.455836	1.430550	-0.593926
O5	O	-0.388447	1.518381	-0.506134
O6	O	-0.437985	1.753263	-0.441612
O7	O	-0.208208	1.582828	-0.570732
O8	O	-0.338950	1.453912	-0.271300
O9	O	-0.338930	1.753192	-0.570699
O10	O	-0.437996	1.582994	-0.271275
O11	O	-0.208217	1.453817	-0.441670
O12	O	-0.338924	1.283538	-0.441605
O13	O	-0.568672	1.453895	-0.570585
O14	O	-0.437950	1.283531	-0.570618
O15	O	-0.568692	1.582984	-0.441548
O16	O	-0.338904	1.582818	-0.741005
O17	O	-0.437939	1.453800	-0.740956
C18	C	-0.388436	1.245414	-0.506109
C19	C	-0.388450	1.128637	-0.506124
C20	C	-0.440108	1.073805	-0.439035
C21	C	-0.440113	0.964081	-0.439055
C22	C	-0.336801	0.964030	-0.573262
C23	C	-0.336792	1.073752	-0.573235
C24	C	-0.499757	1.073834	-0.361555
C25	C	-0.499762	0.964110	-0.361575
C26	C	-0.598756	1.518449	-0.506055
C27	C	-0.688377	1.518478	-0.506022
C28	C	-1.016553	1.518527	-0.505904
C29	C	-0.925245	1.518510	-0.505940
C30	C	-0.852468	1.518503	-0.505964
C31	C	-0.761154	1.518486	-0.505998
C32	C	-0.178956	1.518373	-0.506136
C33	C	-0.089336	1.518548	-0.505873
C34	C	-0.388435	1.518326	-0.779101
C35	C	-0.388456	1.518398	-0.895878
C36	C	-0.388459	1.792414	-0.506159
C37	C	-0.388464	1.909191	-0.506170
C38	C	-0.440072	1.585578	-0.950647
C39	C	-0.440091	1.585627	-1.060371
C40	C	-0.336873	1.451314	-1.060547
C41	C	-0.336858	1.451260	-0.950825
C42	C	-0.499661	1.663126	-0.950546
C43	C	-0.499681	1.663175	-1.060270
C44	C	-0.388478	1.518465	-0.232100
C45	C	-0.388491	1.518501	-0.115324
H46	H	-0.562185	0.934364	-0.383479
H47	H	-0.294836	1.396548	-0.906232
C48	C	-0.291067	1.391754	-1.228822
C49	C	-0.280154	1.377524	-1.120948
H50	H	-0.256046	1.346202	-1.266107
H51	H	-0.345229	1.376346	-1.246762
H52	H	-0.279313	1.462364	-1.246756
H53	H	-0.291914	1.306915	-1.103013
H54	H	-0.225980	1.392924	-1.103001
C55	C	-0.540209	1.812871	-1.161310
C56	C	-0.477169	1.773047	-1.100427
H57	H	-0.526310	1.880699	-1.186095
H58	H	-0.549483	1.767687	-1.219223
H59	H	-0.587585	1.817250	-1.119892
H60	H	-0.429795	1.768660	-1.141847
H61	H	-0.467886	1.818242	-1.042504
H62	H	-0.294720	1.118392	-0.627855
C63	C	-0.640126	1.706773	-0.946789
C64	C	-0.583935	1.633626	-0.910294
H65	H	-0.692151	1.688556	-0.921943
H66	H	-0.626215	1.774559	-0.921938
H67	H	-0.640126	1.706798	-1.021240
H68	H	-0.583930	1.633606	-0.835843
H69	H	-0.597849	1.565822	-0.935140
C70	C	-0.290940	0.795810	-0.632893
C71	C	-0.280025	0.903697	-0.647036
H72	H	-0.255892	0.758567	-0.678446
H73	H	-0.279231	0.777829	-0.562295
H74	H	-0.345099	0.777866	-0.648364
H75	H	-0.225868	0.921642	-0.631557
H76	H	-0.291729	0.921686	-0.717650
C77	C	-0.463699	1.028658	-0.185049
C78	C	-0.477310	1.114026	-0.251670
H79	H	-0.449834	1.053474	-0.117216
H80	H	-0.511092	0.987333	-0.180705
H81	H	-0.420930	0.987281	-0.212037
H82	H	-0.520083	1.155400	-0.224686
H83	H	-0.429911	1.155369	-0.256010
H84	H	-0.559035	1.107899	-0.390795
C85	C	-0.390710	1.786006	-0.938499
C86	C	-0.469532	1.767468	-0.904548
H87	H	-0.372111	1.850426	-0.910106
H88	H	-0.356861	1.730595	-0.915568
H89	H	-0.389704	1.789588	-1.012852
H90	H	-0.470536	1.763878	-0.830195
H91	H	-0.503389	1.822893	-0.927474
C92	C	-0.565561	1.535024	-1.168023
C93	C	-0.579744	1.623807	-1.106187
H94	H	-0.614987	1.510718	-1.196366
H95	H	-0.529899	1.552610	-1.223469
H96	H	-0.542188	1.481527	-1.126162
H97	H	-0.603111	1.677308	-1.148050
H98	H	-0.615418	1.606225	-1.050733
H99	H	-0.477505	0.930067	-0.284245
