data_functionalizedCrystal
_audit_creation_method	'MofGen! by Chris Wilmer'
_symmetry_space_group_name_H-M	'P1'
_symmetry_Int_Tables_number	1
_symmetry_cell_setting	triclinic
loop_
_symmetry_equiv_pos_as_xyz
  x,y,z
_cell_length_a	10.967926
_cell_length_b	19.288865
_cell_length_c	17.766277
_cell_angle_alpha	89.987037
_cell_angle_beta	77.869772
_cell_angle_gamma	96.057564
loop_
_atom_site_label
_atom_site_type_symbol
_atom_site_fract_x
_atom_site_fract_y
_atom_site_fract_z
O1	O	1.655134	-0.097400	-0.152092
O2	O	1.291785	-0.106729	-0.104957
O3	O	1.483958	-0.001002	-0.129901
O4	O	1.462960	-0.203126	-0.127148
O5	O	1.483963	-0.000991	-0.255090
O6	O	1.291790	-0.106718	-0.230147
O7	O	1.655138	-0.097389	-0.277281
Cu8	Cu	1.473464	-0.102053	-0.265144
Cu9	Cu	1.473459	-0.102065	-0.117094
O10	O	1.462965	-0.203116	-0.252337
C11	C	1.245302	-0.106046	-0.161522
C12	C	1.106790	-0.104017	-0.143555
C13	C	1.045040	-0.103107	-0.200396
C14	C	0.901881	-0.101011	-0.181827
C15	C	1.483285	0.024884	-0.192410
C16	C	1.481257	0.102001	-0.192154
C17	C	1.701621	-0.098072	-0.220714
C18	C	1.840133	-0.100101	-0.238677
C19	C	1.463638	-0.229002	-0.189826
C20	C	1.465666	-0.306119	-0.190077
C21	C	1.594015	0.145965	-0.206785
C22	C	1.592110	0.218424	-0.206526
C23	C	1.477440	0.246917	-0.191650
C24	C	1.364666	0.202943	-0.177013
C25	C	1.366575	0.130485	-0.177265
C26	C	1.387297	0.355793	-0.223807
C27	C	1.385393	0.428250	-0.223561
C28	C	1.471548	0.470400	-0.190869
C29	C	1.559628	0.440087	-0.158436
C30	C	1.561537	0.367629	-0.158688
C31	C	1.475357	0.325484	-0.191375
C32	C	1.582248	0.592934	-0.205219
C33	C	1.580338	0.665394	-0.204955
C34	C	1.352891	0.649911	-0.175449
C35	C	1.354804	0.577452	-0.175706
C36	C	1.469486	0.548968	-0.190595
N37	N	1.473456	-0.102069	-0.012963
N38	N	1.473478	-0.102043	-0.369276
C39	C	1.558701	-0.055346	0.015359
C40	C	1.558712	-0.055345	0.094160
C41	C	1.473456	-0.102060	0.144638
C42	C	1.388204	-0.148791	0.116307
C43	C	1.388204	-0.148796	0.037506
C44	C	1.359764	-0.110467	0.284232
C45	C	1.359762	-0.110458	0.363031
C46	C	1.473456	-0.102050	0.387684
C47	C	1.587157	-0.093637	0.333528
C48	C	1.587157	-0.093642	0.254727
C49	C	1.473447	-0.102061	0.230084
C50	C	1.558721	-0.055324	0.501450
C51	C	1.558733	-0.055327	0.580251
C52	C	1.388214	-0.148770	0.602398
C53	C	1.388213	-0.148770	0.523597
C54	C	1.473464	-0.102043	0.473127
H55	H	1.687398	0.122778	-0.218906
H56	H	1.267181	-0.117300	0.407120
H57	H	1.098158	-0.103876	-0.262807
N58	N	1.713732	0.265855	-0.222305
H59	H	1.786670	0.236815	-0.231774
H60	H	1.717883	0.296266	-0.269252
N61	N	1.652567	0.485538	-0.123177
H62	H	1.605956	0.512470	-0.079617
H63	H	1.708626	0.455293	-0.102720
N64	N	0.831543	-0.099979	-0.099150
H65	H	0.739246	-0.098625	-0.097604
H66	H	0.843867	-0.143296	-0.070922
N67	N	1.036448	-0.102986	-0.060882
H68	H	0.944151	-0.101632	-0.059336
H69	H	1.048772	-0.146302	-0.032654
H70	H	1.633252	0.342950	-0.132279
N71	N	0.910461	-0.101123	-0.321357
H72	H	0.974820	-0.058933	-0.332714
H73	H	0.954030	-0.144922	-0.329961
H74	H	1.628121	-0.017300	-0.025732
H75	H	1.262984	0.541655	-0.163796
N76	N	1.705932	0.562205	-0.221273
H77	H	1.777078	0.601054	-0.230497
H78	H	1.711676	0.532463	-0.175614
H79	H	1.313667	0.452925	-0.249964
H80	H	1.318793	-0.186813	0.500536
N81	N	1.701962	0.712817	-0.220733
H82	H	1.774896	0.683774	-0.230205
H83	H	1.706114	0.743230	-0.267678
N84	N	1.229207	0.680631	-0.159396
H85	H	1.245106	0.733204	-0.161453
H86	H	1.179880	0.664599	-0.199405
H87	H	1.317136	0.321479	-0.250433
N88	N	1.240984	0.233668	-0.160964
H89	H	1.256884	0.286242	-0.163027
H90	H	1.191657	0.217633	-0.200973
N91	N	1.244952	0.083061	-0.161483
H92	H	1.172016	0.112102	-0.152017
H93	H	1.240791	0.052675	-0.207356
H94	H	1.628157	-0.017282	0.603309
H95	H	1.628142	-0.017278	0.460355
H96	H	1.628132	-0.017297	0.117224
H97	H	1.679736	-0.086794	0.210636
N98	N	1.709796	-0.084567	0.360103
H99	H	1.692549	-0.085845	0.418239
H100	H	1.761391	-0.123511	0.339643
N101	N	1.296266	-0.199162	0.656830
H102	H	1.309202	-0.192072	0.711048
H103	H	1.207843	-0.190596	0.654526
N104	N	1.237130	-0.119547	0.257646
H105	H	1.165105	-0.124872	0.303908
H106	H	1.230222	-0.077303	0.225830
N107	N	1.296251	-0.199179	0.170745
H108	H	1.309183	-0.192086	0.224963
H109	H	1.207830	-0.190613	0.168436
H110	H	1.318786	-0.186844	0.014447
