data_functionalizedCrystal
_audit_creation_method	'MofGen! by Chris Wilmer'
_symmetry_space_group_name_H-M	'P1'
_symmetry_Int_Tables_number	1
_symmetry_cell_setting	triclinic
loop_
_symmetry_equiv_pos_as_xyz
  x,y,z
_cell_length_a	6.817900
_cell_length_b	12.530001
_cell_length_c	9.582880
_cell_angle_alpha	82.238969
_cell_angle_beta	111.207034
_cell_angle_gamma	90.000251
loop_
_atom_site_label
_atom_site_type_symbol
_atom_site_fract_x
_atom_site_fract_y
_atom_site_fract_z
V1	V	4.051001	-0.147100	0.465549
O2	O	4.105747	0.007532	0.457773
O3	O	3.937246	-0.292119	0.461320
O4	O	4.042875	-0.144634	0.669067
O5	O	3.999387	-0.140975	0.248587
V6	V	4.537878	-0.128628	0.439725
O7	O	4.304900	-0.187619	0.522194
O8	O	4.734176	-0.088109	0.383080
O9	O	4.428427	0.016392	0.443954
O10	O	4.600529	-0.283259	0.447501
O11	O	4.706889	-0.134753	0.656687
O12	O	4.322798	-0.131094	0.236207
C13	C	3.765062	-0.327480	0.453713
C14	C	3.753395	-0.448262	0.451576
V15	V	3.980599	-0.647108	0.465571
O16	O	3.811598	-0.640996	0.248610
O17	O	4.195671	-0.644629	0.669089
O18	O	4.090067	-0.792128	0.461361
O19	O	3.917933	-0.492476	0.457777
V20	V	3.467456	-0.628643	0.439734
O21	O	3.784300	-0.687627	0.522215
O22	O	3.213553	-0.588129	0.383079
O23	O	3.475593	-0.631119	0.236221
O24	O	3.519059	-0.634756	0.656692
O25	O	3.412724	-0.783276	0.447526
O26	O	3.581197	-0.483620	0.443949
C27	C	4.263981	0.051745	0.451565
C28	C	4.254511	0.172524	0.453738
C29	C	3.899784	-0.139345	0.718707
C30	C	3.973991	-0.138288	0.885077
C31	C	4.129228	-0.136387	0.186559
C32	C	4.034261	-0.137438	0.020187
C33	C	4.389242	-0.639330	0.718739
C34	C	4.484207	-0.638266	0.885108
C35	C	3.618689	-0.636409	0.186586
C36	C	3.544490	-0.637474	0.020218
