data_functionalizedCrystal
_audit_creation_method	'MofGen! by Chris Wilmer'
_symmetry_space_group_name_H-M	'P1'
_symmetry_Int_Tables_number	1
_symmetry_cell_setting	triclinic
loop_
_symmetry_equiv_pos_as_xyz
  x,y,z
_cell_length_a	18.101395
_cell_length_b	14.908618
_cell_length_c	14.908308
_cell_angle_alpha	90.173623
_cell_angle_beta	86.733684
_cell_angle_gamma	93.274334
loop_
_atom_site_label
_atom_site_type_symbol
_atom_site_fract_x
_atom_site_fract_y
_atom_site_fract_z
Zn1	Zn	-0.386501	-1.345206	0.587611
Zn2	Zn	-0.503637	-1.353760	0.437249
Zn3	Zn	-0.372273	-1.203525	0.428605
Zn4	Zn	-0.502753	-1.194788	0.578897
O5	O	-0.441291	-1.274320	0.508091
O6	O	-0.408364	-1.472165	0.574930
O7	O	-0.480627	-1.341067	0.310278
O8	O	-0.270533	-1.222396	0.449727
O9	O	-0.494423	-1.478450	0.464460
O10	O	-0.280986	-1.326488	0.566548
O11	O	-0.384115	-1.230690	0.303927
O12	O	-0.383258	-1.076541	0.441277
O13	O	-0.492916	-1.207505	0.705877
O14	O	-0.479121	-1.070123	0.551696
O15	O	-0.407507	-1.318017	0.712279
O16	O	-0.607147	-1.332595	0.456010
O17	O	-0.606498	-1.215800	0.560078
C18	C	-0.429550	-1.040707	0.494603
C19	C	-0.424546	-0.940765	0.488855
C20	C	-0.515104	-0.746338	0.592877
C21	C	-0.510405	-0.652433	0.587479
C22	C	-0.410444	-0.659050	0.472666
C23	C	-0.415144	-0.752955	0.478064
C24	C	-0.467476	-0.796595	0.538171
C25	C	-0.472179	-0.890501	0.543564
C26	C	-0.372215	-0.897116	0.428755
C27	C	-0.367516	-0.803212	0.423357
C28	C	-0.633694	-1.274201	0.508057
C29	C	-0.716011	-1.274231	0.508078
C30	C	-1.015114	-1.274425	0.508138
C31	C	-0.983427	-1.201092	0.573796
C32	C	-0.897783	-1.200775	0.573559
C33	C	-0.866725	-1.274329	0.508109
C34	C	-0.892362	-1.254145	0.411869
C35	C	-0.978004	-1.253675	0.412260
C36	C	-0.989315	-1.368142	0.537893
C37	C	-0.903728	-1.367462	0.539939
C38	C	-0.782862	-1.274276	0.508087
C39	C	-1.098976	-1.274476	0.508153
C40	C	-0.248138	-1.274462	0.508145
C41	C	-0.165828	-1.274523	0.508168
C42	C	-0.451700	-1.260832	0.742615
C43	C	-0.456136	-1.255085	0.842556
C44	C	-0.453073	-0.508845	0.521624
C45	C	-0.458077	-0.608786	0.527374
C46	C	-0.430872	-1.287806	0.274481
C47	C	-0.426236	-1.293728	0.174551
C48	C	-0.375516	-1.359357	1.037023
C49	C	-0.379681	-1.353960	1.130926
C50	C	-0.468627	-1.238888	1.124267
C51	C	-0.464462	-1.244286	1.030364
C52	C	-0.417906	-1.304523	0.986745
C53	C	-0.413745	-1.309925	0.892840
C54	C	-0.502686	-1.194849	0.886183
C55	C	-0.506851	-1.189452	0.980086
H56	H	-0.549187	-0.611517	0.632028
H57	H	-0.557719	-0.781871	0.641814
N58	N	-0.554390	-1.127904	1.024639
N59	N	-0.544835	-1.045544	1.009360
H60	H	-0.578407	-1.002071	1.040826
N61	N	-0.366187	-1.371438	0.848268
N62	N	-0.362470	-1.376250	0.764426
H63	H	-0.328879	-1.419693	0.732947
H64	H	-0.367834	-0.623502	0.423735
N65	N	-0.327967	-1.420898	0.992476
N66	N	-0.290127	-1.469859	1.037379
H67	H	-0.256544	-1.513324	1.005920
H68	H	-0.880658	-1.212768	0.644749
H69	H	-0.324906	-0.767667	0.374423
N70	N	-0.545984	-1.138839	0.834811
N71	N	-0.542261	-1.143666	0.750970
H72	H	-0.572840	-1.104110	0.714687
H73	H	-0.514792	-0.926032	0.592504
N74	N	-0.866826	-1.113477	0.548340
N75	N	-0.827675	-1.069242	0.601084
H76	H	-0.805820	-1.007576	0.583289
N77	N	-0.323560	-0.948466	0.372882
N78	N	-0.280442	-0.999074	0.407625
H79	H	-0.246082	-1.035341	0.368164
N80	N	-1.014103	-1.215973	0.663389
N81	N	-1.059683	-1.280794	0.679899
H82	H	-1.081336	-1.291323	0.743182
H83	H	-1.015066	-1.387609	0.607164
N84	N	-1.005213	-1.114337	0.548811
N85	N	-1.043975	-1.106283	0.482858
H86	H	-1.059364	-1.045014	0.465210
H87	H	-0.993640	-1.185331	0.387690
H88	H	-0.345161	-1.398609	1.171859
N89	N	-1.004024	-1.318127	0.348407
N90	N	-0.958930	-1.363309	0.303693
H91	H	-0.977302	-1.408818	0.258587
N92	N	-0.866905	-1.319352	0.348531
N93	N	-0.829493	-1.381573	0.373675
H94	H	-0.811512	-1.427627	0.328945
H95	H	-0.506531	-1.189846	1.159797
N96	N	-0.883300	-1.386674	0.628825
N97	N	-0.841647	-1.332023	0.668635
H98	H	-0.827216	-1.345588	0.731412
N99	N	-0.877666	-1.439093	0.484879
N100	N	-0.845297	-1.501282	0.519115
H101	H	-0.826891	-1.551871	0.480222
N102	N	-0.860028	-1.169360	0.380643
N103	N	-0.818098	-1.123661	0.429094
H104	H	-0.795262	-1.063779	0.407045
H105	H	-1.009894	-1.422711	0.490139
