data_functionalizedCrystal
_audit_creation_method	'MofGen! by Chris Wilmer'
_symmetry_space_group_name_H-M	'P1'
_symmetry_Int_Tables_number	1
_symmetry_cell_setting	triclinic
loop_
_symmetry_equiv_pos_as_xyz
  x,y,z
_cell_length_a	15.538191
_cell_length_b	10.654550
_cell_length_c	9.130313
_cell_angle_alpha	89.995631
_cell_angle_beta	89.994936
_cell_angle_gamma	65.878512
loop_
_atom_site_label
_atom_site_type_symbol
_atom_site_fract_x
_atom_site_fract_y
_atom_site_fract_z
O1	O	1.247254	-0.406664	-0.121816
O2	O	0.973939	-0.262089	-0.121815
O3	O	1.116881	-0.520053	-0.121806
O4	O	1.104313	-0.148700	-0.121825
O5	O	1.116871	-0.520054	0.121792
O6	O	0.973930	-0.262090	0.121784
O7	O	1.247244	-0.406665	0.121783
Cu8	Cu	1.110586	-0.334378	0.144026
Cu9	Cu	1.110598	-0.334376	-0.144058
O10	O	1.104303	-0.148701	0.121774
C11	C	1.115953	-0.566420	-0.000008
C12	C	1.113192	-0.704573	-0.000010
C13	C	0.938938	-0.246964	-0.000016
C14	C	0.834659	-0.201907	-0.000015
C15	C	1.197353	-0.823402	-0.000011
C16	C	1.194754	-0.953208	-0.000029
C17	C	1.023824	-0.845339	-0.000039
C18	C	1.026424	-0.715536	-0.000031
C19	C	0.543944	-0.649529	-0.000016
C20	C	0.445955	-0.607160	-0.000019
C21	C	0.425069	-0.368846	-0.000030
C22	C	0.523058	-0.411195	-0.000020
C23	C	0.582488	-0.551538	-0.000014
C24	C	0.561602	-0.313204	-0.000019
C25	C	0.659583	-0.355550	-0.000016
C26	C	0.719019	-0.495886	-0.000015
C27	C	0.680469	-0.593884	-0.000012
C28	C	0.502170	-0.172861	-0.000035
C29	C	0.540715	-0.074870	-0.000033
C30	C	0.638697	-0.117216	-0.000020
C31	C	0.698133	-0.257553	-0.000019
C32	C	0.677248	-0.019219	-0.000023
C33	C	0.775228	-0.061564	-0.000021
C34	C	0.796114	-0.299898	-0.000016
C35	C	1.282246	-0.421790	-0.000020
C36	C	1.386525	-0.466847	-0.000030
C37	C	1.105231	-0.102334	-0.000028
C38	C	1.107991	0.035819	-0.000035
N39	N	1.110585	-0.334382	0.346648
N40	N	1.110606	-0.334385	-0.346681
C41	C	1.173900	-0.448583	0.423304
C42	C	1.173909	-0.448587	0.576641
C43	C	1.047284	-0.220177	0.576653
C44	C	1.047271	-0.220179	0.423319
H45	H	1.268005	-0.814483	0.000004
F46	F	0.397890	-0.127796	-0.000039
F47	F	0.816253	0.042728	-0.000022
H48	H	0.995736	-0.127194	0.639093
F49	F	1.284330	-1.079672	-0.000033
H50	H	0.957885	-0.618775	-0.000035
H51	H	0.492314	0.039397	-0.000044
F52	F	0.979874	-0.098628	0.341730
H53	H	1.225453	-0.541576	0.360883
H54	H	0.844506	-0.414180	-0.000003
H55	H	1.225466	-0.541580	0.639050
F56	F	0.931484	-0.857020	-0.000062
H57	H	0.798801	-0.530362	-0.000032
H58	H	0.728861	-0.708165	0.000002
F59	F	0.607199	-0.798899	0.000007
F60	F	0.404937	-0.711467	-0.000002
F61	F	0.361809	-0.219487	-0.000045
H62	H	0.628845	0.095049	-0.000042
