data_functionalizedCrystal
_audit_creation_method	'MofGen! by Chris Wilmer'
_symmetry_space_group_name_H-M	'P1'
_symmetry_Int_Tables_number	1
_symmetry_cell_setting	triclinic
loop_
_symmetry_equiv_pos_as_xyz
  x,y,z
_cell_length_a	17.000383
_cell_length_b	19.188924
_cell_length_c	16.098538
_cell_angle_alpha	92.711427
_cell_angle_beta	87.475102
_cell_angle_gamma	79.371133
loop_
_atom_site_label
_atom_site_type_symbol
_atom_site_fract_x
_atom_site_fract_y
_atom_site_fract_z
O1	O	1.059590	0.021830	-0.069314
O2	O	1.392924	0.355164	0.264019
O3	O	1.726257	0.688497	0.597352
O4	O	0.827769	0.047175	-0.069305
O5	O	1.161102	0.380508	0.264029
O6	O	1.494435	0.713841	0.597362
O7	O	0.950372	-0.067546	-0.069300
O8	O	1.283705	0.265787	0.264033
O9	O	1.617038	0.599121	0.597367
O10	O	0.936987	0.136551	-0.069319
O11	O	1.270321	0.469884	0.264014
O12	O	1.603654	0.803218	0.597348
O13	O	0.943210	-0.060869	0.069213
O14	O	1.276543	0.272464	0.402546
O15	O	1.609877	0.605798	0.735879
O16	O	0.820607	0.053851	0.069208
O17	O	1.153940	0.387185	0.402541
O18	O	1.487274	0.720518	0.735875
O19	O	1.052429	0.028507	0.069198
O20	O	1.385762	0.361841	0.402532
O21	O	1.719095	0.695174	0.735865
Zn22	Zn	0.935381	0.042239	0.091195
Zn23	Zn	1.268714	0.375573	0.424528
Zn24	Zn	1.602047	0.708906	0.757862
Zn25	Zn	0.944817	0.033442	-0.091301
Zn26	Zn	1.278150	0.366776	0.242032
Zn27	Zn	1.611483	0.700109	0.575365
O28	O	0.929826	0.143228	0.069194
O29	O	1.263159	0.476561	0.402527
O30	O	1.596492	0.809894	0.735860
C31	C	0.794529	0.051874	-0.000047
C32	C	1.127863	0.385208	0.333286
C33	C	1.461196	0.718541	0.666620
C34	C	0.706157	0.055922	-0.000043
C35	C	1.039490	0.389255	0.333290
C36	C	1.372823	0.722588	0.666624
C37	C	0.946358	-0.090193	-0.000043
C38	C	1.279692	0.243140	0.333290
C39	C	1.613025	0.576473	0.666624
C40	C	0.945060	-0.167622	-0.000041
C41	C	1.278393	0.165712	0.333293
C42	C	1.611726	0.499045	0.666626
C43	C	0.205850	0.082055	-0.000076
C44	C	0.539183	0.415388	0.333257
C45	C	0.872516	0.748722	0.666590
C46	C	0.288886	0.078247	-0.000075
C47	C	0.622219	0.411580	0.333258
C48	C	0.955553	0.744913	0.666591
C49	C	0.340112	0.012142	-0.000063
C50	C	0.673445	0.345476	0.333270
C51	C	1.006779	0.678809	0.666604
C52	C	0.308299	-0.050158	-0.000060
C53	C	0.641632	0.283176	0.333273
C54	C	0.974965	0.616509	0.666607
C55	C	0.225264	-0.046349	-0.000067
C56	C	0.558597	0.286984	0.333266
C57	C	0.891931	0.620318	0.666600
C58	C	0.591309	-0.002570	-0.000047
C59	C	0.924642	0.330764	0.333286
C60	C	1.257975	0.664097	0.666620
C61	C	0.674348	-0.006374	-0.000037
C62	C	1.007681	0.326960	0.333296
C63	C	1.341015	0.660293	0.666629
C64	C	0.654930	0.122031	-0.000054
C65	C	0.988263	0.455364	0.333279
C66	C	1.321596	0.788698	0.666612
C67	C	0.571894	0.125834	-0.000056
C68	C	0.905228	0.459168	0.333277
C69	C	1.238561	0.792501	0.666610
C70	C	0.540088	0.063534	-0.000058
C71	C	0.873422	0.396867	0.333276
C72	C	1.206755	0.730201	0.666609
C73	C	0.424988	0.008248	-0.000059
C74	C	0.758322	0.341582	0.333274
C75	C	1.091655	0.674915	0.666607
C76	C	0.455213	0.067429	-0.000067
C77	C	0.788547	0.400762	0.333266
C78	C	1.121880	0.734095	0.666599
C79	C	0.948358	-0.207625	-0.075544
C80	C	1.281691	0.125709	0.257789
C81	C	1.615024	0.459042	0.591123
C82	C	0.947127	-0.280375	-0.075550
C83	C	1.280460	0.052958	0.257783
C84	C	1.613793	0.386291	0.591116
C85	C	0.942613	-0.313123	-0.000049
C86	C	1.275947	0.020210	0.333284
C87	C	1.609280	0.353544	0.666618
C88	C	0.939311	-0.273110	0.075464
C89	C	1.272644	0.060223	0.408798
C90	C	1.605977	0.393557	0.742131
C91	C	0.940534	-0.200359	0.075469
C92	C	1.273867	0.132974	0.408802
C93	C	1.607200	0.466307	0.742135
N94	N	0.983091	-0.432624	0.056143
N95	N	1.316424	-0.099291	0.389477
N96	N	1.649758	0.234042	0.722810
N97	N	0.981931	-0.501735	0.056134
N98	N	1.315265	-0.168402	0.389467
N99	N	1.648598	0.164932	0.722801
C100	C	0.938926	-0.532316	-0.000057
C101	C	1.272260	-0.198983	0.333277
C102	C	1.605593	0.134351	0.666610
N103	N	0.897136	-0.491178	-0.056251
N104	N	1.230469	-0.157845	0.277082
N105	N	1.563803	0.175489	0.610416
N106	N	0.898300	-0.422062	-0.056244
N107	N	1.231633	-0.088728	0.277089
N108	N	1.564966	0.244605	0.610422
C109	C	0.941286	-0.392008	-0.000045
C110	C	1.274620	-0.058675	0.333288
C111	C	1.607953	0.274658	0.666622
C112	C	0.940889	-0.651204	-0.075572
C113	C	1.274222	-0.317870	0.257761
C114	C	1.607555	0.015463	0.591094
C115	C	0.939652	-0.723955	-0.075575
C116	C	1.272986	-0.390621	0.257758
C117	C	1.606319	-0.057288	0.591091
C118	C	0.931844	-0.716689	0.075442
C119	C	1.265178	-0.383356	0.408775
C120	C	1.598511	-0.050023	0.742108
C121	C	0.933073	-0.643938	0.075443
C122	C	1.266406	-0.310605	0.408776
C123	C	1.599739	0.022728	0.742109
C124	C	0.937599	-0.611201	-0.000067
C125	C	1.270932	-0.277867	0.333267
C126	C	1.604265	0.055466	0.666600
C127	C	1.085668	0.023807	-0.000061
C128	C	1.419001	0.357141	0.333272
C129	C	1.752335	0.690474	0.666605
C130	C	1.174041	0.019760	-0.000071
C131	C	1.507375	0.353093	0.333262
C132	C	1.840708	0.686426	0.666596
C133	C	0.933839	0.165875	-0.000065
C134	C	1.267172	0.499208	0.333268
C135	C	1.600506	0.832542	0.666601
C136	C	0.935138	0.243303	-0.000073
C137	C	1.268471	0.576636	0.333260
C138	C	1.601805	0.909970	0.666594
N139	N	0.928947	0.048242	0.215744
N140	N	1.262280	0.381576	0.549077
N141	N	1.595613	0.714909	0.882411
N142	N	0.951257	0.027433	-0.215850
N143	N	1.284590	0.360767	0.117483
N144	N	1.617924	0.694100	0.450816
C145	C	0.981003	-0.000435	0.259331
C146	C	1.314337	0.332899	0.592664
C147	C	1.647670	0.666232	0.925998
C148	C	0.976510	0.003771	0.346520
C149	C	1.309843	0.337104	0.679853
C150	C	1.643176	0.670438	1.013186
C151	C	0.919963	0.056657	0.390120
C152	C	1.253296	0.389990	0.723453
C153	C	1.586630	0.723324	1.056787
C154	C	0.867901	0.105336	0.346527
C155	C	1.201234	0.438670	0.679860
C156	C	1.534568	0.772003	1.013193
C157	C	0.872391	0.101127	0.259340
C158	C	1.205724	0.434461	0.592673
C159	C	1.539058	0.767794	0.926006
C160	C	0.903685	0.071904	0.653369
C161	C	1.237019	0.405237	0.986703
C162	C	1.570352	0.738570	1.320036
C163	C	0.899200	0.076110	0.740563
C164	C	1.232534	0.409444	1.073896
C165	C	1.565867	0.742777	1.407229
C166	C	1.007809	-0.025456	0.740550
C167	C	1.341142	0.307877	1.073883
C168	C	1.674476	0.641210	1.407216
C169	C	1.012297	-0.029658	0.653361
C170	C	1.345631	0.303675	0.986694
C171	C	1.678964	0.637008	1.320027
C172	C	0.960232	0.019019	0.609775
C173	C	1.293566	0.352352	0.943108
C174	C	1.626899	0.685685	1.276442
C175	C	0.915370	0.060958	0.479241
C176	C	1.248704	0.394292	0.812574
C177	C	1.582037	0.727625	1.145908
C178	C	0.964822	0.014714	0.520656
C179	C	1.298155	0.348047	0.853989
C180	C	1.631489	0.681380	1.187322
H181	H	0.164146	0.135884	-0.000080
H182	H	0.497479	0.469218	0.333253
H183	H	0.830812	0.802551	0.666586
Br184	Br	0.838628	0.132732	0.538416
Br185	Br	1.171962	0.466065	0.871749
Br186	Br	1.505295	0.799399	1.205082
H187	H	0.314780	0.128974	-0.000088
H188	H	0.648113	0.462307	0.333246
H189	H	0.981447	0.795640	0.666579
H190	H	0.530191	0.179663	-0.000069
H191	H	0.863524	0.512997	0.333264
H192	H	1.196857	0.846330	0.666598
Br193	Br	1.041558	-0.057062	0.461484
Br194	Br	1.374891	0.276271	0.794817
Br195	Br	1.708224	0.609605	1.128151
H196	H	0.680836	0.172752	-0.000055
H197	H	1.014169	0.506086	0.333279
H198	H	1.347502	0.839419	0.666612
Br199	Br	0.947026	-0.606769	-0.178046
Br200	Br	1.280360	-0.273435	0.155287
Br201	Br	1.613693	0.059898	0.488621
Br202	Br	0.743870	-0.096092	-0.000019
Br203	Br	1.077203	0.237241	0.333314
Br204	Br	1.410537	0.570574	0.666648
Br205	Br	0.928593	-0.589644	0.177917
Br206	Br	1.261926	-0.256311	0.511251
Br207	Br	1.595260	0.077023	0.844584
H208	H	0.565423	-0.053299	-0.000046
H209	H	0.898756	0.280035	0.333288
H210	H	1.232089	0.613368	0.666621
H211	H	0.413502	0.121250	-0.000081
H212	H	0.746835	0.454583	0.333252
H213	H	1.080169	0.787917	0.666585
H214	H	0.830000	0.140764	0.223852
H215	H	1.163333	0.474098	0.557185
H216	H	1.496667	0.807431	0.890518
H217	H	0.853151	0.119180	0.776058
H218	H	1.186484	0.452513	1.109391
H219	H	1.519817	0.785846	1.442725
Br220	Br	1.078463	-0.091516	0.799704
Br221	Br	1.411797	0.241817	1.133037
Br222	Br	1.745130	0.575151	1.466371
H223	H	0.942334	-0.756524	-0.137062
H224	H	1.275667	-0.423190	0.196272
H225	H	1.609001	-0.089857	0.529605
H226	H	0.199368	-0.097077	-0.000064
H227	H	0.532701	0.236257	0.333269
H228	H	0.866034	0.569590	0.666603
Br229	Br	1.089043	-0.101430	0.594188
Br230	Br	1.422376	0.231903	0.927521
Br231	Br	1.755709	0.565237	1.260854
Br232	Br	0.954496	-0.163197	-0.178020
Br233	Br	1.287830	0.170136	0.155313
Br234	Br	1.621163	0.503469	0.488647
Br235	Br	0.377819	-0.139872	-0.000048
Br236	Br	0.711153	0.193461	0.333286
Br237	Br	1.044486	0.526795	0.666619
H238	H	0.861293	0.111540	0.617889
H239	H	1.194627	0.444873	0.951222
H240	H	1.527960	0.778206	1.284555
Br241	Br	0.494515	-0.081462	-0.000036
Br242	Br	0.827849	0.251871	0.333298
Br243	Br	1.161182	0.585205	0.666631
H244	H	1.027053	-0.043497	0.223837
H245	H	1.360386	0.289836	0.557171
H246	H	1.693720	0.623169	0.890504
Br247	Br	0.925711	-0.761123	0.177910
Br248	Br	1.259045	-0.427790	0.511244
Br249	Br	1.592378	-0.094456	0.844577
H250	H	0.949807	-0.312951	-0.137036
H251	H	1.283141	0.020382	0.196297
H252	H	1.616474	0.353716	0.529630
H253	H	0.935634	-0.299777	0.136938
H254	H	1.268967	0.033556	0.470272
H255	H	1.602300	0.366889	0.803605
H256	H	0.937845	-0.167788	0.136955
H257	H	1.271178	0.165545	0.470288
H258	H	1.604511	0.498878	0.803621
H259	H	1.018898	-0.035866	0.382008
H260	H	1.352231	0.297467	0.715341
H261	H	1.685564	0.630800	1.048675
Br262	Br	0.791151	0.177108	0.405695
Br263	Br	1.124484	0.510441	0.739028
Br264	Br	1.457818	0.843774	1.072362
