data_functionalizedCrystal
_audit_creation_method	'MofGen! by Chris Wilmer'
_symmetry_space_group_name_H-M	'P1'
_symmetry_Int_Tables_number	1
_symmetry_cell_setting	triclinic
loop_
_symmetry_equiv_pos_as_xyz
  x,y,z
_cell_length_a	19.077068
_cell_length_b	18.215407
_cell_length_c	18.215399
_cell_angle_alpha	90.014769
_cell_angle_beta	92.265636
_cell_angle_gamma	87.677405
loop_
_atom_site_label
_atom_site_type_symbol
_atom_site_fract_x
_atom_site_fract_y
_atom_site_fract_z
Zn1	Zn	-0.280273	-1.113262	-0.427832
Zn2	Zn	-0.397979	-1.108227	-0.309703
Zn3	Zn	-0.280291	-0.990201	-0.304784
Zn4	Zn	-0.397925	-0.985213	-0.432730
O5	O	-0.339117	-1.049226	-0.368762
O6	O	-0.295902	-1.215578	-0.412170
O7	O	-0.382398	-1.092550	-0.206067
O8	O	-0.181798	-1.010720	-0.316999
O9	O	-0.382380	-1.211878	-0.325381
O10	O	-0.181785	-1.101133	-0.407401
O11	O	-0.295933	-1.005837	-0.202454
O12	O	-0.295880	-0.886555	-0.321748
O13	O	-0.382288	-1.002219	-0.535063
O14	O	-0.382305	-0.882891	-0.415749
O15	O	-0.295850	-1.096296	-0.531464
O16	O	-0.496462	-1.087714	-0.330131
O17	O	-0.496423	-0.997336	-0.420518
C18	C	-0.339089	-0.858021	-0.368747
C19	C	-0.339095	-0.776221	-0.368758
C20	C	-0.294152	-0.589949	-0.414026
C21	C	-0.294156	-0.513090	-0.414028
C22	C	-0.384071	-0.509255	-0.323504
C23	C	-0.384063	-0.586112	-0.323498
C24	C	-0.339105	-0.626457	-0.368764
C25	C	-0.339116	-0.472741	-0.368771
C26	C	-0.339121	-0.389407	-0.368773
C27	C	-0.339099	-0.709797	-0.368761
C28	C	-0.521980	-1.041457	-0.376406
C29	C	-0.600210	-1.038201	-0.379700
C30	C	-0.636960	-1.083763	-0.334227
C31	C	-0.710465	-1.080705	-0.337330
C32	C	-0.747219	-1.032080	-0.385903
C33	C	-0.710464	-0.986517	-0.431381
C34	C	-0.636960	-0.989579	-0.428281
C35	C	-0.967051	-1.017875	-0.400220
C36	C	-1.040560	-1.014815	-0.403315
C37	C	-1.040556	-1.109004	-0.309264
C38	C	-0.967051	-1.112059	-0.306166
C39	C	-0.930303	-1.066498	-0.351646
N40	N	-0.822352	-1.028952	-0.389075
N41	N	-0.855170	-1.069631	-0.348478
C42	C	-0.155540	-1.057045	-0.361105
C43	C	-0.077310	-1.060377	-0.357842
C44	C	-0.339061	-1.049263	-0.560713
C45	C	-0.339037	-1.049279	-0.642511
C46	C	-0.339137	-0.241178	-0.368776
C47	C	-0.339127	-0.322977	-0.368776
C48	C	-0.293984	-1.004168	-0.828823
C49	C	-0.293970	-1.004181	-0.905681
C50	C	-0.384005	-1.094481	-0.909433
C51	C	-0.384023	-1.094463	-0.832576
C52	C	-0.339008	-1.049308	-0.792273
C53	C	-0.338977	-1.049339	-0.945988
C54	C	-0.338962	-1.049354	-1.029321
C55	C	-0.339024	-1.049292	-0.708935
C56	C	-0.339122	-1.049233	-0.177556
C57	C	-0.338948	-1.049368	-0.095750
H58	H	-0.607039	-1.123355	-0.294671
H59	H	-0.420669	-0.615838	-0.286636
C60	C	-0.260028	-0.490910	-0.537278
C61	C	-0.244747	-0.472959	-0.463785
H62	H	-0.229525	-0.466131	-0.567996
H63	H	-0.253589	-0.542452	-0.543747
H64	H	-0.307333	-0.476310	-0.549935
H65	H	-0.197444	-0.487565	-0.451127
H66	H	-0.251180	-0.421407	-0.457313
H67	H	-0.257330	-0.967400	-0.796010
C68	C	-0.424012	-0.389733	-0.283322
C69	C	-0.433493	-0.464904	-0.273757
H70	H	-0.454529	-0.362355	-0.252614
H71	H	-0.376718	-0.379138	-0.270652
H72	H	-0.434371	-0.376724	-0.333189
H73	H	-0.423129	-0.477914	-0.223891
H74	H	-0.480798	-0.475504	-0.286423
H75	H	-0.420689	-1.131223	-0.802817
H76	H	-0.740383	-1.117805	-0.300301
C77	C	-0.423954	-1.134607	-1.028916
C78	C	-0.433479	-1.144119	-0.953737
H79	H	-0.454494	-1.165257	-1.056264
H80	H	-0.434248	-1.084731	-1.041935
H81	H	-0.376660	-1.147394	-1.039534
H82	H	-0.480771	-1.131327	-0.943118
H83	H	-0.423189	-1.194006	-0.940713
C84	C	-0.854375	-1.158568	-0.259650
C85	C	-0.926652	-1.165506	-0.252771
H86	H	-0.829436	-1.191560	-0.226680
H87	H	-0.842289	-1.169816	-0.308590
H88	H	-0.842382	-1.109624	-0.248332
H89	H	-0.938646	-1.214450	-0.264095
H90	H	-0.938743	-1.154264	-0.203821
H91	H	-1.070485	-1.146098	-0.272238
C92	C	-0.284478	-0.676819	-0.512630
C93	C	-0.244732	-0.634298	-0.463776
H94	H	-0.253965	-0.704193	-0.543346
H95	H	-0.311243	-0.709561	-0.485673
H96	H	-0.315176	-0.645537	-0.542012
H97	H	-0.214038	-0.665580	-0.434391
H98	H	-0.217956	-0.601552	-0.490736
H99	H	-1.070483	-0.975228	-0.442881
C100	C	-0.974449	-0.924449	-0.493475
C101	C	-0.926664	-0.967781	-0.450197
H102	H	-0.949512	-0.893516	-0.524324
H103	H	-1.003070	-0.955300	-0.522866
H104	H	-1.003165	-0.895134	-0.462583
H105	H	-0.897951	-0.997100	-0.481089
H106	H	-0.898031	-0.936926	-0.420803
C107	C	-0.823140	-0.939994	-0.477887
C108	C	-0.750862	-0.933066	-0.484772
H109	H	-0.848077	-0.906989	-0.510845
H110	H	-0.835142	-0.988927	-0.489211
H111	H	-0.835219	-0.928751	-0.428937
H112	H	-0.738782	-0.944314	-0.533721
H113	H	-0.738856	-0.884121	-0.473454
H114	H	-0.607039	-0.952479	-0.465311
H115	H	-0.257308	-0.967423	-0.935436
