data_functionalizedCrystal
_audit_creation_method	'MofGen! by Chris Wilmer'
_symmetry_space_group_name_H-M	'P1'
_symmetry_Int_Tables_number	1
_symmetry_cell_setting	triclinic
loop_
_symmetry_equiv_pos_as_xyz
  x,y,z
_cell_length_a	6.817900
_cell_length_b	17.253917
_cell_length_c	19.453114
_cell_angle_alpha	99.551551
_cell_angle_beta	101.709288
_cell_angle_gamma	102.659311
loop_
_atom_site_label
_atom_site_type_symbol
_atom_site_fract_x
_atom_site_fract_y
_atom_site_fract_z
V1	V	-4.007203	-0.112157	-0.225717
O2	O	-3.994726	0.004528	-0.214559
O3	O	-3.959203	-0.221560	-0.230773
O4	O	-3.950113	-0.110810	-0.321150
O5	O	-4.003879	-0.106989	-0.123556
V6	V	-4.491905	-0.098156	-0.212696
O7	O	-4.265875	-0.142871	-0.254280
O8	O	-4.683431	-0.067442	-0.184134
O9	O	-4.316699	0.011247	-0.207641
O10	O	-4.621779	-0.214841	-0.223855
O11	O	-4.612627	-0.103324	-0.314857
O12	O	-4.325789	-0.099503	-0.117264
C13	C	-3.804582	-0.248218	-0.228915
C14	C	-3.846565	-0.337659	-0.233684
C15	C	-3.831853	-0.367942	-0.170900
C16	C	-3.871320	-0.451982	-0.175384
C17	C	-3.925484	-0.505736	-0.242653
C18	C	-3.940203	-0.475449	-0.305442
C19	C	-3.900750	-0.391411	-0.300958
C20	C	-4.047183	-0.758333	-0.263037
C21	C	-4.086630	-0.842376	-0.267517
C22	C	-4.017747	-0.818904	-0.137458
C23	C	-3.978286	-0.734865	-0.132979
C24	C	-3.993018	-0.704584	-0.195769
N25	N	-3.965820	-0.591639	-0.247237
N26	N	-3.952696	-0.618684	-0.191184
C27	C	-3.792987	-0.106945	-0.344198
C28	C	-3.827596	-0.106568	-0.422258
C29	C	-4.025652	-0.110429	-0.462747
C30	C	-4.058171	-0.110074	-0.536092
C31	C	-3.892631	-0.105875	-0.568949
C32	C	-3.694545	-0.102008	-0.528451
C33	C	-3.662027	-0.102355	-0.455105
N34	N	-3.833043	-0.148365	-0.690284
N35	N	-3.863947	-0.148038	-0.759960
C36	C	-3.990594	-0.104829	-0.789935
N37	N	-4.085205	-0.061970	-0.747605
N38	N	-4.054306	-0.062301	-0.677924
C39	C	-3.927871	-0.105498	-0.648480
C40	C	-4.223923	-0.108305	-0.909953
C41	C	-4.256432	-0.107945	-0.983299
C42	C	-3.892804	-0.099887	-0.975658
C43	C	-3.860296	-0.100239	-0.902312
C44	C	-4.025865	-0.104452	-0.869465
C45	C	-4.134662	0.037901	-0.209497
C46	C	-4.071917	0.127341	-0.204732
C47	C	-4.146258	-0.103371	-0.094212
C48	C	-4.090888	-0.103744	-0.016151
H49	H	-3.912753	-0.366757	-0.352084
H50	H	-3.787733	-0.324179	-0.116122
H51	H	-3.859342	-0.476633	-0.124258
H52	H	-4.160472	-0.113856	-0.436007
F53	F	-4.268977	-0.114180	-0.579190
H54	H	-3.934195	-0.691102	-0.078202
F55	F	-4.467239	-0.112053	-1.026390
F56	F	-3.716614	-0.095405	-1.010619
H57	H	-3.500740	-0.099204	-0.422138
F58	F	-4.400128	-0.112783	-0.874991
H59	H	-3.699024	-0.097103	-0.869347
F60	F	-3.518365	-0.097537	-0.563420
H61	H	-4.005761	-0.843567	-0.086338
F62	F	-4.144400	-0.899589	-0.339119
H63	H	-3.984321	-0.519223	-0.360214
F64	F	-4.062852	-0.726117	-0.329864
