data_functionalizedCrystal
_audit_creation_method	'MofGen! by Chris Wilmer'
_symmetry_space_group_name_H-M	'P1'
_symmetry_Int_Tables_number	1
_symmetry_cell_setting	triclinic
loop_
_symmetry_equiv_pos_as_xyz
  x,y,z
_cell_length_a	23.532407
_cell_length_b	23.532407
_cell_length_c	22.610064
_cell_angle_alpha	89.990850
_cell_angle_beta	89.990066
_cell_angle_gamma	82.848678
loop_
_atom_site_label
_atom_site_type_symbol
_atom_site_fract_x
_atom_site_fract_y
_atom_site_fract_z
O1	O	-0.755269	-0.069133	0.049117
O2	O	-0.589405	-0.079137	0.049135
O3	O	-0.677338	0.008797	0.049114
O4	O	-0.667335	-0.157067	0.049137
O5	O	-0.677313	0.008797	-0.049255
O6	O	-0.589380	-0.079137	-0.049234
O7	O	-0.755243	-0.069133	-0.049252
Zn8	Zn	-0.672307	-0.074135	-0.064862
Zn9	Zn	-0.672341	-0.074135	0.064744
O10	O	-0.667310	-0.157067	-0.049232
C11	C	-0.568176	-0.078882	-0.000048
C12	C	-0.504959	-0.078116	-0.000041
C13	C	-0.677071	0.030013	-0.000072
C14	C	-0.676305	0.093230	-0.000076
C15	C	-0.776472	-0.069388	-0.000069
C16	C	-0.839689	-0.070154	-0.000071
C17	C	-0.105856	-0.125350	-0.000061
C18	C	-0.046456	-0.124638	-0.000065
O19	O	-0.009711	-0.168424	-0.000081
N20	N	-0.023830	-0.072362	-0.000071
C21	C	-0.060607	-0.020794	-0.000080
O22	O	-0.035908	0.023737	-0.000086
C23	C	-0.120006	-0.021506	-0.000080
C24	C	-0.142629	-0.073785	-0.000068
C25	C	-0.128479	-0.177625	-0.000050
C26	C	-0.187876	-0.178336	-0.000045
C27	C	-0.224649	-0.126772	-0.000052
C28	C	-0.202025	-0.074497	-0.000063
C29	C	-0.156783	0.030062	-0.000093
C30	C	-0.216185	0.029345	-0.000094
C31	C	-0.238808	-0.022934	-0.000082
C32	C	-0.298194	-0.023643	-0.000065
N33	N	-0.320820	-0.075920	-0.000059
C34	C	-0.284048	-0.127484	-0.000052
C35	C	0.064135	-0.019302	-0.000080
C36	C	0.123533	-0.018589	-0.000075
C37	C	0.137680	-0.122434	-0.000061
C38	C	0.078281	-0.123146	-0.000062
C39	C	0.041509	-0.071578	-0.000074
C40	C	-0.408784	-0.128974	-0.000042
C41	C	-0.468186	-0.129680	-0.000034
C42	C	-0.482329	-0.025836	-0.000051
C43	C	-0.422932	-0.025129	-0.000055
C44	C	-0.386160	-0.076702	-0.000052
O45	O	-0.334974	0.020119	-0.000052
O46	O	-0.308755	-0.172007	-0.000054
C47	C	-0.667577	-0.178283	-0.000045
C48	C	-0.668343	-0.241500	-0.000036
N49	N	-0.672288	-0.074135	-0.153314
C50	C	-0.723539	0.492333	-0.000049
C51	C	-0.722827	0.551733	-0.000044
O52	O	-0.766613	0.588478	-0.000027
N53	N	-0.670551	0.574359	-0.000039
C54	C	-0.618983	0.537582	-0.000032
O55	O	-0.574452	0.562281	-0.000027
C56	C	-0.619695	0.478182	-0.000033
C57	C	-0.671974	0.455560	-0.000044
C58	C	-0.775814	0.469710	-0.000060
C59	C	-0.776525	0.410313	-0.000065
C60	C	-0.724961	0.373540	-0.000060
C61	C	-0.672685	0.396164	-0.000050
C62	C	-0.568127	0.441406	-0.000022
C63	C	-0.568844	0.382004	-0.000021
C64	C	-0.621123	0.359381	-0.000033
C65	C	-0.621832	0.299995	-0.000050
N66	N	-0.674109	0.277368	-0.000056
C67	C	-0.725673	0.314141	-0.000061
C68	C	-0.617491	0.662324	-0.000031
C69	C	-0.616778	0.721722	-0.000034
C70	C	-0.720623	0.735869	-0.000045
C71	C	-0.721335	0.676470	-0.000046
C72	C	-0.669767	0.639698	-0.000036
C73	C	-0.727163	0.189405	-0.000073
C74	C	-0.727869	0.130003	-0.000081
C75	C	-0.624025	0.115860	-0.000067
C76	C	-0.623318	0.175257	-0.000062
C77	C	-0.674891	0.212029	-0.000063
O78	O	-0.578070	0.263215	-0.000065
O79	O	-0.770196	0.289433	-0.000058
C80	C	-0.706686	-0.108496	-0.561955
C81	C	-0.706693	-0.108494	-0.623874
O82	O	-0.735916	-0.137705	-0.655892
N83	N	-0.672352	-0.074128	-0.654851
C84	C	-0.638006	-0.039758	-0.623905
O85	O	-0.608797	-0.010527	-0.655939
C86	C	-0.638002	-0.039757	-0.561986
C87	C	-0.672341	-0.074129	-0.531013
C88	C	-0.741022	-0.142864	-0.530981
C89	C	-0.741014	-0.142867	-0.469065
C90	C	-0.706669	-0.108500	-0.438123
C91	C	-0.672333	-0.074131	-0.469097
C92	C	-0.603660	-0.005383	-0.531041
C93	C	-0.603659	-0.005384	-0.469118
C94	C	-0.637998	-0.039757	-0.438144
C95	C	-0.637980	-0.039766	-0.376239
N96	N	-0.672321	-0.074132	-0.345262
C97	C	-0.706666	-0.108498	-0.376204
C98	C	-0.638017	-0.039762	-0.753938
C99	C	-0.638017	-0.039766	-0.815856
C100	C	-0.706705	-0.108502	-0.815821
C101	C	-0.706701	-0.108501	-0.753903
C102	C	-0.672358	-0.074128	-0.722962
C103	C	-0.706646	-0.108501	-0.246177
C104	C	-0.706633	-0.108502	-0.184256
C105	C	-0.637948	-0.039764	-0.184296
C106	C	-0.637958	-0.039765	-0.246212
C107	C	-0.672312	-0.074135	-0.277151
O108	O	-0.608774	-0.010568	-0.344182
O109	O	-0.735875	-0.137719	-0.344163
N110	N	-0.672364	-0.074131	0.153196
H111	H	-0.486602	-0.172255	-0.000024
F112	F	-0.601396	-0.003192	-0.151355
F113	F	-0.089351	-0.232512	-0.000043
H114	H	-0.734663	-0.136490	-0.728688
F115	F	-0.830701	0.508838	-0.000064
F116	F	-0.513956	0.342871	-0.000010
F117	F	-0.832169	0.386245	-0.000064
F118	F	-0.743260	-0.145076	-0.848763
H119	H	-0.575693	0.022607	-0.443929
F120	F	-0.775503	0.775016	-0.000048
H121	H	-0.768992	-0.170850	-0.556167
H122	H	-0.769159	0.219337	-0.000071
H123	H	-0.525555	0.459814	-0.000009
H124	H	-0.610048	-0.011784	-0.841070
F125	F	-0.601456	-0.003181	-0.721014
H126	H	-0.734595	-0.136494	-0.159040
H127	H	-0.246123	0.071339	-0.000104
H128	H	-0.580748	0.193677	-0.000069
F129	F	-0.783515	0.105930	-0.000093
H130	H	-0.404512	0.017441	-0.000056
F131	F	0.176828	-0.177314	-0.000057
H132	H	-0.378851	-0.170970	-0.000041
H133	H	-0.206289	-0.220908	-0.000035
H134	H	0.141947	0.023982	-0.000076
F135	F	0.054210	-0.178789	-0.000050
H136	H	-0.512280	0.016146	-0.000054
F137	F	0.025003	0.035587	-0.000086
H138	H	-0.138375	0.072634	-0.000103
F139	F	-0.776978	0.652399	-0.000058
H140	H	-0.574207	0.740136	-0.000035
H141	H	-0.734620	-0.136488	-0.271360
F142	F	-0.562602	0.623192	-0.000025
F143	F	-0.567111	0.031201	-0.563992
H144	H	-0.582043	0.085909	-0.000065
H145	H	-0.768979	-0.170854	-0.443852
H146	H	-0.609989	-0.011784	-0.271432
