data_functionalizedCrystal
_audit_creation_method	'MofGen! by Chris Wilmer'
_symmetry_space_group_name_H-M	'P1'
_symmetry_Int_Tables_number	1
_symmetry_cell_setting	triclinic
loop_
_symmetry_equiv_pos_as_xyz
  x,y,z
_cell_length_a	11.792241
_cell_length_b	10.654550
_cell_length_c	10.868271
_cell_angle_alpha	89.999758
_cell_angle_beta	89.999412
_cell_angle_gamma	95.660841
loop_
_atom_site_label
_atom_site_type_symbol
_atom_site_fract_x
_atom_site_fract_y
_atom_site_fract_z
O1	O	1.507308	-0.172128	-0.102199
O2	O	2.007308	0.327872	0.397801
O3	O	1.177007	-0.189869	-0.102228
O4	O	1.677007	0.310131	0.397772
O5	O	1.349752	0.001762	-0.102208
O6	O	1.849752	0.501762	0.397792
O7	O	1.334563	-0.363759	-0.102219
O8	O	1.834563	0.136241	0.397781
O9	O	1.349734	0.001754	0.102436
O10	O	1.849734	0.501754	0.602436
O11	O	1.176990	-0.189877	0.102417
O12	O	1.676990	0.310123	0.602417
O13	O	1.507290	-0.172136	0.102445
O14	O	2.007290	0.327864	0.602445
Zn15	Zn	1.342137	-0.181008	0.134923
Zn16	Zn	1.842137	0.318992	0.634923
Zn17	Zn	1.342160	-0.180997	-0.134705
Zn18	Zn	1.842160	0.319003	0.365295
O19	O	1.334546	-0.363767	0.102426
O20	O	1.834546	0.136233	0.602426
C21	C	1.134705	-0.188758	0.000091
C22	C	1.634705	0.311242	0.500091
C23	C	1.008684	-0.185423	0.000080
C24	C	1.508684	0.314577	0.500080
C25	C	1.348628	0.048553	0.000112
C26	C	1.848628	0.548553	0.500112
C27	C	1.345291	0.187987	0.000108
C28	C	1.845291	0.687987	0.500108
N29	N	1.342130	-0.181014	0.318937
N30	N	1.842130	0.318986	0.818937
C31	C	0.777957	-0.179290	0.000116
C32	C	1.277957	0.320710	0.500116
C33	C	0.906351	-0.182697	0.000096
C34	C	1.406351	0.317303	0.500096
C35	C	1.549592	-0.173247	0.000124
C36	C	2.049592	0.326753	0.500124
C37	C	1.675614	-0.176582	0.000127
C38	C	2.175614	0.323418	0.500127
C39	C	1.335670	-0.410558	0.000102
C40	C	1.835670	0.089442	0.500102
C41	C	1.339006	-0.549992	0.000099
C42	C	1.839006	-0.049992	0.500099
C43	C	1.447000	0.267760	0.000120
C44	C	1.947000	0.767760	0.500120
C45	C	1.443858	0.398772	0.000111
C46	C	1.943858	0.898772	0.500111
C47	C	1.237290	0.370224	0.000083
C48	C	1.737290	0.870224	0.500083
C49	C	1.240433	0.239215	0.000083
C50	C	1.740433	0.739215	0.500083
C51	C	1.551859	0.216532	0.000145
C52	C	2.051859	0.716532	0.500145
C53	C	1.653577	0.296307	0.000159
C54	C	2.153577	0.796307	0.500159
C55	C	1.650435	0.427319	0.000150
C56	C	2.150435	0.927319	0.500150
C57	C	1.545575	0.478556	0.000128
C58	C	2.045575	0.978556	0.500128
C59	C	1.342138	-0.181016	0.430275
C60	C	1.842138	0.318984	0.930275
C61	C	1.342152	-0.181006	0.569952
C62	C	1.842152	0.318994	1.069952
N63	N	1.342169	-0.180990	0.681281
N64	N	1.842169	0.319010	1.181281
H65	H	1.554429	0.109857	0.000156
H66	H	2.054429	0.609857	0.500156
Br67	Br	1.094990	0.439761	0.000052
Br68	Br	1.594990	0.939761	0.500052
H69	H	1.543025	0.585236	0.000107
H70	H	2.043025	1.085236	0.500107
H71	H	1.738949	0.254580	0.000147
H72	H	2.238949	0.754580	0.500147
H73	H	1.733258	0.492268	0.000149
H74	H	2.233258	0.992268	0.500149
Br75	Br	1.102397	0.130942	0.000061
Br76	Br	1.602397	0.630942	0.500061
