data_functionalizedCrystal
_audit_creation_method	'MofGen! by Chris Wilmer'
_symmetry_space_group_name_H-M	'P1'
_symmetry_Int_Tables_number	1
_symmetry_cell_setting	triclinic
loop_
_symmetry_equiv_pos_as_xyz
  x,y,z
_cell_length_a	19.077105
_cell_length_b	16.625546
_cell_length_c	19.077569
_cell_angle_alpha	87.674615
_cell_angle_beta	85.299277
_cell_angle_gamma	87.718759
loop_
_atom_site_label
_atom_site_type_symbol
_atom_site_fract_x
_atom_site_fract_y
_atom_site_fract_z
Zn1	Zn	1.093727	-0.351109	-0.441842
Zn2	Zn	1.427060	-0.017776	-0.108508
Zn3	Zn	1.760394	0.315558	0.224825
Zn4	Zn	1.088914	-0.491150	-0.323948
Zn5	Zn	1.422247	-0.157816	0.009385
Zn6	Zn	1.755580	0.175517	0.342718
Zn7	Zn	0.971109	-0.351121	-0.319237
Zn8	Zn	1.304442	-0.017787	0.014096
Zn9	Zn	1.637776	0.315546	0.347430
Zn10	Zn	0.975810	-0.480687	-0.437068
Zn11	Zn	1.309143	-0.147353	-0.103735
Zn12	Zn	1.642476	0.185980	0.229598
O13	O	1.032390	-0.418516	-0.380524
O14	O	1.365723	-0.085183	-0.047190
O15	O	1.699057	0.248150	0.286143
O16	O	1.191739	-0.374059	-0.430172
O17	O	1.525072	-0.040726	-0.096839
O18	O	1.858405	0.292607	0.236495
O19	O	1.069305	-0.476958	-0.224672
O20	O	1.402638	-0.143625	0.108662
O21	O	1.735972	0.189709	0.441995
O22	O	0.987422	-0.238288	-0.335527
O23	O	1.320755	0.095046	-0.002194
O24	O	1.654089	0.428379	0.331140
O25	O	1.188202	-0.476947	-0.343556
O26	O	1.521536	-0.143613	-0.010223
O27	O	1.854869	0.189720	0.323110
O28	O	1.077509	-0.238279	-0.425604
O29	O	1.410842	0.095054	-0.092271
O30	O	1.744175	0.428388	0.241063
O31	O	0.982755	-0.374079	-0.221211
O32	O	1.316088	-0.040746	0.112123
O33	O	1.649421	0.292587	0.445456
O34	O	0.873082	-0.363934	-0.330898
O35	O	1.206416	-0.030601	0.002435
O36	O	1.539749	0.302733	0.335768
O37	O	0.995433	-0.459114	-0.536353
O38	O	1.328767	-0.125781	-0.203020
O39	O	1.662100	0.207552	0.130314
O40	O	0.876536	-0.459126	-0.417468
O41	O	1.209869	-0.125792	-0.084135
O42	O	1.543203	0.207541	0.249198
O43	O	1.082067	-0.363914	-0.539860
O44	O	1.415400	-0.030581	-0.206527
O45	O	1.748733	0.302753	0.126807
O46	O	1.073863	-0.602593	-0.338928
O47	O	1.407196	-0.269260	-0.005594
O48	O	1.740530	0.064074	0.327739
O49	O	0.990766	-0.594906	-0.422037
O50	O	1.324099	-0.261573	-0.088703
O51	O	1.657433	0.071761	0.244630
C52	C	0.849230	-0.410396	-0.373155
C53	C	1.182564	-0.077063	-0.039821
C54	C	1.515897	0.256270	0.293512
C55	C	0.770874	-0.406941	-0.370019
C56	C	1.104208	-0.073608	-0.036685
C57	C	1.437541	0.259726	0.296648
C58	C	0.735876	-0.454960	-0.413547
C59	C	1.069210	-0.121627	-0.080214
C60	C	1.402543	0.211707	0.253120
C61	C	0.662253	-0.451703	-0.410604
C62	C	0.995586	-0.118369	-0.077271
C63	C	1.328919	0.214964	0.256063
C64	C	0.623629	-0.400430	-0.364128
C65	C	0.956962	-0.067097	-0.030795
C66	C	1.290295	0.266236	0.302538
C67	C	0.658632	-0.352406	-0.320598
C68	C	0.991965	-0.019073	0.012735
C69	C	1.325298	0.314261	0.346068
C70	C	0.732254	-0.355660	-0.323546
C71	C	1.065587	-0.022326	0.009788
C72	C	1.398921	0.311007	0.343121
C73	C	0.403247	-0.385372	-0.350492
C74	C	0.736580	-0.052039	-0.017159
C75	C	1.069913	0.281294	0.316175
C76	C	0.329619	-0.382124	-0.347547
C77	C	0.662953	-0.048791	-0.014213
C78	C	0.996286	0.284543	0.319120
C79	C	0.333246	-0.481420	-0.437553
C80	C	0.666579	-0.148087	-0.104220
C81	C	0.999912	0.185247	0.229113
C82	C	0.406869	-0.484673	-0.440493
C83	C	0.740202	-0.151339	-0.107160
C84	C	1.073536	0.181994	0.226173
C85	C	0.441866	-0.436645	-0.396966
C86	C	0.775199	-0.103312	-0.063633
C87	C	1.108533	0.230021	0.269701
N88	N	0.548373	-0.397102	-0.361117
N89	N	0.881707	-0.063768	-0.027784
N90	N	1.215040	0.269565	0.305549
N91	N	0.517120	-0.439971	-0.399981
N92	N	0.850453	-0.106637	-0.066648
N93	N	1.183787	0.226696	0.266686
C94	C	1.032322	-0.628006	-0.380492
C95	C	1.365655	-0.294672	-0.047158
C96	C	1.698989	0.038661	0.286175
C97	C	1.032358	-0.717628	-0.380504
C98	C	1.365692	-0.384295	-0.047171
C99	C	1.699025	-0.050961	0.286163
C100	C	1.032484	-1.045806	-0.380582
C101	C	1.365818	-0.712472	-0.047249
C102	C	1.699151	-0.379139	0.286084
C103	C	1.032447	-0.954496	-0.380562
C104	C	1.365780	-0.621163	-0.047229
C105	C	1.699114	-0.287830	0.286104
C106	C	1.032421	-0.881720	-0.380543
C107	C	1.365754	-0.548386	-0.047209
C108	C	1.699087	-0.215053	0.286124
C109	C	1.032385	-0.790405	-0.380524
C110	C	1.365718	-0.457071	-0.047190
C111	C	1.699051	-0.123738	0.286143
C112	C	1.216265	-0.426669	-0.387922
C113	C	1.549598	-0.093336	-0.054589
C114	C	1.882931	0.239998	0.278744
C115	C	1.294621	-0.430143	-0.391075
C116	C	1.627955	-0.096810	-0.057742
C117	C	1.961288	0.236524	0.275592
C118	C	1.039811	-0.410346	-0.564401
C119	C	1.373145	-0.077013	-0.231068
C120	C	1.706478	0.256321	0.102266
C121	C	1.042974	-0.406864	-0.642758
C122	C	1.376307	-0.073531	-0.309425
C123	C	1.709640	0.259803	0.023908
C124	C	1.032478	-0.208209	-0.380572
C125	C	1.365811	0.125124	-0.047239
C126	C	1.699145	0.458457	0.286094
C127	C	1.032515	-0.118589	-0.380593
C128	C	1.365849	0.214744	-0.047260
C129	C	1.699182	0.548078	0.286074
C130	C	0.999355	-0.454790	-0.677746
C131	C	1.332689	-0.121457	-0.344413
C132	C	1.666022	0.211877	-0.011079
C133	C	1.002333	-0.451519	-0.751371
C134	C	1.335666	-0.118185	-0.418038
C135	C	1.668999	0.215148	-0.084705
C136	C	1.048926	-0.400317	-0.790008
C137	C	1.382259	-0.066983	-0.456674
C138	C	1.715592	0.266350	-0.123341
C139	C	1.092549	-0.352389	-0.755015
C140	C	1.425882	-0.019055	-0.421682
C141	C	1.759216	0.314278	-0.088348
C142	C	1.089575	-0.355665	-0.681391
C143	C	1.422908	-0.022332	-0.348058
C144	C	1.756241	0.311002	-0.014724
C145	C	1.062661	-0.385208	-1.010396
C146	C	1.395994	-0.051874	-0.677062
C147	C	1.729328	0.281459	-0.343729
C148	C	1.065631	-0.381934	-1.084024
C149	C	1.398964	-0.048600	-0.750691
C150	C	1.732297	0.284733	-0.417358
C151	C	0.975415	-0.481065	-1.080376
C152	C	1.308748	-0.147732	-0.747043
C153	C	1.642082	0.185602	-0.413709
C154	C	0.972442	-0.484333	-1.006751
C155	C	1.305775	-0.151000	-0.673417
C156	C	1.639108	0.182334	-0.340084
C157	C	1.016068	-0.436408	-0.971764
C158	C	1.349401	-0.103075	-0.638431
C159	C	1.682734	0.230258	-0.305098
N160	N	1.051968	-0.396970	-0.865265
N161	N	1.385302	-0.063636	-0.531931
N162	N	1.718635	0.269697	-0.198598
N163	N	1.013028	-0.439760	-0.896509
N164	N	1.346361	-0.106427	-0.563176
N165	N	1.679694	0.226907	-0.229842
C166	C	1.025038	-0.426599	-0.197364
C167	C	1.358371	-0.093266	0.135970
C168	C	1.691705	0.240068	0.469303
C169	C	1.022012	-0.429860	-0.119012
C170	C	1.355345	-0.096526	0.214321
C171	C	1.688679	0.236807	0.547655
H172	H	0.438312	-0.526426	-0.478337
H173	H	0.771645	-0.193093	-0.145004
H174	H	1.104979	0.140241	0.188330
Br175	Br	0.606214	-0.282813	-0.257530
Br176	Br	0.939548	0.050520	0.075803
Br177	Br	1.272881	0.383854	0.409136
H178	H	0.961406	-0.496475	-0.646293
H179	H	1.294739	-0.163141	-0.312960
H180	H	1.628072	0.170192	0.020373
H181	H	0.304743	-0.520520	-0.472992
H182	H	0.638076	-0.187187	-0.139659
H183	H	0.971410	0.146147	0.193675
H184	H	0.431732	-0.346271	-0.315044
H185	H	0.765065	-0.012938	0.018290
H186	H	1.098399	0.320395	0.351623
Br187	Br	0.277200	-0.312545	-0.284461
Br188	Br	0.610534	0.020789	0.048872
Br189	Br	0.943867	0.354122	0.382206
Br190	Br	0.779753	-0.290484	-0.264473
Br191	Br	1.113086	0.042849	0.068860
Br192	Br	1.446419	0.376183	0.402194
H193	H	0.934512	-0.526041	-0.975298
H194	H	1.267845	-0.192707	-0.641965
H195	H	1.601179	0.140626	-0.308632
H196	H	0.939897	-0.520083	-1.108870
H197	H	1.273231	-0.186750	-0.775536
H198	H	1.606564	0.146584	-0.442203
H199	H	1.098185	-0.346184	-0.981919
H200	H	1.431518	-0.012851	-0.648585
H201	H	1.764851	0.320482	-0.315252
H202	H	0.966815	-0.490546	-0.779855
H203	H	1.300148	-0.157213	-0.446522
H204	H	1.633481	0.176120	-0.113188
H205	H	1.103570	-0.340231	-1.115480
H206	H	1.436903	-0.006898	-0.782147
H207	H	1.770236	0.326435	-0.448813
H208	H	1.130489	-0.310703	-0.786478
H209	H	1.463822	0.022631	-0.453145
H210	H	1.797156	0.355964	-0.119812
H211	H	0.767319	-0.496714	-0.451390
H212	H	1.100652	-0.163381	-0.118057
H213	H	1.433986	0.169952	0.215277
Br214	Br	0.614758	-0.516872	-0.469683
Br215	Br	0.948091	-0.183539	-0.136349
Br216	Br	1.281424	0.149794	0.196984
Br217	Br	1.148779	-0.290626	-0.633907
Br218	Br	1.482112	0.042708	-0.300573
Br219	Br	1.815445	0.376041	0.032760
