data_functionalizedCrystal
_audit_creation_method	'MofGen! by Chris Wilmer'
_symmetry_space_group_name_H-M	'P1'
_symmetry_Int_Tables_number	1
_symmetry_cell_setting	triclinic
loop_
_symmetry_equiv_pos_as_xyz
  x,y,z
_cell_length_a	19.077105
_cell_length_b	18.101395
_cell_length_c	19.076919
_cell_angle_alpha	87.727683
_cell_angle_beta	89.923776
_cell_angle_gamma	87.727498
loop_
_atom_site_label
_atom_site_type_symbol
_atom_site_fract_x
_atom_site_fract_y
_atom_site_fract_z
Zn1	Zn	1.058231	-0.358271	0.440421
Zn2	Zn	1.391564	-0.024938	0.773754
Zn3	Zn	1.724897	0.308395	1.107088
Zn4	Zn	1.062857	-0.477344	0.322915
Zn5	Zn	1.396191	-0.144010	0.656249
Zn6	Zn	1.729524	0.189323	0.989582
Zn7	Zn	0.945450	-0.348351	0.318214
Zn8	Zn	1.278783	-0.015017	0.651548
Zn9	Zn	1.612116	0.318316	0.984881
Zn10	Zn	0.940679	-0.476897	0.435668
Zn11	Zn	1.274013	-0.143564	0.769001
Zn12	Zn	1.607346	0.189769	1.102335
O13	O	1.001804	-0.415216	0.379305
O14	O	1.335138	-0.081882	0.712638
O15	O	1.668471	0.251451	1.045971
O16	O	1.157176	-0.378405	0.428790
O17	O	1.490509	-0.045072	0.762124
O18	O	1.823842	0.288261	1.095457
O19	O	1.051216	-0.456268	0.223960
O20	O	1.384549	-0.122934	0.557294
O21	O	1.717882	0.210399	0.890627
O22	O	0.960470	-0.246037	0.334447
O23	O	1.293804	0.087296	0.667780
O24	O	1.627137	0.420629	1.001114
O25	O	1.160575	-0.465887	0.342459
O26	O	1.493908	-0.132554	0.675793
O27	O	1.827242	0.200779	1.009126
O28	O	1.043330	-0.253326	0.424232
O29	O	1.376663	0.080007	0.757565
O30	O	1.709997	0.413341	1.090898
O31	O	0.964957	-0.361497	0.220507
O32	O	1.298290	-0.028164	0.553840
O33	O	1.631623	0.305170	0.887173
O34	O	0.846486	-0.361064	0.329838
O35	O	1.179819	-0.027731	0.663171
O36	O	1.513152	0.305603	0.996505
O37	O	0.952340	-0.465126	0.534630
O38	O	1.285673	-0.131793	0.867963
O39	O	1.619007	0.201541	1.201296
O40	O	0.842981	-0.455506	0.416131
O41	O	1.176314	-0.122173	0.749464
O42	O	1.509647	0.211160	1.082797
O43	O	1.038704	-0.377972	0.538122
O44	O	1.372038	-0.044639	0.871455
O45	O	1.705371	0.288694	1.204788
O46	O	1.046590	-0.580914	0.337850
O47	O	1.379923	-0.247581	0.671184
O48	O	1.713257	0.085753	1.004517
O49	O	0.956826	-0.580586	0.420689
O50	O	1.290160	-0.247253	0.754022
O51	O	1.623493	0.086081	1.087356
C52	C	0.819237	-0.407161	0.371959
C53	C	1.152570	-0.073827	0.705292
C54	C	1.485904	0.259506	1.038626
C55	C	0.741133	-0.403733	0.368833
C56	C	1.074466	-0.070400	0.702166
C57	C	1.407800	0.262933	1.035500
C58	C	1.001711	-0.607621	0.379280
C59	C	1.335044	-0.274288	0.712613
C60	C	1.668378	0.059045	1.045947
C61	C	1.001735	-0.689937	0.379296
C62	C	1.335068	-0.356604	0.712629
C63	C	1.668401	-0.023270	1.045962
C64	C	0.702636	-0.451363	0.412222
C65	C	1.035970	-0.118029	0.745555
C66	C	1.369303	0.215304	1.078889
C67	C	0.629249	-0.448133	0.409288
C68	C	0.962583	-0.114799	0.742622
C69	C	1.295916	0.218534	1.075955
C70	C	0.594361	-0.397276	0.362962
C71	C	0.927694	-0.063943	0.696295
C72	C	1.261027	0.269390	1.029628
C73	C	0.632863	-0.349642	0.319571
C74	C	0.966196	-0.016308	0.652905
C75	C	1.299529	0.317025	0.986238
C76	C	0.706248	-0.352869	0.322509
C77	C	1.039582	-0.019535	0.655842
C78	C	1.372915	0.313798	0.989176
C79	C	0.375075	-0.382341	0.349369
C80	C	0.708408	-0.049008	0.682702
C81	C	1.041742	0.284325	1.016036
C82	C	0.301684	-0.379119	0.346433
C83	C	0.635018	-0.045786	0.679766
C84	C	0.968351	0.287547	1.013100
C85	C	0.298076	-0.477610	0.436152
C86	C	0.631409	-0.144277	0.769485
C87	C	0.964743	0.189057	1.102818
C88	C	0.371463	-0.480836	0.439082
C89	C	0.704796	-0.147502	0.772415
C90	C	1.038130	0.185831	1.105749
C91	C	0.409959	-0.433198	0.395694
C92	C	0.743292	-0.099865	0.729028
C93	C	1.076625	0.233468	1.062361
N94	N	0.519348	-0.393975	0.359960
N95	N	0.852681	-0.060642	0.693294
N96	N	1.186014	0.272692	1.026627
N97	N	0.484970	-0.436497	0.398700
N98	N	0.818304	-0.103163	0.732033
N99	N	1.151637	0.230170	1.065366
C100	C	1.001887	-0.989036	0.379340
C101	C	1.335221	-0.655703	0.712673
C102	C	1.668554	-0.322370	1.046006
C103	C	0.945531	-0.957547	0.431600
C104	C	1.278864	-0.624213	0.764933
C105	C	1.612197	-0.290880	1.098266
C106	C	0.945280	-0.871910	0.431419
C107	C	1.278613	-0.538577	0.764752
C108	C	1.611947	-0.205244	1.098086
C109	C	1.001811	-0.840650	0.379319
C110	C	1.335145	-0.507316	0.712652
C111	C	1.668478	-0.173983	1.045985
C112	C	0.984741	-0.867911	0.304458
C113	C	1.318075	-0.534578	0.637791
C114	C	1.651408	-0.201244	0.971125
C115	C	0.984379	-0.953554	0.304770
C116	C	1.317712	-0.620221	0.638103
C117	C	1.651046	-0.286887	0.971436
C118	C	1.075459	-0.961424	0.401293
C119	C	1.408792	-0.628091	0.734627
C120	C	1.742125	-0.294757	1.067960
C121	C	1.074956	-0.875820	0.402900
C122	C	1.408289	-0.542486	0.736233
C123	C	1.741623	-0.209153	1.069567
C124	C	1.001770	-0.756788	0.379302
C125	C	1.335103	-0.423454	0.712635
C126	C	1.668437	-0.090121	1.045969
C127	C	1.001927	-1.072898	0.379351
C128	C	1.335260	-0.739565	0.712685
C129	C	1.668594	-0.406231	1.046018
C130	C	1.185084	-0.423303	0.386679
C131	C	1.518418	-0.089969	0.720013
C132	C	1.851751	0.243364	1.053346
C133	C	1.263188	-0.426749	0.389822
C134	C	1.596521	-0.093416	0.723155
C135	C	1.929854	0.239918	1.056489
C136	C	0.994474	-0.422606	0.562585
C137	C	1.327807	-0.089273	0.895918
C138	C	1.661141	0.244061	1.229251
C139	C	0.991350	-0.425755	0.640688
C140	C	1.324684	-0.092422	0.974021
C141	C	1.658017	0.240911	1.307355
C142	C	1.001916	-0.222060	0.379345
C143	C	1.335250	0.111273	0.712679
C144	C	1.668583	0.444606	1.046012
C145	C	1.001964	-0.139749	0.379363
C146	C	1.335297	0.193584	0.712696
C147	C	1.668631	0.526918	1.046029
C148	C	1.009146	-0.407803	0.196739
C149	C	1.342480	-0.074469	0.530072
C150	C	1.675813	0.258864	0.863406
C151	C	1.012406	-0.404451	0.118642
C152	C	1.345740	-0.071117	0.451975
C153	C	1.679073	0.262216	0.785308
C154	C	1.034846	-0.381860	0.679200
C155	C	1.368179	-0.048527	1.012533
C156	C	1.701512	0.284806	1.345867
C157	C	1.031902	-0.384816	0.752586
C158	C	1.365236	-0.051483	1.085919
C159	C	1.698569	0.281850	1.419253
C160	C	0.985466	-0.431671	0.787458
C161	C	1.318799	-0.098338	1.120792
C162	C	1.652133	0.234995	1.454125
C163	C	0.941966	-0.475568	0.748941
C164	C	1.275299	-0.142235	1.082274
C165	C	1.608632	0.191099	1.415608
C166	C	0.944906	-0.472608	0.675556
C167	C	1.278240	-0.139274	1.008890
C168	C	1.611573	0.194059	1.342223
C169	C	0.971847	-0.445387	1.006740
C170	C	1.305180	-0.112054	1.340073
C171	C	1.638513	0.221280	1.673406
C172	C	0.968911	-0.448346	1.080130
C173	C	1.302244	-0.115012	1.413463
C174	C	1.635577	0.218321	1.746796
C175	C	1.058847	-0.357593	1.083770
C176	C	1.392180	-0.024259	1.417103
C177	C	1.725513	0.309074	1.750436
C178	C	1.061786	-0.354640	1.010384
C179	C	1.395119	-0.021306	1.343717
C180	C	1.728453	0.312027	1.677050
C181	C	1.018283	-0.398533	0.971872
C182	C	1.351617	-0.065200	1.305206
C183	C	1.684950	0.268133	1.638539
N184	N	0.982458	-0.434696	0.862471
N185	N	1.315791	-0.101362	1.195804
N186	N	1.649124	0.231971	1.529137
N187	N	1.021289	-0.395505	0.896861
N188	N	1.354622	-0.062171	1.230195
N189	N	1.687955	0.271162	1.563528
H190	H	0.597908	-0.486918	0.444619
H191	H	0.931242	-0.153585	0.777953
H192	H	1.264575	0.179748	1.111286
C193	C	0.263308	-0.323170	0.295476
C194	C	0.596641	0.010163	0.628810
C195	C	0.929975	0.343496	0.962143
H196	H	0.296744	-0.295256	0.270061
H197	H	0.630077	0.038077	0.603395
H198	H	0.963411	0.371411	0.936728
H199	H	0.235888	-0.348951	0.263664
H200	H	0.569221	-0.015617	0.596998
H201	H	0.902554	0.317716	0.930331
H202	H	0.233623	-0.290778	0.321274
H203	H	0.566956	0.042555	0.654607
H204	H	0.900290	0.375889	0.987941
H205	H	0.399864	-0.522250	0.476804
H206	H	0.733198	-0.188917	0.810138
H207	H	1.066531	0.144417	1.143471
C208	C	1.132118	-0.988929	0.349877
C209	C	1.465452	-0.655596	0.683210
C210	C	1.798785	-0.322262	1.016544
H211	H	1.111081	-1.017115	0.315205
H212	H	1.444414	-0.683781	0.648539
H213	H	1.777747	-0.350448	0.981872
H214	H	1.153748	-0.947684	0.327915
H215	H	1.487081	-0.614350	0.661249
H216	H	1.820415	-0.281017	0.994582
H217	H	1.166469	-1.018951	0.374776
H218	H	1.499803	-0.685618	0.708109
H219	H	1.833136	-0.352285	1.041442
H220	H	1.091602	-0.985932	0.455108
H221	H	1.424935	-0.652599	0.788441
H222	H	1.758269	-0.319266	1.121775
C223	C	0.594491	-0.293698	0.268614
C224	C	0.927824	0.039636	0.601947
C225	C	1.261157	0.372969	0.935280
H226	H	0.627930	-0.265789	0.243198
H227	H	0.961264	0.067545	0.576532
H228	H	1.294597	0.400878	0.909865
H229	H	0.567070	-0.319478	0.236802
H230	H	0.900403	0.013855	0.570136
H231	H	1.233736	0.347188	0.903469
H232	H	0.564807	-0.261301	0.294407
H233	H	0.898140	0.072033	0.627740
H234	H	1.231473	0.405366	0.961074
C235	C	1.112860	-0.303095	0.972025
C236	C	1.446193	0.030238	1.305359
C237	C	1.779527	0.363571	1.638692
H238	H	1.108385	-0.307623	0.922804
H239	H	1.441718	0.025710	1.256138
H240	H	1.775052	0.359043	1.589471
H241	H	1.102123	-0.253370	0.983649
H242	H	1.435457	0.079963	1.316982
H243	H	1.768790	0.413296	1.650315
H244	H	1.159588	-0.316505	0.985951
H245	H	1.492921	0.016828	1.319285
H246	H	1.826254	0.350162	1.652618
H247	H	1.024629	-0.847532	0.264328
H248	H	1.357962	-0.514198	0.597662
H249	H	1.691295	-0.180865	0.930995
H250	H	0.931095	-0.486502	1.108520
H251	H	1.264428	-0.153169	1.441854
H252	H	1.597761	0.180164	1.775187
C253	C	1.079751	-0.336536	0.794947
C254	C	1.413084	-0.003202	1.128280
C255	C	1.746418	0.330131	1.461613
H256	H	1.107834	-0.308214	0.763668
H257	H	1.441167	0.025119	1.097001
H258	H	1.774501	0.358452	1.430335
H259	H	1.051747	-0.304235	0.822498
H260	H	1.385080	0.029099	1.155831
H261	H	1.718414	0.362432	1.489164
H262	H	1.109204	-0.367377	0.824801
H263	H	1.442538	-0.034043	1.158135
H264	H	1.775871	0.299290	1.491468
C265	C	1.106690	-0.309309	1.126133
C266	C	1.440023	0.024025	1.459466
C267	C	1.773357	0.357358	1.792799
H268	H	1.098286	-0.317776	1.174832
H269	H	1.431619	0.015558	1.508166
H270	H	1.764953	0.348891	1.841499
H271	H	1.154378	-0.321742	1.116006
H272	H	1.487712	0.011592	1.449340
H273	H	1.821045	0.344925	1.782673
H274	H	1.096910	-0.258611	1.113701
H275	H	1.430243	0.074722	1.447034
H276	H	1.763577	0.408056	1.780368
H277	H	0.931637	-0.843494	0.285943
H278	H	1.264970	-0.510161	0.619276
H279	H	1.598303	-0.176828	0.952609
H280	H	0.936434	-0.481139	0.975393
H281	H	1.269767	-0.147806	1.308726
H282	H	1.603100	0.185527	1.642060
H283	H	1.072661	-0.343708	0.650813
H284	H	1.405995	-0.010375	0.984146
H285	H	1.739328	0.322958	1.317479
H286	H	0.904154	-0.513715	0.777340
H287	H	1.237487	-0.180382	1.110673
H288	H	1.570821	0.152951	1.444006
C289	C	0.748595	-0.300475	0.274783
C290	C	1.081928	0.032858	0.608116
C291	C	1.415261	0.366192	0.941449
H292	H	0.717307	-0.269728	0.246768
H293	H	1.050641	0.063606	0.580101
H294	H	1.383974	0.396939	0.913434
H295	H	0.776164	-0.270599	0.302866
H296	H	1.109497	0.062734	0.636199
H297	H	1.442831	0.396067	0.969532
H298	H	0.778431	-0.328776	0.245260
H299	H	1.111764	0.004557	0.578594
H300	H	1.445097	0.337890	0.911927
C301	C	0.897079	-0.520911	0.633193
C302	C	1.230412	-0.187577	0.966527
C303	C	1.563745	0.145756	1.299860
H304	H	0.869011	-0.549250	0.664472
H305	H	1.202344	-0.215917	0.997805
H306	H	1.535677	0.117416	1.331138
H307	H	0.867621	-0.490092	0.603330
H308	H	1.200955	-0.156758	0.936663
H309	H	1.534288	0.176575	1.269997
H310	H	0.925105	-0.553207	0.605652
H311	H	1.258438	-0.219874	0.938985
H312	H	1.591772	0.113459	1.272319
H313	H	0.955734	-0.980878	0.487188
H314	H	1.289067	-0.647545	0.820521
H315	H	1.622401	-0.314211	1.153854
H316	H	1.087883	-0.858335	0.458008
H317	H	1.421216	-0.525002	0.791341
H318	H	1.754549	-0.191669	1.124674
H319	H	0.266725	-0.516393	0.471476
H320	H	0.600058	-0.183059	0.804810
H321	H	0.933392	0.150274	1.138143
C322	C	0.741007	-0.507305	0.463183
C323	C	1.074341	-0.173971	0.796516
C324	C	1.407674	0.159362	1.129849
H325	H	0.707566	-0.535203	0.488608
H326	H	1.040900	-0.201869	0.821941
H327	H	1.374233	0.131464	1.155274
H328	H	0.770693	-0.539701	0.437398
H329	H	1.104026	-0.206368	0.770731
H330	H	1.437360	0.126965	1.104064
H331	H	0.768426	-0.481516	0.494996
H332	H	1.101759	-0.148182	0.828329
H333	H	1.435092	0.185151	1.161662
C334	C	0.417412	-0.329955	0.301632
C335	C	0.750745	0.003378	0.634965
C336	C	1.084078	0.336712	0.968299
H337	H	0.386121	-0.299214	0.273614
H338	H	0.719454	0.034119	0.606948
H339	H	1.052788	0.367453	0.940281
H340	H	0.444986	-0.300072	0.329703
H341	H	0.778319	0.033261	0.663036
H342	H	1.111653	0.366595	0.996369
H343	H	0.447242	-0.358266	0.272112
H344	H	0.780575	-0.024932	0.605446
H345	H	1.113909	0.308401	0.938779
H346	H	0.955615	-0.853628	0.486834
H347	H	1.288948	-0.520295	0.820167
H348	H	1.622282	-0.186962	1.153501
C349	C	1.134362	-0.847411	0.355552
C350	C	1.467695	-0.514078	0.688886
C351	C	1.801028	-0.180744	1.022219
H352	H	1.177906	-0.869557	0.371008
H353	H	1.511239	-0.536224	0.704341
H354	H	1.844573	-0.202890	1.037675
H355	H	1.125971	-0.859969	0.308503
H356	H	1.459304	-0.526636	0.641836
H357	H	1.792638	-0.193302	0.975169
H358	H	1.135864	-0.795176	0.357944
H359	H	1.469197	-0.461842	0.691277
H360	H	1.802530	-0.128509	1.024611
C361	C	0.872222	-0.982759	0.411868
C362	C	1.205556	-0.649426	0.745202
C363	C	1.538889	-0.316092	1.078535
H364	H	0.875811	-1.012391	0.371919
H365	H	1.209144	-0.679057	0.705252
H366	H	1.542478	-0.345724	1.038586
H367	H	0.853394	-1.010822	0.450062
H368	H	1.186727	-0.677488	0.783396
H369	H	1.520061	-0.344155	1.116729
H370	H	0.842237	-0.940613	0.401435
H371	H	1.175571	-0.607279	0.734769
H372	H	1.508904	-0.273946	1.068102
C373	C	0.871534	-0.840347	0.411447
C374	C	1.204868	-0.507014	0.744780
C375	C	1.538201	-0.173681	1.078114
H376	H	0.841614	-0.879873	0.403406
H377	H	1.174947	-0.546540	0.736739
H378	H	1.508281	-0.213207	1.070073
H379	H	0.853133	-0.811991	0.448579
H380	H	1.186466	-0.478657	0.781913
H381	H	1.519800	-0.145324	1.115246
H382	H	0.874359	-0.809714	0.370019
H383	H	1.207692	-0.476380	0.703352
H384	H	1.541026	-0.143047	1.036686
C385	C	0.911846	-0.976521	0.280122
C386	C	1.245180	-0.643187	0.613456
C387	C	1.578513	-0.309854	0.946789
H388	H	0.882878	-0.933525	0.270017
H389	H	1.216211	-0.600192	0.603350
H390	H	1.549545	-0.266858	0.936684
H391	H	0.917100	-1.004259	0.239073
H392	H	1.250433	-0.670925	0.572406
H393	H	1.583767	-0.337592	0.905740
H394	H	0.890806	-1.005936	0.316083
H395	H	1.224139	-0.672602	0.649416
H396	H	1.557472	-0.339269	0.982750
C397	C	1.037629	-0.981489	0.250150
C398	C	1.370962	-0.648156	0.583483
C399	C	1.704296	-0.314823	0.916817
H400	H	1.059383	-0.940494	0.227865
H401	H	1.392717	-0.607161	0.561198
H402	H	1.726050	-0.273828	0.894532
H403	H	1.072309	-1.013029	0.272848
H404	H	1.405643	-0.679696	0.606182
H405	H	1.738976	-0.346363	0.939515
H406	H	1.014035	-1.008167	0.216026
H407	H	1.347368	-0.674834	0.549359
H408	H	1.680702	-0.341500	0.882693
