data_functionalizedCrystal
_audit_creation_method	'MofGen! by Chris Wilmer'
_symmetry_space_group_name_H-M	'P1'
_symmetry_Int_Tables_number	1
_symmetry_cell_setting	triclinic
loop_
_symmetry_equiv_pos_as_xyz
  x,y,z
_cell_length_a	16.992694
_cell_length_b	13.339070
_cell_length_c	15.455313
_cell_angle_alpha	93.394339
_cell_angle_beta	87.142206
_cell_angle_gamma	103.148759
loop_
_atom_site_label
_atom_site_type_symbol
_atom_site_fract_x
_atom_site_fract_y
_atom_site_fract_z
O1	O	1.090408	0.214131	-0.072012
O2	O	1.590408	0.714131	0.427988
O3	O	0.861603	0.211734	-0.072038
O4	O	1.361603	0.711734	0.427962
O5	O	0.949746	0.063546	-0.072026
O6	O	1.449746	0.563546	0.427974
O7	O	1.002265	0.362319	-0.072025
O8	O	1.502265	0.862319	0.427975
O9	O	0.944697	0.071983	0.072236
O10	O	1.444697	0.571983	0.572236
O11	O	0.856554	0.220171	0.072223
O12	O	1.356554	0.720171	0.572223
O13	O	1.085360	0.222568	0.072249
O14	O	1.585360	0.722568	0.572249
Cu15	Cu	0.970496	0.222140	0.085408
Cu16	Cu	1.470496	0.722140	0.585408
Cu17	Cu	0.976466	0.212163	-0.085197
Cu18	Cu	1.476466	0.712163	0.414803
O19	O	0.997216	0.370756	0.072237
O20	O	1.497216	0.870756	0.572237
C21	C	0.829195	0.212871	0.000089
C22	C	1.329195	0.712871	0.500089
C23	C	0.740151	0.203676	0.000079
C24	C	1.240151	0.703676	0.500079
C25	C	0.709211	0.292390	0.000080
C26	C	1.209211	0.792390	0.500080
C27	C	0.625543	0.283745	0.000092
C28	C	1.125543	0.783745	0.500092
C29	C	0.572817	0.186386	0.000097
C30	C	1.072817	0.686386	0.500097
C31	C	0.603762	0.097666	0.000099
C32	C	1.103762	0.597666	0.500099
C33	C	0.687429	0.106311	0.000093
C34	C	1.187429	0.606311	0.500093
C35	C	0.321423	0.150552	0.000120
C36	C	0.821423	0.650552	0.500120
C37	C	0.237751	0.141912	0.000123
C38	C	0.737751	0.641912	0.500123
C39	C	0.259538	0.327993	0.000118
C40	C	0.759538	0.827993	0.500118
C41	C	0.343205	0.336630	0.000107
C42	C	0.843205	0.836630	0.500107
C43	C	0.374143	0.247910	0.000114
C44	C	0.874143	0.747910	0.500114
N45	N	0.487295	0.177547	0.000107
N46	N	0.987295	0.677547	0.500107
N47	N	0.459663	0.256750	0.000110
N48	N	0.959663	0.756750	0.500110
C49	C	0.938350	0.029358	0.000103
C50	C	1.438350	0.529358	0.500103
C51	C	0.911906	-0.085082	0.000097
C52	C	1.411906	0.414918	0.500097
C53	C	1.117519	-0.433251	0.000120
C54	C	1.617519	0.066749	0.500120
C55	C	1.142367	-0.325728	0.000131
C56	C	1.642367	0.174272	0.500131
C57	C	1.084754	-0.265562	0.000122
C58	C	1.584754	0.234438	0.500122
C59	C	1.002289	-0.312927	0.000103
C60	C	1.502289	0.187073	0.500103
C61	C	0.977439	-0.420460	0.000099
C62	C	1.477439	0.079540	0.500099
C63	C	0.944673	-0.252771	0.000101
C64	C	1.444673	0.247229	0.500101
C65	C	0.862209	-0.300136	0.000081
C66	C	1.362209	0.199864	0.500081
C67	C	0.837363	-0.407658	0.000077
C68	C	1.337363	0.092342	0.500077
C69	C	0.894976	-0.467825	0.000086
C70	C	1.394976	0.032175	0.500086
C71	C	0.969524	-0.145238	0.000105
C72	C	1.469524	0.354762	0.500105
C73	C	0.829443	-0.132447	0.000083
C74	C	1.329443	0.367553	0.500083
C75	C	0.804596	-0.239969	0.000072
C76	C	1.304596	0.260031	0.500072
C77	C	1.117767	0.221431	0.000120
C78	C	1.617767	0.721431	0.500120
C79	C	1.206811	0.230626	0.000124
C80	C	1.706811	0.730626	0.500124
C81	C	1.008612	0.404944	0.000106
C82	C	1.508612	0.904944	0.500106
C83	C	1.035056	0.519384	0.000107
C84	C	1.535056	1.019384	0.500107
N85	N	0.966302	0.229157	0.205403
N86	N	1.466302	0.729157	0.705403
N87	N	0.980664	0.205137	-0.205192
N88	N	1.480664	0.705137	0.294808
C89	C	1.003772	0.166228	0.250803
C90	C	1.503772	0.666228	0.750803
C91	C	1.000610	0.171545	0.341610
C92	C	1.500610	0.671545	0.841610
C93	C	0.959983	0.239798	0.387017
C94	C	1.459983	0.739798	0.887017
C95	C	0.922508	0.302729	0.341611
C96	C	1.422508	0.802729	0.841611
C97	C	0.925665	0.297406	0.250805
C98	C	1.425665	0.797406	0.750805
C99	C	0.946347	0.262746	0.658596
C100	C	1.446347	0.762746	1.158596
C101	C	0.943195	0.268067	0.749408
C102	C	1.443195	0.768067	1.249408
C103	C	1.021296	0.136880	0.749401
C104	C	1.521296	0.636880	1.249401
C105	C	1.024454	0.131568	0.658594
C106	C	1.524454	0.631568	1.158594
C107	C	0.986976	0.194496	0.613196
C108	C	1.486976	0.694496	1.113196
N109	N	0.956752	0.245237	0.479836
N110	N	1.456752	0.745237	0.979836
N111	N	0.990202	0.189051	0.520378
N112	N	1.490202	0.689051	1.020378
H113	H	0.712618	0.034071	0.000092
H114	H	1.212618	0.534071	0.500092
H115	H	1.057536	0.075991	0.621626
H116	H	1.557536	0.575991	1.121626
C117	C	0.688478	-0.130602	0.000067
C118	C	1.188478	0.369398	0.500067
C119	C	0.766106	-0.066323	0.000074
C120	C	1.266106	0.433677	0.500074
H121	H	0.649381	-0.089773	0.000069
H122	H	1.149381	0.410227	0.500069
H123	H	0.683459	-0.175745	-0.050238
H124	H	1.183459	0.324255	0.449762
H125	H	0.679943	-0.169870	0.050377
H126	H	1.179943	0.330130	0.550377
H127	H	0.774644	-0.027061	-0.050240
H128	H	1.274644	0.472939	0.449760
H129	H	0.771127	-0.021163	0.050384
H130	H	1.271127	0.478837	0.550384
H131	H	1.036667	-0.106684	0.000121
H132	H	1.536667	0.393316	0.500121
C133	C	0.390080	0.493551	-0.074062
C134	C	0.890080	0.993551	0.425938
C135	C	0.401145	0.443661	0.000098
C136	C	0.901145	0.943661	0.500098
H137	H	0.425844	0.559632	-0.074068
H138	H	0.925844	1.059632	0.425932
H139	H	0.401078	0.453797	-0.124358
H140	H	0.901078	0.953797	0.375642
H141	H	0.335816	0.501072	-0.074046
H142	H	0.835816	1.001072	0.425954
H143	H	0.455408	0.436132	0.000079
H144	H	0.955408	0.936132	0.500079
H145	H	0.390153	0.483424	0.050407
H146	H	0.890153	0.983424	0.550407
H147	H	0.234339	0.400223	0.000115
H148	H	0.734339	0.900223	0.500115
H149	H	0.600356	0.355985	0.000092
H150	H	1.100356	0.855985	0.500092
C151	C	0.866282	0.397182	0.740299
C152	C	1.366282	0.897182	1.240299
C153	C	0.898519	0.343080	0.799321
C154	C	1.398519	0.843080	1.299321
H155	H	0.838697	0.443482	0.771115
H156	H	1.338697	0.943482	1.271115
H157	H	0.908790	0.434871	0.704877
H158	H	1.408790	0.934871	1.204877
H159	H	0.829483	0.349882	0.704886
H160	H	1.329483	0.849882	1.204886
H161	H	0.935323	0.390379	0.834731
H162	H	1.435323	0.890379	1.334731
H163	H	0.856005	0.305389	0.834758
H164	H	1.356005	0.805389	1.334758
H165	H	0.737451	-0.278550	0.000057
H166	H	1.237451	0.221450	0.500057
H167	H	1.036859	0.110654	0.213839
H168	H	1.536859	0.610654	0.713839
C169	C	0.128433	0.028583	0.074293
C170	C	0.628433	0.528583	0.574293
C171	C	0.179792	0.034887	0.000134
C172	C	0.679792	0.534887	0.500134
H173	H	0.092650	-0.037485	0.074294
H174	H	0.592650	0.462515	0.574294
H175	H	0.159771	0.038765	0.124590
H176	H	0.659771	0.538765	0.624590
H177	H	0.098037	0.080188	0.074279
H178	H	0.598037	0.580188	0.574279
H179	H	0.210193	-0.016713	0.000151
H180	H	0.710193	0.483287	0.500151
H181	H	0.148451	0.024694	-0.050176
H182	H	0.648451	0.524694	0.449824
H183	H	0.915833	0.313987	0.621640
H184	H	1.415833	0.813987	1.121640
C185	C	1.278329	-0.349180	0.000153
C186	C	1.778329	0.150820	0.500153
C187	C	1.233007	-0.273667	0.000149
C188	C	1.733007	0.226333	0.500149
H189	H	1.334289	-0.317037	0.000159
H190	H	1.834289	0.182963	0.500159
H191	H	1.263960	-0.387913	0.050453
H192	H	1.763960	0.112087	0.550453
H193	H	1.267482	-0.393793	-0.050162
H194	H	1.767482	0.106207	0.449838
H195	H	1.243849	-0.229059	0.050468
H196	H	1.743849	0.270941	0.550468
H197	H	1.247381	-0.234917	-0.050156
H198	H	1.747381	0.265083	0.449844
C199	C	1.084805	-0.112383	-0.074029
C200	C	1.584805	0.387617	0.425971
C201	C	1.112058	-0.147370	0.000134
C202	C	1.612058	0.352630	0.500134
H203	H	1.101660	-0.039413	-0.074018
H204	H	1.601660	0.460587	0.425982
H205	H	1.106823	-0.142002	-0.124323
H206	H	1.606823	0.357998	0.375677
H207	H	1.027448	-0.131994	-0.074033
H208	H	1.527448	0.368006	0.425967
H209	H	1.169416	-0.127766	0.000135
H210	H	1.669416	0.372234	0.500135
H211	H	1.090044	-0.117741	0.050441
H212	H	1.590044	0.382259	0.550441
C213	C	0.562026	-0.067939	-0.074056
C214	C	1.062026	0.432061	0.425944
C215	C	0.545809	-0.009356	0.000102
C216	C	1.045809	0.490644	0.500102
H217	H	0.526251	-0.134012	-0.074051
H218	H	1.026251	0.365988	0.425949
H219	H	0.554540	-0.034071	-0.124353
H220	H	1.054540	0.465929	0.375647
H221	H	0.616285	-0.075478	-0.074047
H222	H	1.116285	0.424522	0.425953
H223	H	0.491551	-0.001810	0.000091
H224	H	0.991551	0.498190	0.500091
H225	H	0.553288	-0.043232	0.050412
H226	H	1.053288	0.456768	0.550412
C227	C	1.173427	-0.565937	-0.074028
C228	C	1.673427	-0.065937	0.425972
C229	C	1.180840	-0.499386	0.000132
C230	C	1.680840	0.000614	0.500132
H231	H	1.212526	-0.606762	-0.074020
H232	H	1.712526	-0.106762	0.425980
H233	H	1.120764	-0.609525	-0.074029
H234	H	1.620764	-0.109525	0.425971
H235	H	1.181978	-0.526656	-0.124329
H236	H	1.681978	-0.026656	0.375671
H237	H	1.172283	-0.538668	0.050434
H238	H	1.672283	-0.038668	0.550434
H239	H	1.233516	-0.455793	0.000141
H240	H	1.733516	0.044207	0.500141
C241	C	1.028413	-0.035921	0.777362
C242	C	1.528413	0.464079	1.277362
C243	C	1.062477	0.067700	0.799305
C244	C	1.562477	0.567700	1.299305
H245	H	1.053839	-0.078634	0.808168
H246	H	1.553839	0.421366	1.308168
H247	H	0.972197	-0.050564	0.792254
H248	H	1.472197	0.449436	1.292254
H249	H	1.036114	-0.048844	0.716782
H250	H	1.536114	0.451156	1.216782
H251	H	1.054771	0.080625	0.859885
H252	H	1.554771	0.580625	1.359885
H253	H	1.118707	0.082348	0.784420
H254	H	1.618707	0.582348	1.284420
C255	C	0.818642	-0.614049	0.074218
C256	C	1.318642	-0.114049	0.574218
C257	C	0.867656	-0.586019	0.000070
C258	C	1.367656	-0.086019	0.500070
H259	H	0.801773	-0.687017	0.074202
H260	H	1.301773	-0.187017	0.574202
H261	H	0.848371	-0.589161	0.124522
H262	H	1.348371	-0.089161	0.624522
H263	H	0.772531	-0.584988	0.074208
H264	H	1.272531	-0.084988	0.574208
H265	H	0.913770	-0.615074	0.000083
H266	H	1.413770	-0.115074	0.500083
H267	H	0.837926	-0.610918	-0.050247
H268	H	1.337926	-0.110918	0.449753
C269	C	0.291472	-0.034246	0.000119
C270	C	0.791472	0.465754	0.500119
C271	C	0.355423	0.053031	0.000120
C272	C	0.855423	0.553031	0.500120
H273	H	0.312467	-0.094453	0.000114
H274	H	0.812467	0.405547	0.500114
H275	H	0.257540	-0.030802	0.050424
H276	H	0.757540	0.469198	0.550424
H277	H	0.261048	-0.036681	-0.050191
H278	H	0.761048	0.463319	0.449809
H279	H	0.385844	0.055470	0.050434
H280	H	0.885844	0.555470	0.550434
H281	H	0.389368	0.049586	-0.050190
H282	H	0.889368	0.549586	0.449810
H283	H	0.770215	-0.446220	0.000068
H284	H	1.270215	0.053780	0.500068
H285	H	1.031120	0.120303	0.378574
H286	H	1.531120	0.620303	0.878574
H287	H	0.889423	0.358298	0.378586
H288	H	1.389423	0.858298	0.878586
C289	C	0.918543	0.470210	0.222828
C290	C	1.418543	0.970210	0.722828
C291	C	0.884483	0.366584	0.200896
C292	C	1.384483	0.866584	0.700896
H293	H	0.893118	0.512914	0.192012
H294	H	1.393118	1.012914	0.692012
H295	H	0.910844	0.483142	0.283399
H296	H	1.410844	0.983142	0.783399
H297	H	0.974766	0.484853	0.207933
H298	H	1.474766	0.984853	0.707933
H299	H	0.828260	0.351938	0.215797
H300	H	1.328260	0.851938	0.715797
H301	H	0.892174	0.353646	0.140312
H302	H	1.392174	0.853646	0.640312
H303	H	0.752136	0.371670	0.000076
H304	H	1.252136	0.871670	0.500076
