data_functionalizedCrystal
_audit_creation_method	'MofGen! by Chris Wilmer'
_symmetry_space_group_name_H-M	'P1'
_symmetry_Int_Tables_number	1
_symmetry_cell_setting	triclinic
loop_
_symmetry_equiv_pos_as_xyz
  x,y,z
_cell_length_a	18.760487
_cell_length_b	12.970454
_cell_length_c	12.970454
_cell_angle_alpha	60.000265
_cell_angle_beta	90.035326
_cell_angle_gamma	60.020328
loop_
_atom_site_label
_atom_site_type_symbol
_atom_site_fract_x
_atom_site_fract_y
_atom_site_fract_z
Zr1	Zr	0.686685	1.128511	-0.134679
O2	O	0.572869	1.343601	-0.299403
O3	O	0.721576	0.913421	-0.084184
O4	O	0.721576	1.128511	-0.299273
O5	O	0.572870	1.128510	0.085353
O6	O	0.838879	1.128511	-0.299168
O7	O	0.572869	1.128511	-0.084314
O8	O	0.838879	0.743754	0.085587
O9	O	0.572869	1.513267	-0.299402
O10	O	0.823998	1.001890	-0.062569
O11	O	0.736457	1.001890	0.063974
O12	O	0.736457	1.255131	-0.189265
O13	O	0.648915	1.255130	-0.062722
Zr14	Zr	0.873771	1.128509	0.136087
Zr15	Zr	0.873770	1.128510	-0.134513
Zr16	Zr	0.686686	1.128509	0.135921
Zr17	Zr	0.686686	1.399108	-0.134677
Zr18	Zr	0.873770	0.857911	0.136085
O19	O	0.838880	1.343598	0.085592
O20	O	0.838879	1.343600	-0.299167
O21	O	0.572870	1.343599	0.085355
O22	O	0.987587	0.913419	0.300811
O23	O	0.987586	0.913421	-0.083947
O24	O	0.721577	0.913419	0.300574
O25	O	0.987587	1.128510	-0.083945
O26	O	0.838880	1.128508	0.300681
O27	O	0.721578	1.128508	0.300576
O28	O	0.987587	1.128509	0.085722
O29	O	0.721577	1.513266	-0.299270
O30	O	0.838879	0.743753	0.300677
O31	O	0.987587	0.743753	0.300810
O32	O	0.987586	0.743754	0.085719
O33	O	0.572870	1.513266	-0.084311
O34	O	0.721577	1.513265	-0.084179
O35	O	0.823999	1.001889	0.190673
O36	O	0.911541	1.001889	0.064130
O37	O	0.823999	1.255130	-0.062566
O38	O	0.736458	1.255129	0.063977
C39	C	0.780227	0.790033	0.000701
C40	C	0.780227	0.675158	0.000700
C41	C	0.546214	1.128510	0.000496
C42	C	0.466791	1.128510	0.000425
C43	C	0.085279	1.260704	-0.065211
C44	C	0.176678	0.996316	0.067063
C45	C	0.251300	0.996314	0.066954
C46	C	0.242914	1.128509	0.000761
C47	C	0.159906	1.260706	-0.065324
C48	C	0.334313	0.864120	0.133028
C49	C	0.408941	0.864112	0.132921
C50	C	0.400556	0.996309	0.066734
C51	C	0.317542	1.128511	0.000647
C52	C	0.309156	1.260705	-0.065546
C53	C	0.226142	1.392909	-0.131626
C54	C	0.151521	1.392902	-0.131511
C55	C	0.475177	0.996316	0.066619
C56	C	0.383783	1.260707	-0.065660
C57	C	1.014242	1.128509	0.000912
C58	C	1.093665	1.128509	0.000983
C59	C	0.780227	1.128512	-0.337775
C60	C	0.780227	1.128512	-0.452652
C61	C	0.780229	1.466986	0.000707
C62	C	0.780229	1.581862	0.000708
C63	C	0.780229	1.128508	0.339183
C64	C	0.780229	1.128508	0.454060
C65	C	1.014242	0.790033	0.000909
C66	C	1.093664	0.675157	0.000979
C67	C	0.780228	0.790032	0.339180
C68	C	0.780228	0.675155	0.454056
C69	C	1.014243	0.790031	0.339389
C70	C	1.093665	0.675155	0.454335
C71	C	0.546214	1.466988	-0.337981
C72	C	0.466791	1.581865	-0.452927
C73	C	0.546215	1.466987	0.000499
C74	C	0.466793	1.581863	0.000429
C75	C	0.780228	1.466988	-0.337772
C76	C	0.780228	1.581864	-0.452648
C77	C	1.085265	0.621211	-0.065135
C78	C	1.159883	0.513287	-0.065095
C79	C	1.242899	0.459305	0.001068
C80	C	1.251296	0.513263	0.067184
C81	C	1.176679	0.621191	0.067135
C82	C	1.176666	0.621208	0.442261
C83	C	1.251299	0.513284	0.550255
C84	C	1.242929	0.459302	0.670322
C85	C	1.159919	0.513260	0.682394
C86	C	1.085288	0.621189	0.574401
C87	C	0.383790	1.635825	-0.440853
C88	C	0.309157	1.743782	-0.548847
C89	C	0.317527	1.797770	-0.668914
C90	C	0.400537	1.743805	-0.680986
C91	C	0.475168	1.635857	-0.572993
C92	C	0.475191	1.635820	0.066532
C93	C	0.400573	1.743773	0.066462
C94	C	0.317557	1.797759	0.000295
C95	C	0.309160	1.743797	-0.065816
C96	C	0.383777	1.635853	-0.065752
H97	H	0.376944	1.368358	-0.119550
Br98	Br	0.587810	1.562632	-0.589402
H99	H	1.153029	0.469369	-0.118934
Br100	Br	0.372363	1.562631	-0.155466
H101	H	1.183529	0.665101	0.120981
H102	H	1.318883	0.469363	0.540404
H103	H	0.542780	1.591873	0.120421
Br104	Br	0.196512	1.816994	-0.532434
H105	H	1.318898	0.469295	0.121050
H106	H	1.153117	0.469292	0.780166
Br107	Br	1.344158	0.312829	0.001120
Br108	Br	1.188050	0.694453	0.279327
H109	H	0.256751	1.885667	-0.756839
Br110	Br	0.196488	1.817075	-0.155603
H111	H	0.183499	0.888690	0.120950
Br112	Br	0.972646	0.694383	0.590810
Br113	Br	0.214772	1.572310	-0.221462
H114	H	0.407427	1.787691	0.120302
Br115	Br	-0.027376	1.440115	-0.154875
Br116	Br	0.587830	0.816912	0.156276
Br117	Br	1.344224	0.312825	0.816873
H118	H	0.256806	1.885654	0.000254
H119	H	0.376958	1.591874	-0.343098
H120	H	0.407342	1.787776	-0.778757
H121	H	0.083927	1.500535	-0.185309
H122	H	0.341133	0.756494	0.186918
H123	H	0.476528	0.756464	0.186725
H124	H	1.017676	0.665162	-0.119028
