data_functionalizedCrystal
_audit_creation_method	'MofGen! by Chris Wilmer'
_symmetry_space_group_name_H-M	'P1'
_symmetry_Int_Tables_number	1
_symmetry_cell_setting	triclinic
loop_
_symmetry_equiv_pos_as_xyz
  x,y,z
_cell_length_a	19.077105
_cell_length_b	13.897448
_cell_length_c	13.897441
_cell_angle_alpha	89.972960
_cell_angle_beta	92.316997
_cell_angle_gamma	92.283920
loop_
_atom_site_label
_atom_site_type_symbol
_atom_site_fract_x
_atom_site_fract_y
_atom_site_fract_z
Zn1	Zn	1.076014	0.443332	0.604606
Zn2	Zn	1.075937	0.604646	0.443311
Zn3	Zn	0.958316	0.436881	0.436848
Zn4	Zn	0.958294	0.598094	0.598090
O5	O	1.017140	0.520738	0.520714
O6	O	1.174495	0.470172	0.588642
O7	O	1.060311	0.582434	0.307471
O8	O	0.973970	0.302757	0.459124
O9	O	1.174439	0.588689	0.470139
O10	O	1.060442	0.307496	0.582375
O11	O	0.973895	0.459177	0.302723
O12	O	0.859821	0.452824	0.452806
O13	O	0.973933	0.577523	0.733937
O14	O	0.859806	0.571267	0.571269
O15	O	1.060421	0.463819	0.738725
O16	O	1.060290	0.738757	0.463820
O17	O	0.973858	0.733943	0.577536
C18	C	0.834276	0.510635	0.510630
C19	C	0.756046	0.506337	0.506339
C20	C	0.719303	0.566077	0.565903
C21	C	0.645798	0.562025	0.561876
C22	C	0.609036	0.498237	0.498278
C23	C	0.645784	0.438490	0.438711
C24	C	0.719288	0.442538	0.442744
C25	C	0.389201	0.479504	0.479618
C26	C	0.315691	0.475463	0.475588
C27	C	0.315710	0.598997	0.598754
C28	C	0.389216	0.603043	0.602777
C29	C	0.425957	0.543293	0.543214
N30	N	0.533901	0.494096	0.494158
N31	N	0.501090	0.547430	0.547340
C32	C	1.017083	0.771349	0.520694
C33	C	1.017123	0.878566	0.520722
C34	C	1.017192	1.074864	0.520795
C35	C	1.017151	0.965630	0.520757
C36	C	1.200719	0.530881	0.530838
C37	C	1.278949	0.535203	0.535152
C38	C	1.017183	0.520660	0.772309
C39	C	1.017202	0.520626	0.879524
C40	C	1.017211	1.269149	0.520767
C41	C	1.017226	1.161936	0.520818
C42	C	1.017138	0.520749	0.270099
C43	C	1.017256	0.520518	0.162893
C44	C	1.017216	0.520600	0.966595
C45	C	1.017236	0.520557	1.075829
H46	H	0.419142	0.654989	0.654563
C47	C	0.623170	0.273849	0.390770
C48	C	0.605378	0.368369	0.368805
H49	H	0.598223	0.230561	0.347613
H50	H	0.672199	0.267717	0.384646
H51	H	0.611141	0.259164	0.454946
H52	H	0.617411	0.383057	0.304631
H53	H	0.556338	0.374505	0.374920
H54	H	0.749229	0.618024	0.617688
H55	H	0.285788	0.647641	0.647249
H56	H	0.285762	0.423508	0.423805
H57	H	0.419107	0.430858	0.431110
H58	H	0.749203	0.393886	0.394245
H59	H	0.615885	0.610673	0.610379
