data_functionalizedCrystal
_audit_creation_method	'MofGen! by Chris Wilmer'
_symmetry_space_group_name_H-M	'P1'
_symmetry_Int_Tables_number	1
_symmetry_cell_setting	triclinic
loop_
_symmetry_equiv_pos_as_xyz
  x,y,z
_cell_length_a	13.635800
_cell_length_b	17.253875
_cell_length_c	17.078481
_cell_angle_alpha	75.896683
_cell_angle_beta	80.693839
_cell_angle_gamma	77.341856
loop_
_atom_site_label
_atom_site_type_symbol
_atom_site_fract_x
_atom_site_fract_y
_atom_site_fract_z
V1	V	1.927965	0.111100	-0.254875
O2	O	1.987102	-0.005532	-0.242279
O3	O	1.842991	0.220478	-0.260581
O4	O	1.894487	0.109306	-0.362637
O5	O	1.935250	0.106409	-0.139516
V6	V	2.178856	0.097159	-0.240173
O7	O	2.038568	0.141679	-0.287127
O8	O	2.293353	0.066580	-0.207921
O9	O	2.152227	-0.012219	-0.234467
O10	O	2.178418	0.213791	-0.252769
O11	O	2.230270	0.101849	-0.355532
O12	O	2.100732	0.098953	-0.132411
V13	V	2.427965	0.111100	-0.254875
O14	O	2.487102	-0.005532	-0.242279
O15	O	2.342991	0.220478	-0.260581
O16	O	2.394487	0.109306	-0.362637
O17	O	2.435250	0.106409	-0.139516
V18	V	2.678856	0.097159	-0.240173
O19	O	2.538568	0.141679	-0.287127
O20	O	2.793353	0.066580	-0.207921
O21	O	2.652227	-0.012219	-0.234467
O22	O	2.678418	0.213791	-0.252769
O23	O	2.730270	0.101849	-0.355532
O24	O	2.600732	0.098953	-0.132411
C25	C	1.751007	0.247145	-0.258482
C26	C	1.722112	0.336562	-0.263866
C27	C	1.796950	0.382652	-0.270635
C28	C	1.769815	0.466672	-0.275705
C29	C	1.667842	0.504599	-0.274001
C30	C	1.592999	0.458503	-0.267233
C31	C	1.620135	0.374486	-0.262169
C32	C	2.075880	-0.038881	-0.236564
C33	C	2.094393	-0.128298	-0.231186
C34	C	2.196849	-0.632857	-0.192971
C35	C	2.179456	-0.548839	-0.198036
C36	C	2.187319	-0.495402	-0.273996
C37	C	2.212587	-0.525988	-0.344896
C38	C	2.229987	-0.610005	-0.339830
C39	C	2.137061	-0.242901	-0.297020
C40	C	2.119656	-0.158879	-0.302080
C41	C	2.086528	-0.181736	-0.155220
C42	C	2.103924	-0.265753	-0.150161
C43	C	2.129196	-0.296332	-0.221060
N44	N	2.169537	-0.409522	-0.279175
N45	N	2.146984	-0.382211	-0.215880
C46	C	1.816695	0.105333	-0.388664
C47	C	1.829562	0.104590	-0.476808
C48	C	2.251007	0.247145	-0.258482
C49	C	2.222112	0.336562	-0.263866
C50	C	1.924042	0.108256	-0.522532
C51	C	1.936127	0.107558	-0.605353
C52	C	1.853728	0.103199	-0.642450
C53	C	1.759241	0.099530	-0.596720
C54	C	1.747160	0.100222	-0.513899
C55	C	1.880379	0.100691	-0.889684
C56	C	1.892468	0.100001	-0.972511
C57	C	2.069353	0.108028	-0.981138
C58	C	2.057262	0.108725	-0.898317
C59	C	1.962778	0.105052	-0.852593
N60	N	1.866077	0.102487	-0.727107
N61	N	1.950431	0.105757	-0.767936
C62	C	2.010193	0.102929	-0.106380
C63	C	1.986948	0.103668	-0.018235
C64	C	2.316695	0.105333	-0.388664
C65	C	2.329562	0.104590	-0.476808
C66	C	2.575880	-0.038881	-0.236564
C67	C	2.594393	-0.128298	-0.231186
C68	C	2.510193	0.102929	-0.106380
C69	C	2.486948	0.103668	-0.018235
C70	C	2.424053	0.108248	-0.522517
C71	C	2.436160	0.107540	-0.605336
C72	C	2.353774	0.103179	-0.642447
C73	C	2.259277	0.099518	-0.596732
C74	C	2.247172	0.100220	-0.513913
C75	C	2.692049	-0.174387	-0.224419
C76	C	2.709455	-0.258406	-0.219352
C77	C	2.629205	-0.296334	-0.221059
C78	C	2.531541	-0.250239	-0.227824
C79	C	2.514135	-0.166222	-0.232884
C80	C	2.387107	0.108020	0.018856
C81	C	2.365253	0.108704	0.101680
C82	C	2.443240	0.105042	0.147410
C83	C	2.543090	0.100688	0.110314
C84	C	2.564944	0.099997	0.027493
H85	H	1.879987	0.351782	-0.272019
C86	C	1.801819	0.095202	-1.013314
N87	N	1.733545	0.091587	-1.044048
C88	C	2.168686	0.094631	-0.637547
N89	N	2.100463	0.090922	-0.668285
H90	H	2.425430	0.105615	0.214846
C91	C	2.143216	0.096211	-0.463645
N92	N	2.064911	0.093193	-0.425788
H93	H	2.757404	-0.143518	-0.223029
H94	H	2.788984	-0.295926	-0.213845
H95	H	1.645760	0.573012	-0.278125
H96	H	1.509971	0.489397	-0.265847
H97	H	1.830768	0.504191	-0.281213
H98	H	1.559187	0.336965	-0.256653
H99	H	1.803438	0.097729	-0.852471
C100	C	2.058753	-0.148093	-0.077234
N101	N	2.037843	-0.122753	-0.018492
H102	H	2.643392	-0.364746	-0.216937
C103	C	2.628867	0.096663	0.160630
N104	N	2.693472	0.093637	0.198529
C105	C	2.128314	-0.100099	-0.385646
N106	N	2.134835	-0.055826	-0.448584
C107	C	2.443274	-0.291972	-0.229699
N108	N	2.376794	-0.323408	-0.231114
C109	C	2.406705	-0.115531	-0.240339
N110	N	2.325784	-0.077354	-0.245955
H111	H	2.323592	0.111001	-0.018367
C112	C	2.255409	0.113508	0.142466
N113	N	2.172674	0.117131	0.173183
H114	H	2.146279	0.111017	-1.018375
H115	H	2.646245	0.096458	-0.002700
H116	H	2.190436	-0.676360	-0.131116
H117	H	2.158889	-0.523945	-0.140306
H118	H	2.157620	-0.267787	-0.354752
H119	H	2.363644	0.102607	-0.709884
H120	H	2.097524	-0.309257	-0.088306
H121	H	2.250568	-0.634902	-0.397559
C122	C	1.668628	0.094649	-0.637510
N123	N	1.600383	0.090946	-0.668227
C124	C	2.221223	-0.467204	-0.428454
N125	N	2.227720	-0.422928	-0.491392
H126	H	2.513110	0.110524	-0.642547
C127	C	1.643224	0.096192	-0.463604
N128	N	1.564937	0.093155	-0.425722
H129	H	1.991141	0.111811	-0.492335
H130	H	2.124362	0.112274	-0.868118
H131	H	2.013062	0.110539	-0.642577
H132	H	2.491146	0.111802	-0.492313
