data_functionalizedCrystal
_audit_creation_method	'MofGen! by Chris Wilmer'
_symmetry_space_group_name_H-M	'P1'
_symmetry_Int_Tables_number	1
_symmetry_cell_setting	triclinic
loop_
_symmetry_equiv_pos_as_xyz
  x,y,z
_cell_length_a	19.288840
_cell_length_b	19.288865
_cell_length_c	18.366186
_cell_angle_alpha	90.011479
_cell_angle_beta	90.016271
_cell_angle_gamma	83.131131
loop_
_atom_site_label
_atom_site_type_symbol
_atom_site_fract_x
_atom_site_fract_y
_atom_site_fract_z
O1	O	-0.921364	-0.086566	-0.060680
O2	O	-0.719101	-0.098273	-0.060655
O3	O	-0.826077	0.008712	-0.060654
O4	O	-0.814388	-0.193550	-0.060681
O5	O	-0.826059	0.008717	0.060446
O6	O	-0.719083	-0.098268	0.060444
O7	O	-0.921346	-0.086561	0.060420
Zn8	Zn	-0.820211	-0.092413	0.079659
Zn9	Zn	-0.820235	-0.092420	-0.079895
O10	O	-0.814370	-0.193545	0.060418
C11	C	-0.693215	-0.097896	-0.000102
C12	C	-0.616110	-0.096774	-0.000093
C13	C	-0.947232	-0.086937	-0.000135
C14	C	-1.024336	-0.088059	-0.000149
C15	C	-0.825692	0.034591	-0.000102
C16	C	-0.824563	0.111694	-0.000095
C17	C	-0.579917	-0.096238	-0.066106
C18	C	-0.507470	-0.095176	-0.066114
C19	C	-0.471221	-0.094636	-0.000106
C20	C	-0.507423	-0.095176	0.065915
C21	C	-0.579868	-0.096245	0.065922
C22	C	-0.361886	-0.052256	0.050461
C23	C	-0.289443	-0.051183	0.050451
C24	C	-0.247778	-0.091342	-0.000125
C25	C	-0.278565	-0.132566	-0.050703
C26	C	-0.351009	-0.133635	-0.050697
C27	C	-0.392667	-0.093477	-0.000107
C28	C	-0.133029	-0.089655	-0.066152
C29	C	-0.060580	-0.088598	-0.066158
C30	C	-0.060535	-0.088591	0.065874
C31	C	-0.132982	-0.089656	0.065878
C32	C	-0.169225	-0.090185	-0.000137
N33	N	-0.820200	-0.092408	0.188550
C34	C	-0.814755	-0.219424	-0.000135
C35	C	-0.815884	-0.296527	-0.000147
C36	C	-0.887331	0.156396	-0.000099
C37	C	-0.886270	0.228843	-0.000111
C38	C	-0.822438	0.256585	-0.000103
C39	C	-0.759661	0.211873	-0.000104
C40	C	-0.760723	0.139428	-0.000100
C41	C	-0.772251	0.364870	0.042321
C42	C	-0.771191	0.437314	0.042321
C43	C	-0.819158	0.480030	-0.000119
C44	C	-0.868196	0.450295	-0.042551
C45	C	-0.869259	0.377849	-0.042547
C46	C	-0.821278	0.335139	-0.000108
C47	C	-0.880781	0.603288	-0.000137
C48	C	-0.879717	0.675736	-0.000153
C49	C	-0.753106	0.658764	-0.000138
C50	C	-0.754171	0.586318	-0.000130
C51	C	-0.818010	0.558584	-0.000125
N52	N	-0.820252	-0.092420	-0.188786
C53	C	-0.867584	-0.045059	0.226651
C54	C	-0.867589	-0.045055	0.302879
C55	C	-0.820215	-0.092414	0.341003
C56	C	-0.772822	-0.139767	0.302893
C57	C	-0.772814	-0.139764	0.226666
C58	C	-0.810917	-0.155702	0.461755
C59	C	-0.810930	-0.155706	0.537980
C60	C	-0.820235	-0.092422	0.576110
C61	C	-0.829543	-0.029132	0.538006
C62	C	-0.829535	-0.029129	0.461780
C63	C	-0.820218	-0.092422	0.423658
C64	C	-0.867627	-0.045066	0.696866
C65	C	-0.867627	-0.045062	0.773096
C66	C	-0.772863	-0.139779	0.773108
C67	C	-0.772860	-0.139777	0.696880
C68	C	-0.820246	-0.092421	0.658764
H69	H	-0.609421	-0.096669	-0.119860
H70	H	-0.734278	-0.178336	0.665856
Br71	Br	-0.931933	0.019205	0.645136
Br72	Br	-0.967417	0.565645	-0.000124
Br73	Br	-0.708524	-0.204035	0.354629
Br74	Br	-0.011457	-0.087879	-0.155756
H75	H	-0.837112	0.022404	0.430759
H76	H	-0.395805	-0.019552	0.091649
H77	H	-0.930833	0.712132	-0.000160
Br78	Br	-0.392790	-0.189580	-0.119333
H79	H	-0.031022	-0.088156	0.119619
H80	H	-0.906167	-0.006497	0.195619
Br81	Br	-0.973970	0.118760	-0.000114
H82	H	-0.609336	-0.096683	0.119680
Br83	Br	-0.971462	0.289522	-0.000119
H84	H	-0.909186	0.353642	-0.077098
Br85	Br	-0.458230	-0.094452	0.155499
Br86	Br	-0.933300	0.508258	-0.100153
H87	H	-0.837120	0.022400	0.569050
Br88	Br	-0.708563	-0.204044	0.824841
H89	H	-0.162538	-0.090093	-0.119905
H90	H	-0.244641	-0.165270	-0.091885
Br91	Br	-0.798306	-0.241599	0.589685
H92	H	-0.701132	0.681351	-0.000136
H93	H	-0.709608	0.103030	-0.000096
Br94	Br	-0.707148	0.306904	0.099925
H95	H	-0.731258	0.461518	0.076868
H96	H	-0.703058	0.549920	-0.000122
H97	H	-0.707687	0.234465	-0.000099
Br98	Br	-0.182106	-0.090382	0.155472
H99	H	-0.906176	-0.006496	0.333907
Br100	Br	-0.931933	0.019209	0.824809
H101	H	-0.803327	-0.207239	0.430716
H102	H	-0.734228	-0.178322	0.195644
H103	H	-0.477995	-0.094741	-0.119872
Br104	Br	-0.247666	0.004745	0.119106
