data_functionalizedCrystal
_audit_creation_method	'MofGen! by Chris Wilmer'
_symmetry_space_group_name_H-M	'P1'
_symmetry_Int_Tables_number	1
_symmetry_cell_setting	triclinic
loop_
_symmetry_equiv_pos_as_xyz
  x,y,z
_cell_length_a	29.839135
_cell_length_b	18.050589
_cell_length_c	18.050582
_cell_angle_alpha	89.981795
_cell_angle_beta	89.981854
_cell_angle_gamma	90.030751
loop_
_atom_site_label
_atom_site_type_symbol
_atom_site_fract_x
_atom_site_fract_y
_atom_site_fract_z
Zn1	Zn	0.686773	-0.295656	-0.419999
Zn2	Zn	0.686719	-0.419840	-0.295818
Zn3	Zn	0.611652	-0.295674	-0.295816
Zn4	Zn	0.611620	-0.419815	-0.419960
O5	O	0.649191	-0.357746	-0.357898
O6	O	0.749633	-0.312133	-0.403543
O7	O	0.676751	-0.403387	-0.191893
O8	O	0.621653	-0.191747	-0.312305
O9	O	0.749593	-0.403370	-0.312309
O10	O	0.676843	-0.191734	-0.403541
O11	O	0.621600	-0.312162	-0.191892
O12	O	0.548781	-0.312138	-0.312267
O13	O	0.621599	-0.403327	-0.523890
O14	O	0.548758	-0.403344	-0.403475
O15	O	0.676813	-0.312109	-0.523918
O16	O	0.676721	-0.523761	-0.312271
O17	O	0.621547	-0.523743	-0.403477
C18	C	0.532468	-0.357740	-0.357867
C19	C	0.482534	-0.357756	-0.357871
C20	C	0.649137	-0.550698	-0.357886
C21	C	0.649155	-0.633244	-0.357906
C22	C	0.619180	-0.832712	-0.407486
C23	C	0.608232	-0.882146	-0.339718
C24	C	0.649199	-0.784374	-0.357915
C25	C	0.660169	-0.882021	-0.425691
C26	C	0.649241	-0.930359	-0.357931
C27	C	0.638229	-0.832722	-0.290111
C28	C	0.690185	-0.832593	-0.376130
C29	C	0.679252	-0.882005	-0.308315
C30	C	0.649174	-0.700276	-0.357907
C31	C	0.649266	-1.014456	-0.357931
C32	C	0.172908	-0.310311	-0.405474
C33	C	-0.014765	-0.310316	-0.405495
O34	O	-0.039015	-0.269960	-0.445935
N35	N	-0.038251	-0.357747	-0.357926
C36	C	-0.014816	-0.405176	-0.310344
O37	O	-0.039099	-0.445514	-0.269878
C38	C	0.172856	-0.405167	-0.310319
C39	C	0.196340	-0.357738	-0.357898
C40	C	0.196392	-0.262886	-0.453048
C41	C	0.243308	-0.262888	-0.453045
C42	C	0.266739	-0.310315	-0.405469
C43	C	0.243255	-0.357740	-0.357895
C44	C	0.196290	-0.452592	-0.262734
C45	C	0.243211	-0.452584	-0.262731
C46	C	0.266695	-0.405156	-0.310309
C47	C	0.313602	-0.405170	-0.310315
N48	N	0.337088	-0.357739	-0.357885
C49	C	0.313657	-0.310312	-0.405462
C50	C	-0.113347	-0.405179	-0.310361
C51	C	-0.160265	-0.405182	-0.310368
C52	C	-0.160210	-0.310321	-0.405519
C53	C	-0.113291	-0.310322	-0.405515
C54	C	-0.089861	-0.357748	-0.357931
C55	C	0.412183	-0.310320	-0.405452
C56	C	0.459102	-0.310329	-0.405447
C57	C	0.459044	-0.405187	-0.310294
C58	C	0.412128	-0.405181	-0.310301
C59	C	0.388699	-0.357742	-0.357883
O60	O	0.337881	-0.445499	-0.269891
O61	O	0.337948	-0.269969	-0.445910
C62	C	0.125993	-0.310309	-0.405477
C63	C	0.102509	-0.357734	-0.357903
C64	C	0.125940	-0.405162	-0.310327
C65	C	0.055591	-0.357738	-0.357910
C66	C	0.032159	-0.310310	-0.405487
C67	C	0.055646	-0.262880	-0.453057
C68	C	0.102561	-0.262882	-0.453054
C69	C	0.102454	-0.452592	-0.262757
C70	C	0.055539	-0.452587	-0.262764
C71	C	0.032107	-0.405160	-0.310341
C72	C	0.766369	-0.357752	-0.357931
C73	C	0.816304	-0.357755	-0.357944
C74	C	0.649209	-0.357713	-0.551604
C75	C	0.649216	-0.357699	-0.634150
C76	C	0.649258	-0.164041	-0.357927
C77	C	0.649286	-0.081495	-0.357939
C78	C	0.619214	-0.407236	-0.833585
C79	C	0.660201	-0.425387	-0.882982
C80	C	0.649238	-0.357642	-0.785280
C81	C	0.608274	-0.339471	-0.882966
C82	C	0.649256	-0.357589	-0.931266
C83	C	0.690247	-0.375828	-0.833590
C84	C	0.638292	-0.289882	-0.833569
C85	C	0.679307	-0.308007	-0.882943
C86	C	0.649227	-0.357675	-0.701182
C87	C	0.649271	-0.357556	-1.015362
C88	C	0.649199	-0.357725	-0.164946
C89	C	0.649279	-0.357530	-0.082401
H90	H	0.593757	-0.811067	-0.449347
H91	H	0.036422	-0.491216	-0.224021
O92	O	0.566878	-0.908082	-0.321461
C93	C	0.535306	-0.882957	-0.373841
H94	H	0.553146	-0.869045	-0.427945
H95	H	0.509380	-0.928189	-0.384215
H96	H	0.517861	-0.831323	-0.351721
H97	H	0.262424	-0.224265	-0.491787
H98	H	0.669431	-0.903677	-0.483003
H99	H	-0.179381	-0.443812	-0.271633
O100	O	0.588901	-0.457228	-0.807688
C101	C	0.556370	-0.420350	-0.764703
H102	H	0.555007	-0.359515	-0.781528
H103	H	0.522203	-0.446969	-0.774248
H104	H	0.565595	-0.424744	-0.703575
O105	O	0.173434	-0.498559	-0.216479
C106	C	0.146307	-0.456210	-0.168573
H107	H	0.139297	-0.399970	-0.194866
H108	H	0.113305	-0.486451	-0.158563
H109	H	0.164383	-0.447966	-0.113554
O110	O	0.265901	-0.498729	-0.216485
C111	C	0.235109	-0.540573	-0.174485
H112	H	0.201670	-0.543182	-0.204904
H113	H	0.248641	-0.599077	-0.166461
H114	H	0.230116	-0.513298	-0.118129
O115	O	0.627055	-0.806966	-0.221766
C116	C	0.587912	-0.763555	-0.226922
H117	H	0.568373	-0.779984	-0.278636
H118	H	0.566215	-0.773068	-0.175800
H119	H	0.597496	-0.702511	-0.230500
O120	O	0.389382	-0.451283	-0.264022
C121	C	0.420127	-0.493161	-0.222047
H122	H	0.453582	-0.462741	-0.219528
H123	H	0.406558	-0.501004	-0.163521
H124	H	0.425102	-0.549601	-0.249150
H125	H	0.573623	-0.324124	-0.904655
H126	H	0.629011	-0.232617	-0.811849
O127	O	0.671186	-0.493765	-0.908846
C128	C	0.639445	-0.545916	-0.883688
H129	H	0.606741	-0.516386	-0.869820
H130	H	0.633137	-0.588770	-0.928882
H131	H	0.652790	-0.574765	-0.832020
O132	O	0.731625	-0.394098	-0.807866
C133	C	0.763256	-0.342053	-0.833617
H134	H	0.745507	-0.287961	-0.847768
H135	H	0.789316	-0.331488	-0.788670
H136	H	0.780522	-0.364626	-0.885233
O137	O	0.389448	-0.264322	-0.451782
C138	C	0.400938	-0.280652	-0.525766
H139	H	0.413813	-0.339988	-0.529405
H140	H	0.370096	-0.274304	-0.562478
H141	H	0.428193	-0.240869	-0.545241
H142	H	0.704656	-0.903513	-0.266353
O143	O	0.125321	-0.216842	-0.499372
C144	C	0.113872	-0.233188	-0.573362
H145	H	0.079800	-0.261747	-0.574850
H146	H	0.112285	-0.179635	-0.606752
H147	H	0.140273	-0.271396	-0.598314
H148	H	0.724818	-0.810812	-0.391555
H149	H	0.177319	-0.224261	-0.491791
H150	H	0.478221	-0.271706	-0.444194
H151	H	-0.094274	-0.443802	-0.271610
O152	O	0.709675	-0.257938	-0.908514
C153	C	0.731109	-0.223405	-0.848084
H154	H	0.728733	-0.260719	-0.797268
H155	H	0.767852	-0.213355	-0.862222
H156	H	0.714077	-0.168216	-0.835896
O157	O	0.125142	-0.498738	-0.216516
C158	C	0.094347	-0.540581	-0.174522
H159	H	0.060909	-0.543184	-0.204944
H160	H	0.107876	-0.599087	-0.166502
H161	H	0.089353	-0.513310	-0.118165
O162	O	-0.090550	-0.264178	-0.451754
C163	C	-0.121298	-0.222338	-0.493760
H164	H	-0.154749	-0.219731	-0.463347
H165	H	-0.107727	-0.163834	-0.501784
H166	H	-0.126283	-0.249616	-0.550116
O167	O	-0.183025	-0.264350	-0.451770
C168	C	-0.210158	-0.306697	-0.499682
H169	H	-0.217206	-0.362946	-0.473401
H170	H	-0.243141	-0.276466	-0.509679
H171	H	-0.192069	-0.314922	-0.554705
O172	O	0.481879	-0.451184	-0.264102
C173	C	0.528325	-0.441019	-0.274318
H174	H	0.534751	-0.383742	-0.298745
H175	H	0.546145	-0.445969	-0.218681
H176	H	0.541635	-0.485127	-0.313786
O177	O	0.032830	-0.216911	-0.499310
C178	C	0.005695	-0.259262	-0.547215
H179	H	-0.001352	-0.315509	-0.520929
H180	H	-0.027288	-0.229031	-0.557213
H181	H	0.023783	-0.267491	-0.602240
