data_functionalizedCrystal
_audit_creation_method	'MofGen! by Chris Wilmer'
_symmetry_space_group_name_H-M	'P1'
_symmetry_Int_Tables_number	1
_symmetry_cell_setting	triclinic
loop_
_symmetry_equiv_pos_as_xyz
  x,y,z
_cell_length_a	19.288864
_cell_length_b	19.288865
_cell_length_c	17.766277
_cell_angle_alpha	89.988397
_cell_angle_beta	89.976791
_cell_angle_gamma	83.136245
loop_
_atom_site_label
_atom_site_type_symbol
_atom_site_fract_x
_atom_site_fract_y
_atom_site_fract_z
O1	O	0.921353	0.086649	-0.062844
O2	O	1.421353	0.586649	0.437156
O3	O	0.719092	0.098337	-0.062794
O4	O	1.219092	0.598337	0.437206
O5	O	0.826067	-0.008637	-0.062806
O6	O	1.326067	0.491363	0.437194
O7	O	0.814378	0.193623	-0.062832
O8	O	1.314378	0.693623	0.437168
O9	O	0.826048	-0.008643	0.062383
O10	O	1.326048	0.491357	0.562383
O11	O	0.719074	0.098332	0.062395
O12	O	1.219074	0.598332	0.562395
O13	O	0.921334	0.086643	0.062344
O14	O	1.421334	0.586643	0.562344
Cu15	Cu	0.820202	0.092487	0.073800
Cu16	Cu	1.320202	0.592487	0.573800
Cu17	Cu	0.820224	0.092494	-0.074250
Cu18	Cu	1.320224	0.592494	0.425750
O19	O	0.814360	0.193618	0.062356
O20	O	1.314360	0.693618	0.562356
C21	C	0.693207	0.097959	-0.000193
C22	C	1.193207	0.597959	0.499807
C23	C	0.616103	0.096830	-0.000173
C24	C	1.116103	0.596830	0.499827
C25	C	0.571407	0.159598	-0.000193
C26	C	1.071407	0.659598	0.499807
C27	C	0.498960	0.158537	-0.000201
C28	C	0.998960	0.658537	0.499799
C29	C	0.471212	0.094705	-0.000205
C30	C	0.971212	0.594705	0.499795
C31	C	0.515918	0.031929	-0.000180
C32	C	1.015918	0.531929	0.499820
C33	C	0.588364	0.032991	-0.000164
C34	C	1.088364	0.532991	0.499836
C35	C	0.362957	0.044527	-0.044082
C36	C	0.862957	0.544527	0.455918
C37	C	0.290512	0.043468	-0.044103
C38	C	0.790512	0.543468	0.455897
C39	C	0.247767	0.091425	-0.000250
C40	C	0.747767	0.591425	0.499750
C41	C	0.277473	0.140454	0.043614
C42	C	0.777473	0.640454	0.543614
C43	C	0.349918	0.141517	0.043630
C44	C	0.849918	0.641517	0.543630
C45	C	0.392658	0.093546	-0.000221
C46	C	0.892658	0.593546	0.499779
C47	C	0.124514	0.153047	-0.000278
C48	C	0.624514	0.653047	0.499722
C49	C	0.052066	0.151984	-0.000281
C50	C	0.552066	0.651984	0.499719
C51	C	0.069026	0.025374	-0.000267
C52	C	0.569026	0.525374	0.499733
C53	C	0.141473	0.026439	-0.000256
C54	C	0.641473	0.526439	0.499744
C55	C	0.169212	0.090278	-0.000265
C56	C	0.669212	0.590278	0.499735
C57	C	0.825682	-0.034516	-0.000209
C58	C	1.325682	0.465484	0.499791
C59	C	0.824553	-0.111620	-0.000202
C60	C	1.324553	0.388380	0.499798
C61	C	0.887321	-0.156316	-0.000214
C62	C	1.387321	0.343684	0.499786
C63	C	0.886260	-0.228763	-0.000226
C64	C	1.386260	0.271237	0.499774
C65	C	0.822428	-0.256511	-0.000210
C66	C	1.322428	0.243489	0.499790
C67	C	0.759652	-0.211805	-0.000203
C68	C	1.259652	0.288195	0.499797
C69	C	0.760714	-0.139359	-0.000198
C70	C	1.260714	0.360641	0.499802
C71	C	0.772242	-0.364800	0.043653
C72	C	1.272242	0.135200	0.543653
C73	C	0.771182	-0.437245	0.043654
C74	C	1.271182	0.062755	0.543654
C75	C	0.819148	-0.479956	-0.000226
C76	C	1.319148	0.020044	0.499774
C77	C	0.868186	-0.450216	-0.044097
C78	C	1.368186	0.049784	0.455903
C79	C	0.869249	-0.377771	-0.044093
C80	C	1.369249	0.122229	0.455907
C81	C	0.821269	-0.335065	-0.000215
C82	C	1.321269	0.164935	0.499785
C83	C	0.880770	-0.603209	-0.000252
C84	C	1.380770	-0.103209	0.499748
C85	C	0.879707	-0.675657	-0.000268
C86	C	1.379707	-0.175657	0.499732
C87	C	0.753097	-0.658697	-0.000238
C88	C	1.253097	-0.158697	0.499762
C89	C	0.754162	-0.586250	-0.000229
C90	C	1.254162	-0.086250	0.499771
C91	C	0.818001	-0.558511	-0.000232
C92	C	1.318001	-0.058511	0.499768
C93	C	0.947220	0.087022	-0.000258
C94	C	1.447220	0.587022	0.499742
C95	C	1.024324	0.088151	-0.000283
C96	C	1.524324	0.588151	0.499717
C97	C	0.814745	0.219497	-0.000242
C98	C	1.314745	0.719497	0.499758
C99	C	0.815874	0.296601	-0.000254
C100	C	1.315874	0.796601	0.499746
N101	N	0.820192	0.092482	0.177931
N102	N	1.320192	0.592482	0.677931
N103	N	0.820241	0.092493	-0.178380
N104	N	1.320241	0.592493	0.321620
C105	C	0.867575	0.045137	0.217312
C106	C	1.367575	0.545137	0.717312
C107	C	0.867579	0.045134	0.296114
C108	C	1.367579	0.545134	0.796114
C109	C	0.820206	0.092488	0.335531
C110	C	1.320206	0.592488	0.835531
C111	C	0.772814	0.139837	0.296140
C112	C	1.272814	0.639837	0.796140
C113	C	0.772807	0.139834	0.217340
C114	C	1.272807	0.639834	0.717340
C115	C	0.810908	0.155775	0.460362
C116	C	1.310908	0.655775	0.960362
C117	C	0.810920	0.155779	0.539161
C118	C	1.310920	0.655779	1.039161
C119	C	0.820225	0.092496	0.578577
C120	C	1.320225	0.592496	1.078577
C121	C	0.829533	0.029207	0.539185
C122	C	1.329533	0.529207	1.039185
C123	C	0.829525	0.029204	0.460385
C124	C	1.329525	0.529204	0.960385
C125	C	0.820209	0.092496	0.420977
C126	C	1.320209	0.592496	0.920977
C127	C	0.867616	0.045143	0.703405
C128	C	1.367616	0.545143	1.203405
C129	C	0.867615	0.045139	0.782208
C130	C	1.367615	0.545139	1.282208
C131	C	0.772853	0.139848	0.782233
C132	C	1.272853	0.639848	1.282233
C133	C	0.772850	0.139846	0.703431
C134	C	1.272850	0.639846	1.203431
C135	C	0.820235	0.092495	0.664022
C136	C	1.320235	0.592495	1.164022
H137	H	0.015674	0.203099	-0.000293
H138	H	0.515674	0.703099	0.499707
C139	C	0.691666	-0.090191	-0.000178
C140	C	1.191666	0.409809	0.499822
H141	H	0.653497	-0.117090	-0.000167
H142	H	1.153497	0.382910	0.499833
H143	H	0.689456	-0.061564	-0.043829
H144	H	1.189456	0.438436	0.456171
H145	H	0.689445	-0.061592	0.043489
H146	H	1.189445	0.438408	0.543489
H147	H	0.733180	-0.330029	0.079389
H148	H	1.233180	0.169971	0.579389
H149	H	0.932751	-0.580622	-0.000258
H150	H	1.432751	-0.080622	0.499742
H151	H	0.734278	0.178402	0.814325
H152	H	1.234278	0.678402	1.314325
H153	H	0.707679	-0.234401	-0.000192
H154	H	1.207679	0.265599	0.499808
C155	C	0.923178	-0.345058	-0.092354
C156	C	1.423178	0.154942	0.407646
H157	H	0.951592	-0.380866	-0.118495
H158	H	1.451592	0.119134	0.381505
H159	H	0.951634	-0.320557	-0.060743
H160	H	1.451634	0.179443	0.439257
H161	H	0.899575	-0.313575	-0.127615
H162	H	1.399575	0.186425	0.372385
H163	H	0.493322	-0.020044	-0.000193
H164	H	0.993322	0.479956	0.499807
C165	C	0.720735	0.191934	0.660109
C166	C	1.220735	0.691934	1.160109
H167	H	0.692525	0.220141	0.694868
H168	H	1.192525	0.720141	1.194868
H169	H	0.691899	0.167023	0.629389
H170	H	1.191899	0.667023	1.129389
H171	H	0.745632	0.220786	0.629350
H172	H	1.245632	0.720786	1.129350
C173	C	0.920956	-0.497187	-0.092366
C174	C	1.420956	0.002813	0.407634
H175	H	0.950315	-0.469100	-0.118485
H176	H	1.450315	0.030900	0.381515
H177	H	0.896538	-0.522224	-0.127632
H178	H	1.396538	-0.022224	0.372368
H179	H	0.948583	-0.529211	-0.060747
H180	H	1.448583	-0.029211	0.439253
C181	C	0.038516	-0.044842	-0.000267
C182	C	0.538516	0.455158	0.499733
H183	H	0.075515	-0.082074	-0.000250
H184	H	0.575515	0.417926	0.499750
H185	H	0.010629	-0.047889	-0.043926
H186	H	0.510629	0.452111	0.456074
H187	H	0.010587	-0.047888	0.043391
H188	H	0.510587	0.452112	0.543391
C189	C	0.839753	-0.040407	0.417054
C190	C	1.339753	0.459593	0.917054
H191	H	0.845391	-0.078097	0.451808
H192	H	1.345391	0.421903	0.951808
H193	H	0.880138	-0.041875	0.386207
H194	H	1.380138	0.458125	0.886207
H195	H	0.800024	-0.044198	0.386423
H196	H	1.300024	0.455802	0.886423
H197	H	0.803345	0.207313	0.571228
H198	H	1.303345	0.707313	1.071228
H199	H	0.397755	0.005473	-0.079797
H200	H	0.897755	0.505473	0.420203
H201	H	0.734220	0.178389	0.185274
H202	H	1.234220	0.678389	0.685274
H203	H	0.906198	0.006585	0.671317
H204	H	1.406198	0.506585	1.171317
H205	H	0.624756	-0.018124	-0.000148
H206	H	1.124756	0.481876	0.499852
H207	H	0.939303	-0.133736	-0.000220
H208	H	1.439303	0.366264	0.499780
C209	C	0.948755	-0.724823	-0.000280
C210	C	1.448755	-0.224823	0.499720
H211	H	0.986924	-0.697924	-0.000274
H212	H	1.486924	-0.197924	0.499726
H213	H	0.950985	-0.753427	-0.043938
H214	H	1.450985	-0.253427	0.456062
H215	H	0.950959	-0.753446	0.043379
H216	H	1.450959	-0.253446	0.543379
C217	C	0.682883	-0.689210	-0.000223
C218	C	1.182883	-0.189210	0.499777
H219	H	0.691238	-0.738758	-0.000224
H220	H	1.191238	-0.238758	0.499776
H221	H	0.657053	-0.673842	-0.043872
H222	H	1.157053	-0.173842	0.456128
H223	H	0.657041	-0.673865	0.043446
H224	H	1.157041	-0.173865	0.543446
C225	C	0.685116	-0.537082	-0.000203
C226	C	1.185116	-0.037082	0.499797
H227	H	0.646947	-0.563981	-0.000189
H228	H	1.146947	-0.063981	0.499811
H229	H	0.682903	-0.508456	-0.043855
H230	H	1.182903	-0.008456	0.456145
H231	H	0.682896	-0.508482	0.043463
H232	H	1.182896	-0.008482	0.543463
H233	H	0.906158	0.006579	0.185228
H234	H	1.406158	0.506579	0.685228
C235	C	0.190644	-0.042605	-0.000245
C236	C	0.690644	0.457395	0.499755
H237	H	0.237763	-0.032830	-0.000231
H238	H	0.737763	0.467170	0.499769
H239	H	0.182279	-0.068787	-0.043901
H240	H	0.682279	0.431213	0.456099
H241	H	0.182232	-0.068790	0.043417
H242	H	0.682232	0.431210	0.543417
C243	C	0.919705	-0.006944	0.339447
C244	C	1.419705	0.493056	0.839447
H245	H	0.912919	-0.000161	0.392021
H246	H	1.412919	0.499839	0.892021
H247	H	0.966032	0.000485	0.326505
H248	H	1.466032	0.500485	0.826505
H249	H	0.912309	-0.053288	0.326553
H250	H	1.412309	0.446712	0.826553
C251	C	0.257842	-0.010463	-0.092346
C252	C	0.757842	0.489537	0.407654
H253	H	0.293675	-0.038882	-0.118450
H254	H	0.793675	0.461118	0.381550
H255	H	0.226384	0.013130	-0.127627
H256	H	0.726384	0.513130	0.372373
H257	H	0.233321	-0.038923	-0.060719
H258	H	0.733321	0.461077	0.439281
H259	H	0.731249	-0.461453	0.079371
H260	H	1.231249	0.038547	0.579371
C261	C	0.800676	0.225391	0.417011
C262	C	1.300676	0.725391	0.917011
H263	H	0.795146	0.263083	0.451756
H264	H	1.295146	0.763083	0.951756
H265	H	0.760228	0.226904	0.386290
H266	H	1.260228	0.726904	0.886290
H267	H	0.840355	0.229138	0.386252
H268	H	1.340355	0.729138	0.886252
C269	C	0.955305	-0.277941	-0.000234
C270	C	1.455305	0.222059	0.499766
H271	H	0.945528	-0.325059	-0.000239
H272	H	1.445528	0.174941	0.499761
H273	H	0.981479	-0.269561	0.043419
H274	H	1.481479	0.230439	0.543419
H275	H	0.981500	-0.269547	-0.043898
H276	H	1.481500	0.230453	0.456102
C277	C	0.839763	-0.040408	0.582532
C278	C	1.339763	0.459592	1.082532
H279	H	0.838426	-0.031346	0.635105
H280	H	1.338426	0.468654	1.135105
H281	H	0.883645	-0.065293	0.569605
H282	H	1.383645	0.434707	1.069605
H283	H	0.803518	-0.067530	0.569640
H284	H	1.303518	0.432470	1.069640
H285	H	0.734241	0.178392	0.328237
H286	H	1.234241	0.678392	0.828237
C287	C	0.919741	-0.006942	0.825529
C288	C	1.419741	0.493058	1.325529
H289	H	0.947963	-0.035136	0.790769
H290	H	1.447963	0.464864	1.290769
H291	H	0.894856	-0.035796	0.856290
H292	H	1.394856	0.464204	1.356290
H293	H	0.948574	0.017981	0.856246
H294	H	1.448574	0.517981	1.356246
H295	H	0.593987	0.211580	-0.000202
H296	H	1.093987	0.711580	0.499798
H297	H	0.462561	0.209652	-0.000216
H298	H	0.962561	0.709652	0.499784
C299	C	0.382594	0.195438	0.091882
C300	C	0.882594	0.695438	0.591882
H301	H	0.346766	0.223846	0.118003
H302	H	0.846766	0.723846	0.618003
H303	H	0.407119	0.223899	0.060268
H304	H	0.907119	0.723899	0.560268
H305	H	0.414050	0.171828	0.127159
H306	H	0.914050	0.671828	0.627159
H307	H	0.242670	0.179505	0.079324
H308	H	0.742670	0.679505	0.579324
H309	H	0.147101	0.205028	-0.000274
H310	H	0.647101	0.705028	0.499726
