data_functionalizedCrystal
_audit_creation_method	'MofGen! by Chris Wilmer'
_symmetry_space_group_name_H-M	'P1'
_symmetry_Int_Tables_number	1
_symmetry_cell_setting	triclinic
loop_
_symmetry_equiv_pos_as_xyz
  x,y,z
_cell_length_a	21.606444
_cell_length_b	14.560438
_cell_length_c	14.560438
_cell_angle_alpha	60.000518
_cell_angle_beta	89.999539
_cell_angle_gamma	60.000721
loop_
_atom_site_label
_atom_site_type_symbol
_atom_site_fract_x
_atom_site_fract_y
_atom_site_fract_z
Zr1	Zr	0.596221	1.005315	-0.120539
O2	O	0.497397	1.196912	-0.267179
O3	O	0.626516	0.813715	-0.075589
O4	O	0.626514	1.005320	-0.267190
O5	O	0.497401	1.005305	0.075563
O6	O	0.728364	1.005326	-0.267195
O7	O	0.497399	1.005308	-0.075578
O8	O	0.728367	0.662581	0.075544
O9	O	0.497397	1.348050	-0.267176
O10	O	0.715446	0.892529	-0.056419
O11	O	0.639438	0.892522	0.056380
O12	O	0.639435	1.118111	-0.169206
O13	O	0.563427	1.118104	-0.056407
Zr14	Zr	0.758662	1.005321	0.120504
Zr15	Zr	0.758660	1.005325	-0.120548
Zr16	Zr	0.596224	1.005311	0.120513
Zr17	Zr	0.596221	1.246363	-0.120535
Zr18	Zr	0.758662	0.764273	0.120500
O19	O	0.728368	1.196921	0.075554
O20	O	0.728364	1.196927	-0.267192
O21	O	0.497401	1.196906	0.075566
O22	O	0.857486	0.813724	0.267144
O23	O	0.857483	0.813730	-0.075601
O24	O	0.626519	0.813709	0.267156
O25	O	0.857483	1.005331	-0.075598
O26	O	0.728369	1.005316	0.267155
O27	O	0.626520	1.005310	0.267160
O28	O	0.857484	1.005328	0.075543
O29	O	0.626514	1.348058	-0.267183
O30	O	0.728369	0.662578	0.267148
O31	O	0.857486	0.662586	0.267141
O32	O	0.857484	0.662589	0.075537
O33	O	0.497400	1.348047	-0.075572
O34	O	0.626517	1.348055	-0.075579
O35	O	0.715448	0.892525	0.169170
O36	O	0.791456	0.892532	0.056372
O37	O	0.715446	1.118114	-0.056415
O38	O	0.639438	1.118107	0.056384
C39	C	0.677441	0.703804	-0.000023
C40	C	0.677441	0.601473	-0.000025
C41	C	0.717115	0.553401	-0.058905
C42	C	0.717118	0.457241	-0.058895
C43	C	0.637767	0.457239	0.058877
C44	C	0.637769	0.553390	0.058873
C45	C	0.474256	1.005305	-0.000007
C46	C	0.405296	1.005301	-0.000003
C47	C	0.412574	0.887550	0.058866
C48	C	0.347776	0.887553	0.058867
C49	C	0.275703	1.005309	-0.000008
C50	C	0.268427	1.123069	-0.058879
C51	C	0.333223	1.123064	-0.058873
C52	C	0.007109	1.123092	-0.058904
C53	C	-0.057690	1.123087	-0.058909
C54	C	0.021662	0.887581	0.058836
C55	C	0.086458	0.887576	0.058842
C56	C	0.079177	1.005335	-0.000023
C57	C	0.149438	1.005330	-0.000022
C58	C	0.205442	1.005316	-0.000017
C59	C	0.880628	1.005331	-0.000028
C60	C	0.949587	1.005335	-0.000032
C61	C	0.677439	1.005323	-0.301537
C62	C	0.677437	1.005325	-0.403870
C63	C	0.677442	1.306832	-0.000012
C64	C	0.677442	1.409163	-0.000010
C65	C	0.637767	1.123067	-0.606974
C66	C	0.637761	1.123075	-0.510826
C67	C	0.717117	0.887560	-0.393063
C68	C	0.717119	0.887553	-0.489210
C69	C	0.677445	1.005313	0.301502
C70	C	0.677446	1.005311	0.403835
C71	C	0.880627	0.703817	-0.000034
C72	C	0.949587	0.601491	-0.000040
C73	C	0.677445	0.703799	0.301496
C74	C	0.677445	0.601466	0.403828
C75	C	0.880630	0.703812	0.301486
C76	C	0.949591	0.601483	0.403813
C77	C	0.474253	1.306824	-0.301521
C78	C	0.405293	1.409153	-0.403848
C79	C	0.474256	1.306819	-0.000001
C80	C	0.405297	1.409145	0.000005
C81	C	0.677439	1.306837	-0.301532
C82	C	0.677438	1.409170	-0.403863
C83	C	0.942294	0.553435	-0.058928
C84	C	1.007082	0.457302	-0.058956
C85	C	1.079163	0.409219	-0.000088
C86	C	1.086454	0.457284	0.058802
C87	C	1.021666	0.553422	0.058823
C88	C	1.021658	0.553432	0.392987
C89	C	1.086459	0.457297	0.489125
C90	C	1.079193	0.409208	0.596088
C91	C	1.007118	0.457269	0.606912
C92	C	0.942318	0.553408	0.510775
C93	C	0.333226	1.457215	-0.393022
C94	C	0.268424	1.553380	-0.489160
C95	C	0.275691	1.601474	-0.596123
C96	C	0.347765	1.553408	-0.606947
C97	C	0.412565	1.457251	-0.510810
C98	C	0.412590	1.457211	0.058883
C99	C	0.347801	1.553371	0.058884
C100	C	0.275721	1.601457	0.000013
C101	C	0.268430	1.553388	-0.058872
C102	C	0.333217	1.457236	-0.058880
C103	C	0.717122	0.553389	0.510779
C104	C	0.717114	0.457246	0.606926
C105	C	0.637753	0.457260	0.489157
C106	C	0.637756	0.553408	0.393012
H107	H	0.749420	0.592546	-0.106861
H108	H	0.327295	1.418062	-0.305936
H109	H	0.001170	1.218978	-0.106857
H110	H	0.605449	1.218964	-0.519637
H111	H	0.209733	1.592555	-0.106804
H112	H	0.749425	0.418102	-0.106838
H113	H	0.353708	0.791669	0.106807
H114	H	0.749436	0.592519	0.519591
H115	H	0.605467	0.418080	0.106829
H116	H	0.749419	0.791686	-0.305971
H117	H	0.605461	0.592530	0.106825
H118	H	0.353753	1.592492	0.106840
H119	H	1.027589	0.592572	0.305901
H120	H	0.749422	0.418107	0.694007
H121	H	0.222920	1.679771	-0.674395
H122	H	0.471256	0.791659	0.106815
H123	H	0.353673	1.592578	-0.694048
H124	H	0.145142	0.791687	0.106781
H125	H	0.027584	0.791696	0.106770
H126	H	0.605440	0.418118	0.480365
H127	H	0.209738	1.218948	-0.106810
H128	H	-0.116377	1.218984	-0.106854
H129	H	0.605443	0.592556	0.305922
H130	H	0.327293	1.218949	-0.106797
H131	H	0.749430	0.791656	-0.480400
H132	H	0.471244	1.418119	-0.519638
H133	H	0.605461	1.218953	-0.694058
H134	H	0.883608	0.592584	-0.106879
H135	H	1.145140	0.418176	0.480293
H136	H	1.001131	0.418179	-0.106911
H137	H	1.131911	0.330936	-0.000113
H138	H	1.145150	0.418120	0.106730
H139	H	1.027615	0.592536	0.106783
H140	H	0.883641	0.592519	0.519605
H141	H	1.131963	0.330925	0.674360
H142	H	1.001213	0.418100	0.694014
H143	H	0.209744	1.592500	-0.480326
H144	H	0.471275	1.418066	0.106830
H145	H	0.222973	1.679750	0.000028
H146	H	0.327269	1.418104	-0.106822
