data_functionalizedCrystal
_audit_creation_method	'MofGen! by Chris Wilmer'
_symmetry_space_group_name_H-M	'P1'
_symmetry_Int_Tables_number	1
_symmetry_cell_setting	triclinic
loop_
_symmetry_equiv_pos_as_xyz
  x,y,z
_cell_length_a	16.625547
_cell_length_b	29.839131
_cell_length_c	16.625539
_cell_angle_alpha	89.960252
_cell_angle_beta	89.975178
_cell_angle_gamma	90.035164
loop_
_atom_site_label
_atom_site_type_symbol
_atom_site_fract_x
_atom_site_fract_y
_atom_site_fract_z
Zn1	Zn	1.232609	-0.178853	-0.455937
Zn2	Zn	1.732609	0.321147	0.044063
Zn3	Zn	1.232482	-0.253984	-0.321077
Zn4	Zn	1.732482	0.246016	0.178923
Zn5	Zn	1.097771	-0.178869	-0.321107
Zn6	Zn	1.597771	0.321131	0.178893
Zn7	Zn	1.097711	-0.253957	-0.455857
Zn8	Zn	1.597711	0.246043	0.044143
O9	O	1.165143	-0.216416	-0.388494
O10	O	1.665143	0.283584	0.111506
O11	O	1.345425	-0.188824	-0.438068
O12	O	1.845425	0.311176	0.061932
O13	O	1.214584	-0.244038	-0.208249
O14	O	1.714584	0.255962	0.291751
O15	O	1.115735	-0.116000	-0.339039
O16	O	1.615735	0.384000	0.160961
O17	O	1.345331	-0.244023	-0.338987
O18	O	1.845331	0.255977	0.161013
O19	O	1.214800	-0.115988	-0.438097
O20	O	1.714800	0.384012	0.061903
O21	O	1.115612	-0.188851	-0.208271
O22	O	1.615612	0.311149	0.291729
O23	O	0.984931	-0.188825	-0.338961
O24	O	1.484931	0.311175	0.161039
O25	O	1.115634	-0.243976	-0.568700
O26	O	1.615634	0.256024	-0.068700
O27	O	0.984887	-0.243991	-0.437961
O28	O	1.484887	0.256009	0.062039
O29	O	1.214743	-0.188798	-0.568759
O30	O	1.714743	0.311202	-0.068759
O31	O	1.214526	-0.316848	-0.338910
O32	O	1.714526	0.183152	0.161090
O33	O	1.115511	-0.316828	-0.437932
O34	O	1.615511	0.183172	0.062068
C35	C	0.955652	-0.216407	-0.388456
C36	C	1.455652	0.283593	0.111544
C37	C	0.866031	-0.216414	-0.388459
C38	C	1.366031	0.283586	0.111541
C39	C	0.793249	-0.216415	-0.388469
C40	C	1.293249	0.283585	0.111531
C41	C	0.701940	-0.216417	-0.388489
C42	C	1.201940	0.283583	0.111511
C43	C	0.629164	-0.216422	-0.388510
C44	C	1.129164	0.283578	0.111490
C45	C	0.537850	-0.216425	-0.388529
C46	C	1.037850	0.283575	0.111471
C47	C	1.165020	-0.333138	-0.388426
C48	C	1.665020	0.166862	0.111574
C49	C	1.165041	-0.383073	-0.388424
C50	C	1.665041	0.116927	0.111576
C51	C	1.216715	-0.692675	-0.440148
C52	C	1.716715	-0.192675	0.059852
C53	C	1.216803	-0.880348	-0.440196
C54	C	1.716803	-0.380348	0.059804
O55	O	1.260617	-0.904578	-0.484123
O56	O	1.760617	-0.404578	0.015877
N57	N	1.165280	-0.903858	-0.388584
N58	N	1.665280	-0.403858	0.111416
C59	C	1.113728	-0.880446	-0.336960
C60	C	1.613728	-0.380446	0.163040
O61	O	1.069902	-0.904749	-0.293067
O62	O	1.569902	-0.404749	0.206933
C63	C	1.113637	-0.692774	-0.336916
C64	C	1.613637	-0.192774	0.163084
C65	C	1.165169	-0.669267	-0.388526
C66	C	1.665169	-0.169267	0.111474
C67	C	1.268242	-0.669168	-0.491754
C68	C	1.768242	-0.169168	0.008246
C69	C	1.268223	-0.622253	-0.491738
C70	C	1.768223	-0.122253	0.008262
C71	C	1.216677	-0.598844	-0.440116
C72	C	1.716677	-0.098844	0.059884
C73	C	1.165150	-0.622352	-0.388510
C74	C	1.665150	-0.122352	0.111490
C75	C	1.062082	-0.669363	-0.285296
C76	C	1.562082	-0.169363	0.214704
C77	C	1.062063	-0.622442	-0.285291
C78	C	1.562063	-0.122442	0.214709
C79	C	1.113594	-0.598935	-0.336901
C80	C	1.613594	-0.098935	0.163099
C81	C	1.113584	-0.552028	-0.336872
C82	C	1.613584	-0.052028	0.163128
N83	N	1.165107	-0.528518	-0.388484
N84	N	1.665107	-0.028518	0.111516
C85	C	1.216653	-0.551927	-0.440107
C86	C	1.716653	-0.051927	0.059893
C87	C	1.113781	-0.978977	-0.336985
C88	C	1.613781	-0.478977	0.163015
C89	C	1.113805	-1.025895	-0.336995
C90	C	1.613805	-0.525895	0.163005
C91	C	1.216878	-1.025794	-0.440233
C92	C	1.716878	-0.525794	0.059767
C93	C	1.216858	-0.978875	-0.440218
C94	C	1.716858	-0.478875	0.059782
C95	C	1.165303	-0.955467	-0.388597
C96	C	1.665303	-0.455467	0.111403
C97	C	1.216609	-0.453401	-0.440069
C98	C	1.716609	0.046599	0.059931
C99	C	1.216588	-0.406481	-0.440046
C100	C	1.716588	0.093519	0.059954
C101	C	1.113512	-0.406586	-0.336812
C102	C	1.613512	0.093414	0.163188
C103	C	1.113536	-0.453502	-0.336831
C104	C	1.613536	0.046498	0.163169
C105	C	1.165087	-0.476908	-0.388466
C106	C	1.665087	0.023092	0.111534
O107	O	1.069787	-0.527769	-0.292975
O108	O	1.569787	-0.027769	0.207025
O109	O	1.260461	-0.527616	-0.484005
O110	O	1.760461	-0.027616	0.015995
C111	C	1.216735	-0.739591	-0.440164
C112	C	1.716735	-0.239591	0.059836
C113	C	1.165208	-0.763098	-0.388557
C114	C	1.665208	-0.263098	0.111443
C115	C	1.113662	-0.739690	-0.336935
C116	C	1.613662	-0.239690	0.163065
C117	C	1.165231	-0.810016	-0.388567
C118	C	1.665231	-0.310016	0.111433
C119	C	1.216777	-0.833424	-0.440189
C120	C	1.716777	-0.333424	0.059811
C121	C	1.268300	-0.809915	-0.491801
C122	C	1.768300	-0.309915	0.008199
C123	C	1.268281	-0.762999	-0.491786
C124	C	1.768281	-0.262999	0.008214
C125	C	1.062139	-0.763199	-0.285323
C126	C	1.562139	-0.263199	0.214677
C127	C	1.062163	-0.810115	-0.285342
C128	C	1.562163	-0.310115	0.214658
C129	C	1.113709	-0.833523	-0.336964
C130	C	1.613709	-0.333523	0.163036
C131	C	1.375452	-0.216425	-0.388533
C132	C	1.875452	0.283575	0.111467
C133	C	1.465073	-0.216429	-0.388550
C134	C	1.965073	0.283571	0.111450
C135	C	1.165196	-0.216382	-0.598803
C136	C	1.665196	0.283618	-0.098803
C137	C	1.165218	-0.216368	-0.688425
C138	C	1.665218	0.283632	-0.188425
C139	C	1.165289	-0.099237	-0.388580
C140	C	1.665289	0.400763	0.111420
C141	C	1.165351	-0.049303	-0.388617
C142	C	1.665351	0.450697	0.111383
C143	C	1.165255	-0.216318	-1.016601
C144	C	1.665255	0.283682	-0.516601
C145	C	1.165243	-0.216333	-0.925292
C146	C	1.665243	0.283667	-0.425292
C147	C	1.165237	-0.216343	-0.852515
C148	C	1.665237	0.283657	-0.352515
C149	C	1.165224	-0.216358	-0.761201
C150	C	1.665224	0.283642	-0.261201
C151	C	1.165137	-0.216417	-0.179004
C152	C	1.665137	0.283583	0.320996
C153	C	1.165271	-0.216304	-0.089383
C154	C	1.665271	0.283696	0.410617
H155	H	1.258554	-0.387343	-0.482073
H156	H	1.758554	0.112657	0.017927
C157	C	1.057780	-0.953648	-0.280840
C158	C	1.557780	-0.453648	0.219160
C159	C	1.012687	-0.984284	-0.235631
C160	C	1.512687	-0.484284	0.264369
C161	C	0.961103	-0.960970	-0.183890
C162	C	1.461103	-0.460970	0.316110
H163	H	1.022543	-0.935346	-0.311545
H164	H	1.522543	-0.435346	0.188455
H165	H	1.088617	-0.935357	-0.245689
H166	H	1.588617	-0.435357	0.254311
H167	H	0.981852	-1.002567	-0.270777
H168	H	1.481852	-0.502567	0.229223
H169	H	1.047903	-1.002586	-0.204909
H170	H	1.547903	-0.502586	0.295091
H171	H	0.991940	-0.942679	-0.148740
H172	H	1.491940	-0.442679	0.351260
H173	H	0.925872	-0.942669	-0.214602
H174	H	1.425872	-0.442669	0.285398
H175	H	0.930507	-0.981753	-0.153205
H176	H	1.430507	-0.481753	0.346795
H177	H	1.310217	-0.688222	-0.533796
H178	H	1.810217	-0.188222	-0.033796
H179	H	1.020078	-0.603386	-0.243256
H180	H	1.520078	-0.103386	0.256744
H181	H	1.310242	-0.743863	-0.533811
H182	H	1.810242	-0.243863	-0.033811
C183	C	1.006122	-0.835552	-0.229273
C184	C	1.506122	-0.335552	0.270727
C185	C	0.960963	-0.805004	-0.184082
C186	C	1.460963	-0.305004	0.315918
C187	C	0.909318	-0.828419	-0.132438
C188	C	1.409318	-0.328419	0.367562
H189	H	1.036894	-0.853861	-0.194101
H190	H	1.536894	-0.353861	0.305899
H191	H	0.970935	-0.853845	-0.260073
H192	H	1.470935	-0.353845	0.239927
H193	H	0.996145	-0.786720	-0.153284
H194	H	1.496145	-0.286720	0.346716
H195	H	0.930174	-0.786695	-0.219232
H196	H	1.430174	-0.286695	0.280768
H197	H	0.874132	-0.846712	-0.163238
H198	H	1.374132	-0.346712	0.336762
H199	H	0.940097	-0.846727	-0.097272
H200	H	1.440097	-0.346727	0.402728
H201	H	0.878667	-0.807696	-0.101775
H202	H	1.378667	-0.307696	0.398225
H203	H	1.020163	-0.744144	-0.243287
H204	H	1.520163	-0.244144	0.256713
H205	H	1.310182	-0.603116	-0.533766
H206	H	1.810182	-0.103116	-0.033766
C207	C	1.006039	-0.694796	-0.229234
C208	C	1.506039	-0.194796	0.270766
C209	C	0.960880	-0.664245	-0.184051
C210	C	1.460880	-0.164245	0.315949
C211	C	0.909233	-0.687656	-0.132404
C212	C	1.409233	-0.187656	0.367596
H213	H	1.036809	-0.713103	-0.194058
H214	H	1.536809	-0.213103	0.305942
H215	H	0.970853	-0.713090	-0.260032
H216	H	1.470853	-0.213090	0.239968
H217	H	0.996062	-0.645959	-0.153255
H218	H	1.496062	-0.145959	0.346745
H219	H	0.930093	-0.645937	-0.219205
H220	H	1.430093	-0.145937	0.280795
H221	H	0.874047	-0.705950	-0.163202
H222	H	1.374047	-0.205950	0.336798
H223	H	0.940010	-0.705962	-0.097234
H224	H	1.440010	-0.205962	0.402766
H225	H	0.878581	-0.666931	-0.101746
H226	H	1.378581	-0.166931	0.398254
H227	H	1.258819	-0.959738	-0.482244
H228	H	1.758819	-0.459738	0.017756
H229	H	1.258582	-0.472452	-0.482121
H230	H	1.758582	0.027548	0.017879
C231	C	1.272704	-1.051237	-0.496385
C232	C	1.772704	-0.551237	0.003615
C233	C	1.227018	-1.078162	-0.548028
C234	C	1.727018	-0.578162	-0.048028
C235	C	1.278409	-1.101605	-0.599775
C236	C	1.778409	-0.601605	-0.099775
H237	H	1.307879	-1.069575	-0.465678
H238	H	1.807879	-0.569575	0.034322
H239	H	1.303374	-1.030535	-0.527176
H240	H	1.803374	-0.530535	-0.027176
H241	H	1.196363	-1.098862	-0.517240
H242	H	1.696363	-0.598862	-0.017240
H243	H	1.191845	-1.059836	-0.578753
H244	H	1.691845	-0.559836	-0.078753
H245	H	1.309078	-1.080902	-0.630566
H246	H	1.809078	-0.580902	-0.130566
H247	H	1.313581	-1.119939	-0.569061
H248	H	1.813581	-0.619939	-0.069061
H249	H	1.247418	-1.119872	-0.634825
H250	H	1.747418	-0.619872	-0.134825
C251	C	1.324395	-0.835310	-0.547757
C252	C	1.824395	-0.335310	-0.047757
C253	C	1.404184	-0.823882	-0.530275
C254	C	1.904184	-0.323882	-0.030275
C255	C	1.455872	-0.847273	-0.581800
C256	C	1.955872	-0.347273	-0.081800
H257	H	1.312661	-0.827619	-0.601946
H258	H	1.812661	-0.327619	-0.101946
H259	H	1.317076	-0.866623	-0.540366
H260	H	1.817076	-0.366623	-0.040366
H261	H	1.411499	-0.792576	-0.537673
H262	H	1.911499	-0.292576	-0.037673
H263	H	1.415943	-0.831573	-0.476096
H264	H	1.915943	-0.331573	0.023904
H265	H	1.448554	-0.878586	-0.574409
H266	H	1.948554	-0.378586	-0.074409
H267	H	1.444131	-0.839581	-0.635986
H268	H	1.944131	-0.339581	-0.135986
H269	H	1.510015	-0.839525	-0.569941
H270	H	2.010015	-0.339525	-0.069941
C271	C	1.057812	-1.051470	-0.281087
C272	C	1.557812	-0.551470	0.218913
C273	C	1.006130	-1.078417	-0.326695
C274	C	1.506130	-0.578417	0.173305
C275	C	0.954538	-1.101985	-0.275222
C276	C	1.454538	-0.601985	0.224778
H277	H	1.027034	-1.030856	-0.250328
H278	H	1.527034	-0.530856	0.249672
H279	H	1.088655	-1.069800	-0.245997
H280	H	1.588655	-0.569800	0.254003
H281	H	0.975289	-1.060088	-0.361770
H282	H	1.475289	-0.560088	0.138230
H283	H	1.036885	-1.099039	-0.357451
H284	H	1.536885	-0.599039	0.142549
H285	H	0.985382	-1.120315	-0.240133
H286	H	1.485382	-0.620315	0.259867
H287	H	0.923766	-1.081368	-0.244466
H288	H	1.423766	-0.581368	0.255534
H289	H	0.919471	-1.120274	-0.306159
H290	H	1.419471	-0.620274	0.193841
C291	C	1.057503	-0.478946	-0.280764
C292	C	1.557503	0.021054	0.219236
C293	C	1.012347	-0.448401	-0.235565
C294	C	1.512347	0.051599	0.264435
C295	C	0.960707	-0.471820	-0.183921
C296	C	1.460707	0.028180	0.316079
H297	H	1.088280	-0.497256	-0.245598
H298	H	1.588280	0.002744	0.254402
H299	H	1.022316	-0.497237	-0.311565
H300	H	1.522316	0.002763	0.188435
H301	H	1.047529	-0.430117	-0.204767
H302	H	1.547529	0.069883	0.295233
H303	H	0.981554	-0.430090	-0.270710
H304	H	1.481554	0.069910	0.229290
H305	H	0.925520	-0.490111	-0.214722
H306	H	1.425520	0.009889	0.285278
H307	H	0.991490	-0.490129	-0.148760
H308	H	1.491490	0.009871	0.351240
H309	H	0.930057	-0.451099	-0.153252
H310	H	1.430057	0.048901	0.346748
C311	C	1.057447	-0.381141	-0.280906
C312	C	1.557447	0.118859	0.219094
C313	C	1.005726	-0.354219	-0.326518
C314	C	1.505726	0.145781	0.173482
C315	C	0.954057	-0.330775	-0.275052
C316	C	1.454057	0.169225	0.224948
H317	H	1.088206	-0.362801	-0.245785
H318	H	1.588206	0.137199	0.254215
H319	H	1.026708	-0.401842	-0.250183
H320	H	1.526708	0.098158	0.249817
H321	H	1.036462	-0.333519	-0.357228
H322	H	1.536462	0.166481	0.142772
H323	H	0.974949	-0.372547	-0.361637
H324	H	1.474949	0.127453	0.138363
H325	H	0.923318	-0.351476	-0.244328
H326	H	1.423318	0.148524	0.255672
H327	H	0.984823	-0.312438	-0.239933
H328	H	1.484823	0.187562	0.260067
H329	H	0.918954	-0.312508	-0.305992
H330	H	1.418954	0.187492	0.194008
