data_functionalizedCrystal
_audit_creation_method	'MofGen! by Chris Wilmer'
_symmetry_space_group_name_H-M	'P1'
_symmetry_Int_Tables_number	1
_symmetry_cell_setting	triclinic
loop_
_symmetry_equiv_pos_as_xyz
  x,y,z
_cell_length_a	25.639242
_cell_length_b	25.639240
_cell_length_c	25.639234
_cell_angle_alpha	89.973348
_cell_angle_beta	90.026995
_cell_angle_gamma	89.961311
loop_
_atom_site_label
_atom_site_type_symbol
_atom_site_fract_x
_atom_site_fract_y
_atom_site_fract_z
Zn1	Zn	0.799234	0.208247	0.295735
Zn2	Zn	1.299234	0.708247	0.795735
Zn3	Zn	0.799143	0.295674	0.208296
Zn4	Zn	1.299143	0.795674	0.708296
Zn5	Zn	0.711803	0.208248	0.208299
Zn6	Zn	1.211803	0.708248	0.708299
Zn7	Zn	0.711748	0.295646	0.295686
Zn8	Zn	1.211748	0.795646	0.795686
O9	O	0.755482	0.251954	0.252004
O10	O	1.255482	0.751954	0.752004
O11	O	0.872387	0.219855	0.284155
O12	O	1.372387	0.719855	0.784155
O13	O	0.787542	0.284089	0.135131
O14	O	1.287542	0.784089	0.635131
O15	O	0.723461	0.135083	0.219919
O16	O	1.223461	0.635083	0.719919
O17	O	0.872320	0.284088	0.219914
O18	O	1.372320	0.784088	0.719914
O19	O	0.787697	0.135082	0.284158
O20	O	1.287697	0.635082	0.784158
O21	O	0.723373	0.219858	0.135133
O22	O	1.223373	0.719858	0.635133
O23	O	0.638630	0.219830	0.219872
O24	O	1.138630	0.719830	0.719872
O25	O	0.723369	0.284040	0.368858
O26	O	1.223369	0.784040	0.868858
O27	O	0.638590	0.284041	0.284074
O28	O	1.138590	0.784041	0.784074
O29	O	0.787644	0.219828	0.368893
O30	O	1.287644	0.719828	0.868893
O31	O	0.787489	0.368836	0.219867
O32	O	1.287489	0.868836	0.719867
O33	O	0.723281	0.368815	0.284072
O34	O	1.223281	0.868815	0.784072
C35	C	0.619639	0.251933	0.251968
C36	C	1.119639	0.751933	0.751968
C37	C	0.561525	0.251937	0.251966
C38	C	1.061525	0.751937	0.751966
C39	C	0.755383	0.387796	0.251975
C40	C	1.255383	0.887796	0.751975
C41	C	0.755389	0.445910	0.251980
C42	C	1.255389	0.945910	0.751980
C43	C	0.201150	0.285444	0.285403
C44	C	0.701150	0.785444	0.785403
C45	C	0.146546	0.285448	0.285411
C46	C	0.646546	0.785448	0.785411
O47	O	0.118299	0.313911	0.313810
O48	O	0.618299	0.813911	0.813810
N49	N	0.119243	0.251968	0.252038
N50	N	0.619243	0.751968	0.752038
C51	C	0.146547	0.218480	0.218658
C52	C	0.646547	0.718480	0.718658
O53	O	0.118309	0.190003	0.190273
O54	O	0.618309	0.690003	0.690273
C55	C	0.201150	0.218474	0.218653
C56	C	0.701150	0.718474	0.718653
C57	C	0.228450	0.251960	0.252024
C58	C	0.728450	0.751960	0.752024
C59	C	0.228451	0.318926	0.318772
C60	C	0.728451	0.818926	0.818772
C61	C	0.283051	0.318924	0.318762
C62	C	0.783051	0.818924	0.818762
C63	C	0.310351	0.285439	0.285384
C64	C	0.810351	0.785439	0.785384
C65	C	0.283051	0.251957	0.252015
C66	C	0.783051	0.751957	0.752015
C67	C	0.228453	0.184983	0.185277
C68	C	0.728453	0.684983	0.685277
C69	C	0.283060	0.184981	0.185275
C70	C	0.783060	0.684981	0.685275
C71	C	0.310360	0.218466	0.218646
C72	C	0.810360	0.718466	0.718646
C73	C	0.364952	0.218469	0.218628
C74	C	0.864952	0.718469	0.718628
N75	N	0.392255	0.251949	0.252001
N76	N	0.892255	0.751949	0.752001
C77	C	0.364955	0.285434	0.285379
C78	C	0.864955	0.785434	0.785379
C79	C	0.031876	0.218493	0.218673
C80	C	0.531876	0.718493	0.718673
C81	C	-0.022726	0.218501	0.218675
C82	C	0.477274	0.718501	0.718675
C83	C	-0.022723	0.285468	0.285428
C84	C	0.477277	0.785468	0.785428
C85	C	0.031880	0.285463	0.285423
C86	C	0.531880	0.785463	0.785423
C87	C	0.059179	0.251972	0.252045
C88	C	0.559179	0.751972	0.752045
C89	C	0.479620	0.285426	0.285357
C90	C	0.979620	0.785426	0.785357
C91	C	0.534225	0.285422	0.285344
C92	C	1.034225	0.785422	0.785344
C93	C	0.534217	0.218453	0.218593
C94	C	1.034217	0.718453	0.718593
C95	C	0.479617	0.218459	0.218604
C96	C	0.979617	0.718459	0.718604
C97	C	0.452319	0.251947	0.251991
C98	C	0.952319	0.751947	0.751991
O99	O	0.393233	0.190019	0.190245
O100	O	0.893233	0.690019	0.690245
O101	O	0.393199	0.313901	0.313764
O102	O	0.893199	0.813901	0.813764
C103	C	0.788959	0.806272	0.218609
C104	C	1.288959	1.306272	0.718609
C105	C	0.788975	0.860876	0.218614
C106	C	1.288975	1.360876	0.718614
O107	O	0.817448	0.889111	0.190225
O108	O	1.317448	1.389111	0.690225
N109	N	0.755524	0.888193	0.252015
N110	N	1.255524	1.388193	0.752015
C111	C	0.722059	0.860903	0.285418
C112	C	1.222059	1.360903	0.785418
O113	O	0.693608	0.889152	0.313829
O114	O	1.193608	1.389152	0.813829
C115	C	0.722046	0.806299	0.285415
C116	C	1.222046	1.306299	0.785415
C117	C	0.755495	0.778985	0.252008
C118	C	1.255495	1.278985	0.752008
C119	C	0.822406	0.778958	0.185205
C120	C	1.322406	1.278958	0.685205
C121	C	0.822390	0.724357	0.185200
C122	C	1.322390	1.224357	0.685200
C123	C	0.788926	0.697071	0.218598
C124	C	1.288926	1.197071	0.718598
C125	C	0.755478	0.724385	0.252002
C126	C	1.255478	1.224385	0.752002
C127	C	0.688583	0.779010	0.318819
C128	C	1.188583	1.279010	0.818819
C129	C	0.688573	0.724403	0.318814
C130	C	1.188573	1.224403	0.818814
C131	C	0.722023	0.697089	0.285407
C132	C	1.222023	1.197089	0.785407
C133	C	0.721997	0.642498	0.285395
C134	C	1.221997	1.142498	0.785395
N135	N	0.755449	0.615181	0.251994
N136	N	1.255449	1.115181	0.751994
C137	C	0.788913	0.642467	0.218595
C138	C	1.288913	1.142467	0.718595
C139	C	0.722089	0.975573	0.285422
C140	C	1.222089	1.475573	0.785422
C141	C	0.722099	1.030175	0.285422
C142	C	1.222099	1.530175	0.785422
C143	C	0.789016	1.030145	0.218619
C144	C	1.289016	1.530145	0.718619
C145	C	0.789003	0.975542	0.218616
C146	C	1.289003	1.475542	0.718616
C147	C	0.755540	0.948256	0.252020
C148	C	1.255540	1.448256	0.752020
C149	C	0.788874	0.527802	0.218586
C150	C	1.288874	1.027802	0.718586
C151	C	0.788853	0.473197	0.218582
C152	C	1.288853	0.973197	0.718582
C153	C	0.721938	0.473232	0.285386
C154	C	1.221938	0.973232	0.785386
C155	C	0.721957	0.527833	0.285389
C156	C	1.221957	1.027833	0.785389
C157	C	0.755430	0.555116	0.251987
C158	C	1.255430	1.055116	0.751987
O159	O	0.693540	0.614228	0.313771
O160	O	1.193540	1.114228	0.813771
O161	O	0.817364	0.614212	0.190194
O162	O	1.317364	1.114212	0.690194
C163	C	0.891855	0.251975	0.252040
C164	C	1.391855	0.751975	0.752040
C165	C	0.949969	0.251984	0.252055
C166	C	1.449969	0.751984	0.752055
C167	C	0.755510	0.251931	0.388377
C168	C	1.255510	0.751931	0.888377
C169	C	0.755522	0.251921	0.446491
C170	C	1.255522	0.751921	0.946491
C171	C	0.755575	1.115581	0.252035
C172	C	1.255575	1.615581	0.752035
C173	C	0.755565	1.057467	0.252025
C174	C	1.255565	1.557467	0.752025
C175	C	0.755484	0.251939	0.116161
C176	C	1.255484	0.751939	0.616161
C177	C	0.755573	0.251802	0.058048
C178	C	1.255573	0.751802	0.558048
C179	C	0.788949	0.285323	0.697676
C180	C	1.288949	0.785323	1.197676
C181	C	0.788943	0.285334	0.643071
C182	C	1.288943	0.785334	1.143071
O183	O	0.817339	0.313792	0.614827
O184	O	1.317339	0.813792	1.114827
N185	N	0.755534	0.251895	0.615765
N186	N	1.255534	0.751895	1.115765
C187	C	0.722124	0.218447	0.643065
C188	C	1.222124	0.718447	1.143065
O189	O	0.693706	0.190006	0.614825
O190	O	1.193706	0.690006	1.114825
C191	C	0.722127	0.218439	0.697669
C192	C	1.222127	0.718439	1.197669
C193	C	0.755542	0.251877	0.724973
C194	C	1.255542	0.751877	1.224973
C195	C	0.822361	0.318758	0.724980
C196	C	1.322361	0.818758	1.224980
C197	C	0.822367	0.318747	0.779580
C198	C	1.322367	0.818747	1.279580
C199	C	0.788961	0.285300	0.806877
C200	C	1.288961	0.785300	1.306877
C201	C	0.755549	0.251865	0.779573
C202	C	1.255549	0.751865	1.279573
C203	C	0.688715	0.184994	0.724968
C204	C	1.188715	0.684994	1.224968
C205	C	0.688721	0.184990	0.779575
C206	C	1.188721	0.684990	1.279575
C207	C	0.722136	0.218427	0.806879
C208	C	1.222136	0.718427	1.306879
C209	C	0.722148	0.218406	0.861470
C210	C	1.222148	0.718406	1.361470
N211	N	0.755558	0.251845	0.888777
N212	N	1.255558	0.751845	1.388777
C213	C	0.788964	0.285292	0.861480
C214	C	1.288964	0.785292	1.361480
C215	C	0.722119	0.218467	0.528395
C216	C	1.222119	0.718467	1.028395
C217	C	0.722118	0.218472	0.473792
C218	C	1.222118	0.718472	0.973792
C219	C	0.788937	0.285360	0.473802
C220	C	1.288937	0.785360	0.973802
C221	C	0.788940	0.285352	0.528406
C222	C	1.288940	0.785352	1.028406
C223	C	0.755528	0.251906	0.555701
C224	C	1.255528	0.751906	1.055701
C225	C	0.788975	0.285265	0.976145
C226	C	1.288975	0.785265	1.476145
C227	C	0.788979	0.285248	1.030751
C228	C	1.288979	0.785248	1.530751
C229	C	0.722159	0.218363	1.030736
C230	C	1.222159	0.718363	1.530736
C231	C	0.722156	0.218377	0.976136
C232	C	1.222156	0.718377	1.476136
C233	C	0.755565	0.251832	0.948842
C234	C	1.255565	0.751832	1.448842
O235	O	0.693765	0.189965	0.889749
O236	O	1.193765	0.689965	1.389749
O237	O	0.817373	0.313733	0.889727
O238	O	1.317373	0.813733	1.389727
H239	H	0.556451	0.312691	0.312519
H240	H	1.056451	0.812691	0.812519
O241	O	0.689510	0.446695	0.317885
O242	O	1.189510	0.946695	0.817885
C243	C	0.719258	0.415055	0.351667
C244	C	1.219258	0.915055	0.851667
H245	H	0.760437	0.431477	0.354938
H246	H	1.260437	0.931477	0.854938
H247	H	0.700330	0.414423	0.391886
H248	H	1.200330	0.914423	0.891886
H249	H	0.721063	0.373682	0.335495
H250	H	1.221063	0.873682	0.835495
H251	H	0.661324	0.702190	0.346017
H252	H	1.161324	1.202190	0.846017
O253	O	0.656039	0.805559	0.351200
O254	O	1.156039	1.305559	0.851200
C255	C	0.622297	0.837205	0.321413
C256	C	1.122297	1.337205	0.821413
H257	H	0.619079	0.820782	0.280227
H258	H	1.119079	1.320782	0.780227
H259	H	0.582052	0.837847	0.340288
H260	H	1.082052	1.337847	0.840288
H261	H	0.638472	0.878575	0.319636
H262	H	1.138472	1.378575	0.819636
H263	H	0.849629	0.702121	0.157998
H264	H	1.349629	1.202121	0.657998
H265	H	-0.044961	0.312732	0.312608
H266	H	0.455039	0.812732	0.812608
O267	O	0.855001	0.805465	0.152850
O268	O	1.355001	1.305465	0.652850
C269	C	0.888757	0.836991	0.182672
C270	C	1.388757	1.336991	0.682672
H271	H	0.891911	0.820519	0.223860
H272	H	1.391911	1.320519	0.723860
H273	H	0.929020	0.837542	0.163836
H274	H	1.429020	1.337542	0.663836
H275	H	0.872635	0.878402	0.184434
H276	H	1.372635	1.378402	0.684434
O277	O	0.202023	0.152403	0.152845
O278	O	0.702023	0.652403	0.652845
C279	C	0.237838	0.122859	0.123383
C280	C	0.737838	0.622859	0.623383
H281	H	0.276774	0.121086	0.144801
H282	H	0.776774	0.621086	0.644801
H283	H	0.222092	0.081654	0.117888
H284	H	0.722092	0.581654	0.617888
H285	H	0.243611	0.141945	0.083635
H286	H	0.743611	0.641945	0.583635
O287	O	0.058369	0.186020	0.186166
O288	O	0.558369	0.686020	0.686166
C289	C	0.044974	0.197373	0.134040
C290	C	0.544974	0.697373	0.634040
H291	H	0.029941	0.239141	0.131330
H292	H	0.529941	0.739141	0.631330
H293	H	0.080868	0.192830	0.108209
H294	H	0.580868	0.692830	0.608209
H295	H	0.013284	0.169329	0.120430
H296	H	0.513284	0.669329	0.620430
O297	O	-0.049261	0.186057	0.186189
O298	O	0.450739	0.686057	0.686189
C299	C	-0.080889	0.215783	0.152376
C300	C	0.419111	0.715783	0.652376
H301	H	-0.064465	0.256959	0.149083
H302	H	0.435535	0.756959	0.649083
H303	H	-0.081507	0.196827	0.112170
H304	H	0.418493	0.696827	0.612170
H305	H	-0.122267	0.217600	0.168533
H306	H	0.377733	0.717600	0.668533
H307	H	0.694721	0.550073	0.312593
H308	H	1.194721	1.050073	0.812593
H309	H	0.305284	0.157705	0.158097
H310	H	0.805284	0.657705	0.658097
O311	O	0.854841	0.351178	0.698411
O312	O	1.354841	0.851178	1.198411
C313	C	0.888646	0.321421	0.666862
C314	C	1.388646	0.821421	1.166862
H315	H	0.870237	0.281799	0.658679
H316	H	1.370237	0.781799	1.158679
H317	H	0.895642	0.342728	0.628465
H318	H	1.395642	0.842728	1.128465
H319	H	0.927394	0.315673	0.687930
H320	H	1.427394	0.815673	1.187930
O321	O	0.821456	0.317781	1.057192
O322	O	1.321456	0.817781	1.557192
C323	C	0.850947	0.347295	1.021386
C324	C	1.350947	0.847295	1.521386
H325	H	0.829523	0.349108	0.982455
H326	H	1.329523	0.849108	1.482455
H327	H	0.856492	0.388488	1.037152
H328	H	1.356492	0.888488	1.537152
H329	H	0.890671	0.328157	1.015597
H330	H	1.390671	0.828157	1.515597
O331	O	0.689636	0.185901	1.057201
O332	O	1.189636	0.685901	1.557201
C333	C	0.637515	0.197334	1.043849
C334	C	1.137515	0.697334	1.543849
H335	H	0.636409	0.217435	1.004194
H336	H	1.136409	0.717435	1.504194
H337	H	0.614097	0.159599	1.041990
H338	H	1.114097	0.659599	1.541990
H339	H	0.619891	0.224213	1.074564
H340	H	1.119891	0.724213	1.574564
O341	O	0.821456	0.317688	0.949580
O342	O	1.321456	0.817688	1.449580
C343	C	0.855259	0.287935	0.918027
C344	C	1.355259	0.787935	1.418027
H345	H	0.836850	0.248313	0.909842
H346	H	1.336850	0.748313	1.409842
H347	H	0.862251	0.309245	0.879631
H348	H	1.362251	0.809245	1.379631
H349	H	0.894008	0.282187	0.939092
H350	H	1.394008	0.782187	1.439092
O351	O	0.689613	0.185970	0.447354
O352	O	1.189613	0.685970	0.947354
C353	C	0.660142	0.156440	0.483162
C354	C	1.160142	0.656440	0.983162
H355	H	0.658321	0.177850	0.522078
H356	H	1.158321	0.677850	1.022078
H357	H	0.618949	0.150857	0.467377
H358	H	1.118949	0.650857	0.967377
H359	H	0.679323	0.116733	0.488988
H360	H	1.179323	0.616733	0.988988
H361	H	0.661504	0.157767	0.702747
H362	H	1.161504	0.657767	1.202747
O363	O	0.854839	0.351282	0.806018
O364	O	1.354839	0.851282	1.306018
C365	C	0.884327	0.380793	0.770207
C366	C	1.384327	0.880793	1.270207
H367	H	0.862903	0.382598	0.731277
H368	H	1.362903	0.882598	1.231277
H369	H	0.889868	0.421989	0.785967
H370	H	1.389868	0.921989	1.285967
H371	H	0.924053	0.361657	0.764421
H372	H	1.424053	0.861657	1.264421
O373	O	0.453189	0.318004	0.317806
O374	O	0.953189	0.818004	0.817806
C375	C	0.489003	0.347542	0.347262
C376	C	0.989003	0.847542	0.847262
H377	H	0.527909	0.349317	0.325832
H378	H	1.027909	0.849317	0.825832
H379	H	0.473209	0.388747	0.352769
H380	H	0.973209	0.888747	0.852769
H381	H	0.494850	0.328449	0.387004
H382	H	0.994850	0.828449	0.887004
O383	O	0.821545	1.056576	0.186129
O384	O	1.321545	1.556576	0.686129
C385	C	0.851080	1.020763	0.156653
C386	C	1.351080	1.520763	0.656653
H387	H	0.829658	0.981860	0.154810
H388	H	1.329658	1.481860	0.654810
H389	H	0.856688	1.036562	0.115468
H390	H	1.356688	1.536562	0.615468
H391	H	0.890774	1.014909	0.175844
H392	H	1.390774	1.514909	0.675844
H393	H	0.694953	0.191142	0.953904
H394	H	1.194953	0.691142	1.453904
H395	H	0.816150	0.312580	0.550633
H396	H	1.316150	0.812580	1.050633
O397	O	0.689658	1.056681	0.317945
O398	O	1.189658	1.556681	0.817945
C399	C	0.701041	1.043284	0.370064
C400	C	1.201041	1.543284	0.870064
H401	H	0.742806	1.028235	0.372746
H402	H	1.242806	1.528235	0.872746
H403	H	0.696529	1.079180	0.395897
H404	H	1.196529	1.579180	0.895897
H405	H	0.672995	1.011604	0.383694
H406	H	1.172995	1.511604	0.883694
O407	O	0.560802	0.186000	0.186146
O408	O	1.060802	0.686000	0.686146
C409	C	0.592340	0.215720	0.152311
C410	C	1.092340	0.715720	0.652311
H411	H	0.600499	0.255370	0.170674
H412	H	1.100499	0.755370	0.670674
H413	H	0.630749	0.194415	0.145347
H414	H	1.130749	0.694415	0.645347
H415	H	0.571275	0.221405	0.113553
H416	H	1.071275	0.721405	0.613553
H417	H	0.305274	0.346190	0.345938
H418	H	0.805274	0.846190	0.845938
O419	O	0.202017	0.351507	0.351213
O420	O	0.702017	0.851507	0.851213
C421	C	0.237833	0.381043	0.380669
C422	C	0.737833	0.881043	0.880669
H423	H	0.276741	0.382810	0.359242
H424	H	0.776741	0.882810	0.859242
H425	H	0.222045	0.422250	0.386170
H426	H	0.722045	0.922250	0.886170
H427	H	0.243675	0.361954	0.420414
H428	H	0.743675	0.861954	0.920414
H429	H	0.457388	0.191193	0.191429
H430	H	0.957388	0.691193	0.691429
H431	H	0.694835	0.953360	0.312621
H432	H	1.194835	1.453360	0.812621
O433	O	0.689737	0.185946	0.554967
O434	O	1.189737	0.685946	1.054967
C435	C	0.719533	0.152166	0.586565
C436	C	1.219533	0.652166	1.086565
H437	H	0.759140	0.170611	0.594760
H438	H	1.259140	0.670611	1.094760
H439	H	0.698241	0.145147	0.624953
H440	H	1.198241	0.645147	1.124953
H441	H	0.725310	0.113425	0.565533
H442	H	1.225310	0.613425	1.065533
O443	O	0.821463	0.554239	0.186164
O444	O	1.321463	1.054239	0.686164
C445	C	0.873560	0.540839	0.197656
C446	C	1.373560	1.040839	0.697656
H447	H	0.874611	0.501185	0.217761
H448	H	1.374611	1.001185	0.717761
H449	H	0.897026	0.538955	0.159947
H450	H	1.397026	1.038955	0.659947
H451	H	0.891171	0.571540	0.224551
H452	H	1.391171	1.071540	0.724551
O453	O	0.821323	0.446722	0.186057
O454	O	1.321323	0.946722	0.686057
C455	C	0.809924	0.460098	0.133936
C456	C	1.309924	0.960098	0.633936
H457	H	0.789835	0.499763	0.132836
H458	H	1.289835	0.999763	0.632836
H459	H	0.847673	0.461946	0.110533
H460	H	1.347673	0.961946	0.610533
H461	H	0.783046	0.429403	0.116291
H462	H	1.283046	0.929403	0.616291
H463	H	0.816241	0.953306	0.191414
H464	H	1.316241	1.453306	0.691414
H465	H	0.816137	0.312595	0.451567
H466	H	1.316137	0.812595	0.951567
H467	H	0.661512	0.157753	0.801797
H468	H	1.161512	0.657753	1.301797
H469	H	0.054105	0.312728	0.312597
H470	H	0.554105	0.812728	0.812597
