data_functionalizedCrystal
_audit_creation_method	'MofGen! by Chris Wilmer'
_symmetry_space_group_name_H-M	'P1'
_symmetry_Int_Tables_number	1
_symmetry_cell_setting	triclinic
loop_
_symmetry_equiv_pos_as_xyz
  x,y,z
_cell_length_a	19.121102
_cell_length_b	19.120786
_cell_length_c	19.120904
_cell_angle_alpha	90.133503
_cell_angle_beta	89.911827
_cell_angle_gamma	89.915559
loop_
_atom_site_label
_atom_site_type_symbol
_atom_site_fract_x
_atom_site_fract_y
_atom_site_fract_z
Zn1	Zn	1.040890	-0.342335	0.426845
Zn2	Zn	1.540890	0.157665	0.926845
Zn3	Zn	1.041233	-0.454595	0.304618
Zn4	Zn	1.541233	0.045405	0.804618
Zn5	Zn	0.929064	-0.332381	0.305071
Zn6	Zn	1.429064	0.167619	0.805071
Zn7	Zn	0.919063	-0.454124	0.416841
Zn8	Zn	1.419063	0.045876	0.916841
O9	O	0.982562	-0.395859	0.363344
O10	O	1.482562	0.104141	0.863344
O11	O	1.138863	-0.361590	0.414628
O12	O	1.638863	0.138410	0.914628
O13	O	1.030682	-0.434414	0.206750
O14	O	1.530682	0.065586	0.706750
O15	O	0.947940	-0.235771	0.325601
O16	O	1.447940	0.264229	0.825601
O17	O	1.139115	-0.444066	0.324828
O18	O	1.639115	0.055934	0.824828
O19	O	1.030098	-0.243084	0.415067
O20	O	1.530098	0.256916	0.915067
O21	O	0.948273	-0.344624	0.207082
O22	O	1.448273	0.155376	0.707082
O23	O	0.829810	-0.344168	0.315901
O24	O	1.329810	0.155832	0.815901
O25	O	0.930895	-0.443264	0.516097
O26	O	1.430895	0.056736	1.016097
O27	O	0.822462	-0.433612	0.398018
O28	O	1.322462	0.066388	0.898018
O29	O	1.020400	-0.361133	0.523446
O30	O	1.520400	0.138867	1.023446
O31	O	1.020985	-0.552463	0.315128
O32	O	1.520985	-0.052463	0.815128
O33	O	0.931227	-0.552118	0.397578
O34	O	1.431227	-0.052118	0.897578
C35	C	0.800745	-0.387759	0.355923
C36	C	1.300745	0.112241	0.855923
C37	C	0.722961	-0.384312	0.352765
C38	C	1.222961	0.115688	0.852765
C39	C	0.682611	-0.429326	0.393961
C40	C	1.182611	0.070674	0.893961
C41	C	0.609525	-0.426077	0.390997
C42	C	1.109525	0.073923	0.890997
C43	C	0.576790	-0.377818	0.346832
C44	C	1.076790	0.122182	0.846832
C45	C	0.617145	-0.332800	0.305634
C46	C	1.117145	0.167200	0.805634
C47	C	0.690230	-0.336045	0.308602
C48	C	1.190230	0.163955	0.808602
C49	C	0.356312	-0.365683	0.335738
C50	C	0.856312	0.134317	0.835738
C51	C	0.283222	-0.362442	0.332771
C52	C	0.783222	0.137558	0.832771
C53	C	0.275607	-0.455719	0.418136
C54	C	0.775607	0.044281	0.918136
C55	C	0.348693	-0.458963	0.421097
C56	C	0.848693	0.041037	0.921097
C57	C	0.389042	-0.413942	0.379902
C58	C	0.889042	0.086058	0.879902
C59	C	0.502085	-0.374498	0.343800
C60	C	1.002085	0.125502	0.843800
C61	C	0.463746	-0.417260	0.382938
C62	C	0.963746	0.082740	0.882938
C63	C	0.975076	-0.577684	0.355235
C64	C	1.475076	-0.077684	0.855235
C65	C	0.971937	-0.655474	0.351792
C66	C	1.471937	-0.155474	0.851792
C67	C	1.013202	-0.695766	0.396790
C68	C	1.513202	-0.195766	0.896790
C69	C	1.010249	-0.768858	0.393556
C70	C	1.510249	-0.268858	0.893556
C71	C	0.966034	-0.801655	0.345320
C72	C	1.466034	-0.301655	0.845320
C73	C	0.924764	-0.761357	0.300320
C74	C	1.424764	-0.261357	0.800320
C75	C	0.927714	-0.688267	0.303558
C76	C	1.427714	-0.188267	0.803558
C77	C	0.954987	-1.022152	0.333214
C78	C	1.454987	-0.522152	0.833214
C79	C	0.952042	-1.095247	0.329978
C80	C	1.452042	-0.595247	0.829978
C81	C	1.037525	-1.102743	0.423215
C82	C	1.537525	-0.602743	0.923215
C83	C	1.040474	-1.029652	0.426446
C84	C	1.540474	-0.529652	0.926446
C85	C	0.999202	-0.989360	0.381449
C86	C	1.499202	-0.489360	0.881449
C87	C	0.963016	-0.876366	0.342011
C88	C	1.463016	-0.376366	0.842011
C89	C	1.002216	-0.914650	0.384761
C90	C	1.502216	-0.414650	0.884761
C91	C	1.165090	-0.403991	0.370793
C92	C	1.665090	0.096009	0.870793
C93	C	1.242873	-0.407456	0.373968
C94	C	1.742873	0.092544	0.873968
C95	C	0.974494	-0.403257	0.545873
C96	C	1.474494	0.096743	1.045873
C97	C	0.971055	-0.406409	0.623656
C98	C	1.471055	0.093591	1.123656
C99	C	0.990096	-0.213325	0.371500
C100	C	1.490096	0.286675	0.871500
C101	C	0.993307	-0.135540	0.374976
C102	C	1.493307	0.364460	0.874976
C103	C	0.990642	-0.388441	0.181528
C104	C	1.490642	0.111559	0.681528
C105	C	0.994224	-0.385098	0.103760
C106	C	1.494224	0.114902	0.603760
C107	C	1.016038	-0.365131	0.664026
C108	C	1.516038	0.134869	1.164026
C109	C	1.012799	-0.368090	0.737112
C110	C	1.512799	0.131910	1.237112
C111	C	0.964579	-0.412331	0.769826
C112	C	1.464579	0.087669	1.269826
C113	C	0.919592	-0.453611	0.729450
C114	C	1.419592	0.046389	1.229450
C115	C	0.922828	-0.450648	0.656366
C116	C	1.422828	0.049352	1.156366
C117	C	0.952473	-0.423414	0.990300
C118	C	1.452473	0.076586	1.490300
C119	C	0.949242	-0.426376	1.063390
C120	C	1.449242	0.073624	1.563390
C121	C	1.042448	-0.340853	1.071046
C122	C	1.542448	0.159147	1.571046
C123	C	1.045683	-0.337897	0.997961
C124	C	1.545683	0.162103	1.497961
C125	C	1.000693	-0.379174	0.957592
C126	C	1.500693	0.120826	1.457592
C127	C	0.961269	-0.415359	0.844530
C128	C	1.461269	0.084641	1.344530
C129	C	1.004001	-0.376143	0.882888
C130	C	1.504001	0.123857	1.382888
H131	H	0.723082	-0.299386	0.275059
H132	H	1.223082	0.200614	0.775059
Br133	Br	0.892037	-1.139757	0.264507
Br134	Br	1.392037	-0.639757	0.764507
H135	H	1.043258	-0.340119	0.856249
H136	H	1.543258	0.159881	1.356249
Br137	Br	0.871706	-0.633582	0.242490
Br138	Br	1.371706	-0.133582	0.742490
Br139	Br	1.066241	-0.823539	0.454639
Br140	Br	1.566241	-0.323539	0.954639
Br141	Br	1.081487	-0.305092	0.619637
Br142	Br	1.581487	0.194908	1.119637
Br143	Br	0.903006	-0.920882	0.276556
Br144	Br	1.403006	-0.420882	0.776556
H145	H	0.888761	-0.788066	0.261048
H146	H	1.388761	-0.288066	0.761048
Br147	Br	0.508173	-0.482751	0.442876
Br148	Br	1.008173	0.017249	0.942876
H149	H	1.049209	-0.669068	0.436065
H150	H	1.549209	-0.169068	0.936065
Br151	Br	1.073881	-0.312101	0.791898
Br152	Br	1.573881	0.187899	1.291898
H153	H	1.084950	-0.301873	0.971331
H154	H	1.584950	0.198127	1.471331
H155	H	1.076477	-1.002950	0.465723
H156	H	1.576477	-0.502950	0.965723
H157	H	1.079075	-0.307247	1.103923
H158	H	1.579075	0.192753	1.603923
H159	H	0.475424	-0.335207	0.307839
H160	H	0.975424	0.164793	0.807839
Br161	Br	0.891414	-0.479432	0.935523
Br162	Br	1.391414	0.020568	1.435523
Br163	Br	1.093533	-1.157428	0.484281
Br164	Br	1.593533	-0.657428	0.984281
Br165	Br	0.883795	-0.486419	1.107787
Br166	Br	1.383795	0.013581	1.607787
Br167	Br	0.854146	-0.513649	0.773846
Br168	Br	1.354146	-0.013649	1.273846
Br169	Br	0.861773	-0.506666	0.601577
Br170	Br	1.361773	-0.006666	1.101577
H171	H	0.709258	-0.468626	0.429923
H172	H	1.209258	0.031374	0.929923
Br173	Br	0.393114	-0.524464	0.481033
Br174	Br	0.893114	-0.024464	0.981033
H175	H	0.576675	-0.462733	0.424543
H176	H	1.076675	0.037267	0.924543
H177	H	0.922012	-0.451384	0.871174
H178	H	1.422012	0.048616	1.371174
H179	H	0.921382	-0.989352	0.296574
H180	H	1.421382	-0.489352	0.796574
H181	H	0.256572	-0.323136	0.296812
H182	H	0.756572	0.176864	0.796812
Br183	Br	0.220845	-0.516818	0.474038
Br184	Br	0.720845	-0.016818	0.974038
H185	H	0.590487	-0.293503	0.269677
H186	H	1.090487	0.206497	0.769677
Br187	Br	0.411063	-0.304579	0.279834
Br188	Br	0.911063	0.195421	0.779834
H189	H	1.038213	-0.887945	0.424037
H190	H	1.538213	-0.387945	0.924037
