data_functionalizedCrystal
_audit_creation_method	'MofGen! by Chris Wilmer'
_symmetry_space_group_name_H-M	'P1'
_symmetry_Int_Tables_number	1
_symmetry_cell_setting	triclinic
loop_
_symmetry_equiv_pos_as_xyz
  x,y,z
_cell_length_a	19.077068
_cell_length_b	19.077142
_cell_length_c	19.076919
_cell_angle_alpha	90.074357
_cell_angle_beta	85.529249
_cell_angle_gamma	89.885450
loop_
_atom_site_label
_atom_site_type_symbol
_atom_site_fract_x
_atom_site_fract_y
_atom_site_fract_z
Zn1	Zn	-0.340467	-1.044046	0.453535
Zn2	Zn	-0.453617	-1.043960	0.340376
Zn3	Zn	-0.331038	-0.931658	0.330962
Zn4	Zn	-0.453191	-0.921799	0.453108
O5	O	-0.394578	-0.985366	0.394495
O6	O	-0.359601	-1.142194	0.442642
O7	O	-0.433589	-1.033152	0.240651
O8	O	-0.233814	-0.950729	0.343461
O9	O	-0.442732	-1.142130	0.359505
O10	O	-0.240742	-1.033300	0.433514
O11	O	-0.343531	-0.950645	0.233735
O12	O	-0.343117	-0.832191	0.343047
O13	O	-0.442005	-0.933926	0.551640
O14	O	-0.432862	-0.824948	0.432787
O15	O	-0.359188	-1.023740	0.551954
O16	O	-0.552035	-1.023592	0.359091
O17	O	-0.551722	-0.933842	0.441915
C18	C	-0.386921	-0.803118	0.386849
C19	C	-0.383663	-0.725150	0.383596
C20	C	-0.428922	-0.684768	0.428722
C21	C	-0.425852	-0.611509	0.425668
C22	C	-0.377525	-0.578633	0.377484
C23	C	-0.332260	-0.619021	0.332356
C24	C	-0.335328	-0.692278	0.335414
C25	C	-0.363329	-0.359939	0.363338
C26	C	-0.360266	-0.286676	0.360282
C27	C	-0.453858	-0.279169	0.453596
C28	C	-0.456924	-0.352428	0.456647
C29	C	-0.411657	-0.392810	0.411521
N30	N	-0.374386	-0.503751	0.374359
N31	N	-0.414792	-0.467691	0.414650
C32	C	-0.577413	-0.977656	0.401494
C33	C	-0.655634	-0.974421	0.404515
C34	C	-0.692526	-1.019663	0.362850
C35	C	-0.766023	-1.016624	0.365696
C36	C	-0.802628	-0.968340	0.410202
C37	C	-0.765732	-0.923096	0.451871
C38	C	-0.692236	-0.926139	0.449029
C39	C	-1.022422	-0.954229	0.423325
C40	C	-1.095922	-0.951188	0.426162
C41	C	-1.096209	-1.044718	0.339988
C42	C	-1.022711	-1.047753	0.337147
C43	C	-0.985822	-1.002512	0.378818
N44	N	-0.877754	-0.965231	0.413109
N45	N	-0.910697	-1.005625	0.375914
C46	C	-0.211031	-0.993124	0.387485
C47	C	-0.132814	-0.996430	0.384498
C48	C	-0.401601	-0.977743	0.578045
C49	C	-0.404593	-0.974495	0.656263
C50	C	-0.402262	-0.168326	0.402163
C51	C	-0.405526	-0.246294	0.405409
C52	C	-0.387534	-0.993001	0.211659
C53	C	-0.384349	-0.996394	0.133440
C54	C	-0.362883	-1.019728	0.693174
C55	C	-0.365691	-1.016667	0.766668
C56	C	-0.410215	-0.968376	0.803249
C57	C	-0.451927	-0.923138	0.766332
C58	C	-0.449114	-0.926196	0.692840
C59	C	-0.423248	-0.954214	1.023031
C60	C	-0.426060	-0.951161	1.096528
C61	C	-0.339822	-1.044689	1.096859
C62	C	-0.337016	-1.047745	1.023365
C63	C	-0.378726	-1.002505	0.986454
N64	N	-0.413089	-0.965248	0.878372
N65	N	-0.375848	-1.005630	0.911333
H66	H	-0.292908	-0.592248	0.293126
H67	H	-0.298469	-0.725157	0.298671
C68	C	-0.652267	-1.072779	0.313888
N69	N	-0.621946	-1.112788	0.277010
H70	H	-0.462318	-0.911834	1.126311
C71	C	-0.313902	-1.072851	0.652942
N72	N	-0.277006	-1.112863	0.622640
C73	C	-0.288029	-1.100862	0.983131
N74	N	-0.251131	-1.140870	0.952826
H75	H	-0.796056	-1.053465	0.331768
H76	H	-0.305864	-1.081520	1.126919
H77	H	-0.331728	-1.053502	0.796718
H78	H	-0.320904	-0.259912	0.321049
C79	C	-0.982450	-1.100853	0.288167
N80	N	-0.952125	-1.140840	0.251267
H81	H	-0.457222	-0.917386	0.992988
C82	C	-0.981856	-0.904496	0.469202
N83	N	-0.951300	-0.867047	0.503774
H84	H	-0.488177	-0.883816	0.796123
C85	C	-0.313538	-0.404349	0.313694
N86	N	-0.276034	-0.437801	0.276299
H87	H	-0.496279	-0.379190	0.495882
H88	H	-0.483072	-0.889356	0.662787
H89	H	-0.795541	-0.883785	0.488112
C90	C	-0.482087	-0.720923	0.481728
N91	N	-0.522130	-0.748154	0.521657
H92	H	-1.125725	-0.911877	0.462417
C93	C	-0.475655	-0.567091	0.475298
N94	N	-0.513172	-0.533636	0.512677
H95	H	-0.490710	-0.246283	0.490335
C96	C	-1.136793	-1.094482	0.294154
N97	N	-1.167362	-1.131967	0.259632
C98	C	-0.651656	-0.876369	0.494863
N99	N	-0.621092	-0.838883	0.529389
