data_functionalizedCrystal
_audit_creation_method	'MofGen! by Chris Wilmer'
_symmetry_space_group_name_H-M	'P1'
_symmetry_Int_Tables_number	1
_symmetry_cell_setting	triclinic
loop_
_symmetry_equiv_pos_as_xyz
  x,y,z
_cell_length_a	10.540510
_cell_length_b	15.995343
_cell_length_c	9.016244
_cell_angle_alpha	89.993040
_cell_angle_beta	89.992396
_cell_angle_gamma	84.001247
loop_
_atom_site_label
_atom_site_type_symbol
_atom_site_fract_x
_atom_site_fract_y
_atom_site_fract_z
O1	O	1.684290	0.117876	-0.123367
O2	O	1.314718	0.129020	-0.123369
O3	O	1.509612	0.001620	-0.123341
O4	O	1.489397	0.245276	-0.123396
O5	O	1.509583	0.001622	0.123340
O6	O	1.314690	0.129023	0.123311
O7	O	1.684261	0.117879	0.123314
Cu8	Cu	1.499473	0.123451	0.145837
Cu9	Cu	1.499507	0.123448	-0.145892
O10	O	1.489368	0.245279	0.123285
C11	C	1.267412	0.128191	-0.000029
C12	C	1.126496	0.125706	-0.000029
C13	C	0.907821	0.214211	-0.000616
C14	C	1.054380	0.216861	-0.000051
C15	C	1.082364	0.079045	0.140845
C16	C	0.935630	0.077041	0.140955
C17	C	0.935883	0.075139	-0.139567
C18	C	1.082164	0.079463	-0.141421
C19	C	1.508764	-0.029579	0.000004
C20	C	1.506263	-0.122544	0.000015
C21	C	1.501725	-0.292758	-0.000018
C22	C	1.361042	-0.316934	-0.000023
C23	C	1.358395	-0.413628	-0.000599
C24	C	1.497255	-0.460344	-0.000050
C25	C	1.568009	-0.430828	-0.140633
C26	C	1.569678	-0.334026	-0.140734
C27	C	1.571705	-0.334115	0.139798
C28	C	1.566511	-0.430641	0.141629
C29	C	1.494736	-0.555057	-0.000073
C30	C	1.504248	-0.198045	-0.000006
C31	C	1.731568	0.118708	-0.000030
C32	C	1.872483	0.121192	-0.000040
C33	C	1.490216	0.276477	-0.000063
C34	C	1.492717	0.369443	-0.000084
N35	N	1.499459	0.123453	0.351023
N36	N	1.499531	0.123439	-0.351078
C37	C	1.394890	0.191375	0.586040
C38	C	1.395116	0.191629	0.414149
C39	C	1.631910	0.143319	0.413357
C40	C	1.631337	0.143800	0.585301
C41	C	1.472898	0.035442	0.585586
C42	C	1.469845	0.036013	0.413632
H43	H	0.865389	0.249722	-0.101645
N44	N	1.701598	-0.315749	0.141506
N45	N	1.726796	-0.241149	0.146185
H46	H	1.818530	-0.228173	0.147381
H47	H	1.110327	0.113413	-0.245638
H48	H	1.711635	0.096312	0.626895
H49	H	1.521274	-0.307522	-0.246224
N50	N	1.662079	0.222943	0.359320
N51	N	1.760566	0.227434	0.283750
H52	H	1.781870	0.283671	0.245591
H53	H	1.711629	0.095188	0.372463
N54	N	0.884573	0.117048	0.273021
N55	N	0.824556	0.076885	0.363457
H56	H	0.788497	0.105144	0.456728
H57	H	1.306500	-0.289253	0.100778
N58	N	1.120479	0.119715	0.272336
N59	N	1.081264	0.194989	0.296090
H60	H	1.108180	0.223718	0.388952
N61	N	1.696221	-0.470008	-0.146700
N62	N	1.772165	-0.459076	-0.043750
H63	H	1.862717	-0.486746	-0.048031
H64	H	1.667836	-0.462990	0.150541
N65	N	1.507134	-0.456394	-0.272378
N66	N	1.411658	-0.496341	-0.263098
H67	H	1.368659	-0.514397	-0.356140
H68	H	0.892950	0.103884	-0.246341
N69	N	1.515990	-0.298987	0.273511
N70	N	1.424020	-0.243036	0.267379
H71	H	1.384655	-0.218227	0.361808
H72	H	1.549208	-0.015123	0.626250
H73	H	1.372413	0.020955	0.372893
H74	H	1.307412	-0.288263	-0.100687
N75	N	1.144890	-0.004018	-0.152074
N76	N	1.223634	-0.030913	-0.055192
H77	H	1.267939	-0.089874	-0.062708
N78	N	0.909306	-0.010722	-0.140702
N79	N	0.843977	-0.037976	-0.039308
H80	H	0.825212	-0.098615	-0.040088
H81	H	1.378420	0.016533	0.629038
H82	H	1.514987	-0.449509	0.245634
H83	H	1.654807	0.208000	0.625376
N84	N	1.271430	0.177044	0.361297
N85	N	1.184341	0.166594	0.451403
H86	H	1.096915	0.156448	0.414086
H87	H	1.296125	0.179607	0.627436
H88	H	0.863815	0.249520	0.099825
H89	H	1.302998	-0.432978	0.100147
N90	N	1.699103	-0.314986	-0.148236
N91	N	1.787909	-0.373170	-0.153391
H92	H	1.879315	-0.359726	-0.158693
H93	H	1.411662	0.256291	0.629218
H94	H	1.083234	0.253365	-0.101040
N95	N	1.559259	-0.030443	0.359739
N96	N	1.675513	-0.029975	0.386642
H97	H	1.738676	-0.076905	0.348580
N98	N	1.089341	0.262997	0.126761
N99	N	1.005448	0.293330	0.215133
H100	H	1.030132	0.325939	0.304676
H101	H	1.412115	0.256915	0.372987
N102	N	1.143003	-0.005131	0.147433
N103	N	1.261898	-0.018113	0.153652
H104	H	1.304732	-0.077562	0.158299
H105	H	0.913574	0.008863	0.147369
H106	H	1.303298	-0.432387	-0.101973
