data_functionalizedCrystal
_audit_creation_method	'MofGen! by Chris Wilmer'
_symmetry_space_group_name_H-M	'P1'
_symmetry_Int_Tables_number	1
_symmetry_cell_setting	triclinic
loop_
_symmetry_equiv_pos_as_xyz
  x,y,z
_cell_length_a	15.944551
_cell_length_b	15.995350
_cell_length_c	14.472310
_cell_angle_alpha	90.003052
_cell_angle_beta	90.008536
_cell_angle_gamma	96.504444
loop_
_atom_site_label
_atom_site_type_symbol
_atom_site_fract_x
_atom_site_fract_y
_atom_site_fract_z
O1	O	-1.114529	0.107983	-0.076736
O2	O	-0.864529	0.357983	0.173264
O3	O	-0.614529	0.607983	0.423264
O4	O	-0.364529	0.857983	0.673264
O5	O	-0.869979	0.121297	-0.076758
O6	O	-0.619979	0.371297	0.173242
O7	O	-0.369979	0.621297	0.423242
O8	O	-0.119979	0.871297	0.673242
O9	O	-0.998939	-0.007247	-0.076750
O10	O	-0.748939	0.242753	0.173250
O11	O	-0.498939	0.492753	0.423250
O12	O	-0.248939	0.742753	0.673250
O13	O	-0.985569	0.236527	-0.076744
O14	O	-0.735569	0.486527	0.173256
O15	O	-0.485569	0.736527	0.423256
O16	O	-0.235569	0.986527	0.673256
O17	O	-0.998906	-0.007240	0.076932
O18	O	-0.748906	0.242760	0.326932
O19	O	-0.498906	0.492760	0.576932
O20	O	-0.248906	0.742760	0.826932
O21	O	-0.869946	0.121304	0.076924
O22	O	-0.619946	0.371304	0.326924
O23	O	-0.369946	0.621304	0.576924
O24	O	-0.119946	0.871304	0.826924
O25	O	-1.114496	0.107990	0.076946
O26	O	-0.864496	0.357990	0.326946
O27	O	-0.614496	0.607990	0.576946
O28	O	-0.364496	0.857990	0.826946
Cu29	Cu	-0.992218	0.114648	0.090967
Cu30	Cu	-0.742218	0.364648	0.340967
Cu31	Cu	-0.492218	0.614648	0.590967
Cu32	Cu	-0.242218	0.864648	0.840967
Cu33	Cu	-0.992257	0.114639	-0.090779
Cu34	Cu	-0.742257	0.364639	0.159221
Cu35	Cu	-0.492257	0.614639	0.409221
Cu36	Cu	-0.242257	0.864639	0.659221
O37	O	-0.985536	0.236535	0.076938
O38	O	-0.735536	0.486535	0.326938
O39	O	-0.485536	0.736535	0.576938
O40	O	-0.235536	0.986535	0.826938
C41	C	-0.838668	0.120748	0.000080
C42	C	-0.588668	0.370748	0.250080
C43	C	-0.338668	0.620748	0.500080
C44	C	-0.088668	0.870748	0.750080
C45	C	-0.745422	0.119091	0.000071
C46	C	-0.495422	0.369091	0.250071
C47	C	-0.245422	0.619091	0.500071
C48	C	0.004578	0.869091	0.750071
C49	C	-0.998370	-0.038438	0.000088
C50	C	-0.748370	0.211562	0.250088
C51	C	-0.498370	0.461562	0.500088
C52	C	-0.248370	0.711562	0.750088
C53	C	-0.996712	-0.131389	0.000079
C54	C	-0.746712	0.118611	0.250079
C55	C	-0.496712	0.368611	0.500079
C56	C	-0.246712	0.618611	0.750079
C57	C	-1.145806	0.108539	0.000106
C58	C	-0.895806	0.358539	0.250106
C59	C	-0.645806	0.608539	0.500106
C60	C	-0.395806	0.858539	0.750106
C61	C	-1.239052	0.110196	0.000109
C62	C	-0.989052	0.360196	0.250109
C63	C	-0.739052	0.610196	0.500109
C64	C	-0.489052	0.860196	0.750109
C65	C	-0.530570	0.035452	0.000087
C66	C	-0.280570	0.285452	0.250087
C67	C	-0.030570	0.535452	0.500087
C68	C	0.219430	0.785452	0.750087
C69	C	-0.469564	0.074288	-0.075685
C70	C	-0.219564	0.324288	0.174315
C71	C	0.030436	0.574288	0.424315
C72	C	0.280436	0.824288	0.674315
C73	C	-0.574697	0.116093	0.000082
C74	C	-0.324697	0.366093	0.250082
C75	C	-0.074697	0.616093	0.500082
C76	C	0.175303	0.866093	0.750082
C77	C	-0.469554	0.074314	0.075833
C78	C	-0.219554	0.324314	0.325833
C79	C	0.030446	0.574314	0.575833
C80	C	0.280446	0.824314	0.825833
C81	C	-0.409784	0.113192	0.000097
C82	C	-0.159784	0.363192	0.250097
C83	C	0.090216	0.613192	0.500097
C84	C	0.340216	0.863192	0.750097
C85	C	-0.514919	0.154950	-0.075753
C86	C	-0.264919	0.404950	0.174247
C87	C	-0.014919	0.654950	0.424247
C88	C	0.235081	0.904950	0.674247
C89	C	-0.514915	0.154966	0.075834
C90	C	-0.264915	0.404966	0.325834
C91	C	-0.014915	0.654966	0.575834
C92	C	0.235085	0.904966	0.825834
C93	C	-0.453926	0.193859	0.000043
C94	C	-0.203926	0.443859	0.250043
C95	C	0.046074	0.693859	0.500043
C96	C	0.296074	0.943859	0.750043
C97	C	-0.669699	0.117762	0.000073
C98	C	-0.419699	0.367762	0.250073
C99	C	-0.169699	0.617762	0.500073
C100	C	0.080301	0.867762	0.750073
C101	C	-0.314783	0.111529	0.000099
C102	C	-0.064783	0.361529	0.250099
C103	C	0.185217	0.611529	0.500099
C104	C	0.435217	0.861529	0.750099
C105	C	-0.986105	0.267726	0.000098
C106	C	-0.736105	0.517726	0.250098
C107	C	-0.486105	0.767726	0.500098
C108	C	-0.236105	1.017726	0.750098
C109	C	-0.987762	0.360676	0.000101
C110	C	-0.737762	0.610676	0.250101
C111	C	-0.487762	0.860676	0.500101
C112	C	-0.237762	1.110676	0.750101
N113	N	-0.992196	0.114654	0.218798
N114	N	-0.742196	0.364654	0.468798
N115	N	-0.492196	0.614654	0.718798
N116	N	-0.242196	0.864654	0.968798
C117	C	-0.993713	0.698424	0.000087
C118	C	-0.743713	0.948424	0.250087
C119	C	-0.493713	1.198424	0.500087
C120	C	-0.243713	1.448424	0.750087
C121	C	-1.085556	0.650995	-0.000248
C122	C	-0.835556	0.900995	0.249752
C123	C	-0.585556	1.150995	0.499752
C124	C	-0.335556	1.400995	0.749752
C125	C	-1.083899	0.554305	0.000103
C126	C	-0.833899	0.804305	0.250103
C127	C	-0.583899	1.054305	0.500103
C128	C	-0.333899	1.304305	0.750103
C129	C	-0.990761	0.530863	0.000093
C130	C	-0.740761	0.780863	0.250093
C131	C	-0.490761	1.030863	0.500093
C132	C	-0.240761	1.280863	0.750093
C133	C	-0.945442	0.571948	0.087846
C134	C	-0.695442	0.821948	0.337846
C135	C	-0.445442	1.071948	0.587846
C136	C	-0.195442	1.321948	0.837846
C137	C	-0.947749	0.668584	0.087914
C138	C	-0.697749	0.918584	0.337914
C139	C	-0.447749	1.168584	0.587914
C140	C	-0.197749	1.418584	0.837914
C141	C	-0.945890	0.668923	-0.086851
C142	C	-0.695890	0.918923	0.163149
C143	C	-0.445890	1.168923	0.413149
C144	C	-0.195890	1.418923	0.663149
C145	C	-0.945912	0.571977	-0.088006
C146	C	-0.695912	0.821977	0.161994
C147	C	-0.445912	1.071977	0.411994
C148	C	-0.195912	1.321977	0.661994
C149	C	-0.989088	0.436166	0.000100
C150	C	-0.739088	0.686166	0.250100
C151	C	-0.489088	0.936166	0.500100
C152	C	-0.239088	1.186166	0.750100
C153	C	-0.995384	0.793122	0.000086
C154	C	-0.745384	1.043122	0.250086
C155	C	-0.495384	1.293122	0.500086
C156	C	-0.245384	1.543122	0.750086
N157	N	-0.992285	0.114627	-0.218610
N158	N	-0.742285	0.364627	0.031390
N159	N	-0.492285	0.614627	0.281390
N160	N	-0.242285	0.864627	0.531390
C161	C	-0.992256	0.114636	0.592890
C162	C	-0.742256	0.364636	0.842890
C163	C	-0.492256	0.614636	1.092890
C164	C	-0.242256	0.864636	1.342890
C165	C	-0.923020	0.183187	0.553719
C166	C	-0.673020	0.433187	0.803719
C167	C	-0.423020	0.683187	1.053719
C168	C	-0.173020	0.933187	1.303719
C169	C	-0.923180	0.183437	0.446631
C170	C	-0.673180	0.433437	0.696631
C171	C	-0.423180	0.683437	0.946631
C172	C	-0.173180	0.933437	1.196631
C173	C	-0.992226	0.114645	0.407298
C174	C	-0.742226	0.364645	0.657298
C175	C	-0.492226	0.614645	0.907298
C176	C	-0.242226	0.864645	1.157298
C177	C	-1.079868	0.133731	0.446144
C178	C	-0.829868	0.383731	0.696144
C179	C	-0.579868	0.633731	0.946144
C180	C	-0.329868	0.883731	1.196144
C181	C	-1.079479	0.134219	0.553266
C182	C	-0.829479	0.384219	0.803266
C183	C	-0.579479	0.634219	1.053266
C184	C	-0.329479	0.884219	1.303266
C185	C	-0.974631	0.026795	0.553415
C186	C	-0.724631	0.276795	0.803415
C187	C	-0.474631	0.526795	1.053415
C188	C	-0.224631	0.776795	1.303415
C189	C	-0.972621	0.027381	0.446287
C190	C	-0.722621	0.277381	0.696287
C191	C	-0.472621	0.527381	0.946287
C192	C	-0.222621	0.777381	1.196287
C193	C	-0.992214	0.114648	0.302410
C194	C	-0.742214	0.364648	0.552410
C195	C	-0.492214	0.614648	0.802410
C196	C	-0.242214	0.864648	1.052410
C197	C	-0.992273	0.114634	0.697778
C198	C	-0.742273	0.364634	0.947778
C199	C	-0.492273	0.614634	1.197778
C200	C	-0.242273	0.864634	1.447778
H201	H	-0.563907	-0.031473	-0.000008
H202	H	-0.313907	0.218527	0.249992
H203	H	-0.063907	0.468527	0.499992
H204	H	0.186093	0.718527	0.749992
H205	H	-0.449470	0.040177	-0.139747
H206	H	-0.199470	0.290177	0.110253
H207	H	0.050530	0.540177	0.360253
H208	H	0.300530	0.790177	0.610253
H209	H	-0.877995	0.556606	-0.093315
H210	H	-0.627995	0.806606	0.156685
H211	H	-0.377995	1.056606	0.406685
H212	H	-0.127995	1.306606	0.656685
F213	F	-0.990908	0.692519	0.173664
F214	F	-0.740908	0.942519	0.423664
F215	F	-0.490908	1.192519	0.673664
F216	F	-0.240908	1.442519	0.923664
F217	F	-0.937535	0.267912	0.588880
F218	F	-0.687535	0.517912	0.838880
F219	F	-0.437535	0.767912	1.088880
F220	F	-0.187535	1.017912	1.338880
H221	H	-1.025121	-0.024218	0.578744
H222	H	-0.775121	0.225782	0.828744
H223	H	-0.525121	0.475782	1.078744
H224	H	-0.275121	0.725782	1.328744
F225	F	-1.034258	-0.042422	0.411305
F226	F	-0.784258	0.207578	0.661305
F227	F	-0.534258	0.457578	0.911305
F228	F	-0.284258	0.707578	1.161305
H229	H	-0.908150	0.012896	0.420898
H230	H	-0.658150	0.262896	0.670898
H231	H	-0.408150	0.512896	0.920898
H232	H	-0.158150	0.762896	1.170898
H233	H	-0.534918	0.189029	-0.139882
H234	H	-0.284918	0.439029	0.110118
H235	H	-0.034918	0.689029	0.360118
H236	H	0.215082	0.939029	0.610118
H237	H	-0.979003	0.544673	-0.152925
H238	H	-0.729003	0.794673	0.097075
H239	H	-0.479003	1.044673	0.347075
H240	H	-0.229003	1.294673	0.597075
F241	F	-1.100657	0.216510	0.411072
F242	F	-0.850657	0.466510	0.661072
F243	F	-0.600657	0.716510	0.911072
F244	F	-0.350657	0.966510	1.161072
H245	H	-0.420764	0.260854	0.000002
H246	H	-0.170764	0.510854	0.250002
H247	H	0.079236	0.760854	0.500002
H248	H	0.329236	1.010854	0.750002
H249	H	-0.535030	0.189048	0.139899
H250	H	-0.285030	0.439048	0.389899
H251	H	-0.035030	0.689048	0.639899
H252	H	0.214970	0.939048	0.889899
F253	F	-1.133309	0.676615	0.081554
F254	F	-0.883309	0.926615	0.331554
F255	F	-0.633309	1.176615	0.581554
F256	F	-0.383309	1.426615	0.831554
H257	H	-1.122274	0.669512	-0.063187
H258	H	-0.872274	0.919512	0.186813
H259	H	-0.622274	1.169512	0.436813
H260	H	-0.372274	1.419512	0.686813
F261	F	-0.443285	0.029720	0.159562
F262	F	-0.193285	0.279720	0.409562
F263	F	0.056715	0.529720	0.659562
F264	F	0.306715	0.779720	0.909562
H265	H	-1.119526	0.525877	-0.062798
H266	H	-0.869526	0.775877	0.187202
H267	H	-0.619526	1.025877	0.437202
H268	H	-0.369526	1.275877	0.687202
H269	H	-1.119731	0.526449	0.063125
H270	H	-0.869731	0.776449	0.313125
H271	H	-0.619731	1.026449	0.563125
H272	H	-0.369731	1.276449	0.813125
H273	H	-0.880319	0.700828	0.091897
H274	H	-0.630319	0.950828	0.341897
H275	H	-0.380319	1.200828	0.591897
H276	H	-0.130319	1.450828	0.841897
F277	F	-0.857380	0.710427	-0.087633
F278	F	-0.607380	0.960427	0.162367
F279	F	-0.357380	1.210427	0.412367
F280	F	-0.107380	1.460427	0.662367
F281	F	-0.937864	0.268646	0.413125
F282	F	-0.687864	0.518646	0.663125
F283	F	-0.437864	0.768646	0.913125
F284	F	-0.187864	1.018646	1.163125
H285	H	-0.877016	0.557819	0.091102
H286	H	-0.627016	0.807819	0.341102
H287	H	-0.377016	1.057819	0.591102
H288	H	-0.127016	1.307819	0.841102
F289	F	-0.986552	0.534871	0.173217
F290	F	-0.736552	0.784871	0.423217
F291	F	-0.486552	1.034871	0.673217
F292	F	-0.236552	1.284871	0.923217
F293	F	-1.148820	0.070207	0.412845
F294	F	-0.898820	0.320207	0.662845
F295	F	-0.648820	0.570207	0.912845
F296	F	-0.398820	0.820207	1.162845
F297	F	-0.985151	0.695770	-0.173791
F298	F	-0.735151	0.945770	0.076209
F299	F	-0.485151	1.195770	0.326209
F300	F	-0.235151	1.445770	0.576209
F301	F	-0.838017	0.168615	0.412302
F302	F	-0.588017	0.418615	0.662302
F303	F	-0.338017	0.668615	0.912302
F304	F	-0.088017	0.918615	1.162302
F305	F	-0.837589	0.168557	0.587399
F306	F	-0.587589	0.418557	0.837399
F307	F	-0.337589	0.668557	1.087399
F308	F	-0.087589	0.918557	1.337399
H309	H	-1.095010	0.198280	0.578245
H310	H	-0.845010	0.448280	0.828245
H311	H	-0.595010	0.698280	1.078245
H312	H	-0.345010	0.948280	1.328245
H313	H	-1.132608	0.086259	0.579175
H314	H	-0.882608	0.336259	0.829175
H315	H	-0.632608	0.586259	1.079175
H316	H	-0.382608	0.836259	1.329175
H317	H	-0.912110	0.008443	0.580476
H318	H	-0.662110	0.258443	0.830476
H319	H	-0.412110	0.508443	1.080476
H320	H	-0.162110	0.758443	1.330476
