data_functionalizedCrystal
_audit_creation_method	'MofGen! by Chris Wilmer'
_symmetry_space_group_name_H-M	'P1'
_symmetry_Int_Tables_number	1
_symmetry_cell_setting	triclinic
loop_
_symmetry_equiv_pos_as_xyz
  x,y,z
_cell_length_a	27.732048
_cell_length_b	14.519709
_cell_length_c	13.596369
_cell_angle_alpha	90.006934
_cell_angle_beta	89.999836
_cell_angle_gamma	83.161400
loop_
_atom_site_label
_atom_site_type_symbol
_atom_site_fract_x
_atom_site_fract_y
_atom_site_fract_z
O1	O	-0.641452	-0.109733	-0.081667
O2	O	-0.500738	-0.126418	-0.081697
O3	O	-0.574826	0.016228	-0.081672
O4	O	-0.567364	-0.252379	-0.081692
O5	O	-0.574819	0.016236	0.081911
O6	O	-0.500731	-0.126410	0.081886
O7	O	-0.641445	-0.109725	0.081916
Zn8	Zn	-0.571087	-0.118067	0.107873
Zn9	Zn	-0.571096	-0.118076	-0.107654
O10	O	-0.567357	-0.252371	0.081891
C11	C	-0.482726	-0.126064	0.000091
C12	C	-0.429066	-0.125009	0.000080
C13	C	-0.574475	0.050586	0.000119
C14	C	-0.573433	0.152949	0.000120
C15	C	-0.659457	-0.110079	0.000126
C16	C	-0.713117	-0.111134	0.000131
C17	C	-0.090622	-0.202664	0.000117
C18	C	0.111056	-0.198751	0.000126
O19	O	0.141972	-0.269761	0.000163
N20	N	0.130584	-0.114168	0.000130
C21	C	0.099689	-0.030557	0.000139
O22	O	0.120926	0.041476	0.000153
C23	C	-0.101988	-0.034471	0.000137
C24	C	-0.121513	-0.119060	0.000122
C25	C	-0.110148	-0.287246	0.000103
C26	C	-0.160564	-0.288223	0.000096
C27	C	-0.191455	-0.204619	0.000101
C28	C	-0.171930	-0.120037	0.000115
C29	C	-0.132882	0.049139	0.000152
C30	C	-0.183304	0.048153	0.000154
C31	C	-0.202829	-0.036436	0.000140
C32	C	-0.253238	-0.037410	0.000113
N33	N	-0.272766	-0.121993	0.000108
C34	C	-0.241875	-0.205597	0.000103
C35	C	0.205573	-0.028508	0.000138
C36	C	0.255992	-0.027530	0.000136
C37	C	0.267356	-0.195724	0.000125
C38	C	0.216936	-0.196702	0.000120
C39	C	0.186045	-0.113091	0.000133
C40	C	-0.347754	-0.207643	0.000086
C41	C	-0.398175	-0.208613	0.000074
C42	C	-0.409534	-0.040420	0.000090
C43	C	-0.359117	-0.039449	0.000097
C44	C	-0.328227	-0.123069	0.000098
O45	O	-0.284182	0.033562	0.000086
O46	O	-0.263121	-0.277620	0.000110
C47	C	-0.040206	-0.201687	0.000124
C48	C	-0.020680	-0.117105	0.000137
C49	C	-0.051571	-0.033501	0.000143
C50	C	0.029739	-0.116126	0.000136
C51	C	0.060630	-0.199731	0.000131
C52	C	0.041102	-0.284314	0.000126
C53	C	-0.009315	-0.285291	0.000119
C54	C	-0.032043	0.051082	0.000147
C55	C	0.018374	0.052053	0.000154
C56	C	0.049265	-0.031552	0.000148
C57	C	-0.567708	-0.286729	0.000098
C58	C	-0.568751	-0.389092	0.000091
N59	N	-0.571084	-0.118059	0.254965
C60	C	-0.569596	0.527778	0.000093
C61	C	-0.570662	0.423488	0.000101
C62	C	-0.571514	0.340367	0.000107
C63	C	-0.572580	0.236071	0.000113
N64	N	-0.571103	-0.118076	-0.254746
C65	C	-0.571096	-0.118077	0.656256
C66	C	-0.571091	-0.118075	0.544605
C67	C	-0.571090	-0.118069	0.455614
C68	C	-0.571085	-0.118066	0.343956
H69	H	-0.322609	-0.275734	0.000090
H70	H	-0.085001	-0.355330	0.000102
N71	N	-0.181620	-0.379458	0.000075
H72	H	-0.154394	-0.432265	0.000073
H73	H	-0.202293	-0.383534	0.060715
H74	H	0.292516	-0.263798	0.000121
H75	H	0.271885	0.041351	0.000133
N76	N	-0.030364	-0.376532	0.000112
H77	H	-0.051030	-0.380692	0.060751
H78	H	-0.051003	-0.380646	-0.060570
H79	H	-0.208454	0.116240	0.000166
N80	N	0.195878	-0.287934	0.000101
H81	H	0.223102	-0.340744	0.000093
H82	H	0.175207	-0.292010	0.060743
H83	H	0.180425	0.039581	0.000149
H84	H	-0.116994	0.118020	0.000165
H85	H	-0.343219	0.029430	0.000094
N86	N	0.074425	-0.374488	0.000114
H87	H	0.109327	-0.361024	0.000120
H88	H	0.068095	-0.411381	0.060753
N89	N	-0.442857	0.049750	0.000097
H90	H	-0.477759	0.036288	0.000096
H91	H	-0.436528	0.086641	0.060747
N92	N	0.039430	0.143294	0.000163
H93	H	0.012206	0.196103	0.000168
H94	H	0.060097	0.147364	0.060812
N95	N	-0.065358	0.141260	0.000160
H96	H	-0.045332	0.194985	0.000166
H97	H	-0.086523	0.144522	-0.060484
H98	H	-0.414069	-0.277498	0.000062
