data_functionalizedCrystal
_audit_creation_method	'MofGen! by Chris Wilmer'
_symmetry_space_group_name_H-M	'P1'
_symmetry_Int_Tables_number	1
_symmetry_cell_setting	triclinic
loop_
_symmetry_equiv_pos_as_xyz
  x,y,z
_cell_length_a	10.686285
_cell_length_b	10.685972
_cell_length_c	11.169409
_cell_angle_alpha	94.398131
_cell_angle_beta	85.599660
_cell_angle_gamma	90.336301
loop_
_atom_site_label
_atom_site_type_symbol
_atom_site_fract_x
_atom_site_fract_y
_atom_site_fract_z
Zn1	Zn	-0.352394	-1.956358	-0.795842
Zn2	Zn	0.147606	-1.456358	-0.295842
Zn3	Zn	-0.562221	-1.972351	-0.581043
Zn4	Zn	-0.062221	-1.472351	-0.081043
Zn5	Zn	-0.368538	-1.746564	-0.578669
Zn6	Zn	0.131462	-1.246564	-0.078669
Zn7	Zn	-0.578177	-1.762666	-0.765202
Zn8	Zn	-0.078177	-1.262666	-0.265202
O9	O	-0.465333	-1.859485	-0.680189
O10	O	0.034667	-1.359485	-0.180189
O11	O	-0.366794	-2.134033	-0.781165
O12	O	0.133206	-1.634033	-0.281165
O13	O	-0.536608	-1.942354	-0.412769
O14	O	-0.036608	-1.442354	0.087231
O15	O	-0.190848	-1.760962	-0.619307
O16	O	0.309152	-1.260962	-0.119307
O17	O	-0.520954	-2.145783	-0.623353
O18	O	-0.020954	-1.645783	-0.123353
O19	O	-0.178987	-1.915097	-0.778863
O20	O	0.321013	-1.415097	-0.278863
O21	O	-0.394309	-1.776469	-0.411025
O22	O	0.105691	-1.276469	0.088975
O23	O	-0.409781	-1.573147	-0.589597
O24	O	0.090219	-1.073147	-0.089597
O25	O	-0.548148	-1.788406	-0.937226
O26	O	-0.048148	-1.288406	-0.437226
O27	O	-0.563802	-1.584977	-0.726642
O28	O	-0.063802	-1.084977	-0.226642
O29	O	-0.382266	-1.930711	-0.959737
O30	O	0.117734	-1.430711	-0.459737
O31	O	-0.739886	-1.957967	-0.593643
O32	O	-0.239886	-1.457967	-0.093643
O33	O	-0.751609	-1.803913	-0.728944
O34	O	-0.251609	-1.303913	-0.228944
C35	C	-0.490275	-1.533543	-0.654537
C36	C	0.009725	-1.033543	-0.154537
C37	C	-0.500976	-1.394106	-0.643590
C38	C	-0.000976	-0.894106	-0.143590
C39	C	-0.791263	-1.884457	-0.658255
C40	C	-0.291263	-1.384457	-0.158255
C41	C	-0.930689	-1.895255	-0.648921
C42	C	-0.430689	-1.395255	-0.148921
C43	C	-0.138127	-1.834450	-0.702238
C44	C	0.361873	-1.334450	-0.202238
C45	C	0.001309	-1.823781	-0.711634
C46	C	0.501309	-1.323781	-0.211634
C47	C	-0.465186	-1.859570	-0.993249
C48	C	0.034814	-1.359570	-0.493249
C49	C	-0.465123	-1.859607	-1.126656
C50	C	0.034877	-1.359607	-0.626656
C51	C	-0.440285	-1.186699	-0.705937
C52	C	0.059715	-0.686699	-0.205937
C53	C	-0.429589	-1.326136	-0.716896
C54	C	0.070411	-0.826136	-0.216896
C55	C	-0.465383	-1.859465	-0.368359
C56	C	0.034617	-1.359465	0.131641
C57	C	-0.465073	-1.859644	-0.234996
C58	C	0.034927	-1.359644	0.265004
H59	H	-0.360278	-1.374618	-0.788031
H60	H	0.139722	-0.874618	-0.288031
Cl61	Cl	-0.607981	-1.319253	-0.533740
Cl62	Cl	-0.107981	-0.819253	-0.033740
Cl63	Cl	-0.923900	-1.716550	-0.805562
Cl64	Cl	-0.423900	-1.216550	-0.305562
H65	H	-0.979140	-1.964702	-0.588073
H66	H	-0.479140	-1.464702	-0.088073
