data_functionalizedCrystal
_audit_creation_method	'MofGen! by Chris Wilmer'
_symmetry_space_group_name_H-M	'P1'
_symmetry_Int_Tables_number	1
_symmetry_cell_setting	triclinic
loop_
_symmetry_equiv_pos_as_xyz
  x,y,z
_cell_length_a	12.811439
_cell_length_b	12.837943
_cell_length_c	11.892095
_cell_angle_alpha	94.305320
_cell_angle_beta	88.502246
_cell_angle_gamma	90.589200
loop_
_atom_site_label
_atom_site_type_symbol
_atom_site_fract_x
_atom_site_fract_y
_atom_site_fract_z
O1	O	-1.403419	0.143153	0.049861
O2	O	-1.101351	0.156175	0.018896
O3	O	-1.245687	-0.001316	0.033691
O4	O	-1.259083	0.300644	0.035066
O5	O	-1.233650	0.011795	0.220465
O6	O	-1.089314	0.169286	0.205670
O7	O	-1.391383	0.156264	0.236635
Zn8	Zn	-1.238437	0.164857	0.250806
Zn9	Zn	-1.254296	0.147582	0.004724
O10	O	-1.247046	0.313755	0.221840
C11	C	-1.056401	0.161600	0.108292
C12	C	-0.940395	0.158219	0.096400
C13	C	-0.709283	0.166141	0.277697
C14	C	-0.600284	0.162964	0.266529
C15	C	-0.613398	0.148681	0.062897
C16	C	-0.722396	0.151858	0.074065
C17	C	-0.770334	0.160589	0.181469
C18	C	-0.879335	0.163774	0.192635
C19	C	-0.892447	0.149483	-0.010995
C20	C	-0.783448	0.146306	-0.022163
C21	C	-1.235143	-0.033433	0.126611
C22	C	-1.221647	-0.148666	0.125220
C23	C	-0.436333	0.150843	0.147239
C24	C	-0.552338	0.154236	0.159133
C25	C	-1.257590	0.345872	0.128917
C26	C	-1.271087	0.461105	0.130301
N27	N	-1.227622	0.176645	0.418752
C28	C	-1.108831	0.700193	0.113648
C29	C	-1.121508	0.808465	0.114947
C30	C	-1.309116	0.785922	0.134191
C31	C	-1.296440	0.677650	0.132891
C32	C	-1.196294	0.634790	0.122621
C33	C	-1.183617	0.526517	0.121330
C34	C	-1.371226	0.503975	0.140566
C35	C	-1.383903	0.612247	0.141865
N36	N	-1.265119	0.135786	-0.163221
C37	C	-1.340372	0.053696	0.666957
C38	C	-1.332821	0.061944	0.784525
C39	C	-1.204962	0.201383	0.771457
C40	C	-1.212514	0.193135	0.653889
C41	C	-1.280222	0.119290	0.601644
C42	C	-1.287779	0.111048	0.484074
C43	C	-1.159915	0.250481	0.471008
C44	C	-1.152363	0.258729	0.588576
H45	H	-0.550579	0.167490	0.344889
Cl46	Cl	-1.481185	0.421747	0.151850
Cl47	Cl	-1.067246	0.351556	0.654264
Cl48	Cl	-0.553118	0.137605	-0.072112
H49	H	-0.744402	0.139192	-0.109608
Cl50	Cl	-0.969204	0.142522	-0.131976
H51	H	-1.390646	0.820843	0.142623
Cl52	Cl	-1.425501	-0.039124	0.601276
H53	H	-1.110940	0.303895	0.417816
Cl54	Cl	-1.057721	0.472637	0.108423
H55	H	-1.342913	0.050923	0.441538
Cl56	Cl	-1.408439	-0.020523	0.866630
H57	H	-1.149828	0.261498	0.814010
Cl58	Cl	-0.982936	0.646309	0.100755
H59	H	-1.050286	0.861713	0.107639
Cl60	Cl	-1.509794	0.666138	0.154771
Cl61	Cl	-0.939598	0.174753	0.327655
Cl62	Cl	-0.769551	0.177132	0.412714
