data_functionalizedCrystal
_audit_creation_method	'MofGen! by Chris Wilmer'
_symmetry_space_group_name_H-M	'P1'
_symmetry_Int_Tables_number	1
_symmetry_cell_setting	triclinic
loop_
_symmetry_equiv_pos_as_xyz
  x,y,z
_cell_length_a	19.288840
_cell_length_b	17.699083
_cell_length_c	16.176319
_cell_angle_alpha	90.004339
_cell_angle_beta	90.013199
_cell_angle_gamma	83.204515
loop_
_atom_site_label
_atom_site_type_symbol
_atom_site_fract_x
_atom_site_fract_y
_atom_site_fract_z
O1	O	0.921473	0.094324	0.068886
O2	O	1.421473	0.594324	0.568886
O3	O	0.719225	0.107081	0.068858
O4	O	1.219225	0.607081	0.568858
O5	O	0.826063	-0.009495	0.068866
O6	O	1.326063	0.490505	0.568866
O7	O	0.814635	0.210900	0.068879
O8	O	1.314635	0.710900	0.568879
O9	O	0.826050	-0.009496	-0.068628
O10	O	1.326050	0.490504	0.431372
O11	O	0.719212	0.107080	-0.068635
O12	O	1.219212	0.607080	0.431365
O13	O	0.921460	0.094324	-0.068607
O14	O	1.421460	0.594324	0.431393
Cu15	Cu	0.820335	0.100702	-0.081175
Cu16	Cu	1.320335	0.600702	0.418825
Cu17	Cu	0.820350	0.100702	0.081426
Cu18	Cu	1.320350	0.600702	0.581426
O19	O	0.814622	0.210900	-0.068615
O20	O	1.314622	0.710900	0.431385
C21	C	0.693341	0.106673	0.000108
C22	C	1.193341	0.606673	0.500108
C23	C	0.616235	0.105451	0.000096
C24	C	1.116235	0.605451	0.500096
C25	C	0.580038	0.104863	0.075046
C26	C	1.080038	0.604863	0.575046
C27	C	0.507590	0.103706	0.075056
C28	C	1.007590	0.603706	0.575056
C29	C	0.471343	0.103121	0.000112
C30	C	0.971343	0.603121	0.500112
C31	C	0.507549	0.103713	-0.074847
C32	C	1.007549	0.603713	0.425153
C33	C	0.579995	0.104877	-0.074855
C34	C	1.079995	0.604877	0.425145
C35	C	0.361956	0.056944	-0.057296
C36	C	0.861956	0.556944	0.442704
C37	C	0.289512	0.055774	-0.057285
C38	C	0.789512	0.555774	0.442715
C39	C	0.247895	0.099531	0.000134
C40	C	0.747895	0.599531	0.500134
C41	C	0.278733	0.144449	0.057555
C42	C	0.778733	0.644449	0.557555
C43	C	0.351179	0.145614	0.057548
C44	C	0.851179	0.645614	0.557548
C45	C	0.392788	0.101858	0.000113
C46	C	0.892788	0.601858	0.500113
C47	C	0.133141	0.097691	0.075099
C48	C	0.633141	0.597691	0.575099
C49	C	0.060691	0.096538	0.075106
C50	C	0.560691	0.596538	0.575106
C51	C	0.060653	0.096537	-0.074799
C52	C	0.560653	0.596537	0.425201
C53	C	0.133101	0.097697	-0.074804
C54	C	0.633101	0.597697	0.425196
C55	C	0.169341	0.098270	0.000148
C56	C	0.669341	0.598270	0.500148
C57	C	0.825647	-0.037692	0.000119
C58	C	1.325647	0.462308	0.500119
C59	C	0.824418	-0.121708	0.000118
C60	C	1.324418	0.378292	0.500118
C61	C	0.887130	-0.170423	0.000126
C62	C	1.387130	0.329577	0.500126
C63	C	0.885972	-0.249365	0.000133
C64	C	1.385972	0.250635	0.500133
C65	C	0.822101	-0.279590	0.000127
C66	C	1.322101	0.220410	0.500127
C67	C	0.759384	-0.230868	0.000121
C68	C	1.259384	0.269132	0.500121
C69	C	0.760544	-0.151928	0.000120
C70	C	1.260544	0.348072	0.500120
C71	C	0.754708	-0.549224	0.000128
C72	C	1.254708	-0.049224	0.500128
C73	C	0.753554	-0.628170	0.000126
C74	C	1.253554	-0.128170	0.500126
C75	C	0.880136	-0.646661	0.000140
C76	C	1.380136	-0.146661	0.500140
C77	C	0.881296	-0.567721	0.000139
C78	C	1.381296	-0.067721	0.500139
C79	C	0.818580	-0.519006	0.000138
C80	C	1.318580	-0.019006	0.500138
C81	C	0.819836	-0.433409	0.000132
C82	C	1.319836	0.066591	0.500132
C83	C	0.820843	-0.365185	0.000127
C84	C	1.320843	0.134815	0.500127
C85	C	0.947344	0.094731	0.000145
C86	C	1.447344	0.594731	0.500145
C87	C	1.024450	0.095954	0.000162
C88	C	1.524450	0.595954	0.500162
C89	C	0.815038	0.239096	0.000134
C90	C	1.315038	0.739096	0.500134
C91	C	0.816266	0.323113	0.000140
C92	C	1.316266	0.823113	0.500140
N93	N	0.820330	0.100701	-0.195541
N94	N	1.320330	0.600701	0.304459
C95	C	0.862375	0.146487	-0.238792
C96	C	1.362375	0.646487	0.261208
C97	C	0.862383	0.146484	-0.325339
C98	C	1.362383	0.646484	0.174661
C99	C	0.820340	0.100699	-0.368633
C100	C	1.320340	0.600699	0.131367
C101	C	0.778293	0.054908	-0.325376
C102	C	1.278293	0.554908	0.174624
C103	C	0.778290	0.054908	-0.238830
C104	C	1.278290	0.554908	0.261170
C105	C	0.778306	0.054909	-0.674404
C106	C	1.278306	0.554909	-0.174404
C107	C	0.778311	0.054915	-0.760955
C108	C	1.278311	0.554915	-0.260955
C109	C	0.862399	0.146486	-0.760913
C110	C	1.362399	0.646486	-0.260913
C111	C	0.862396	0.146485	-0.674367
C112	C	1.362396	0.646485	-0.174367
C113	C	0.820351	0.100692	-0.631117
C114	C	1.320351	0.600692	-0.131117
C115	C	0.820345	0.100694	-0.537273
C116	C	1.320345	0.600694	-0.037273
C117	C	0.820343	0.100700	-0.462476
C118	C	1.320343	0.600700	0.037524
N119	N	0.820361	0.100697	0.195791
N120	N	1.320361	0.600697	0.695791
H121	H	0.031220	0.096064	0.136142
H122	H	0.531220	0.596064	0.636142
N123	N	0.384435	0.194059	0.119477
N124	N	0.884435	0.694059	0.619477
H125	H	0.365084	0.249175	0.111821
H126	H	0.865084	0.749175	0.611821
H127	H	0.436639	0.188094	0.110728
H128	H	0.936639	0.688094	0.610728
H129	H	0.244850	0.180083	0.104309
H130	H	0.744850	0.680083	0.604309
N131	N	0.732961	0.005520	-0.627762
N132	N	1.232961	0.505520	-0.127762
H133	H	0.706327	-0.023480	-0.668324
H134	H	1.206327	0.476520	-0.168324
H135	H	0.698947	0.038614	-0.591859
H136	H	1.198947	0.538614	-0.091859
N137	N	0.732948	0.005529	-0.372075
N138	N	1.232948	0.505529	0.127925
H139	H	0.682387	0.020603	-0.357027
H140	H	1.182387	0.520603	0.142973
H141	H	0.746802	-0.049563	-0.357000
H142	H	1.246802	0.450437	0.143000
H143	H	0.709477	-0.112264	0.000114
H144	H	1.209477	0.387736	0.500114
H145	H	0.395835	0.021309	-0.104058
H146	H	0.895835	0.521309	0.395942
H147	H	0.707380	-0.255483	0.000121
H148	H	1.207380	0.244517	0.500121
N149	N	0.172235	0.098313	0.155934
N150	N	0.672235	0.598313	0.655934
H151	H	0.138307	0.097771	0.203418
H152	H	0.638307	0.597771	0.703418
H153	H	0.196579	0.145703	0.159197
H154	H	0.696579	0.645703	0.659197
N155	N	0.950183	-0.535118	0.000151
N156	N	1.450183	-0.035118	0.500151
H157	H	0.953481	-0.502782	-0.050818
H158	H	1.453481	-0.002782	0.449182
H159	H	0.989697	-0.577999	0.000191
H160	H	1.489697	-0.077999	0.500191
N161	N	0.021570	0.095901	-0.155634
N162	N	0.521570	0.595901	0.344366
H163	H	-0.029817	0.095072	-0.144257
H164	H	0.470183	0.595072	0.355743
H165	H	0.039946	0.049191	-0.188359
H166	H	0.539946	0.549191	0.311641
H167	H	0.264410	0.019196	-0.104038
H168	H	0.764410	0.519196	0.395962
N169	N	0.947783	-0.699203	0.000141
N170	N	1.447783	-0.199203	0.500141
H171	H	0.937361	-0.753798	0.000143
H172	H	1.437361	-0.253798	0.500143
H173	H	0.975634	-0.689438	0.051112
H174	H	1.475634	-0.189438	0.551112
H175	H	0.703641	-0.509570	0.000127
H176	H	1.203641	-0.009570	0.500127
N177	N	0.732941	0.005522	-0.192180
N178	N	1.232941	0.505522	0.307820
H179	H	0.698887	0.038567	-0.156276
H180	H	1.198887	0.538567	0.343724
H181	H	0.763299	-0.031603	-0.156319
H182	H	1.263299	0.468397	0.343681
N183	N	0.907744	0.195872	-0.371963
N184	N	1.407744	0.695872	0.128037
H185	H	0.877455	0.233013	-0.407883
H186	H	1.377455	0.733013	0.092117
H187	H	0.941803	0.162773	-0.407806
H188	H	1.441803	0.662773	0.092194
H189	H	0.478032	0.103238	-0.135867
H190	H	0.978032	0.603238	0.364133
N191	N	0.953612	-0.301906	0.000132
N192	N	1.453612	0.198094	0.500132
H193	H	0.943188	-0.356501	0.000135
H194	H	1.443188	0.143499	0.500135
H195	H	0.981461	-0.292140	0.051102
H196	H	1.481461	0.207860	0.551102
N197	N	0.907718	0.195873	-0.192099
N198	N	1.407718	0.695873	0.307901
H199	H	0.934356	0.224876	-0.232635
H200	H	1.434356	0.724876	0.267365
H201	H	0.941728	0.162774	-0.156183
H202	H	1.441728	0.662774	0.343817
H203	H	0.896635	0.183771	-0.796137
H204	H	1.396635	0.683771	-0.296137
N205	N	0.619126	0.105479	0.155883
N206	N	1.119126	0.605479	0.655883
H207	H	0.585197	0.104930	0.203365
H208	H	1.085197	0.604930	0.703365
H209	H	0.643468	0.152870	0.159154
H210	H	1.143468	0.652870	0.659154
H211	H	0.162573	0.098170	-0.135836
H212	H	0.662573	0.598170	0.364164
H213	H	0.609466	0.105356	-0.135890
H214	H	1.109466	0.605356	0.364110
H215	H	0.939141	-0.145821	0.000126
H216	H	1.439141	0.354179	0.500126
N217	N	0.468536	0.103074	0.155897
N218	N	0.968536	0.603074	0.655897
H219	H	0.502487	0.103616	0.203376
H220	H	1.002487	0.603616	0.703376
H221	H	0.444198	0.055680	0.159155
H222	H	0.944198	0.555680	0.659155
N223	N	0.732970	0.005524	-0.807654
N224	N	1.232970	0.505524	-0.307654
H225	H	0.706337	-0.023491	-0.767124
H226	H	1.206337	0.476509	-0.267124
H227	H	0.763329	-0.031555	-0.843555
H228	H	1.263329	0.468445	-0.343555
H229	H	0.896628	0.183770	-0.639122
H230	H	1.396628	0.683770	-0.139122
H231	H	0.701540	-0.652776	0.000119
H232	H	1.201540	-0.152776	0.500119
