data_functionalizedCrystal
_audit_creation_method	'MofGen! by Chris Wilmer'
_symmetry_space_group_name_H-M	'P1'
_symmetry_Int_Tables_number	1
_symmetry_cell_setting	triclinic
loop_
_symmetry_equiv_pos_as_xyz
  x,y,z
_cell_length_a	16.120530
_cell_length_b	16.120484
_cell_length_c	16.120256
_cell_angle_alpha	84.383827
_cell_angle_beta	90.128265
_cell_angle_gamma	89.832673
loop_
_atom_site_label
_atom_site_type_symbol
_atom_site_fract_x
_atom_site_fract_y
_atom_site_fract_z
Zn1	Zn	1.224986	0.422281	-0.554816
Zn2	Zn	1.224882	0.554961	-0.422121
Zn3	Zn	1.093725	0.408193	-0.408058
Zn4	Zn	1.078879	0.554198	-0.554054
O5	O	1.155618	0.484908	-0.484762
O6	O	1.341008	0.446097	-0.543418
O7	O	1.213653	0.529915	-0.303622
O8	O	1.117394	0.293431	-0.421960
O9	O	1.340931	0.543577	-0.445927
O10	O	1.213831	0.303782	-0.529783
O11	O	1.117293	0.422085	-0.293290
O12	O	0.975720	0.421345	-0.421221
O13	O	1.092090	0.542275	-0.670788
O14	O	0.964812	0.528614	-0.528483
O15	O	1.199435	0.445357	-0.671349
O16	O	1.199257	0.671491	-0.445188
O17	O	1.091989	0.670930	-0.542119
C18	C	0.940179	0.473368	-0.473243
C19	C	0.848012	0.468453	-0.468336
C20	C	1.144022	0.701453	-0.495116
C21	C	1.139136	0.794098	-0.499577
C22	C	1.167280	0.267520	-0.474388
C23	C	1.172250	0.174881	-0.469967
C24	C	0.679260	0.459459	-0.459384
C25	C	0.632809	0.510422	-0.510204
C26	C	0.538910	0.505418	-0.505223
C27	C	0.773168	0.464462	-0.464364
C28	C	1.371898	0.496494	-0.496326
C29	C	1.464063	0.501431	-0.501254
C30	C	1.144118	0.495303	-0.702156
C31	C	1.139217	0.499732	-0.794796
C32	C	1.130219	0.963721	-0.507739
C33	C	1.181165	1.005263	-0.461807
C34	C	1.176203	1.099648	-0.466348
C35	C	1.135179	0.869328	-0.503199
C36	C	1.181174	0.461788	-1.005960
C37	C	1.130244	0.507783	-0.964402
C38	C	1.135238	0.503302	-0.870024
C39	C	1.176181	0.466268	-1.100346
C40	C	1.167124	0.474497	-0.268214
C41	C	1.172198	0.469841	-0.175572
H42	H	0.648510	0.412073	-0.412137
C43	C	1.245117	0.957558	-0.404063
C44	C	1.215771	0.892701	-0.333858
C45	C	1.279716	0.844992	-0.276112
C46	C	1.373007	0.862139	-0.288571
C47	C	1.402358	0.926999	-0.358779
C48	C	1.338412	0.974708	-0.416525
H49	H	1.146707	0.880005	-0.324632
H50	H	1.257988	0.796979	-0.224139
H51	H	1.420343	0.826822	-0.245824
H52	H	1.471422	0.939695	-0.368005
H53	H	1.360140	1.022721	-0.468498
C54	C	1.066264	0.565521	-1.012083
C55	C	1.007259	0.618799	-0.964025
C56	C	0.943279	0.676531	-1.011710
C57	C	0.938304	0.680983	-1.107453
C58	C	0.997312	0.627703	-1.155516
C59	C	1.061292	0.569971	-1.107831
H60	H	1.010939	0.615505	-0.893146
H61	H	0.899597	0.715972	-0.976130
H62	H	0.890942	0.723719	-1.142752
H63	H	0.993631	0.630997	-1.226395
H64	H	1.104973	0.530530	-1.143412
H65	H	1.228523	0.419049	-0.970662
C66	C	1.066258	1.011427	-0.565462
C67	C	1.007230	0.963396	-0.618672
C68	C	0.943268	1.011113	-0.676390
C69	C	0.938333	1.106863	-0.680899
C70	C	0.997363	1.154900	-0.627688
C71	C	1.061326	1.107182	-0.569969
H72	H	1.010881	0.892511	-0.615336
H73	H	0.899570	0.975552	-0.715781
H74	H	0.890984	1.142186	-0.723626
H75	H	0.993712	1.225784	-0.631024
H76	H	1.105023	1.142743	-0.530579
C77	C	0.674347	0.574453	-0.574031
C78	C	0.769614	0.579438	-0.578982
C79	C	0.811155	0.643469	-0.642802
C80	C	0.757429	0.702515	-0.701671
C81	C	0.662157	0.697531	-0.696722
C82	C	0.620615	0.633500	-0.632902
H83	H	0.809390	0.535727	-0.535402
H84	H	0.881682	0.647157	-0.646465
H85	H	0.788181	0.749914	-0.748914
H86	H	0.622381	0.741242	-0.740302
H87	H	0.550088	0.629812	-0.629239
