data_functionalizedCrystal
_audit_creation_method	'MofGen! by Chris Wilmer'
_symmetry_space_group_name_H-M	'P1'
_symmetry_Int_Tables_number	1
_symmetry_cell_setting	triclinic
loop_
_symmetry_equiv_pos_as_xyz
  x,y,z
_cell_length_a	17.077404
_cell_length_b	29.839131
_cell_length_c	17.077395
_cell_angle_alpha	90.030654
_cell_angle_beta	90.015641
_cell_angle_gamma	90.041645
loop_
_atom_site_label
_atom_site_type_symbol
_atom_site_fract_x
_atom_site_fract_y
_atom_site_fract_z
Zn1	Zn	1.199924	-0.178856	0.443824
Zn2	Zn	1.199797	-0.253985	0.312550
Zn3	Zn	1.068664	-0.178870	0.312572
Zn4	Zn	1.068581	-0.253960	0.443774
O5	O	1.134241	-0.216418	0.378180
O6	O	1.309754	-0.188827	0.426422
O7	O	1.182384	-0.244037	0.202706
O8	O	1.086164	-0.116001	0.330013
O9	O	1.309661	-0.244024	0.329976
O10	O	1.182600	-0.115991	0.426443
O11	O	1.086041	-0.188851	0.202722
O12	O	0.958806	-0.188827	0.329964
O13	O	1.086022	-0.243981	0.553627
O14	O	0.958745	-0.243995	0.426358
O15	O	1.182519	-0.188803	0.553664
O16	O	1.182303	-0.316849	0.329927
O17	O	1.085899	-0.316831	0.426336
C18	C	0.930294	-0.216410	0.378158
C19	C	0.843044	-0.216417	0.378168
C20	C	1.134100	-0.333141	0.378141
C21	C	1.134111	-0.383075	0.378151
C22	C	0.802042	-0.245187	0.428279
C23	C	0.720062	-0.245188	0.428292
C24	C	0.679084	-0.216421	0.378188
C25	C	0.720092	-0.187648	0.328074
C26	C	0.802071	-0.187646	0.328066
C27	C	0.549222	-0.187657	0.328093
C28	C	0.467237	-0.187661	0.328100
C29	C	0.467213	-0.245199	0.428319
C30	C	0.549192	-0.245196	0.428311
C31	C	0.590193	-0.216424	0.378196
C32	C	1.184530	-0.692715	0.328053
C33	C	1.184627	-0.880388	0.328083
O34	O	1.227383	-0.904651	0.285459
N35	N	1.134404	-0.903860	0.378239
C36	C	1.084157	-0.880411	0.428394
O37	O	1.041447	-0.904681	0.471061
C38	C	1.084065	-0.692738	0.428367
C39	C	1.134285	-0.669269	0.378203
C40	C	1.234747	-0.669246	0.277893
C41	C	1.234720	-0.622331	0.277883
C42	C	1.184475	-0.598884	0.328033
C43	C	1.134258	-0.622354	0.378193
C44	C	1.033822	-0.669290	0.478526
C45	C	1.033805	-0.622369	0.478516
C46	C	1.084026	-0.598900	0.428352
C47	C	1.083985	-0.551992	0.428332
N48	N	1.134208	-0.528520	0.378177
C49	C	1.184453	-0.551967	0.328027
C50	C	1.084208	-0.978941	0.428404
C51	C	1.084230	-1.025859	0.428410
C52	C	1.184701	-1.025834	0.328100
C53	C	1.184675	-0.978915	0.328090
C54	C	1.134431	-0.955470	0.378248
C55	C	1.184390	-0.453441	0.328009
C56	C	1.184356	-0.406521	0.328001
C57	C	1.083888	-0.406551	0.428314
C58	C	1.083919	-0.453466	0.428319
C59	C	1.134177	-0.476910	0.378164
O60	O	1.041258	-0.527701	0.470941
O61	O	1.227168	-0.527688	0.285378
C62	C	1.184558	-0.739631	0.328063
C63	C	1.134341	-0.763100	0.378223
C64	C	1.084096	-0.739654	0.428373
C65	C	1.134363	-0.810018	0.378229
C66	C	1.184608	-0.833464	0.328079
C67	C	1.234831	-0.809992	0.277923
C68	C	1.234803	-0.763077	0.277913
C69	C	1.033873	-0.763126	0.478529
C70	C	1.033904	-0.810041	0.478534
C71	C	1.084149	-0.833487	0.428384
C72	C	1.338986	-0.216427	0.378202
C73	C	1.426236	-0.216430	0.378212
C74	C	1.134275	-0.216388	0.582924
C75	C	1.134290	-0.216374	0.670174
C76	C	1.134405	-0.099240	0.378236
C77	C	1.134475	-0.049305	0.378260
C78	C	1.134253	-0.216416	0.174232
C79	C	1.134391	-0.216302	0.086983
C80	C	1.184623	-0.187582	1.046009
C81	C	1.184607	-0.187598	0.964029
C82	C	1.134354	-0.216332	0.923023
C83	C	1.084120	-0.245056	0.964002
C84	C	1.084141	-0.245042	1.045981
C85	C	1.084080	-0.245082	0.793132
C86	C	1.084058	-0.245095	0.711148
C87	C	1.184545	-0.187638	0.711180
C88	C	1.184566	-0.187624	0.793159
C89	C	1.134331	-0.216347	0.834132
H90	H	0.686682	-0.268615	0.469097
H91	H	1.225569	-0.959809	0.287243
O92	O	1.035241	-0.272920	0.833020
C93	C	0.929239	-0.278935	0.925533
C94	C	0.984514	-0.247362	0.880423
H95	H	0.888201	-0.258283	0.963855
H96	H	0.965206	-0.302416	0.963958
H97	H	0.893353	-0.299483	0.882129
H98	H	1.020412	-0.226784	0.923770
H99	H	0.948502	-0.223910	0.841985
O100	O	0.427309	-0.159743	0.279485
C101	C	0.301024	-0.134197	0.235184
C102	C	0.346144	-0.165854	0.290250
H103	H	0.235395	-0.139120	0.243880
H104	H	0.317030	-0.142015	0.171829
H105	H	0.317251	-0.097994	0.249116
H106	H	0.329941	-0.202068	0.276388
H107	H	0.330134	-0.157998	0.353588
O108	O	1.035430	-0.956220	0.477235
C109	C	0.997244	-0.941832	0.610724
C110	C	1.052526	-0.967596	0.555516
H111	H	1.011058	-0.951013	0.674027
H112	H	0.933953	-0.951112	0.596938
H113	H	1.005831	-0.904268	0.602074
H114	H	1.044010	-1.005166	0.564136
H115	H	1.115797	-0.958279	0.569316
H116	H	1.225539	-0.164180	1.079390
H117	H	0.582603	-0.164224	0.287291
H118	H	1.225482	-0.164224	0.826543
O119	O	0.841723	-0.273145	0.477025
C120	C	0.833037	-0.330231	0.576401
C121	C	0.788005	-0.298585	0.521245
H122	H	0.789625	-0.350814	0.612156
H123	H	0.871435	-0.309656	0.617560
H124	H	0.871398	-0.353676	0.540273
H125	H	0.749600	-0.275134	0.557310
H126	H	0.749656	-0.319188	0.480084
O127	O	0.842023	-0.159715	0.279460
C128	C	0.968330	-0.134228	0.235000
C129	C	0.923183	-0.165878	0.290098
H130	H	1.033955	-0.139206	0.243570
H131	H	0.952316	-0.098004	0.248904
H132	H	0.952133	-0.142065	0.171689
H133	H	0.939355	-0.158081	0.353427
H134	H	0.939200	-0.202092	0.276126
H135	H	1.225251	-0.387414	0.287148
H136	H	0.582553	-0.268623	0.469105
H137	H	1.275667	-0.688331	0.237055
O138	O	1.233304	-0.159769	0.671261
C139	C	1.277737	-0.134282	0.544982
C140	C	1.222509	-0.165880	0.590095
H141	H	1.269017	-0.139205	0.479351
H142	H	1.341051	-0.142157	0.561029
H143	H	1.263989	-0.098064	0.561175
H144	H	1.236187	-0.202109	0.573927
H145	H	1.159211	-0.157967	0.574044
H146	H	0.686721	-0.164224	0.287283
O147	O	0.985033	-0.832857	0.527156
C148	C	0.879108	-0.885907	0.537661
C149	C	0.934383	-0.860091	0.482502
H150	H	0.838154	-0.907939	0.501581
H151	H	0.843140	-0.861107	0.573488
H152	H	0.915156	-0.907813	0.578759
H153	H	0.898396	-0.838185	0.441356
H154	H	0.970354	-0.884916	0.446730
O155	O	0.427267	-0.273105	0.476980
C156	C	0.300963	-0.298628	0.521381
C157	C	0.346107	-0.266995	0.466252
H158	H	0.235337	-0.293707	0.512715
H159	H	0.317059	-0.290787	0.584717
H160	H	0.317079	-0.334838	0.507484
H161	H	0.330015	-0.230775	0.480079
H162	H	0.330007	-0.274876	0.402932
O163	O	1.233232	-0.476140	0.279212
C164	C	1.332905	-0.471151	0.179743
C165	C	1.277626	-0.445388	0.234955
H166	H	1.368824	-0.446299	0.143958
H167	H	1.296944	-0.493140	0.138613
H168	H	1.373913	-0.493091	0.215828
H169	H	1.236608	-0.423424	0.198933
H170	H	1.313636	-0.423427	0.276087
O171	O	1.283587	-0.599605	0.229136
C172	C	1.383220	-0.604549	0.129622
C173	C	1.327924	-0.630337	0.184800
H174	H	1.419069	-0.629385	0.093750
H175	H	1.424285	-0.582562	0.165660
H176	H	1.347195	-0.582605	0.088566
H177	H	1.363885	-0.652306	0.225866
H178	H	1.286856	-0.652297	0.148713
O179	O	1.233539	-1.048544	0.279313
C180	C	1.333239	-1.043582	0.179866
C181	C	1.277956	-1.017804	0.235054
H182	H	1.369177	-1.018740	0.144080
H183	H	1.297279	-1.065572	0.138737
H184	H	1.374228	-1.065523	0.215971
H185	H	1.236956	-0.995839	0.199012
H186	H	1.313965	-0.995842	0.276185
O187	O	1.035357	-0.273081	0.671335
C188	C	0.997191	-0.349511	0.646222
C189	C	1.052389	-0.317863	0.691354
H190	H	1.010931	-0.385724	0.662404
H191	H	1.005831	-0.344620	0.580587
H192	H	0.933901	-0.341614	0.662307
H193	H	1.115701	-0.325741	0.675335
H194	H	1.043682	-0.322760	0.756978
O195	O	1.035550	-1.048703	0.477174
C196	C	1.024947	-1.101615	0.583195
C197	C	1.080162	-1.075783	0.528000
H198	H	1.060995	-1.123508	0.624313
H199	H	0.983943	-1.123648	0.547171
H200	H	0.989020	-1.076785	0.618999
H201	H	1.116140	-1.100581	0.492184
H202	H	1.121114	-1.053743	0.564070
H203	H	1.275740	-0.829090	0.237087
H204	H	0.992923	-0.688391	0.519372
H205	H	1.275697	-0.743972	0.237065
O206	O	1.035306	-0.272878	1.085872
C207	C	0.929312	-0.278901	1.178391
C208	C	0.984577	-0.247324	1.133279
H209	H	0.888273	-0.258253	1.216718
H210	H	0.965286	-0.302380	1.216813
H211	H	0.893427	-0.299451	1.134989
H212	H	1.020474	-0.226745	1.176625
H213	H	0.948558	-0.223874	1.094845
O214	O	1.035241	-0.476318	0.477080
C215	C	1.024651	-0.529232	0.583099
C216	C	1.079860	-0.503393	0.527908
H217	H	1.060705	-0.551121	0.624218
H218	H	0.983657	-0.551269	0.547072
H219	H	0.988714	-0.504406	0.618902
H220	H	1.115849	-0.528186	0.492093
H221	H	1.120803	-0.481349	0.563980
O222	O	1.035400	-0.273036	0.924200
C223	C	0.997178	-0.349460	0.899109
C224	C	1.052410	-0.317821	0.944220
H225	H	1.010900	-0.385674	0.915290
H226	H	1.005803	-0.344573	0.833470
H227	H	0.933898	-0.341548	0.915210
H228	H	1.115712	-0.325713	0.928185
H229	H	1.043717	-0.322714	1.009848
O230	O	0.984924	-0.599664	0.527268
C231	C	0.885323	-0.604646	0.626811
C232	C	0.940624	-0.630413	0.571627
H233	H	0.849503	-0.629494	0.662701
H234	H	0.844230	-0.582729	0.590776
H235	H	0.921340	-0.582632	0.667849
H236	H	0.904670	-0.652450	0.530578
H237	H	0.981719	-0.652301	0.607711
O238	O	0.985097	-0.740404	0.527352
C239	C	0.946908	-0.726011	0.660839
C240	C	1.002194	-0.751776	0.605635
H241	H	0.960722	-0.735189	0.724143
H242	H	0.883618	-0.735294	0.647053
H243	H	0.955491	-0.688447	0.652184
H244	H	0.993681	-0.789346	0.614260
H245	H	1.065463	-0.742456	0.619435
O246	O	1.233425	-0.159655	0.924349
C247	C	1.333125	-0.102680	0.933032
C248	C	1.277862	-0.134296	0.978066
H249	H	1.369079	-0.082176	0.976442
H250	H	1.297148	-0.079165	0.894680
H251	H	1.374100	-0.123322	0.894624
H252	H	1.236876	-0.113691	1.016516
H253	H	1.313888	-0.157813	1.016368
H254	H	1.042977	-0.387454	0.469143
