data_functionalizedCrystal
_audit_creation_method	'MofGen! by Chris Wilmer'
_symmetry_space_group_name_H-M	'P1'
_symmetry_Int_Tables_number	1
_symmetry_cell_setting	triclinic
loop_
_symmetry_equiv_pos_as_xyz
  x,y,z
_cell_length_a	18.050591
_cell_length_b	18.050589
_cell_length_c	18.050583
_cell_angle_alpha	89.968291
_cell_angle_beta	90.020859
_cell_angle_gamma	89.968854
loop_
_atom_site_label
_atom_site_type_symbol
_atom_site_fract_x
_atom_site_fract_y
_atom_site_fract_z
Zn1	Zn	1.135267	0.295677	0.420032
Zn2	Zn	1.135161	0.419890	0.295852
Zn3	Zn	1.011084	0.295710	0.295846
Zn4	Zn	1.011020	0.419822	0.419990
O5	O	1.073133	0.357774	0.357930
O6	O	1.239178	0.312168	0.403579
O7	O	1.118685	0.403459	0.191926
O8	O	1.027628	0.191781	0.312334
O9	O	1.239100	0.403427	0.312345
O10	O	1.118865	0.191756	0.403573
O11	O	1.027526	0.312225	0.191922
O12	O	0.907151	0.312159	0.312293
O13	O	1.027520	0.403311	0.523920
O14	O	0.907104	0.403344	0.403502
O15	O	1.118803	0.312102	0.523951
O16	O	1.118623	0.523805	0.312304
O17	O	1.027417	0.523755	0.403508
C18	C	0.880181	0.357748	0.357893
C19	C	0.797635	0.357755	0.357894
C20	C	0.548814	0.308118	0.308413
C21	C	0.598249	0.290020	0.376187
C22	C	0.500515	0.357793	0.357955
C23	C	0.598161	0.375836	0.290154
C24	C	0.646500	0.357772	0.357922
C25	C	0.548863	0.339661	0.425766
C26	C	0.548771	0.425508	0.339687
C27	C	0.598184	0.407437	0.407509
C28	C	0.416417	0.357803	0.357973
C29	C	0.730597	0.357763	0.357911
C30	C	1.073022	0.550727	0.357918
C31	C	1.073042	0.633272	0.357938
C32	C	1.023470	0.832723	0.407518
C33	C	1.005366	0.882172	0.339749
C34	C	1.073098	0.784403	0.357948
C35	C	1.091222	0.882035	0.425725
C36	C	1.073150	0.930388	0.357964
C37	C	1.054958	0.832765	0.290144
C38	C	1.140846	0.832624	0.376165
C39	C	1.122767	0.882050	0.308350
C40	C	1.073066	0.700304	0.357940
C41	C	1.073183	1.014484	0.357965
C42	C	1.266839	0.357801	0.357968
C43	C	1.349385	0.357813	0.357984
C44	C	1.073166	0.357695	0.551636
C45	C	1.073180	0.357661	0.634181
C46	C	1.073237	1.164069	0.357959
C47	C	1.073209	1.081523	0.357973
C48	C	1.073143	0.357800	0.164978
C49	C	1.073273	0.357624	0.082432
C50	C	1.122870	0.308038	0.833649
C51	C	1.055138	0.289858	0.883037
C52	C	1.073210	0.357649	0.785312
C53	C	1.140969	0.375782	0.883006
C54	C	1.073245	0.357635	0.931297
C55	C	1.005442	0.339433	0.833612
C56	C	1.091318	0.425389	0.833577
C57	C	1.023540	0.407234	0.882943
C58	C	1.073191	0.357655	0.701213
C59	C	1.073256	0.357629	1.015394
H60	H	0.527023	0.482766	0.324226
H61	H	0.527138	0.266086	0.266582
H62	H	0.619818	0.391106	0.232830
H63	H	0.981448	0.811063	0.449378
H64	H	0.981511	0.449183	0.904450
H65	H	1.164758	0.903573	0.266389
H66	H	0.948099	0.903952	0.324355
H67	H	1.106645	0.482665	0.811837
H68	H	0.948138	0.324024	0.812007
H69	H	1.198100	0.810845	0.391592
H70	H	0.619968	0.232744	0.391638
H71	H	0.527298	0.324324	0.483107
H72	H	1.198257	0.391124	0.904705
H73	H	1.039582	0.811211	0.232816
H74	H	1.106532	0.903678	0.483037
H75	H	0.619724	0.449437	0.449439
H76	H	1.164797	0.266058	0.812002
H77	H	1.039832	0.232565	0.904762
