data_functionalizedCrystal
_audit_creation_method	'MofGen! by Chris Wilmer'
_symmetry_space_group_name_H-M	'P1'
_symmetry_Int_Tables_number	1
_symmetry_cell_setting	triclinic
loop_
_symmetry_equiv_pos_as_xyz
  x,y,z
_cell_length_a	17.019372
_cell_length_b	17.019294
_cell_length_c	15.455313
_cell_angle_alpha	88.788101
_cell_angle_beta	91.193254
_cell_angle_gamma	83.656821
loop_
_atom_site_label
_atom_site_type_symbol
_atom_site_fract_x
_atom_site_fract_y
_atom_site_fract_z
O1	O	1.046626	0.100398	-0.001519
O2	O	0.817812	0.112359	-0.019490
O3	O	0.938194	-0.008031	-0.001509
O4	O	0.926244	0.220788	-0.019500
O5	O	0.931310	-0.001175	0.141727
O6	O	0.810928	0.119215	0.123746
O7	O	1.039742	0.107254	0.141717
Cu8	Cu	0.924706	0.113861	0.145810
Cu9	Cu	0.932848	0.105753	-0.023583
O10	O	0.919359	0.227644	0.123736
C11	C	0.785084	0.115199	0.049986
C12	C	0.697823	0.113439	0.043605
C13	C	0.204485	0.103264	0.003541
C14	C	0.286476	0.104919	0.009548
C15	C	0.323710	0.109490	0.090630
C16	C	0.278950	0.112397	0.165710
C17	C	0.196962	0.110737	0.159702
C18	C	0.571075	0.114686	0.112677
C19	C	0.653069	0.116348	0.118679
C20	C	0.660589	0.108869	-0.037484
C21	C	0.578598	0.107213	-0.043485
C22	C	0.533846	0.110117	0.031595
C23	C	0.407517	0.111184	0.096773
C24	C	0.450041	0.108417	0.025452
C25	C	0.934164	-0.033889	0.072252
C26	C	0.932400	-0.121152	0.078636
C27	C	0.935325	-0.165881	0.003557
C28	C	0.933662	-0.247873	0.009558
C29	C	0.929080	-0.285135	0.090638
C30	C	0.926152	-0.240400	0.165721
C31	C	0.927809	-0.158409	0.159720
C32	C	0.923884	-0.532509	0.112665
C33	C	0.922229	-0.614506	0.118662
C34	C	0.929739	-0.621974	-0.037503
C35	C	0.931400	-0.539981	-0.043497
C36	C	0.928468	-0.495252	0.031586
C37	C	0.927383	-0.368945	0.096774
C38	C	0.930159	-0.411444	0.025449
C39	C	1.072470	0.104414	0.072239
C40	C	1.159731	0.106174	0.078615
C41	C	0.923390	0.253502	0.049973
C42	C	0.925155	0.340765	0.043584
N43	N	0.918986	0.119563	0.264952
N44	N	0.938574	0.100044	-0.142725
C45	C	0.970147	0.068436	0.317986
C46	C	0.965828	0.072756	0.408148
C47	C	0.910352	0.128206	0.445276
C48	C	0.859186	0.179336	0.392236
C49	C	0.863501	0.175012	0.302075
C50	C	0.891724	0.146849	0.714074
C51	C	0.887414	0.151171	0.804242
C52	C	0.994055	0.044589	0.820148
C53	C	0.998369	0.040273	0.729985
C54	C	0.947200	0.091400	0.676953
N55	N	0.905937	0.132625	0.537437
N56	N	0.951611	0.086977	0.584794
H57	H	0.534648	0.117038	0.173813
O58	O	1.015506	0.022984	0.459571
C59	C	1.003598	-0.055925	0.442417
H60	H	0.976428	-0.059060	0.374703
H61	H	0.961998	-0.077928	0.492080
C62	C	1.116857	-0.104314	0.531229
C63	C	1.083493	-0.108166	0.448059
H64	H	1.166139	-0.136540	0.534713
H65	H	1.124879	-0.051152	0.542789
H66	H	1.082183	-0.122648	0.572606
H67	H	1.118162	-0.089823	0.406686
H68	H	1.075479	-0.161327	0.436492
O69	O	0.920946	-0.489146	0.185657
C70	C	0.850248	-0.498158	0.228900
H71	H	0.827426	-0.555830	0.209135
H72	H	0.804079	-0.446404	0.210712
C73	C	0.894246	-0.429177	0.351678
C74	C	0.866219	-0.500014	0.327409
H75	H	0.904096	-0.430318	0.412443
H76	H	0.941876	-0.423102	0.322544
H77	H	0.855767	-0.386055	0.336515
H78	H	0.904702	-0.543133	0.342563
H79	H	0.818596	-0.506096	0.356548
H80	H	0.918493	-0.644842	0.184690
O81	O	0.330017	0.102206	-0.063329
C82	C	0.368914	0.170962	-0.070276
H83	H	0.375023	0.197128	-0.003496
H84	H	0.333051	0.216104	-0.115134
C85	C	0.444094	0.117604	-0.189496
C86	C	0.451603	0.149738	-0.107475
H87	H	0.495099	0.104514	-0.212446
H88	H	0.417886	0.071283	-0.184819
H89	H	0.414205	0.155228	-0.226867
H90	H	0.481483	0.112111	-0.070102
H91	H	0.477818	0.196052	-0.112146
H92	H	0.922416	-0.270745	0.231738
H93	H	0.850061	0.188480	0.670902
O94	O	0.934494	-0.375153	-0.053274
C95	C	0.867652	-0.319233	-0.067150
H96	H	0.841971	-0.300796	-0.002164
H97	H	0.821242	-0.346562	-0.107375
C98	C	0.923559	-0.268780	-0.195571
C99	C	0.892022	-0.246131	-0.115754
H100	H	0.938589	-0.223689	-0.225556
H101	H	0.968591	-0.306457	-0.186225
H102	H	0.884879	-0.291556	-0.229081
H103	H	0.930705	-0.223365	-0.082241
H104	H	0.846996	-0.208449	-0.125096
O105	O	1.023917	0.014502	0.281844
C106	C	0.984173	-0.036626	0.230234
H107	H	0.923408	-0.006122	0.209805
H108	H	0.976989	-0.093043	0.268954
C109	C	1.107178	-0.094935	0.174238
C110	C	1.032548	-0.057467	0.149142
H111	H	1.137019	-0.107795	0.124218
H112	H	1.133956	-0.060492	0.209011
H113	H	1.101181	-0.141945	0.206506
H114	H	1.038546	-0.010454	0.116884
H115	H	1.005773	-0.091904	0.114361
O116	O	0.689255	0.120925	0.197417
C117	C	0.727728	0.190113	0.199821
H118	H	0.699043	0.235027	0.149695
H119	H	0.792852	0.174995	0.184692
C120	C	0.755761	0.170278	0.352162
C121	C	0.720525	0.225444	0.290602
H122	H	0.751322	0.192070	0.408160
H123	H	0.729844	0.123662	0.350542
H124	H	0.810029	0.157684	0.339543
H125	H	0.666257	0.238029	0.303215
H126	H	0.746433	0.272063	0.292226
H127	H	0.309273	0.116114	0.231729
O128	O	1.052164	-0.013846	0.694167
C129	C	1.037941	-0.090506	0.721330
H130	H	0.973767	-0.089684	0.741334
H131	H	1.078796	-0.110847	0.778777
C132	C	1.132726	-0.148887	0.621811
C133	C	1.053904	-0.147878	0.646373
H134	H	1.142576	-0.184278	0.575575
H135	H	1.142311	-0.097240	0.603512
H136	H	1.166762	-0.165835	0.669689
H137	H	1.019869	-0.130920	0.598498
H138	H	1.044314	-0.199524	0.664662
O139	O	1.043861	-0.005005	0.871625
C140	C	1.122755	0.006927	0.854395
H141	H	1.124483	0.068675	0.824946
H142	H	1.148234	-0.039079	0.807020
C143	C	1.170057	-0.077142	0.975520
C144	C	1.172180	-0.001300	0.939357
H145	H	1.200546	-0.082220	1.027927
H146	H	1.116905	-0.085183	0.987127
H147	H	1.191288	-0.115472	0.936032
H148	H	1.150940	0.037028	0.978840
H149	H	1.225330	0.006748	0.927759
O150	O	0.542512	0.102869	-0.122307
C151	C	0.556080	0.169017	-0.174076
H152	H	0.611623	0.193965	-0.149425
H153	H	0.503293	0.216223	-0.170659
C154	C	0.498962	0.113162	-0.298816
C155	C	0.567184	0.143800	-0.268544
H156	H	0.505808	0.097609	-0.357090
H157	H	0.489818	0.068598	-0.263939
H158	H	0.454979	0.152506	-0.295962
H159	H	0.611163	0.104453	-0.271389
H160	H	0.576336	0.188357	-0.303424
H161	H	0.932124	-0.658400	-0.098631
H162	H	0.923654	-0.399293	0.162789
H163	H	0.939061	-0.135549	-0.062466
H164	H	0.842236	0.196329	0.834466
H165	H	0.821840	0.216644	0.258896
O166	O	0.153598	0.113606	0.232712
C167	C	0.204043	0.117977	0.305568
H168	H	0.260394	0.142928	0.284864
H169	H	0.219703	0.056302	0.335528
C170	C	0.092658	0.141712	0.398077
C171	C	0.161867	0.172364	0.372649
H172	H	0.066642	0.175257	0.439458
H173	H	0.058671	0.138764	0.348993
H174	H	0.105718	0.090317	0.423038
H175	H	0.148805	0.223753	0.347679
H176	H	0.195850	0.175321	0.421730
O177	O	0.413931	0.103840	-0.053317
C178	C	0.445002	0.033974	-0.093632
H179	H	0.471452	-0.010923	-0.042293
H180	H	0.492959	0.047986	-0.140131
C181	C	0.345946	0.054518	-0.207264
C182	C	0.378426	-0.000628	-0.144208
H183	H	0.304881	0.033175	-0.238465
H184	H	0.325014	0.101590	-0.180105
H185	H	0.385918	0.066190	-0.246004
H186	H	0.338458	-0.012292	-0.105463
H187	H	0.399350	-0.047703	-0.171361
H188	H	0.925415	-0.121989	0.220855
H189	H	0.697036	0.106504	-0.098610
O190	O	0.443792	0.115525	0.175493
C191	C	0.499717	0.048688	0.189387
H192	H	0.518171	0.023008	0.124408
H193	H	0.472385	0.002274	0.229631
C194	C	0.550133	0.104606	0.317782
C195	C	0.572804	0.073069	0.237974
H196	H	0.595216	0.119643	0.347756
H197	H	0.512454	0.149634	0.308424
H198	H	0.527357	0.065922	0.351308
H199	H	0.595571	0.111755	0.204445
H200	H	0.610489	0.028048	0.247328
H201	H	0.936048	-0.284289	-0.051578
O202	O	0.805365	0.233178	0.428441
C203	C	0.812513	0.226021	0.519392
H204	H	0.874343	0.197420	0.538534
H205	H	0.766706	0.187692	0.544625
C206	C	0.722738	0.343744	0.535287
C207	C	0.798680	0.308622	0.558798
H208	H	0.714202	0.394695	0.559595
H209	H	0.717919	0.348565	0.474011
H210	H	0.684574	0.311795	0.556316
H211	H	0.836842	0.340566	0.537759
H212	H	0.803505	0.303809	0.620071
H213	H	0.935133	-0.509648	-0.109521
H214	H	0.174175	0.099548	-0.062486
