data_functionalizedCrystal
_audit_creation_method	'MofGen! by Chris Wilmer'
_symmetry_space_group_name_H-M	'P1'
_symmetry_Int_Tables_number	1
_symmetry_cell_setting	triclinic
loop_
_symmetry_equiv_pos_as_xyz
  x,y,z
_cell_length_a	12.594517
_cell_length_b	18.050590
_cell_length_c	12.594510
_cell_angle_alpha	89.961050
_cell_angle_beta	89.978880
_cell_angle_gamma	90.018352
loop_
_atom_site_label
_atom_site_type_symbol
_atom_site_fract_x
_atom_site_fract_y
_atom_site_fract_z
Zn1	Zn	1.627246	-0.295596	-0.601826
Zn2	Zn	1.627130	-0.419813	-0.423833
Zn3	Zn	1.449251	-0.295641	-0.423855
Zn4	Zn	1.449225	-0.419748	-0.601763
O5	O	1.538213	-0.357700	-0.512819
O6	O	1.776177	-0.312082	-0.578232
O7	O	1.603496	-0.403388	-0.274890
O8	O	1.472922	-0.191711	-0.447499
O9	O	1.776091	-0.403344	-0.447462
O10	O	1.603694	-0.191678	-0.578253
O11	O	1.472809	-0.312159	-0.274906
O12	O	1.300302	-0.312096	-0.447438
O13	O	1.472877	-0.403233	-0.750717
O14	O	1.300282	-0.403277	-0.578146
O15	O	1.603669	-0.312019	-0.750764
O16	O	1.603471	-0.523729	-0.447401
O17	O	1.472765	-0.523682	-0.578125
C18	C	1.261672	-0.357685	-0.512788
C19	C	1.143367	-0.357696	-0.512800
C20	C	1.074093	-0.308035	-0.441843
C21	C	1.003278	-0.375779	-0.415655
C22	C	1.003383	-0.289985	-0.539006
C23	C	1.074110	-0.425476	-0.486561
C24	C	1.074221	-0.339636	-0.609957
C25	C	1.003437	-0.407427	-0.583806
C26	C	1.538131	-0.550652	-0.512777
C27	C	1.538193	-0.633198	-0.512794
C28	C	1.609419	-0.832647	-0.441806
C29	C	1.635421	-0.881967	-0.538949
C30	C	1.538254	-0.784328	-0.512837
C31	C	1.512360	-0.882089	-0.415737
C32	C	1.538314	-0.930313	-0.512869
C33	C	1.564306	-0.832561	-0.610031
C34	C	1.441199	-0.832679	-0.486754
C35	C	1.467164	-0.881977	-0.583964
C36	C	1.538222	-0.700230	-0.512817
C37	C	1.538346	-1.014410	-0.512900
C38	C	1.815834	-0.357715	-0.512851
C39	C	1.934139	-0.357722	-0.512865
C40	C	1.538283	-0.357614	-0.790440
C41	C	1.538313	-0.357577	-0.908746
C42	C	1.538324	-0.163994	-0.512885
C43	C	1.538371	-0.081448	-0.512913
C44	C	1.609472	-0.307962	-0.978024
C45	C	1.512397	-0.289784	-1.048817
C46	C	1.635445	-0.375704	-1.048752
C47	C	1.441187	-0.339364	-0.977981
C48	C	1.564300	-0.425315	-0.977909
C49	C	1.467158	-0.407163	-1.048670
C50	C	1.538204	-0.357732	-0.236278
C51	C	1.538380	-0.357559	-0.117973
H52	H	1.105048	-0.482766	-0.464332
H53	H	0.972259	-0.232720	-0.561107
O54	O	1.689147	-0.803956	-0.362303
H55	H	1.687887	-0.742472	-0.362449
O56	O	1.115200	-0.252460	-0.362270
H57	H	1.203321	-0.252572	-0.363482
O58	O	1.744170	-0.910651	-0.568212
H59	H	1.803081	-0.890899	-0.509126
O60	O	1.387473	-0.910490	-0.663632
H61	H	1.428818	-0.945058	-0.723625
H62	H	1.669543	-0.265980	-0.947001
H63	H	1.359120	-0.811010	-0.464643
O64	O	1.744209	-0.396026	-1.089943
H65	H	1.766253	-0.451869	-1.060332
H66	H	1.490435	-0.903844	-0.333608
H67	H	0.972609	-0.449483	-0.643840
H68	H	1.406941	-0.449113	-1.079495
O69	O	1.593489	-0.803877	-0.718854
H70	H	1.593277	-0.742390	-0.717974
O71	O	1.483305	-0.213900	-1.090087
H72	H	1.542459	-0.172819	-1.061804
H73	H	1.359048	-0.323959	-0.947024
O74	O	1.115546	-0.319359	-0.718720
H75	H	1.087274	-0.263090	-0.740268
H76	H	0.972118	-0.391071	-0.333519
O77	O	1.593422	-0.501178	-0.936596
H78	H	1.674098	-0.516107	-0.964883
