data_functionalizedCrystal
_audit_creation_method	'MofGen! by Chris Wilmer'
_symmetry_space_group_name_H-M	'P1'
_symmetry_Int_Tables_number	1
_symmetry_cell_setting	triclinic
loop_
_symmetry_equiv_pos_as_xyz
  x,y,z
_cell_length_a	16.959454
_cell_length_b	12.759401
_cell_length_c	12.759393
_cell_angle_alpha	90.017176
_cell_angle_beta	89.970198
_cell_angle_gamma	89.979764
loop_
_atom_site_label
_atom_site_type_symbol
_atom_site_fract_x
_atom_site_fract_y
_atom_site_fract_z
Zn1	Zn	-0.314639	-1.606202	-0.593988
Zn2	Zn	-0.446838	-1.606084	-0.418310
Zn3	Zn	-0.314678	-1.430508	-0.418327
Zn4	Zn	-0.446779	-1.430477	-0.593952
O5	O	-0.380734	-1.518318	-0.506144
O6	O	-0.332183	-1.753208	-0.570692
O7	O	-0.429348	-1.582758	-0.271291
O8	O	-0.204062	-1.453877	-0.441651
O9	O	-0.429310	-1.753121	-0.441622
O10	O	-0.204033	-1.582959	-0.570708
O11	O	-0.332250	-1.453763	-0.271304
O12	O	-0.332193	-1.283483	-0.441616
O13	O	-0.429210	-1.453823	-0.740978
O14	O	-0.429248	-1.283460	-0.570647
O15	O	-0.332126	-1.582928	-0.741004
O16	O	-0.557441	-1.582727	-0.441588
O17	O	-0.557398	-1.453709	-0.570631
C18	C	-0.380719	-1.245351	-0.506130
C19	C	-0.380732	-1.128574	-0.506149
C20	C	-0.586100	-1.518230	-0.506126
C21	C	-0.673956	-1.518288	-0.506154
C22	C	-0.380657	-1.518385	-0.780178
C23	C	-0.380624	-1.518414	-0.896954
C24	C	-1.045439	-1.451236	-0.573330
C25	C	-1.045424	-1.585693	-0.439066
C26	C	-0.962879	-1.585656	-0.439056
C27	C	-0.921609	-1.518407	-0.506183
C28	C	-0.962886	-1.451195	-0.573320
C29	C	-0.921596	-1.652860	-0.371913
C30	C	-0.839045	-1.652825	-0.371900
C31	C	-0.797774	-1.585580	-0.439033
C32	C	-0.839056	-1.518366	-0.506173
C33	C	-0.797787	-1.451117	-0.573300
C34	C	-0.839067	-1.383907	-0.640447
C35	C	-0.921615	-1.383950	-0.640453
C36	C	-0.715226	-1.585538	-0.439027
C37	C	-0.715233	-1.451076	-0.573291
C38	C	-0.174565	-1.518435	-0.506185
C39	C	-0.086709	-1.518485	-0.506203
C40	C	-0.380749	-1.792351	-0.506159
C41	C	-0.380755	-1.909128	-0.506165
C42	C	-0.431349	-1.073727	-0.573224
C43	C	-0.431359	-0.964003	-0.573235
C44	C	-0.330132	-0.963982	-0.439087
C45	C	-0.330119	-1.073704	-0.439082
C46	C	-0.489794	-1.073738	-0.650670
C47	C	-0.489804	-0.964014	-0.650681
C48	C	-0.431152	-1.451211	-0.951804
C49	C	-0.431123	-1.451250	-1.061529
C50	C	-0.330033	-1.585696	-1.061543
C51	C	-0.330066	-1.585662	-0.951821
C52	C	-0.489513	-1.373586	-0.951797
C53	C	-0.489485	-1.373625	-1.061521
C54	C	-0.380753	-1.518311	-0.233177
C55	C	-0.380563	-1.518486	-0.116401
H56	H	-0.805456	-1.329147	-0.695097
N57	N	-0.275494	-1.658209	-1.120724
H58	H	-0.243488	-1.700774	-1.069324
H59	H	-0.307657	-1.706827	-1.166243
N60	N	-0.566782	-1.118785	-0.611891
H61	H	-0.591177	-1.163361	-0.668689
H62	H	-0.556704	-1.163277	-0.547827
H63	H	-0.467590	-1.296296	-0.917769
N64	N	-0.670723	-1.378546	-0.645698
H65	H	-0.709401	-1.335980	-0.688232
H66	H	-0.636522	-1.329930	-0.602885
H67	H	-0.467953	-0.930018	-0.728033
H68	H	-0.288930	-1.640396	-0.907166
N69	N	-0.966116	-1.725367	-0.299507
H70	H	-1.000322	-1.774048	-0.342245
H71	H	-0.927400	-1.767865	-0.256972
N72	N	-0.570868	-0.924524	-0.621632
H73	H	-0.607035	-0.986043	-0.608654
H74	H	-0.567233	-0.880494	-0.556023
N75	N	-0.570612	-1.402404	-0.912334
H76	H	-0.570667	-1.402388	-0.833176
H77	H	-0.610283	-1.349622	-0.938765
H78	H	-0.547632	-1.402744	-1.095541
H79	H	-0.681619	-1.640254	-0.384352
H80	H	-0.473469	-1.103547	-0.732076
N81	N	-0.794528	-1.725325	-0.299492
H82	H	-0.760237	-1.773969	-0.342236
H83	H	-0.760365	-1.682573	-0.250776
N84	N	-0.275555	-0.904797	-0.366744
H85	H	-0.243488	-0.956195	-0.324249
H86	H	-0.239019	-0.859299	-0.409596
N87	N	-0.467747	-1.265873	-1.100985
H88	H	-0.458062	-1.217763	-1.039454
H89	H	-0.418365	-1.270678	-1.145001
N90	N	-0.966134	-1.311455	-0.712863
H91	H	-1.000343	-1.354136	-0.761589
H92	H	-1.000380	-1.262824	-0.670046
H93	H	-1.079053	-1.396518	-0.628001
H94	H	-0.288897	-1.118356	-0.384470
N95	N	-1.089931	-1.658205	-0.366650
H96	H	-1.148489	-1.648027	-0.376838
H97	H	-1.075462	-1.733228	-0.383057
