data_functionalizedCrystal
_audit_creation_method	'MofGen! by Chris Wilmer'
_symmetry_space_group_name_H-M	'P1'
_symmetry_Int_Tables_number	1
_symmetry_cell_setting	triclinic
loop_
_symmetry_equiv_pos_as_xyz
  x,y,z
_cell_length_a	16.992694
_cell_length_b	19.288865
_cell_length_c	17.766277
_cell_angle_alpha	89.989546
_cell_angle_beta	89.996292
_cell_angle_gamma	86.902236
loop_
_atom_site_label
_atom_site_type_symbol
_atom_site_fract_x
_atom_site_fract_y
_atom_site_fract_z
O1	O	-1.039877	-0.147252	0.062515
O2	O	-0.539877	0.352748	0.562515
O3	O	-0.811597	-0.145637	0.062537
O4	O	-0.311597	0.354363	0.562537
O5	O	-0.932333	-0.045698	0.062510
O6	O	-0.432333	0.454302	0.562510
O7	O	-0.919141	-0.247190	0.062541
O8	O	-0.419141	0.252810	0.562541
O9	O	-0.932312	-0.045694	-0.062678
O10	O	-0.432312	0.454306	0.437322
O11	O	-0.811576	-0.145632	-0.062652
O12	O	-0.311576	0.354368	0.437348
O13	O	-1.039855	-0.147248	-0.062674
O14	O	-0.539855	0.352752	0.437326
Cu15	Cu	-0.925713	-0.146440	-0.074094
Cu16	Cu	-0.425713	0.353560	0.425906
Cu17	Cu	-0.925739	-0.146445	0.073956
Cu18	Cu	-0.425739	0.353555	0.573956
O19	O	-0.919119	-0.247186	-0.062647
O20	O	-0.419119	0.252814	0.437353
C21	C	-0.782381	-0.143556	-0.000055
C22	C	-0.282381	0.356444	0.499945
C23	C	-0.695359	-0.137355	-0.000047
C24	C	-0.195359	0.362645	0.499953
C25	C	-0.931898	-0.019795	-0.000086
C26	C	-0.431898	0.480205	0.499914
C27	C	-0.930624	0.057383	-0.000093
C28	C	-0.430624	0.557383	0.499907
C29	C	-1.069071	-0.149328	-0.000080
C30	C	-0.569071	0.350672	0.499920
C31	C	-1.156093	-0.155529	-0.000083
C32	C	-0.656093	0.344471	0.499917
C33	C	-0.644907	-0.197184	-0.000039
C34	C	-0.144907	0.302816	0.499961
C35	C	-0.563141	-0.191353	-0.000050
C36	C	-0.063141	0.308647	0.499950
C37	C	-0.531829	-0.125694	-0.000064
C38	C	-0.031829	0.374306	0.499936
C39	C	-0.582287	-0.065862	-0.000075
C40	C	-0.082287	0.434138	0.499925
C41	C	-0.664051	-0.071693	-0.000069
C42	C	-0.164051	0.428307	0.499931
C43	C	-0.288316	-0.101527	-0.000088
C44	C	0.211684	0.398473	0.499912
C45	C	-0.206545	-0.095701	-0.000092
C46	C	0.293455	0.404299	0.499908
C47	C	-0.187405	-0.221193	-0.000068
C48	C	0.312595	0.278807	0.499932
C49	C	-0.269172	-0.227018	-0.000057
C50	C	0.230828	0.272982	0.499943
C51	C	-0.319623	-0.167186	-0.000072
C52	C	0.180377	0.332814	0.499928
N53	N	-0.448251	-0.119733	-0.000074
N54	N	0.051749	0.380267	0.499926
N55	N	-0.403199	-0.173147	-0.000069
N56	N	0.096801	0.326853	0.499931
C57	C	-0.919555	-0.273089	-0.000049
C58	C	-0.419555	0.226911	0.499951
C59	C	-0.920829	-0.350267	-0.000038
C60	C	-0.420829	0.149733	0.499962
N61	N	-0.925701	-0.146436	-0.178224
N62	N	-0.425701	0.353564	0.321776
C63	C	-1.001466	0.097950	-0.000103
C64	C	-0.501466	0.597950	0.499897
C65	C	-1.000269	0.170467	-0.000091
C66	C	-0.500269	0.670467	0.499909
C67	C	-0.928225	0.202413	-0.000084
C68	C	-0.428225	0.702413	0.499916
C69	C	-0.857374	0.161837	-0.000069
C70	C	-0.357374	0.661837	0.499931
C71	C	-0.858573	0.089321	-0.000074
C72	C	-0.358573	0.589321	0.499926
C73	C	-0.871583	0.314003	-0.043929
C74	C	-0.371583	0.814003	0.456071
C75	C	-0.870387	0.386517	-0.043929
C76	C	-0.370387	0.886517	0.456071
C77	C	-0.924524	0.426075	-0.000067
C78	C	-0.424524	0.926075	0.499933
C79	C	-0.979870	0.393110	0.043787
C80	C	-0.479870	0.893110	0.543787
C81	C	-0.981069	0.320595	0.043782
C82	C	-0.481069	0.820595	0.543782
C83	C	-0.926917	0.281044	-0.000079
C84	C	-0.426917	0.781044	0.499921
C85	C	-0.994073	0.545274	-0.000063
C86	C	-0.494073	1.045274	0.499937
C87	C	-0.992873	0.617792	-0.000046
C88	C	-0.492873	1.117792	0.499954
C89	C	-0.849976	0.609160	-0.000032
C90	C	-0.349976	1.109160	0.499968
C91	C	-0.851178	0.536643	-0.000041
C92	C	-0.351178	1.036643	0.499959
C93	C	-0.923229	0.504705	-0.000060
C94	C	-0.423229	1.004705	0.499940
C95	C	-0.973090	-0.191222	-0.217602
C96	C	-0.473090	0.308778	0.282398
C97	C	-0.973102	-0.191220	-0.296404
C98	C	-0.473102	0.308780	0.203596
C99	C	-0.925711	-0.146441	-0.335824
C100	C	-0.425711	0.353559	0.164176
C101	C	-0.878320	-0.101646	-0.296436
C102	C	-0.378320	0.398354	0.203564
C103	C	-0.878315	-0.101644	-0.217636
C104	C	-0.378315	0.398356	0.282364
C105	C	-0.855045	-0.140565	-0.460678
C106	C	-0.355045	0.359435	0.039322
C107	C	-0.855048	-0.140572	-0.539476
C108	C	-0.355048	0.359428	-0.039476
C109	C	-0.925728	-0.146444	-0.578871
C110	C	-0.425728	0.353556	-0.078871
C111	C	-0.996405	-0.152322	-0.539457
C112	C	-0.496405	0.347678	-0.039457
C113	C	-0.996400	-0.152320	-0.460656
C114	C	-0.496400	0.347680	0.039344
C115	C	-0.925712	-0.146438	-0.421270
C116	C	-0.425712	0.353562	0.078730
C117	C	-0.973134	-0.191230	-0.703695
C118	C	-0.473134	0.308770	-0.203695
C119	C	-0.973148	-0.191224	-0.782499
C120	C	-0.473148	0.308776	-0.282499
C121	C	-0.878358	-0.101654	-0.782529
C122	C	-0.378358	0.398346	-0.282529
C123	C	-0.878351	-0.101656	-0.703727
C124	C	-0.378351	0.398344	-0.203727
C125	C	-0.925738	-0.146448	-0.664315
C126	C	-0.425738	0.353552	-0.164315
N127	N	-0.925757	-0.146443	0.178087
N128	N	-0.425757	0.353557	0.678087
H129	H	-0.670395	-0.250650	-0.000026
H130	H	-0.170395	0.249350	0.499974
C131	C	-0.812032	0.270493	-0.092182
C132	C	-0.312032	0.770493	0.407818
H133	H	-0.820667	0.222585	-0.085900
H134	H	-0.320667	0.722585	0.414100
H135	H	-0.818718	0.282805	-0.143648
H136	H	-0.318718	0.782805	0.356352
H137	H	-0.759968	0.279241	-0.076753
H138	H	-0.259968	0.779241	0.423247
C139	C	-1.074136	-0.158782	-0.417300
C140	C	-0.574136	0.341218	0.082700
H141	H	-1.064006	-0.157944	-0.364728
H142	H	-0.564006	0.342056	0.135272
H143	H	-1.109898	-0.121103	-0.430216
H144	H	-0.609898	0.378897	0.069784
H145	H	-1.096457	-0.201294	-0.430199
H146	H	-0.596457	0.298706	0.069801
C147	C	-0.777312	-0.134077	-0.582825
C148	C	-0.277312	0.365923	-0.082825
H149	H	-0.735221	-0.130558	-0.548079
H150	H	-0.235221	0.369442	-0.048079
H151	H	-0.767632	-0.173916	-0.613568
H152	H	-0.267632	0.326084	-0.113568
H153	H	-0.781124	-0.093729	-0.613562
H154	H	-0.281124	0.406271	-0.113562
C155	C	-1.074159	-0.158781	-0.582776
C156	C	-0.574159	0.341219	-0.082776
H157	H	-1.116247	-0.162287	-0.548017
H158	H	-0.616247	0.337713	-0.048017
H159	H	-1.083821	-0.118933	-0.613522
H160	H	-0.583821	0.381067	-0.113522
H161	H	-1.070379	-0.199123	-0.613507
H162	H	-0.570379	0.300877	-0.113507
C163	C	-0.809510	0.422772	-0.092165
C164	C	-0.309510	0.922772	0.407835
H165	H	-0.777431	0.388828	-0.118278
H166	H	-0.277431	0.888828	0.381722
H167	H	-0.836135	0.452704	-0.127437
H168	H	-0.336135	0.952704	0.372563
H169	H	-0.777396	0.449142	-0.060533
H170	H	-0.277396	0.949142	0.439467
C171	C	-0.778128	0.196974	-0.000064
C172	C	-0.278128	0.696974	0.499936
H173	H	-0.787559	0.245973	-0.000070
H174	H	-0.287559	0.745973	0.499930
H175	H	-0.748975	0.183310	0.043595
H176	H	-0.248975	0.683310	0.543595
H177	H	-0.748963	0.183325	-0.043723
H178	H	-0.248963	0.683325	0.456277
C179	C	-0.507647	-0.257165	-0.000038
C180	C	-0.007647	0.242835	0.499962
H181	H	-0.538007	-0.297103	-0.000019
H182	H	-0.038007	0.202897	0.499981
H183	H	-0.475354	-0.257501	-0.043696
H184	H	0.024646	0.242499	0.456304
H185	H	-0.475353	-0.257497	0.043621
H186	H	0.024647	0.242503	0.543621
H187	H	-0.181054	-0.042230	-0.000103
H188	H	0.318946	0.457770	0.499897
C189	C	-1.070804	0.662417	-0.000059
C190	C	-0.570804	1.162417	0.499941
H191	H	-1.113883	0.633006	-0.000079
H192	H	-0.613883	1.133006	0.499921
H193	H	-1.073321	0.690875	0.043598
H194	H	-0.573321	1.190875	0.543598
H195	H	-1.073291	0.690893	-0.043719
H196	H	-0.573291	1.190893	0.456281
C197	C	-1.039429	0.436610	0.092036
C198	C	-0.539429	0.936610	0.592036
H199	H	-1.072564	0.406593	0.118146
H200	H	-0.572564	0.906593	0.618146
H201	H	-1.011869	0.463255	0.127311
H202	H	-0.511869	0.963255	0.627311
H203	H	-1.070609	0.466816	0.060408
H204	H	-0.570609	0.966816	0.560408
C205	C	-0.777291	-0.134110	-0.417351
C206	C	-0.277291	0.365890	0.082649
H207	H	-0.735199	-0.130621	-0.452109
H208	H	-0.235199	0.369379	0.047891
H209	H	-0.781064	-0.093774	-0.386618
H210	H	-0.281064	0.406226	0.113382
H211	H	-0.767637	-0.173966	-0.386606
H212	H	-0.267637	0.326034	0.113394
C213	C	-0.547845	0.006362	-0.000090
C214	C	-0.047845	0.506362	0.499910
H215	H	-0.491923	0.001267	-0.000084
H216	H	0.008077	0.501267	0.499916
H217	H	-0.565176	0.031190	-0.043749
H218	H	-0.065176	0.531190	0.456251
H219	H	-0.565180	0.031184	0.043569
H220	H	-0.065180	0.531184	0.543569
H221	H	-1.011719	-0.227702	-0.671604
H222	H	-0.511719	0.272298	-0.171604
C223	C	-0.343802	-0.035714	-0.000099
C224	C	0.156198	0.464286	0.499901
H225	H	-0.313440	0.004224	-0.000101
H226	H	0.186560	0.504224	0.499899
H227	H	-0.376095	-0.035376	-0.043754
H228	H	0.123905	0.464624	0.456246
H229	H	-0.376097	-0.035379	0.043563
H230	H	0.123903	0.464621	0.543563
C231	C	-0.826188	-0.052392	-0.339795
C232	C	-0.326188	0.447608	0.160205
H233	H	-0.832972	-0.058813	-0.392366
H234	H	-0.332972	0.441187	0.107634
H235	H	-0.840922	-0.005691	-0.326893
H236	H	-0.340922	0.494309	0.173107
H237	H	-0.772503	-0.062295	-0.326883
H238	H	-0.272503	0.437705	0.173117
H239	H	-0.791316	0.635169	-0.000022
H240	H	-0.291316	1.135169	0.499978
H241	H	-0.146320	-0.269905	-0.000057
H242	H	0.353680	0.230095	0.499943
H243	H	-0.705129	-0.022974	-0.000076
H244	H	-0.205129	0.477026	0.499924
H245	H	-1.060135	0.071951	-0.000116
H246	H	-0.560135	0.571951	0.499884
C247	C	-1.078198	0.215100	-0.000108
C248	C	-0.578198	0.715100	0.499892
H249	H	-1.121280	0.185693	-0.000125
H250	H	-0.621280	0.685693	0.499875
H251	H	-1.080713	0.243562	0.043547
H252	H	-0.580713	0.743562	0.543547
H253	H	-1.080683	0.243573	-0.043771
H254	H	-0.580683	0.743573	0.456229
H255	H	-1.011743	-0.227692	-0.814559
H256	H	-0.511743	0.272308	-0.314559
C257	C	-1.041940	0.284332	0.092018
C258	C	-0.541940	0.784332	0.592018
H259	H	-1.034901	0.235480	0.085727
H260	H	-0.534901	0.735480	0.585727
H261	H	-1.034865	0.295787	0.143487
H262	H	-0.534865	0.795787	0.643487
H263	H	-1.093610	0.299350	0.076588
H264	H	-0.593610	0.799350	0.576588
H265	H	-0.294660	-0.280485	-0.000037
H266	H	0.205340	0.219515	0.499963
C267	C	-1.073322	0.510135	-0.000075
C268	C	-0.573322	1.010135	0.499925
H269	H	-1.063890	0.461137	-0.000086
H270	H	-0.563890	0.961137	0.499914
H271	H	-1.102489	0.523780	0.043580
H272	H	-0.602489	1.023780	0.543580
H273	H	-1.102473	0.523804	-0.043738
H274	H	-0.602473	1.023804	0.456262
H275	H	-0.793490	0.503612	-0.000037
H276	H	-0.293490	1.003612	0.499963
C277	C	-0.780643	0.044695	-0.000069
C278	C	-0.280643	0.544695	0.499931
H279	H	-0.737563	0.074104	-0.000066
H280	H	-0.237563	0.574104	0.499934
H281	H	-0.778148	0.016214	0.043582
H282	H	-0.278148	0.516214	0.543582
H283	H	-0.778135	0.016241	-0.043735
H284	H	-0.278135	0.516241	0.456265
C285	C	-1.025220	-0.240485	-0.174253
C286	C	-0.525220	0.259515	0.325747
H287	H	-1.053450	-0.267154	-0.208997
H288	H	-0.553450	0.232846	0.291003
H289	H	-0.992981	-0.270644	-0.143508
H290	H	-0.492981	0.229356	0.356492
H291	H	-1.061403	-0.214043	-0.143518
H292	H	-0.561403	0.285957	0.356482
C293	C	-0.826179	-0.052383	-0.174318
C294	C	-0.326179	0.447617	0.325682
H295	H	-0.797952	-0.025714	-0.209078
H296	H	-0.297952	0.474286	0.290922
H297	H	-0.858412	-0.022223	-0.143576
H298	H	-0.358412	0.477777	0.356424
H299	H	-0.789993	-0.078826	-0.143581
H300	H	-0.289993	0.421174	0.356419
H301	H	-1.011692	-0.227692	-0.328473
H302	H	-0.511692	0.272308	0.171527
H303	H	-0.839772	-0.065192	-0.814624
H304	H	-0.339772	0.434808	-0.314624
H305	H	-0.839759	-0.065190	-0.671665
H306	H	-0.339759	0.434810	-0.171665
