data_functionalizedCrystal
_audit_creation_method	'MofGen! by Chris Wilmer'
_symmetry_space_group_name_H-M	'P1'
_symmetry_Int_Tables_number	1
_symmetry_cell_setting	triclinic
loop_
_symmetry_equiv_pos_as_xyz
  x,y,z
_cell_length_a	12.784905
_cell_length_b	12.837942
_cell_length_c	8.140239
_cell_angle_alpha	89.996939
_cell_angle_beta	89.996744
_cell_angle_gamma	83.968130
loop_
_atom_site_label
_atom_site_type_symbol
_atom_site_fract_x
_atom_site_fract_y
_atom_site_fract_z
O1	O	1.410964	0.006435	-0.136623
O2	O	1.744297	0.339768	0.196710
O3	O	2.077631	0.673101	0.530044
O4	O	1.105965	0.050427	-0.136624
O5	O	1.439298	0.383760	0.196709
O6	O	1.772631	0.717094	0.530043
O7	O	1.251701	-0.121862	-0.136613
O8	O	1.585035	0.211471	0.196720
O9	O	1.918368	0.544804	0.530053
O10	O	1.265227	0.178724	-0.136634
O11	O	1.598561	0.512057	0.196700
O12	O	1.931894	0.845391	0.530033
O13	O	1.251692	-0.121863	0.136614
O14	O	1.585026	0.211470	0.469947
O15	O	1.918359	0.544803	0.803280
O16	O	1.105956	0.050426	0.136603
O17	O	1.439289	0.383759	0.469936
O18	O	1.772622	0.717093	0.803270
O19	O	1.410955	0.006434	0.136604
O20	O	1.744288	0.339767	0.469937
O21	O	2.077622	0.673100	0.803271
Zn22	Zn	1.258454	0.028430	0.179984
Zn23	Zn	1.591787	0.361763	0.513318
Zn24	Zn	1.925121	0.695096	0.846651
Zn25	Zn	1.258466	0.028431	-0.180004
Zn26	Zn	1.591799	0.361764	0.153329
Zn27	Zn	1.925133	0.695098	0.486663
O28	O	1.265218	0.178723	0.136594
O29	O	1.598552	0.512056	0.469927
O30	O	1.931885	0.845390	0.803260
C31	C	1.066651	0.053288	-0.000010
C32	C	1.399984	0.386621	0.333323
C33	C	1.733317	0.719954	0.666656
C34	C	0.949519	0.061801	-0.000011
C35	C	1.282852	0.395134	0.333323
C36	C	1.616186	0.728467	0.666656
C37	C	0.735568	-0.111642	-0.000028
C38	C	1.068902	0.221691	0.333305
C39	C	1.402235	0.555024	0.666638
C40	C	0.625513	-0.103648	-0.000029
C41	C	0.958846	0.229685	0.333305
C42	C	1.292180	0.563018	0.666638
C43	C	0.619351	0.085781	-0.000023
C44	C	0.952685	0.419114	0.333310
C45	C	1.286018	0.752448	0.666643
C46	C	0.729407	0.077787	-0.000023
C47	C	1.062740	0.411121	0.333310
C48	C	1.396073	0.744454	0.666644
C49	C	0.787511	-0.020928	-0.000023
C50	C	1.120845	0.312406	0.333310
C51	C	1.454178	0.645739	0.666644
C52	C	0.897569	-0.028921	-0.000011
C53	C	1.230902	0.304413	0.333322
C54	C	1.564235	0.637746	0.666656
C55	C	0.891405	0.160508	-0.000017
C56	C	1.224738	0.493841	0.333316
C57	C	1.558072	0.827175	0.666649
C58	C	0.781350	0.168502	-0.000018
C59	C	1.114683	0.501835	0.333316
C60	C	1.448016	0.835168	0.666649
C61	C	1.247128	-0.160072	-0.000001
C62	C	1.580461	0.173262	0.333333
C63	C	1.913794	0.506595	0.666666
C64	C	1.233500	-0.273920	-0.000003
C65	C	1.566833	0.059413	0.333330
C66	C	1.900166	0.392746	0.666663
C67	C	1.397331	-0.529646	-0.000037
C68	C	1.730665	-0.196313	0.333296
C69	C	2.063998	0.137020	0.666629
C70	C	1.384532	-0.636618	-0.000040
C71	C	1.717865	-0.303285	0.333293
C72	C	2.051198	0.030048	0.666627
C73	C	1.195102	-0.594839	-0.000024
C74	C	1.528435	-0.261505	0.333310
C75	C	1.861768	0.071828	0.666643
C76	C	1.207901	-0.487867	-0.000021
C77	C	1.541235	-0.154533	0.333313
C78	C	1.874568	0.178800	0.666646
C79	C	1.309019	-0.455275	-0.000025
C80	C	1.642353	-0.121942	0.333308
C81	C	1.975686	0.211392	0.666641
C82	C	1.321818	-0.348301	-0.000011
C83	C	1.655151	-0.014967	0.333323
C84	C	1.988485	0.318366	0.666656
C85	C	1.132389	-0.306523	-0.000006
C86	C	1.465722	0.026810	0.333327
C87	C	1.799056	0.360143	0.666661
C88	C	1.119589	-0.413495	-0.000009
C89	C	1.452923	-0.080162	0.333325
C90	C	1.786256	0.253171	0.666658
C91	C	1.450269	0.003573	-0.000013
C92	C	1.783602	0.336906	0.333320
C93	C	2.116936	0.670240	0.666654
C94	C	1.567401	-0.004940	-0.000024
C95	C	1.900734	0.328393	0.333310
C96	C	2.234067	0.661727	0.666643
C97	C	1.269792	0.216932	-0.000023
C98	C	1.603126	0.550266	0.333311
C99	C	1.936459	0.883599	0.666644
C100	C	1.283420	0.330781	-0.000031
C101	C	1.616753	0.664114	0.333303
C102	C	1.950087	0.997448	0.666636
N103	N	1.258453	0.028427	0.425667
N104	N	1.591787	0.361761	0.759000
N105	N	1.925120	0.695094	1.092334
N106	N	1.258474	0.028424	-0.425687
N107	N	1.591807	0.361758	-0.092353
N108	N	1.925141	0.695091	0.240980
H109	H	0.944876	-0.109300	-0.000008
H110	H	1.278209	0.224034	0.333325
H111	H	1.611543	0.557367	0.666658
H112	H	1.479665	-0.503110	-0.000025
H113	H	1.812999	-0.169777	0.333309
H114	H	2.146332	0.163557	0.666642
H115	H	0.572023	0.166150	-0.000045
H116	H	0.905357	0.499483	0.333289
H117	H	1.238690	0.832816	0.666622
H118	H	0.782878	-0.192020	-0.000017
H119	H	1.116211	0.141313	0.333316
H120	H	1.449545	0.474647	0.666649
Cl121	Cl	1.495558	-0.730112	-0.000060
Cl122	Cl	1.828891	-0.396778	0.333273
Cl123	Cl	2.162224	-0.063445	0.666607
H124	H	0.734026	0.248872	-0.000024
H125	H	1.067359	0.582206	0.333309
H126	H	1.400692	0.915539	0.666642
Cl127	Cl	0.560216	-0.217694	-0.000041
Cl128	Cl	0.893550	0.115639	0.333292
Cl129	Cl	1.226883	0.448972	0.666625
H130	H	1.037262	-0.440047	-0.000012
H131	H	1.370595	-0.106714	0.333322
H132	H	1.703928	0.226619	0.666655
Cl133	Cl	0.956711	0.274556	0.000016
Cl134	Cl	1.290044	0.607889	0.333350
Cl135	Cl	1.623377	0.941222	0.666683
Cl136	Cl	1.448936	-0.307329	-0.000005
Cl137	Cl	1.782269	0.026004	0.333328
Cl138	Cl	2.115602	0.359338	0.666661
Cl139	Cl	1.067993	-0.635831	-0.000067
Cl140	Cl	1.401326	-0.302498	0.333266
Cl141	Cl	1.734659	0.030835	0.666600
H142	H	1.060479	-0.245957	0.000017
H143	H	1.393812	0.087376	0.333350
H144	H	1.727146	0.420709	0.666684
