data_functionalizedCrystal
_audit_creation_method	'MofGen! by Chris Wilmer'
_symmetry_space_group_name_H-M	'P1'
_symmetry_Int_Tables_number	1
_symmetry_cell_setting	triclinic
loop_
_symmetry_equiv_pos_as_xyz
  x,y,z
_cell_length_a	10.723023
_cell_length_b	14.853568
_cell_length_c	13.930277
_cell_angle_alpha	89.997103
_cell_angle_beta	89.995641
_cell_angle_gamma	95.948632
loop_
_atom_site_label
_atom_site_type_symbol
_atom_site_fract_x
_atom_site_fract_y
_atom_site_fract_z
O1	O	1.655912	-0.126440	-0.079810
O2	O	1.292637	-0.138544	-0.079813
O3	O	1.483977	-0.001313	-0.079817
O4	O	1.464571	-0.263670	-0.079807
O5	O	1.483958	-0.001317	0.079845
O6	O	1.292618	-0.138548	0.079848
O7	O	1.655893	-0.126444	0.079852
Zn8	Zn	1.474252	-0.132496	0.105200
Zn9	Zn	1.474277	-0.132491	-0.105162
O10	O	1.464552	-0.263674	0.079855
C11	C	1.246136	-0.137665	0.000017
C12	C	1.107609	-0.135030	0.000015
C13	C	1.045839	-0.133857	0.082724
C14	C	0.902663	-0.131134	0.082724
C15	C	1.483088	0.032278	0.000011
C16	C	1.480453	0.132376	0.000001
C17	C	1.355652	0.545568	0.000012
C18	C	1.582969	0.565649	0.000014
C19	C	1.585447	0.471603	0.000010
C20	C	1.473026	0.414534	0.000008
C21	C	1.358126	0.451512	0.000011
C22	C	1.700345	0.434617	0.000017
C23	C	1.702827	0.340565	0.000014
C24	C	1.590405	0.283495	0.000005
C25	C	1.475500	0.320478	0.000007
C26	C	1.363079	0.263410	0.000005
C27	C	1.248173	0.300392	0.000000
C28	C	1.245704	0.394442	0.000003
C29	C	1.592874	0.189444	0.000003
C30	C	1.365554	0.169354	0.000004
C31	C	1.702393	-0.127322	0.000019
C32	C	1.840920	-0.129957	0.000014
N33	N	1.474244	-0.132499	0.248766
C34	C	1.465440	0.702734	0.000021
C35	C	1.468073	0.602637	0.000014
N36	N	1.474295	-0.132481	-0.248728
C37	C	1.389507	-0.193246	0.299031
C38	C	1.558989	-0.071749	0.299006
C39	C	1.559003	-0.071745	0.399502
C40	C	1.474266	-0.132492	0.449767
C41	C	1.389515	-0.193242	0.399536
C42	C	1.643743	-0.010990	0.449740
C43	C	1.643759	-0.010983	0.550242
C44	C	1.559026	-0.071735	0.600509
C45	C	1.474274	-0.132488	0.550272
C46	C	1.389537	-0.193235	0.600536
C47	C	1.304789	-0.253994	0.550301
C48	C	1.304783	-0.253994	0.449802
C49	C	1.559032	-0.071734	0.701008
C50	C	1.389545	-0.193232	0.701041
H51	H	0.849542	-0.130130	0.153534
H52	H	1.796390	0.310463	0.000016
H53	H	0.894032	-0.130971	-0.070799
C54	C	1.037034	-0.133642	-0.094509
C55	C	1.121772	-0.135232	-0.170813
C56	C	1.056809	-0.133943	-0.257905
H57	H	0.976826	-0.185143	-0.098209
H58	H	0.995708	-0.080174	-0.098133
H59	H	1.163077	-0.188694	-0.167191
H60	H	1.181981	-0.083734	-0.167145
H61	H	1.015484	-0.080475	-0.261529
H62	H	0.996604	-0.185445	-0.261596
H63	H	1.114295	-0.135013	-0.309688
H64	H	1.235790	-0.303451	0.591238
H65	H	1.686429	0.159338	0.000013
C66	C	1.230866	0.585664	-0.000192
C67	C	1.162925	0.556746	-0.082348
C68	C	1.047974	0.593675	-0.082576
H69	H	1.184411	0.566149	0.055420
H70	H	1.245435	0.649855	-0.000246
H71	H	1.148352	0.492570	-0.082285
H72	H	1.209342	0.576261	-0.137972
H73	H	1.062544	0.657865	-0.082630
H74	H	1.001531	0.574157	-0.026961
H75	H	1.001867	0.574066	-0.138321
C76	C	1.243356	0.107548	0.000049
C77	C	1.142208	0.160068	0.000067
C78	C	1.029622	0.103164	0.000121
H79	H	1.239427	0.070423	-0.055612
H80	H	1.239517	0.070453	0.055750
H81	H	1.146045	0.197147	-0.055628
H82	H	1.146095	0.197191	0.055724
H83	H	1.025782	0.066069	0.055823
H84	H	1.025706	0.066042	-0.055541
H85	H	0.960979	0.138790	0.000143
C86	C	1.120924	0.434547	-0.000194
C87	C	1.052974	0.405643	-0.082351
C88	C	0.938031	0.442584	-0.082569
H89	H	1.074469	0.415029	0.055417
H90	H	1.135505	0.498737	-0.000241
H91	H	1.038389	0.341467	-0.082295
H92	H	1.099390	0.425160	-0.137975
H93	H	0.952612	0.506774	-0.082616
H94	H	0.891588	0.423064	-0.026955
H95	H	0.891918	0.422985	-0.138315
C96	C	1.212822	-0.319847	0.395087
C97	C	1.230926	-0.306825	0.296317
C98	C	1.146220	-0.367459	0.245880
H99	H	1.226389	-0.380148	0.411437
H100	H	1.129506	-0.309496	0.411513
H101	H	1.314223	-0.317183	0.279897
H102	H	1.217349	-0.246536	0.279938
H103	H	1.062904	-0.357108	0.262306
H104	H	1.159794	-0.427756	0.262238
H105	H	1.158484	-0.358626	0.178859
C106	C	1.116617	-0.135017	0.177176
C107	C	1.098966	-0.056979	0.229702
C108	C	1.164158	-0.058009	0.316712
H109	H	1.085987	-0.187034	0.213077
H110	H	1.203457	-0.136618	0.164665
H111	H	1.012144	-0.055386	0.242216
H112	H	1.129602	-0.004949	0.193830
H113	H	1.250998	-0.059610	0.304200
H114	H	1.133522	-0.110029	0.352604
H115	H	1.152201	-0.005058	0.352357
C116	C	1.704980	0.627651	-0.000179
C117	C	1.710218	0.682226	-0.082330
C118	C	1.822608	0.739350	-0.082548
H119	H	1.708851	0.664836	0.055436
H120	H	1.773802	0.592190	-0.000234
H121	H	1.641416	0.717684	-0.082267
H122	H	1.706369	0.645066	-0.137958
H123	H	1.891429	0.703889	-0.082603
H124	H	1.826469	0.776528	-0.026930
H125	H	1.826182	0.776380	-0.138290
H126	H	1.712728	0.038473	0.408812
H127	H	1.320510	-0.242717	0.258126
H128	H	1.156640	0.253914	0.000006
C129	C	1.735575	0.055080	0.604828
C130	C	1.669026	0.110724	0.662514
C131	C	1.753569	0.171597	0.712803
H132	H	1.787612	0.022413	0.644104
H133	H	1.786020	0.091309	0.560526
H134	H	1.618603	0.074500	0.706811
H135	H	1.616994	0.143411	0.623262
H136	H	1.804013	0.207826	0.668501
H137	H	1.805601	0.138923	0.752074
H138	H	1.708428	0.209364	0.751942
C139	C	1.297399	-0.259226	0.755437
C140	C	1.223165	-0.312415	0.689931
C141	C	1.138255	-0.373208	0.740005
H142	H	1.342204	-0.297132	0.794649
H143	H	1.245331	-0.226472	0.794620
H144	H	1.275226	-0.345166	0.650765
H145	H	1.178332	-0.274534	0.650717
H146	H	1.086188	-0.340455	0.779187
H147	H	1.183071	-0.411108	0.779215
H148	H	1.087870	-0.409299	0.695566
C149	C	1.650850	-0.005843	0.244259
C150	C	1.584378	0.049774	0.186483
C151	C	1.668992	0.110449	0.135998
H152	H	1.701428	0.030429	0.288414
H153	H	1.702748	-0.038690	0.205032
H154	H	1.532501	0.082619	0.225707
H155	H	1.533804	0.013527	0.142310
H156	H	1.720891	0.077602	0.096771
H157	H	1.719566	0.146715	0.180161
H158	H	1.623904	0.148188	0.096785
H159	H	1.628027	-0.022262	0.741905
H160	H	1.791872	0.481089	0.000027
