data_functionalizedCrystal
_audit_creation_method	'MofGen! by Chris Wilmer'
_symmetry_space_group_name_H-M	'P1'
_symmetry_Int_Tables_number	1
_symmetry_cell_setting	triclinic
loop_
_symmetry_equiv_pos_as_xyz
  x,y,z
_cell_length_a	21.395362
_cell_length_b	18.050589
_cell_length_c	21.395356
_cell_angle_alpha	89.977927
_cell_angle_beta	89.957023
_cell_angle_gamma	90.044101
loop_
_atom_site_label
_atom_site_type_symbol
_atom_site_fract_x
_atom_site_fract_y
_atom_site_fract_z
Zn1	Zn	0.957864	-0.295363	-0.354610
Zn2	Zn	1.291198	0.037970	-0.021277
Zn3	Zn	1.624531	0.371303	0.312057
Zn4	Zn	0.957773	-0.419555	-0.249843
Zn5	Zn	1.291107	-0.086222	0.083491
Zn6	Zn	1.624440	0.247111	0.416824
Zn7	Zn	0.853081	-0.295418	-0.249811
Zn8	Zn	1.186414	0.037915	0.083522
Zn9	Zn	1.519748	0.371249	0.416855
Zn10	Zn	0.853053	-0.419551	-0.354548
Zn11	Zn	1.186386	-0.086217	-0.021214
Zn12	Zn	1.519720	0.247116	0.312119
O13	O	0.905443	-0.357472	-0.302203
O14	O	1.238776	-0.024138	0.031130
O15	O	1.572110	0.309195	0.364464
O16	O	1.045530	-0.311817	-0.340752
O17	O	1.378864	0.021516	-0.007418
O18	O	1.712197	0.354850	0.325915
O19	O	0.943859	-0.403113	-0.162161
O20	O	1.277192	-0.069779	0.171173
O21	O	1.610526	0.263554	0.504506
O22	O	0.867031	-0.191486	-0.263726
O23	O	1.200364	0.141847	0.069607
O24	O	1.533697	0.475181	0.402941
O25	O	1.045463	-0.403060	-0.263780
O26	O	1.378797	-0.069727	0.069554
O27	O	1.712130	0.263607	0.402887
O28	O	0.944015	-0.191446	-0.340721
O29	O	1.277348	0.141887	-0.007388
O30	O	1.610681	0.475221	0.325945
O31	O	0.866942	-0.311910	-0.162138
O32	O	1.200276	0.021424	0.171196
O33	O	1.533609	0.354757	0.504529
O34	O	0.765399	-0.311905	-0.263665
O35	O	1.098733	0.021428	0.069668
O36	O	1.432066	0.354761	0.403001
O37	O	0.866983	-0.403052	-0.442234
O38	O	1.200316	-0.069719	-0.108900
O39	O	1.533650	0.263614	0.224433
O40	O	0.765379	-0.403105	-0.340615
O41	O	1.098712	-0.069772	-0.007281
O42	O	1.432046	0.263562	0.326052
O43	O	0.943987	-0.311812	-0.442280
O44	O	1.277321	0.021521	-0.108946
O45	O	1.610654	0.354854	0.224387
O46	O	0.943832	-0.523479	-0.263719
O47	O	1.277165	-0.190146	0.069614
O48	O	1.610499	0.143187	0.402948
O49	O	0.866895	-0.523476	-0.340645
O50	O	1.200228	-0.190142	-0.007312
O51	O	1.533561	0.143191	0.326021
C52	C	0.742655	-0.357511	-0.302130
C53	C	1.075989	-0.024178	0.031203
C54	C	1.409322	0.309156	0.364536
C55	C	0.673014	-0.357546	-0.302114
C56	C	1.006347	-0.024212	0.031219
C57	C	1.339681	0.309121	0.364553
C58	C	0.640307	-0.405096	-0.342121
C59	C	0.973640	-0.071763	-0.008788
C60	C	1.306973	0.261570	0.324545
C61	C	0.574871	-0.405078	-0.342149
C62	C	0.908204	-0.071745	-0.008816
C63	C	1.241538	0.261588	0.324517
C64	C	0.542146	-0.357517	-0.302159
C65	C	0.875479	-0.024184	0.031175
C66	C	1.208812	0.309150	0.364508
C67	C	0.574861	-0.309957	-0.262148
C68	C	0.908194	0.023376	0.071185
C69	C	1.241528	0.356709	0.404518
C70	C	0.640295	-0.309972	-0.262126
C71	C	0.973629	0.023362	0.071207
C72	C	1.306962	0.356695	0.404541
C73	C	0.438422	-0.351545	-0.245753
C74	C	0.771755	-0.018212	0.087580
C75	C	1.105088	0.315122	0.420914
C76	C	0.372989	-0.351536	-0.245774
C77	C	0.706322	-0.018203	0.087559
C78	C	1.039655	0.315131	0.420893
C79	C	0.340325	-0.357469	-0.302228
C80	C	0.673658	-0.024135	0.031106
C81	C	1.006992	0.309198	0.364439
C82	C	0.373102	-0.363426	-0.358662
C83	C	0.706436	-0.030093	-0.025329
C84	C	1.039769	0.303241	0.308005
C85	C	0.438536	-0.363440	-0.358640
C86	C	0.771870	-0.030107	-0.025306
C87	C	1.105203	0.303226	0.308027
C88	C	0.471193	-0.357496	-0.302179
C89	C	0.804527	-0.024163	0.031155
C90	C	1.137860	0.309171	0.364488
C91	C	0.236665	-0.405002	-0.342269
C92	C	0.569998	-0.071669	-0.008936
C93	C	0.903332	0.261665	0.324398
C94	C	0.171228	-0.404979	-0.342298
C95	C	0.504562	-0.071645	-0.008965
C96	C	0.837895	0.261688	0.324369
C97	C	0.171220	-0.309862	-0.262291
C98	C	0.504553	0.023472	0.071042
C99	C	0.837886	0.356805	0.404375
C100	C	0.236655	-0.309881	-0.262268
C101	C	0.569988	0.023452	0.071065
C102	C	0.903322	0.356785	0.404399
C103	C	0.269374	-0.357455	-0.302256
C104	C	0.602707	-0.024122	0.031077
C105	C	0.936040	0.309211	0.364411
C106	C	0.905367	-0.550424	-0.302192
C107	C	1.238701	-0.217091	0.031141
C108	C	1.572034	0.116243	0.364474
C109	C	0.905392	-0.632970	-0.302209
C110	C	1.238726	-0.299636	0.031124
C111	C	1.572059	0.033697	0.364458
C112	C	0.863595	-0.832445	-0.344027
C113	C	1.196928	-0.499112	-0.010693
C114	C	1.530262	-0.165779	0.322640
C115	C	0.848318	-0.881889	-0.286848
C116	C	1.181651	-0.548556	0.046485
C117	C	1.514984	-0.215222	0.379818
C118	C	0.905454	-0.784100	-0.302217
C119	C	1.238787	-0.450767	0.031116
C120	C	1.572120	-0.117433	0.364449
C121	C	0.920762	-0.881738	-0.359402
C122	C	1.254095	-0.548405	-0.026069
C123	C	1.587429	-0.215071	0.307265
C124	C	0.905512	-0.930085	-0.302230
C125	C	1.238845	-0.596752	0.031103
C126	C	1.572179	-0.263418	0.364437
C127	C	0.890147	-0.832456	-0.245009
C128	C	1.223480	-0.499123	0.088325
C129	C	1.556813	-0.165790	0.421658
C130	C	0.962617	-0.832301	-0.317601
C131	C	1.295951	-0.498968	0.015733
C132	C	1.629284	-0.165634	0.349066
C133	C	0.947362	-0.881722	-0.260383
C134	C	1.280695	-0.548389	0.072950
C135	C	1.614029	-0.215056	0.406284
C136	C	0.905419	-0.700002	-0.302211
C137	C	1.238752	-0.366668	0.031123
C138	C	1.572085	-0.033335	0.364456
C139	C	0.905547	-1.014182	-0.302230
C140	C	1.238881	-0.680848	0.031103
C141	C	1.572214	-0.347515	0.364436
C142	C	1.068866	-0.357433	-0.302276
C143	C	1.402200	-0.024100	0.031057
C144	C	1.735533	0.309234	0.364390
C145	C	1.138508	-0.357416	-0.302307
C146	C	1.471841	-0.024083	0.031026
C147	C	1.805174	0.309250	0.364359
C148	C	0.905492	-0.357426	-0.465626
C149	C	1.238826	-0.024092	-0.132293
C150	C	1.572159	0.309241	0.201040
C151	C	0.905513	-0.357406	-0.535268
C152	C	1.238847	-0.024073	-0.201934
C153	C	1.572180	0.309261	0.131399
C154	C	0.905536	-0.163766	-0.302227
C155	C	1.238869	0.169567	0.031106
C156	C	1.572203	0.502901	0.364440
C157	C	0.905576	-0.081220	-0.302237
C158	C	1.238909	0.252113	0.031096
C159	C	1.572242	0.585446	0.364429
C160	C	0.865473	-0.309911	-0.567959
C161	C	1.198807	0.023422	-0.234625
C162	C	1.532140	0.356755	0.098708
C163	C	0.865471	-0.309898	-0.633394
C164	C	1.198805	0.023436	-0.300061
C165	C	1.532138	0.356769	0.033272
C166	C	0.905520	-0.357371	-0.666136
C167	C	1.238854	-0.024037	-0.332803
C168	C	1.572187	0.309296	0.000531
C169	C	0.945563	-0.404875	-0.633437
C170	C	1.278896	-0.071541	-0.300103
C171	C	1.612230	0.261792	0.033230
C172	C	0.945559	-0.404892	-0.568003
C173	C	1.278893	-0.071559	-0.234669
C174	C	1.612226	0.261774	0.098664
C175	C	0.961972	-0.363191	-0.769842
C176	C	1.295306	-0.029858	-0.436508
C177	C	1.628639	0.303476	-0.103175
C178	C	0.961977	-0.363168	-0.835275
C179	C	1.295310	-0.029835	-0.501941
C180	C	1.628644	0.303499	-0.168608
C181	C	0.905530	-0.357321	-0.867957
C182	C	1.238864	-0.023987	-0.534623
C183	C	1.572197	0.309346	-0.201290
C184	C	0.849078	-0.351480	-0.835198
C185	C	1.182411	-0.018147	-0.501864
C186	C	1.515745	0.315186	-0.168531
C187	C	0.849074	-0.351498	-0.769764
C188	C	1.182408	-0.018165	-0.436430
C189	C	1.515741	0.315169	-0.103097
C190	C	0.905528	-0.357357	-0.737088
C191	C	1.238861	-0.024024	-0.403755
C192	C	1.572195	0.309309	-0.070422
C193	C	0.865485	-0.309808	-0.971601
C194	C	1.198818	0.023525	-0.638267
C195	C	1.532152	0.356858	-0.304934
C196	C	0.865482	-0.309800	-1.037037
C197	C	1.198815	0.023534	-0.703704
C198	C	1.532148	0.356867	-0.370371
C199	C	0.945579	-0.404773	-1.037079
C200	C	1.278912	-0.071440	-0.703745
C201	C	1.612246	0.261893	-0.370412
C202	C	0.945577	-0.404786	-0.971643
C203	C	1.278910	-0.071452	-0.638310
C204	C	1.612243	0.261881	-0.304977
C205	C	0.905530	-0.357299	-0.938908
C206	C	1.238864	-0.023966	-0.605575
C207	C	1.572197	0.309367	-0.272241
C208	C	0.905430	-0.357464	-0.139415
C209	C	1.238763	-0.024131	0.193918
C210	C	1.572097	0.309203	0.527251
C211	C	0.905530	-0.357274	-0.069774
C212	C	1.238864	-0.023941	0.263559
C213	C	1.572197	0.309392	0.596892
H214	H	0.263306	-0.443736	-0.374833
H215	H	0.596639	-0.110403	-0.041499
H216	H	0.929973	0.222931	0.291834
H217	H	1.010920	-0.810506	-0.330628
H218	H	1.344254	-0.477173	0.002705
H219	H	1.677587	-0.143839	0.336039
H220	H	0.978167	-0.443568	-0.541386
H221	H	1.311501	-0.110234	-0.208052
H222	H	1.644834	0.223099	0.125281
Cl223	Cl	0.808865	-0.799035	-0.398539
Cl224	Cl	1.142198	-0.465701	-0.065205
Cl225	Cl	1.475531	-0.132368	0.268128
H226	H	0.803109	-0.346744	-0.743094
H227	H	1.136442	-0.013411	-0.409760
H228	H	1.469775	0.319922	-0.076427
Cl229	Cl	0.815127	-0.250218	-0.526809
Cl230	Cl	1.148460	0.083115	-0.193476
Cl231	Cl	1.481793	0.416449	0.139857
H232	H	0.978189	-0.443425	-1.063736
H233	H	1.311522	-0.110092	-0.730403
H234	H	1.644856	0.223241	-0.397070
Cl235	Cl	0.940716	-0.915164	-0.434057
Cl236	Cl	1.274049	-0.581831	-0.100724
Cl237	Cl	1.607382	-0.248497	0.232609
Cl238	Cl	0.815145	-0.250169	-0.674500
Cl239	Cl	1.148479	0.083165	-0.341167
Cl240	Cl	1.481812	0.416498	-0.007834
H241	H	0.666925	-0.271248	-0.229547
H242	H	1.000259	0.062085	0.103786
H243	H	1.333592	0.395419	0.437120
Cl244	Cl	0.995920	-0.464492	-0.930543
Cl245	Cl	1.329253	-0.131159	-0.597210
Cl246	Cl	1.662587	0.202175	-0.263877
H247	H	0.803114	-0.346714	-0.861806
H248	H	1.136447	-0.013380	-0.528473
H249	H	1.469781	0.319953	-0.195139
Cl250	Cl	0.815123	-0.250107	-1.078135
Cl251	Cl	1.148456	0.083226	-0.744802
Cl252	Cl	1.481790	0.416559	-0.411469
Cl253	Cl	0.773721	-0.915515	-0.266761
Cl254	Cl	1.107054	-0.582182	0.066573
Cl255	Cl	1.440388	-0.248849	0.399906
H256	H	0.832876	-0.271143	-0.944946
H257	H	1.166210	0.062191	-0.611613
H258	H	1.499543	0.395524	-0.278280
H259	H	1.007944	-0.367920	-0.861942
H260	H	1.341277	-0.034587	-0.528609
H261	H	1.674611	0.298747	-0.195276
Cl262	Cl	0.995907	-0.464559	-0.674597
Cl263	Cl	1.329240	-0.131226	-0.341264
Cl264	Cl	1.662574	0.202108	-0.007930
H265	H	0.877166	-0.810898	-0.196640
H266	H	1.210500	-0.477565	0.136693
H267	H	1.543833	-0.144232	0.470027
Cl268	Cl	1.032940	-0.370548	-0.728763
Cl269	Cl	1.366274	-0.037215	-0.395430
Cl270	Cl	1.699607	0.296119	-0.062096
H271	H	0.548236	-0.443799	-0.374731
H272	H	0.881569	-0.110466	-0.041397
H273	H	1.214902	0.222867	0.291936
Cl274	Cl	0.681435	-0.464900	-0.392395
Cl275	Cl	1.014769	-0.131567	-0.059062
Cl276	Cl	1.348102	0.201766	0.274272
Cl277	Cl	0.533721	-0.250163	-0.211877
Cl278	Cl	0.867055	0.083171	0.121456
Cl279	Cl	1.200388	0.416504	0.454789
H280	H	0.263286	-0.271164	-0.229686
H281	H	0.596619	0.062169	0.103647
H282	H	0.929952	0.395503	0.436980
Cl283	Cl	1.002055	-0.914920	-0.205743
Cl284	Cl	1.335389	-0.581587	0.127590
Cl285	Cl	1.668722	-0.248254	0.460924
H286	H	0.465221	-0.368289	-0.404590
H287	H	0.798554	-0.034956	-0.071257
H288	H	1.131888	0.298378	0.262076
Cl289	Cl	0.130110	-0.464758	-0.392602
Cl290	Cl	0.463443	-0.131425	-0.059268
Cl291	Cl	0.796777	0.201908	0.274065
Cl292	Cl	0.332047	-0.370880	-0.429638
Cl293	Cl	0.665380	-0.037547	-0.096304
Cl294	Cl	0.998714	0.295786	0.237029
H295	H	0.346307	-0.346690	-0.199822
H296	H	0.679640	-0.013356	0.133511
H297	H	1.012973	0.319977	0.466845
Cl298	Cl	0.130085	-0.250065	-0.212020
Cl299	Cl	0.463419	0.083268	0.121313
Cl300	Cl	0.796752	0.416601	0.454646
Cl301	Cl	0.479478	-0.344089	-0.174775
Cl302	Cl	0.812811	-0.010756	0.158558
Cl303	Cl	1.146144	0.322577	0.491891
