data_functionalizedCrystal
_audit_creation_method	'MofGen! by Chris Wilmer'
_symmetry_space_group_name_H-M	'P1'
_symmetry_Int_Tables_number	1
_symmetry_cell_setting	triclinic
loop_
_symmetry_equiv_pos_as_xyz
  x,y,z
_cell_length_a	19.288864
_cell_length_b	19.288865
_cell_length_c	15.455446
_cell_angle_alpha	87.330239
_cell_angle_beta	87.358405
_cell_angle_gamma	96.863755
loop_
_atom_site_label
_atom_site_type_symbol
_atom_site_fract_x
_atom_site_fract_y
_atom_site_fract_z
O1	O	0.918290	-0.089706	0.072417
O2	O	1.418290	0.410294	0.572417
O3	O	0.716032	-0.101392	0.072359
O4	O	1.216032	0.398608	0.572359
O5	O	0.823006	0.005582	0.072373
O6	O	1.323006	0.505582	0.572373
O7	O	0.811316	-0.196680	0.072404
O8	O	1.311316	0.303320	0.572404
O9	O	0.829089	0.011677	-0.071886
O10	O	1.329089	0.511677	0.428114
O11	O	0.722115	-0.095297	-0.071899
O12	O	1.222115	0.404703	0.428101
O13	O	0.924373	-0.083611	-0.071841
O14	O	1.424373	0.416389	0.428159
Cu15	Cu	0.823799	-0.088897	-0.085042
Cu16	Cu	1.323799	0.411103	0.414958
Cu17	Cu	0.816605	-0.096106	0.085560
Cu18	Cu	1.316605	0.403894	0.585560
O19	O	0.817399	-0.190585	-0.071855
O20	O	1.317399	0.309415	0.428145
C21	C	0.693197	-0.097968	0.000222
C22	C	1.193197	0.402032	0.500222
C23	C	0.616095	-0.096838	0.000199
C24	C	1.116095	0.403162	0.500199
C25	C	0.825671	0.034506	0.000241
C26	C	1.325671	0.534506	0.500241
C27	C	0.824543	0.111610	0.000233
C28	C	1.324543	0.611610	0.500233
C29	C	0.571397	-0.159607	0.000223
C30	C	1.071397	0.340393	0.500223
C31	C	0.498950	-0.158547	0.000232
C32	C	0.998950	0.341453	0.500232
C33	C	0.471202	-0.094715	0.000236
C34	C	0.971202	0.405285	0.500236
C35	C	0.515909	-0.031937	0.000208
C36	C	1.015909	0.468063	0.500208
C37	C	0.588356	-0.032999	0.000189
C38	C	1.088356	0.467001	0.500189
C39	C	0.360808	-0.046672	0.050797
C40	C	0.860808	0.453328	0.550797
C41	C	0.288363	-0.045613	0.050821
C42	C	0.788363	0.454387	0.550821
C43	C	0.247754	-0.091437	0.000288
C44	C	0.747754	0.408563	0.500288
C45	C	0.279598	-0.138333	-0.050258
C46	C	0.779598	0.361667	0.449742
C47	C	0.352045	-0.139394	-0.050276
C48	C	0.852045	0.360606	0.449724
C49	C	0.392647	-0.093556	0.000255
C50	C	0.892647	0.406444	0.500255
C51	C	0.124501	-0.153061	0.000320
C52	C	0.624501	0.346939	0.500320
C53	C	0.052053	-0.151998	0.000324
C54	C	0.552053	0.348002	0.500324
C55	C	0.069013	-0.025387	0.000308
C56	C	0.569013	0.474613	0.500308
C57	C	0.141460	-0.026451	0.000295
C58	C	0.641460	0.473549	0.500295
C59	C	0.169199	-0.090290	0.000305
C60	C	0.669199	0.409710	0.500305
C61	C	0.947208	-0.087035	0.000298
C62	C	1.447208	0.412965	0.500298
C63	C	1.024310	-0.088165	0.000326
C64	C	1.524310	0.411835	0.500326
N65	N	0.828864	-0.083827	-0.205034
N66	N	1.328864	0.416173	0.294966
C67	C	0.814733	-0.219509	0.000279
C68	C	1.314733	0.280491	0.500279
C69	C	0.815862	-0.296613	0.000293
C70	C	1.315862	0.203387	0.500293
C71	C	0.887310	0.156306	0.000247
C72	C	1.387310	0.656306	0.500247
C73	C	0.886249	0.228752	0.000260
C74	C	1.386249	0.728752	0.500260
C75	C	0.822417	0.256501	0.000242
C76	C	1.322417	0.756501	0.500242
C77	C	0.759642	0.211795	0.000233
C78	C	1.259642	0.711795	0.500233
C79	C	0.760704	0.139350	0.000229
C80	C	1.260704	0.639350	0.500229
C81	C	0.774369	0.366924	-0.050303
C82	C	1.274369	0.866924	0.449697
C83	C	0.773309	0.439368	-0.050303
C84	C	1.273309	0.939368	0.449697
C85	C	0.819137	0.479945	0.000261
C86	C	1.319137	0.979945	0.500261
C87	C	0.866037	0.448071	0.050814
C88	C	1.366037	0.948071	0.550814
C89	C	0.867099	0.375626	0.050809
C90	C	1.367099	0.875626	0.550809
C91	C	0.821258	0.335054	0.000248
C92	C	1.321258	0.835054	0.500248
C93	C	0.880758	0.603196	0.000290
C94	C	1.380758	1.103196	0.500290
C95	C	0.879694	0.675644	0.000309
C96	C	1.379694	1.175644	0.500309
C97	C	0.753085	0.658685	0.000274
C98	C	1.253085	1.158685	0.500274
C99	C	0.754151	0.586239	0.000264
C100	C	1.254151	1.086239	0.500264
C101	C	0.817989	0.558499	0.000268
C102	C	1.317989	1.058499	0.500268
C103	C	0.857001	-0.055742	-0.749025
C104	C	1.357001	0.444258	-0.249025
C105	C	0.853154	-0.059585	-0.658220
C106	C	1.353154	0.440415	-0.158220
C107	C	0.803850	-0.108854	-0.612838
C108	C	1.303850	0.391146	-0.112838
C109	C	0.758393	-0.154287	-0.658267
C110	C	1.258393	0.345713	-0.158267
C111	C	0.762243	-0.150447	-0.749071
C112	C	1.262243	0.349553	-0.249071
C113	C	0.787258	-0.125420	-0.341267
C114	C	1.287258	0.374580	0.158733
C115	C	0.783410	-0.129255	-0.250457
C116	C	1.283410	0.370745	0.249543
C117	C	0.878172	-0.034553	-0.250416
C118	C	1.378172	0.465447	0.249584
C119	C	0.882015	-0.030715	-0.341221
C120	C	1.382015	0.469285	0.158779
C121	C	0.836561	-0.076150	-0.386642
C122	C	1.336561	0.423850	0.113358
N123	N	0.799916	-0.112782	-0.520020
N124	N	1.299916	0.387218	-0.020020
N125	N	0.840499	-0.072225	-0.479458
N126	N	1.340499	0.427775	0.020542
N127	N	0.811546	-0.101170	0.205552
N128	N	1.311546	0.398830	0.705552
H129	H	0.462550	-0.209662	0.000249
H130	H	0.962550	0.290338	0.500249
H131	H	0.725230	-0.187441	-0.786053
H132	H	1.225230	0.312559	-0.286053
H133	H	0.890167	-0.022594	-0.621237
H134	H	1.390167	0.477406	-0.121237
H135	H	0.718251	-0.194407	-0.621312
H136	H	1.218251	0.305593	-0.121312
H137	H	0.147087	-0.205042	0.000315
H138	H	0.647087	0.294958	0.500315
C139	C	0.002885	-0.221047	0.000350
C140	C	0.502885	0.278953	0.500350
H141	H	0.029784	-0.259216	0.000361
H142	H	0.529784	0.240784	0.500361
H143	H	-0.023625	-0.221144	-0.049950
H144	H	0.476375	0.278856	0.450050
H145	H	-0.027833	-0.225385	0.050669
H146	H	0.472167	0.274615	0.550669
C147	C	0.601910	-0.229825	0.000229
C148	C	1.101910	0.270175	0.500229
H149	H	0.651459	-0.221470	0.000222
H150	H	1.151459	0.278530	0.500222
H151	H	0.588656	-0.253539	-0.050067
H152	H	1.088656	0.246461	0.449933
H153	H	0.584449	-0.257782	0.050551
H154	H	1.084449	0.242218	0.550551
H155	H	0.046420	0.026584	0.000365
H156	H	0.546420	0.526584	0.500365
H157	H	0.377969	-0.177576	-0.091434
H158	H	0.877969	0.322424	0.408566
C159	C	0.234939	-0.188746	-0.105842
C160	C	0.734939	0.311254	0.394158
H161	H	0.187232	-0.181395	-0.098600
H162	H	0.687232	0.318605	0.401400
H163	H	0.239913	-0.235625	-0.088064
H164	H	0.739913	0.264375	0.411936
H165	H	0.250110	-0.180310	-0.165156
H166	H	0.750110	0.319690	0.334844
C167	C	0.957527	0.125792	0.000254
C168	C	1.457527	0.625792	0.500254
H169	H	0.949173	0.076245	0.000242
H170	H	1.449173	0.576245	0.500242
H171	H	0.981247	0.139016	0.050565
H172	H	1.481247	0.639016	0.550565
H173	H	0.985478	0.143283	-0.050054
H174	H	1.485478	0.643283	0.449946
H175	H	0.932739	0.580610	0.000298
H176	H	1.432739	1.080610	0.500298
H177	H	0.905285	0.349677	0.091974
H178	H	1.405285	0.849677	0.591974
C179	C	0.911235	-0.001545	-0.798937
C180	C	1.411235	0.498455	-0.298937
H181	H	0.937759	0.024956	-0.758876
H182	H	1.437759	0.524956	-0.258876
H183	H	0.887849	0.028808	-0.834380
H184	H	1.387849	0.528808	-0.334380
H185	H	0.941570	-0.024967	-0.834336
H186	H	1.441570	0.475033	-0.334336
C187	C	0.936248	0.023481	-0.391139
C188	C	1.436248	0.523481	0.108861
H189	H	0.932025	0.019267	-0.451724
H190	H	1.432025	0.519267	0.048276
H191	H	0.981947	0.015427	-0.376230
H192	H	1.481947	0.515427	0.123770
H193	H	0.928216	0.069193	-0.376267
H194	H	1.428216	0.569193	0.123733
H195	H	0.709590	0.102958	0.000217
H196	H	1.209590	0.602958	0.500217
H197	H	0.177854	0.024662	0.000281
H198	H	0.677854	0.524662	0.500281
C199	C	0.253341	0.005971	0.106414
C200	C	0.753341	0.505971	0.606414
H201	H	0.287902	0.033120	0.136493
H202	H	0.787902	0.533120	0.636493
H203	H	0.220163	-0.019339	0.147068
H204	H	0.720163	0.480661	0.647068
H205	H	0.230362	0.035969	0.069968
H206	H	0.730362	0.535969	0.569968
C207	C	0.405470	0.003732	0.106395
C208	C	0.905470	0.503732	0.606395
H209	H	0.376129	0.031803	0.136511
H210	H	0.876129	0.531803	0.636511
H211	H	0.439015	0.032907	0.069957
H212	H	0.939015	0.532907	0.569957
H213	H	0.428809	-0.022424	0.147032
H214	H	0.928809	0.477576	0.647032
C215	C	0.637524	0.036049	0.000174
C216	C	1.137524	0.536049	0.500174
H217	H	0.610626	0.074219	0.000182
H218	H	1.110626	0.574219	0.500182
H219	H	0.668246	0.040394	-0.050135
H220	H	1.168246	0.540394	0.449865
H221	H	0.664028	0.036137	0.050483
H222	H	1.164028	0.536137	0.550483
C223	C	0.485390	0.038276	0.000217
C224	C	0.985390	0.538276	0.500217
H225	H	0.435841	0.029918	0.000240
H226	H	0.935841	0.529918	0.500240
H227	H	0.502848	0.066240	-0.050095
H228	H	1.002848	0.566240	0.449905
H229	H	0.498645	0.061983	0.050523
H230	H	0.998645	0.561983	0.550523
H231	H	0.735118	0.465314	-0.091462
H232	H	1.235118	0.965314	0.408538
C233	C	0.955296	0.277927	0.000269
C234	C	1.455296	0.777927	0.500269
H235	H	0.993467	0.251030	0.000265
H236	H	1.493467	0.751030	0.500265
H237	H	0.955396	0.304410	0.050575
H238	H	1.455396	0.804410	0.550575
H239	H	0.959626	0.308669	-0.050044
H240	H	1.459626	0.808669	0.449956
C241	C	0.916446	0.492696	0.106443
C242	C	1.416446	0.992696	0.606443
H243	H	0.909092	0.540405	0.099217
H244	H	1.409092	1.040405	0.599217
H245	H	0.963325	0.487735	0.088690
H246	H	1.463325	0.987735	0.588690
H247	H	0.908008	0.477484	0.165749
H248	H	1.408008	0.977484	0.665749
C249	C	0.948739	0.724812	0.000334
C250	C	1.448739	1.224812	0.500334
H251	H	0.938964	0.771931	0.000349
H252	H	1.438964	1.271931	0.500349
H253	H	0.977046	0.718562	-0.049966
H254	H	1.477046	1.218562	0.450034
H255	H	0.972799	0.714284	0.050652
H256	H	1.472799	1.214284	0.550652
H257	H	0.915179	0.002438	-0.213426
H258	H	1.415179	0.502438	0.286574
C259	C	0.723955	0.322295	-0.105926
C260	C	1.223955	0.822295	0.394074
H261	H	0.695880	0.351653	-0.136041
H262	H	1.195880	0.851653	0.363959
H263	H	0.694787	0.288733	-0.069501
H264	H	1.194787	0.788733	0.430499
H265	H	0.750101	0.298976	-0.146564
H266	H	1.250101	0.798976	0.353436
H267	H	0.750246	-0.162414	-0.378242
H268	H	1.250246	0.337586	0.121758
C269	C	0.682872	0.689199	0.000257
C270	C	1.182872	1.189199	0.500257
H271	H	0.691227	0.738747	0.000258
H272	H	1.191227	1.238747	0.500258
H273	H	0.654915	0.671708	0.050555
H274	H	1.154915	1.171708	0.550555
H275	H	0.659158	0.675978	-0.050064
H276	H	1.159158	1.175978	0.449936
H277	H	0.743257	-0.169378	-0.213512
H278	H	1.243257	0.330622	0.286488
H279	H	0.703039	0.549847	0.000248
H280	H	1.203039	1.049847	0.500248
H281	H	0.707670	0.234392	0.000221
H282	H	1.207670	0.734392	0.500221
