data_functionalizedCrystal
_audit_creation_method	'MofGen! by Chris Wilmer'
_symmetry_space_group_name_H-M	'P1'
_symmetry_Int_Tables_number	1
_symmetry_cell_setting	triclinic
loop_
_symmetry_equiv_pos_as_xyz
  x,y,z
_cell_length_a	12.759401
_cell_length_b	15.297327
_cell_length_c	12.759393
_cell_angle_alpha	80.357027
_cell_angle_beta	90.020938
_cell_angle_gamma	99.708126
loop_
_atom_site_label
_atom_site_type_symbol
_atom_site_fract_x
_atom_site_fract_y
_atom_site_fract_z
Zn1	Zn	1.533815	-0.359082	0.666329
Zn2	Zn	2.033815	0.140918	1.166329
Zn3	Zn	1.503263	-0.509967	0.521034
Zn4	Zn	2.003263	-0.009967	1.021034
Zn5	Zn	1.358104	-0.359130	0.490674
Zn6	Zn	1.858104	0.140870	0.990674
Zn7	Zn	1.327675	-0.509904	0.696658
Zn8	Zn	1.827675	-0.009904	1.196658
O9	O	1.430714	-0.434521	0.593674
O10	O	1.930714	0.065479	1.093674
O11	O	1.676782	-0.379103	0.647069
O12	O	2.176782	0.120897	1.147069
O13	O	1.483956	-0.490005	0.369995
O14	O	1.983956	0.009995	0.869995
O15	O	1.406934	-0.232878	0.488577
O16	O	1.906934	0.267122	0.988577
O17	O	1.654335	-0.489958	0.540320
O18	O	2.154335	0.010042	1.040320
O19	O	1.536028	-0.232842	0.617630
O20	O	2.036028	0.267158	1.117630
O21	O	1.377308	-0.379185	0.347690
O22	O	1.877308	0.120815	0.847690
O23	O	1.207048	-0.379124	0.517986
O24	O	1.707048	0.120876	1.017986
O25	O	1.355072	-0.489851	0.839647
O26	O	1.855072	0.010149	1.339647
O27	O	1.184692	-0.489898	0.669321
O28	O	1.684692	0.010102	1.169321
O29	O	1.506522	-0.379042	0.817364
O30	O	2.006522	0.120958	1.317364
O31	O	1.454449	-0.636205	0.569729
O32	O	1.954449	-0.136205	1.069729
O33	O	1.325446	-0.636159	0.698760
O34	O	1.825446	-0.136159	1.198760
C35	C	1.157749	-0.434510	0.593651
C36	C	1.657749	0.065490	1.093651
C37	C	1.040969	-0.434527	0.593670
C38	C	1.540969	0.065473	1.093670
C39	C	1.383359	-0.668916	0.640853
C40	C	1.883359	-0.168916	1.140853
C41	C	1.363196	-0.769191	0.661071
C42	C	1.863196	-0.269191	1.161071
C43	C	0.974476	-0.492294	0.672383
C44	C	1.474476	0.007706	1.172383
C45	C	0.864751	-0.492298	0.672404
C46	C	1.364751	0.007702	1.172404
C47	C	0.888023	-0.376764	0.514991
C48	C	1.388023	0.123236	1.014991
C49	C	0.997747	-0.376756	0.514975
C50	C	1.497747	0.123244	1.014975
C51	C	1.575254	-1.051821	0.449528
C52	C	2.075254	-0.551821	0.949528
C53	C	1.594198	-0.957608	0.430526
C54	C	2.094198	-0.457608	0.930526
C55	C	1.536449	-0.910499	0.488161
C56	C	2.036449	-0.410499	0.988161
C57	C	1.459753	-0.957613	0.564800
C58	C	1.959753	-0.457613	1.064800
C59	C	1.440802	-1.051836	0.583798
C60	C	1.940802	-0.551836	1.083798
C61	C	1.401997	-0.910513	0.622431
C62	C	1.901997	-0.410513	1.122431
C63	C	1.325301	-0.957627	0.699071
C64	C	1.825301	-0.457627	1.199071
C65	C	1.306354	-1.051841	0.718065
C66	C	1.806354	-0.551841	1.218065
C67	C	1.364103	-1.098950	0.660430
C68	C	1.864103	-0.598950	1.160430
C69	C	1.420948	-0.816291	0.603434
C70	C	1.920948	-0.316291	1.103434
C71	C	1.286496	-0.816305	0.737704
C72	C	1.786496	-0.316305	1.237704
C73	C	1.267553	-0.910519	0.756705
C74	C	1.767553	-0.410519	1.256705
C75	C	1.704745	-0.434533	0.593698
C76	C	2.204745	0.065467	1.093698
C77	C	1.821521	-0.434538	0.593708
C78	C	2.321521	0.065462	1.093708
C79	C	1.430810	-0.434434	0.867690
C80	C	1.930810	0.065566	1.367690
C81	C	1.430851	-0.434397	0.984459
C82	C	1.930851	0.065603	1.484459
C83	C	1.478284	-0.199211	0.546334
C84	C	1.978284	0.300789	1.046334
C85	C	1.498555	-0.098935	0.526160
C86	C	1.998555	0.401065	1.026160
C87	C	1.430692	-0.434542	0.320711
C88	C	1.930692	0.065458	0.820711
C89	C	1.430906	-0.434325	0.203891
C90	C	1.930906	0.065675	0.703891
C91	C	1.509719	-0.376690	1.027719
C92	C	2.009719	0.123310	1.527719
C93	C	1.509744	-0.376651	1.137435
C94	C	2.009744	0.123349	1.637435
C95	C	1.352031	-0.492035	1.160625
C96	C	1.852031	0.007965	1.660625
C97	C	1.352002	-0.492068	1.050909
C98	C	1.852002	0.007932	1.550909
H99	H	1.009664	-0.539333	0.736464
H100	H	1.509664	-0.039333	1.236464
H101	H	0.852817	-0.329730	0.450919
H102	H	1.352817	0.170270	0.950919
H103	H	1.348686	-1.175666	0.675900
H104	H	1.848686	-0.675666	1.175900
Br105	Br	1.087997	-0.298343	0.408152
Br106	Br	1.587997	0.201657	0.908152
H107	H	1.656642	-0.919251	0.368126
H108	H	2.156642	-0.419251	0.868126
Br109	Br	1.245030	-0.570302	1.250813
Br110	Br	1.745030	-0.070302	1.750813
Br111	Br	1.525030	-0.752362	0.499425
Br112	Br	2.025030	-0.252362	0.999425
Br113	Br	1.163471	-0.974469	0.860715
Br114	Br	1.663471	-0.474469	1.360715
Br115	Br	1.653613	-1.115757	0.371314
Br116	Br	2.153613	-0.615757	0.871314
Br117	Br	1.202260	-1.115780	0.822068
Br118	Br	1.702260	-0.615780	1.322068
Br119	Br	1.244952	-0.570383	0.992193
Br120	Br	1.744952	-0.070383	1.492193
Br121	Br	1.208108	-0.752380	0.815917
Br122	Br	1.708108	-0.252380	1.315917
H123	H	1.573964	-0.329659	1.172650
H124	H	2.073964	0.170341	1.672650
H125	H	0.810617	-0.539337	0.736501
H126	H	1.310617	-0.039337	1.236501
Br127	Br	1.616726	-0.298421	0.937539
Br128	Br	2.116726	0.201579	1.437539
H129	H	1.551877	-0.833786	0.472684
H130	H	2.051877	-0.333786	0.972684
