data_functionalizedCrystal
_audit_creation_method	'MofGen! by Chris Wilmer'
_symmetry_space_group_name_H-M	'P1'
_symmetry_Int_Tables_number	1
_symmetry_cell_setting	triclinic
loop_
_symmetry_equiv_pos_as_xyz
  x,y,z
_cell_length_a	12.759394
_cell_length_b	19.805407
_cell_length_c	19.805399
_cell_angle_alpha	90.016510
_cell_angle_beta	89.974626
_cell_angle_gamma	89.989013
loop_
_atom_site_label
_atom_site_type_symbol
_atom_site_fract_x
_atom_site_fract_y
_atom_site_fract_z
Zn1	Zn	-0.418384	-1.034772	-0.382730
Zn2	Zn	-0.594082	-1.034715	-0.269549
Zn3	Zn	-0.418406	-0.921592	-0.269555
Zn4	Zn	-0.594010	-0.921573	-0.382696
O5	O	-0.506220	-0.978163	-0.326132
O6	O	-0.441712	-1.129481	-0.367727
O7	O	-0.570817	-1.019693	-0.174833
O8	O	-0.271382	-0.936637	-0.284585
O9	O	-0.570796	-1.129439	-0.284574
O10	O	-0.271366	-1.019790	-0.367734
O11	O	-0.441749	-0.936582	-0.174838
O12	O	-0.441679	-0.826873	-0.284552
O13	O	-0.570674	-0.936605	-0.477417
O14	O	-0.570695	-0.826859	-0.367676
O15	O	-0.441642	-1.019772	-0.477442
O16	O	-0.741093	-1.019675	-0.284541
O17	O	-0.741041	-0.936550	-0.367670
C18	C	-0.506182	-0.802307	-0.326112
C19	C	-0.506191	-0.727075	-0.326119
C20	C	-0.439094	-0.691753	-0.369482
C21	C	-0.439098	-0.621065	-0.369483
C22	C	-0.506203	-0.585700	-0.326124
C23	C	-0.573303	-0.621026	-0.282756
C24	C	-0.573294	-0.691713	-0.282752
C25	C	-0.573341	-0.335953	-0.282770
C26	C	-0.573348	-0.265261	-0.282778
C27	C	-0.439145	-0.265305	-0.369501
C28	C	-0.439136	-0.335992	-0.369497
C29	C	-0.506231	-0.371312	-0.326127
C30	C	-0.506225	-0.447961	-0.326125
C31	C	-0.506215	-0.509052	-0.326128
C32	C	-0.779188	-0.978123	-0.326116
C33	C	-0.895965	-0.978167	-0.326132
C34	C	-0.895966	-1.064790	-0.239634
C35	C	-0.950828	-1.108119	-0.196394
C36	C	-1.060550	-1.108159	-0.196412
C37	C	-1.115412	-1.064866	-0.239677
C38	C	-1.060550	-1.021537	-0.282918
C39	C	-0.950826	-1.021501	-0.282893
C40	C	-1.060549	-0.934919	-0.369418
C41	C	-0.950827	-0.934874	-0.369397
C42	C	-1.115411	-0.891626	-0.412683
C43	C	-1.060549	-0.848292	-0.455921
C44	C	-0.950821	-0.848254	-0.455901
C45	C	-0.895965	-0.891545	-0.412638
C46	C	-0.232187	-0.978222	-0.326164
C47	C	-0.115410	-0.978248	-0.326177
C48	C	-0.506148	-0.978193	-0.502675
C49	C	-0.506116	-0.978205	-0.577907
C50	C	-0.506252	-0.154706	-0.326148
C51	C	-0.506245	-0.229938	-0.326138
C52	C	-0.438904	-0.934942	-0.613253
C53	C	-0.438884	-0.934951	-0.683942
C54	C	-0.506071	-0.978228	-0.719283
C55	C	-0.573291	-1.021494	-0.683932
C56	C	-0.573316	-1.021480	-0.613245
C57	C	-0.573193	-1.021547	-0.969005
C58	C	-0.573160	-1.021559	-1.039697
C59	C	-0.438760	-0.935018	-1.039703
C60	C	-0.438785	-0.935005	-0.969015
C61	C	-0.506009	-0.978268	-0.933670
C62	C	-0.506031	-0.978256	-0.857022
C63	C	-0.506044	-0.978243	-0.795930
C64	C	-0.506217	-0.978173	-0.150277
C65	C	-0.505952	-0.978291	-0.075045
H66	H	-0.384495	-0.364783	-0.404807
N67	N	-0.645815	-1.068141	-0.575120
H68	H	-0.688372	-1.095558	-0.608235
H69	H	-0.603071	-1.099469	-0.545798
H70	H	-0.627975	-0.364702	-0.247456
H71	H	-1.105218	-1.143444	-0.161205
N72	N	-0.645720	-0.227110	-0.236008
H73	H	-0.720809	-0.239409	-0.246428
H74	H	-0.629207	-0.239406	-0.187683
H75	H	-0.384157	-0.899719	-0.712718
H76	H	-0.384071	-0.899767	-0.940244
H77	H	-1.204752	-0.891664	-0.412698
N78	N	-1.233754	-1.064915	-0.239706
H79	H	-1.260183	-1.098935	-0.205752
H80	H	-1.260172	-1.018477	-0.227251
N81	N	-0.366758	-0.227207	-0.416267
H82	H	-0.324248	-0.260338	-0.443734
H83	H	-0.409584	-0.197882	-0.447544
H84	H	-0.627941	-1.056767	-0.940236
N85	N	-1.119719	-0.801606	-0.502584
H86	H	-1.197551	-0.808209	-0.496038
H87	H	-1.100615	-0.753264	-0.492004
H88	H	-0.627937	-0.592226	-0.247449
N89	N	-0.366272	-0.888344	-1.077827
H90	H	-0.291210	-0.898869	-1.065542
H91	H	-0.376547	-0.894937	-1.127957
N92	N	-0.645656	-0.729814	-0.235979
H93	H	-0.688170	-0.696685	-0.208511
H94	H	-0.694328	-0.759151	-0.263472
H95	H	-0.627876	-1.056801	-1.068470
H96	H	-0.384186	-0.899705	-0.584484
N97	N	-0.891651	-0.801523	-0.502543
H98	H	-0.943059	-0.774107	-0.529951
H99	H	-0.846196	-0.770196	-0.474958
N100	N	-0.645771	-1.068164	-0.722046
H101	H	-0.635558	-1.061609	-0.772190
H102	H	-0.629442	-1.116507	-0.709698
H103	H	-0.384463	-0.592309	-0.404795
N104	N	-0.366722	-0.729895	-0.416253
H105	H	-0.324217	-0.696790	-0.443722
H106	H	-0.318042	-0.759219	-0.388755
H107	H	-0.806625	-1.064753	-0.239606
N108	N	-0.891657	-1.154816	-0.149735
H109	H	-0.813824	-1.148218	-0.156281
H110	H	-0.910903	-1.144315	-0.101389
N111	N	-0.777624	-0.891503	-0.412609
H112	H	-0.751128	-0.937919	-0.425082
H113	H	-0.751274	-0.857456	-0.446560
