data_functionalizedCrystal
_audit_creation_method	'MofGen! by Chris Wilmer'
_symmetry_space_group_name_H-M	'P1'
_symmetry_Int_Tables_number	1
_symmetry_cell_setting	triclinic
loop_
_symmetry_equiv_pos_as_xyz
  x,y,z
_cell_length_a	8.597340
_cell_length_b	8.597278
_cell_length_c	7.681481
_cell_angle_alpha	76.508462
_cell_angle_beta	76.525094
_cell_angle_gamma	93.639986
loop_
_atom_site_label
_atom_site_type_symbol
_atom_site_fract_x
_atom_site_fract_y
_atom_site_fract_z
O1	O	2.099843	-0.220437	-0.138719
O2	O	1.635782	-0.245835	-0.064457
O3	O	1.880502	-0.001095	-0.138721
O4	O	1.855122	-0.465177	-0.064455
O5	O	1.910624	0.029097	-0.440729
O6	O	1.665903	-0.215643	-0.366466
O7	O	2.129964	-0.190245	-0.440728
Zn8	Zn	1.902716	-0.198151	-0.451547
Zn9	Zn	1.863030	-0.237929	-0.053638
O10	O	1.885243	-0.434985	-0.366464
C11	C	1.591459	-0.229693	-0.206610
C12	C	1.414514	-0.226559	-0.180239
C13	C	2.174287	-0.206387	-0.298571
C14	C	2.351230	-0.209523	-0.324930
C15	C	1.894515	0.073387	-0.298573
C16	C	1.891373	0.250338	-0.324933
C17	C	1.871230	-0.509467	-0.206608
C18	C	1.874371	-0.686419	-0.180236
N19	N	1.929812	-0.171002	-0.723112
N20	N	1.835946	-0.265066	0.217923
H21	H	1.333318	-0.238746	-0.036171
F22	F	1.457347	-0.193576	-0.513233
F23	F	1.907252	0.356505	-0.513228
H24	H	1.862200	0.232341	-0.036168
F25	F	1.710703	-0.390562	-0.645747
H26	H	2.025647	-0.074996	-0.827425
