data_functionalizedCrystal
_audit_creation_method	'MofGen! by Chris Wilmer'
_symmetry_space_group_name_H-M	'P1'
_symmetry_Int_Tables_number	1
_symmetry_cell_setting	triclinic
loop_
_symmetry_equiv_pos_as_xyz
  x,y,z
_cell_length_a	14.908571
_cell_length_b	16.959447
_cell_length_c	14.908520
_cell_angle_alpha	93.266084
_cell_angle_beta	90.205961
_cell_angle_gamma	86.691780
loop_
_atom_site_label
_atom_site_type_symbol
_atom_site_fract_x
_atom_site_fract_y
_atom_site_fract_z
Zn1	Zn	1.353918	-0.537362	-0.437386
Zn2	Zn	1.687252	-0.204028	-0.104053
Zn3	Zn	2.020585	0.129305	0.229281
Zn4	Zn	1.345146	-0.412339	-0.587755
Zn5	Zn	1.678479	-0.079006	-0.254422
Zn6	Zn	2.011813	0.254328	0.078911
Zn7	Zn	1.203565	-0.397172	-0.428733
Zn8	Zn	1.536899	-0.063838	-0.095400
Zn9	Zn	1.870232	0.269495	0.237934
Zn10	Zn	1.194846	-0.536448	-0.579010
Zn11	Zn	1.528180	-0.203115	-0.245677
Zn12	Zn	1.861513	0.130219	0.087657
O13	O	1.274369	-0.470830	-0.508221
O14	O	1.607702	-0.137497	-0.174888
O15	O	1.941036	0.195837	0.158446
O16	O	1.478579	-0.527507	-0.464614
O17	O	1.811912	-0.194174	-0.131281
O18	O	2.145246	0.139160	0.202053
O19	O	1.326343	-0.299717	-0.566700
O20	O	1.659676	0.033616	-0.233366
O21	O	1.993009	0.366950	0.099967
O22	O	1.230830	-0.409803	-0.304059
O23	O	1.564164	-0.076469	0.029274
O24	O	1.897497	0.256864	0.362607
O25	O	1.472134	-0.435653	-0.575090
O26	O	1.805467	-0.102320	-0.241756
O27	O	2.138801	0.231013	0.091577
O28	O	1.341294	-0.512800	-0.310416
O29	O	1.674627	-0.179466	0.022917
O30	O	2.007961	0.153867	0.356250
O31	O	1.222324	-0.288573	-0.449866
O32	O	1.555657	0.044760	-0.116533
O33	O	1.888991	0.378093	0.216800
O34	O	1.076585	-0.408917	-0.441386
O35	O	1.409918	-0.075584	-0.108053
O36	O	1.743251	0.257750	0.225280
O37	O	1.215970	-0.647179	-0.560184
O38	O	1.549303	-0.313846	-0.226851
O39	O	1.882637	0.019487	0.106482
O40	O	1.070179	-0.511243	-0.551794
O41	O	1.403512	-0.177909	-0.218461
O42	O	1.736845	0.155424	0.114872
O43	O	1.332840	-0.647850	-0.456134
O44	O	1.666173	-0.314517	-0.122800
O45	O	1.999506	0.018816	0.210533
O46	O	1.317888	-0.434768	-0.712417
O47	O	1.651222	-0.101434	-0.379084
O48	O	1.984555	0.231899	-0.045750
O49	O	1.207464	-0.525950	-0.705992
O50	O	1.540797	-0.192617	-0.372658
O51	O	1.874130	0.140717	-0.039325
C52	C	1.040757	-0.458335	-0.494703
C53	C	1.374090	-0.125002	-0.161370
C54	C	1.707423	0.208331	0.171964
C55	C	0.940815	-0.453010	-0.488942
C56	C	1.274149	-0.119676	-0.155608
C57	C	1.607482	0.213657	0.177725
C58	C	0.746382	-0.549427	-0.593261
C59	C	1.079715	-0.216094	-0.259928
C60	C	1.413049	0.117240	0.073405
C61	C	0.652478	-0.544426	-0.587851
C62	C	0.985811	-0.211093	-0.254517
C63	C	1.319144	0.122240	0.078816
C64	C	0.659101	-0.438011	-0.472706
C65	C	0.992434	-0.104678	-0.139373
C66	C	1.325768	0.228655	0.193961
C67	C	0.753005	-0.443012	-0.478116
C68	C	1.086339	-0.109679	-0.144783
C69	C	1.419672	0.223654	0.188550
C70	C	0.796642	-0.498721	-0.538397
C71	C	1.129976	-0.165388	-0.205064
C72	C	1.463309	0.167945	0.128270
C73	C	0.890548	-0.503718	-0.543812
C74	C	1.223881	-0.170385	-0.210478
C75	C	1.557215	0.162949	0.122855
C76	C	0.897170	-0.397307	-0.428663
C77	C	1.230503	-0.063974	-0.095330
C78	C	1.563836	0.269359	0.238004
C79	C	0.803266	-0.392306	-0.423252
C80	C	1.136599	-0.058973	-0.089919
C81	C	1.469932	0.274360	0.243414
C82	C	1.274411	-0.676997	-0.508149
C83	C	1.607744	-0.343663	-0.174815
C84	C	1.941077	-0.010330	0.158518
C85	C	1.274429	-0.764853	-0.508118
C86	C	1.607762	-0.431519	-0.174785
C87	C	1.941095	-0.098186	0.158549
C88	C	1.213693	-1.135983	-0.562204
C89	C	1.547026	-0.802649	-0.228870
C90	C	1.880359	-0.469316	0.104463
C91	C	1.335390	-1.136677	-0.453855
C92	C	1.668723	-0.803343	-0.120522
C93	C	2.002057	-0.470010	0.212812
C94	C	1.335365	-1.054131	-0.453873
C95	C	1.668698	-0.720797	-0.120539
C96	C	2.002032	-0.387464	0.212794
C97	C	1.274504	-1.012507	-0.508058
C98	C	1.607837	-0.679173	-0.174724
C99	C	1.941171	-0.345840	0.158609
C100	C	1.213668	-1.053429	-0.562225
C101	C	1.547001	-0.720096	-0.228892
C102	C	1.880334	-0.386762	0.104442
C103	C	1.396206	-1.013203	-0.399713
C104	C	1.729540	-0.679869	-0.066380
C105	C	2.062873	-0.346536	0.266953
C106	C	1.396184	-0.930651	-0.399729
C107	C	1.729518	-0.597318	-0.066396
C108	C	2.062851	-0.263985	0.266937
C109	C	1.335318	-0.889025	-0.453910
C110	C	1.668651	-0.555692	-0.120577
C111	C	2.001985	-0.222359	0.212756
C112	C	1.274479	-0.929953	-0.508079
C113	C	1.607812	-0.596620	-0.174746
C114	C	1.941145	-0.263286	0.158588
C115	C	1.213617	-0.888329	-0.562264
C116	C	1.546951	-0.554996	-0.228931
C117	C	1.880284	-0.221662	0.104403
C118	C	1.152773	-0.929254	-0.616429
C119	C	1.486106	-0.595921	-0.283095
C120	C	1.819440	-0.262588	0.050238
C121	C	1.152801	-1.011803	-0.616406
C122	C	1.486135	-0.678470	-0.283073
C123	C	1.819468	-0.345137	0.050261
C124	C	1.335290	-0.806477	-0.453933
C125	C	1.668623	-0.473143	-0.120600
C126	C	2.001956	-0.139810	0.212734
C127	C	1.213592	-0.805775	-0.562285
C128	C	1.546926	-0.472442	-0.228952
C129	C	1.880259	-0.139109	0.104381
C130	C	1.508893	-0.483374	-0.521793
C131	C	1.842227	-0.150041	-0.188459
C132	C	2.175560	0.183293	0.144874
C133	C	1.608834	-0.488719	-0.527576
C134	C	1.942167	-0.155386	-0.194243
C135	C	2.275501	0.177947	0.139091
C136	C	1.260802	-0.481924	-0.741830
C137	C	1.594136	-0.148591	-0.408496
C138	C	1.927469	0.184743	-0.075163
C139	C	1.255081	-0.486701	-0.841773
C140	C	1.588414	-0.153368	-0.508440
C141	C	1.921747	0.179966	-0.175107
C142	C	1.274383	-0.265465	-0.508231
C143	C	1.607716	0.067868	-0.174898
C144	C	1.941050	0.401202	0.158436
C145	C	1.274554	-0.177607	-0.508019
C146	C	1.607887	0.155727	-0.174685
C147	C	1.941221	0.489060	0.158648
C148	C	1.359432	-0.400817	-1.036214
C149	C	1.692766	-0.067484	-0.702881
C150	C	2.026099	0.265850	-0.369548
C151	C	1.354059	-0.405303	-1.130120
C152	C	1.687393	-0.071970	-0.796787
C153	C	2.020726	0.261364	-0.463454
C154	C	1.238967	-0.500163	-1.123494
C155	C	1.572300	-0.166829	-0.790160
C156	C	1.905633	0.166504	-0.456827
C157	C	1.244340	-0.495677	-1.029587
C158	C	1.577673	-0.162343	-0.696254
C159	C	1.911006	0.170990	-0.362921
C160	C	1.304574	-0.446001	-0.985951
C161	C	1.637907	-0.112668	-0.652618
C162	C	1.971240	0.220665	-0.319285
C163	C	1.309941	-0.441512	-0.892043
C164	C	1.643275	-0.108178	-0.558710
C165	C	1.976608	0.225155	-0.225376
C166	C	1.194854	-0.536375	-0.885418
C167	C	1.528187	-0.203042	-0.552085
C168	C	1.861521	0.130292	-0.218752
C169	C	1.189481	-0.540861	-0.979324
C170	C	1.522814	-0.207528	-0.645991
C171	C	1.856148	0.125806	-0.312658
C172	C	1.288013	-0.459711	-0.273702
C173	C	1.621347	-0.126378	0.059632
C174	C	1.954680	0.206955	0.392965
C175	C	1.293828	-0.454973	-0.173763
C176	C	1.627161	-0.121640	0.159570
C177	C	1.960494	0.211694	0.492903
H178	H	0.781912	-0.594784	-0.642349
H179	H	1.115245	-0.261450	-0.309016
H180	H	1.448578	0.071883	0.024318
H181	H	0.938102	-0.356017	-0.383990
H182	H	1.271435	-0.022684	-0.050657
H183	H	1.604768	0.310650	0.282676
F184	F	0.598990	-0.598396	-0.646243
F185	F	0.932323	-0.265063	-0.312910
F186	F	1.265657	0.068271	0.020424
H187	H	1.398733	-0.368511	-1.171041
H188	H	1.732066	-0.035177	-0.837708
H189	H	2.065399	0.298156	-0.504375
F190	F	1.423525	-0.347939	-0.989771
F191	F	1.756858	-0.014606	-0.656437
F192	F	2.090191	0.318728	-0.323104
H193	H	1.103224	-0.895354	-0.660550
H194	H	1.436557	-0.562021	-0.327217
H195	H	1.769890	-0.228687	0.006116
H196	H	0.767723	-0.346952	-0.374171
H197	H	1.101057	-0.013619	-0.040838
H198	H	1.434390	0.319715	0.292495
H199	H	0.926076	-0.549078	-0.592897
H200	H	1.259409	-0.215744	-0.259563
H201	H	1.592742	0.117589	0.073770
F202	F	0.612645	-0.378737	-0.408545
F203	F	0.945978	-0.045403	-0.075211
F204	F	1.279312	0.287930	0.258122
F205	F	1.148810	-0.761482	-0.619953
F206	F	1.482143	-0.428149	-0.286620
F207	F	1.815476	-0.094815	0.046714
H208	H	1.103268	-1.045132	-0.660507
H209	H	1.436601	-0.711799	-0.327174
H210	H	1.769935	-0.378466	0.006160
H211	H	1.164152	-1.169308	-0.606301
H212	H	1.497486	-0.835974	-0.272967
H213	H	1.830819	-0.502641	0.060366
H214	H	1.189933	-0.540611	-1.159039
H215	H	1.523267	-0.207278	-0.825706
H216	H	1.856600	0.126055	-0.492372
H217	H	1.384945	-1.170572	-0.409745
H218	H	1.718279	-0.837239	-0.076412
H219	H	2.051612	-0.503906	0.256921
F220	F	1.460980	-1.057506	-0.342056
F221	F	1.794313	-0.724173	-0.008723
F222	F	2.127647	-0.390839	0.324610
H223	H	1.445727	-0.897337	-0.355625
H224	H	1.779060	-0.564003	-0.022291
H225	H	2.112394	-0.230670	0.311042
H226	H	1.140443	-0.581307	-1.014866
H227	H	1.473776	-0.247974	-0.681533
H228	H	1.807110	0.085359	-0.348199
F229	F	1.136456	-0.584458	-0.831917
F230	F	1.469789	-0.251124	-0.498584
F231	F	1.803123	0.082209	-0.165251
H232	H	1.384831	-0.773159	-0.409836
H233	H	1.718164	-0.439826	-0.076502
H234	H	2.051497	-0.106492	0.256831
F235	F	1.374043	-0.388640	-0.845603
F236	F	1.707376	-0.055307	-0.512270
F237	F	2.040710	0.278027	-0.178937
