data_functionalizedCrystal
_audit_creation_method	'MofGen! by Chris Wilmer'
_symmetry_space_group_name_H-M	'P1'
_symmetry_Int_Tables_number	1
_symmetry_cell_setting	triclinic
loop_
_symmetry_equiv_pos_as_xyz
  x,y,z
_cell_length_a	29.839134
_cell_length_b	18.101396
_cell_length_c	18.101389
_cell_angle_alpha	90.016209
_cell_angle_beta	89.968937
_cell_angle_gamma	89.970231
loop_
_atom_site_label
_atom_site_type_symbol
_atom_site_fract_x
_atom_site_fract_y
_atom_site_fract_z
Zn1	Zn	0.686763	0.295051	-0.418983
Zn2	Zn	1.186763	0.795051	0.081017
Zn3	Zn	0.686692	0.418876	-0.295146
Zn4	Zn	1.186692	0.918876	0.204854
Zn5	Zn	0.611637	0.295037	-0.295130
Zn6	Zn	1.111637	0.795037	0.204870
Zn7	Zn	0.611600	0.418839	-0.418920
Zn8	Zn	1.111600	0.918839	0.081080
O9	O	0.649173	0.356951	-0.357045
O10	O	1.149173	0.856951	0.142955
O11	O	0.749621	0.311497	-0.402589
O12	O	1.249621	0.811497	0.097411
O13	O	0.676722	0.402459	-0.191511
O14	O	1.176722	0.902459	0.308489
O15	O	0.621648	0.191406	-0.311578
O16	O	1.121648	0.691406	0.188422
O17	O	0.749569	0.402472	-0.311607
O18	O	1.249569	0.902472	0.188393
O19	O	0.676843	0.191416	-0.402573
O20	O	1.176843	0.691416	0.097427
O21	O	0.621580	0.311475	-0.191499
O22	O	1.121580	0.811475	0.308501
O23	O	0.548765	0.311439	-0.311518
O24	O	1.048765	0.811439	0.188482
O25	O	0.621584	0.402408	-0.522562
O26	O	1.121584	0.902408	-0.022562
O27	O	0.548737	0.402395	-0.402466
O28	O	1.048737	0.902395	0.097534
O29	O	0.676807	0.311461	-0.522608
O30	O	1.176807	0.811461	-0.022608
O31	O	0.676686	0.522504	-0.311546
O32	O	1.176686	1.022504	0.188454
O33	O	0.621515	0.522477	-0.402482
O34	O	1.121515	1.022477	0.097518
C35	C	0.532451	0.356912	-0.356984
C36	C	1.032451	0.856912	0.143016
C37	C	0.482516	0.356914	-0.356975
C38	C	0.982516	0.856914	0.143025
C39	C	0.649101	0.549361	-0.357025
C40	C	1.149101	1.049361	0.142975
C41	C	0.649111	0.631676	-0.357042
C42	C	1.149111	1.131676	0.142958
C43	C	0.649199	0.356932	-0.550207
C44	C	1.149199	0.856932	-0.050207
C45	C	0.649210	0.356924	-0.632521
C46	C	1.149210	0.856924	-0.132521
C47	C	0.125931	0.309520	-0.309785
C48	C	0.625931	0.809520	0.190215
C49	C	0.313604	0.309499	-0.309740
C50	C	0.813604	0.809499	0.190260
O51	O	0.337870	0.269140	-0.269548
O52	O	0.837870	0.769140	0.230452
N53	N	0.337071	0.356926	-0.357012
N54	N	0.837071	0.856926	0.142988
C55	C	0.313617	0.404358	-0.404303
C56	C	0.813617	0.904358	0.095697
O57	O	0.337883	0.444691	-0.444515
O58	O	0.837883	0.944691	0.055485
C59	C	0.125945	0.404374	-0.404351
C60	C	0.625945	0.904374	0.095649
C61	C	0.102480	0.356950	-0.357070
C62	C	0.602480	0.856950	0.142930
C63	C	0.102466	0.262098	-0.262508
C64	C	0.602466	0.762098	0.237492
C65	C	0.055551	0.262107	-0.262517
C66	C	0.555551	0.762107	0.237483
C67	C	0.032100	0.309537	-0.309802
C68	C	0.532100	0.809537	0.190198
C69	C	0.055565	0.356958	-0.357079
C70	C	0.555565	0.856958	0.142921
C71	C	0.102491	0.451802	-0.451645
C72	C	0.602491	0.951802	0.048355
C73	C	0.055570	0.451801	-0.451654
C74	C	0.555570	0.951801	0.048346
C75	C	0.032106	0.404376	-0.404373
C76	C	0.532106	0.904376	0.095627
C77	C	-0.014802	0.404397	-0.404373
C78	C	0.485198	0.904397	0.095627
N79	N	-0.038269	0.356970	-0.357101
N80	N	0.461731	0.856970	0.142899
C81	C	-0.014818	0.309540	-0.309815
C82	C	0.485182	0.809540	0.190185
C83	C	0.412147	0.404347	-0.404273
C84	C	0.912147	0.904347	0.095727
C85	C	0.459065	0.404344	-0.404260
C86	C	0.959065	0.904344	0.095740
C87	C	0.459049	0.309484	-0.309698
C88	C	0.959049	0.809484	0.190302
C89	C	0.412130	0.309491	-0.309708
C90	C	0.912130	0.809491	0.190292
C91	C	0.388680	0.356920	-0.357001
C92	C	0.888680	0.856920	0.142999
C93	C	-0.113344	0.309562	-0.309837
C94	C	0.386656	0.809562	0.190163
C95	C	-0.160263	0.309577	-0.309848
C96	C	0.339737	0.809577	0.190152
C97	C	-0.160243	0.404434	-0.404413
C98	C	0.339757	0.904434	0.095587
C99	C	-0.113328	0.404422	-0.404399
C100	C	0.386672	0.904422	0.095601
C101	C	-0.089879	0.356980	-0.357109
C102	C	0.410121	0.856980	0.142891
O103	O	-0.039097	0.444728	-0.444550
O104	O	0.460903	0.944728	0.055450
O105	O	-0.039092	0.269201	-0.269620
O106	O	0.460908	0.769201	0.230380
C107	C	0.172846	0.309511	-0.309776
C108	C	0.672846	0.809511	0.190224
C109	C	0.196311	0.356933	-0.357052
C110	C	0.696311	0.856933	0.142948
C111	C	0.172860	0.404362	-0.404338
C112	C	0.672860	0.904362	0.095662
C113	C	0.243229	0.356929	-0.357040
C114	C	0.743229	0.856929	0.142960
C115	C	0.266680	0.309500	-0.309754
C116	C	0.766680	0.809500	0.190246
C117	C	0.243213	0.262073	-0.262482
C118	C	0.743213	0.762073	0.237518
C119	C	0.196297	0.262081	-0.262491
C120	C	0.696297	0.762081	0.237509
C121	C	0.196327	0.451789	-0.451610
C122	C	0.696327	0.951789	0.048390
C123	C	0.243243	0.451777	-0.451597
C124	C	0.743243	0.951777	0.048403
C125	C	0.266694	0.404348	-0.404312
C126	C	0.766694	0.904348	0.095688
C127	C	0.766351	0.356990	-0.357107
C128	C	1.266351	0.856990	0.142893
C129	C	0.816286	0.357007	-0.357133
C130	C	1.316286	0.857007	0.142867
C131	C	0.649191	0.930766	-0.357085
C132	C	1.149191	1.430766	0.142915
C133	C	0.614562	0.899455	-0.414441
C134	C	1.114562	1.399455	0.085559
C135	C	0.614403	0.813837	-0.414261
C136	C	1.114403	1.313837	0.085739
C137	C	0.649151	0.782384	-0.357064
C138	C	1.149151	1.282384	0.142936
C139	C	0.636332	0.813518	-0.279010
C140	C	1.136332	1.313518	0.220990
C141	C	0.636103	0.899164	-0.279355
C142	C	1.136103	1.399164	0.220645
C143	C	0.696718	0.899124	-0.377095
C144	C	1.196718	1.399124	0.122905
C145	C	0.696444	0.813473	-0.378805
C146	C	1.196444	1.313473	0.121195
C147	C	0.649130	0.698524	-0.357047
C148	C	1.149130	1.198524	0.142953
C149	C	0.649212	1.014626	-0.357096
C150	C	1.149212	1.514626	0.142904
C151	C	0.649242	1.163789	-0.357084
C152	C	1.149242	1.663789	0.142916
C153	C	0.649231	1.081475	-0.357107
C154	C	1.149231	1.581475	0.142893
C155	C	0.649236	0.356785	-0.931612
C156	C	1.149236	0.856785	-0.431612
C157	C	0.614372	0.413825	-0.900258
C158	C	1.114372	0.913825	-0.400258
C159	C	0.614466	0.414089	-0.814640
C160	C	1.114466	0.914089	-0.314640
C161	C	0.649223	0.356854	-0.783230
C162	C	1.149223	0.856854	-0.283230
C163	C	0.696554	0.378048	-0.814345
C164	C	1.196554	0.878048	-0.314345
C165	C	0.696360	0.378423	-0.899990
C166	C	1.196360	0.878423	-0.399990
C167	C	0.637181	0.278425	-0.900031
C168	C	1.137181	0.778425	-0.400031
C169	C	0.636127	0.278878	-0.814380
C170	C	1.136127	0.778878	-0.314380
C171	C	0.649218	0.356892	-0.699370
C172	C	1.149218	0.856892	-0.199370
C173	C	0.649244	0.356749	-1.015472
C174	C	1.149244	0.856749	-0.515472
C175	C	0.649173	0.356916	-0.164634
C176	C	1.149173	0.856916	0.335366
C177	C	0.649249	0.356715	-0.082321
C178	C	1.149249	0.856715	0.417679
H179	H	-0.094257	0.270927	-0.271332
H180	H	0.405743	0.770927	0.228668
H181	H	0.706952	0.434722	-0.792907
H182	H	1.206952	0.934722	-0.292907
N183	N	0.624504	0.925209	-0.487301
N184	N	1.124504	1.425209	0.012699
N185	N	0.633097	0.879986	-0.537555
N186	N	1.133097	1.379986	-0.037555
H187	H	0.640116	0.898168	-0.589019
H188	H	1.140116	1.398168	-0.089019
H189	H	0.478166	0.442969	-0.442753
H190	H	0.978166	0.942969	0.057247
N191	N	0.730051	0.328566	-0.926007
N192	N	1.230051	0.828566	-0.426007
N193	N	0.753635	0.293610	-0.880910
N194	N	1.253635	0.793610	-0.380910
H195	H	0.777430	0.258400	-0.899281
H196	H	1.277430	0.758400	-0.399281
N197	N	0.570640	0.926530	-0.398020
N198	N	1.070640	1.426530	0.101980
N199	N	0.564730	0.968785	-0.344258
N200	N	1.064730	1.468785	0.155742
H201	H	0.533711	0.987909	-0.332658
H202	H	1.033711	1.487909	0.167342
H203	H	0.601362	0.919196	-0.262406
H204	H	1.101362	1.419196	0.237594
N205	N	0.711387	0.926162	-0.447278
N206	N	1.211387	1.426162	0.052722
N207	N	0.746720	0.962937	-0.451920
N208	N	1.246720	1.462937	0.048080
H209	H	0.757078	0.982033	-0.501489
H210	H	1.257078	1.482033	-0.001489
N211	N	0.126416	0.213659	-0.214190
N212	N	0.626416	0.713659	0.285810
N213	N	0.152563	0.239647	-0.166940
N214	N	0.652563	0.739647	0.333060
H215	H	0.169475	0.205438	-0.132808
H216	H	0.669475	0.705438	0.367192
H217	H	0.262344	0.490403	-0.490098
H218	H	0.762344	0.990403	0.009902
N219	N	0.031625	0.500262	-0.499961
N220	N	0.531625	1.000262	0.000039
N221	N	0.036850	0.568589	-0.494934
N222	N	0.536850	1.068589	0.005066
H223	H	0.019939	0.602817	-0.529050
H224	H	0.519939	1.102817	-0.029050
H225	H	0.601961	0.792123	-0.261758
H226	H	1.101961	1.292123	0.238242
H227	H	0.177196	0.223463	-0.223990
H228	H	0.677196	0.723463	0.276010
H229	H	0.706111	0.793122	-0.436249
H230	H	1.206111	1.293122	0.063751
H231	H	0.393059	0.442972	-0.442786
H232	H	0.893059	0.942972	0.057214
N233	N	0.730528	0.786606	-0.330224
N234	N	1.230528	1.286606	0.169776
N235	N	0.737534	0.718725	-0.324952
N236	N	1.237534	1.218725	0.175048
H237	H	0.761604	0.699751	-0.290635
H238	H	1.261604	1.199751	0.209365
H239	H	0.601296	0.262895	-0.794041
H240	H	1.101296	0.762895	-0.294041
H241	H	0.723228	0.337809	-0.794003
H242	H	1.223228	0.837809	-0.294003
N243	N	0.624500	0.486917	-0.788897
N244	N	1.124500	0.986917	-0.288897
N245	N	0.596971	0.520725	-0.749268
N246	N	1.096971	1.020725	-0.249268
H247	H	0.604070	0.572154	-0.731074
H248	H	1.104070	1.072154	-0.231074
H249	H	0.722518	0.919371	-0.335320
H250	H	1.222518	1.419371	0.164680
H251	H	0.660763	0.793145	-0.235109
H252	H	1.160763	1.293145	0.264891
H253	H	-0.094222	0.443045	-0.442894
H254	H	0.405778	0.943045	0.057106
H255	H	0.177238	0.490413	-0.490117
H256	H	0.677238	0.990413	0.009883
H257	H	0.706581	0.435705	-0.919978
H258	H	1.206581	0.935705	-0.419978
H259	H	0.121588	0.490421	-0.490146
H260	H	0.621588	0.990421	0.009854
N261	N	0.666360	0.925168	-0.223908
N262	N	1.166360	1.425168	0.276092
N263	N	0.671580	0.993002	-0.214282
N264	N	1.171580	1.493002	0.285718
H265	H	0.692946	1.011367	-0.175120
H266	H	1.192946	1.511367	0.324880
H267	H	0.579368	0.400826	-0.793600
H268	H	1.079368	0.900826	-0.293600
N269	N	0.570210	0.397347	-0.926071
N270	N	1.070210	0.897347	-0.426071
N271	N	0.563913	0.343375	-0.967880
N272	N	1.063913	0.843375	-0.467880
H273	H	0.532722	0.331736	-0.986117
H274	H	1.032722	0.831736	-0.486117
H275	H	-0.179366	0.270957	-0.271344
H276	H	0.320634	0.770957	0.228656
N277	N	0.624245	0.486253	-0.927254
N278	N	1.124245	0.986253	-0.427254
N279	N	0.595846	0.520466	-0.964742
N280	N	1.095846	1.020466	-0.464742
H281	H	0.602819	0.571620	-0.983807
H282	H	1.102819	1.071620	-0.483807
N283	N	0.665653	0.222720	-0.787566
N284	N	1.165653	0.722720	-0.287566
N285	N	0.688265	0.185180	-0.831995
N286	N	1.188265	0.685180	-0.331995
H287	H	0.709117	0.145516	-0.813056
H288	H	1.209117	0.645516	-0.313056
H289	H	0.603267	0.259118	-0.921610
H290	H	1.103267	0.759118	-0.421610
N291	N	0.031593	0.213659	-0.214215
N292	N	0.531593	0.713659	0.285785
N293	N	0.052544	0.171318	-0.172004
N294	N	0.552544	0.671318	0.327996
H295	H	0.035627	0.137097	-0.137889
H296	H	0.535627	0.637097	0.362111
N297	N	0.388171	0.261044	-0.261407
N298	N	0.888171	0.761044	0.238593
N299	N	0.409120	0.218705	-0.219191
N300	N	0.909120	0.718705	0.280809
H301	H	0.392202	0.184486	-0.185076
H302	H	0.892202	0.684486	0.314924
N303	N	0.669034	0.225116	-0.925484
N304	N	1.169034	0.725116	-0.425484
N305	N	0.673825	0.213984	-0.993183
N306	N	1.173825	0.713984	-0.493183
H307	H	0.696323	0.176340	-1.011164
H308	H	1.196323	0.676340	-0.511164
N309	N	0.483015	0.261041	-0.261399
N310	N	0.983015	0.761041	0.238601
N311	N	0.524906	0.261050	-0.261402
N312	N	1.024906	0.761050	0.238598
H313	H	0.541834	0.226837	-0.227296
H314	H	1.041834	0.726837	0.272704
H315	H	-0.179345	0.443053	-0.442908
H316	H	0.320655	0.943053	0.057092
N317	N	0.267179	0.213633	-0.214180
N318	N	0.767179	0.713633	0.285820
N319	N	0.309069	0.213641	-0.214185
N320	N	0.809069	0.713641	0.285815
H321	H	0.325998	0.179431	-0.180076
H322	H	0.825998	0.679431	0.319924
N323	N	0.624471	0.787426	-0.486862
N324	N	1.124471	1.287426	0.013138
N325	N	0.660888	0.803915	-0.516752
N326	N	1.160888	1.303915	-0.016752
H327	H	0.667999	0.785268	-0.568030
H328	H	1.167999	1.285268	-0.068030
H329	H	0.579177	0.793404	-0.401004
H330	H	1.079177	1.293404	0.098996
