data_functionalizedCrystal
_audit_creation_method	'MofGen! by Chris Wilmer'
_symmetry_space_group_name_H-M	'P1'
_symmetry_Int_Tables_number	1
_symmetry_cell_setting	triclinic
loop_
_symmetry_equiv_pos_as_xyz
  x,y,z
_cell_length_a	13.635800
_cell_length_b	27.923496
_cell_length_c	27.691906
_cell_angle_alpha	98.258969
_cell_angle_beta	84.898696
_cell_angle_gamma	81.036054
loop_
_atom_site_label
_atom_site_type_symbol
_atom_site_fract_x
_atom_site_fract_y
_atom_site_fract_z
V1	V	1.956160	-0.067819	-0.151580
O2	O	1.962479	0.002547	-0.148379
O3	O	1.921275	-0.133788	-0.150846
O4	O	1.912037	-0.067088	-0.217550
O5	O	1.971780	-0.064615	-0.081213
V6	V	2.201939	-0.059365	-0.143126
O7	O	2.077974	-0.086362	-0.170123
O8	O	2.305224	-0.040822	-0.124583
O9	O	2.125221	0.006604	-0.143859
O10	O	2.254319	-0.129731	-0.146327
O11	O	2.245017	-0.062569	-0.213493
O12	O	2.134458	-0.060096	-0.077156
V13	V	2.456160	-0.067819	-0.151580
O14	O	2.462479	0.002547	-0.148379
O15	O	2.421275	-0.133788	-0.150846
O16	O	2.412037	-0.067088	-0.217550
O17	O	2.471780	-0.064615	-0.081213
V18	V	2.701939	-0.059365	-0.143126
O19	O	2.577974	-0.086362	-0.170123
O20	O	2.805224	-0.040822	-0.124583
O21	O	2.625221	0.006604	-0.143859
O22	O	2.754319	-0.129731	-0.146327
O23	O	2.745017	-0.062569	-0.213493
O24	O	2.634458	-0.060096	-0.077156
C25	C	1.841820	-0.149861	-0.148534
C26	C	1.853809	-0.203794	-0.148374
C27	C	2.018172	-0.540728	-0.149869
C28	C	2.063285	-0.743435	-0.149291
O29	O	2.145583	-0.771760	-0.151306
N30	N	1.979016	-0.766298	-0.146785
C31	C	1.883461	-0.738482	-0.144425
O32	O	1.812821	-0.762581	-0.142285
C33	C	1.838350	-0.535777	-0.145006
C34	C	1.922625	-0.512916	-0.147508
C35	C	2.102440	-0.517867	-0.152371
C36	C	2.091161	-0.467193	-0.152512
C37	C	1.995614	-0.439380	-0.150152
C38	C	1.911346	-0.462242	-0.147650
C39	C	1.742797	-0.507963	-0.142651
C40	C	1.731527	-0.457284	-0.142798
C41	C	1.815802	-0.434422	-0.145299
C42	C	1.804521	-0.383755	-0.145431
N43	N	1.888790	-0.360892	-0.147938
C44	C	1.984337	-0.388705	-0.150298
C45	C	1.907152	-0.844905	-0.144120
C46	C	1.918429	-0.895581	-0.143973
C47	C	2.098253	-0.900530	-0.148840
C48	C	2.086974	-0.849853	-0.148983
C49	C	1.991421	-0.822042	-0.146626
C50	C	1.960644	-0.282285	-0.150595
C51	C	1.949356	-0.231606	-0.150734
C52	C	1.769534	-0.226662	-0.145870
C53	C	1.780820	-0.277336	-0.145728
C54	C	1.876383	-0.305147	-0.148092
O55	O	1.722256	-0.355401	-0.143423
O56	O	2.054965	-0.364598	-0.152449
C57	C	2.029451	-0.591402	-0.149727
C58	C	1.945183	-0.614264	-0.147225
C59	C	1.849636	-0.586451	-0.144864
C60	C	1.956460	-0.664940	-0.147079
C61	C	2.052007	-0.692752	-0.149439
C62	C	2.136277	-0.669889	-0.151946
C63	C	2.124998	-0.619215	-0.152087
C64	C	1.765367	-0.609315	-0.142358
C65	C	1.776653	-0.659989	-0.142216
C66	C	1.872200	-0.687801	-0.144576
C67	C	1.830037	-0.064777	-0.233620
C68	C	1.834533	-0.064616	-0.287553
C69	C	2.036346	0.022674	-0.146171
C70	C	2.013976	0.076607	-0.146334
C71	C	2.048130	-0.062409	-0.061083
C72	C	2.033254	-0.062567	-0.007149
C73	C	2.341820	-0.149861	-0.148534
C74	C	2.353809	-0.203794	-0.148374
C75	C	1.853423	-0.065941	0.324821
C76	C	1.797451	-0.066520	0.527527
O77	O	1.715828	-0.068642	0.551632
N78	N	1.877909	-0.064164	0.555352
C79	C	1.972365	-0.061659	0.532498
O80	O	2.039513	-0.059662	0.560817
C81	C	2.028335	-0.061075	0.329794
C82	C	1.947873	-0.063437	0.301971
C83	C	1.772968	-0.068302	0.296998
C84	C	1.786962	-0.068159	0.246325
C85	C	1.881412	-0.065656	0.223474
C86	C	1.961867	-0.063295	0.251297
C87	C	2.122789	-0.058567	0.306941
C88	C	2.136774	-0.058420	0.256262
C89	C	2.056312	-0.060782	0.228439
C90	C	2.070311	-0.060649	0.177772
N91	N	1.989853	-0.063006	0.149947
C92	C	1.895404	-0.065509	0.172798
C93	C	1.942975	-0.061966	0.638920
C94	C	1.928983	-0.062113	0.689596
C95	C	1.754068	-0.066973	0.684621
C96	C	1.768063	-0.066830	0.633944
C97	C	1.862517	-0.064323	0.611095
C98	C	1.924800	-0.065211	0.066380
C99	C	1.938804	-0.065070	0.015701
C100	C	2.113716	-0.060207	0.020681
C101	C	2.099714	-0.060350	0.071354
C102	C	2.005248	-0.062851	0.094202
O103	O	2.151901	-0.058524	0.153635
O104	O	1.828264	-0.067495	0.144473
C105	C	1.839429	-0.066083	0.375495
C106	C	1.919884	-0.063722	0.403318
C107	C	2.014334	-0.061219	0.380467
C108	C	1.905892	-0.063869	0.453994
C109	C	1.811443	-0.066372	0.476844
C110	C	1.730985	-0.068729	0.449020
C111	C	1.744979	-0.068586	0.398346
C112	C	2.094792	-0.058862	0.408292
C113	C	2.080790	-0.059005	0.458966
C114	C	1.986341	-0.061508	0.481816
C115	C	2.330037	-0.064777	-0.233620
C116	C	2.334533	-0.064616	-0.287553
C117	C	2.536346	0.022674	-0.146171
C118	C	2.513976	0.076607	-0.146334
C119	C	2.548130	-0.062409	-0.061083
C120	C	2.533254	-0.062567	-0.007149
C121	C	2.449356	-0.231606	-0.150734
C122	C	2.460635	-0.282283	-0.150592
C123	C	2.376365	-0.305147	-0.148085
C124	C	2.280811	-0.277331	-0.145726
C125	C	2.269533	-0.226655	-0.145872
C126	C	2.426554	-0.066971	-0.315365
C127	C	2.430791	-0.066813	-0.366041
C128	C	2.343008	-0.064304	-0.388904
C129	C	2.250979	-0.061948	-0.361088
C130	C	2.246742	-0.062102	-0.310413
C131	C	2.590923	0.104419	-0.143975
C132	C	2.569915	0.155096	-0.144120
C133	C	2.471961	0.177959	-0.146627
C134	C	2.395008	0.150143	-0.148985
C135	C	2.416016	0.099468	-0.148837
C136	C	2.438804	-0.065070	0.015701
C137	C	2.424810	-0.065214	0.066379
C138	C	2.505267	-0.062857	0.094203
C139	C	2.599724	-0.060352	0.071349
C140	C	2.613716	-0.060205	0.020674
H141	H	2.017987	-0.212995	-0.152770
H142	H	2.165237	-0.058435	0.094008
H143	H	2.665228	-0.058432	0.094012
H144	H	1.829339	-0.822265	-0.142200
O145	O	2.157369	-0.059755	-0.283359
C146	C	2.038151	-0.014920	-0.216453
C147	C	2.139370	-0.017499	-0.247060
H148	H	2.023577	0.019236	-0.187091
H149	H	1.976079	-0.013078	-0.241464
H150	H	2.039898	-0.049034	-0.198123
H151	H	2.137721	0.016607	-0.265394
H152	H	2.201399	-0.019365	-0.222025
H153	H	2.690630	-0.058170	0.002072
O154	O	2.553446	-0.309333	-0.152961
C155	C	2.675715	-0.376212	-0.197847
C156	C	2.570598	-0.345612	-0.195233
H157	H	2.689608	-0.405558	-0.232016
H158	H	2.734051	-0.351191	-0.199688
H159	H	2.681279	-0.394561	-0.163746
H160	H	2.564936	-0.327259	-0.229325
H161	H	2.512312	-0.370656	-0.193368
O162	O	1.660827	-0.530089	-0.140245
C163	C	1.481273	-0.519808	-0.135422
C164	C	1.574027	-0.494691	-0.138153
H165	H	1.411070	-0.491198	-0.133719
H166	H	1.486165	-0.548864	-0.169377
H167	H	1.477917	-0.537955	-0.101107
H168	H	1.577440	-0.476515	-0.172446
H169	H	1.569096	-0.465660	-0.104174
H170	H	2.454868	0.219223	-0.146748
H171	H	1.702542	-0.068752	0.611294
O172	O	2.206798	-0.596967	-0.154584
C173	C	2.303651	-0.549435	-0.199846
C174	C	2.210959	-0.574595	-0.197071
H175	H	2.307057	-0.531350	-0.234199
H176	H	2.298711	-0.520334	-0.165923
H177	H	2.373853	-0.578030	-0.201484
H178	H	2.140710	-0.546036	-0.195448
H179	H	2.215987	-0.603705	-0.230993
H180	H	1.708018	-0.678597	-0.140175
O181	O	2.360707	-0.067443	-0.011356
C182	C	2.294300	-0.112331	-0.078240
C183	C	2.382814	-0.109714	-0.047636
H184	H	2.312150	-0.146499	-0.107586
H185	H	2.224379	-0.114174	-0.053223
H186	H	2.280866	-0.078230	-0.096590
H187	H	2.396339	-0.143806	-0.029282
H188	H	2.452685	-0.107847	-0.072676
H189	H	2.038458	-0.304923	-0.152521
O190	O	2.644610	0.182144	-0.141748
C191	C	2.707987	0.249021	-0.096856
C192	C	2.623339	0.218423	-0.099475
H193	H	2.690808	0.278365	-0.062687
H194	H	2.781622	0.223999	-0.095012
H195	H	2.714166	0.267371	-0.130955
H196	H	2.617068	0.200068	-0.065384
H197	H	2.549747	0.243468	-0.101343
O198	O	1.638747	-0.430206	-0.140443
C199	C	1.516448	-0.363369	-0.095507
C200	C	1.621547	-0.393986	-0.098122
H201	H	1.502500	-0.334085	-0.061288
H202	H	1.510821	-0.344953	-0.129564
H203	H	1.458182	-0.388431	-0.093718
H204	H	1.679875	-0.368958	-0.099895
H205	H	1.627089	-0.412408	-0.064065
H206	H	2.347892	-0.067253	0.084979
H207	H	2.171703	-0.056822	0.389693
O208	O	2.531180	-0.209366	-0.153084
C209	C	2.617637	-0.148237	-0.113837
C210	C	2.524927	-0.173387	-0.111106
H211	H	2.612603	-0.119136	-0.079908
H212	H	2.687890	-0.176800	-0.115472
H213	H	2.621020	-0.130134	-0.148180
H214	H	2.521448	-0.191489	-0.076767
H215	H	2.454718	-0.144803	-0.109498
O216	O	2.686016	0.082171	-0.141472
C217	C	2.796839	0.034646	-0.096198
C218	C	2.689097	0.059805	-0.098982
H219	H	2.799369	0.016565	-0.061842
H220	H	2.822729	0.005542	-0.130117
H221	H	2.848202	0.063241	-0.094559
H222	H	2.637659	0.031246	-0.100606
H223	H	2.663289	0.088918	-0.065063
H224	H	2.385562	-0.346411	-0.147966
H225	H	2.498042	-0.069015	-0.296757
H226	H	2.493864	-0.062983	0.135465
H227	H	2.315253	0.168767	-0.151026
O228	O	2.176756	-0.199578	-0.143508
C229	C	2.054462	-0.132745	-0.098561
C230	C	2.159568	-0.163359	-0.101186
H231	H	2.040524	-0.103461	-0.064341
H232	H	2.048816	-0.114328	-0.132617
H233	H	1.996201	-0.157809	-0.096766
H234	H	2.217890	-0.138329	-0.102965
H235	H	2.165129	-0.181781	-0.067131
H236	H	2.159789	-0.448584	-0.154553
H237	H	2.155599	-0.831243	-0.151019
O238	O	2.195273	-0.544842	-0.154574
C239	C	2.347261	-0.557758	-0.116434
C240	C	2.242135	-0.527184	-0.113878
H241	H	2.385188	-0.543487	-0.083541
H242	H	2.340930	-0.597909	-0.115869
H243	H	2.393521	-0.554490	-0.151811
H244	H	2.195816	-0.530411	-0.078506
H245	H	2.248540	-0.487046	-0.114471
O246	O	2.520148	-0.069171	-0.393118
C247	C	2.639401	-0.114102	-0.459963
C248	C	2.538177	-0.111484	-0.429347
H249	H	2.654019	-0.148315	-0.489255
H250	H	2.637773	-0.080040	-0.478371
H251	H	2.701387	-0.115904	-0.434903
H252	H	2.476136	-0.109698	-0.454374
H253	H	2.539890	-0.145546	-0.410934
H254	H	1.849802	-0.914189	-0.141930
O255	O	2.191012	-0.927591	-0.151065
C256	C	2.302953	-0.980884	-0.111453
C257	C	2.197865	-0.950265	-0.108875
H258	H	2.308535	-0.999216	-0.077342
H259	H	2.316917	-1.010236	-0.145619
H260	H	2.361236	-0.955836	-0.113294
H261	H	2.139517	-0.975274	-0.107015
H262	H	2.183987	-0.920909	-0.074714
O263	O	1.698980	-0.299556	-0.143208
C264	C	1.602217	-0.347157	-0.097989
C265	C	1.694923	-0.322008	-0.100771
H266	H	1.598919	-0.365324	-0.063687
H267	H	1.531949	-0.318588	-0.096291
H268	H	1.607191	-0.376207	-0.131955
H269	H	1.690047	-0.292960	-0.066813
H270	H	1.765153	-0.350605	-0.102492
H271	H	2.212203	-0.295954	-0.143685
H272	H	2.353353	0.076826	-0.150762
O273	O	2.347242	-0.064095	-0.438123
C274	C	2.392530	-0.022941	-0.505419
C275	C	2.387806	-0.023123	-0.449673
H276	H	2.425305	0.010187	-0.514773
H277	H	2.441724	-0.058092	-0.525772
H278	H	2.313982	-0.020768	-0.516979
H279	H	2.466313	-0.025278	-0.438068
H280	H	2.338559	0.012027	-0.429352
O281	O	2.229104	-0.696875	-0.154153
C282	C	2.381106	-0.709834	-0.116029
C283	C	2.275998	-0.679237	-0.113461
H284	H	2.419058	-0.695578	-0.083140
H285	H	2.374737	-0.749982	-0.115468
H286	H	2.427363	-0.706571	-0.151408
H287	H	2.229683	-0.682459	-0.078086
H288	H	2.282441	-0.639102	-0.114050
O289	O	1.860683	-0.067295	-0.011366
C290	C	1.755598	-0.027682	-0.064666
C291	C	1.844096	-0.025107	-0.034044
H292	H	1.742146	0.006427	-0.083001
H293	H	1.773366	-0.061849	-0.094016
H294	H	1.685715	-0.029517	-0.039619
H295	H	1.914017	-0.023254	-0.059052
H296	H	1.826244	0.009055	-0.004690
H297	H	1.687561	-0.586675	-0.140436
O298	O	1.833116	-0.067714	0.088609
C299	C	1.735121	-0.112995	0.136114
C300	C	1.839007	-0.110205	0.110975
H301	H	1.739845	-0.147351	0.154194
H302	H	1.708538	-0.079077	0.165217
H303	H	1.680051	-0.114638	0.107507
H304	H	1.894150	-0.108578	0.139546
H305	H	1.865506	-0.144122	0.081863
O306	O	1.662393	-0.069494	0.706850
C307	C	1.564439	-0.114806	0.754337
C308	C	1.668315	-0.111993	0.729202
H309	H	1.569187	-0.149170	0.772406
H310	H	1.537836	-0.080897	0.783448
H311	H	1.509369	-0.116450	0.725729
H312	H	1.723456	-0.110365	0.757774
H313	H	1.694833	-0.145902	0.700082
H314	H	2.179510	-0.059906	-0.379711
O315	O	1.708725	-0.070362	0.219338
C316	C	1.544150	-0.032225	0.206396
C317	C	1.632700	-0.029666	0.236984
H318	H	1.482653	0.000668	0.220658
H319	H	1.570285	-0.031661	0.166246
H320	H	1.513929	-0.067601	0.209658
H321	H	1.662961	0.005705	0.233762
H322	H	1.606510	-0.030257	0.277120
O323	O	1.681227	-0.070833	0.319138
C324	C	1.546787	-0.117308	0.323527
C325	C	1.650704	-0.114496	0.298439
H326	H	1.522068	-0.152601	0.306796
H327	H	1.550501	-0.117048	0.364528
H328	H	1.490827	-0.084332	0.317809
H329	H	1.706721	-0.147465	0.304119
H330	H	1.646909	-0.114732	0.257447
H331	H	1.691740	-0.204007	-0.143946
H332	H	1.994509	-0.060197	0.712244
H333	H	2.019892	-0.059924	0.620321
H334	H	2.188313	-0.056643	0.329587
H335	H	2.213690	-0.056379	0.237661
H336	H	2.190618	-0.058171	0.002066
O337	O	1.666744	-0.070791	0.371358
C338	C	1.502168	-0.032657	0.358411
C339	C	1.590715	-0.030096	0.389002
H340	H	1.440668	0.000234	0.372672
H341	H	1.528307	-0.032095	0.318262
H342	H	1.471950	-0.068034	0.361675
H343	H	1.620973	0.005276	0.385780
H344	H	1.564522	-0.030686	0.429138
H345	H	1.654079	-0.070769	0.467633
H346	H	2.146322	-0.057085	0.481615
