data_functionalizedCrystal
_audit_creation_method	'MofGen! by Chris Wilmer'
_symmetry_space_group_name_H-M	'P1'
_symmetry_Int_Tables_number	1
_symmetry_cell_setting	triclinic
loop_
_symmetry_equiv_pos_as_xyz
  x,y,z
_cell_length_a	18.215407
_cell_length_b	12.645330
_cell_length_c	18.215398
_cell_angle_alpha	90.019605
_cell_angle_beta	89.983001
_cell_angle_gamma	89.976370
loop_
_atom_site_label
_atom_site_type_symbol
_atom_site_fract_x
_atom_site_fract_y
_atom_site_fract_z
Zn1	Zn	1.125063	0.422149	-0.416097
Zn2	Zn	1.124969	0.599423	-0.293043
Zn3	Zn	1.001996	0.422167	-0.293050
Zn4	Zn	1.001958	0.599363	-0.416074
O5	O	1.063496	0.510776	-0.354566
O6	O	1.228034	0.445683	-0.399781
O7	O	1.108633	0.575943	-0.190060
O8	O	1.018376	0.273817	-0.309385
O9	O	1.227966	0.575926	-0.309374
O10	O	1.108792	0.273804	-0.399787
O11	O	1.018285	0.445713	-0.190065
O12	O	0.899007	0.445654	-0.309362
O13	O	1.018312	0.575822	-0.519061
O14	O	0.898979	0.575840	-0.399747
O15	O	1.108756	0.445624	-0.519078
O16	O	1.108596	0.747763	-0.309351
O17	O	1.018221	0.747718	-0.399741
C18	C	0.872290	0.510743	-0.354553
C19	C	0.790491	0.510755	-0.354565
C20	C	0.602332	0.443077	-0.401714
C21	C	0.525473	0.443086	-0.401717
C22	C	0.525413	0.578504	-0.307431
C23	C	0.602270	0.578489	-0.307425
C24	C	0.640728	0.510777	-0.354571
C25	C	0.487012	0.510801	-0.354579
C26	C	0.403678	0.510811	-0.354581
C27	C	0.724067	0.510765	-0.354568
C28	C	1.063414	0.786205	-0.354559
C29	C	1.063447	0.904035	-0.354580
C30	C	1.006809	1.071615	-0.411622
C31	C	1.006532	0.949056	-0.411437
C32	C	1.042450	0.948620	-0.277023
C33	C	1.042091	1.071218	-0.277371
C34	C	1.141389	1.071132	-0.374471
C35	C	1.140924	0.948525	-0.376166
C36	C	1.255449	0.510809	-0.354579
C37	C	1.337248	0.510823	-0.354585
C38	C	1.063573	1.234270	-0.354592
C39	C	1.063540	1.116440	-0.354610
C40	C	1.063540	0.510715	-0.546519
C41	C	1.063559	0.510689	-0.628318
C42	C	1.110636	0.578368	-0.893378
C43	C	1.110625	0.578405	-0.816519
C44	C	1.016537	0.442804	-0.816507
C45	C	1.016545	0.442774	-0.893364
C46	C	1.063599	0.510554	-0.931798
C47	C	1.063579	0.510622	-0.778082
C48	C	1.063567	0.510661	-0.694748
C49	C	1.063610	0.510516	-1.015137
C50	C	1.063495	0.510760	-0.163360
C51	C	1.063619	0.510487	-0.081561
H52	H	0.494091	0.633634	-0.269047
N53	N	0.934127	0.912378	-0.394971
N54	N	0.900524	0.855767	-0.440077
H55	H	0.849380	0.829873	-0.428461
N56	N	0.968473	0.373557	-0.777262
N57	N	0.900563	0.380570	-0.785833
H58	H	0.866618	0.331657	-0.758120
N59	N	1.196760	0.910082	-0.327876
N60	N	1.249101	0.857207	-0.352875
H61	H	1.288534	0.830056	-0.318765
H62	H	1.183655	1.100118	-0.332947
N63	N	1.022999	0.911221	-0.483579
N64	N	0.977738	0.854579	-0.516938
H65	H	0.989366	0.827859	-0.567891
H66	H	1.082466	0.919459	-0.233384
H67	H	1.148928	0.633626	-0.785241
H68	H	1.019819	1.101035	-0.469319
N69	N	0.641484	0.647646	-0.259256
N70	N	0.607140	0.708101	-0.217168
H71	H	0.634835	0.756938	-0.183148
N72	N	0.934863	1.110384	-0.395325
N73	N	0.925189	1.170882	-0.341905
H74	H	0.874378	1.198265	-0.330393
H75	H	0.978237	0.387550	-0.924647
N76	N	0.486265	0.373920	-0.449874
N77	N	0.520614	0.313467	-0.491959
H78	H	0.492924	0.264613	-0.525971
N79	N	1.158709	0.647600	-0.932625
N80	N	1.200706	0.708139	-0.898309
H81	H	1.234661	0.757035	-0.926025
N82	N	0.970701	1.107195	-0.256258
N83	N	0.921488	1.041760	-0.241371
H84	H	0.871066	1.067163	-0.226460
H85	H	1.081619	1.100873	-0.233444
N86	N	0.641605	0.373905	-0.449874
N87	N	0.607310	0.313462	-0.491961
H88	H	0.635044	0.264604	-0.525975
N89	N	0.971812	0.910205	-0.255538
N90	N	0.936812	0.850006	-0.297211
H91	H	0.886923	0.822875	-0.282041
H92	H	1.160536	1.101983	-0.430065
H93	H	1.156758	0.919382	-0.433244
