data_functionalizedCrystal
_audit_creation_method	'MofGen! by Chris Wilmer'
_symmetry_space_group_name_H-M	'P1'
_symmetry_Int_Tables_number	1
_symmetry_cell_setting	triclinic
loop_
_symmetry_equiv_pos_as_xyz
  x,y,z
_cell_length_a	27.732048
_cell_length_b	14.853567
_cell_length_c	13.330367
_cell_angle_alpha	89.996055
_cell_angle_beta	90.000003
_cell_angle_gamma	96.861207
loop_
_atom_site_label
_atom_site_type_symbol
_atom_site_fract_x
_atom_site_fract_y
_atom_site_fract_z
O1	O	0.063100	-1.195343	0.083366
O2	O	0.563100	-0.695343	0.583366
O3	O	0.070617	-0.932761	0.083384
O4	O	0.570617	-0.432761	0.583384
O5	O	-0.003500	-1.072207	0.083355
O6	O	0.496500	-0.572207	0.583355
O7	O	0.137217	-1.055897	0.083395
O8	O	0.637217	-0.555897	0.583395
O9	O	-0.003488	-1.072186	-0.083492
O10	O	0.496512	-0.572186	0.416508
O11	O	0.070629	-0.932740	-0.083463
O12	O	0.570629	-0.432740	0.416537
O13	O	0.063112	-1.195322	-0.083481
O14	O	0.563112	-0.695322	0.416519
Cu15	Cu	0.066872	-1.064029	-0.098707
Cu16	Cu	0.566872	-0.564029	0.401293
Cu17	Cu	0.066857	-1.064054	0.098609
Cu18	Cu	0.566857	-0.564054	0.598609
O19	O	0.137229	-1.055875	-0.083453
O20	O	0.637229	-0.555875	0.416547
C21	C	-0.021503	-1.071854	-0.000071
C22	C	0.478497	-0.571854	0.499929
C23	C	-0.075162	-1.070823	-0.000079
C24	C	0.424838	-0.570823	0.499921
C25	C	0.070283	-0.899167	-0.000037
C26	C	0.570283	-0.399167	0.499963
C27	C	0.069262	-0.799100	-0.000031
C28	C	0.569262	-0.299100	0.499969
C29	C	0.063446	-1.228915	-0.000058
C30	C	0.563446	-0.728915	0.499942
C31	C	0.064467	-1.328982	-0.000057
C32	C	0.564467	-0.828982	0.499943
C33	C	-0.413622	-1.146736	-0.000033
C34	C	0.086378	-0.646736	0.499967
C35	C	-0.615300	-1.142911	-0.000019
C36	C	-0.115300	-0.642911	0.499981
O37	O	-0.646231	-1.212328	0.000020
O38	O	-0.146231	-0.712328	0.500020
N39	N	-0.634810	-1.060225	-0.000014
N40	N	-0.134810	-0.560225	0.499986
C41	C	-0.603898	-0.978490	-0.000006
C42	C	-0.103898	-0.478490	0.499994
O43	O	-0.625120	-0.908073	0.000009
O44	O	-0.125120	-0.408073	0.500009
C45	C	-0.402221	-0.982316	-0.000013
C46	C	0.097779	-0.482316	0.499987
C47	C	-0.382714	-1.065007	-0.000028
C48	C	0.117286	-0.565007	0.499972
C49	C	-0.394114	-1.229421	-0.000047
C50	C	0.105886	-0.729421	0.499953
C51	C	-0.343698	-1.230376	-0.000056
C52	C	0.156302	-0.730376	0.499944
C53	C	-0.312790	-1.148647	-0.000051
C54	C	0.187210	-0.648647	0.499949
C55	C	-0.332298	-1.065963	-0.000037
C56	C	0.167702	-0.565963	0.499963
C57	C	-0.371310	-0.900582	0.000002
C58	C	0.128690	-0.400582	0.500002
C59	C	-0.320888	-0.901546	0.000003
C60	C	0.179112	-0.401546	0.500003
C61	C	-0.301381	-0.984237	-0.000012
C62	C	0.198619	-0.484237	0.499988
C63	C	-0.250973	-0.985189	-0.000041
C64	C	0.249027	-0.485189	0.499959
N65	N	-0.231462	-1.067875	-0.000046
N66	N	0.268538	-0.567875	0.499954
C67	C	-0.262371	-1.149604	-0.000051
C68	C	0.237629	-0.649604	0.499949
C69	C	-0.709781	-0.976487	-0.000004
C70	C	-0.209781	-0.476487	0.499996
C71	C	-0.760200	-0.975530	-0.000004
C72	C	-0.260200	-0.475530	0.499996
C73	C	-0.771599	-1.139952	-0.000015
C74	C	-0.271599	-0.639952	0.499985
C75	C	-0.721179	-1.140908	-0.000022
C76	C	-0.221179	-0.640908	0.499978
C77	C	-0.690271	-1.059173	-0.000009
C78	C	-0.190271	-0.559173	0.499991
C79	C	-0.156492	-1.151604	-0.000071
C80	C	0.343508	-0.651604	0.499929
C81	C	-0.106071	-1.152552	-0.000084
C82	C	0.393929	-0.652552	0.499916
C83	C	-0.094677	-0.988131	-0.000068
C84	C	0.405323	-0.488131	0.499932
C85	C	-0.145094	-0.987183	-0.000060
C86	C	0.354906	-0.487183	0.499940
C87	C	-0.176001	-1.068926	-0.000058
C88	C	0.323999	-0.568926	0.499942
O89	O	-0.220013	-0.915809	-0.000069
O90	O	0.279987	-0.415809	0.499931
O91	O	-0.241139	-1.220011	-0.000044
O92	O	0.258861	-0.720011	0.499956
C93	C	-0.464039	-1.145781	-0.000024
C94	C	0.035961	-0.645781	0.499976
C95	C	-0.483547	-1.063097	-0.000010
C96	C	0.016453	-0.563097	0.499990
C97	C	-0.452638	-0.981367	-0.000005
C98	C	0.047362	-0.481367	0.499995
C99	C	-0.533966	-1.062140	-0.000010
C100	C	-0.033966	-0.562140	0.499990
C101	C	-0.564874	-1.143869	-0.000015
C102	C	-0.064874	-0.643869	0.499985
C103	C	-0.545364	-1.226555	-0.000020
C104	C	-0.045364	-0.726555	0.499980
C105	C	-0.494947	-1.227510	-0.000029
C106	C	0.005053	-0.727510	0.499971
C107	C	-0.472149	-0.898682	-0.000000
C108	C	0.027851	-0.398682	0.500000
C109	C	-0.522566	-0.897733	0.000008
C110	C	-0.022566	-0.397733	0.500008
C111	C	-0.553474	-0.979462	0.000003
C112	C	-0.053474	-0.479462	0.500003
C113	C	0.155232	-1.056228	-0.000024
C114	C	0.655232	-0.556228	0.499976
C115	C	0.208891	-1.057259	-0.000009
C116	C	0.708891	-0.557259	0.499991
N117	N	0.066881	-1.064017	-0.237488
N118	N	0.566881	-0.564017	0.262512
C119	C	0.020920	-0.387353	-0.000067
C120	C	0.520920	0.112647	0.499933
C121	C	0.108973	-0.364639	-0.000041
C122	C	0.608973	0.135361	0.499959
C123	C	0.109933	-0.458657	-0.000038
C124	C	0.609933	0.041343	0.499962
C125	C	0.066385	-0.517028	-0.000047
C126	C	0.566385	-0.017028	0.499953
C127	C	0.021878	-0.481380	-0.000061
C128	C	0.521878	0.018620	0.499939
C129	C	0.154439	-0.494313	-0.000015
C130	C	0.654439	0.005687	0.499985
C131	C	0.155401	-0.588336	-0.000010
C132	C	0.655401	-0.088336	0.499990
C133	C	0.111853	-0.646708	-0.000027
C134	C	0.611853	-0.146708	0.499973
C135	C	0.067344	-0.611055	-0.000041
C136	C	0.567344	-0.111055	0.499959
C137	C	0.023796	-0.669425	-0.000051
C138	C	0.523796	-0.169425	0.499949
C139	C	-0.020713	-0.633774	-0.000072
C140	C	0.479287	-0.133774	0.499928
C141	C	-0.021670	-0.539752	-0.000077
C142	C	0.478330	-0.039752	0.499923
C143	C	0.112809	-0.740730	-0.000021
C144	C	0.612809	-0.240730	0.499979
C145	C	0.024755	-0.763452	-0.000044
C146	C	0.524755	-0.263452	0.499956
C147	C	0.096219	-1.118332	-0.710096
C148	C	0.596219	-0.618332	-0.210096
C149	C	0.037477	-1.009804	-0.710094
C150	C	0.537477	-0.509804	-0.210094
C151	C	0.037484	-1.009790	-0.605076
C152	C	0.537484	-0.509790	-0.105076
C153	C	0.066859	-1.064050	-0.552563
C154	C	0.566859	-0.564050	-0.052563
C155	C	0.096226	-1.118322	-0.605068
C156	C	0.596226	-0.618322	-0.105068
C157	C	0.008114	-0.955526	-0.552563
C158	C	0.508114	-0.455526	-0.052563
C159	C	0.008120	-0.955511	-0.447538
C160	C	0.508120	-0.455511	0.052462
C161	C	0.037498	-1.009766	-0.395023
C162	C	0.537498	-0.509766	0.104977
C163	C	0.066866	-1.064040	-0.447535
C164	C	0.566866	-0.564040	0.052465
C165	C	0.096241	-1.118300	-0.395021
C166	C	0.596241	-0.618300	0.104979
C167	C	0.125613	-1.172569	-0.447531
C168	C	0.625613	-0.672569	0.052469
C169	C	0.125604	-1.172577	-0.552553
C170	C	0.625604	-0.672577	-0.052553
C171	C	0.037506	-1.009758	-0.290001
C172	C	0.537506	-0.509758	0.209999
C173	C	0.096248	-1.118290	-0.289993
C174	C	0.596248	-0.618290	0.210007
N175	N	0.066844	-1.064072	0.237391
N176	N	0.566844	-0.564072	0.737391
H177	H	-0.090191	-1.219892	-0.000099
H178	H	0.409809	-0.719892	0.499901
H179	H	0.189893	-0.446781	0.000003
H180	H	0.689893	0.053219	0.500003
Br181	Br	0.136121	-1.191923	-0.218733
Br182	Br	0.636121	-0.691923	0.281267
H183	H	-0.015796	-0.911321	-0.404794
H184	H	0.484204	-0.411321	0.095206
Br185	Br	0.168070	-0.285423	-0.000010
Br186	Br	0.668070	0.214577	0.499990
Br187	Br	-0.039483	-0.338973	-0.000105
Br188	Br	0.460517	0.161027	0.499895
H189	H	-0.069502	-0.921590	-0.000067
H190	H	0.430498	-0.421590	0.499933
H191	H	-0.327820	-1.297712	-0.000064
H192	H	0.172180	-0.797712	0.499936
H193	H	-0.057907	-0.510716	-0.000118
H194	H	0.442093	-0.010716	0.499882
H195	H	0.149527	-1.216751	-0.404761
H196	H	0.649527	-0.716751	0.095239
Br197	Br	-0.468481	-1.339740	-0.000043
Br198	Br	0.031519	-0.839740	0.499957
Br199	Br	-0.031749	-0.881893	-0.623834
Br200	Br	0.468251	-0.381893	-0.123834
Br201	Br	-0.430209	-0.787752	0.000012
Br202	Br	0.069791	-0.287752	0.500012
Br203	Br	0.215804	-0.636712	0.000019
Br204	Br	0.715804	-0.136712	0.500019
Br205	Br	-0.587321	-1.337471	-0.000035
Br206	Br	-0.087321	-0.837471	0.499965
H207	H	0.013591	-0.965575	-0.247253
H208	H	0.513591	-0.465575	0.252747
Br209	Br	-0.198430	-1.262543	-0.000067
Br210	Br	0.301570	-0.762543	0.499933
H211	H	-0.419276	-1.295978	-0.000047
H212	H	0.080724	-0.795978	0.499953
H213	H	-0.010707	-0.810972	-0.000056
H214	H	0.489293	-0.310972	0.499944
H215	H	-0.056169	-0.681311	-0.000073
H216	H	0.443831	-0.181311	0.499927
Br217	Br	0.136083	-1.191971	-0.781354
Br218	Br	0.636083	-0.691971	-0.281354
Br219	Br	-0.694710	-1.253135	-0.000045
Br220	Br	-0.194710	-0.753135	0.499955
H221	H	-0.796773	-1.206499	-0.000020
H222	H	-0.296773	-0.706499	0.499980
Br223	Br	-0.549033	-0.785498	0.000020
Br224	Br	-0.049033	-0.285498	0.500020
Br225	Br	0.173209	-0.789112	0.000019
Br226	Br	0.673209	-0.289112	0.500019
Br227	Br	-0.002389	-0.936173	-0.781362
Br228	Br	0.497611	-0.436173	-0.281362
Br229	Br	-0.786668	-0.863302	-0.000008
Br230	Br	-0.286668	-0.363302	0.499992
Br231	Br	-0.667841	-0.865550	0.000016
Br232	Br	-0.167841	-0.365550	0.500016
H233	H	-0.387184	-0.833246	0.000020
H234	H	0.112816	-0.333246	0.500020
Br235	Br	0.165463	-1.246219	-0.623821
Br236	Br	0.665463	-0.746219	-0.123821
H237	H	-0.160977	-0.919849	-0.000076
H238	H	0.339023	-0.419849	0.499924
Br239	Br	-0.278944	-0.790613	0.000025
Br240	Br	0.221056	-0.290613	0.500025
