data_functionalizedCrystal
_audit_creation_method	'MofGen! by Chris Wilmer'
_symmetry_space_group_name_H-M	'P1'
_symmetry_Int_Tables_number	1
_symmetry_cell_setting	triclinic
loop_
_symmetry_equiv_pos_as_xyz
  x,y,z
_cell_length_a	13.897449
_cell_length_b	16.625545
_cell_length_c	16.625539
_cell_angle_alpha	90.028234
_cell_angle_beta	90.024767
_cell_angle_gamma	90.023964
loop_
_atom_site_label
_atom_site_type_symbol
_atom_site_fract_x
_atom_site_fract_y
_atom_site_fract_z
Zn1	Zn	-1.474648	0.321002	-0.456000
Zn2	Zn	-0.974648	0.821002	0.044000
Zn3	Zn	-1.474528	0.455845	-0.321167
Zn4	Zn	-0.974528	0.955845	0.178833
Zn5	Zn	-1.313341	0.321030	-0.321171
Zn6	Zn	-0.813341	0.821030	0.178829
Zn7	Zn	-1.313301	0.455796	-0.455947
Zn8	Zn	-0.813301	0.955796	0.044053
O9	O	-1.393954	0.388418	-0.388571
O10	O	-0.893954	0.888418	0.111429
O11	O	-1.609613	0.338898	-0.438135
O12	O	-1.109613	0.838898	0.061865
O13	O	-1.453112	0.437994	-0.208335
O14	O	-0.953112	0.937994	0.291665
O15	O	-1.334805	0.208194	-0.339080
O16	O	-0.834805	0.708194	0.160920
O17	O	-1.609525	0.437966	-0.339074
O18	O	-1.109525	0.937966	0.160926
O19	O	-1.453317	0.208173	-0.438138
O20	O	-0.953317	0.708173	0.061862
O21	O	-1.334689	0.338945	-0.208338
O22	O	-0.834689	0.838945	0.291662
O23	O	-1.178354	0.338898	-0.339028
O24	O	-0.678354	0.838898	0.160972
O25	O	-1.334737	0.437883	-0.568787
O26	O	-0.834737	0.937883	-0.068787
O27	O	-1.178324	0.437910	-0.438048
O28	O	-0.678324	0.937910	0.061952
O29	O	-1.453278	0.338850	-0.568826
O30	O	-0.953278	0.838850	-0.068826
O31	O	-1.453073	0.568671	-0.339023
O32	O	-0.953073	1.068671	0.160977
O33	O	-1.334621	0.568635	-0.438045
O34	O	-0.834621	1.068635	0.061955
C35	C	-1.143340	0.388402	-0.388534
C36	C	-0.643340	0.888402	0.111466
C37	C	-1.036126	0.388415	-0.388536
C38	C	-0.536126	0.888415	0.111464
C39	C	-0.949056	0.388417	-0.388546
C40	C	-0.449056	0.888417	0.111454
C41	C	-0.839824	0.388421	-0.388567
C42	C	-0.339824	0.888421	0.111433
C43	C	-1.393856	0.597909	-0.388546
C44	C	-0.893856	1.097909	0.111454
C45	C	-1.393902	0.687530	-0.388561
C46	C	-0.893902	1.187530	0.111439
C47	C	-1.394017	0.388358	-0.598880
C48	C	-0.894017	0.888358	-0.098880
C49	C	-1.394044	0.388332	-0.688502
C50	C	-0.894044	0.888332	-0.188502
C51	C	-0.645547	0.388431	-0.388600
C52	C	-0.145547	0.888431	0.111400
C53	C	-0.752761	0.388428	-0.388587
C54	C	-0.252761	0.888428	0.111413
C55	C	-1.394060	1.015706	-0.388658
C56	C	-0.894060	1.515706	0.111342
C57	C	-1.394013	0.924397	-0.388633
C58	C	-0.894013	1.424397	0.111367
C59	C	-1.393980	0.851621	-0.388609
C60	C	-0.893980	1.351621	0.111391
C61	C	-1.393935	0.760306	-0.388585
C62	C	-0.893935	1.260306	0.111415
C63	C	-1.394071	1.178109	-0.388625
C64	C	-0.894071	1.678109	0.111375
C65	C	-1.394099	1.088488	-0.388671
C66	C	-0.894099	1.588488	0.111329
C67	C	-1.394088	0.388242	-1.016677
C68	C	-0.894088	0.888242	-0.516677
C69	C	-1.394073	0.388270	-0.925369
C70	C	-0.894073	0.888270	-0.425369
C71	C	-1.394066	0.388288	-0.852592
C72	C	-0.894066	0.888288	-0.352592
C73	C	-1.394050	0.388314	-0.761278
C74	C	-0.894050	0.888314	-0.261278
C75	C	-1.393947	0.388420	-0.179081
C76	C	-0.893947	0.888420	0.320919
C77	C	-1.394107	0.388218	-0.089460
C78	C	-0.894107	0.888218	0.410540
