data_functionalizedCrystal
_audit_creation_method	'MofGen! by Chris Wilmer'
_symmetry_space_group_name_H-M	'P1'
_symmetry_Int_Tables_number	1
_symmetry_cell_setting	triclinic
loop_
_symmetry_equiv_pos_as_xyz
  x,y,z
_cell_length_a	10.967926
_cell_length_b	14.044190
_cell_length_c	9.482900
_cell_angle_alpha	100.185237
_cell_angle_beta	92.549900
_cell_angle_gamma	88.857419
loop_
_atom_site_label
_atom_site_type_symbol
_atom_site_fract_x
_atom_site_fract_y
_atom_site_fract_z
O1	O	1.628190	0.167989	0.286996
O2	O	1.279200	0.170075	0.199560
O3	O	1.448449	0.030855	0.241992
O4	O	1.458942	0.307209	0.244564
O5	O	1.414083	0.059253	0.475169
O6	O	1.244835	0.198473	0.432737
O7	O	1.593825	0.196386	0.520173
Cu8	Cu	1.416192	0.200023	0.497746
Cu9	Cu	1.456833	0.166439	0.221987
O10	O	1.424577	0.335606	0.477741
C11	C	1.217085	0.181977	0.304891
C12	C	1.083197	0.175119	0.271348
C13	C	1.005703	0.186773	0.377186
C14	C	0.867323	0.179685	0.342520
C15	C	1.426678	0.009569	0.357435
C16	C	1.412994	-0.096165	0.354020
C17	C	1.485028	-0.343775	0.372010
C18	C	1.388005	-0.289759	0.347712
C19	C	1.401912	-0.182033	0.351222
C20	C	1.471122	-0.451511	0.368500
C21	C	1.655941	0.184485	0.414839
C22	C	1.789830	0.191341	0.448373
C23	C	1.446348	0.356892	0.362295
C24	C	1.460033	0.462625	0.365701
N25	N	1.387616	0.223643	0.691702
N26	N	1.485418	0.142811	0.028034
C27	C	1.448396	0.173401	0.779139
C28	C	1.424630	0.193061	0.940598
H29	H	1.294496	-0.324419	0.324276
C30	C	1.611341	-0.296961	0.403688
H31	H	1.670393	-0.345017	0.418469
H32	H	1.608787	-0.248609	0.487377
H33	H	1.632778	-0.268382	0.324744
C34	C	1.542459	0.095626	0.718802
H35	H	1.546098	0.092619	0.618199
H36	H	1.518850	0.034567	0.737778
H37	H	1.620475	0.111723	0.763195
H38	H	1.354990	0.250631	0.985263
H39	H	1.317981	0.281210	0.736373
C40	C	1.054461	0.207341	0.534267
H41	H	1.141071	0.209414	0.536959
H42	H	1.029445	0.157537	0.582204
H43	H	1.022956	0.267779	0.580543
C44	C	0.818571	0.159121	0.185431
H45	H	0.731960	0.157062	0.182739
H46	H	0.850077	0.098693	0.139142
H47	H	0.843584	0.208938	0.137506
C48	C	1.579488	0.065031	0.967713
H49	H	1.614531	0.036055	1.043509
H50	H	1.641793	0.094096	0.923921
H51	H	1.540161	0.016944	0.898508
C52	C	0.838579	0.211910	0.605463
H53	H	0.925190	0.213982	0.608158
H54	H	0.813561	0.162105	0.653398
H55	H	0.807073	0.272348	0.651739
H56	H	1.047096	0.159893	0.155072
