data_functionalizedCrystal
_audit_creation_method	'MofGen! by Chris Wilmer'
_symmetry_space_group_name_H-M	'P1'
_symmetry_Int_Tables_number	1
_symmetry_cell_setting	triclinic
loop_
_symmetry_equiv_pos_as_xyz
  x,y,z
_cell_length_a	10.489746
_cell_length_b	10.489741
_cell_length_c	9.565339
_cell_angle_alpha	90.000516
_cell_angle_beta	89.999333
_cell_angle_gamma	84.540238
loop_
_atom_site_label
_atom_site_type_symbol
_atom_site_fract_x
_atom_site_fract_y
_atom_site_fract_z
O1	O	1.694049	0.179990	-0.116165
O2	O	1.322854	0.196876	-0.116188
O3	O	1.516898	0.002836	-0.116168
O4	O	1.500005	0.374031	-0.116186
O5	O	1.516883	0.002848	0.116352
O6	O	1.322839	0.196888	0.116332
O7	O	1.694034	0.180002	0.116355
Zn8	Zn	1.508434	0.188447	0.153261
Zn9	Zn	1.508454	0.188431	-0.153094
O10	O	1.499990	0.374043	0.116334
C11	C	1.275315	0.195606	0.000069
C12	C	1.133686	0.191786	0.000060
C13	C	0.980828	0.066062	0.000086
C14	C	1.058214	0.128925	0.114723
C15	C	1.058185	0.128942	-0.114523
C16	C	0.958723	0.247906	0.114827
C17	C	0.958688	0.247906	-0.114523
C18	C	1.036025	0.310856	0.000143
C19	C	1.515614	-0.044690	0.000091
C20	C	1.511797	-0.186320	0.000088
C21	C	1.388333	-0.254462	0.000070
C22	C	1.446649	-0.346577	0.114719
C23	C	1.446693	-0.346564	-0.114528
C24	C	1.570164	-0.276570	0.114831
C25	C	1.570191	-0.276547	-0.114518
C26	C	1.628597	-0.368635	0.000158
C27	C	1.741573	0.181273	0.000095
C28	C	1.883202	0.185093	0.000094
C29	C	1.501273	0.421569	0.000072
C30	C	1.505091	0.563198	0.000066
N31	N	1.508429	0.188457	0.362340
N32	N	1.508469	0.188411	-0.362174
C33	C	1.418663	0.278165	0.453534
C34	C	1.534160	0.303977	0.546719
C35	C	1.392983	0.162655	0.546711
C36	C	1.623985	0.214328	0.453473
C37	C	1.482731	0.072955	0.453457
C38	C	1.598311	0.098719	0.546600
H39	H	1.101634	0.078666	-0.211443
H40	H	1.286821	-0.204813	0.000180
H41	H	1.394402	-0.377585	0.211639
H42	H	1.622353	-0.245731	0.211866
H43	H	1.730200	-0.418057	0.000228
H44	H	1.721655	0.236249	0.412690
H45	H	1.101684	0.078681	0.211649
H46	H	1.394443	-0.377534	-0.211463
H47	H	1.555922	0.401635	0.587683
H48	H	0.915194	0.298105	-0.211452
H49	H	1.674324	0.022833	0.587207
H50	H	1.460933	-0.024672	0.412460
H51	H	0.915437	0.298126	0.211856
H52	H	1.060501	0.414436	0.000201
H53	H	1.622394	-0.245506	-0.211444
H54	H	1.295335	0.140852	0.587670
H55	H	0.956107	-0.037439	0.000206
H56	H	1.342820	0.354098	0.412671
