data_functionalizedCrystal
_audit_creation_method	'MofGen! by Chris Wilmer'
_symmetry_space_group_name_H-M	'P1'
_symmetry_Int_Tables_number	1
_symmetry_cell_setting	triclinic
loop_
_symmetry_equiv_pos_as_xyz
  x,y,z
_cell_length_a	14.971491
_cell_length_b	17.699083
_cell_length_c	13.448316
_cell_angle_alpha	89.992503
_cell_angle_beta	89.991393
_cell_angle_gamma	83.449625
loop_
_atom_site_label
_atom_site_type_symbol
_atom_site_fract_x
_atom_site_fract_y
_atom_site_fract_z
O1	O	1.186605	0.098652	-0.082736
O2	O	0.926165	0.110459	-0.082729
O3	O	1.063743	-0.005615	-0.082724
O4	O	1.049027	0.214727	-0.082741
O5	O	1.063726	-0.005623	0.082659
O6	O	0.926148	0.110452	0.082654
O7	O	1.186588	0.098645	0.082647
Cu8	Cu	1.056367	0.104548	0.097752
Cu9	Cu	1.056387	0.104556	-0.097834
O10	O	1.049010	0.214719	0.082642
C11	C	0.892834	0.109927	-0.000036
C12	C	0.793543	0.108343	-0.000033
C13	C	1.063208	-0.033817	-0.000032
C14	C	1.061626	-0.117839	-0.000032
C15	C	0.365870	0.101509	-0.090207
C16	C	0.459165	0.102996	-0.090203
C17	C	0.505799	0.103740	-0.000049
C18	C	0.459134	0.102990	0.090108
C19	C	0.365841	0.101498	0.090103
C20	C	0.653585	0.106101	0.090111
C21	C	0.746884	0.107595	0.090116
C22	C	0.746909	0.107599	-0.090195
C23	C	0.653616	0.106107	-0.090200
C24	C	0.606957	0.105359	-0.000043
C25	C	1.142381	-0.166260	-0.000033
C26	C	1.140889	-0.245207	-0.000041
C27	C	1.058641	-0.275732	-0.000042
C28	C	0.977880	-0.227305	-0.000044
C29	C	0.979372	-0.148359	-0.000043
C30	C	0.971858	-0.545683	-0.000052
C31	C	0.970372	-0.624634	-0.000051
C32	C	1.133375	-0.642531	-0.000051
C33	C	1.134868	-0.563585	-0.000049
C34	C	1.054107	-0.515165	-0.000057
C35	C	1.055725	-0.429562	-0.000049
C36	C	1.057022	-0.361333	-0.000043
C37	C	1.219920	0.099177	-0.000048
C38	C	1.319211	0.100762	-0.000057
C39	C	1.049546	0.242921	-0.000052
C40	C	1.051128	0.326943	-0.000059
N41	N	1.056359	0.104541	0.235316
N42	N	1.056402	0.104557	-0.235398
C43	C	1.117297	0.053165	0.287359
C44	C	1.117303	0.053164	0.391462
C45	C	1.056374	0.104544	0.443521
C46	C	0.995429	0.155924	0.391471
C47	C	0.995419	0.155920	0.287369
C48	C	0.995453	0.155929	0.608451
C49	C	0.995463	0.155933	0.712559
C50	C	1.117337	0.053173	0.712543
C51	C	1.117328	0.053169	0.608442
C52	C	1.056384	0.104549	0.556399
H53	H	0.327906	0.100908	-0.163621
H54	H	0.910912	-0.252164	-0.000051
H55	H	0.327852	0.100897	0.163512
H56	H	0.903391	-0.649484	-0.000050
H57	H	0.913613	-0.108935	-0.000042
H58	H	1.206649	-0.284629	-0.000040
C59	C	0.602260	0.105281	0.189285
C60	C	0.548421	0.038585	0.214094
C61	C	0.497096	0.037769	0.313265
C62	C	0.499609	0.103649	0.387626
C63	C	0.553450	0.170349	0.362819
C64	C	0.604775	0.171165	0.263648
H65	H	0.546559	-0.010187	0.159046
H66	H	0.457239	-0.011607	0.331629
H67	H	0.461615	0.103045	0.461039
H68	H	0.555312	0.219122	0.417867
H69	H	0.644632	0.220542	0.245284
C70	C	1.232857	-0.132687	-0.000031
C71	C	1.299884	-0.150937	0.085844
C72	C	1.390362	-0.117366	0.085843
C73	C	1.413813	-0.065545	-0.000034
C74	C	1.346784	-0.047292	-0.085916
C75	C	1.256306	-0.080862	-0.085915
H76	H	1.282525	-0.189301	0.149422
H77	H	1.439981	-0.130879	0.149419
H78	H	1.480790	-0.040694	-0.000036
H79	H	1.364143	-0.008928	-0.149494
H80	H	1.206687	-0.067350	-0.149491
C81	C	0.510483	0.103820	-0.189373
C82	C	0.507957	0.037949	-0.263745
C83	C	0.559272	0.038772	-0.362922
C84	C	0.613114	0.105466	-0.387727
C85	C	0.615643	0.171343	-0.313353
C86	C	0.564327	0.170520	-0.214176
H87	H	0.468098	-0.011426	-0.245384
H88	H	0.557400	-0.009994	-0.417978
H89	H	0.651100	0.106076	-0.461143
H90	H	0.655501	0.220718	-0.331714
H91	H	0.566200	0.219286	-0.159120
C92	C	0.798205	0.108419	0.189270
C93	C	0.852033	0.175124	0.214024
C94	C	0.903365	0.175953	0.313172
C95	C	0.900868	0.110078	0.387566
C96	C	0.847038	0.043368	0.362814
C97	C	0.795707	0.042538	0.263666
H98	H	0.853883	0.223894	0.158951
H99	H	0.943213	0.225337	0.331495
H100	H	0.938867	0.110692	0.460962
H101	H	0.845189	-0.005402	0.417887
H102	H	0.755858	-0.006845	0.245343
C103	C	1.184349	-0.003347	0.551172
C104	C	1.183045	-0.089539	0.565496
C105	C	1.250064	-0.146056	0.508225
C106	C	1.318388	-0.116383	0.436629
C107	C	1.319695	-0.030187	0.422301
C108	C	1.252676	0.026331	0.479573
H109	H	1.132465	-0.111509	0.618499
H110	H	1.249096	-0.209864	0.518831
H111	H	1.368000	-0.158221	0.394233
H112	H	1.370275	-0.008217	0.369299
H113	H	1.253643	0.090139	0.468966
C114	C	0.798234	0.108417	-0.189367
C115	C	0.775126	0.173887	-0.263749
C116	C	0.826456	0.174709	-0.362917
C117	C	0.900895	0.110060	-0.387701
C118	C	0.924006	0.044585	-0.313317
C119	C	0.872675	0.043763	-0.214150
H120	H	0.720019	0.221748	-0.245404
H121	H	0.809347	0.223178	-0.417980
H122	H	0.938892	0.110669	-0.461111
H123	H	0.979113	-0.003276	-0.331663
H124	H	0.889784	-0.004706	-0.159087
H125	H	0.945814	0.197756	0.433863
H126	H	1.166916	0.011328	0.244979
H127	H	1.201843	-0.538737	-0.000044
C128	C	0.928434	0.212448	0.769821
C129	C	0.861393	0.268955	0.712573
C130	C	0.794361	0.325470	0.769833
C131	C	0.794370	0.325479	0.884340
C132	C	0.861414	0.268971	0.941595
C133	C	0.928446	0.212455	0.884335
H134	H	0.861383	0.268950	0.627802
H135	H	0.744731	0.367302	0.727449
H136	H	0.744750	0.367316	0.926727
H137	H	0.861423	0.268976	1.026365
H138	H	0.978076	0.170624	0.926719
C139	C	1.222216	-0.695795	-0.000055
C140	C	1.243596	-0.752542	0.085820
C141	C	1.332434	-0.805804	0.085819
C142	C	1.399892	-0.802319	-0.000057
C143	C	1.378514	-0.745570	-0.085938
C144	C	1.289676	-0.692308	-0.085937
H145	H	1.193658	-0.755123	0.149395
H146	H	1.348259	-0.847813	0.149394
H147	H	1.465655	-0.841747	-0.000057
H148	H	1.428452	-0.742989	-0.149514
H149	H	1.273851	-0.650299	-0.149513
H150	H	0.497111	0.103591	0.163513
H151	H	0.615648	0.105506	-0.163611
H152	H	0.906097	-0.506268	-0.000058
H153	H	1.166923	0.011329	0.433835
H154	H	1.166959	0.011337	0.754923
H155	H	0.945796	0.197755	0.244997
H156	H	0.945823	0.197766	0.566081
