data_functionalizedCrystal
_audit_creation_method	'MofGen! by Chris Wilmer'
_symmetry_space_group_name_H-M	'P1'
_symmetry_Int_Tables_number	1
_symmetry_cell_setting	triclinic
loop_
_symmetry_equiv_pos_as_xyz
  x,y,z
_cell_length_a	16.994731
_cell_length_b	12.827893
_cell_length_c	12.827885
_cell_angle_alpha	89.980728
_cell_angle_beta	89.958431
_cell_angle_gamma	90.052502
loop_
_atom_site_label
_atom_site_type_symbol
_atom_site_fract_x
_atom_site_fract_y
_atom_site_fract_z
Zn1	Zn	-0.313991	-1.598162	0.591367
Zn2	Zn	-0.445916	-1.598264	0.416845
Zn3	Zn	-0.314029	-1.423404	0.416641
Zn4	Zn	-0.445857	-1.423596	0.591545
O5	O	-0.379948	-1.510857	0.504099
O6	O	-0.331499	-1.744412	0.568227
O7	O	-0.428461	-1.575030	0.270582
O8	O	-0.203643	-1.446463	0.439658
O9	O	-0.428424	-1.744486	0.440007
O10	O	-0.203615	-1.574858	0.568029
O11	O	-0.331565	-1.446561	0.270432
O12	O	-0.331508	-1.277193	0.439831
O13	O	-0.428324	-1.446791	0.737757
O14	O	-0.428361	-1.277335	0.568332
O15	O	-0.331443	-1.575044	0.737627
O16	O	-0.556289	-1.575216	0.440179
O17	O	-0.556246	-1.446889	0.568530
C18	C	-0.379933	-1.239347	0.504079
C19	C	-0.379946	-1.123194	0.504096
C20	C	-0.674208	-1.510913	0.504176
C21	C	-0.584886	-1.511006	0.504314
Zn22	Zn	-0.813999	-1.597949	0.416473
Zn23	Zn	-0.946125	-1.598141	0.590982
Zn24	Zn	-0.945647	-1.423093	0.416545
Zn25	Zn	-0.814021	-1.423571	0.591462
O26	O	-0.879948	-1.510689	0.503866
O27	O	-0.831717	-1.744210	0.439391
O28	O	-1.056443	-1.574800	0.567672
O29	O	-0.927974	-1.446008	0.270300
O30	O	-0.928790	-1.744351	0.567602
O31	O	-0.831254	-1.574474	0.270247
O32	O	-1.056091	-1.446194	0.439514
O33	O	-0.927995	-1.276921	0.439980
O34	O	-0.703637	-1.446823	0.568420
O35	O	-0.831290	-1.277272	0.568490
O36	O	-0.703621	-1.574937	0.439856
O37	O	-0.928810	-1.575264	0.737282
O38	O	-0.831754	-1.447009	0.737634
C39	C	-0.174208	-1.510620	0.503798
C40	C	-0.084886	-1.510521	0.503669
C41	C	-0.379872	-1.510928	0.776669
C42	C	-0.379840	-1.510958	0.892823
C43	C	-0.379964	-1.783427	0.504120
C44	C	-0.379971	-1.899580	0.504129
C45	C	-0.427946	-1.071506	0.567584
C46	C	-0.427960	-0.951456	0.567603
C47	C	-0.379967	-1.510846	0.232589
C48	C	-0.379777	-1.511018	0.116436
C49	C	-0.331891	-1.574428	0.944543
C50	C	-0.331856	-1.574461	1.064593
C51	C	-0.879592	-1.239179	0.504296
C52	C	-0.879421	-1.123026	0.504504
C53	C	-0.880338	-1.511212	0.775375
C54	C	-0.880529	-1.511466	0.891528
C55	C	-0.880304	-1.783258	0.503434
C56	C	-0.880456	-1.899411	0.503251
C57	C	-0.879558	-1.510166	0.231296
C58	C	-0.879392	-1.509943	0.115143
C59	C	-0.831572	-1.071443	0.568280
C60	C	-0.831394	-0.951393	0.568497
C61	C	-0.928596	-1.575090	0.943104
C62	C	-0.928793	-1.575354	1.063154
H63	H	-0.469029	-1.116132	0.621930
H64	H	-0.290808	-1.628804	1.109071
H65	H	-0.469058	-0.907006	0.621955
H66	H	-0.969947	-1.629823	1.107508
H67	H	-0.338857	-1.078568	0.449759
H68	H	-0.338876	-0.944023	0.449767
H69	H	-0.420833	-1.456679	1.071965
H70	H	-0.969599	-1.629368	0.898383
H71	H	-0.290862	-1.628740	0.899945
H72	H	-0.839519	-1.457196	0.936249
H73	H	-0.420861	-1.456636	0.937420
H74	H	-0.839744	-1.457481	1.070794
H75	H	-0.790735	-1.116158	0.622716
H76	H	-0.790430	-0.907032	0.623102
H77	H	-0.920063	-0.943767	0.450310
H78	H	-0.920253	-1.078312	0.450062
