data_functionalizedCrystal
_audit_creation_method	'MofGen! by Chris Wilmer'
_symmetry_space_group_name_H-M	'P1'
_symmetry_Int_Tables_number	1
_symmetry_cell_setting	triclinic
loop_
_symmetry_equiv_pos_as_xyz
  x,y,z
_cell_length_a	25.639242
_cell_length_b	21.295417
_cell_length_c	21.295411
_cell_angle_alpha	90.021644
_cell_angle_beta	89.966692
_cell_angle_gamma	89.973967
loop_
_atom_site_label
_atom_site_type_symbol
_atom_site_fract_x
_atom_site_fract_y
_atom_site_fract_z
Zn1	Zn	0.799312	0.250756	-0.356058
Zn2	Zn	1.049312	0.500756	-0.106058
Zn3	Zn	1.299312	0.750756	0.143942
Zn4	Zn	1.549312	1.000756	0.393942
Zn5	Zn	0.799231	0.356008	-0.250784
Zn6	Zn	1.049231	0.606008	-0.000784
Zn7	Zn	1.299231	0.856008	0.249216
Zn8	Zn	1.549231	1.106008	0.499216
Zn9	Zn	0.711872	0.250748	-0.250787
Zn10	Zn	0.961872	0.500748	-0.000787
Zn11	Zn	1.211872	0.750748	0.249213
Zn12	Zn	1.461872	1.000748	0.499213
Zn13	Zn	0.711846	0.355983	-0.355999
Zn14	Zn	0.961846	0.605983	-0.105999
Zn15	Zn	1.211846	0.855983	0.144001
Zn16	Zn	1.461846	1.105983	0.394001
O17	O	0.755565	0.303374	-0.303407
O18	O	1.005565	0.553374	-0.053407
O19	O	1.255565	0.803374	0.196593
O20	O	1.505565	1.053374	0.446593
O21	O	0.872467	0.264731	-0.342117
O22	O	1.122467	0.514731	-0.092117
O23	O	1.372467	0.764731	0.157883
O24	O	1.622467	1.014731	0.407883
O25	O	0.787620	0.342052	-0.162695
O26	O	1.037620	0.592052	0.087305
O27	O	1.287620	0.842052	0.337305
O28	O	1.537620	1.092052	0.587305
O29	O	0.723515	0.162660	-0.264778
O30	O	0.973515	0.412660	-0.014778
O31	O	1.223515	0.662660	0.235222
O32	O	1.473515	0.912660	0.485222
O33	O	0.872407	0.342060	-0.264772
O34	O	1.122407	0.592060	-0.014772
O35	O	1.372407	0.842060	0.235228
O36	O	1.622407	1.092060	0.485228
O37	O	0.787758	0.162666	-0.342120
O38	O	1.037758	0.412666	-0.092120
O39	O	1.287758	0.662666	0.157880
O40	O	1.537758	0.912666	0.407880
O41	O	0.723437	0.264718	-0.162697
O42	O	0.973437	0.514718	0.087303
O43	O	1.223437	0.764718	0.337303
O44	O	1.473437	1.014718	0.587303
O45	O	0.638703	0.264694	-0.264721
O46	O	0.888703	0.514694	-0.014721
O47	O	1.138703	0.764694	0.235279
O48	O	1.388703	1.014694	0.485279
O49	O	0.723472	0.342017	-0.444097
O50	O	0.973472	0.592017	-0.194097
O51	O	1.223472	0.842017	0.055903
O52	O	1.473472	1.092017	0.305903
O53	O	0.638684	0.342010	-0.342020
O54	O	0.888684	0.592010	-0.092020
O55	O	1.138684	0.842010	0.157980
O56	O	1.388684	1.092010	0.407980
O57	O	0.787733	0.264707	-0.444140
O58	O	1.037733	0.514707	-0.194140
O59	O	1.287733	0.764707	0.055860
O60	O	1.537733	1.014707	0.305860
O61	O	0.787595	0.444094	-0.264715
O62	O	1.037595	0.694094	-0.014715
O63	O	1.287595	0.944094	0.235285
O64	O	1.537595	1.194094	0.485285
O65	O	0.723393	0.444076	-0.342016
O66	O	0.973393	0.694076	-0.092016
O67	O	1.223393	0.944076	0.157984
O68	O	1.473393	1.194076	0.407984
C69	C	0.619723	0.303349	-0.303364
C70	C	0.869723	0.553349	-0.053364
C71	C	1.119723	0.803349	0.196636
C72	C	1.369723	1.053349	0.446636
C73	C	0.561609	0.303354	-0.303361
C74	C	0.811609	0.553354	-0.053361
C75	C	1.061609	0.803354	0.196639
C76	C	1.311609	1.053354	0.446639
C77	C	0.755497	0.466925	-0.303372
C78	C	1.005497	0.716925	-0.053372
C79	C	1.255497	0.966925	0.196628
C80	C	1.505497	1.216925	0.446628
C81	C	0.755515	0.536894	-0.303378
C82	C	1.005515	0.786894	-0.053378
C83	C	1.255515	1.036894	0.196622
C84	C	1.505515	1.286894	0.446622
C85	C	0.755609	0.303361	-0.467597
C86	C	1.005609	0.553361	-0.217597
C87	C	1.255609	0.803361	0.032403
C88	C	1.505609	1.053361	0.282403
C89	C	0.755627	0.303355	-0.537566
C90	C	1.005627	0.553355	-0.287566
C91	C	1.255627	0.803355	-0.037566
C92	C	1.505627	1.053355	0.212434
C93	C	0.201245	0.343699	-0.343619
C94	C	0.451245	0.593699	-0.093619
C95	C	0.701245	0.843699	0.156381
C96	C	0.951245	1.093699	0.406381
C97	C	0.146641	0.343703	-0.343628
C98	C	0.396641	0.593703	-0.093628
C99	C	0.646641	0.843703	0.156372
C100	C	0.896641	1.093703	0.406372
O101	O	0.118403	0.377976	-0.377821
O102	O	0.368403	0.627976	-0.127821
O103	O	0.618403	0.877976	0.122179
O104	O	0.868403	1.127976	0.372179
N105	N	0.119326	0.303391	-0.303448
N106	N	0.369326	0.553391	-0.053448
N107	N	0.619326	0.803391	0.196552
N108	N	0.869326	1.053391	0.446552
C109	C	0.146619	0.263068	-0.263260
C110	C	0.396619	0.513068	-0.013260
C111	C	0.646619	0.763068	0.236740
C112	C	0.896619	1.013068	0.486740
O113	O	0.118372	0.228780	-0.229085
O114	O	0.368372	0.478780	0.020915
O115	O	0.618372	0.728780	0.270915
O116	O	0.868372	0.978780	0.520915
C117	C	0.201222	0.263062	-0.263254
C118	C	0.451222	0.513062	-0.013254
C119	C	0.701222	0.763062	0.236746
C120	C	0.951222	1.013062	0.486746
C121	C	0.228534	0.303381	-0.303432
C122	C	0.478534	0.553381	-0.053432
C123	C	0.728534	0.803381	0.196568
C124	C	0.978534	1.053381	0.446568
C125	C	0.228556	0.384015	-0.383794
C126	C	0.478556	0.634015	-0.133794
C127	C	0.728556	0.884015	0.116206
C128	C	0.978556	1.134015	0.366206
C129	C	0.283157	0.384011	-0.383783
C130	C	0.533157	0.634011	-0.133783
C131	C	0.783157	0.884011	0.116217
C132	C	1.033157	1.134011	0.366217
C133	C	0.310446	0.343693	-0.343597
C134	C	0.560446	0.593693	-0.093597
C135	C	0.810446	0.843693	0.156403
C136	C	1.060446	1.093693	0.406403
C137	C	0.283134	0.303378	-0.303421
C138	C	0.533134	0.553378	-0.053421
C139	C	0.783134	0.803378	0.196579
C140	C	1.033134	1.053378	0.446579
C141	C	0.228514	0.222736	-0.223069
C142	C	0.478514	0.472736	0.026931
C143	C	0.728514	0.722736	0.276931
C144	C	0.978514	0.972736	0.526931
C145	C	0.283121	0.222732	-0.223067
C146	C	0.533121	0.472732	0.026933
C147	C	0.783121	0.722732	0.276933
C148	C	1.033121	0.972732	0.526933
C149	C	0.310433	0.263052	-0.263245
C150	C	0.560433	0.513052	-0.013245
C151	C	0.810433	0.763052	0.236755
C152	C	1.060433	1.013052	0.486755
C153	C	0.365024	0.263056	-0.263224
C154	C	0.615024	0.513056	-0.013224
C155	C	0.865024	0.763056	0.236776
C156	C	1.115024	1.013056	0.486776
N157	N	0.392338	0.303368	-0.303404
N158	N	0.642338	0.553368	-0.053404
N159	N	0.892338	0.803368	0.196596
N160	N	1.142338	1.053368	0.446596
C161	C	0.365049	0.343686	-0.343590
C162	C	0.615049	0.593686	-0.093590
C163	C	0.865049	0.843686	0.156410
C164	C	1.115049	1.093686	0.406410
C165	C	0.031949	0.263084	-0.263277
C166	C	0.281949	0.513084	-0.013277
C167	C	0.531949	0.763084	0.236723
C168	C	0.781949	1.013084	0.486723
C169	C	-0.022654	0.263093	-0.263280
C170	C	0.227346	0.513093	-0.013280
C171	C	0.477346	0.763093	0.236720
C172	C	0.727346	1.013093	0.486720
C173	C	-0.022629	0.343728	-0.343649
C174	C	0.227371	0.593728	-0.093649
C175	C	0.477371	0.843728	0.156351
C176	C	0.727371	1.093728	0.406351
C177	C	0.031975	0.343721	-0.343643
C178	C	0.281975	0.593721	-0.093643
C179	C	0.531975	0.843721	0.156357
C180	C	0.781975	1.093721	0.406357
C181	C	0.059263	0.303396	-0.303457
C182	C	0.309263	0.553396	-0.053457
C183	C	0.559263	0.803396	0.196543
C184	C	0.809263	1.053396	0.446543
C185	C	0.479714	0.343677	-0.343564
C186	C	0.729714	0.593677	-0.093564
C187	C	0.979714	0.843677	0.156436
C188	C	1.229714	1.093677	0.406436
C189	C	0.534320	0.343672	-0.343548
C190	C	0.784320	0.593672	-0.093548
C191	C	1.034320	0.843672	0.156452
C192	C	1.284320	1.093672	0.406452
C193	C	0.534290	0.263036	-0.263181
C194	C	0.784290	0.513036	-0.013181
C195	C	1.034290	0.763036	0.236819
C196	C	1.284290	1.013036	0.486819
C197	C	0.479689	0.263043	-0.263195
C198	C	0.729689	0.513043	-0.013195
C199	C	0.979689	0.763043	0.236805
C200	C	1.229689	1.013043	0.486805
C201	C	0.452403	0.303365	-0.303391
C202	C	0.702403	0.553365	-0.053391
C203	C	0.952403	0.803365	0.196609
C204	C	1.202403	1.053365	0.446609
O205	O	0.393296	0.228799	-0.229051
O206	O	0.643296	0.478799	0.020949
O207	O	0.893296	0.728799	0.270949
O208	O	1.143296	0.978799	0.520949
O209	O	0.393303	0.377963	-0.377766
O210	O	0.643303	0.627963	-0.127766
O211	O	0.893303	0.877963	0.122234
O212	O	1.143303	1.127963	0.372234
C213	C	0.891938	0.303399	-0.303450
C214	C	1.141938	0.553399	-0.053450
C215	C	1.391938	0.803399	0.196550
C216	C	1.641938	1.053399	0.446550
C217	C	0.950052	0.303410	-0.303469
C218	C	1.200052	0.553410	-0.053469
C219	C	1.450052	0.803410	0.196531
C220	C	1.700052	1.053410	0.446531
C221	C	0.755648	0.139184	-0.303456
C222	C	1.005648	0.389184	-0.053456
C223	C	1.255648	0.639184	0.196544
C224	C	1.505648	0.889184	0.446544
C225	C	0.755684	0.069215	-0.303477
C226	C	1.005684	0.319215	-0.053477
C227	C	1.255684	0.569215	0.196523
C228	C	1.505684	0.819215	0.446523
C229	C	0.788975	0.569749	-0.263169
C230	C	1.038975	0.819749	-0.013169
C231	C	1.288975	1.069749	0.236831
C232	C	1.538975	1.319749	0.486831
C233	C	0.788999	0.635491	-0.263183
C234	C	1.038999	0.885491	-0.013183
C235	C	1.288999	1.135491	0.236817
C236	C	1.538999	1.385491	0.486817
C237	C	0.755555	0.668376	-0.303400
C238	C	1.005555	0.918376	-0.053400
C239	C	1.255555	1.168376	0.196600
C240	C	1.505555	1.418376	0.446600
C241	C	0.722093	0.635513	-0.343618
C242	C	0.972093	0.885513	-0.093618
C243	C	1.222093	1.135513	0.156382
C244	C	1.472093	1.385513	0.406382
C245	C	0.722073	0.569772	-0.343607
C246	C	0.972073	0.819772	-0.093607
C247	C	1.222073	1.069772	0.156393
C248	C	1.472073	1.319772	0.406393
N249	N	0.709817	0.771638	-0.308185
N250	N	0.959817	1.021638	-0.058185
N251	N	1.209817	1.271638	0.191815
N252	N	1.459817	1.521638	0.441815
N253	N	0.709838	0.834090	-0.308191
N254	N	0.959838	1.084090	-0.058191
N255	N	1.209838	1.334090	0.191809
N256	N	1.459838	1.584090	0.441809
C257	C	0.755614	0.866451	-0.303436
C258	C	1.005614	1.116451	-0.053436
C259	C	1.255614	1.366451	0.196564
C260	C	1.505614	1.616451	0.446564
N261	N	0.801369	0.834001	-0.298662
N262	N	1.051369	1.084001	-0.048662
N263	N	1.301369	1.334001	0.201338
N264	N	1.551369	1.584001	0.451338
N265	N	0.801348	0.771544	-0.298652
N266	N	1.051348	1.021544	-0.048652
N267	N	1.301348	1.271544	0.201348
N268	N	1.551348	1.521544	0.451348
C269	C	0.755573	0.739661	-0.303417
C270	C	1.005573	0.989661	-0.053417
C271	C	1.255573	1.239661	0.196583
C272	C	1.505573	1.489661	0.446583
C273	C	0.789102	0.970591	-0.263240
C274	C	1.039102	1.220591	-0.013240
C275	C	1.289102	1.470591	0.236760
C276	C	1.539102	1.720591	0.486760
C277	C	0.789128	1.036335	-0.263258
C278	C	1.039128	1.286335	-0.013258
C279	C	1.289128	1.536335	0.236742
C280	C	1.539128	1.786335	0.486742
C281	C	0.722217	1.036356	-0.343690
C282	C	0.972217	1.286356	-0.093690
C283	C	1.222217	1.536356	0.156310
C284	C	1.472217	1.786356	0.406310
C285	C	0.722196	0.970613	-0.343674
C286	C	0.972196	1.220613	-0.093674
C287	C	1.222196	1.470613	0.156326
C288	C	1.472196	1.720613	0.406326
C289	C	0.755638	0.937735	-0.303446
C290	C	1.005638	1.187735	-0.053446
C291	C	1.255638	1.437735	0.196554
C292	C	1.505638	1.687735	0.446554
C293	C	0.789086	0.263098	-0.570456
C294	C	1.039086	0.513098	-0.320456
C295	C	1.289086	0.763098	-0.070456
C296	C	1.539086	1.013098	0.179544
C297	C	0.789086	0.263071	-0.636198
C298	C	1.039086	0.513071	-0.386198
C299	C	1.289086	0.763071	-0.136198
C300	C	1.539086	1.013071	0.113802
C301	C	0.755631	0.303312	-0.669048
C302	C	1.005631	0.553312	-0.419048
C303	C	1.255631	0.803312	-0.169048
C304	C	1.505631	1.053312	0.080952
C305	C	0.722166	0.343571	-0.636150
C306	C	0.972166	0.593571	-0.386150
C307	C	1.222166	0.843571	-0.136150
C308	C	1.472166	1.093571	0.113850
C309	C	0.722163	0.343593	-0.570409
C310	C	0.972163	0.593593	-0.320409
C311	C	1.222163	0.843593	-0.070409
C312	C	1.472163	1.093593	0.179591
N313	N	0.751597	0.358379	-0.772263
N314	N	1.001597	0.608379	-0.522263
N315	N	1.251597	0.858379	-0.272263
N316	N	1.501597	1.108379	-0.022263
N317	N	0.751602	0.358357	-0.834714
N318	N	1.001602	0.608357	-0.584714
N319	N	1.251602	0.858357	-0.334714
N320	N	1.501602	1.108357	-0.084714
C321	C	0.755635	0.303248	-0.867123
C322	C	1.005635	0.553248	-0.617123
C323	C	1.255635	0.803248	-0.367123
C324	C	1.505635	1.053248	-0.117123
N325	N	0.759672	0.248161	-0.834721
N326	N	1.009672	0.498161	-0.584721
N327	N	1.259672	0.748161	-0.334721
N328	N	1.509672	0.998161	-0.084721
N329	N	0.759670	0.248184	-0.772264
N330	N	1.009670	0.498184	-0.522264
N331	N	1.259670	0.748184	-0.272264
N332	N	1.509670	0.998184	-0.022264
C333	C	0.755630	0.303292	-0.740334
C334	C	1.005630	0.553292	-0.490334
C335	C	1.255630	0.803292	-0.240334
C336	C	1.505630	1.053292	0.009666
C337	C	0.789095	0.262958	-0.971299
C338	C	1.039095	0.512958	-0.721299
C339	C	1.289095	0.762958	-0.471299
C340	C	1.539095	1.012958	-0.221299
C341	C	0.789090	0.262929	-1.037043
C342	C	1.039090	0.512929	-0.787043
C343	C	1.289090	0.762929	-0.537043
C344	C	1.539090	1.012929	-0.287043
C345	C	0.722173	0.343436	-1.036993
C346	C	0.972173	0.593436	-0.786993
C347	C	1.222173	0.843436	-0.536993
C348	C	1.472173	1.093436	-0.286993
C349	C	0.722175	0.343459	-0.971250
C350	C	0.972175	0.593459	-0.721250
C351	C	1.222175	0.843459	-0.471250
C352	C	1.472175	1.093459	-0.221250
C353	C	0.755638	0.303220	-0.938407
C354	C	1.005638	0.553220	-0.688407
C355	C	1.255638	0.803220	-0.438407
C356	C	1.505638	1.053220	-0.188407
C357	C	0.755552	0.303342	-0.139856
C358	C	1.005552	0.553342	0.110144
C359	C	1.255552	0.803342	0.360144
C360	C	1.505552	1.053342	0.610144
C361	C	0.755635	0.303170	-0.069888
C362	C	1.005635	0.553170	0.180112
C363	C	1.255635	0.803170	0.430112
C364	C	1.505635	1.053170	0.680112
H365	H	0.556554	0.376507	-0.376266
H366	H	0.806554	0.626507	-0.126266
H367	H	1.056554	0.876507	0.123734
H368	H	1.306554	1.126507	0.373734
Br369	Br	0.676763	0.398042	-1.081568
Br370	Br	0.926763	0.648042	-0.831568
Br371	Br	1.176763	0.898042	-0.581568
Br372	Br	1.426763	1.148042	-0.331568
H373	H	0.816336	0.230143	-1.063821
H374	H	1.066336	0.480143	-0.813821
H375	H	1.316336	0.730143	-0.563821
H376	H	1.566336	0.980143	-0.313821
Br377	Br	0.676708	0.680140	-0.398203
Br378	Br	0.926708	0.930140	-0.148203
Br379	Br	1.176708	1.180140	0.101797
Br380	Br	1.426708	1.430140	0.351797
H381	H	0.694988	1.063130	-0.376438
H382	H	0.944988	1.313130	-0.126438
H383	H	1.194988	1.563130	0.123562
H384	H	1.444988	1.813130	0.373562
H385	H	0.206343	0.416847	-0.416522
H386	H	0.456343	0.666847	-0.166522
H387	H	0.706343	0.916847	0.083478
H388	H	0.956343	1.166847	0.333478
Br389	Br	0.676783	0.926020	-0.398246
Br390	Br	0.926783	1.176020	-0.148246
Br391	Br	1.176783	1.426020	0.101754
Br392	Br	1.426783	1.676020	0.351754
H393	H	0.816331	0.230285	-0.662983
H394	H	1.066331	0.480285	-0.412983
H395	H	1.316331	0.730285	-0.162983
H396	H	1.566331	0.980285	0.087017
H397	H	0.694826	0.543020	-0.376351
H398	H	0.944826	0.793020	-0.126351
H399	H	1.194826	1.043020	0.123649
H400	H	1.444826	1.293020	0.373649
H401	H	0.816334	0.943821	-0.230485
H402	H	1.066334	1.193821	0.019515
H403	H	1.316334	1.443821	0.269515
H404	H	1.566334	1.693821	0.519515
H405	H	0.457504	0.376510	-0.376297
H406	H	0.707504	0.626510	-0.126297
H407	H	0.957504	0.876510	0.123703
H408	H	1.207504	1.126510	0.373703
Br409	Br	0.069034	0.398442	-0.398172
Br410	Br	0.319034	0.648442	-0.148172
Br411	Br	0.569034	0.898442	0.101828
Br412	Br	0.819034	1.148442	0.351828
Br413	Br	0.571335	0.208321	-0.208644
Br414	Br	0.821335	0.458321	0.041356
Br415	Br	1.071335	0.708321	0.291356
Br416	Br	1.321335	0.958321	0.541356
Br417	Br	0.191463	0.168010	-0.168541
Br418	Br	0.441463	0.418010	0.081459
Br419	Br	0.691463	0.668010	0.331459
Br420	Br	0.941463	0.918010	0.581459
H421	H	0.694925	0.376334	-0.662901
H422	H	0.944925	0.626334	-0.412901
H423	H	1.194925	0.876334	-0.162901
H424	H	1.444925	1.126334	0.087099
Br425	Br	0.320214	0.438731	-0.438317
Br426	Br	0.570214	0.688731	-0.188317
Br427	Br	0.820214	0.938731	0.061683
Br428	Br	1.070214	1.188731	0.311683
H429	H	0.816378	1.063085	-0.230516
H430	H	1.066378	1.313085	0.019484
H431	H	1.316378	1.563085	0.269484
H432	H	1.566378	1.813085	0.519484
Br433	Br	0.834499	0.208487	-0.525886
Br434	Br	1.084499	0.458487	-0.275886
Br435	Br	1.334499	0.708487	-0.025886
Br436	Br	1.584499	0.958487	0.224114
H437	H	0.694915	0.376374	-0.543630
H438	H	0.944915	0.626374	-0.293630
H439	H	1.194915	0.876374	-0.043630
H440	H	1.444915	1.126374	0.206370
H441	H	0.816340	0.230190	-0.944557
H442	H	1.066340	0.480190	-0.694557
H443	H	1.316340	0.730190	-0.444557
H444	H	1.566340	0.980190	-0.194557
H445	H	-0.044886	0.230268	-0.230556
H446	H	0.205114	0.480268	0.019444
H447	H	0.455114	0.730268	0.269444
H448	H	0.705114	0.980268	0.519444
Br449	Br	-0.059674	0.398441	-0.398194
Br450	Br	0.190326	0.648441	-0.148194
Br451	Br	0.440326	0.898441	0.101806
Br452	Br	0.690326	1.148441	0.351806
Br453	Br	0.068977	0.208356	-0.208730
Br454	Br	0.318977	0.458356	0.041270
Br455	Br	0.568977	0.708356	0.291270
Br456	Br	0.818977	0.958356	0.541270
H457	H	0.305337	0.189890	-0.190346
H458	H	0.555337	0.439890	0.059654
H459	H	0.805337	0.689890	0.309654
H460	H	1.055337	0.939890	0.559654
H461	H	0.457451	0.230213	-0.230477
H462	H	0.707451	0.480213	0.019523
H463	H	0.957451	0.730213	0.269523
H464	H	1.207451	0.980213	0.519523
Br465	Br	0.834367	0.525131	-0.208582
Br466	Br	1.084367	0.775131	0.041418
Br467	Br	1.334367	1.025131	0.291418
Br468	Br	1.584367	1.275131	0.541418
H469	H	0.816248	0.662247	-0.230440
H470	H	1.066248	0.912247	0.019560
H471	H	1.316248	1.162247	0.269560
H472	H	1.566248	1.412247	0.519560
Br473	Br	0.676764	0.398097	-0.926610
Br474	Br	0.926764	0.648097	-0.676610
Br475	Br	1.176764	0.898097	-0.426610
Br476	Br	1.426764	1.148097	-0.176610
