data_functionalizedCrystal
_audit_creation_method	'MofGen! by Chris Wilmer'
_symmetry_space_group_name_H-M	'P1'
_symmetry_Int_Tables_number	1
_symmetry_cell_setting	triclinic
loop_
_symmetry_equiv_pos_as_xyz
  x,y,z
_cell_length_a	25.639233
_cell_length_b	13.032831
_cell_length_c	13.032721
_cell_angle_alpha	90.902885
_cell_angle_beta	82.834855
_cell_angle_gamma	97.183139
loop_
_atom_site_label
_atom_site_type_symbol
_atom_site_fract_x
_atom_site_fract_y
_atom_site_fract_z
Zn1	Zn	-0.430770	-1.520138	0.609577
Zn2	Zn	-0.352870	-1.498199	0.781519
Zn3	Zn	-0.331051	-1.348180	0.587698
Zn4	Zn	-0.427978	-1.326286	0.759622
O5	O	-0.385667	-1.423201	0.684604
O6	O	-0.430736	-1.661138	0.650705
O7	O	-0.276810	-1.478279	0.755815
O8	O	-0.336316	-1.389335	0.446691
O9	O	-0.373503	-1.645020	0.777030
O10	O	-0.409579	-1.515671	0.462765
O11	O	-0.260779	-1.368061	0.613416
O12	O	-0.333609	-1.201365	0.592184
O13	O	-0.501515	-1.352020	0.739711
O14	O	-0.404821	-1.185280	0.718496
O15	O	-0.503566	-1.494442	0.629473
O16	O	-0.370796	-1.457050	0.922523
O17	O	-0.425978	-1.330747	0.906436
C18	C	-0.366545	-1.156008	0.650591
C19	C	-0.358378	-1.041699	0.636065
C20	C	-0.522042	-1.423236	0.684590
C21	C	-0.580156	-1.423251	0.684584
C22	C	-0.400465	-1.389170	0.951797
C23	C	-0.406820	-1.374706	1.066116
C24	C	-0.941588	-1.497518	0.626998
C25	C	-0.996192	-1.497535	0.626972
O26	O	-1.025338	-1.560581	0.578121
N27	N	-1.022434	-1.423395	0.684357
C28	C	-0.994068	-1.349228	0.741765
O29	O	-1.021403	-1.286168	0.790573
C30	C	-0.939465	-1.349208	0.741786
C31	C	-0.913227	-1.423359	0.684405
C32	C	-0.915350	-1.571662	0.569621
C33	C	-0.860750	-1.571647	0.569650
C34	C	-0.832389	-1.497488	0.627056
C35	C	-0.858627	-1.423344	0.684433
C36	C	-0.911100	-1.275037	0.799187
C37	C	-0.856493	-1.275023	0.799202
C38	C	-0.830255	-1.349174	0.741821
C39	C	-0.775666	-1.349169	0.741868
N40	N	-0.749424	-1.423308	0.684482
C41	C	-0.777785	-1.497468	0.627076
C42	C	-1.108739	-1.349275	0.741717
C43	C	-1.163342	-1.349298	0.741703
C44	C	-1.165461	-1.497604	0.626908
C45	C	-1.110858	-1.497584	0.626928
C46	C	-1.082497	-1.423414	0.684331
C47	C	-0.663122	-1.497430	0.627141
C48	C	-0.608518	-1.497411	0.627178
C49	C	-0.606402	-1.349102	0.741969
C50	C	-0.661002	-1.349124	0.741937
C51	C	-0.689361	-1.423293	0.684515
O52	O	-0.746485	-1.286152	0.790690
O53	O	-0.750443	-1.560509	0.578265
C54	C	-0.249824	-1.423234	0.684551
C55	C	-0.191707	-1.423455	0.684292
C56	C	-0.404865	-1.691437	0.718750
C57	C	-0.413045	-1.805743	0.733302
C58	C	-0.389930	-0.982792	0.692185
C59	C	-0.381490	-0.864647	0.677173
C60	C	-0.370825	-1.457392	0.416371
C61	C	-0.364500	-1.471963	0.302066
C62	C	-0.382378	-1.430804	1.125014
C63	C	-0.388946	-1.415856	1.243169
H64	H	-0.587158	-1.557797	0.580451
H65	H	-0.325120	-1.004665	0.576900
C66	C	-0.329659	-1.551804	1.252028
N67	N	-0.303416	-1.611939	1.214339
H68	H	-0.423192	-1.019827	0.751343
H69	H	-0.432610	-1.315615	1.103164
H70	H	-0.686205	-1.557822	0.580379
H71	H	-0.839392	-1.632027	0.522922
H72	H	-0.414737	-1.356761	1.280212
H73	H	-0.938436	-1.632053	0.522868
C74	C	-0.336553	-0.814626	0.597242
N75	N	-0.302706	-0.776948	0.537040
H76	H	-0.833402	-1.214614	0.845936
C77	C	-0.939948	-1.193457	0.862303
N78	N	-0.961675	-1.132002	0.909842
H79	H	-0.446311	-0.842772	0.792461
H80	H	-0.356592	-1.489904	1.087970
C81	C	-1.196669	-1.579176	0.563752
N82	N	-1.220175	-1.640611	0.516184
C83	C	-1.192198	-1.267733	0.804836
N84	N	-1.213930	-1.206291	0.852383
C85	C	-1.082001	-1.579148	0.563796
N86	N	-1.060267	-1.640583	0.516239
C87	C	-1.077547	-1.267685	0.804880
N88	N	-1.054056	-1.206231	0.852454
H89	H	-0.682368	-1.288753	0.788672
H90	H	-0.583301	-1.288726	0.788711
