data_functionalizedCrystal
_audit_creation_method	'MofGen! by Chris Wilmer'
_symmetry_space_group_name_H-M	'P1'
_symmetry_Int_Tables_number	1
_symmetry_cell_setting	triclinic
loop_
_symmetry_equiv_pos_as_xyz
  x,y,z
_cell_length_a	18.101398
_cell_length_b	16.120484
_cell_length_c	16.120379
_cell_angle_alpha	90.213218
_cell_angle_beta	92.857794
_cell_angle_gamma	87.078898
loop_
_atom_site_label
_atom_site_type_symbol
_atom_site_fract_x
_atom_site_fract_y
_atom_site_fract_z
Zn1	Zn	1.096519	0.307004	-0.487081
Zn2	Zn	1.429852	0.640338	-0.153748
Zn3	Zn	1.763186	0.973671	0.179586
Zn4	Zn	1.095751	0.453205	-0.355068
Zn5	Zn	1.429084	0.786539	-0.021734
Zn6	Zn	1.762418	1.119872	0.311599
Zn7	Zn	0.978580	0.314161	-0.348026
Zn8	Zn	1.311913	0.647494	-0.014693
Zn9	Zn	1.645247	0.980827	0.318640
Zn10	Zn	0.966067	0.446008	-0.494064
Zn11	Zn	1.299401	0.779341	-0.160730
Zn12	Zn	1.632734	1.112674	0.172603
O13	O	1.034229	0.380095	-0.421060
O14	O	1.367563	0.713428	-0.087726
O15	O	1.700896	1.046761	0.245607
O16	O	1.200048	0.326416	-0.469594
O17	O	1.533381	0.659749	-0.136260
O18	O	1.866715	0.993082	0.197073
O19	O	1.085123	0.440768	-0.237768
O20	O	1.418456	0.774101	0.095565
O21	O	1.751790	1.107435	0.428898
O22	O	0.999783	0.196847	-0.360603
O23	O	1.333116	0.530181	-0.027270
O24	O	1.666450	0.863514	0.306064
O25	O	1.199484	0.433829	-0.372604
O26	O	1.532817	0.767162	-0.039271
O27	O	1.866150	1.100495	0.294063
O28	O	1.086432	0.191590	-0.462766
O29	O	1.419766	0.524923	-0.129433
O30	O	1.753099	0.858256	0.203901
O31	O	0.999038	0.338612	-0.232595
O32	O	1.332371	0.671946	0.100738
O33	O	1.665705	1.005279	0.434072
O34	O	0.873289	0.331633	-0.367374
O35	O	1.206622	0.664967	-0.034041
O36	O	1.539956	0.998300	0.299293
O37	O	0.978457	0.421562	-0.609503
O38	O	1.311790	0.754895	-0.276169
O39	O	1.645123	1.088228	0.057164
O40	O	0.864096	0.428501	-0.474667
O41	O	1.197429	0.761834	-0.141334
O42	O	1.530763	1.095167	0.192000
O43	O	1.074299	0.319436	-0.604373
O44	O	1.407633	0.652770	-0.271039
O45	O	1.740966	0.986103	0.062294
O46	O	1.072990	0.568615	-0.379375
O47	O	1.406323	0.901948	-0.046042
O48	O	1.739657	1.235281	0.287292
O49	O	0.977712	0.563327	-0.481495
O50	O	1.311045	0.896660	-0.148161
O51	O	1.644379	1.229993	0.185172
C52	C	0.841822	0.380063	-0.421015
C53	C	1.175155	0.713396	-0.087681
C54	C	1.508489	1.046730	0.245652
C55	C	0.759508	0.380069	-0.421016
C56	C	1.092841	0.713402	-0.087683
C57	C	1.426174	1.046735	0.245651
C58	C	1.023929	0.596141	-0.431975
C59	C	1.357262	0.929475	-0.098641
C60	C	1.690596	1.262808	0.234692
C61	C	1.019589	0.688566	-0.436672
C62	C	1.352922	1.021899	-0.103339
C63	C	1.686256	1.355233	0.229995
C64	C	1.025068	0.368898	-0.637954
C65	C	1.358401	0.702231	-0.304620
C66	C	1.691735	1.035564	0.028713
C67	C	1.021164	0.364126	-0.730381
C68	C	1.354497	0.697460	-0.397047
C69	C	1.687831	1.030793	-0.063714
C70	C	0.460411	0.380117	-0.421089
C71	C	0.793745	0.713450	-0.087755
C72	C	1.127078	1.046784	0.245578
C73	C	0.497498	0.318833	-0.353880
C74	C	0.830831	0.652167	-0.020546
C75	C	1.164164	0.985500	0.312787
C76	C	0.583119	0.319021	-0.353616
C77	C	0.916453	0.652354	-0.020282
C78	C	1.249786	0.985687	0.313051
C79	C	0.608797	0.380092	-0.421052
C80	C	0.942130	0.713426	-0.087719
C81	C	1.275463	1.046759	0.245614
C82	C	0.574558	0.468916	-0.401546
C83	C	0.907892	0.802249	-0.068212
C84	C	1.241225	1.135583	0.265121
C85	C	0.488949	0.468580	-0.401083
C86	C	0.822282	0.801913	-0.067749
C87	C	1.155616	1.135247	0.265584
C88	C	0.489341	0.353330	-0.507993
C89	C	0.822674	0.686664	-0.174660
C90	C	1.156007	1.019997	0.158673
C91	C	0.575104	0.351405	-0.507414
C92	C	0.908437	0.684738	-0.174081
C93	C	1.241771	1.018071	0.159253
C94	C	0.692657	0.380084	-0.421034
C95	C	1.025991	0.713417	-0.087700
C96	C	1.359324	1.046750	0.245633
C97	C	0.376550	0.380132	-0.421105
C98	C	0.709884	0.713465	-0.087772
C99	C	1.043217	1.046798	0.245561
C100	C	1.227388	0.380127	-0.421105
C101	C	1.560721	0.713460	-0.087772
C102	C	1.894054	1.046793	0.245561
C103	C	1.309700	0.380141	-0.421125
C104	C	1.643034	0.713474	-0.087792
C105	C	1.976367	1.046807	0.245542
C106	C	1.044589	0.163203	-0.410120
C107	C	1.377922	0.496536	-0.076787
C108	C	1.711256	0.829870	0.256546
C109	C	1.049004	0.070777	-0.405458
C110	C	1.382337	0.404110	-0.072125
C111	C	1.715670	0.737444	0.261208
C112	C	1.011669	0.857786	-0.445265
C113	C	1.345003	1.191119	-0.111932
C114	C	1.678336	1.524452	0.221401
C115	C	1.056921	0.901562	-0.396868
C116	C	1.390255	1.234896	-0.063534
C117	C	1.723588	1.568229	0.269799
C118	C	1.052515	0.995722	-0.401649
C119	C	1.385848	1.329055	-0.068316
C120	C	1.719181	1.662389	0.265018
C121	C	1.016075	0.763617	-0.440485
C122	C	1.349408	1.096951	-0.107152
C123	C	1.682742	1.430284	0.226182
C124	C	1.043400	0.391188	-0.205007
C125	C	1.376734	0.724521	0.128327
C126	C	1.710067	1.057854	0.461660
C127	C	1.047459	0.395725	-0.112568
C128	C	1.380792	0.729058	0.220765
C129	C	1.714126	1.062392	0.554099
C130	C	1.054879	0.404009	0.056679
C131	C	1.388213	0.737342	0.390012
C132	C	1.721546	1.070676	0.723345
C133	C	1.013746	0.355845	0.100378
C134	C	1.347079	0.689178	0.433711
C135	C	1.680412	1.022512	0.767044
C136	C	1.017874	0.360454	0.194552
C137	C	1.351208	0.693788	0.527886
C138	C	1.684541	1.027121	0.861219
C139	C	1.050752	0.399401	-0.037505
C140	C	1.384085	0.732734	0.295829
C141	C	1.717418	1.066067	0.629162
H142	H	0.606590	0.253295	-0.365334
H143	H	0.939923	0.586628	-0.032001
H144	H	1.273257	0.919962	0.301333
Br145	Br	0.603791	0.419781	-0.594755
Br146	Br	0.937125	0.753114	-0.261422
Br147	Br	1.270458	1.086448	0.071911
H148	H	1.098972	0.868324	-0.351842
H149	H	1.432305	1.201658	-0.018509
H150	H	1.765639	1.534991	0.314825
H151	H	1.093192	0.448702	0.089992
H152	H	1.426525	0.782035	0.423325
H153	H	1.759859	1.115369	0.756659
H154	H	0.479374	0.252918	-0.365423
H155	H	0.812707	0.586251	-0.032089
H156	H	1.146041	0.919585	0.301244
H157	H	0.463988	0.516029	-0.448141
H158	H	0.797321	0.849362	-0.114808
H159	H	1.130654	1.182696	0.218526
H160	H	0.478014	0.336717	-0.289765
H161	H	0.811347	0.670050	0.043568
H162	H	1.144681	1.003383	0.376901
H163	H	0.969621	0.891021	-0.490286
H164	H	1.302954	1.224355	-0.156953
H165	H	1.636288	1.557688	0.176380
Br166	Br	0.620674	0.349130	-0.246133
Br167	Br	0.954007	0.682464	0.087201
Br168	Br	1.287341	1.015797	0.420534
Br169	Br	0.458657	0.505559	-0.295413
Br170	Br	0.791991	0.838892	0.037920
Br171	Br	1.125324	1.172226	0.371254
H172	H	0.590675	0.515996	-0.449160
H173	H	0.924009	0.849329	-0.115826
H174	H	1.257342	1.182662	0.217507
H175	H	0.975430	0.311148	0.067062
H176	H	1.308763	0.644482	0.400396
H177	H	1.642096	0.977815	0.733729
Br178	Br	0.613239	0.506387	-0.297061
Br179	Br	0.946572	0.839721	0.036272
Br180	Br	1.279906	1.173054	0.369606
H181	H	0.469808	0.289451	-0.526584
H182	H	0.803142	0.622784	-0.193251
H183	H	1.136475	0.956117	0.140083
H184	H	0.464841	0.397912	-0.558015
H185	H	0.798174	0.731245	-0.224682
H186	H	1.131508	1.064579	0.108651
Br187	Br	0.612819	0.242429	-0.532078
Br188	Br	0.946153	0.575762	-0.198745
Br189	Br	1.279486	0.909095	0.134589
