data_functionalizedCrystal
_audit_creation_method	'MofGen! by Chris Wilmer'
_symmetry_space_group_name_H-M	'P1'
_symmetry_Int_Tables_number	1
_symmetry_cell_setting	triclinic
loop_
_symmetry_equiv_pos_as_xyz
  x,y,z
_cell_length_a	17.019282
_cell_length_b	10.489746
_cell_length_c	9.565339
_cell_angle_alpha	89.998834
_cell_angle_beta	86.116029
_cell_angle_gamma	96.036170
loop_
_atom_site_label
_atom_site_type_symbol
_atom_site_fract_x
_atom_site_fract_y
_atom_site_fract_z
O1	O	1.047606	-0.162407	-0.009908
O2	O	0.818057	-0.183146	0.017741
O3	O	0.938052	0.012908	0.003277
O4	O	0.927610	-0.358462	0.004555
O5	O	0.938058	0.012903	-0.229244
O6	O	0.818062	-0.183152	-0.214780
O7	O	1.047611	-0.162413	-0.242429
Zn8	Zn	0.932837	-0.172783	-0.265522
Zn9	Zn	0.932830	-0.172776	0.040834
O10	O	0.927615	-0.358467	-0.227965
C11	C	0.788666	-0.182366	-0.094979
C12	C	0.701081	-0.180016	-0.084430
C13	C	0.659941	-0.178912	-0.206225
C14	C	0.577648	-0.176684	-0.196317
C15	C	0.536495	-0.175569	-0.064613
C16	C	0.577641	-0.176670	0.057191
C17	C	0.659933	-0.178888	0.047281
C18	C	0.288025	-0.168862	-0.028352
C19	C	0.205727	-0.166646	-0.018452
C20	C	0.205740	-0.166659	-0.271960
C21	C	0.288033	-0.168886	-0.281858
C22	C	0.329172	-0.169979	-0.160054
C23	C	0.452378	-0.173296	-0.054482
C24	C	0.413289	-0.172243	-0.170187
C25	C	0.937266	0.060424	-0.112888
C26	C	0.934903	0.202013	-0.112603
C27	C	1.077002	-0.163193	-0.129706
C28	C	1.164587	-0.165543	-0.140246
C29	C	0.928402	-0.405983	-0.111797
C30	C	0.930765	-0.547572	-0.112073
N31	N	0.932848	-0.172787	-0.474603
C32	C	0.857155	0.353568	-0.103221
C33	C	0.896024	0.276830	0.006739
C34	C	0.896047	0.276866	-0.222510
C35	C	0.969602	0.377555	-0.002015
C36	C	0.969615	0.377596	-0.231366
C37	C	1.008537	0.300908	-0.121384
C38	C	0.988360	-0.082125	-0.572460
C39	C	0.916937	-0.057486	-0.657029
C40	C	1.004243	-0.197343	-0.667586
C41	C	0.861388	-0.148092	-0.557116
C42	C	0.948742	-0.287999	-0.567670
C43	C	0.877267	-0.263410	-0.652191
N44	N	0.932826	-0.172761	0.249914
H45	H	0.172222	-0.165742	0.088803
H46	H	0.793149	0.377215	-0.095397
H47	H	1.072592	0.277506	-0.129037
Br48	Br	0.844233	0.203511	0.174530
H49	H	0.544157	-0.175764	-0.295495
Br50	Br	0.844237	0.203577	-0.377809
H51	H	0.321535	-0.169787	-0.389105
H52	H	0.962223	-0.385410	-0.528330
Br53	Br	1.066531	0.045721	-0.513727
Br54	Br	1.104889	-0.231975	-0.748003
H55	H	0.418862	-0.172388	0.052752
H56	H	1.000653	0.421359	0.091276
H57	H	0.172235	-0.165767	-0.371125
H58	H	1.000664	0.421613	-0.332033
H59	H	0.321511	-0.169748	0.070829
H60	H	0.903478	0.039956	-0.696342
Br61	Br	0.469141	-0.173748	-0.348922
Br62	Br	0.521796	-0.175100	0.235933
Br63	Br	0.715768	-0.180375	0.212580
Br64	Br	0.760714	-0.113270	-0.477008
H65	H	0.830262	-0.340074	-0.687155
H66	H	0.693441	-0.179831	-0.313472
