data_functionalizedCrystal
_audit_creation_method	'MofGen! by Chris Wilmer'
_symmetry_space_group_name_H-M	'P1'
_symmetry_Int_Tables_number	1
_symmetry_cell_setting	triclinic
loop_
_symmetry_equiv_pos_as_xyz
  x,y,z
_cell_length_a	25.639242
_cell_length_b	25.639239
_cell_length_c	25.639233
_cell_angle_alpha	89.981253
_cell_angle_beta	89.977834
_cell_angle_gamma	90.034213
loop_
_atom_site_label
_atom_site_type_symbol
_atom_site_fract_x
_atom_site_fract_y
_atom_site_fract_z
Zn1	Zn	0.799225	-0.208277	-0.295742
Zn2	Zn	0.799149	-0.295696	-0.208307
Zn3	Zn	0.711801	-0.208269	-0.208306
Zn4	Zn	0.711746	-0.295676	-0.295696
O5	O	0.755480	-0.251979	-0.252013
O6	O	0.872380	-0.219884	-0.284163
O7	O	0.787553	-0.284103	-0.135141
O8	O	0.723453	-0.135105	-0.219924
O9	O	0.872324	-0.284111	-0.219924
O10	O	0.787683	-0.135111	-0.284163
O11	O	0.723379	-0.219871	-0.135141
O12	O	0.638629	-0.219853	-0.219880
O13	O	0.723360	-0.284078	-0.368868
O14	O	0.638589	-0.284070	-0.284085
O15	O	0.787630	-0.219866	-0.368901
O16	O	0.787499	-0.368858	-0.219880
O17	O	0.723286	-0.368844	-0.284085
C18	C	0.619638	-0.251959	-0.251977
C19	C	0.561524	-0.251963	-0.251975
C20	C	0.201149	-0.285473	-0.285413
C21	C	0.146544	-0.285477	-0.285421
O22	O	0.118297	-0.313943	-0.313821
N23	N	0.119241	-0.251994	-0.252047
C24	C	0.146545	-0.218502	-0.218666
O25	O	0.118308	-0.190022	-0.190280
C26	C	0.201149	-0.218496	-0.218661
C27	C	0.228449	-0.251985	-0.252034
C28	C	0.228449	-0.318959	-0.318783
C29	C	0.283049	-0.318956	-0.318774
C30	C	0.310350	-0.285468	-0.285395
C31	C	0.283049	-0.251983	-0.252024
C32	C	0.228452	-0.185002	-0.185283
C33	C	0.283059	-0.185000	-0.185281
C34	C	0.310359	-0.218488	-0.218654
C35	C	0.364950	-0.218492	-0.218636
N36	N	0.392253	-0.251974	-0.252010
C37	C	0.364953	-0.285463	-0.285389
C38	C	0.031875	-0.218515	-0.218680
C39	C	-0.022728	-0.218523	-0.218683
C40	C	-0.022725	-0.285497	-0.285438
C41	C	0.031878	-0.285492	-0.285433
C42	C	0.059178	-0.251998	-0.252054
C43	C	0.479618	-0.285455	-0.285368
C44	C	0.534223	-0.285451	-0.285354
C45	C	0.534216	-0.218475	-0.218601
C46	C	0.479615	-0.218481	-0.218612
C47	C	0.452318	-0.251972	-0.252000
O48	O	0.393232	-0.190038	-0.190252
O49	O	0.393197	-0.313933	-0.313776
C50	C	0.755392	-0.387822	-0.251989
C51	C	0.755403	-0.445936	-0.251996
C52	C	0.789004	-0.806294	-0.218638
C53	C	0.789024	-0.860898	-0.218645
O54	O	0.817502	-0.889131	-0.190257
N55	N	0.755572	-0.888218	-0.252048
C56	C	0.722102	-0.860932	-0.285449
O57	O	0.693651	-0.889184	-0.313861
C58	C	0.722085	-0.806328	-0.285444
C59	C	0.755535	-0.779011	-0.252036
C60	C	0.822452	-0.778976	-0.185233
C61	C	0.822431	-0.724376	-0.185226
C62	C	0.788962	-0.697093	-0.218623
C63	C	0.755514	-0.724410	-0.252028
C64	C	0.688617	-0.779042	-0.318847
C65	C	0.688603	-0.724435	-0.318840
C66	C	0.722053	-0.697118	-0.285432
C67	C	0.722024	-0.642527	-0.285418
N68	N	0.755475	-0.615206	-0.252016
C69	C	0.788944	-0.642490	-0.218618
C70	C	0.722141	-0.975602	-0.285457
C71	C	0.722155	-1.030204	-0.285459
C72	C	0.789078	-1.030167	-0.218656
C73	C	0.789061	-0.975564	-0.218652
C74	C	0.755593	-0.948282	-0.252055
C75	C	0.788897	-0.527824	-0.218605
C76	C	0.788872	-0.473219	-0.218599
C77	C	0.721951	-0.473261	-0.285403
C78	C	0.721974	-0.527862	-0.285408
C79	C	0.755452	-0.555142	-0.252007
O80	O	0.693562	-0.614260	-0.313793
O81	O	0.817396	-0.614231	-0.190216
C82	C	0.891853	-0.252000	-0.252049
C83	C	0.949967	-0.252009	-0.252064
C84	C	0.755497	-0.251970	-0.388386
C85	C	0.755504	-0.251966	-0.446500
C86	C	0.755583	-0.115606	-0.252048
C87	C	0.755627	-0.057492	-0.252064
C88	C	0.789012	-0.218432	-0.806886
C89	C	0.789019	-0.218417	-0.861491
O90	O	0.817466	-0.189967	-0.889747
N91	N	0.755562	-0.251844	-0.888783
C92	C	0.722093	-0.285283	-0.861468
O93	O	0.693636	-0.313713	-0.889695
C94	C	0.722084	-0.285294	-0.806864
C95	C	0.755547	-0.251870	-0.779575
C96	C	0.822472	-0.185009	-0.779597
C97	C	0.822466	-0.185025	-0.724997
C98	C	0.789000	-0.218462	-0.697685
C99	C	0.755541	-0.251885	-0.724974
C100	C	0.688613	-0.318731	-0.779550
C101	C	0.688607	-0.318739	-0.724943
C102	C	0.722069	-0.285314	-0.697654
C103	C	0.722070	-0.285338	-0.643063
N104	N	0.755526	-0.251912	-0.615771
C105	C	0.788992	-0.218474	-0.643082
C106	C	0.722113	-0.285256	-0.976138
C107	C	0.722124	-0.285247	-1.030741
C108	C	0.789049	-0.218381	-1.030760
C109	C	0.789041	-0.218392	-0.976157
C110	C	0.755570	-0.251829	-0.948846
C111	C	0.788977	-0.218509	-0.528417
C112	C	0.788970	-0.218529	-0.473811
C113	C	0.722043	-0.285393	-0.473797
C114	C	0.722052	-0.285375	-0.528397
C115	C	0.755521	-0.251929	-0.555706
O116	O	0.693635	-0.313773	-0.614771
O117	O	0.817439	-0.190044	-0.614847
C118	C	0.755494	-0.251951	-0.116170
C119	C	0.755588	-0.251807	-0.058057
H120	H	0.206233	-0.157734	-0.158106
O121	O	0.855052	-0.805399	-0.152814
C122	C	0.944029	-0.821989	-0.127560
C123	C	0.907159	-0.792040	-0.164306
H124	H	0.986165	-0.811207	-0.136846
H125	H	0.934917	-0.811254	-0.085385
H126	H	0.938296	-0.865712	-0.133269
H127	H	0.912870	-0.748310	-0.158643
H128	H	0.916280	-0.802819	-0.206467
O129	O	0.854879	-0.697763	-0.152793
C130	C	0.884546	-0.613636	-0.123193
C131	C	0.847760	-0.643705	-0.159941
H132	H	0.878811	-0.569925	-0.128966
H133	H	0.875398	-0.624363	-0.081014
H134	H	0.926695	-0.624365	-0.132419
H135	H	0.805599	-0.632992	-0.150762
H136	H	0.856953	-0.632976	-0.202109
H137	H	0.816221	-0.191310	-0.451595
H138	H	0.694881	-0.312471	-1.052955
O139	O	0.689467	-0.317855	-0.447323
C140	C	0.600513	-0.343218	-0.430565
C141	C	0.637346	-0.306428	-0.460585
H142	H	0.558364	-0.333986	-0.441268
H143	H	0.609626	-0.385382	-0.441315
H144	H	0.606282	-0.337499	-0.386853
H145	H	0.631596	-0.312101	-0.504304
H146	H	0.628224	-0.264278	-0.449792
H147	H	0.694857	-0.312487	-0.953905
H148	H	0.457387	-0.191213	-0.191436
H149	H	0.206227	-0.346229	-0.345967
O150	O	0.656054	-0.351214	-0.805969
C151	C	0.589685	-0.417547	-0.800163
C152	C	0.626526	-0.380777	-0.770180
H153	H	0.565809	-0.441466	-0.771241
H154	H	0.562331	-0.393556	-0.825705
H155	H	0.613671	-0.444868	-0.825747
H156	H	0.602581	-0.353449	-0.744568
H157	H	0.653880	-0.404801	-0.744671
O158	O	0.689471	-0.446808	-0.317920
C159	C	0.664069	-0.430048	-0.406833
C160	C	0.700870	-0.460051	-0.370062
H161	H	0.673279	-0.440736	-0.448998
H162	H	0.621907	-0.440830	-0.397661
H163	H	0.669800	-0.386334	-0.401059
H164	H	0.695185	-0.503772	-0.375815
H165	H	0.743018	-0.449226	-0.379243
O166	O	0.058415	-0.185928	-0.186323
C167	C	0.120112	-0.115338	-0.179394
C168	C	0.090084	-0.152202	-0.216097
H169	H	0.145732	-0.088068	-0.203451
H170	H	0.091238	-0.091373	-0.155552
H171	H	0.145626	-0.139311	-0.151997
H172	H	0.064570	-0.128269	-0.243525
H173	H	0.118986	-0.176168	-0.239902
H174	H	0.816300	-0.953325	-0.191448
H175	H	0.816298	-0.191153	-1.053007
H176	H	0.054103	-0.312760	-0.312609
H177	H	0.661345	-0.345963	-0.702710
H178	H	0.849714	-0.157806	-0.702783
H179	H	0.816333	-1.052391	-0.191464
H180	H	0.661350	-0.702225	-0.346042
O181	O	0.821539	-0.186005	-0.554859
C182	C	0.887902	-0.119668	-0.549100
C183	C	0.851058	-0.156457	-0.519091
H184	H	0.911770	-0.095761	-0.520195
H185	H	0.915262	-0.143644	-0.574655
H186	H	0.863918	-0.092337	-0.574674
H187	H	0.875000	-0.183795	-0.493489
H188	H	0.823696	-0.132449	-0.493569
H189	H	0.457399	-0.312726	-0.312556
O190	O	0.855034	-0.152510	-0.806042
C191	C	0.921397	-0.086175	-0.800279
C192	C	0.884550	-0.122961	-0.770272
H193	H	0.945263	-0.062267	-0.771373
H194	H	0.948760	-0.110152	-0.825830
H195	H	0.897417	-0.058844	-0.825857
H196	H	0.908488	-0.150299	-0.744666
H197	H	0.857186	-0.098951	-0.744754
O198	O	0.689641	-1.056657	-0.317957
C199	C	0.623239	-1.050915	-0.384193
C200	C	0.660042	-1.020896	-0.347421
H201	H	0.599291	-1.022016	-0.408016
H202	H	0.647207	-1.076428	-0.411599
H203	H	0.595947	-1.076531	-0.360156
H204	H	0.687341	-0.995252	-0.371415
H205	H	0.636042	-0.995416	-0.320014
O206	O	0.309484	-0.351500	-0.351245
C207	C	0.303703	-0.417948	-0.417439
C208	C	0.273706	-0.381109	-0.380697
H209	H	0.274790	-0.441904	-0.441252
H210	H	0.329277	-0.394008	-0.444855
H211	H	0.329256	-0.445230	-0.393379
H212	H	0.248125	-0.353819	-0.404714
H213	H	0.248165	-0.405082	-0.353279
O214	O	0.689697	-0.949079	-0.317957
C215	C	0.682581	-0.887390	-0.388517
C216	C	0.719382	-0.917400	-0.351752
H217	H	0.706567	-0.861762	-0.415843
H218	H	0.658687	-0.916276	-0.412427
H219	H	0.655239	-0.861885	-0.364470
H220	H	0.746756	-0.942905	-0.375759
H221	H	0.743240	-0.888486	-0.327841
O222	O	0.656108	-0.805489	-0.351352
C223	C	0.589716	-0.799739	-0.417596
C224	C	0.626516	-0.769725	-0.380817
H225	H	0.565773	-0.770837	-0.441421
H226	H	0.613685	-0.825252	-0.445000
H227	H	0.562419	-0.825354	-0.393565
H228	H	0.653820	-0.744081	-0.404807
H229	H	0.602514	-0.744245	-0.353412
O230	O	-0.049331	-0.317976	-0.317851
C231	C	-0.133456	-0.347675	-0.347421
C232	C	-0.103389	-0.310861	-0.310699
H233	H	-0.177167	-0.341943	-0.341643
H234	H	-0.122735	-0.338552	-0.389607
H235	H	-0.122720	-0.389816	-0.338171
H236	H	-0.114109	-0.268707	-0.319901
H237	H	-0.114113	-0.320028	-0.268524
H238	H	0.694738	-0.550105	-0.312613
O239	O	0.560660	-0.185931	-0.186126
C240	C	0.554910	-0.119479	-0.119937
C241	C	0.524896	-0.156318	-0.156678
H242	H	0.526008	-0.095519	-0.096127
H243	H	0.580432	-0.143419	-0.092518
H244	H	0.580517	-0.092200	-0.143998
H245	H	0.499261	-0.183604	-0.132659
H246	H	0.499407	-0.132345	-0.184098
O247	O	0.309496	-0.152449	-0.152804
C248	C	0.303726	-0.085999	-0.086614
C249	C	0.273723	-0.122841	-0.123361
H250	H	0.274816	-0.062043	-0.062808
H251	H	0.329245	-0.109937	-0.059192
H252	H	0.329333	-0.058716	-0.110670
H253	H	0.248087	-0.150131	-0.099348
H254	H	0.248236	-0.098871	-0.150785
O255	O	0.821560	-0.185872	-0.949731
C256	C	0.887964	-0.119572	-0.955528
C257	C	0.851154	-0.156369	-0.985516
H258	H	0.911908	-0.095718	-0.984448
H259	H	0.864003	-0.092197	-0.929979
H260	H	0.915259	-0.143592	-0.929952
H261	H	0.823851	-0.132392	-1.011121
H262	H	0.875148	-0.183746	-1.011033
H263	H	0.816111	-0.450979	-0.191392
H264	H	0.694809	-0.312597	-0.550617
O265	O	-0.049163	-0.185947	-0.186244
C266	C	-0.043387	-0.119540	-0.120009
C267	C	-0.013387	-0.156401	-0.156726
H268	H	-0.014476	-0.095651	-0.096127
H269	H	-0.068908	-0.092201	-0.144039
H270	H	-0.068993	-0.143512	-0.092651
H271	H	0.012247	-0.132471	-0.184091
H272	H	0.012101	-0.183742	-0.132664
H273	H	0.556449	-0.312723	-0.312530
H274	H	0.816159	-0.550030	-0.191408
