data_functionalizedCrystal
_audit_creation_method	'MofGen! by Chris Wilmer'
_symmetry_space_group_name_H-M	'P1'
_symmetry_Int_Tables_number	1
_symmetry_cell_setting	triclinic
loop_
_symmetry_equiv_pos_as_xyz
  x,y,z
_cell_length_a	11.026607
_cell_length_b	10.654545
_cell_length_c	10.065875
_cell_angle_alpha	98.876977
_cell_angle_beta	79.302338
_cell_angle_gamma	96.535722
loop_
_atom_site_label
_atom_site_type_symbol
_atom_site_fract_x
_atom_site_fract_y
_atom_site_fract_z
O1	O	1.632231	0.512408	-0.113480
O2	O	1.278420	0.452412	-0.113483
O3	O	1.463460	0.301437	-0.113480
O4	O	1.447192	0.663384	-0.113483
O5	O	1.428176	0.330374	0.113508
O6	O	1.243137	0.481349	0.113505
O7	O	1.596948	0.541345	0.113508
Zn8	Zn	1.414441	0.515941	0.149546
Zn9	Zn	1.460928	0.477816	-0.149521
O10	O	1.411909	0.692321	0.113506
C11	C	1.215475	0.455813	0.000010
C12	C	1.080483	0.422818	0.000009
C13	C	1.007445	0.513921	0.000007
C14	C	0.867924	0.479822	0.000006
C15	C	1.444624	0.268848	0.000011
C16	C	1.441050	0.128627	0.000003
C17	C	1.479532	0.097074	-0.247467
C18	C	1.497098	0.015424	-0.371201
C19	C	1.493739	-0.116324	-0.371202
C20	C	1.472810	-0.166423	-0.247456
C21	C	1.455244	-0.084773	-0.123722
C22	C	1.458608	0.046976	-0.123734
C23	C	1.416754	-0.053222	0.123744
C24	C	1.420120	0.078528	0.123749
C25	C	1.395824	-0.103321	0.247490
C26	C	1.378267	-0.021670	0.371227
C27	C	1.381627	0.110085	0.371224
C28	C	1.402555	0.160178	0.247483
C29	C	1.659894	0.537945	0.000012
C30	C	1.794887	0.570938	0.000004
C31	C	1.430745	0.724909	0.000011
C32	C	1.434320	0.865129	0.000010
N33	N	1.382723	0.541962	0.353651
N34	N	1.492655	0.451787	-0.353626
C35	C	1.449885	0.486860	0.421431
C36	C	1.425484	0.506898	0.578598
H37	H	1.482282	0.204350	-0.247478
Cl38	Cl	1.070365	0.673324	0.000010
H39	H	1.349910	0.568907	0.636918
Cl40	Cl	0.805007	0.320414	0.000016
Cl41	Cl	0.857795	0.730351	0.000023
Cl42	Cl	1.406788	0.325804	0.247468
Cl43	Cl	1.017561	0.263417	0.000019
H44	H	1.361219	-0.062474	0.471971
H45	H	1.514136	0.056230	-0.471952
H46	H	1.508032	-0.182805	-0.471957
Cl47	Cl	1.266048	0.637696	0.443691
Cl48	Cl	1.468563	-0.332053	-0.247463
H49	H	1.367304	0.176557	0.471984
H50	H	1.525445	0.424844	0.363108
Cl51	Cl	1.391591	-0.268949	0.247488
Cl52	Cl	1.609591	0.356367	0.556343
