data_functionalizedCrystal
_audit_creation_method	'MofGen! by Chris Wilmer'
_symmetry_space_group_name_H-M	'P1'
_symmetry_Int_Tables_number	1
_symmetry_cell_setting	triclinic
loop_
_symmetry_equiv_pos_as_xyz
  x,y,z
_cell_length_a	12.827893
_cell_length_b	13.032721
_cell_length_c	12.827885
_cell_angle_alpha	97.149035
_cell_angle_beta	89.980728
_cell_angle_gamma	97.204267
loop_
_atom_site_label
_atom_site_type_symbol
_atom_site_fract_x
_atom_site_fract_y
_atom_site_fract_z
Zn1	Zn	1.544798	-0.415987	-0.643644
Zn2	Zn	1.878131	-0.082654	-0.310310
Zn3	Zn	2.211465	0.250680	0.023023
Zn4	Zn	1.522478	-0.590766	-0.491086
Zn5	Zn	1.855811	-0.257433	-0.157753
Zn6	Zn	2.189145	0.075901	0.175581
Zn7	Zn	1.370033	-0.416038	-0.468924
Zn8	Zn	1.703366	-0.082705	-0.135590
Zn9	Zn	2.036700	0.250629	0.197743
Zn10	Zn	1.347821	-0.590688	-0.665776
Zn11	Zn	1.681154	-0.257355	-0.332443
Zn12	Zn	2.014487	0.075978	0.000891
O13	O	1.446282	-0.503370	-0.567357
O14	O	1.779616	-0.170037	-0.234024
O15	O	2.112949	0.163297	0.099309
O16	O	1.688072	-0.439183	-0.623419
O17	O	2.021405	-0.105850	-0.290086
O18	O	2.354739	0.227483	0.043248
O19	O	1.502211	-0.567642	-0.341917
O20	O	1.835544	-0.234309	-0.008584
O21	O	2.168878	0.099025	0.324750
O22	O	1.411853	-0.269794	-0.473563
O23	O	1.745186	0.063539	-0.140230
O24	O	2.078520	0.396873	0.193103
O25	O	1.671673	-0.567593	-0.511336
O26	O	2.005007	-0.234259	-0.178002
O27	O	2.338340	0.099074	0.155331
O28	O	1.540252	-0.269756	-0.601929
O29	O	1.873586	0.063577	-0.268596
O30	O	2.206919	0.396910	0.064737
O31	O	1.390210	-0.439270	-0.325634
O32	O	1.723544	-0.105937	0.007699
O33	O	2.056877	0.227397	0.341032
O34	O	1.220852	-0.439194	-0.495024
O35	O	1.554185	-0.105861	-0.161691
O36	O	1.887519	0.227472	0.171642
O37	O	1.373995	-0.567460	-0.809070
O38	O	1.707328	-0.234127	-0.475736
O39	O	2.040662	0.099207	-0.142403
O40	O	1.204532	-0.567509	-0.639651
O41	O	1.537866	-0.234176	-0.306317
O42	O	1.871199	0.099157	0.027016
O43	O	1.518714	-0.439108	-0.792809
O44	O	1.852047	-0.105774	-0.459476
O45	O	2.185380	0.227559	-0.126142
O46	O	1.480672	-0.736993	-0.532797
O47	O	1.814006	-0.403660	-0.199463
O48	O	2.147339	-0.070327	0.133870
O49	O	1.352352	-0.736936	-0.661141
O50	O	1.685686	-0.403603	-0.327807
O51	O	2.019019	-0.070269	0.005526
C52	C	1.174775	-0.503350	-0.567335
C53	C	1.508108	-0.170016	-0.234002
C54	C	1.841442	0.163317	0.099332
C55	C	1.058620	-0.503366	-0.567353
C56	C	1.391953	-0.170033	-0.234020
C57	C	1.725287	0.163300	0.099313
C58	C	0.998775	-0.566960	-0.638834
C59	C	1.332108	-0.233626	-0.305501
C60	C	1.665441	0.099707	0.027833
C61	C	0.878722	-0.566978	-0.638854
C62	C	1.212055	-0.233645	-0.305521
C63	C	1.545389	0.099688	0.027812
C64	C	1.411708	-0.774882	-0.601798
C65	C	1.745042	-0.441549	-0.268465
C66	C	2.078375	-0.108216	0.064869
C67	C	1.397013	-0.891037	-0.616567
C68	C	1.730346	-0.557703	-0.283233
C69	C	2.063679	-0.224370	0.050100
C70	C	1.454008	-0.942815	-0.559696
C71	C	1.787341	-0.609482	-0.226363
C72	C	2.120674	-0.276149	0.106970
C73	C	1.438821	-1.062867	-0.574959
C74	C	1.772154	-0.729533	-0.241626
C75	C	2.105487	-0.396200	0.091707
C76	C	1.718850	-0.503391	-0.567381
C77	C	2.052183	-0.170058	-0.234047
C78	C	2.385517	0.163276	0.099286
C79	C	1.835002	-0.503400	-0.567391
C80	C	2.168335	-0.170066	-0.234057
C81	C	2.501669	0.163267	0.099276
C82	C	1.446366	-0.503270	-0.839915
C83	C	1.779700	-0.169936	-0.506582
C84	C	2.113033	0.163397	-0.173248
C85	C	1.446402	-0.503227	-0.956063
C86	C	1.779735	-0.169893	-0.622729
C87	C	2.113069	0.163440	-0.289396
C88	C	1.481020	-0.230797	-0.532805
C89	C	1.814354	0.102536	-0.199472
C90	C	2.147687	0.435869	0.133861
C91	C	1.495823	-0.114643	-0.518081
C92	C	1.829157	0.218690	-0.184748
C93	C	2.162490	0.552024	0.148586
C94	C	1.518022	-0.439702	-0.999800
C95	C	1.851355	-0.106368	-0.666466
C96	C	2.184689	0.226965	-0.333133
C97	C	1.518061	-0.439656	-1.119844
C98	C	1.851394	-0.106323	-0.786511
C99	C	2.184727	0.227011	-0.453178
C100	C	1.446269	-0.503394	-0.295851
C101	C	1.779602	-0.170061	0.037483
C102	C	2.112935	0.163272	0.370816
C103	C	1.446473	-0.503143	-0.179666
C104	C	1.779806	-0.169809	0.153667
C105	C	2.113139	0.163524	0.487001
H106	H	1.020978	-0.448931	-0.506175
H107	H	1.354311	-0.115598	-0.172842
H108	H	1.687644	0.217735	0.160491
H109	H	1.036418	-0.621387	-0.700019
H110	H	1.369751	-0.288054	-0.366685
H111	H	1.703085	0.045280	-0.033352
H112	H	1.336978	-0.935584	-0.676559
H113	H	1.670312	-0.602251	-0.343226
H114	H	2.003645	-0.268918	-0.009892
H115	H	1.579306	-0.385345	-0.948371
H116	H	1.912640	-0.052012	-0.615038
H117	H	2.245973	0.281321	-0.281705
H118	H	1.385157	-0.557536	-1.142030
H119	H	1.718490	-0.224202	-0.808697
H120	H	2.051823	0.109131	-0.475363
F121	F	0.811496	-0.638150	-0.718842
F122	F	1.144830	-0.304816	-0.385509
F123	F	1.478163	0.028517	-0.052175
H124	H	1.385108	-0.557572	-1.007490
H125	H	1.718442	-0.224239	-0.674156
H126	H	2.051775	0.109094	-0.340823
F127	F	1.360345	-1.121084	-0.653380
F128	F	1.693678	-0.787751	-0.320046
F129	F	2.027011	-0.454418	0.013287
F130	F	0.902220	-0.432236	-0.487391
F131	F	1.235553	-0.098903	-0.154057
F132	F	1.568887	0.234430	0.179276
H133	H	1.514051	-0.898270	-0.499712
H134	H	1.847384	-0.564937	-0.166378
H135	H	2.180718	-0.231603	0.166955
F136	F	1.574310	-1.056428	-0.439670
F137	F	1.907643	-0.723094	-0.106337
F138	F	2.240976	-0.389761	0.226997
F139	F	1.598213	-0.368572	-1.169044
F140	F	1.931547	-0.035238	-0.835710
F141	F	2.264880	0.298095	-0.502377
