data_functionalizedCrystal
_audit_creation_method	'MofGen! by Chris Wilmer'
_symmetry_space_group_name_H-M	'P1'
_symmetry_Int_Tables_number	1
_symmetry_cell_setting	triclinic
loop_
_symmetry_equiv_pos_as_xyz
  x,y,z
_cell_length_a	16.120444
_cell_length_b	12.759395
_cell_length_c	16.120379
_cell_angle_alpha	87.134182
_cell_angle_beta	89.787474
_cell_angle_gamma	87.071990
loop_
_atom_site_label
_atom_site_type_symbol
_atom_site_fract_x
_atom_site_fract_y
_atom_site_fract_z
Zn1	Zn	-0.306879	-1.555613	-0.486913
Zn2	Zn	-0.453081	-1.554519	-0.354901
Zn3	Zn	-0.314049	-1.388294	-0.347876
Zn4	Zn	-0.445898	-1.370539	-0.493918
O5	O	-0.379977	-1.467241	-0.420902
O6	O	-0.326279	-1.702488	-0.469409
O7	O	-0.440645	-1.539442	-0.237603
O8	O	-0.196733	-1.418377	-0.360448
O9	O	-0.433692	-1.701685	-0.372421
O10	O	-0.191465	-1.541306	-0.462598
O11	O	-0.338499	-1.417317	-0.232442
O12	O	-0.331534	-1.238918	-0.367241
O13	O	-0.421450	-1.388116	-0.609354
O14	O	-0.428403	-1.225874	-0.474537
O15	O	-0.319314	-1.524089	-0.604208
O16	O	-0.568493	-1.522226	-0.379213
O17	O	-0.563216	-1.387056	-0.481348
C18	C	-0.379968	-1.194275	-0.420887
C19	C	-0.379983	-1.077497	-0.420901
C20	C	-0.596026	-1.452623	-0.431821
C21	C	-0.688451	-1.446464	-0.436521
C22	C	-0.368781	-1.454244	-0.637797
C23	C	-0.364010	-1.448706	-0.730225
C24	C	-0.901435	-1.499438	-0.396703
C25	C	-0.857667	-1.435238	-0.445109
C26	C	-0.763507	-1.441486	-0.440329
C27	C	-0.995604	-1.493192	-0.401482
C28	C	-0.163084	-1.481944	-0.409958
C29	C	-0.070656	-1.488209	-0.405294
C30	C	-0.379987	-1.741273	-0.420917
C31	C	-0.379991	-1.858049	-0.420924
C32	C	-0.481033	-1.063951	-0.532465
C33	C	-0.531564	-1.002317	-0.588250
C34	C	-0.531574	-0.892594	-0.588261
C35	C	-0.481045	-0.844503	-0.532482
C36	C	-0.430513	-0.906138	-0.476698
C37	C	-0.430511	-1.015862	-0.476691
C38	C	-0.329460	-0.919683	-0.365139
C39	C	-0.329453	-1.029406	-0.365123
C40	C	-0.278930	-0.871593	-0.309361
C41	C	-0.228402	-0.933227	-0.253571
C42	C	-0.228395	-1.042956	-0.253562
C43	C	-0.278922	-1.091040	-0.309339
C44	C	-0.391069	-1.480252	-0.204847
C45	C	-0.395606	-1.486010	-0.112408
C46	C	-0.403889	-1.496537	0.056839
C47	C	-0.355730	-1.438182	0.100533
C48	C	-0.360338	-1.444039	0.194708
C49	C	-0.399281	-1.490681	-0.037344
H50	H	-0.890914	-1.375581	-0.490140
H51	H	-0.868192	-1.559090	-0.351674
H52	H	-0.278938	-0.782250	-0.309377
H53	H	-0.572717	-0.842411	-0.633689
H54	H	-0.481049	-0.755161	-0.532503
H55	H	-0.481037	-1.153292	-0.532456
H56	H	-0.187240	-1.093133	-0.208141
F57	F	-0.297315	-1.367129	0.056982
F58	F	-0.462301	-1.567582	0.100389
F59	F	-0.278923	-1.207817	-0.309330
F60	F	-0.585343	-1.053505	-0.647606
H61	H	-0.187261	-0.894063	-0.208165
