data_functionalizedCrystal
_audit_creation_method	'MofGen! by Chris Wilmer'
_symmetry_space_group_name_H-M	'P1'
_symmetry_Int_Tables_number	1
_symmetry_cell_setting	triclinic
loop_
_symmetry_equiv_pos_as_xyz
  x,y,z
_cell_length_a	17.699083
_cell_length_b	14.853567
_cell_length_c	16.776229
_cell_angle_alpha	89.997147
_cell_angle_beta	89.998886
_cell_angle_gamma	83.458972
loop_
_atom_site_label
_atom_site_type_symbol
_atom_site_fract_x
_atom_site_fract_y
_atom_site_fract_z
O1	O	1.004374	0.114008	-0.066170
O2	O	0.784034	0.128841	-0.066195
O3	O	0.900090	-0.009827	-0.066184
O4	O	0.888319	0.252676	-0.066181
O5	O	0.900075	-0.009835	0.066392
O6	O	0.784019	0.128832	0.066381
O7	O	1.004359	0.114000	0.066407
Zn8	Zn	0.894187	0.121415	0.087443
Zn9	Zn	0.894207	0.121426	-0.087232
O10	O	0.888303	0.252667	0.066396
C11	C	0.755828	0.128305	0.000090
C12	C	0.671806	0.126711	0.000080
C13	C	0.623396	0.208106	0.000081
C14	C	0.544449	0.206602	0.000092
C15	C	0.513913	0.123703	0.000095
C16	C	0.562329	0.042301	0.000096
C17	C	0.641275	0.043806	0.000091
C18	C	0.243950	0.036232	0.000116
C19	C	0.164999	0.034734	0.000118
C20	C	0.147125	0.199028	0.000116
C21	C	0.226070	0.200533	0.000111
C22	C	0.274479	0.119132	0.000116
C23	C	0.360083	0.120763	0.000107
C24	C	0.428311	0.122070	0.000099
C25	C	0.899549	-0.043418	0.000102
C26	C	0.897951	-0.143496	0.000095
C27	C	0.822255	-0.555751	0.000101
C28	C	0.960131	-0.577539	0.000117
C29	C	0.961634	-0.483511	0.000112
C30	C	0.893446	-0.425598	0.000103
C31	C	0.823756	-0.461714	0.000099
C32	C	1.031324	-0.447389	0.000125
C33	C	1.032829	-0.353355	0.000121
C34	C	0.964641	-0.295441	0.000107
C35	C	0.894947	-0.331561	0.000101
C36	C	0.826759	-0.273648	0.000092
C37	C	0.757065	-0.309767	0.000081
C38	C	0.755567	-0.403799	0.000084
C39	C	0.966139	-0.201409	0.000104
C40	C	0.828260	-0.179611	0.000090
C41	C	1.032565	0.114535	0.000120
C42	C	1.116587	0.116130	0.000125
C43	C	0.888844	0.286258	0.000108
C44	C	0.890443	0.386336	0.000110
N45	N	0.894178	0.121406	0.206655
N46	N	0.894221	0.121427	-0.206443
C47	C	0.945583	0.060029	0.248377
C48	C	0.945587	0.060029	0.331829
C49	C	0.894190	0.121410	0.373558
C50	C	0.842779	0.182790	0.331830
C51	C	0.842772	0.182786	0.248379
C52	C	0.842806	0.182808	0.668377
C53	C	0.842819	0.182809	0.751834
C54	C	0.945622	0.060051	0.751827
C55	C	0.945615	0.060046	0.668376
C56	C	0.894202	0.121423	0.626656
C57	C	0.894197	0.121422	0.536167
C58	C	0.894198	0.121416	0.464044
H59	H	0.505037	0.272882	0.000092
H60	H	0.987440	0.010050	0.214407
N61	N	0.296157	-0.051560	0.000126
H62	H	0.264831	-0.104302	0.000128
H63	H	0.329305	-0.054520	-0.049020
H64	H	0.537461	-0.025197	0.000110
H65	H	0.800912	0.232764	0.214410
N66	N	0.094922	0.286837	0.000122
H67	H	0.061763	0.289886	-0.049019
H68	H	0.061823	0.289828	0.049305
H69	H	0.987445	0.010050	0.365798
N70	N	1.033677	-0.639991	0.000123
H71	H	1.064072	-0.628388	0.049271
H72	H	1.022093	-0.705016	0.000095
H73	H	0.140140	-0.032777	0.000121
H74	H	0.698825	-0.433216	0.000076
H75	H	0.680690	-0.022475	0.000090
N76	N	1.041298	-0.162449	0.000124
H77	H	1.084267	-0.213405	0.000135
H78	H	1.044935	-0.123911	-0.049025
H79	H	0.648252	0.275612	0.000078
N80	N	0.258998	0.289950	0.000100
H81	H	0.241353	0.325601	0.049247
H82	H	0.316350	0.278482	0.000064
N83	N	0.754713	-0.117150	0.000074
H84	H	0.710339	-0.154302	0.000066
H85	H	0.752324	-0.077663	0.049222
N86	N	0.747091	-0.594708	0.000094
H87	H	0.717209	-0.573581	0.049237
H88	H	0.717279	-0.573567	-0.049088
N89	N	1.104865	-0.509848	0.000149
H90	H	1.093338	-0.574896	0.000147
H91	H	1.135245	-0.498173	-0.048991
H92	H	0.701546	-0.262602	0.000080
N93	N	1.107995	-0.314401	0.000133
H94	H	1.150962	-0.365358	0.000140
H95	H	1.111627	-0.275864	-0.049017
N96	N	1.001054	-0.006153	0.623368
H97	H	1.033619	-0.045038	0.662463
H98	H	0.972035	-0.045967	0.588751
H99	H	0.800962	0.232795	0.785808
N100	N	1.001076	-0.006152	0.796825
H101	H	0.993283	0.003158	0.856023
H102	H	0.992272	-0.070097	0.782242
N103	N	0.787353	0.248998	0.623385
H104	H	0.754796	0.287882	0.662485
H105	H	0.816356	0.288814	0.588748
N106	N	0.787336	0.248989	0.376833
H107	H	0.795141	0.239681	0.436030
H108	H	0.796139	0.312933	0.362238
