data_functionalizedCrystal
_audit_creation_method	'MofGen! by Chris Wilmer'
_symmetry_space_group_name_H-M	'P1'
_symmetry_Int_Tables_number	1
_symmetry_cell_setting	triclinic
loop_
_symmetry_equiv_pos_as_xyz
  x,y,z
_cell_length_a	15.995292
_cell_length_b	17.038272
_cell_length_c	15.500227
_cell_angle_alpha	86.966746
_cell_angle_beta	92.845027
_cell_angle_gamma	87.290086
loop_
_atom_site_label
_atom_site_type_symbol
_atom_site_fract_x
_atom_site_fract_y
_atom_site_fract_z
O1	O	1.121817	0.096930	0.071969
O2	O	0.878925	0.109422	0.071965
O3	O	0.998927	-0.010639	0.071960
O4	O	1.001815	0.216991	0.071974
O5	O	0.991643	-0.003382	-0.071928
O6	O	0.871641	0.116679	-0.071923
O7	O	1.114533	0.104187	-0.071920
Cu8	Cu	0.992422	0.111096	-0.085059
Cu9	Cu	1.001036	0.102513	0.085105
O10	O	0.994531	0.224248	-0.071914
C11	C	0.844051	0.112542	0.000021
C12	C	0.750989	0.111018	0.000019
C13	C	0.412852	0.105414	0.000029
C14	C	0.442354	0.192055	0.000355
C15	C	0.539130	0.193718	0.000027
C16	C	0.580606	0.108195	0.000025
C17	C	0.544258	0.069014	-0.082142
C18	C	0.447390	0.067974	-0.082208
C19	C	0.455692	0.057952	0.081420
C20	C	0.552468	0.061109	0.082503
C21	C	0.675413	0.109762	0.000019
C22	C	0.318044	0.103844	0.000028
C23	C	0.992659	-0.036139	0.000016
C24	C	0.984824	-0.122932	0.000016
C25	C	1.056754	-0.173043	0.000016
C26	C	1.049388	-0.254594	0.000024
C27	C	0.970092	-0.286033	0.000026
C28	C	0.898157	-0.235916	0.000029
C29	C	0.905524	-0.154367	0.000027
C30	C	0.944066	-0.531793	0.000038
C31	C	0.936704	-0.613349	0.000037
C32	C	1.087936	-0.632021	0.000034
C33	C	1.095296	-0.550469	0.000027
C34	C	1.023361	-0.500360	0.000034
C35	C	0.962560	-0.369391	0.000032
C36	C	1.030893	-0.417003	0.000035
C37	C	1.149407	0.101067	0.000027
C38	C	1.242469	0.102590	0.000034
N39	N	0.986369	0.117131	-0.204744
C40	C	1.000799	0.249748	0.000032
C41	C	1.008633	0.336541	0.000037
C42	C	1.037238	0.066276	-0.250023
C43	C	1.032669	0.070848	-0.340596
C44	C	0.977234	0.126280	-0.385888
C45	C	0.926359	0.177137	-0.340603
C46	C	0.930925	0.172561	-0.250032
C47	C	0.960785	0.142753	-0.659354
C48	C	0.956225	0.147327	-0.749931
C49	C	1.062535	0.041036	-0.749918
C50	C	1.067099	0.036467	-0.659345
C51	C	1.016221	0.087322	-0.614068
C52	C	0.972564	0.130956	-0.478468
C53	C	1.020887	0.082642	-0.521490
N54	N	1.007095	0.096471	0.204790
H55	H	0.563555	0.224673	0.058930
H56	H	1.074090	0.029437	-0.377461
Cl57	Cl	0.407409	0.239041	0.091333
H58	H	1.095457	-0.391403	0.000052
Cl59	Cl	0.902877	0.200643	-0.535410
H60	H	0.897997	-0.394998	0.000031
H61	H	0.428125	0.004625	-0.085942
H62	H	0.889500	0.213972	-0.213166
H63	H	0.432447	0.081897	0.143698
H64	H	0.576362	0.089588	0.143289
Cl65	Cl	0.896830	0.206686	-0.602440
H66	H	0.872127	-0.638942	0.000025
H67	H	0.885491	-0.491003	0.000043
Cl68	Cl	1.156446	-0.133528	0.000005
Cl69	Cl	1.136791	-0.033218	-0.602407
Cl70	Cl	0.815094	-0.091370	0.000030
H71	H	0.412735	0.228226	-0.058236
H72	H	1.082383	0.021141	-0.213152
Cl73	Cl	0.573753	0.120225	-0.176551
Cl74	Cl	1.126489	-0.022895	-0.806842
Cl75	Cl	0.886530	0.217021	-0.806864
Cl76	Cl	0.798469	-0.275440	0.000042
H77	H	1.066020	0.037506	-0.484611
Cl78	Cl	0.566693	0.251008	-0.091064
Cl79	Cl	0.404482	0.119086	-0.177031
Cl80	Cl	0.596885	-0.035660	0.090160
Cl81	Cl	1.178362	-0.695020	0.000028
Cl82	Cl	1.139819	-0.317587	0.000022
Cl83	Cl	0.427121	-0.040571	0.082273
H84	H	0.571489	0.006234	-0.085200
Cl85	Cl	1.194988	-0.510954	0.000053
H86	H	0.881218	0.222269	-0.377485
