data_functionalizedCrystal
_audit_creation_method	'MofGen! by Chris Wilmer'
_symmetry_space_group_name_H-M	'P1'
_symmetry_Int_Tables_number	1
_symmetry_cell_setting	triclinic
loop_
_symmetry_equiv_pos_as_xyz
  x,y,z
_cell_length_a	6.394989
_cell_length_b	9.065218
_cell_length_c	7.540329
_cell_angle_alpha	90.003038
_cell_angle_beta	89.999471
_cell_angle_gamma	94.243202
loop_
_atom_site_label
_atom_site_type_symbol
_atom_site_fract_x
_atom_site_fract_y
_atom_site_fract_z
O1	O	0.306374	-1.963204	-0.147474
O2	O	0.806374	-1.463204	0.352526
O3	O	0.331504	-1.534149	-0.147475
O4	O	0.831504	-1.034149	0.352525
O5	O	0.014990	-1.754767	-0.147476
O6	O	0.514990	-1.254767	0.352524
O7	O	0.622888	-1.742586	-0.147473
O8	O	1.122888	-1.242586	0.352527
O9	O	0.014986	-1.754753	0.147489
O10	O	0.514986	-1.254753	0.647489
O11	O	0.331500	-1.534136	0.147490
O12	O	0.831500	-1.034136	0.647490
O13	O	0.306370	-1.963190	0.147491
O14	O	0.806370	-1.463190	0.647491
Cu15	Cu	0.318934	-1.748662	0.174423
Cu16	Cu	0.818934	-1.248662	0.674423
Cu17	Cu	0.318939	-1.748678	-0.174407
Cu18	Cu	0.818939	-1.248678	0.325593
O19	O	0.622884	-1.742573	0.147492
O20	O	1.122884	-1.242573	0.647492
C21	C	0.329087	-1.479134	0.000007
C22	C	0.829087	-0.979134	0.500007
C23	C	0.321865	-1.315225	0.000006
C24	C	0.821865	-0.815225	0.500006
C25	C	0.700753	-1.744988	0.000002
C26	C	1.200753	-1.244988	0.500002
C27	C	0.937127	-1.752348	-0.000003
C28	C	1.437127	-1.252348	0.499997
C29	C	0.308787	-2.018206	0.000005
C30	C	0.808787	-1.518206	0.500005
C31	C	0.316008	-2.182115	-0.000005
C32	C	0.816008	-1.682115	0.499995
N33	N	0.318930	-1.748661	0.419772
N34	N	0.818930	-1.248661	0.919772
N35	N	0.318927	-1.748690	-0.419756
N36	N	0.818927	-1.248690	0.080244
