data_functionalizedCrystal
_audit_creation_method	'MofGen! by Chris Wilmer'
_symmetry_space_group_name_H-M	'P1'
_symmetry_Int_Tables_number	1
_symmetry_cell_setting	triclinic
loop_
_symmetry_equiv_pos_as_xyz
  x,y,z
_cell_length_a	19.121424
_cell_length_b	19.120786
_cell_length_c	11.169409
_cell_angle_alpha	87.520717
_cell_angle_beta	92.410610
_cell_angle_gamma	95.008527
loop_
_atom_site_label
_atom_site_type_symbol
_atom_site_fract_x
_atom_site_fract_y
_atom_site_fract_z
Zn1	Zn	1.063742	-0.234161	-0.584242
Zn2	Zn	1.058625	-0.351861	-0.375324
Zn3	Zn	0.946070	-0.239225	-0.391744
Zn4	Zn	0.941026	-0.356822	-0.584139
O5	O	1.002366	-0.295517	-0.483862
O6	O	1.161525	-0.245578	-0.549700
O7	O	1.043663	-0.336962	-0.209552
O8	O	0.965931	-0.140081	-0.424193
O9	O	1.157766	-0.332051	-0.396209
O10	O	1.052385	-0.136360	-0.565621
O11	O	0.960969	-0.254210	-0.221615
O12	O	0.846939	-0.259021	-0.424094
O13	O	0.957335	-0.340508	-0.752103
O14	O	0.843233	-0.345419	-0.565446
O15	O	1.047494	-0.250389	-0.752179
O16	O	1.038773	-0.450991	-0.396110
O17	O	0.952374	-0.454637	-0.549525
C18	C	0.819556	-0.303308	-0.496541
C19	C	0.741348	-0.306659	-0.501992
C20	C	0.298927	-0.327843	-0.536606
C21	C	0.372411	-0.324700	-0.531461
C22	C	0.411063	-0.278074	-0.455427
C23	C	0.376226	-0.234593	-0.384524
C24	C	0.302743	-0.237739	-0.389663
C25	C	0.633029	-0.266323	-0.436228
C26	C	0.706517	-0.263179	-0.431097
C27	C	0.702697	-0.353288	-0.578034
C28	C	0.629213	-0.356427	-0.583171
C29	C	0.594383	-0.312948	-0.512264
C30	C	0.486175	-0.274859	-0.450169
C31	C	0.519271	-0.316167	-0.517516
C32	C	0.994490	-0.478346	-0.471049
C33	C	0.991185	-0.556558	-0.465603
C34	C	1.034611	-0.591306	-0.536743
C35	C	1.031503	-0.664795	-0.531629
C36	C	0.984972	-0.703534	-0.455367
C37	C	0.941542	-0.668781	-0.384224
C38	C	0.944647	-0.595294	-0.389346
C39	C	0.973343	-0.925518	-0.436221
C40	C	0.970243	-0.999010	-0.431102
C41	C	1.060203	-0.995019	-0.578509
C42	C	1.063307	-0.921530	-0.583619
C43	C	1.019874	-0.886784	-0.512481
C44	C	0.981795	-0.778651	-0.450134
C45	C	1.023048	-0.811668	-0.517720
C46	C	1.185889	-0.287696	-0.471135
C47	C	1.264096	-0.284363	-0.465711
C48	C	1.002423	-0.295437	-0.796906
C49	C	1.002447	-0.295402	-0.930307
C50	C	1.010291	-0.111974	-0.496750
C51	C	1.013669	-0.033758	-0.502242
C52	C	1.002351	-0.295545	-0.172036
C53	C	1.002471	-0.295375	-0.038641
H54	H	0.407702	-0.196631	-0.322609
H55	H	0.487798	-0.354132	-0.579419
O56	O	1.113494	-0.879738	-0.665862
H57	H	1.150717	-0.844731	-0.612017
H58	H	0.731064	-0.388687	-0.635762
H59	H	1.072504	-0.559769	-0.598838
O60	O	0.891360	-0.710569	-0.301968
H61	H	0.836723	-0.698871	-0.327288
H62	H	0.400768	-0.360108	-0.589189
O63	O	0.897816	-0.557810	-0.312608
H64	H	0.864944	-0.597092	-0.258706
O65	O	1.107041	-1.032499	-0.655238
H66	H	1.139920	-0.993215	-0.709121
O67	O	0.587518	-0.406871	-0.664905
H68	H	0.624082	-0.436637	-0.713235
H69	H	0.517654	-0.236895	-0.388263
H70	H	1.066870	-0.693083	-0.589549
O71	O	0.748210	-0.212891	-0.349079
H72	H	0.711645	-0.183190	-0.300626
H73	H	0.943912	-0.810201	-0.388038
O74	O	0.926503	-0.888056	-0.359477
H75	H	0.892092	-0.856117	-0.417951
H76	H	0.604679	-0.230922	-0.378485
O77	O	0.920049	-1.040799	-0.348855
H78	H	0.890363	-1.004292	-0.300257
O79	O	0.265169	-0.190840	-0.313205
H80	H	0.304390	-0.157883	-0.259479
O81	O	1.073241	-0.769891	-0.599962
H82	H	1.043151	-0.737748	-0.665498
H83	H	0.267463	-0.365807	-0.598528
