data_functionalizedCrystal
_audit_creation_method	'MofGen! by Chris Wilmer'
_symmetry_space_group_name_H-M	'P1'
_symmetry_Int_Tables_number	1
_symmetry_cell_setting	triclinic
loop_
_symmetry_equiv_pos_as_xyz
  x,y,z
_cell_length_a	17.038272
_cell_length_b	14.971486
_cell_length_c	13.448316
_cell_angle_alpha	90.006811
_cell_angle_beta	90.000953
_cell_angle_gamma	87.362843
loop_
_atom_site_label
_atom_site_type_symbol
_atom_site_fract_x
_atom_site_fract_y
_atom_site_fract_z
O1	O	-1.037595	-0.194251	-0.082569
O2	O	-0.809961	-0.191166	-0.082598
O3	O	-0.929879	-0.062965	-0.082575
O4	O	-0.917677	-0.322452	-0.082591
O5	O	-0.929864	-0.062955	0.082808
O6	O	-0.809946	-0.191157	0.082786
O7	O	-1.037580	-0.194241	0.082815
Cu8	Cu	-0.923762	-0.192698	0.097901
Cu9	Cu	-0.923779	-0.192709	-0.097684
O10	O	-0.917662	-0.322442	0.082793
C11	C	-0.780822	-0.188356	0.000090
C12	C	-0.694019	-0.179986	0.000079
C13	C	-0.929326	-0.029595	0.000116
C14	C	-0.927691	0.069825	0.000115
C15	C	-1.066719	-0.197051	0.000125
C16	C	-1.153522	-0.205421	0.000129
C17	C	-0.643995	-0.256830	0.000076
C18	C	-0.562435	-0.248961	0.000090
C19	C	-0.530901	-0.164246	0.000101
C20	C	-0.580933	-0.087397	0.000108
C21	C	-0.662491	-0.095267	0.000101
C22	C	-0.285111	-0.136442	0.000129
C23	C	-0.203547	-0.128577	0.000133
C24	C	-0.185054	-0.290142	0.000117
C25	C	-0.266615	-0.298005	0.000104
C26	C	-0.316639	-0.221155	0.000116
C27	C	-0.447535	-0.156200	0.000112
C28	C	-0.400004	-0.229202	0.000112
C29	C	-0.918215	-0.355812	0.000099
C30	C	-0.919850	-0.455232	0.000094
N31	N	-0.923755	-0.192690	0.235466
C32	C	-0.998140	0.121776	0.000125
C33	C	-0.996598	0.215190	0.000115
C34	C	-0.924607	0.256653	0.000102
C35	C	-0.854153	0.204695	0.000089
C36	C	-0.855695	0.111282	0.000092
C37	C	-0.850944	0.399398	0.000085
C38	C	-0.849402	0.492817	0.000084
C39	C	-0.991847	0.503306	0.000108
C40	C	-0.993389	0.409893	0.000111
C41	C	-0.922935	0.357942	0.000100
N42	N	-0.923793	-0.192711	-0.235248
C43	C	-0.976871	-0.135949	0.287516
C44	C	-0.976876	-0.135948	0.391619
C45	C	-0.923768	-0.192694	0.443670
C46	C	-0.870646	-0.249438	0.391613
C47	C	-0.870638	-0.249433	0.287511
C48	C	-0.870667	-0.249446	0.608593
C49	C	-0.870676	-0.249452	0.712701
C50	C	-0.976906	-0.135961	0.712701
C51	C	-0.976898	-0.135956	0.608599
C52	C	-0.923777	-0.192701	0.556549
H53	H	-0.669662	-0.325813	0.000066
Cl54	Cl	-0.767127	0.045972	0.000076
Cl55	Cl	-1.080419	0.568616	0.000116
H56	H	-0.795537	0.238461	0.000072
H57	H	-1.020121	-0.089743	0.245143
Cl58	Cl	-0.803882	-0.320782	0.543162
H59	H	-1.053965	0.257485	0.000125
H60	H	-0.425682	-0.298176	0.000108
H61	H	-0.555252	-0.018421	0.000131
H62	H	-0.421851	-0.087226	0.000149
H63	H	-1.020146	-0.089754	0.566220
H64	H	-1.052010	0.376138	0.000128
Cl65	Cl	-1.088648	0.069661	0.000151
H66	H	-0.827429	-0.295659	0.755076
Cl67	Cl	-0.163906	-0.022071	0.000169
Cl68	Cl	-0.803876	-0.320773	0.457046
H69	H	-1.020127	-0.089745	0.433998
H70	H	-0.790780	0.526573	0.000089
Cl71	Cl	-0.762371	0.334089	0.000071
H72	H	-0.292283	-0.366988	0.000084
Cl73	Cl	-0.803857	-0.320765	0.222078
H74	H	-0.521707	-0.311535	0.000085
H75	H	-0.325831	-0.073865	0.000140
Cl76	Cl	-1.043687	-0.064627	0.778139
H77	H	-0.144317	-0.352708	0.000109
H78	H	-0.703221	-0.032692	0.000103
