data_functionalizedCrystal
_audit_creation_method	'MofGen! by Chris Wilmer'
_symmetry_space_group_name_H-M	'P1'
_symmetry_Int_Tables_number	1
_symmetry_cell_setting	triclinic
loop_
_symmetry_equiv_pos_as_xyz
  x,y,z
_cell_length_a	18.215407
_cell_length_b	13.897448
_cell_length_c	13.897449
_cell_angle_alpha	90.009266
_cell_angle_beta	90.005175
_cell_angle_gamma	90.018140
loop_
_atom_site_label
_atom_site_type_symbol
_atom_site_fract_x
_atom_site_fract_y
_atom_site_fract_z
Zn1	Zn	1.125002	-0.384176	0.545414
Zn2	Zn	1.124958	-0.545437	0.384116
Zn3	Zn	1.001966	-0.384159	0.384129
Zn4	Zn	1.001916	-0.545432	0.545365
O5	O	1.063461	-0.464801	0.464756
O6	O	1.227981	-0.405577	0.524033
O7	O	1.108645	-0.524039	0.249136
O8	O	1.018327	-0.249180	0.405550
O9	O	1.227948	-0.524055	0.405528
O10	O	1.108721	-0.249192	0.524046
O11	O	1.018284	-0.405549	0.249146
O12	O	0.898975	-0.405543	0.405502
O13	O	1.018241	-0.524045	0.680353
O14	O	0.898939	-0.524029	0.523961
O15	O	1.108672	-0.405571	0.680389
O16	O	1.108596	-0.680418	0.405479
O17	O	1.018198	-0.680414	0.523948
C18	C	0.872254	-0.464784	0.464728
C19	C	0.790455	-0.464801	0.464739
C20	C	0.602262	-0.526593	0.526343
C21	C	0.525403	-0.526596	0.526355
C22	C	0.525412	-0.403026	0.403189
C23	C	0.602269	-0.403019	0.403183
C24	C	0.640692	-0.464808	0.464759
C25	C	0.486976	-0.464818	0.464777
C26	C	0.403642	-0.464821	0.464790
C27	C	0.724031	-0.464804	0.464748
C28	C	1.063407	-0.715415	0.464728
C29	C	1.063451	-0.822629	0.464748
C30	C	1.063528	-1.018924	0.464809
C31	C	1.063483	-0.909692	0.464778
C32	C	1.255413	-0.464818	0.464784
C33	C	1.337212	-0.464826	0.464796
C34	C	1.063456	-0.464809	0.716349
C35	C	1.063454	-0.464813	0.823563
C36	C	1.063535	-0.213208	0.464805
C37	C	1.063566	-0.105994	0.464826
C38	C	1.063452	-0.464817	0.910633
C39	C	1.063452	-0.464812	1.019865
C40	C	1.063458	-0.464812	1.214142
C41	C	1.063455	-0.464803	1.106928
H42	H	0.633560	-0.352700	0.353033
N43	N	0.643703	-0.593226	0.592764
H44	H	0.698223	-0.583851	0.583415
H45	H	0.630251	-0.662093	0.577634
N46	N	0.483951	-0.593242	0.592771
H47	H	0.497339	-0.578375	0.661716
H48	H	0.497329	-0.662108	0.577580
N49	N	0.483970	-0.336410	0.336753
H50	H	0.429449	-0.345799	0.346091
H51	H	0.497405	-0.351340	0.267846
