data_functionalizedCrystal
_audit_creation_method	'MofGen! by Chris Wilmer'
_symmetry_space_group_name_H-M	'P1'
_symmetry_Int_Tables_number	1
_symmetry_cell_setting	triclinic
loop_
_symmetry_equiv_pos_as_xyz
  x,y,z
_cell_length_a	19.805405
_cell_length_b	21.395362
_cell_length_c	21.395356
_cell_angle_alpha	90.042977
_cell_angle_beta	89.970920
_cell_angle_gamma	89.957712
loop_
_atom_site_label
_atom_site_type_symbol
_atom_site_fract_x
_atom_site_fract_y
_atom_site_fract_z
Zn1	Zn	-0.269193	-0.957872	-0.354580
Zn2	Zn	0.230807	-0.457872	0.145420
Zn3	Zn	-0.382381	-0.957784	-0.249800
Zn4	Zn	0.117619	-0.457784	0.250200
Zn5	Zn	-0.269243	-0.853089	-0.249781
Zn6	Zn	0.230757	-0.353089	0.250219
Zn7	Zn	-0.382377	-0.853064	-0.354504
Zn8	Zn	0.117623	-0.353064	0.145496
O9	O	-0.325799	-0.905452	-0.302166
O10	O	0.174201	-0.405452	0.197834
O11	O	-0.284189	-1.045539	-0.340720
O12	O	0.215811	-0.545539	0.159280
O13	O	-0.367396	-0.943870	-0.162119
O14	O	0.132604	-0.443870	0.337881
O15	O	-0.174520	-0.867036	-0.263706
O16	O	0.325480	-0.367036	0.236294
O17	O	-0.367348	-1.045474	-0.263738
O18	O	0.132652	-0.545474	0.236262
O19	O	-0.174483	-0.944020	-0.340701
O20	O	0.325517	-0.444020	0.159299
O21	O	-0.284274	-0.866951	-0.162105
O22	O	0.215726	-0.366951	0.337895
O23	O	-0.284270	-0.765408	-0.263633
O24	O	0.215730	-0.265408	0.236367
O25	O	-0.367341	-0.866994	-0.442192
O26	O	0.132659	-0.366994	0.057808
O27	O	-0.367389	-0.765390	-0.340573
O28	O	0.132611	-0.265390	0.159427
O29	O	-0.284185	-0.943996	-0.442247
O30	O	0.215815	-0.443996	0.057753
O31	O	-0.477097	-0.943846	-0.263665
O32	O	0.022903	-0.443846	0.236335
O33	O	-0.477094	-0.866908	-0.340591
O34	O	0.022906	-0.366908	0.159409
C35	C	-0.325835	-0.742665	-0.302093
C36	C	0.174165	-0.242665	0.197907
C37	C	-0.325866	-0.673024	-0.302077
C38	C	0.174134	-0.173024	0.197923
C39	C	-0.501655	-0.905382	-0.302136
C40	C	-0.001655	-0.405382	0.197864
C41	C	-0.576887	-0.905409	-0.302144
C42	C	-0.076887	-0.405409	0.197856
C43	C	-0.325757	-0.905502	-0.465589
C44	C	0.174243	-0.405502	0.034411
C45	C	-0.325739	-0.905523	-0.535231
C46	C	0.174261	-0.405523	-0.035231
C47	C	-0.612210	-0.945509	-0.262130
C48	C	-0.112210	-0.445509	0.237870
C49	C	-0.682898	-0.945536	-0.262144
C50	C	-0.182898	-0.445536	0.237856
C51	C	-0.718262	-0.905459	-0.302169
C52	C	-0.218262	-0.405459	0.197831
C53	C	-0.682934	-0.865357	-0.342187
C54	C	-0.182934	-0.365357	0.157813
C55	C	-0.612247	-0.865334	-0.342175
C56	C	-0.112247	-0.365334	0.157825
C57	C	-0.968007	-0.865449	-0.342233
C58	C	-0.468007	-0.365449	0.157767
C59	C	-1.038699	-0.865474	-0.342240
C60	C	-0.538699	-0.365474	0.157760
C61	C	-1.038659	-0.945651	-0.262202
C62	C	-0.538659	-0.445651	0.237798
C63	C	-0.967972	-0.945628	-0.262191
C64	C	-0.467972	-0.445628	0.237809
C65	C	-0.932650	-0.905529	-0.302210
C66	C	-0.432650	-0.405529	0.197790
C67	C	-0.856001	-0.905501	-0.302196
C68	C	-0.356001	-0.405501	0.197804
C69	C	-0.794909	-0.905483	-0.302181
C70	C	-0.294909	-0.405483	0.197819
C71	C	-0.149256	-0.905540	-0.302210
C72	C	0.350744	-0.405540	0.197790
C73	C	-0.074024	-0.905578	-0.302229
C74	C	0.425976	-0.405578	0.197771
C75	C	-0.325763	-1.068876	-0.302239
C76	C	0.174237	-0.568876	0.197761
C77	C	-0.325748	-1.138517	-0.302271
C78	C	0.174252	-0.638517	0.197729
C79	C	-0.369204	-0.640317	-0.342080
C80	C	0.130796	-0.140317	0.157920
C81	C	-0.369187	-0.574882	-0.342108
C82	C	0.130813	-0.074882	0.157892
C83	C	-0.325840	-0.542155	-0.302122
C84	C	0.174160	-0.042155	0.197878
C85	C	-0.282494	-0.574869	-0.262116
C86	C	0.217506	-0.074869	0.237884
C87	C	-0.282507	-0.640303	-0.262094
C88	C	0.217493	-0.140303	0.237906
C89	C	-0.320397	-0.438431	-0.245717
C90	C	0.179603	0.061569	0.254283
C91	C	-0.320389	-0.372998	-0.245738
C92	C	0.179611	0.127002	0.254262
C93	C	-0.325796	-0.340335	-0.302191
C94	C	0.174204	0.159665	0.197809
C95	C	-0.331225	-0.373112	-0.358624
C96	C	0.168775	0.126888	0.141376
C97	C	-0.331239	-0.438546	-0.358602
C98	C	0.168761	0.061454	0.141398
C99	C	-0.325821	-0.471203	-0.302142
C100	C	0.174179	0.028797	0.197858
C101	C	-0.369118	-0.236676	-0.342227
C102	C	0.130882	0.263324	0.157773
C103	C	-0.369096	-0.171239	-0.342256
C104	C	0.130904	0.328761	0.157744
C105	C	-0.282407	-0.171228	-0.262259
C106	C	0.217593	0.328772	0.237741
C107	C	-0.282425	-0.236663	-0.262236
C108	C	0.217575	0.263337	0.237764
C109	C	-0.325784	-0.269383	-0.302219
C110	C	0.174216	0.230617	0.197781
C111	C	-0.282452	-0.865482	-0.567927
C112	C	0.217548	-0.365482	-0.067927
C113	C	-0.282440	-0.865479	-0.633362
C114	C	0.217560	-0.365479	-0.133362
C115	C	-0.325707	-0.905530	-0.666099
C116	C	0.174293	-0.405530	-0.166099
C117	C	-0.369002	-0.945574	-0.633395
C118	C	0.130998	-0.445574	-0.133395
C119	C	-0.369018	-0.945570	-0.567961
C120	C	0.130982	-0.445570	-0.067961
C121	C	-0.331011	-0.961982	-0.769804
C122	C	0.168989	-0.461982	-0.269804
C123	C	-0.330990	-0.961987	-0.835237
C124	C	0.169010	-0.461987	-0.335237
C125	C	-0.325661	-0.905540	-0.867920
C126	C	0.174339	-0.405540	-0.367920
C127	C	-0.320338	-0.849087	-0.835161
C128	C	0.179662	-0.349087	-0.335161
C129	C	-0.320354	-0.849084	-0.769727
C130	C	0.179646	-0.349084	-0.269727
C131	C	-0.325694	-0.905538	-0.737051
C132	C	0.174306	-0.405538	-0.237051
C133	C	-0.282358	-0.865493	-0.971569
C134	C	0.217642	-0.365493	-0.471569
C135	C	-0.282351	-0.865490	-1.037005
C136	C	0.217649	-0.365490	-0.537005
C137	C	-0.368909	-0.945590	-1.037037
C138	C	0.131091	-0.445590	-0.537037
C139	C	-0.368920	-0.945587	-0.971601
C140	C	0.131080	-0.445587	-0.471601
C141	C	-0.325642	-0.905540	-0.938871
C142	C	0.174358	-0.405540	-0.438871
C143	C	-0.325792	-0.905439	-0.139378
C144	C	0.174208	-0.405439	0.360622
C145	C	-0.325619	-0.905540	-0.069738
C146	C	0.174381	-0.405540	0.430262
H147	H	-0.583421	-0.978142	-0.229535
H148	H	-0.083421	-0.478142	0.270465
Br149	Br	-0.313134	-0.772474	-0.725271
Br150	Br	0.186866	-0.272474	-0.225271
H151	H	-0.335345	-1.007951	-0.743200
H152	H	0.164655	-0.507951	-0.243200
Br153	Br	-0.338562	-0.328792	-0.435245
Br154	Br	0.161438	0.171208	0.064755
H155	H	-0.711733	-0.832728	-0.374778
H156	H	-0.211733	-0.332728	0.125222
H157	H	-0.247199	-0.548219	-0.229561
H158	H	0.252801	-0.048219	0.270439
H159	H	-0.315994	-0.803123	-0.861770
H160	H	0.184006	-0.303123	-0.361770
H161	H	-0.404477	-0.548247	-0.374685
H162	H	0.095523	-0.048247	0.125315
Br163	Br	-1.086693	-0.811079	-0.396562
Br164	Br	-0.586693	-0.311079	0.103438
H165	H	-0.939254	-0.832798	-0.374817
H166	H	-0.439254	-0.332798	0.125183
Br167	Br	-0.427957	-0.281086	-0.396491
Br168	Br	0.072043	0.218914	0.103509
Br169	Br	-0.427727	-0.999923	-0.677822
Br170	Br	0.072273	-0.499923	-0.177822
Br171	Br	-0.730835	-0.999964	-0.207841
Br172	Br	-0.230835	-0.499964	0.292159
H173	H	-0.583487	-0.832681	-0.374759
H174	H	-0.083487	-0.332681	0.125241
H175	H	-0.404509	-0.666954	-0.374638
H176	H	0.095491	-0.166954	0.125362
H177	H	-0.247104	-0.832879	-1.063625
H178	H	0.252896	-0.332879	-0.563625
Br179	Br	-0.223627	-0.811142	-0.927145
Br180	Br	0.276373	-0.311142	-0.427145
H181	H	-0.335657	-0.465231	-0.404552
H182	H	0.164343	0.034769	0.095448
Br183	Br	-0.223571	-0.126820	-0.207997
Br184	Br	0.276429	0.373180	0.292003
Br185	Br	-0.427911	-0.126851	-0.396556
Br186	Br	0.072089	0.373149	0.103444
Br187	Br	-0.223719	-0.811130	-0.523510
Br188	Br	0.276281	-0.311130	-0.023510
H189	H	-0.404168	-0.978195	-0.944980
H190	H	0.095832	-0.478195	-0.444980
H191	H	-0.247138	-0.263293	-0.229658
H192	H	0.252862	0.236707	0.270342
Br193	Br	-0.313022	-0.328521	-0.169151
Br194	Br	0.186978	0.171479	0.330849
Br195	Br	-0.427769	-0.999916	-0.523584
Br196	Br	0.072231	-0.499916	-0.023584
Br197	Br	-0.223686	-0.684694	-0.207802
Br198	Br	0.276314	-0.184694	0.292198
Br199	Br	-0.427637	-0.999939	-1.081458
Br200	Br	0.072363	-0.499939	-0.581458
Br201	Br	-0.919981	-1.000020	-0.207869
Br202	Br	-0.419981	-0.500020	0.292131
Br203	Br	-1.086599	-1.000075	-0.207890
Br204	Br	-0.586599	-0.500075	0.292110
H205	H	-0.335321	-1.007954	-0.861904
H206	H	0.164679	-0.507954	-0.361904
H207	H	-0.315991	-0.465020	-0.199743
H208	H	0.184009	0.034980	0.300257
Br209	Br	-0.223674	-0.811148	-0.677746
Br210	Br	0.276326	-0.311148	-0.177746
