data_functionalizedCrystal
_audit_creation_method	'MofGen! by Chris Wilmer'
_symmetry_space_group_name_H-M	'P1'
_symmetry_Int_Tables_number	1
_symmetry_cell_setting	triclinic
loop_
_symmetry_equiv_pos_as_xyz
  x,y,z
_cell_length_a	15.944493
_cell_length_b	27.731996
_cell_length_c	15.021413
_cell_angle_alpha	89.998029
_cell_angle_beta	89.993251
_cell_angle_gamma	83.048216
loop_
_atom_site_label
_atom_site_type_symbol
_atom_site_fract_x
_atom_site_fract_y
_atom_site_fract_z
O1	O	1.113726	0.062202	-0.074032
O2	O	0.869066	0.069917	-0.074038
O3	O	0.999017	-0.004307	-0.074016
O4	O	0.983774	0.136426	-0.074054
O5	O	0.998996	-0.004296	0.074049
O6	O	0.869045	0.069928	0.074026
O7	O	1.113705	0.062213	0.074032
Zn8	Zn	0.991372	0.066072	0.097538
Zn9	Zn	0.991399	0.066058	-0.097543
O10	O	0.983754	0.136437	0.074010
C11	C	0.837765	0.069607	-0.000006
C12	C	0.744529	0.068662	-0.000008
C13	C	0.508183	0.112352	-0.000020
C14	C	0.457931	0.088797	0.072993
C15	C	0.573831	0.066910	-0.000005
C16	C	0.457956	0.088776	-0.072986
C17	C	0.408944	0.065222	-0.000007
C18	C	0.524807	0.043367	0.073068
C19	C	0.524835	0.043353	-0.072977
C20	C	0.474616	0.019764	0.000055
C21	C	0.668818	0.067884	-0.000004
C22	C	0.313960	0.064244	-0.000003
C23	C	0.998694	-0.022310	0.000020
C24	C	0.997750	-0.075970	0.000029
C25	C	0.991828	-0.408717	-0.080725
C26	C	0.988247	-0.610391	-0.080741
O27	O	0.987757	-0.636468	-0.149382
N28	N	0.987790	-0.635604	-0.000032
C29	C	0.988224	-0.610395	0.080687
O30	O	0.987745	-0.636468	0.149335
C31	C	0.991800	-0.408722	0.080702
C32	C	0.992264	-0.383512	-0.000012
C33	C	0.992292	-0.383507	-0.161433
C34	C	0.993192	-0.333092	-0.161428
C35	C	0.993628	-0.307887	-0.080715
C36	C	0.993164	-0.333098	-0.000008
C37	C	0.992227	-0.383514	0.161420
C38	C	0.993119	-0.333093	0.161416
C39	C	0.993584	-0.307883	0.080702
C40	C	0.994500	-0.257478	0.080710
N41	N	0.994956	-0.232264	0.000001
C42	C	0.994520	-0.257469	-0.080712
C43	C	0.986349	-0.716277	0.080674
C44	C	0.985456	-0.766695	0.080670
C45	C	0.985477	-0.766686	-0.080758
C46	C	0.986376	-0.716268	-0.080753
C47	C	0.986805	-0.691063	-0.000035
C48	C	0.996411	-0.151594	-0.080696
C49	C	0.997314	-0.101175	-0.080684
C50	C	0.997289	-0.101187	0.080744
C51	C	0.996390	-0.151603	0.080732
C52	C	0.995948	-0.176805	0.000005
O53	O	0.994981	-0.231368	0.149315
O54	O	0.994980	-0.231387	-0.149349
C55	C	0.990928	-0.459132	-0.080730
C56	C	0.990464	-0.484342	-0.000022
C57	C	0.990901	-0.459138	0.080691
C58	C	0.989572	-0.534761	-0.000025
C59	C	0.989136	-0.559965	-0.080738
C60	C	0.989592	-0.534752	-0.161447
C61	C	0.990492	-0.484337	-0.161442
C62	C	0.990445	-0.484351	0.161400
C63	C	0.989546	-0.534766	0.161388
C64	C	0.989109	-0.559971	0.080676
C65	C	1.145006	0.062523	-0.000002
C66	C	1.238242	0.063468	-0.000006
C67	C	0.984077	0.154440	-0.000027
C68	C	0.985020	0.208100	-0.000042
N69	N	0.991359	0.066081	0.230675
N70	N	0.991418	0.066045	-0.230681
C71	C	0.931261	0.100386	0.470348
C72	C	1.007038	0.109762	0.529681
C73	C	0.991381	0.066069	0.412282
C74	C	0.915625	0.056705	0.529691
C75	C	0.991395	0.066059	0.587706
C76	C	1.067196	0.075466	0.470309
C77	C	0.975733	0.022390	0.470313
C78	C	1.051565	0.031747	0.529619
C79	C	0.991372	0.066077	0.311225
C80	C	0.991413	0.066051	0.688761
H81	H	0.997694	-0.080652	-0.146414
O82	O	0.989305	-0.559227	-0.239879
C83	C	1.062287	-0.552387	-0.289007
H84	H	1.113408	-0.542367	-0.241794
H85	H	1.046356	-0.521880	-0.339330
C86	C	1.031685	-0.611969	-0.396461
C87	C	1.094475	-0.599667	-0.338471
H88	H	1.051539	-0.641133	-0.426977
H89	H	0.982514	-0.616576	-0.363365
H90	H	1.018415	-0.586543	-0.438389
H91	H	1.107736	-0.625090	-0.296539
H92	H	1.143650	-0.595065	-0.371562
H93	H	0.554047	0.024172	-0.134696
H94	H	0.553883	0.024193	0.134857
O95	O	0.870568	0.135006	0.439397
C96	C	0.790905	0.125510	0.470930
H97	H	0.799503	0.102450	0.533840
H98	H	0.758242	0.105117	0.417789
C99	C	0.725832	0.202160	0.414912
C100	C	0.736392	0.173840	0.492183
H101	H	0.692204	0.231972	0.428018
H102	H	0.779502	0.208557	0.393664
H103	H	0.698616	0.185160	0.370635
H104	H	0.763617	0.190837	0.536454
H105	H	0.682725	0.167447	0.513439
O106	O	0.993649	-0.308568	0.239775
C107	C	1.066953	-0.284900	0.244636
H108	H	1.091366	-0.279167	0.174564
H109	H	1.117558	-0.308176	0.284465
C110	C	1.015702	-0.242388	0.376859
C111	C	1.045683	-0.235343	0.290796
H112	H	1.002585	-0.211820	0.405336
H113	H	0.966318	-0.258334	0.373587
H114	H	1.057879	-0.261786	0.410039
H115	H	1.003504	-0.215950	0.257614
H116	H	1.095061	-0.219392	0.294064
O117	O	0.993437	-0.308562	-0.239803
C118	C	0.921120	-0.273955	-0.244592
H119	H	0.897066	-0.264552	-0.174493
H120	H	0.869794	-0.289588	-0.284311
C121	C	0.973497	-0.239282	-0.376956
C122	C	0.943957	-0.227731	-0.290859
H123	H	0.987581	-0.210770	-0.405499
H124	H	1.022217	-0.262599	-0.373732
H125	H	0.930720	-0.252311	-0.410044
H126	H	0.986738	-0.214708	-0.257770
H127	H	0.895245	-0.204411	-0.294078
O128	O	0.990781	-0.459799	-0.239805
C129	C	0.918489	-0.425176	-0.244625
H130	H	0.894393	-0.415781	-0.174538
H131	H	0.867175	-0.440789	-0.284396
C132	C	0.970980	-0.390494	-0.376921
C133	C	0.941390	-0.378951	-0.290839
H134	H	0.985105	-0.361981	-0.405432
H135	H	1.019684	-0.413821	-0.373677
H136	H	0.928214	-0.403506	-0.410053
H137	H	0.984160	-0.365945	-0.257706
H138	H	0.892694	-0.355620	-0.294079
H139	H	1.020286	0.146695	0.555758
O140	O	1.143699	0.084889	0.439349
C141	C	1.207035	0.048889	0.470246
H142	H	1.177617	0.014565	0.487278
H143	H	1.237880	0.062620	0.532246
C144	C	1.310421	0.079540	0.376319
C145	C	1.274291	0.037381	0.397230
H146	H	1.351911	0.072443	0.331282
H147	H	1.267752	0.103796	0.355505
H148	H	1.336119	0.090979	0.427992
H149	H	1.248585	0.025948	0.345561
H150	H	1.316957	0.013124	0.418034
O151	O	0.526170	0.159054	0.000205
C152	C	0.491907	0.182849	0.077308
H153	H	0.482975	0.154784	0.130847
H154	H	0.428234	0.204248	0.060648
C155	C	0.563525	0.252314	0.045953
C156	C	0.552562	0.217845	0.111714
H157	H	0.600938	0.273903	0.067175
H158	H	0.586607	0.236284	-0.005994
H159	H	0.510460	0.270141	0.032076
H160	H	0.605625	0.200014	0.125582
H161	H	0.529491	0.233872	0.163665
O162	O	0.423234	0.111737	-0.146602
C163	C	0.439940	0.160514	-0.146328
H164	H	0.497959	0.164032	-0.103582
H165	H	0.383204	0.184553	-0.117852
C166	C	0.385199	0.172248	-0.294736
C167	C	0.456463	0.176569	-0.242241
H168	H	0.395387	0.182153	-0.353900
H169	H	0.373940	0.139387	-0.294920
H170	H	0.337925	0.192281	-0.270996
H171	H	0.503732	0.156532	-0.265975
H172	H	0.467730	0.209427	-0.242063
O173	O	0.422973	0.111740	0.146523
C174	C	0.363643	0.151033	0.120302
H175	H	0.340720	0.144447	0.049964
H176	H	0.394570	0.186001	0.121687
C177	C	0.316176	0.163705	0.271195
C178	C	0.288016	0.155614	0.184807
H179	H	0.269527	0.166532	0.310986
H180	H	0.356149	0.137234	0.288862
H181	H	0.341949	0.192844	0.272337
H182	H	0.262254	0.126473	0.183664
H183	H	0.248037	0.182080	0.167142
H184	H	1.102468	0.002720	0.555480
O185	O	0.959754	-0.021637	0.439212
C186	C	0.879783	-0.031368	0.469433
H187	H	0.839438	0.004273	0.486116
H188	H	0.887779	-0.055133	0.531507
C189	C	0.885675	-0.101813	0.375567
C190	C	0.836121	-0.058038	0.396050
H191	H	0.858743	-0.118266	0.330303
H192	H	0.939554	-0.095258	0.355208
H193	H	0.892335	-0.121611	0.427301
H194	H	0.829471	-0.038238	0.344319
H195	H	0.782239	-0.064590	0.416398
H196	H	0.851553	0.048789	0.555777
H197	H	0.986702	-0.695760	0.146408
O198	O	0.991983	-0.408048	-0.239787
C199	C	1.064257	-0.442685	-0.244631
H200	H	1.088370	-0.452076	-0.174554
H201	H	1.115569	-0.427086	-0.284445
C202	C	1.011701	-0.477371	-0.376873
C203	C	1.041313	-0.488908	-0.290803
H204	H	0.997551	-0.505884	-0.405357
H205	H	0.963010	-0.454035	-0.373612
H206	H	1.054466	-0.464372	-0.410040
H207	H	0.998545	-0.501902	-0.257634
H208	H	1.089997	-0.512248	-0.294059
H209	H	0.991850	-0.404032	0.227146
O210	O	0.997557	-0.076661	0.159117
C211	C	0.925305	-0.042006	0.163907
H212	H	0.874185	-0.053374	0.118100
H213	H	0.942440	-0.005037	0.142209
C214	C	0.955076	-0.024770	0.316589
C215	C	0.892287	-0.038735	0.260333
H216	H	0.934709	-0.022749	0.376069
H217	H	1.003755	-0.048116	0.313361
H218	H	0.969349	0.006036	0.298497
H219	H	0.878022	-0.069542	0.278419
H220	H	0.843604	-0.015393	0.263566
O221	O	0.986782	-0.691852	-0.159238
C222	C	0.986231	-0.724919	-0.230471
H223	H	0.958991	-0.758854	-0.206805
H224	H	1.053553	-0.735359	-0.255285
C225	C	0.964939	-0.659413	-0.335799
C226	C	0.931475	-0.701092	-0.306734
H227	H	0.931167	-0.644716	-0.382844
H228	H	0.965313	-0.637136	-0.287809
H229	H	1.021040	-0.668120	-0.356471
H230	H	0.875379	-0.692384	-0.286052
H231	H	0.931090	-0.723367	-0.354723
H232	H	0.996047	-0.172108	-0.146431
O233	O	0.456937	-0.026996	0.000159
C234	C	0.533014	-0.058738	0.000907
H235	H	0.585803	-0.039050	0.029281
H236	H	0.549800	-0.071123	-0.069934
C237	C	0.457294	-0.127458	0.024243
C238	C	0.522129	-0.103278	0.059099
H239	H	0.450580	-0.154934	0.060134
H240	H	0.406039	-0.106073	0.023735
H241	H	0.471291	-0.137774	-0.034791
H242	H	0.508127	-0.092957	0.118127
H243	H	0.573382	-0.124663	0.059618
O244	O	0.984898	-0.791185	-0.159140
C245	C	0.911614	-0.814874	-0.163944
H246	H	0.861019	-0.795844	-0.118139
H247	H	0.927389	-0.854323	-0.142253
C248	C	0.940742	-0.836539	-0.316627
C249	C	0.878598	-0.813163	-0.260374
H250	H	0.920377	-0.835486	-0.376109
H251	H	0.990117	-0.820581	-0.313390
H252	H	0.953882	-0.869411	-0.298540
H253	H	0.865467	-0.780290	-0.278454
H254	H	0.829220	-0.829115	-0.263616
O255	O	0.984979	-0.791104	0.159156
C256	C	0.985575	-0.758041	0.230389
H257	H	0.959613	-0.720097	0.206720
H258	H	1.053080	-0.757759	0.255209
C259	C	0.961994	-0.820166	0.335714
C260	C	0.930100	-0.773563	0.306646
H261	H	0.927778	-0.829741	0.382756
H262	H	0.961595	-0.842441	0.287724
H263	H	1.018247	-0.819924	0.356392
H264	H	0.873852	-0.773807	0.285959
H265	H	0.930488	-0.751288	0.354635
H266	H	0.996019	-0.172130	0.146456
H267	H	0.989174	-0.555288	0.227121
H268	H	0.990801	-0.463834	0.227127
