data_functionalizedCrystal
_audit_creation_method	'MofGen! by Chris Wilmer'
_symmetry_space_group_name_H-M	'P1'
_symmetry_Int_Tables_number	1
_symmetry_cell_setting	triclinic
loop_
_symmetry_equiv_pos_as_xyz
  x,y,z
_cell_length_a	18.215405
_cell_length_b	11.169417
_cell_length_c	11.169409
_cell_angle_alpha	90.022423
_cell_angle_beta	89.960260
_cell_angle_gamma	89.976177
loop_
_atom_site_label
_atom_site_type_symbol
_atom_site_fract_x
_atom_site_fract_y
_atom_site_fract_z
Zn1	Zn	-0.292946	-1.834850	-0.678540
Zn2	Zn	0.040387	-1.501516	-0.345207
Zn3	Zn	0.373721	-1.168183	-0.011873
Zn4	Zn	-0.416037	-1.834686	-0.477831
Zn5	Zn	-0.082704	-1.501352	-0.144497
Zn6	Zn	0.250630	-1.168019	0.188836
Zn7	Zn	-0.292987	-1.634133	-0.477868
Zn8	Zn	0.040347	-1.300800	-0.144535
Zn9	Zn	0.373680	-0.967466	0.188799
Zn10	Zn	-0.415973	-1.634092	-0.678469
Zn11	Zn	-0.082640	-1.300759	-0.345136
Zn12	Zn	0.250694	-0.967426	-0.011802
O13	O	-0.354486	-1.734440	-0.578177
O14	O	-0.021152	-1.401107	-0.244844
O15	O	0.312181	-1.067773	0.088490
O16	O	-0.309284	-2.002778	-0.651930
O17	O	0.024049	-1.669444	-0.318596
O18	O	0.357383	-1.336111	0.014737
O19	O	-0.399758	-1.808030	-0.309886
O20	O	-0.066424	-1.474697	0.023448
O21	O	0.266909	-1.141364	0.356781
O22	O	-0.189997	-1.660844	-0.504533
O23	O	0.143336	-1.327511	-0.171199
O24	O	0.476670	-0.994178	0.162134
O25	O	-0.399718	-2.002657	-0.504469
O26	O	-0.066385	-1.669324	-0.171136
O27	O	0.266948	-1.335990	0.162197
O28	O	-0.189967	-1.808310	-0.651966
O29	O	0.143366	-1.474977	-0.318632
O30	O	0.476700	-1.141643	0.014701
O31	O	-0.309353	-1.660685	-0.309913
O32	O	0.023980	-1.327352	0.023420
O33	O	0.357313	-0.994018	0.356754
O34	O	-0.309291	-1.466178	-0.504464
O35	O	0.024042	-1.132845	-0.171131
O36	O	0.357376	-0.799511	0.162203
O37	O	-0.399609	-1.660775	-0.846428
O38	O	-0.066276	-1.327441	-0.513095
O39	O	0.267057	-0.994108	-0.179762
O40	O	-0.399649	-1.466148	-0.651845
O41	O	-0.066315	-1.132815	-0.318511
O42	O	0.267018	-0.799481	0.014822
O43	O	-0.309222	-1.808270	-0.846480
O44	O	0.024111	-1.474937	-0.513147
O45	O	0.357445	-1.141604	-0.179814
O46	O	-0.519013	-1.807991	-0.504401
O47	O	-0.185679	-1.474657	-0.171067
O48	O	0.147654	-1.141324	0.162266
O49	O	-0.518966	-1.660616	-0.651809
O50	O	-0.185632	-1.327282	-0.318475
O51	O	0.147701	-0.993949	0.014858
C52	C	-0.354468	-1.422615	-0.578151
C53	C	-0.021135	-1.089282	-0.244818
C54	C	0.312199	-0.755949	0.088515
C55	C	-0.354478	-1.289215	-0.578169
C56	C	-0.021145	-0.955882	-0.244836
C57	C	0.312189	-0.622549	0.088498
C58	C	-0.545692	-1.734313	-0.578119
C59	C	-0.212359	-1.400980	-0.244786
C60	C	0.120975	-1.067647	0.088547
C61	C	-0.627491	-1.734369	-0.578135
C62	C	-0.294157	-1.401036	-0.244801
C63	C	0.039176	-1.067702	0.088532
C64	C	-0.815685	-1.811287	-0.501520
C65	C	-0.482351	-1.477954	-0.168187
C66	C	-0.149018	-1.144621	0.165146
C67	C	-0.892543	-1.811341	-0.501550
C68	C	-0.559210	-1.478008	-0.168216
C69	C	-0.225877	-1.144674	0.165117
C70	C	-0.892534	-1.657746	-0.654920
C71	C	-0.559201	-1.324413	-0.321586
C72	C	-0.225868	-0.991080	0.011747
C73	C	-0.815677	-1.657700	-0.654896
C74	C	-0.482344	-1.324366	-0.321562
C75	C	-0.149010	-0.991033	0.011771
C76	C	-0.777254	-1.734468	-0.578189
C77	C	-0.443921	-1.401135	-0.244856
C78	C	-0.110588	-1.067802	0.088477
C79	C	-0.930970	-1.734569	-0.578242
C80	C	-0.597637	-1.401235	-0.244909
C81	C	-0.264304	-1.067902	0.088424
C82	C	-1.014304	-1.734626	-0.578274
C83	C	-0.680971	-1.401293	-0.244941
C84	C	-0.347637	-1.067960	0.088392
C85	C	-0.693915	-1.734413	-0.578159
C86	C	-0.360582	-1.401079	-0.244825
C87	C	-0.027249	-1.067746	0.088508
C88	C	-0.162533	-1.734600	-0.578261
C89	C	0.170801	-1.401267	-0.244928
C90	C	0.504134	-1.067933	0.088406
C91	C	-0.080734	-1.734668	-0.578297
C92	C	0.252600	-1.401335	-0.244964
C93	C	0.585933	-1.068002	0.088370
C94	C	-0.354404	-1.734536	-0.891220
C95	C	-0.021071	-1.401203	-0.557886
C96	C	0.312263	-1.067870	-0.224553
C97	C	-0.354369	-1.734577	-1.024620
C98	C	-0.021036	-1.401244	-0.691286
C99	C	0.312297	-1.067911	-0.357953
C100	C	-0.354498	-1.047482	-0.578194
C101	C	-0.021164	-0.714149	-0.244860
C102	C	0.312169	-0.380816	0.088473
C103	C	-0.354487	-1.180882	-0.578177
C104	C	-0.021154	-0.847549	-0.244843
C105	C	0.312180	-0.514216	0.088490
C106	C	-0.354514	-1.734413	-0.266352
C107	C	-0.021180	-1.401080	0.066981
C108	C	0.312153	-1.067747	0.400314
C109	C	-0.354341	-1.734605	-0.132953
C110	C	-0.021008	-1.401272	0.200381
C111	C	0.312326	-1.067938	0.533714
H112	H	-0.784403	-1.873799	-0.439063
H113	H	-0.451069	-1.540466	-0.105730
H114	H	-0.117736	-1.207132	0.227603
H115	H	-0.784385	-1.595144	-0.717335
H116	H	-0.451052	-1.261811	-0.384001
H117	H	-0.117718	-0.928478	-0.050668
O118	O	-0.933998	-1.894205	-0.418869
O119	O	-0.600665	-1.560871	-0.085536
O120	O	-0.267331	-1.227538	0.247797
H121	H	-0.969084	-1.840551	-0.357777
H122	H	-0.635751	-1.507218	-0.024444
H123	H	-0.302418	-1.173884	0.308889
H124	H	-0.923828	-1.595242	-0.717369
H125	H	-0.590494	-1.261909	-0.384036
H126	H	-0.257161	-0.928576	-0.050703
