data_functionalizedCrystal
_audit_creation_method	'MofGen! by Chris Wilmer'
_symmetry_space_group_name_H-M	'P1'
_symmetry_Int_Tables_number	1
_symmetry_cell_setting	triclinic
loop_
_symmetry_equiv_pos_as_xyz
  x,y,z
_cell_length_a	14.044220
_cell_length_b	15.944493
_cell_length_c	12.503572
_cell_angle_alpha	93.528588
_cell_angle_beta	86.164750
_cell_angle_gamma	88.331960
loop_
_atom_site_label
_atom_site_type_symbol
_atom_site_fract_x
_atom_site_fract_y
_atom_site_fract_z
O1	O	1.263130	0.198065	-0.089180
O2	O	1.763130	0.698065	0.410820
O3	O	0.987164	0.190756	-0.089208
O4	O	1.487164	0.690756	0.410792
O5	O	1.132712	0.072699	-0.089202
O6	O	1.632712	0.572699	0.410798
O7	O	1.117582	0.316123	-0.089186
O8	O	1.617582	0.816123	0.410814
O9	O	1.121766	0.081593	0.089439
O10	O	1.621766	0.581593	0.589439
O11	O	0.976218	0.199651	0.089433
O12	O	1.476218	0.699651	0.589433
O13	O	1.252184	0.206960	0.089461
O14	O	1.752184	0.706960	0.589461
Cu15	Cu	1.113201	0.204117	0.105759
Cu16	Cu	1.613201	0.704117	0.605759
Cu17	Cu	1.126146	0.193598	-0.105506
Cu18	Cu	1.626146	0.693598	0.394494
O19	O	1.106636	0.325017	0.089455
O20	O	1.606636	0.825017	0.589455
C21	C	0.946377	0.192005	0.000109
C22	C	1.446377	0.692005	0.500109
C23	C	0.841154	0.182463	0.000097
C24	C	1.341154	0.682463	0.500097
C25	C	1.126621	0.045805	0.000114
C26	C	1.626621	0.545805	0.500114
C27	C	1.124768	-0.047584	0.000100
C28	C	1.624768	0.452416	0.500100
C29	C	0.648494	0.165020	0.000117
C30	C	1.148494	0.665020	0.500117
C31	C	0.590849	0.232692	0.000126
C32	C	1.090849	0.732692	0.500126
C33	C	0.483646	0.222986	0.000138
C34	C	0.983646	0.722986	0.500138
C35	C	0.755707	0.174724	0.000106
C36	C	1.255707	0.674724	0.500106
C37	C	1.210440	-0.276927	0.000129
C38	C	1.710440	0.223073	0.500129
C39	C	1.169636	-0.335340	-0.087955
C40	C	1.669636	0.164660	0.412045
C41	C	1.121332	-0.218561	0.000113
C42	C	1.621332	0.281439	0.500113
C43	C	1.158824	-0.326548	0.088172
C44	C	1.658824	0.173452	0.588172
C45	C	1.118020	-0.383718	0.000130
C46	C	1.618020	0.116282	0.500130
C47	C	1.080557	-0.275748	-0.088044
C48	C	1.580557	0.224252	0.411956
C49	C	1.069753	-0.266948	0.088162
C50	C	1.569753	0.233052	0.588162
C51	C	1.028886	-0.325334	0.000057
C52	C	1.528886	0.174666	0.500057
C53	C	1.123243	-0.123419	0.000102
C54	C	1.623243	0.376581	0.500102
C55	C	1.116102	-0.478858	0.000133
C56	C	1.616102	0.021142	0.500133
C57	C	1.292971	0.205711	0.000142
C58	C	1.792971	0.705711	0.500142
C59	C	1.398195	0.215253	0.000146
C60	C	1.898195	0.715253	0.500146
C61	C	1.112727	0.351911	0.000137
C62	C	1.612727	0.851911	0.500137
C63	C	1.114580	0.445299	0.000144
C64	C	1.614580	0.945299	0.500144
N65	N	1.104103	0.211516	0.254351
N66	N	1.604103	0.711516	0.754351
N67	N	1.135252	0.186194	-0.254097
N68	N	1.635252	0.686194	0.245903
C69	C	1.090720	0.222407	0.473465
C70	C	1.590720	0.722407	0.973465
C71	C	1.148632	0.175306	0.526795
C72	C	1.648632	0.675306	1.026795
C73	C	1.141186	0.181366	0.648718
C74	C	1.641186	0.681366	1.148718
C75	C	1.098166	0.216348	0.351531
C76	C	1.598166	0.716348	0.851531
H77	H	0.622009	0.297917	0.000126
H78	H	1.122009	0.797917	0.500126
Cl79	Cl	0.600388	0.064323	0.000112
Cl80	Cl	1.100388	0.564323	0.500112
H81	H	1.027591	-0.237095	0.162626
H82	H	1.527591	0.262905	0.662626
Cl83	Cl	1.328949	-0.243926	0.000009
Cl84	Cl	1.828949	0.256074	0.500009
Cl85	Cl	1.234178	0.106370	0.455918
Cl86	Cl	1.734178	0.606370	0.955918
Cl87	Cl	1.005544	0.291690	0.544341
Cl88	Cl	1.505544	0.791690	1.044341
Cl89	Cl	1.234779	-0.381407	-0.202916
Cl90	Cl	1.734779	0.118593	0.297084
H91	H	1.047515	-0.253456	-0.162591
H92	H	1.547515	0.246544	0.337409
Cl93	Cl	0.910296	-0.358102	-0.000026
Cl94	Cl	1.410296	0.141898	0.499974
Cl95	Cl	1.209905	-0.361137	0.203139
Cl96	Cl	1.709905	0.138863	0.703139
