data_functionalizedCrystal
_audit_creation_method	'MofGen! by Chris Wilmer'
_symmetry_space_group_name_H-M	'P1'
_symmetry_Int_Tables_number	1
_symmetry_cell_setting	triclinic
loop_
_symmetry_equiv_pos_as_xyz
  x,y,z
_cell_length_a	17.038272
_cell_length_b	15.500218
_cell_length_c	17.038272
_cell_angle_alpha	92.987194
_cell_angle_beta	88.888444
_cell_angle_gamma	87.017880
loop_
_atom_site_label
_atom_site_type_symbol
_atom_site_fract_x
_atom_site_fract_y
_atom_site_fract_z
O1	O	1.052223	-0.071837	-0.174004
O2	O	1.552223	0.428163	0.325996
O3	O	0.824413	-0.071862	-0.171297
O4	O	1.324413	0.428138	0.328703
O5	O	0.936964	-0.071843	-0.058745
O6	O	1.436964	0.428157	0.441255
O7	O	0.939672	-0.071856	-0.286557
O8	O	1.439672	0.428144	0.213443
O9	O	0.930006	0.072046	-0.051795
O10	O	1.430006	0.572046	0.448205
O11	O	0.817455	0.072027	-0.164348
O12	O	1.317455	0.572027	0.335652
O13	O	1.045265	0.072052	-0.167055
O14	O	1.545265	0.572052	0.332945
Cu15	Cu	0.930725	0.085177	-0.165067
Cu16	Cu	1.430725	0.585177	0.334933
Cu17	Cu	0.938953	-0.084988	-0.173285
Cu18	Cu	1.438953	0.415012	0.326715
O19	O	0.932714	0.072033	-0.279607
O20	O	1.432714	0.572033	0.220393
C21	C	0.791641	0.000079	-0.165360
C22	C	1.291641	0.500079	0.334640
C23	C	0.704358	0.000069	-0.158012
C24	C	1.204358	0.500069	0.341988
N25	N	0.924943	0.204862	-0.159286
N26	N	1.424943	0.704862	0.340714
C27	C	0.658749	0.000066	-0.225476
C28	C	1.158749	0.500066	0.274524
C29	C	0.576736	0.000078	-0.218567
C30	C	1.076736	0.500078	0.281433
C31	C	0.540335	0.000088	-0.144193
C32	C	1.040335	0.500088	0.355807
C33	C	0.585950	0.000094	-0.076724
C34	C	1.085950	0.500094	0.423276
C35	C	0.667961	0.000088	-0.083634
C36	C	1.167961	0.500088	0.416366
C37	C	0.292946	0.000112	-0.119781
C38	C	0.792946	0.500112	0.380219
C39	C	0.210929	0.000116	-0.112876
C40	C	0.710929	0.500116	0.387124
C41	C	0.201721	0.000102	-0.254720
C42	C	0.701721	0.500102	0.245280
C43	C	0.283734	0.000091	-0.261623
C44	C	0.783734	0.500091	0.238377
C45	C	0.329342	0.000101	-0.194154
C46	C	0.829342	0.500101	0.305846
C47	C	0.456505	0.000098	-0.137129
C48	C	0.956505	0.500098	0.362871
C49	C	0.413170	0.000098	-0.201219
C50	C	0.913170	0.500098	0.298781
C51	C	0.973553	0.250138	-0.207928
C52	C	1.473553	0.750138	0.292072
C53	C	0.969190	0.340711	-0.203552
C54	C	1.469190	0.840711	0.296448
C55	C	0.916213	0.386007	-0.150538
C56	C	1.416213	0.886007	0.349462
C57	C	0.867600	0.340725	-0.101890
C58	C	1.367600	0.840725	0.398110
C59	C	0.871967	0.250154	-0.106263
C60	C	1.371967	0.750154	0.393737
C61	C	0.900489	0.659474	-0.134789
C62	C	1.400489	1.159474	0.365211
C63	C	0.896124	0.750052	-0.130421
C64	C	1.396124	1.250052	0.369579
C65	C	0.997716	0.750032	-0.232083
C66	C	1.497716	1.250032	0.267917
C67	C	1.002075	0.659458	-0.236454
C68	C	1.502075	1.159458	0.263546
C69	C	0.953465	0.614184	-0.187804
C70	C	1.453465	1.114184	0.312196
C71	C	0.911750	0.478587	-0.146065
C72	C	1.411750	0.978587	0.353935
C73	C	0.957932	0.521606	-0.192273
C74	C	1.457932	1.021606	0.307727
C75	C	1.078037	0.000109	-0.172992
C76	C	1.578037	0.500109	0.327008
C77	C	1.165320	0.000113	-0.180340
C78	C	1.665320	0.500113	0.319660
C79	C	0.931022	0.000101	-0.025977
C80	C	1.431022	0.500101	0.474023
C81	C	0.923674	0.000100	0.061306
C82	C	1.423674	0.500100	0.561306
N83	N	0.944735	0.795327	-0.179063
N84	N	1.444735	1.295327	0.320937
C85	C	0.938656	0.000087	-0.312375
C86	C	1.438656	0.500087	0.187625
C87	C	0.946004	0.000082	-0.399659
C88	C	1.446004	0.500082	0.100341
C89	C	0.991137	0.000109	0.106916
C90	C	1.491137	0.500109	0.606916
C91	C	0.984228	0.000100	0.188927
C92	C	1.484228	0.500100	0.688927
C93	C	0.909856	0.000088	0.225328
C94	C	1.409856	0.500088	0.725328
C95	C	0.842388	0.000077	0.179712
C96	C	1.342388	0.500077	0.679712
C97	C	0.849297	0.000080	0.097702
C98	C	1.349297	0.500080	0.597702
C99	C	0.885446	0.000074	0.472715
C100	C	1.385446	0.500074	0.972715
C101	C	0.878541	0.000074	0.554732
C102	C	1.378541	0.500074	1.054732
C103	C	1.020383	0.000094	0.563941
C104	C	1.520383	0.500094	1.063941
C105	C	1.027286	0.000102	0.481929
C106	C	1.527286	0.500102	0.981929
C107	C	0.959818	0.000087	0.436320
C108	C	1.459818	0.500087	0.936320
C109	C	0.902792	0.000082	0.309157
C110	C	1.402792	0.500082	0.809157
C111	C	0.966882	0.000087	0.352493
C112	C	1.466882	0.500087	0.852493
H113	H	0.688381	0.000058	-0.286039
H114	H	1.188381	0.500058	0.213961
H115	H	0.313367	0.000073	-0.322187
H116	H	0.813367	0.500073	0.177813
H117	H	0.817974	0.000078	0.584367
H118	H	1.317974	0.500078	1.084367
H119	H	0.794361	0.000073	0.060567
H120	H	1.294361	0.500073	0.560567
H121	H	1.027437	0.000077	0.322851
H122	H	1.527437	0.500077	0.822851
Br123	Br	0.139822	0.000089	-0.346280
Br124	Br	0.639822	0.500089	0.153720
Br125	Br	0.462573	0.000090	-0.302151
Br126	Br	0.962573	0.500090	0.197849
H127	H	0.852979	0.786929	-0.087250
H128	H	1.352979	1.286929	0.412750
H129	H	1.087848	0.000111	0.452298
H130	H	1.587848	0.500111	0.952298
Br131	Br	1.029833	0.460132	-0.264214
Br132	Br	1.529833	0.960132	0.235786
H133	H	0.830508	0.000061	0.435590
H134	H	1.330508	0.500061	0.935590
Br135	Br	0.729860	0.000100	0.007928
Br136	Br	1.229860	0.500100	0.507928
H137	H	0.868615	0.515477	-0.102901
H138	H	1.368615	1.015477	0.397099
H139	H	0.539605	0.000075	-0.273503
H140	H	1.039605	0.500075	0.226497
H141	H	0.860908	0.622623	-0.095174
H142	H	1.360908	1.122623	0.404826
H143	H	0.426857	0.000130	-0.076572
H144	H	0.926857	0.500130	0.423428
Br145	Br	0.806004	0.188707	-0.040236
Br146	Br	1.306004	0.688707	0.459764
H147	H	0.842237	0.000075	0.338803
H148	H	1.342237	0.500075	0.838803
Br149	Br	0.161526	0.000147	-0.011933
Br150	Br	0.661526	0.500147	0.488067
H151	H	1.037292	0.786903	-0.271690
H152	H	1.537292	1.286903	0.228310
H153	H	1.051699	0.000123	0.077285
H154	H	1.551699	0.500123	0.577285
H155	H	0.330070	0.000122	-0.064842
H156	H	0.830070	0.500122	0.435158
H157	H	1.016689	0.213265	-0.251103
H158	H	1.516689	0.713265	0.248897
Br159	Br	0.741452	0.000048	0.229111
Br160	Br	1.241452	0.500048	0.729111
H161	H	0.824468	0.377612	-0.058721
H162	H	1.324468	0.877612	0.441279
H163	H	1.039164	0.000108	0.226060
H164	H	1.539164	0.500108	0.726060
H165	H	0.556305	0.000114	-0.016166
H166	H	1.056305	0.500114	0.483834
H167	H	1.008776	0.377570	-0.243160
H168	H	1.508776	0.877570	0.256840
H169	H	1.045217	0.622585	-0.279622
H170	H	1.545217	1.122585	0.220378
H171	H	1.075311	0.000105	0.601084
H172	H	1.575311	0.500105	1.101084
