data_functionalizedCrystal
_audit_creation_method	'MofGen! by Chris Wilmer'
_symmetry_space_group_name_H-M	'P1'
_symmetry_Int_Tables_number	1
_symmetry_cell_setting	triclinic
loop_
_symmetry_equiv_pos_as_xyz
  x,y,z
_cell_length_a	10.654550
_cell_length_b	17.038272
_cell_length_c	9.130313
_cell_angle_alpha	89.998262
_cell_angle_beta	89.996220
_cell_angle_gamma	87.798229
loop_
_atom_site_label
_atom_site_type_symbol
_atom_site_fract_x
_atom_site_fract_y
_atom_site_fract_z
O1	O	1.678036	0.109874	-0.121922
O2	O	1.313530	0.120343	-0.121899
O3	O	1.493617	0.001281	-0.121899
O4	O	1.497950	0.228936	-0.121923
O5	O	1.493615	0.001284	0.121700
O6	O	1.313528	0.120346	0.121700
O7	O	1.678034	0.109878	0.121676
Cu8	Cu	1.495781	0.115112	0.143931
Cu9	Cu	1.495783	0.115108	-0.144153
O10	O	1.497948	0.228939	0.121676
C11	C	1.266660	0.119576	-0.000097
C12	C	1.127003	0.117276	-0.000087
C13	C	1.054026	0.187378	-0.000116
C14	C	0.922804	0.185212	-0.000141
C15	C	0.937548	0.042837	-0.000115
C16	C	1.068767	0.045004	-0.000080
C17	C	1.112262	0.259650	-0.000124
C18	C	1.039285	0.329758	-0.000154
C19	C	0.908063	0.327592	-0.000179
C20	C	0.849818	0.255319	-0.000174
C21	C	1.489675	-0.027867	-0.000100
C22	C	1.477918	-0.114726	-0.000099
C23	C	1.585862	-0.164237	-0.000105
C24	C	1.574808	-0.245850	-0.000118
C25	C	1.455808	-0.277949	-0.000115
C26	C	1.347856	-0.228431	-0.000114
C27	C	1.358911	-0.146821	-0.000111
C28	C	1.416750	-0.523925	-0.000133
C29	C	1.405702	-0.605542	-0.000131
C30	C	1.632656	-0.622955	-0.000137
C31	C	1.643701	-0.541342	-0.000126
C32	C	1.535749	-0.491831	-0.000133
C33	C	1.444505	-0.361370	-0.000124
C34	C	1.547052	-0.408412	-0.000134
C35	C	1.724905	0.110645	-0.000129
C36	C	1.864562	0.112944	-0.000148
C37	C	1.501889	0.258088	-0.000126
C38	C	1.513646	0.344947	-0.000136
N39	N	1.495788	0.115114	0.346553
N40	N	1.495785	0.115100	-0.346776
C41	C	1.575554	0.062412	0.423205
C42	C	1.575550	0.062403	0.576542
C43	C	1.416010	0.167805	0.576561
C44	C	1.416009	0.167810	0.423227
C45	C	1.655334	0.009716	0.346531
C46	C	1.735107	-0.042990	0.423183
C47	C	1.735103	-0.042999	0.576520
C48	C	1.655325	0.009698	0.653205
H49	H	0.742968	0.253562	-0.000172
O50	O	0.880771	-0.027297	-0.000188
C51	C	0.749304	-0.014176	-0.000193
H52	H	0.725063	0.046707	-0.046321
H53	H	0.704159	-0.060461	-0.070928
H54	H	0.712383	-0.018164	0.116663
O55	O	1.254092	-0.098690	-0.000362
C56	C	1.253719	-0.050947	-0.126506
H57	H	1.314783	-0.080483	-0.214687
H58	H	1.153485	-0.042317	-0.168853
H59	H	1.292584	0.008564	-0.097985
O60	O	1.812750	-0.094145	0.348832
C61	C	1.938508	-0.080713	0.386231
H62	H	1.941605	-0.050576	0.497574
H63	H	1.994099	-0.139165	0.391428
H64	H	1.981511	-0.041537	0.299934
O65	O	1.095801	0.399978	0.000104
C66	C	1.059204	0.442769	0.126233
H67	H	1.027427	0.400525	0.214415
H68	H	1.142148	0.476484	0.168591
H69	H	0.978447	0.485897	0.097688
H70	H	1.800048	-0.085920	0.638929
O71	O	1.290073	-0.636690	-0.000401
C72	C	1.223740	-0.611440	-0.126551
H73	H	1.293180	-0.594093	-0.214726
H74	H	1.165015	-0.661165	-0.168902
H75	H	1.159387	-0.558644	-0.098035
O76	O	1.338587	0.219102	0.650885
C77	C	1.367296	0.296665	0.613446
H78	H	1.415719	0.296854	0.502111
H79	H	1.276957	0.334644	0.608211
H80	H	1.432424	0.321218	0.699740
O81	O	1.338704	0.219038	0.348594
C82	C	1.411149	0.267706	0.259920
H83	H	1.506151	0.237121	0.236948
H84	H	1.360025	0.279775	0.152095
H85	H	1.425849	0.325576	0.319007
O86	O	1.679793	-0.293832	-0.000048
C87	C	1.787195	-0.248000	-0.000073
H88	H	1.761802	-0.187274	0.046046
H89	H	1.863357	-0.277672	0.070654
H90	H	1.823274	-0.241995	-0.116937
H91	H	1.347615	-0.387514	-0.000119
H92	H	1.219109	0.261422	-0.000110
O93	O	0.837227	0.395711	-0.000463
C94	C	0.864862	0.439548	-0.126610
H95	H	0.905265	0.398486	-0.214771
H96	H	0.775235	0.470414	-0.168985
H97	H	0.936430	0.485192	-0.098080
H98	H	1.128187	-0.012079	-0.000060
H99	H	1.682764	-0.138109	-0.000098
O100	O	1.311983	-0.475755	0.000065
C101	C	1.311568	-0.428041	0.126242
H102	H	1.411745	-0.423375	0.168299
H103	H	1.271316	-0.366966	0.097866
H104	H	1.251307	-0.455196	0.214590
H105	H	1.740603	-0.515213	-0.000128
H106	H	1.720544	-0.663275	-0.000135
H107	H	1.643941	-0.382273	-0.000169
H108	H	1.250963	-0.254573	-0.000121
H109	H	1.655347	0.009721	0.221677
H110	H	1.655319	0.009680	0.778062
