data_functionalizedCrystal
_audit_creation_method	'MofGen! by Chris Wilmer'
_symmetry_space_group_name_H-M	'P1'
_symmetry_Int_Tables_number	1
_symmetry_cell_setting	triclinic
loop_
_symmetry_equiv_pos_as_xyz
  x,y,z
_cell_length_a	13.897448
_cell_length_b	13.897449
_cell_length_c	13.897441
_cell_angle_alpha	90.026069
_cell_angle_beta	89.969401
_cell_angle_gamma	89.982380
loop_
_atom_site_label
_atom_site_type_symbol
_atom_site_fract_x
_atom_site_fract_y
_atom_site_fract_z
Zn1	Zn	-0.383986	-1.474703	-0.545519
Zn2	Zn	-0.133986	-1.224703	-0.295519
Zn3	Zn	0.116014	-0.974703	-0.045519
Zn4	Zn	0.366014	-0.724703	0.204481
Zn5	Zn	-0.545308	-1.474597	-0.384220
Zn6	Zn	-0.295308	-1.224597	-0.134220
Zn7	Zn	-0.045308	-0.974597	0.115780
Zn8	Zn	0.204692	-0.724597	0.365780
Zn9	Zn	-0.384028	-1.313392	-0.384222
Zn10	Zn	-0.134028	-1.063392	-0.134222
Zn11	Zn	0.115972	-0.813392	0.115778
Zn12	Zn	0.365972	-0.563392	0.365778
Zn13	Zn	-0.545240	-1.313374	-0.545457
Zn14	Zn	-0.295240	-1.063374	-0.295457
Zn15	Zn	-0.045240	-0.813374	-0.045457
Zn16	Zn	0.204760	-0.563374	0.204543
O17	O	-0.464641	-1.394016	-0.464854
O18	O	-0.214641	-1.144016	-0.214854
O19	O	0.035359	-0.894016	0.035146
O20	O	0.285359	-0.644016	0.285146
O21	O	-0.405396	-1.609670	-0.524147
O22	O	-0.155396	-1.359670	-0.274147
O23	O	0.094604	-1.109670	-0.024147
O24	O	0.344604	-0.859670	0.225853
O25	O	-0.523959	-1.453176	-0.249238
O26	O	-0.273959	-1.203176	0.000762
O27	O	-0.023959	-0.953176	0.250762
O28	O	0.226041	-0.703176	0.500762
O29	O	-0.249041	-1.334842	-0.405645
O30	O	0.000959	-1.084842	-0.155645
O31	O	0.250959	-0.834842	0.094355
O32	O	0.500959	-0.584842	0.344355
O33	O	-0.523918	-1.609592	-0.405641
O34	O	-0.273918	-1.359592	-0.155641
O35	O	-0.023918	-1.109592	0.094359
O36	O	0.226082	-0.859592	0.344359
O37	O	-0.249010	-1.453356	-0.524149
O38	O	0.000990	-1.203356	-0.274149
O39	O	0.250990	-0.953356	-0.024149
O40	O	0.500990	-0.703356	0.225851
O41	O	-0.405468	-1.334739	-0.249240
O42	O	-0.155468	-1.084739	0.000760
O43	O	0.094532	-0.834739	0.250760
O44	O	0.344532	-0.584739	0.500760
O45	O	-0.405403	-1.178408	-0.405585
O46	O	-0.155403	-0.928408	-0.155585
O47	O	0.094597	-0.678408	0.094415
O48	O	0.344597	-0.428408	0.344415
O49	O	-0.523804	-1.334811	-0.680447
O50	O	-0.273804	-1.084811	-0.430447
O51	O	-0.023804	-0.834811	-0.180447
O52	O	0.226196	-0.584811	0.069553
O53	O	-0.523845	-1.178394	-0.524045
O54	O	-0.273845	-0.928394	-0.274045
O55	O	-0.023845	-0.678394	-0.024045
O56	O	0.226155	-0.428394	0.225955
O57	O	-0.405331	-1.453339	-0.680492
O58	O	-0.155331	-1.203339	-0.430492
O59	O	0.094669	-0.953339	-0.180492
O60	O	0.344669	-0.703339	0.069508
O61	O	-0.680280	-1.453158	-0.405582
O62	O	-0.430280	-1.203158	-0.155582
O63	O	-0.180280	-0.953158	0.094418
O64	O	0.069720	-0.703158	0.344418
O65	O	-0.680231	-1.334708	-0.524043
O66	O	-0.430231	-1.084708	-0.274043
O67	O	-0.180231	-0.834708	-0.024043
O68	O	0.069769	-0.584708	0.225957
C69	C	-0.464622	-1.143402	-0.464809
C70	C	-0.214622	-0.893402	-0.214809
C71	C	0.035378	-0.643402	0.035191
C72	C	0.285378	-0.393402	0.285191
C73	C	-0.464637	-1.036188	-0.464813
C74	C	-0.214637	-0.786188	-0.214813
C75	C	0.035363	-0.536188	0.035187
C76	C	0.285363	-0.286188	0.285187
C77	C	-0.464639	-0.949118	-0.464825
C78	C	-0.214639	-0.699118	-0.214825
C79	C	0.035361	-0.449118	0.035175
C80	C	0.285361	-0.199118	0.285175
C81	C	-0.464644	-0.839886	-0.464849
C82	C	-0.214644	-0.589886	-0.214849
C83	C	0.035356	-0.339886	0.035151
C84	C	0.285356	-0.089886	0.285151
C85	C	-0.715255	-1.393946	-0.464827
C86	C	-0.465255	-1.143946	-0.214827
C87	C	-0.215255	-0.893946	0.035173
C88	C	0.034745	-0.643946	0.285173
C89	C	-0.822469	-1.394004	-0.464847
C90	C	-0.572469	-1.144004	-0.214847
C91	C	-0.322469	-0.894004	0.035153
C92	C	-0.072469	-0.644004	0.285153
C93	C	-1.018764	-1.394105	-0.464907
C94	C	-0.768764	-1.144105	-0.214907
C95	C	-0.518764	-0.894105	0.035093
C96	C	-0.268764	-0.644105	0.285093
C97	C	-0.909531	-1.394046	-0.464877
C98	C	-0.659531	-1.144046	-0.214877
C99	C	-0.409531	-0.894046	0.035123
C100	C	-0.159531	-0.644046	0.285123
C101	C	-0.213048	-1.394113	-0.464904
C102	C	0.036952	-1.144113	-0.214904
C103	C	0.286952	-0.894113	0.035096
C104	C	0.536952	-0.644113	0.285096
C105	C	-0.105834	-1.394154	-0.464925
C106	C	0.144166	-1.144154	-0.214925
C107	C	0.394166	-0.894154	0.035075
C108	C	0.644166	-0.644154	0.285075
C109	C	-0.464555	-1.394085	-0.716448
C110	C	-0.214555	-1.144085	-0.466448
C111	C	0.035445	-0.894085	-0.216448
C112	C	0.285445	-0.644085	0.033552
C113	C	-0.464519	-1.394114	-0.823662
C114	C	-0.214519	-1.144114	-0.573662
C115	C	0.035481	-0.894114	-0.323662
C116	C	0.285481	-0.644114	-0.073662
C117	C	-0.464656	-0.645609	-0.464889
C118	C	-0.214656	-0.395609	-0.214889
C119	C	0.035344	-0.145609	0.035111
C120	C	0.285344	0.104391	0.285111
C121	C	-0.464653	-0.752823	-0.464873
C122	C	-0.214653	-0.502823	-0.214873
C123	C	0.035347	-0.252823	0.035127
C124	C	0.285347	-0.002823	0.285127
C125	C	-0.464454	-1.394140	-1.019957
C126	C	-0.214454	-1.144140	-0.769957
C127	C	0.035546	-0.894140	-0.519957
C128	C	0.285546	-0.644140	-0.269957
C129	C	-0.464493	-1.394122	-0.910724
C130	C	-0.214493	-1.144122	-0.660724
C131	C	0.035507	-0.894122	-0.410724
C132	C	0.285507	-0.644122	-0.160724
C133	C	-0.464656	-1.394004	-0.214240
C134	C	-0.214656	-1.144004	0.035760
C135	C	0.035344	-0.894004	0.285760
C136	C	0.285344	-0.644004	0.535760
C137	C	-0.464420	-1.394161	-0.107027
C138	C	-0.214420	-1.144161	0.142973
C139	C	0.035580	-0.894161	0.392973
C140	C	0.285580	-0.644161	0.642973
