data_functionalizedCrystal
_audit_creation_method	'MofGen! by Chris Wilmer'
_symmetry_space_group_name_H-M	'P1'
_symmetry_Int_Tables_number	1
_symmetry_cell_setting	triclinic
loop_
_symmetry_equiv_pos_as_xyz
  x,y,z
_cell_length_a	10.654545
_cell_length_b	9.065218
_cell_length_c	8.140239
_cell_angle_alpha	90.001671
_cell_angle_beta	90.001021
_cell_angle_gamma	84.749482
loop_
_atom_site_label
_atom_site_type_symbol
_atom_site_fract_x
_atom_site_fract_y
_atom_site_fract_z
O1	O	1.668660	0.207201	0.136591
O2	O	1.303259	0.226951	0.136598
O3	O	1.493512	0.002392	0.136590
O4	O	1.478407	0.431760	0.136599
O5	O	1.493506	0.002391	-0.136638
O6	O	1.303253	0.226950	-0.136629
O7	O	1.668654	0.207199	-0.136636
Zn8	Zn	1.485952	0.217074	-0.180013
Zn9	Zn	1.485960	0.217076	0.179975
O10	O	1.478400	0.431758	-0.136628
C11	C	1.256452	0.225502	-0.000015
C12	C	1.116991	0.221167	-0.000013
C13	C	1.051475	0.219126	-0.148950
C14	C	0.920440	0.215029	-0.148950
C15	C	0.920447	0.215020	0.148937
C16	C	1.051481	0.219107	0.148936
C17	C	0.750005	0.123155	-0.327888
C18	C	0.684482	0.121139	-0.476833
C19	C	0.718360	0.208774	-0.608330
C20	C	0.817754	0.298461	-0.590888
C21	C	0.883269	0.300490	-0.441940
C22	C	0.849397	0.212821	-0.310449
C23	C	1.221917	0.310993	0.327864
C24	C	1.287433	0.313032	0.476813
C25	C	1.253557	0.225407	0.608323
C26	C	1.154156	0.135742	0.590898
C27	C	1.088640	0.133703	0.441948
C28	C	1.122525	0.221326	0.310437
C29	C	1.492057	-0.052587	-0.000022
C30	C	1.487717	-0.216406	-0.000015
C31	C	1.715461	0.208649	-0.000019
C32	C	1.854921	0.212983	-0.000011
N33	N	1.485956	0.217072	-0.425696
C34	C	1.479855	0.486738	-0.000013
C35	C	1.484196	0.650557	-0.000009
N36	N	1.485967	0.217067	0.425658
H37	H	0.665001	0.207131	-0.729604
H38	H	0.722424	0.051774	-0.220829
H39	H	0.845313	0.369840	-0.697961
C40	C	0.992603	0.399130	-0.422753
N41	N	1.074962	0.473420	-0.408310
C42	C	0.979304	0.035053	0.422777
N43	N	0.896956	-0.039253	0.408336
C44	C	1.259203	0.407374	0.183188
N45	N	1.287291	0.479968	0.074222
H46	H	1.104810	0.220803	-0.270233
H47	H	1.368359	0.386064	0.491001
C48	C	1.116890	0.039346	0.735565
N49	N	1.088824	-0.033258	0.844535
C50	C	0.575144	0.022492	-0.496008
N51	N	0.492785	-0.051798	-0.510452
H52	H	0.867092	0.213345	0.270206
H53	H	1.306903	0.227090	0.729611
