data_functionalizedCrystal
_audit_creation_method	'MofGen! by Chris Wilmer'
_symmetry_space_group_name_H-M	'P1'
_symmetry_Int_Tables_number	1
_symmetry_cell_setting	triclinic
loop_
_symmetry_equiv_pos_as_xyz
  x,y,z
_cell_length_a	12.759401
_cell_length_b	21.295412
_cell_length_c	12.759400
_cell_angle_alpha	90.023063
_cell_angle_beta	89.985672
_cell_angle_gamma	89.979066
loop_
_atom_site_label
_atom_site_type_symbol
_atom_site_fract_x
_atom_site_fract_y
_atom_site_fract_z
Zn1	Zn	1.606274	-0.355901	0.418302
Zn2	Zn	2.106274	0.144099	0.918302
Zn3	Zn	1.606163	-0.250641	0.593995
Zn4	Zn	2.106163	0.249359	1.093995
Zn5	Zn	1.430571	-0.250651	0.418330
Zn6	Zn	1.930571	0.249349	0.918330
Zn7	Zn	1.430565	-0.355877	0.593939
Zn8	Zn	1.930565	0.144123	1.093939
O9	O	1.518393	-0.303268	0.506142
O10	O	2.018393	0.196732	1.006142
O11	O	1.753280	-0.341944	0.441621
O12	O	2.253280	0.158056	0.941621
O13	O	1.582826	-0.162553	0.570728
O14	O	2.082826	0.337447	1.070728
O15	O	1.453927	-0.264627	0.271305
O16	O	1.953927	0.235373	0.771305
O17	O	1.753199	-0.264610	0.570701
O18	O	2.253199	0.235390	1.070701
O19	O	1.583016	-0.341954	0.271285
O20	O	2.083016	0.158046	0.771285
O21	O	1.453819	-0.162560	0.441667
O22	O	1.953819	0.337440	0.941667
O23	O	1.283549	-0.264604	0.441613
O24	O	1.783549	0.235396	0.941613
O25	O	1.453917	-0.443970	0.570605
O26	O	1.953917	0.056030	1.070605
O27	O	1.283545	-0.341913	0.570632
O28	O	1.783545	0.158087	1.070632
O29	O	1.583010	-0.443988	0.441566
O30	O	2.083010	0.056012	0.941566
O31	O	1.582821	-0.264586	0.741009
O32	O	2.082821	0.235414	1.241009
O33	O	1.453809	-0.341903	0.740967
O34	O	1.953809	0.158097	1.240967
C35	C	1.245426	-0.303257	0.506120
C36	C	1.745426	0.196743	1.006120
C37	C	1.128649	-0.303268	0.506136
C38	C	1.628649	0.196732	1.006136
C39	C	0.964034	-0.263090	0.438890
C40	C	1.464034	0.236910	0.938890
C41	C	1.073758	-0.263084	0.438868
C42	C	1.573758	0.236916	0.938868
C43	C	1.073811	-0.343465	0.573423
C44	C	1.573811	0.156535	1.073423
C45	C	0.964089	-0.343474	0.573439
C46	C	1.464089	0.156526	1.073439
C47	C	0.909148	-0.222899	0.371625
C48	C	1.409148	0.277101	0.871625
C49	C	0.963979	-0.182702	0.304336
C50	C	1.463979	0.317298	0.804336
C51	C	1.073703	-0.182696	0.304314
C52	C	1.573703	0.317304	0.804314
C53	C	1.128596	-0.222886	0.371581
C54	C	1.628596	0.277114	0.871581
C55	C	1.518475	-0.467458	0.506076
C56	C	2.018475	0.032542	1.006076
C57	C	1.518510	-0.537426	0.506048
C58	C	2.018510	-0.037426	1.006048
C59	C	1.451354	-0.570287	0.438839
C60	C	1.951354	-0.070287	0.938839
C61	C	1.451351	-0.636029	0.438819
C62	C	1.951351	-0.136029	0.938819
C63	C	1.518522	-0.668909	0.505998
C64	C	2.018522	-0.168909	1.005998
C65	C	1.585682	-0.636040	0.573221
C66	C	2.085682	-0.136040	1.073221
C67	C	1.585677	-0.570299	0.573246
C68	C	2.085677	-0.070299	1.073246
N69	N	1.610493	-0.772145	0.514023
N70	N	2.110493	-0.272145	1.014023
N71	N	1.610496	-0.834597	0.513993
N72	N	2.110496	-0.334597	1.013993
C73	C	1.518541	-0.866983	0.505928
C74	C	2.018541	-0.366983	1.005928
N75	N	1.426582	-0.834560	0.497875
N76	N	1.926582	-0.334560	0.997875
N77	N	1.426581	-0.772102	0.497899
N78	N	1.926581	-0.272102	0.997899
C79	C	1.518535	-0.740194	0.505979
C80	C	2.018535	-0.240194	1.005979
C81	C	1.451375	-0.971130	0.438694
C82	C	1.951375	-0.471130	0.938694
C83	C	1.451370	-1.036874	0.438682
C84	C	1.951370	-0.536874	0.938682
C85	C	1.585711	-1.036883	0.573078
C86	C	2.085711	-0.536883	1.073078
C87	C	1.585707	-0.971140	0.573096
C88	C	2.085707	-0.471140	1.073096
C89	C	1.518541	-0.938268	0.505898
C90	C	2.018541	-0.438268	1.005898
C91	C	1.792426	-0.303278	0.506164
C92	C	2.292426	0.196722	1.006164
C93	C	1.909203	-0.303283	0.506174
C94	C	2.409203	0.196717	1.006174
C95	C	1.518331	-0.303254	0.779109
C96	C	2.018331	0.196746	1.279109
C97	C	1.518400	-0.303270	0.895886
C98	C	2.018400	0.196730	1.395886
C99	C	1.518372	-0.139716	0.506131
C100	C	2.018372	0.360284	1.006131
C101	C	1.518540	-0.069748	0.505863
C102	C	2.018540	0.430252	1.005863
C103	C	1.518484	-0.303295	0.232108
C104	C	2.018484	0.196705	0.732108
C105	C	1.518523	-0.303306	0.115332
C106	C	2.018523	0.196694	0.615332
C107	C	1.585651	-0.263056	0.950734
C108	C	2.085651	0.236944	1.450734
C109	C	1.585716	-0.263075	1.060458
C110	C	2.085716	0.236925	1.560458
C111	C	1.451270	-0.343525	1.060475
C112	C	1.951270	0.156475	1.560475
C113	C	1.451211	-0.343508	0.950753
C114	C	1.951211	0.156492	1.450753
C115	C	1.652840	-0.222817	0.895867
C116	C	2.152840	0.277183	1.395867
C117	C	1.720095	-0.182599	0.950715
C118	C	2.220095	0.317401	1.450715
C119	C	1.720160	-0.182619	1.060439
C120	C	2.220160	0.317381	1.560439
C121	C	1.652969	-0.222856	1.115315
C122	C	2.152969	0.277144	1.615315
H123	H	1.217941	-0.222884	0.371547
H124	H	1.717941	0.277116	0.871547
H125	H	1.774806	-0.149843	0.906030
H126	H	2.274806	0.350157	1.406030
H127	H	1.118514	-0.376186	0.628188
H128	H	1.618514	0.123814	1.128188
H129	H	1.653035	-0.222874	1.204659
H130	H	2.153035	0.277126	1.704659
H131	H	0.819805	-0.222898	0.371637
H132	H	1.319805	0.277102	0.871637
H133	H	0.919445	-0.376205	0.628224
H134	H	1.419445	0.123795	1.128224
H135	H	1.640396	-0.944385	0.627822
H136	H	2.140396	-0.444385	1.127822
H137	H	1.396658	-0.543526	0.384125
H138	H	1.896658	-0.043526	0.884125
H139	H	1.640373	-0.662815	0.627919
H140	H	2.140373	-0.162815	1.127919
H141	H	1.396565	-0.376284	1.105163
H142	H	1.896565	0.123716	1.605163
H143	H	0.919277	-0.149984	0.249564
H144	H	1.419277	0.350016	0.749564
H145	H	1.774930	-0.149876	1.105094
H146	H	2.274930	0.350124	1.605094
H147	H	1.396666	-0.662790	0.384084
H148	H	1.896666	-0.162790	0.884084
H149	H	1.640368	-0.543544	0.627975
H150	H	2.140368	-0.043544	1.127975
H151	H	1.640405	-1.063653	0.627774
H152	H	2.140405	-0.563653	1.127774
H153	H	1.396684	-0.944363	0.383979
H154	H	1.896684	-0.444363	0.883979
H155	H	1.396676	-1.063628	0.383955
H156	H	1.896676	-0.563628	0.883955
H157	H	1.652792	-0.222795	0.806524
H158	H	2.152792	0.277205	1.306524
H159	H	1.118343	-0.149971	0.249517
H160	H	1.618343	0.350029	0.749517
H161	H	1.396451	-0.376255	0.906095
H162	H	1.896451	0.123745	1.406095
