data_functionalizedCrystal
_audit_creation_method	'MofGen! by Chris Wilmer'
_symmetry_space_group_name_H-M	'P1'
_symmetry_Int_Tables_number	1
_symmetry_cell_setting	triclinic
loop_
_symmetry_equiv_pos_as_xyz
  x,y,z
_cell_length_a	16.109301
_cell_length_b	16.109301
_cell_length_c	15.186229
_cell_angle_alpha	89.994833
_cell_angle_beta	89.999362
_cell_angle_gamma	83.461481
loop_
_atom_site_label
_atom_site_type_symbol
_atom_site_fract_x
_atom_site_fract_y
_atom_site_fract_z
O1	O	1.103131	0.106866	-0.073176
O2	O	0.861069	0.120165	-0.073190
O3	O	0.988749	-0.007515	-0.073174
O4	O	0.975450	0.234547	-0.073192
O5	O	0.988741	-0.007517	0.073284
O6	O	0.861060	0.120164	0.073267
O7	O	1.103122	0.106864	0.073282
Zn8	Zn	0.982090	0.113514	0.096528
Zn9	Zn	0.982101	0.113516	-0.096436
O10	O	0.975441	0.234545	0.073265
C11	C	0.830090	0.119626	0.000037
C12	C	0.737794	0.118011	0.000032
C13	C	0.515522	0.190018	0.000036
C14	C	0.428801	0.188494	0.000042
C15	C	0.448676	0.037006	0.000050
C16	C	0.535394	0.038530	0.000051
C17	C	0.568815	0.115039	0.000039
C18	C	0.395376	0.111990	0.000045
C19	C	0.301350	0.110337	0.000051
C20	C	0.662847	0.116693	0.000035
C21	C	0.988206	-0.038491	0.000056
C22	C	0.986591	-0.130786	0.000057
C23	C	1.058599	-0.353059	0.000047
C24	C	1.057075	-0.439779	0.000040
C25	C	0.905586	-0.419905	0.000034
C26	C	0.907111	-0.333186	0.000035
C27	C	0.983620	-0.299766	0.000046
C28	C	0.980571	-0.473205	0.000038
C29	C	0.978918	-0.567231	0.000030
C30	C	0.985273	-0.205734	0.000052
C31	C	1.134101	0.107404	0.000053
C32	C	1.226397	0.109019	0.000052
C33	C	0.975984	0.265521	0.000034
C34	C	0.977600	0.357816	0.000027
N35	N	0.982088	0.113511	0.228220
N36	N	0.982109	0.113512	-0.228129
C37	C	1.038644	0.056994	0.453950
C38	C	1.038647	0.056992	0.546140
C39	C	0.925547	0.170032	0.546135
C40	C	0.925541	0.170030	0.453947
C41	C	0.982094	0.113511	0.407857
C42	C	0.982103	0.113512	0.592235
C43	C	0.982105	0.113510	0.692191
C44	C	0.982091	0.113512	0.307894
H45	H	0.385413	0.249550	0.000041
O46	O	0.834294	-0.281377	-0.000122
C47	C	0.830659	-0.230602	-0.075963
H48	H	0.873183	-0.262374	-0.128976
H49	H	0.852166	-0.167552	-0.058815
C50	C	0.687964	-0.178370	-0.045251
C51	C	0.740188	-0.217395	-0.110365
H52	H	0.632157	-0.170219	-0.066471
H53	H	0.690413	-0.212575	0.005847
H54	H	0.705897	-0.125832	-0.030967
H55	H	0.722261	-0.269936	-0.124641
H56	H	0.737733	-0.183198	-0.161467
O57	O	1.093604	0.002009	0.409315
C58	C	1.143529	-0.047862	0.469772
H59	H	1.109447	-0.048806	0.535489
H60	H	1.205282	-0.020851	0.479568
C61	C	1.202546	-0.136390	0.353090
C62	C	1.160683	-0.137556	0.433803
H63	H	1.213131	-0.191717	0.330902
H64	H	1.168913	-0.102790	0.312358
H65	H	1.254002	-0.113877	0.361264
H66	H	1.109223	-0.160059	0.425626
H67	H	1.194308	-0.171162	0.474533
H68	H	1.084694	0.010969	0.583667
H69	H	0.879503	0.216049	0.583670
O70	O	0.870574	0.225015	0.409302
C71	C	0.820651	0.274891	0.469748
H72	H	0.854738	0.275847	0.535460
H73	H	0.758901	0.247877	0.479561
C74	C	0.761620	0.363401	0.353043
C75	C	0.803489	0.364580	0.433750
H76	H	0.751030	0.418725	0.330837
H77	H	0.795251	0.329797	0.312318
H78	H	0.710166	0.340885	0.361231
H79	H	0.854946	0.387086	0.425558
H80	H	0.769866	0.398190	0.474472
O81	O	1.129965	-0.491462	-0.000074
C82	C	1.176411	-0.476319	-0.075932
H83	H	1.155979	-0.410528	-0.101218
H84	H	1.165058	-0.523742	-0.129050
C85	C	1.295174	-0.565397	-0.021828
C86	C	1.270085	-0.484588	-0.052881
H87	H	1.352957	-0.570501	-0.007611
H88	H	1.263883	-0.575602	0.029277
H89	H	1.285707	-0.604907	-0.066098
H90	H	1.279543	-0.445080	-0.008607
H91	H	1.301381	-0.474376	-0.103979
H92	H	0.542730	0.252317	0.000034
O93	O	0.416071	-0.037239	0.000015
C94	C	0.328102	-0.022509	0.000034
H95	H	0.307719	0.042379	-0.027696
H96	H	0.303962	-0.026536	0.070296
C97	C	0.317190	-0.168329	-0.023343
C98	C	0.292155	-0.088635	-0.057408
H99	H	0.295015	-0.209120	-0.058771
H100	H	0.376456	-0.178254	-0.023352
H101	H	0.297071	-0.171673	0.035209
H102	H	0.312282	-0.085288	-0.115954
H103	H	0.232891	-0.078711	-0.057410
H104	H	1.120897	-0.325851	0.000054
O105	O	0.831322	-0.452471	-0.000086
C106	C	0.825899	-0.502017	-0.075947
H107	H	0.891434	-0.523633	-0.101235
H108	H	0.789108	-0.463690	-0.129062
C109	C	0.700658	-0.552164	-0.021845
C110	C	0.781149	-0.578718	-0.052900
H111	H	0.673050	-0.599475	-0.007631
H112	H	0.704309	-0.518782	0.029263
H113	H	0.670009	-0.520224	-0.066113
H114	H	0.811799	-0.610648	-0.008628
H115	H	0.777502	-0.612108	-0.104000
H116	H	0.578788	-0.022530	0.000056
