data_functionalizedCrystal
_audit_creation_method	'MofGen! by Chris Wilmer'
_symmetry_space_group_name_H-M	'P1'
_symmetry_Int_Tables_number	1
_symmetry_cell_setting	triclinic
loop_
_symmetry_equiv_pos_as_xyz
  x,y,z
_cell_length_a	16.704494
_cell_length_b	23.196402
_cell_length_c	23.196402
_cell_angle_alpha	90.003744
_cell_angle_beta	63.426305
_cell_angle_gamma	56.635612
loop_
_atom_site_label
_atom_site_type_symbol
_atom_site_fract_x
_atom_site_fract_y
_atom_site_fract_z
Zr1	Zr	0.878575	-0.108147	0.587837
O2	O	1.046022	-0.206383	0.501970
O3	O	0.711126	-0.073740	0.609867
O4	O	0.878574	-0.200198	0.616048
O5	O	0.878576	0.014945	0.495797
O6	O	0.878576	-0.200201	0.710918
O7	O	0.878574	-0.079925	0.495789
O8	O	0.579043	0.026009	0.699862
O9	O	1.178110	-0.211265	0.506853
O10	O	0.780003	-0.064254	0.695250
O11	O	0.780003	0.006549	0.624455
O12	O	0.977151	-0.142339	0.631732
O13	O	0.977151	-0.071536	0.560938
Zr14	Zr	0.878582	0.043154	0.739157
Zr15	Zr	0.878579	-0.108152	0.739144
Zr16	Zr	0.878579	0.043160	0.587850
Zr17	Zr	1.089240	-0.115933	0.595626
Zr18	Zr	0.667917	0.050941	0.731368
O19	O	1.046031	0.008748	0.717127
O20	O	1.046027	-0.206391	0.717108
O21	O	1.046027	0.008755	0.501988
O22	O	0.711136	0.141391	0.825024
O23	O	0.711131	-0.073748	0.825006
O24	O	0.711131	0.141398	0.609886
O25	O	0.878581	-0.079937	0.831197
O26	O	0.878583	0.135205	0.710946
O27	O	0.878581	0.135209	0.616076
O28	O	0.878583	0.014933	0.831205
O29	O	1.178112	-0.211270	0.627122
O30	O	0.579045	0.146277	0.699872
O31	O	0.579048	0.146273	0.820141
O32	O	0.579045	0.026004	0.820130
O33	O	1.178112	-0.090997	0.506864
O34	O	1.178115	-0.091001	0.627132
O35	O	0.780006	0.077347	0.695262
O36	O	0.780006	0.006544	0.766056
O37	O	0.977154	-0.071541	0.702539
O38	O	0.977154	-0.000738	0.631744
C39	C	0.615069	-0.022756	0.653755
C40	C	0.525636	-0.019451	0.650448
C41	C	0.878575	-0.032489	0.474235
C42	C	0.878573	-0.032487	0.410002
C43	C	0.878583	0.156765	0.663513
C44	C	0.878584	0.220999	0.663519
C45	C	0.357567	-0.087153	0.718161
C46	C	0.273537	-0.084049	0.715056
C47	C	0.273539	-0.010135	0.641139
C48	C	0.357569	-0.013239	0.644243
C49	C	0.399581	-0.051750	0.682755
C50	C	0.483618	-0.054858	0.685856
C51	C	0.483614	0.019060	0.611942
C52	C	0.399583	0.022164	0.608837
C53	C	1.142088	-0.042236	0.673239
C54	C	1.231521	-0.045542	0.676546
C55	C	0.878575	-0.221758	0.663481
C56	C	0.878573	-0.285991	0.663475
C57	C	0.981490	0.210414	0.630366
C58	C	0.981492	0.270769	0.630356
C59	C	0.878581	0.341707	0.663512
C60	C	0.775661	0.352289	0.696665
C61	C	0.775663	0.291935	0.696669
C62	C	0.799738	0.468556	0.722498
C63	C	0.799741	0.528908	0.722497
C64	C	0.878573	0.527861	0.663499
C65	C	0.957420	0.466448	0.604505
C66	C	0.957422	0.406094	0.604508
C67	C	0.878568	0.407156	0.663511
C68	C	0.981488	0.582717	0.630333
C69	C	0.981485	0.643074	0.630320
C70	C	0.775652	0.724595	0.696636
C71	C	0.775657	0.664238	0.696642
C72	C	0.878578	0.593301	0.663492
C73	C	0.775667	0.008265	0.412982
C74	C	0.775666	0.008268	0.352628
C75	C	0.878576	-0.032495	0.289294
C76	C	0.981496	-0.073250	0.286316
C77	C	0.981494	-0.073246	0.346670
C78	C	0.957419	-0.097319	0.168274
C79	C	0.957416	-0.097325	0.107923
C80	C	0.878585	-0.032507	0.103140
C81	C	0.799737	0.032318	0.158723
C82	C	0.799736	0.032322	0.219077
C83	C	0.878589	-0.032504	0.223846
C84	C	0.775670	0.008253	0.040680
C85	C	0.775673	0.008258	-0.019677
C86	C	0.981506	-0.073268	-0.085989
C87	C	0.981500	-0.073265	-0.025632
C88	C	0.878579	-0.032507	0.037699
C89	C	0.878583	-0.032503	0.852759
C90	C	0.878584	-0.032505	0.916992
C91	C	0.615073	-0.022763	0.843016
C92	C	0.525642	-0.019460	0.903944
C93	C	0.615073	0.166505	0.653771
C94	C	0.525642	0.234044	0.650470
C95	C	0.615077	0.166498	0.843033
C96	C	0.525647	0.234035	0.903965
C97	C	1.142080	-0.231491	0.483961
C98	C	1.231510	-0.299028	0.423029
C99	C	1.142084	-0.042229	0.483978
C100	C	1.231516	-0.045533	0.423050
C101	C	1.142084	-0.231497	0.673223
C102	C	1.231516	-0.299037	0.676524
C103	C	0.483642	-0.054870	0.895595
C104	C	0.399624	-0.051781	0.952838
C105	C	0.357600	-0.013276	1.018427
C106	C	0.399608	0.022135	1.026774
C107	C	0.483631	0.019041	0.969533
C108	C	0.483646	0.302723	0.685880
C109	C	0.399627	0.366189	0.682776
C110	C	0.357601	0.360974	0.644266
C111	C	0.399605	0.292287	0.608852
C112	C	0.483628	0.228823	0.611952
C113	C	0.483650	0.228793	0.969540
C114	C	0.399633	0.292245	1.026799
C115	C	0.357609	0.360938	1.018482
C116	C	0.399614	0.366179	0.952900
C117	C	0.483636	0.302728	0.895643
C118	C	1.273518	-0.293786	0.357454
C119	C	1.357561	-0.357239	0.300196
C120	C	1.399589	-0.425932	0.308514
C121	C	1.357579	-0.431173	0.374095
C122	C	1.273542	-0.367721	0.431352
C123	C	1.273524	-0.010129	0.431399
C124	C	1.357566	-0.013235	0.374157
C125	C	1.399592	-0.051742	0.308568
C126	C	1.357580	-0.087151	0.300221
C127	C	1.273546	-0.084048	0.357462
C128	C	1.273515	-0.293798	0.715041
C129	C	1.357534	-0.357252	0.718155
C130	C	1.399558	-0.425944	0.682749
C131	C	1.357550	-0.431181	0.644231
C132	C	1.273527	-0.367728	0.641121
H133	H	0.517827	-0.086218	0.717212
H134	H	0.691871	0.410052	0.723659
H135	H	0.517854	0.172865	0.976326
H136	H	1.239341	-0.371997	0.484744
O137	O	0.354233	0.286680	0.567339
H138	H	0.370334	0.311826	0.527096
O139	O	1.092486	0.506203	0.594582
H140	H	1.097407	0.476742	0.553925
H141	H	0.365431	-0.080618	0.946028
H142	H	0.365440	0.287965	1.080194
H143	H	0.365362	0.053522	0.577484
O144	O	0.266957	0.429432	0.640941
H145	H	0.299206	0.460114	0.619021
O146	O	1.228214	0.031406	0.502136
H147	H	1.162713	0.027627	0.540545
H148	H	0.517835	0.047885	0.583109
H149	H	1.468017	-0.477593	0.261886
H150	H	1.065287	0.634449	0.603319
H151	H	1.467975	-0.477606	0.685288
H152	H	0.365437	0.422110	0.711618
H153	H	1.239345	-0.112877	0.350654
O154	O	1.228186	-0.219712	0.753240
H155	H	1.271505	-0.226741	0.780551
O156	O	0.664660	0.675655	0.732407
H157	H	0.681949	0.621770	0.726835
H158	H	0.517810	0.172904	0.583119
O159	O	1.402856	0.024968	0.383167
H160	H	1.359491	0.052276	0.438392
O161	O	1.092492	0.133905	0.594606
H162	H	1.164051	0.136689	0.571546
O163	O	0.228231	-0.122240	0.753241
H164	H	0.162737	-0.113611	0.744616
O165	O	0.664649	0.801099	0.732414
H166	H	0.681934	0.841291	0.726851
H167	H	1.065293	0.262150	0.603356
O168	O	0.528915	0.308393	0.824917
H169	H	0.594406	0.252735	0.786493
H170	H	0.289193	0.412599	1.065110
H171	H	0.365386	0.422118	0.946138
O172	O	1.402838	-0.351596	0.759699
H173	H	1.359509	-0.293169	0.783784
O174	O	1.402890	-0.505273	0.606037
H175	H	1.468383	-0.548510	0.614668
O176	O	0.664669	0.052215	0.355834
H177	H	0.615299	0.110843	0.383322
O178	O	1.402916	-0.505267	0.383061
H179	H	1.332384	-0.508806	0.409754
H180	H	0.735540	0.085105	0.264329
O181	O	1.228202	-0.219699	0.348475
H182	H	1.271553	-0.226726	0.293254
O183	O	0.402895	-0.128698	0.759688
H184	H	0.468393	-0.124915	0.755893
O185	O	1.402844	-0.351578	0.229466
H186	H	1.359475	-0.293149	0.233306
O187	O	1.490198	-0.055063	0.246830
H188	H	1.512324	-0.023958	0.263660
O189	O	0.714701	0.595144	0.786122
H190	H	0.659869	0.585740	0.827143
H191	H	1.391811	-0.118503	0.246810
O192	O	0.354273	0.063663	1.097522
H193	H	0.397594	0.087766	1.093719
O194	O	1.228243	-0.373382	0.599566
H195	H	1.271597	-0.431810	0.575466
O196	O	1.042444	-0.167236	0.173432
H197	H	1.097255	-0.212314	0.124650
O198	O	0.228221	0.031400	0.599603
H199	H	0.162735	0.027606	0.603393
H200	H	1.021620	0.356094	0.556472
H201	H	1.021613	0.465592	0.556463
H202	H	0.735533	0.469421	0.770543
H203	H	1.065286	-0.106439	0.234745
O204	O	0.664656	0.303361	0.732453
H205	H	0.615285	0.334493	0.709285
O206	O	0.664665	0.052228	0.481290
H207	H	0.593107	0.080570	0.473218
O208	O	0.714698	0.102241	0.153583
H209	H	0.760384	0.115697	0.111374
O210	O	0.664670	0.052220	0.108992
H211	H	0.593110	0.080570	0.100923
H212	H	0.691871	0.041449	-0.017244
H213	H	1.065298	-0.106456	-0.028062
O214	O	1.092505	-0.117240	-0.154293
H215	H	1.097430	-0.080114	-0.183380
O216	O	1.042456	-0.167238	0.047974
H217	H	1.097288	-0.212306	0.061433
O218	O	1.092490	-0.117210	0.343460
H219	H	1.164054	-0.145559	0.289282
H220	H	0.517857	-0.086234	0.842194
O221	O	0.266967	-0.009935	1.080165
H222	H	0.244819	-0.041023	1.063333
H223	H	0.517816	0.047882	0.976340
H224	H	0.517854	0.306983	0.717240
