data_functionalizedCrystal
_audit_creation_method	'MofGen! by Chris Wilmer'
_symmetry_space_group_name_H-M	'P1'
_symmetry_Int_Tables_number	1
_symmetry_cell_setting	triclinic
loop_
_symmetry_equiv_pos_as_xyz
  x,y,z
_cell_length_a	18.215407
_cell_length_b	21.395361
_cell_length_c	21.395355
_cell_angle_alpha	90.021511
_cell_angle_beta	90.024690
_cell_angle_gamma	90.031156
loop_
_atom_site_label
_atom_site_type_symbol
_atom_site_fract_x
_atom_site_fract_y
_atom_site_fract_z
Zn1	Zn	1.125077	-0.249504	0.354251
Zn2	Zn	1.124963	-0.354263	0.249468
Zn3	Zn	1.002000	-0.249505	0.249487
Zn4	Zn	1.001963	-0.354248	0.354208
O5	O	1.063501	-0.301880	0.301853
O6	O	1.228046	-0.263406	0.340361
O7	O	1.108619	-0.340374	0.161792
O8	O	1.018389	-0.161827	0.263410
O9	O	1.227962	-0.340373	0.263377
O10	O	1.108814	-0.161826	0.340380
O11	O	1.018278	-0.263408	0.161807
O12	O	0.899010	-0.263393	0.263369
O13	O	1.018327	-0.340347	0.441891
O14	O	0.898984	-0.340348	0.340306
O15	O	1.108779	-0.263391	0.441923
O16	O	1.108584	-0.441939	0.263336
O17	O	1.018216	-0.441928	0.340288
C18	C	1.063404	-0.464668	0.301818
C19	C	1.063429	-0.534309	0.301824
C20	C	0.872295	-0.301869	0.301835
C21	C	0.790496	-0.301880	0.301842
C22	C	1.110525	-0.567007	0.261797
C23	C	1.110560	-0.632442	0.261811
C24	C	1.063485	-0.665177	0.301846
C25	C	1.016386	-0.632471	0.341882
C26	C	1.016358	-0.567037	0.341871
C27	C	0.997221	-0.768893	0.306756
C28	C	0.997248	-0.834326	0.306762
C29	C	1.063570	-0.866998	0.301883
C30	C	1.129869	-0.834229	0.296984
C31	C	1.129841	-0.768795	0.296973
C32	C	1.063510	-0.736129	0.301862
C33	C	1.110707	-0.970649	0.261868
C34	C	1.110743	-1.036085	0.261886
C35	C	1.016562	-1.036113	0.341954
C36	C	1.016533	-0.970677	0.341939
C37	C	1.063605	-0.937949	0.301892
C38	C	0.602307	-0.342013	0.341854
C39	C	0.525448	-0.342015	0.341861
C40	C	0.525446	-0.261758	0.261867
C41	C	0.602304	-0.261754	0.261862
C42	C	0.640732	-0.301885	0.301855
C43	C	0.487016	-0.301891	0.301867
C44	C	0.403682	-0.301893	0.301875
C45	C	0.724071	-0.301882	0.301848
C46	C	1.255454	-0.301891	0.301872
C47	C	1.337253	-0.301896	0.301880
C48	C	1.063562	-0.301867	0.465277
C49	C	1.063588	-0.301862	0.534918
C50	C	1.063618	-0.138457	0.301902
C51	C	1.063668	-0.068815	0.301923
C52	C	1.063482	-0.301847	0.139066
C53	C	1.063599	-0.301676	0.069425
C54	C	1.110684	-0.261790	0.567649
C55	C	1.110683	-0.261763	0.633084
C56	C	1.063594	-0.301819	0.665786
C57	C	1.016489	-0.341894	0.633048
C58	C	1.016486	-0.341916	0.567614
C59	C	1.057749	-0.358235	0.769449
C60	C	1.057757	-0.358214	0.834882
C61	C	1.063598	-0.301753	0.867607
C62	C	1.069447	-0.245310	0.834891
C63	C	1.069444	-0.245332	0.769457
C64	C	1.063591	-0.301800	0.736739
C65	C	1.110696	-0.261648	0.971290
C66	C	1.110690	-0.261620	1.036727
C67	C	1.016499	-0.341757	1.036690
C68	C	1.016501	-0.341780	0.971254
C69	C	1.063604	-0.301726	0.938559
H70	H	1.148855	-0.540362	0.229190
H71	H	1.074204	-0.199334	0.861535
C72	C	0.964604	-0.668473	0.385921
H73	H	0.936555	-0.639625	0.409764
H74	H	0.932562	-0.694037	0.361935
H75	H	0.992758	-0.693962	0.413248
H76	H	1.149045	-0.229030	0.944668
H77	H	0.633590	-0.229072	0.229291
C78	C	1.051163	-0.420334	0.733457
H79	H	1.047643	-0.453941	0.762311
H80	H	1.008465	-0.419436	0.707968
H81	H	1.093282	-0.425935	0.707895
H82	H	0.943264	-0.861001	0.310745
H83	H	0.978006	-0.540413	0.374467
C84	C	1.162488	-0.217727	0.531687
H85	H	1.190533	-0.193854	0.560556
H86	H	1.194534	-0.241703	0.506169
H87	H	1.134351	-0.190430	0.506155
H88	H	1.148913	-0.659070	0.229215
C89	C	1.162551	-1.072053	0.217853
H90	H	1.190573	-1.043188	0.193999
H91	H	1.194617	-1.097541	0.241846
H92	H	1.134418	-1.097616	0.190536
H93	H	0.633593	-0.374689	0.374420
H94	H	1.183822	-0.742116	0.292986
H95	H	0.978146	-0.374507	0.659678
C96	C	0.483184	-0.386155	0.385861
H97	H	0.517080	-0.410055	0.409675
H98	H	0.453234	-0.362227	0.413207
H99	H	0.453170	-0.413424	0.361845
C100	C	0.483173	-0.217625	0.217872
H101	H	0.431896	-0.223379	0.223597
H102	H	0.495795	-0.175539	0.227113
H103	H	0.495742	-0.226741	0.175756
H104	H	1.149033	-0.229127	0.659738
H105	H	0.978131	-0.374547	0.540965
H106	H	1.074204	-0.199374	0.742823
H107	H	1.183875	-0.860829	0.293011
C108	C	1.162498	-0.217539	1.072731
H109	H	1.190553	-0.193693	1.043884
H110	H	1.134372	-0.190225	1.098248
H111	H	1.194546	-0.241507	1.098267
H112	H	0.978150	-0.374366	1.063315
H113	H	0.978155	-0.374415	0.944605
C114	C	0.924264	-0.732957	0.312122
H115	H	0.933742	-0.689294	0.311420
H116	H	0.893333	-0.743723	0.278016
H117	H	0.900714	-0.743677	0.350252
H118	H	1.052999	-0.404173	0.861514
H119	H	1.149038	-0.944000	0.229262
C120	C	0.964718	-0.934707	0.385962
H121	H	0.936681	-0.963573	0.409804
H122	H	0.992839	-0.909143	0.413280
H123	H	0.932654	-0.909222	0.361958
H124	H	0.978236	-1.062764	0.374554
