data_functionalizedCrystal
_audit_creation_method	'MofGen! by Chris Wilmer'
_symmetry_space_group_name_H-M	'P1'
_symmetry_Int_Tables_number	1
_symmetry_cell_setting	triclinic
loop_
_symmetry_equiv_pos_as_xyz
  x,y,z
_cell_length_a	6.394989
_cell_length_b	8.559649
_cell_length_c	7.681481
_cell_angle_alpha	94.930900
_cell_angle_beta	84.108711
_cell_angle_gamma	78.138188
loop_
_atom_site_label
_atom_site_type_symbol
_atom_site_fract_x
_atom_site_fract_y
_atom_site_fract_z
O1	O	-2.707538	-0.275606	-0.146401
O2	O	-2.207538	0.224394	0.353599
O3	O	-2.097300	-0.288752	-0.146408
O4	O	-1.597300	0.211248	0.353592
O5	O	-2.456182	-0.050660	-0.146402
O6	O	-1.956182	0.449340	0.353598
O7	O	-2.348656	-0.513699	-0.146407
O8	O	-1.848656	-0.013699	0.353593
O9	O	-2.500365	-0.021286	0.146457
O10	O	-2.000365	0.478714	0.646457
O11	O	-2.141483	-0.259379	0.146451
O12	O	-1.641483	0.240621	0.646451
O13	O	-2.751722	-0.246233	0.146458
O14	O	-2.251722	0.253767	0.646458
Zn15	Zn	-2.453618	-0.248142	0.192952
Zn16	Zn	-1.953618	0.251858	0.692952
Zn17	Zn	-2.395404	-0.286843	-0.192902
Zn18	Zn	-1.895404	0.213157	0.307098
O19	O	-2.392840	-0.484326	0.146452
O20	O	-1.892840	0.015674	0.646452
C21	C	-2.486422	0.023392	0.000024
C22	C	-1.986422	0.523392	0.500024
C23	C	-2.510675	0.200283	0.000015
C24	C	-2.010675	0.700283	0.500015
C25	C	-2.362599	-0.558378	0.000022
C26	C	-1.862599	-0.058378	0.500022
C27	C	-2.338344	-0.735270	0.000020
C28	C	-1.838344	-0.235270	0.500020
N29	N	-2.493362	-0.221729	0.456287
N30	N	-1.993362	0.278271	0.956287
C31	C	-2.041989	-0.271466	0.000030
C32	C	-1.541989	0.228534	0.500030
C33	C	-1.807029	-0.263522	0.000037
C34	C	-1.307029	0.236478	0.500037
N35	N	-2.355678	-0.313243	-0.456237
N36	N	-1.855678	0.186757	0.043763
H37	H	-2.676786	0.280446	0.000031
H38	H	-2.176786	0.780446	0.500031
H39	H	-2.633931	-0.128327	0.531495
H40	H	-2.133931	0.371673	1.031495
H41	H	-2.172248	0.184578	0.000024
H42	H	-1.672248	0.684578	0.500024
H43	H	-2.215132	-0.406651	0.468564
H44	H	-1.715132	0.093349	0.968564
