data_functionalizedCrystal
_audit_creation_method	'MofGen! by Chris Wilmer'
_symmetry_space_group_name_H-M	'P1'
_symmetry_Int_Tables_number	1
_symmetry_cell_setting	triclinic
loop_
_symmetry_equiv_pos_as_xyz
  x,y,z
_cell_length_a	10.723024
_cell_length_b	10.489741
_cell_length_c	9.798715
_cell_angle_alpha	89.997135
_cell_angle_beta	89.996609
_cell_angle_gamma	84.503522
loop_
_atom_site_label
_atom_site_type_symbol
_atom_site_fract_x
_atom_site_fract_y
_atom_site_fract_z
O1	O	1.657297	0.178906	-0.113481
O2	O	1.294155	0.196031	-0.113486
O3	O	1.483989	0.001865	-0.113475
O4	O	1.467463	0.373072	-0.113492
O5	O	1.483975	0.001865	0.113507
O6	O	1.294141	0.196030	0.113496
O7	O	1.657283	0.178906	0.113501
Zn8	Zn	1.475709	0.187468	0.149537
Zn9	Zn	1.475728	0.187469	-0.149522
O10	O	1.467448	0.373071	0.113490
C11	C	1.247647	0.194785	0.000005
C12	C	1.109091	0.191056	0.000003
C13	C	1.034175	0.299701	-0.000003
C14	C	0.890969	0.295850	-0.000004
C15	C	1.482734	-0.045666	0.000015
C16	C	1.478999	-0.187293	0.000012
C17	C	1.358213	-0.255356	0.000001
C18	C	1.415265	-0.347515	0.111915
C19	C	1.415307	-0.347489	-0.111871
C20	C	1.536100	-0.277587	0.112019
C21	C	1.536126	-0.277551	-0.111868
C22	C	1.593265	-0.369683	0.000074
C23	C	1.703790	0.180152	0.000007
C24	C	1.842347	0.183881	-0.000000
C25	C	1.468704	0.420602	-0.000003
C26	C	1.472438	0.562229	-0.000009
N27	N	1.475706	0.187467	0.353637
N28	N	1.475742	0.187460	-0.353622
C29	C	1.555412	0.105583	0.421418
C30	C	1.555432	0.105578	0.578581
H31	H	0.906715	0.090867	-0.000004
O32	O	1.394154	0.271049	0.577008
C33	C	1.270321	0.249527	0.611821
H34	H	1.269821	0.200461	0.715604
H35	H	1.209966	0.344989	0.616573
H36	H	1.231041	0.185732	0.531440
O37	O	1.084063	0.414107	0.000235
C38	C	1.043885	0.483925	0.117768
H39	H	1.016092	0.415090	0.199936
H40	H	1.123301	0.538770	0.157227
H41	H	0.959773	0.554368	0.091184
O42	O	1.059287	0.076604	-0.000176
C43	C	1.099410	0.006816	-0.117748
H44	H	1.190060	0.042241	-0.156941
H45	H	1.116382	-0.099262	-0.091307
H46	H	1.024235	0.021036	-0.200065
O47	O	1.394188	0.271147	0.422990
C48	C	1.320095	0.347306	0.329452
H49	H	1.317976	0.295110	0.227560
H50	H	1.220679	0.366074	0.370863
H51	H	1.361715	0.442316	0.314298
O52	O	1.637016	0.022063	0.648045
C53	C	1.760849	0.043536	0.613175
H54	H	1.762687	0.145605	0.573805
H55	H	1.823253	0.029348	0.707193
H56	H	1.796741	-0.026981	0.530334
O57	O	0.814000	0.406695	0.000047
C58	C	0.688153	0.378173	0.000008
H59	H	0.682379	0.277919	0.042986
H60	H	0.629752	0.450907	0.065900
H61	H	0.650563	0.382632	-0.108889
O62	O	1.596870	-0.240578	-0.224883
C63	C	1.532892	-0.275839	-0.342653
H64	H	1.431058	-0.286998	-0.315841
H65	H	1.536637	-0.198475	-0.423864
H66	H	1.579245	-0.370555	-0.383487
H67	H	1.258904	-0.205641	0.000112
H68	H	1.692663	-0.419171	0.000138
H69	H	1.364151	-0.378494	0.206530
H70	H	1.587157	-0.246787	0.206741
H71	H	1.364191	-0.378420	-0.206495
H72	H	1.623632	0.035476	0.363099
