data_functionalizedCrystal
_audit_creation_method	'MofGen! by Chris Wilmer'
_symmetry_space_group_name_H-M	'P1'
_symmetry_Int_Tables_number	1
_symmetry_cell_setting	triclinic
loop_
_symmetry_equiv_pos_as_xyz
  x,y,z
_cell_length_a	14.853558
_cell_length_b	23.532407
_cell_length_c	13.930277
_cell_angle_alpha	89.990979
_cell_angle_beta	89.992693
_cell_angle_gamma	83.239906
loop_
_atom_site_label
_atom_site_type_symbol
_atom_site_fract_x
_atom_site_fract_y
_atom_site_fract_z
O1	O	1.195561	0.074327	-0.079829
O2	O	1.695561	0.574327	0.420171
O3	O	0.933004	0.083190	-0.079835
O4	O	1.433004	0.583190	0.420165
O5	O	1.072200	-0.004139	-0.079814
O6	O	1.572200	0.495861	0.420186
O7	O	1.056365	0.161656	-0.079850
O8	O	1.556365	0.661656	0.420150
O9	O	1.072179	-0.004140	0.079847
O10	O	1.572179	0.495860	0.579847
O11	O	0.932983	0.083189	0.079827
O12	O	1.432983	0.583189	0.579827
O13	O	1.195541	0.074326	0.079833
O14	O	1.695541	0.574326	0.579833
Zn15	Zn	1.064258	0.078757	0.105179
Zn16	Zn	1.564258	0.578757	0.605179
Zn17	Zn	1.064286	0.078759	-0.105182
Zn18	Zn	1.564286	0.578759	0.394818
O19	O	1.056344	0.161655	0.079812
O20	O	1.556344	0.661655	0.579812
C21	C	0.899409	0.082789	-0.000005
C22	C	1.399409	0.582789	0.499995
C23	C	0.799338	0.081588	-0.000006
C24	C	1.299338	0.581588	0.499994
C25	C	0.752335	0.081026	-0.087041
C26	C	1.252335	0.581026	0.412959
C27	C	0.752311	0.081018	0.087028
C28	C	1.252311	0.581018	0.587028
C29	C	0.658290	0.079887	0.087030
C30	C	1.158290	0.579887	0.587030
C31	C	0.611287	0.079324	-0.000005
C32	C	1.111287	0.579324	0.499995
C33	C	0.658306	0.079893	-0.087042
C34	C	1.158306	0.579893	0.412958
C35	C	0.611265	0.079312	0.174066
C36	C	1.111265	0.579312	0.674066
C37	C	0.517238	0.078180	0.174071
C38	C	1.017238	0.578180	0.674071
C39	C	0.470233	0.077622	0.087035
C40	C	0.970233	0.577622	0.587035
C41	C	0.517257	0.078192	-0.000006
C42	C	1.017257	0.578192	0.499994
C43	C	0.470255	0.077629	-0.087041
C44	C	0.970255	0.577629	0.412959
C45	C	0.517276	0.078203	-0.174083
C46	C	1.017276	0.578203	0.325917
C47	C	0.611300	0.079335	-0.174078
C48	C	1.111300	0.579335	0.325922
C49	C	0.376209	0.076490	0.087030
C50	C	0.876209	0.576490	0.587030
C51	C	0.376225	0.076496	-0.087042
C52	C	0.876225	0.576496	0.412958
C53	C	1.071786	-0.025357	0.000019
C54	C	1.571786	0.474643	0.500019
C55	C	1.070574	-0.088579	0.000026
C56	C	1.570574	0.411421	0.500026
C57	C	1.145343	-0.487358	-0.000025
C58	C	1.645343	0.012642	0.499975
C59	C	1.144217	-0.546763	-0.000032
C60	C	1.644217	-0.046763	0.499968
O61	O	1.213529	-0.583206	-0.000066
O62	O	1.713529	-0.083206	0.499934
N63	N	1.061465	-0.569748	-0.000033
N64	N	1.561465	-0.069748	0.499967
C65	C	0.979834	-0.533325	-0.000037
C66	C	1.479834	-0.033325	0.499963
O67	O	0.909343	-0.558331	-0.000039
O68	O	1.409343	-0.058331	0.499961
C69	C	0.980961	-0.473921	-0.000036
C70	C	1.480961	0.026079	0.499964
C71	C	1.063719	-0.450939	-0.000025
C72	C	1.563719	0.049061	0.499975
C73	C	1.228094	-0.464375	-0.000015
C74	C	1.728094	0.035625	0.499985
C75	C	1.229220	-0.404974	-0.000006
C76	C	1.729220	0.095026	0.499994
C77	C	1.147595	-0.368556	-0.000006
C78	C	1.647595	0.131444	0.499994
C79	C	1.064844	-0.391538	-0.000016
C80	C	1.564844	0.108462	0.499984
C81	C	0.899331	-0.437500	-0.000047
C82	C	1.399331	0.062500	0.499953
C83	C	0.900465	-0.378092	-0.000047
C84	C	1.400465	0.121908	0.499953
C85	C	0.983223	-0.355110	-0.000036
C86	C	1.483223	0.144890	0.499964
C87	C	0.984345	-0.295719	-0.000008
C88	C	1.484345	0.204281	0.499992
N89	N	1.067097	-0.272733	-0.000007
N90	N	1.567097	0.227267	0.499993
C91	C	1.148722	-0.309152	-0.000006
C92	C	1.648722	0.190848	0.499994
C93	C	0.977473	-0.658078	-0.000039
C94	C	1.477473	-0.158078	0.499961
C95	C	0.976345	-0.717481	-0.000033
C96	C	1.476345	-0.217481	0.499967
C97	C	1.140729	-0.730914	-0.000030
C98	C	1.640729	-0.230914	0.499970
C99	C	1.141856	-0.671510	-0.000030
C100	C	1.641856	-0.171510	0.499970
C101	C	1.060225	-0.635093	-0.000038
C102	C	1.560225	-0.135093	0.499962
C103	C	1.151080	-0.184405	0.000014
C104	C	1.651080	0.315595	0.500014
C105	C	1.152199	-0.124998	0.000027
C106	C	1.652199	0.375002	0.500027
C107	C	0.987816	-0.111570	0.000019
C108	C	1.487816	0.388430	0.500019
C109	C	0.986697	-0.170971	0.000011
C110	C	1.486697	0.329029	0.500011
C111	C	1.068336	-0.207388	0.000005
C112	C	1.568336	0.292612	0.500005
O113	O	0.915070	-0.259241	0.000022
O114	O	1.415070	0.240759	0.500022
O115	O	1.219201	-0.284138	-0.000016
O116	O	1.719201	0.215862	0.499984
C117	C	1.229135	0.074727	0.000000
C118	C	1.729135	0.574727	0.500000
C119	C	1.329206	0.075928	-0.000005
C120	C	1.829206	0.575928	0.499995
C121	C	1.056758	0.182873	-0.000024
C122	C	1.556758	0.682873	0.499976
C123	C	1.057970	0.246095	-0.000037
C124	C	1.557970	0.746095	0.499963
N125	N	1.064246	0.078755	0.248746
N126	N	1.564246	0.578755	0.748746
C127	C	1.002639	0.117415	0.701006
C128	C	1.502639	0.617415	1.201006
C129	C	1.125941	0.040103	0.700993
C130	C	1.625941	0.540103	1.200993
C131	C	1.125931	0.040101	0.600498
C132	C	1.625931	0.540101	1.100498
C133	C	1.064275	0.078757	0.550251
C134	C	1.564275	0.578757	1.050251
C135	C	1.002629	0.117415	0.600501
C136	C	1.502629	0.617415	1.100501
C137	C	1.187582	0.001447	0.550241
C138	C	1.687582	0.501447	1.050241
C139	C	1.187575	0.001444	0.449739
C140	C	1.687575	0.501444	0.949739
C141	C	1.125915	0.040098	0.399491
C142	C	1.625915	0.540098	0.899491
C143	C	1.064266	0.078757	0.449746
C144	C	1.564266	0.578757	0.949746
C145	C	1.002610	0.117414	0.399500
C146	C	1.502610	0.617414	0.899500
C147	C	0.940956	0.156071	0.449754
C148	C	1.440956	0.656071	0.949754
C149	C	0.940969	0.156069	0.550253
C150	C	1.440969	0.656069	1.050253
C151	C	1.125902	0.040099	0.298992
C152	C	1.625902	0.540099	0.798992
C153	C	1.002600	0.117414	0.298995
C154	C	1.502600	0.617414	0.798995
N155	N	1.064295	0.078759	0.751252
N156	N	1.564295	0.578759	1.251252
H157	H	0.649594	0.079801	-0.244943
H158	H	1.149594	0.579801	0.255057
O159	O	0.325425	0.076206	0.180900
O160	O	0.825425	0.576206	0.680900
H161	H	0.252122	0.075445	0.166278
H162	H	0.752122	0.575445	0.666278
O163	O	1.239133	-0.223677	0.000025
O164	O	1.739133	0.276323	0.500025
H165	H	1.278780	-0.215484	-0.065039
H166	H	1.778780	0.284516	0.434961
O167	O	0.803003	0.081628	0.180897
O168	O	1.303003	0.581628	0.680897
H169	H	0.854231	0.043361	0.185065
H170	H	1.354231	0.543361	0.685065
H171	H	0.478995	0.077742	-0.244947
H172	H	0.978995	0.577742	0.255053
H173	H	0.478961	0.077713	0.244945
H174	H	0.978961	0.577713	0.744945
H175	H	0.952439	0.148888	0.741925
H176	H	1.452439	0.648888	1.241925
O177	O	1.192440	-0.001589	0.755180
O178	O	1.692440	0.498411	1.255180
H179	H	1.182088	0.004904	0.833506
H180	H	1.682088	0.504904	1.333506
O181	O	0.810071	-0.462279	-0.000062
O182	O	1.310071	0.037721	0.499938
H183	H	0.753511	-0.426967	-0.000074
H184	H	1.253511	0.073033	0.499926
H185	H	1.296610	-0.386268	-0.000001
H186	H	1.796610	0.113732	0.499999
H187	H	0.833990	-0.348443	-0.000055
H188	H	1.333990	0.151557	0.499945
O189	O	1.254081	-0.040244	0.604429
O190	O	1.754081	0.459756	1.104429
H191	H	1.243721	-0.033753	0.682755
H192	H	1.743721	0.466247	1.182755
H193	H	0.919309	-0.189684	0.000029
H194	H	1.419309	0.310316	0.500029
H195	H	0.790624	0.081495	-0.157908
H196	H	1.290624	0.581495	0.342092
O197	O	0.899779	-0.072285	0.000022
O198	O	1.399779	0.427715	0.500022
H199	H	0.896375	-0.044896	-0.065056
H200	H	1.396375	0.455104	0.434944
O201	O	0.325545	0.075886	-0.180926
O202	O	0.825545	0.575886	0.319074
H203	H	0.274322	0.114155	-0.185107
H204	H	0.774322	0.614155	0.314893
O205	O	0.936102	0.159109	0.244800
O206	O	1.436102	0.659109	0.744800
H207	H	0.893241	0.185990	0.296631
H208	H	1.393241	0.685990	0.796631
H209	H	0.890759	0.187547	0.408832
H210	H	1.390759	0.687547	0.908832
H211	H	0.649543	0.079765	0.244925
H212	H	1.149543	0.579765	0.744925
O213	O	0.874484	0.197768	0.604451
O214	O	1.374484	0.697768	1.104451
H215	H	0.884860	0.191278	0.682775
H216	H	1.384860	0.691278	1.182775
O217	O	1.254059	-0.040254	0.395537
O218	O	1.754059	0.459746	0.895537
H219	H	1.296927	-0.067137	0.447362
H220	H	1.796927	0.432863	0.947362
O221	O	1.192388	-0.001591	0.244786
O222	O	1.692388	0.498409	0.744786
H223	H	1.235260	-0.028472	0.296609
H224	H	1.735260	0.471528	0.796609
H225	H	1.219593	-0.106289	0.000038
H226	H	1.719593	0.393711	0.500038
H227	H	1.294567	-0.494022	-0.000018
H228	H	1.794567	0.005978	0.499982
O229	O	1.231117	-0.646727	-0.000037
O230	O	1.731117	-0.146727	0.499963
H231	H	1.270309	-0.661360	0.065034
H232	H	1.770309	-0.161360	0.565034
O233	O	1.228773	-0.770199	-0.000033
O234	O	1.728773	-0.270199	0.499967
H235	H	1.232198	-0.797573	-0.065115
H236	H	1.732198	-0.297573	0.434885
O237	O	0.887086	-0.742267	-0.000032
O238	O	1.387086	-0.242267	0.499968
H239	H	0.830522	-0.706958	-0.000036
H240	H	1.330522	-0.206958	0.499964
O241	O	0.889424	-0.618799	-0.000023
O242	O	1.389424	-0.118799	0.499977
H243	H	0.831698	-0.644767	-0.000012
H244	H	1.331698	-0.144767	0.499988
