data_functionalizedCrystal
_audit_creation_method	'MofGen! by Chris Wilmer'
_symmetry_space_group_name_H-M	'P1'
_symmetry_Int_Tables_number	1
_symmetry_cell_setting	triclinic
loop_
_symmetry_equiv_pos_as_xyz
  x,y,z
_cell_length_a	10.654550
_cell_length_b	10.540539
_cell_length_c	9.730223
_cell_angle_alpha	89.997733
_cell_angle_beta	89.999957
_cell_angle_gamma	84.505211
loop_
_atom_site_label
_atom_site_type_symbol
_atom_site_fract_x
_atom_site_fract_y
_atom_site_fract_z
O1	O	1.667902	0.178301	-0.114180
O2	O	1.302429	0.195288	-0.114205
O3	O	1.493504	0.002085	-0.114190
O4	O	1.476827	0.371504	-0.114195
O5	O	1.493491	0.002079	0.114390
O6	O	1.302417	0.195282	0.114375
O7	O	1.667889	0.178295	0.114400
Zn8	Zn	1.485151	0.186788	0.150679
Zn9	Zn	1.485167	0.186795	-0.150484
O10	O	1.476815	0.371498	0.114385
C11	C	1.255625	0.194038	0.000082
C12	C	1.116180	0.190306	0.000072
C13	C	1.036735	0.304061	0.000075
C14	C	0.905712	0.300547	0.000099
C15	C	0.933594	0.069513	0.000112
C16	C	1.064614	0.073029	0.000098
C17	C	1.492247	-0.045221	0.000097
C18	C	1.488505	-0.186167	0.000090
C19	C	1.345134	-0.369543	-0.000433
C20	C	1.348927	-0.222926	0.000082
C21	C	1.555670	-0.247852	0.130624
C22	C	1.550906	-0.394395	0.130734
C23	C	1.553759	-0.394908	-0.129204
C24	C	1.555044	-0.247927	-0.130930
C25	C	1.714694	0.179545	0.000110
C26	C	1.854139	0.183277	0.000110
C27	C	1.478072	0.418804	0.000095
C28	C	1.481813	0.559750	0.000093
N29	N	1.485149	0.186782	0.356216
N30	N	1.485179	0.186791	-0.356021
C31	C	1.569786	0.101269	0.428148
C32	C	1.569799	0.101269	0.572031
C33	C	1.400533	0.272309	0.572037
C34	C	1.400516	0.272301	0.428156
H35	H	1.129302	-0.019610	0.000100
H36	H	1.331588	0.341937	0.369585
H37	H	0.841032	0.393178	0.000104
H38	H	1.078715	0.399556	0.000064
H39	H	1.296078	-0.180301	-0.093491
H40	H	0.891593	-0.025970	0.000141
H41	H	1.290002	-0.398121	-0.094042
C42	C	1.270944	-0.410307	0.125311
H43	H	1.322905	-0.470227	0.178132
H44	H	1.198317	-0.448156	0.095297
H45	H	1.245862	-0.337680	0.180099
C46	C	1.277038	-0.166487	0.126700
H47	H	1.245410	-0.233182	0.178031
H48	H	1.208839	-0.108006	0.097596
H49	H	1.332532	-0.123472	0.182612
H50	H	1.501258	-0.422579	0.228305
C51	C	1.662904	0.007209	0.651151
H52	H	1.713308	-0.043714	0.587695
H53	H	1.617270	-0.046064	0.707291
H54	H	1.715596	0.053381	0.707265
C55	C	1.686505	-0.459252	0.138769
H56	H	1.744256	-0.396005	0.141964
H57	H	1.703368	-0.511432	0.060065
H58	H	1.695550	-0.510313	0.219268
H59	H	1.656808	-0.223742	-0.138805
H60	H	1.658172	-0.225535	0.135484
C61	C	1.492620	-0.190307	0.261846
H62	H	1.425376	-0.128706	0.237362
H63	H	1.552945	-0.150757	0.314666
H64	H	1.460612	-0.255968	0.314455
C65	C	1.662867	0.007192	0.349018
H66	H	1.713266	-0.043745	0.412471
H67	H	1.715547	0.053341	0.292874
H68	H	1.617202	-0.046085	0.292907
C69	C	1.492738	-0.437496	-0.262860
H70	H	1.422804	-0.483332	-0.241053
H71	H	1.552854	-0.490746	-0.313824
H72	H	1.464877	-0.364671	-0.316146
C73	C	1.488757	-0.192597	-0.261389
H74	H	1.420817	-0.132104	-0.236131
H75	H	1.457315	-0.259425	-0.312645
H76	H	1.547245	-0.152095	-0.315866
C77	C	1.689946	-0.458763	-0.130395
H78	H	1.702949	-0.512800	-0.052525
H79	H	1.747253	-0.395099	-0.127529
H80	H	1.703642	-0.507814	-0.211859
C81	C	1.307456	0.366383	0.651175
H82	H	1.319596	0.354151	0.747168
H83	H	1.223513	0.351810	0.627614
H84	H	1.321858	0.451237	0.627579
