data_functionalizedCrystal
_audit_creation_method	'MofGen! by Chris Wilmer'
_symmetry_space_group_name_H-M	'P1'
_symmetry_Int_Tables_number	1
_symmetry_cell_setting	triclinic
loop_
_symmetry_equiv_pos_as_xyz
  x,y,z
_cell_length_a	19.077105
_cell_length_b	18.050589
_cell_length_c	19.076919
_cell_angle_alpha	92.275255
_cell_angle_beta	90.076224
_cell_angle_gamma	87.724731
loop_
_atom_site_label
_atom_site_type_symbol
_atom_site_fract_x
_atom_site_fract_y
_atom_site_fract_z
Zn1	Zn	1.058247	-0.359281	-0.440438
Zn2	Zn	1.558247	0.140719	0.059562
Zn3	Zn	1.062879	-0.478689	-0.322938
Zn4	Zn	1.562879	0.021311	0.177062
Zn5	Zn	0.945466	-0.349333	-0.318231
Zn6	Zn	1.445466	0.150667	0.181769
Zn7	Zn	0.940701	-0.478241	-0.435691
Zn8	Zn	1.440701	0.021759	0.064309
O9	O	1.001823	-0.416386	-0.379325
O10	O	1.501823	0.083614	0.120675
O11	O	1.157193	-0.379472	-0.428809
O12	O	1.657193	0.120528	0.071191
O13	O	1.051237	-0.457554	-0.223983
O14	O	1.551237	0.042446	0.276017
O15	O	0.960482	-0.246731	-0.334459
O16	O	1.460482	0.253269	0.165541
O17	O	1.160596	-0.467201	-0.342482
O18	O	1.660596	0.032799	0.157518
O19	O	1.043342	-0.254040	-0.424244
O20	O	1.543342	0.245960	0.075756
O21	O	0.964973	-0.362516	-0.220524
O22	O	1.464973	0.137484	0.279476
O23	O	0.846502	-0.362082	-0.329856
O24	O	1.346502	0.137918	0.170144
O25	O	0.952361	-0.466437	-0.534652
O26	O	1.452361	0.033563	-0.034652
O27	O	0.843002	-0.456790	-0.416153
O28	O	1.343002	0.043210	0.083847
O29	O	1.038722	-0.379038	-0.538140
O30	O	1.538722	0.120962	-0.038140
O31	O	1.046617	-0.582551	-0.337879
O32	O	1.546617	-0.082551	0.162121
O33	O	0.956853	-0.582222	-0.420717
O34	O	1.456853	-0.082222	0.079283
C35	C	0.819256	-0.408308	-0.371979
C36	C	1.319256	0.091692	0.128021
C37	C	0.741152	-0.404871	-0.368853
C38	C	1.241152	0.095129	0.131147
C39	C	0.702657	-0.452635	-0.412244
C40	C	1.202657	0.047365	0.087756
C41	C	0.629270	-0.449396	-0.409310
C42	C	1.129270	0.050604	0.090690
C43	C	0.594379	-0.398396	-0.362981
C44	C	1.094379	0.101604	0.137019
C45	C	0.632879	-0.350627	-0.319588
C46	C	1.132879	0.149373	0.180412
C47	C	0.706264	-0.353863	-0.322526
C48	C	1.206264	0.146137	0.177474
C49	C	0.375093	-0.383419	-0.349388
C50	C	0.875093	0.116581	0.150612
C51	C	0.301702	-0.380188	-0.346452
C52	C	0.801702	0.119812	0.153548
C53	C	0.298098	-0.478956	-0.436175
C54	C	0.798098	0.021044	0.063825
C55	C	0.371485	-0.482191	-0.439105
C56	C	0.871485	0.017809	0.060895
C57	C	0.409979	-0.434419	-0.395715
C58	C	0.909979	0.065581	0.104285
N59	N	0.519366	-0.395085	-0.359980
N60	N	1.019366	0.104915	0.140020
N61	N	0.484990	-0.437727	-0.398721
N62	N	0.984990	0.062273	0.101279
C63	C	1.001739	-0.609334	-0.379310
C64	C	1.501739	-0.109334	0.120690
C65	C	1.001766	-0.691882	-0.379329
C66	C	1.501766	-0.191882	0.120671
C67	C	0.952999	-0.891182	-0.424363
C68	C	1.452999	-0.391182	0.075637
C69	C	0.938449	-0.937256	-0.359556
C70	C	1.438449	-0.437256	0.140444
C71	C	1.001835	-0.843016	-0.379341
C72	C	1.501835	-0.343016	0.120659
C73	C	1.016419	-0.944025	-0.444157
C74	C	1.516419	-0.444025	0.055843
C75	C	1.001900	-0.989004	-0.379358
C76	C	1.501900	-0.489004	0.120642
C77	C	0.987253	-0.887999	-0.314499
C78	C	1.487253	-0.387999	0.185501
C79	C	1.065250	-0.894768	-0.399145
C80	C	1.565250	-0.394768	0.100855
C81	C	1.050726	-0.940818	-0.334295
C82	C	1.550726	-0.440818	0.165705
C83	C	1.001796	-0.758915	-0.379332
C84	C	1.501796	-0.258915	0.120668
C85	C	1.001939	-1.073102	-0.379360
C86	C	1.501939	-0.573102	0.120640
C87	C	1.185104	-0.424496	-0.386700
C88	C	1.685104	0.075504	0.113300
C89	C	1.263207	-0.427952	-0.389843
C90	C	1.763207	0.072048	0.110157
C91	C	0.994493	-0.423797	-0.562605
C92	C	1.494493	0.076203	-0.062605
C93	C	0.991370	-0.426955	-0.640709
C94	C	1.491370	0.073045	-0.140709
C95	C	1.001926	-0.222686	-0.379356
C96	C	1.501926	0.277314	0.120644
C97	C	1.001970	-0.140143	-0.379369
C98	C	1.501970	0.359857	0.120631
C99	C	1.034863	-0.382937	-0.679219
C100	C	1.534863	0.117063	-0.179219
C101	C	1.031920	-0.385901	-0.752605
C102	C	1.531920	0.114099	-0.252605
C103	C	0.985486	-0.432888	-0.787479
C104	C	1.485486	0.067112	-0.287479
C105	C	0.941988	-0.476908	-0.748964
C106	C	1.441988	0.023092	-0.248964
C107	C	0.944928	-0.473940	-0.675579
C108	C	1.444928	0.026060	-0.175579
C109	C	0.971867	-0.446642	-1.006761
C110	C	1.471867	0.053358	-0.506761
C111	C	0.968931	-0.449609	-1.080151
C112	C	1.468931	0.050391	-0.580151
C113	C	1.058863	-0.358601	-1.083787
C114	C	1.558863	0.141399	-0.583787
C115	C	1.061802	-0.355639	-1.010401
C116	C	1.561802	0.144361	-0.510401
C117	C	1.018301	-0.399657	-0.971892
C118	C	1.518301	0.100343	-0.471892
N119	N	0.982478	-0.435921	-0.862492
N120	N	1.482478	0.064079	-0.362492
N121	N	1.021307	-0.396619	-0.896881
N122	N	1.521307	0.103381	-0.396881
C123	C	1.009165	-0.408952	-0.196759
C124	C	1.509165	0.091048	0.303241
C125	C	1.012425	-0.405591	-0.118661
C126	C	1.512425	0.094409	0.381339
H127	H	0.604465	-0.309099	-0.281869
H128	H	1.104465	0.190901	0.218131
H129	H	0.904177	-0.515163	-0.777365
H130	H	1.404177	-0.015163	-0.277365
C131	C	0.586929	-0.501954	-0.457031
C132	C	1.086929	-0.001954	0.042969
N133	N	0.555039	-0.541548	-0.492972
N134	N	1.055039	-0.041548	0.007028
H135	H	1.118835	-0.875974	-0.415910
H136	H	1.618835	-0.375974	0.084090
H137	H	0.266749	-0.517848	-0.471502
H138	H	0.766749	-0.017848	0.028498
C139	C	0.263323	-0.324081	-0.295485
C140	C	0.763323	0.175919	0.204515
N141	N	0.234417	-0.281824	-0.257098
N142	N	0.734417	0.218176	0.242902
H143	H	1.094278	-0.322763	-1.115149
H144	H	1.594278	0.177237	-0.615149
C145	C	1.106557	-0.970076	-0.282809
C146	C	1.606557	-0.470076	0.217191
N147	N	1.148604	-0.992115	-0.244027
N148	N	1.648604	-0.492115	0.255973
C149	C	1.079768	-0.337478	-0.794963
C150	C	1.579768	0.162522	-0.294963
N151	N	1.115809	-0.301004	-0.826866
N152	N	1.615809	0.198996	-0.326866
C153	C	0.917846	-0.501299	-1.118512
C154	C	1.417846	-0.001299	-0.618512
N155	N	0.879371	-0.540229	-1.147405
N156	N	1.379371	-0.040229	-0.647405
C157	C	0.417426	-0.330873	-0.301652
C158	C	0.917426	0.169127	0.198348
N159	N	0.449314	-0.291294	-0.265694
N160	N	0.949314	0.208706	0.234306
H161	H	1.028729	-0.968523	-0.498964
H162	H	1.528729	-0.468523	0.001036
C163	C	1.112876	-0.303942	-0.972044
C164	C	1.612876	0.196058	-0.472044
N165	N	1.151345	-0.265002	-0.943154
N166	N	1.651345	0.234998	-0.443154
C167	C	0.897132	-0.861730	-0.475715
C168	C	1.397132	-0.361730	0.024285
N169	N	0.855052	-0.839545	-0.514390
N170	N	1.355052	-0.339545	-0.014390
C171	C	1.085944	-0.331246	-0.640864
C172	C	1.585944	0.168754	-0.140864
N173	N	1.124417	-0.292308	-0.611976
N174	N	1.624417	0.207692	-0.111976
C175	C	0.924012	-0.495061	-0.964411
C176	C	1.424012	0.004939	-0.464411
N177	N	0.887964	-0.531530	-0.932510
N178	N	1.387964	-0.031530	-0.432510
C179	C	0.897083	-0.522365	-0.633218
C180	C	1.397083	-0.022365	-0.133218
N181	N	0.861043	-0.558839	-0.601313
N182	N	1.361043	-0.058839	-0.101313
C183	C	0.748608	-0.301321	-0.274791
C184	C	1.248608	0.198679	0.225209
N185	N	0.780501	-0.261743	-0.238836
N186	N	1.280501	0.238257	0.261164
H187	H	0.974881	-0.863588	-0.259675
H188	H	1.474881	-0.363588	0.240325
C189	C	0.741030	-0.508740	-0.463210
C190	C	1.241030	-0.008740	0.036790
N191	N	0.769930	-0.550997	-0.501601
N192	N	1.269930	-0.050997	-0.001601
H193	H	0.399888	-0.523722	-0.476830
H194	H	0.899888	-0.023722	0.023170
C195	C	0.866038	-0.962626	-0.336932
C196	C	1.366038	-0.462626	0.163068
N197	N	0.811496	-0.981732	-0.319896
N198	N	1.311496	-0.481732	0.180104
