data_functionalizedCrystal
_audit_creation_method	'MofGen! by Chris Wilmer'
_symmetry_space_group_name_H-M	'P1'
_symmetry_Int_Tables_number	1
_symmetry_cell_setting	triclinic
loop_
_symmetry_equiv_pos_as_xyz
  x,y,z
_cell_length_a	14.971486
_cell_length_b	19.188930
_cell_length_c	14.048226
_cell_angle_alpha	89.988446
_cell_angle_beta	89.998499
_cell_angle_gamma	83.379455
loop_
_atom_site_label
_atom_site_type_symbol
_atom_site_fract_x
_atom_site_fract_y
_atom_site_fract_z
O1	O	1.186466	0.090988	-0.079062
O2	O	0.926009	0.101884	-0.079090
O3	O	1.063754	-0.005196	-0.079057
O4	O	1.048721	0.198067	-0.079095
O5	O	1.063737	-0.005202	0.079265
O6	O	0.925992	0.101878	0.079232
O7	O	1.186450	0.090982	0.079259
Zn8	Zn	1.056218	0.096429	0.104382
Zn9	Zn	1.056240	0.096437	-0.104213
O10	O	1.048705	0.198061	0.079226
C11	C	0.892678	0.101393	0.000068
C12	C	0.793389	0.099933	0.000058
C13	C	0.735831	0.162839	0.000048
C14	C	0.642539	0.161463	0.000062
C15	C	0.606806	0.097180	0.000080
C16	C	0.664371	0.034269	0.000094
C17	C	0.757662	0.035646	0.000086
C18	C	0.469924	0.031403	0.000108
C19	C	0.376627	0.030026	0.000113
C20	C	0.354801	0.157221	0.000083
C21	C	0.448092	0.158598	0.000076
C22	C	0.505650	0.095686	0.000088
C23	C	1.063259	-0.031211	0.000107
C24	C	1.061797	-0.108721	0.000115
C25	C	1.142622	-0.153384	0.000128
C26	C	1.141249	-0.226213	0.000112
C27	C	1.059047	-0.254374	0.000103
C28	C	0.978212	-0.209700	0.000085
C29	C	0.979587	-0.136874	0.000091
N30	N	0.996208	-0.362583	0.053976
N31	N	0.994907	-0.431766	0.053973
C32	C	1.054899	-0.473796	0.000084
N33	N	1.116254	-0.444031	-0.053790
N34	N	1.117558	-0.374842	-0.053782
C35	C	1.057547	-0.333341	0.000096
C36	C	1.134240	-0.597429	0.000078
C37	C	1.132864	-0.670258	0.000057
C38	C	0.969825	-0.653744	0.000039
C39	C	0.971203	-0.580916	0.000051
C40	C	1.053413	-0.552763	0.000075
C41	C	1.219780	0.091472	0.000100
C42	C	1.319070	0.092932	0.000103
C43	C	1.049200	0.224077	0.000061
C44	C	1.050661	0.301586	0.000046
N45	N	1.056210	0.096422	0.246743
N46	N	1.056256	0.096437	-0.246573
C47	C	1.117223	0.049027	0.296576
C48	C	1.117229	0.049027	0.396233
C49	C	1.056226	0.096426	0.446057
C50	C	0.995207	0.143823	0.396217
C51	C	0.995197	0.143819	0.296561
C52	C	0.995233	0.143828	0.603931
C53	C	0.995243	0.143833	0.703594
C54	C	1.117264	0.049035	0.703603
C55	C	1.117255	0.049032	0.603948
C56	C	1.056236	0.096430	0.554115
H57	H	0.764917	0.215186	0.000032
H58	H	0.307932	0.208445	0.000078
O59	O	1.183074	-0.002095	0.757342
H60	H	1.172826	0.005862	0.835010
H61	H	0.595679	0.212688	0.000052
H62	H	0.477182	0.210943	0.000052
H63	H	0.945542	0.182423	0.563361
O64	O	1.220048	-0.718430	0.000075
H65	H	1.223342	-0.751988	-0.064463
O66	O	0.819749	-0.032202	0.000095
H67	H	0.779231	-0.077134	0.000100
O68	O	0.929431	0.194939	0.757338
H69	H	0.886985	0.227887	0.705946
O70	O	1.228427	-0.274399	0.000144
H71	H	1.267804	-0.264373	-0.064369
H72	H	0.347537	-0.022319	0.000130
O73	O	0.884028	-0.532736	0.000047
H74	H	0.880755	-0.499170	0.064575
H75	H	1.209564	-0.130467	0.000144
O76	O	1.183051	-0.002090	0.550209
H77	H	1.145525	-0.036069	0.504819
O78	O	0.889548	-0.240067	0.000086
H79	H	0.902170	-0.298212	0.000097
H80	H	0.516786	-0.019826	0.000119
H81	H	0.945513	0.182413	0.255988
H82	H	0.635271	-0.018072	0.000122
O83	O	0.929415	0.194953	0.449948
H84	H	0.886068	0.165514	0.495379
H85	H	0.913768	-0.100507	0.000080
O86	O	1.222903	-0.567055	0.000085
H87	H	1.278877	-0.610351	0.000074
O88	O	0.881160	-0.684105	0.000033
H89	H	0.893780	-0.742250	0.000038
O90	O	1.183016	-0.002099	0.242838
H91	H	1.225435	-0.035061	0.294237
H92	H	1.166909	0.010434	0.436807
