data_functionalizedCrystal
_audit_creation_method	'MofGen! by Chris Wilmer'
_symmetry_space_group_name_H-M	'P1'
_symmetry_Int_Tables_number	1
_symmetry_cell_setting	triclinic
loop_
_symmetry_equiv_pos_as_xyz
  x,y,z
_cell_length_a	19.188930
_cell_length_b	10.967961
_cell_length_c	9.482900
_cell_angle_alpha	87.495787
_cell_angle_beta	80.728812
_cell_angle_gamma	83.942486
loop_
_atom_site_label
_atom_site_type_symbol
_atom_site_fract_x
_atom_site_fract_y
_atom_site_fract_z
O1	O	0.940913	0.130797	-0.154132
O2	O	0.738180	0.150965	-0.159084
O3	O	0.840328	-0.033702	-0.112869
O4	O	0.838765	0.315464	-0.200346
O5	O	0.819583	0.003958	0.119498
O6	O	0.717436	0.188625	0.073284
O7	O	0.920168	0.168457	0.078236
Cu8	Cu	0.816908	0.181979	0.096977
Cu9	Cu	0.841441	0.137442	-0.177825
O10	O	0.818021	0.353124	0.032021
C11	C	0.701777	0.169144	-0.042724
C12	C	0.624212	0.167191	-0.042197
C13	C	0.828274	-0.059544	0.014504
C14	C	0.823257	-0.192651	0.047845
C15	C	0.826583	-0.409076	-0.023203
C16	C	0.831768	-0.271504	-0.057673
C17	C	0.582446	0.275539	-0.069364
C18	C	0.509570	0.273696	-0.068919
C19	C	0.478465	0.163494	-0.041332
C20	C	0.520240	0.055133	-0.014153
C21	C	0.593113	0.056981	-0.014585
N22	N	0.375097	0.066435	-0.099370
N23	N	0.305870	0.064686	-0.098964
C24	C	0.258902	0.157919	-0.040024
N25	N	0.283777	0.252983	0.018472
N26	N	0.353011	0.254735	0.018059
C27	C	0.399447	0.161478	-0.040859
C28	C	0.138116	0.264277	-0.066708
C29	C	0.065238	0.262431	-0.066253
C30	C	0.075910	0.043862	-0.011500
C31	C	0.148785	0.045714	-0.011942
C32	C	0.179884	0.155923	-0.039554
C33	C	0.956572	0.150277	-0.038127
C34	C	1.034138	0.152228	-0.038663
C35	C	0.830074	0.378965	-0.095355
C36	C	0.835093	0.512070	-0.128706
N37	N	0.799658	0.213304	0.290258
N38	N	0.858696	0.106108	-0.371103
C39	C	0.836348	0.146675	0.379132
C40	C	0.822001	0.172747	0.540024
H41	H	0.842886	-0.237170	-0.173524
O42	O	0.766325	0.273899	0.596973
H43	H	0.725010	0.234515	0.676237
H44	H	0.900729	0.029753	0.585881
O45	O	0.464517	0.390568	-0.098229
H46	H	0.422588	0.410316	-0.004630
O47	O	0.811853	-0.454562	0.130246
H48	H	0.760066	-0.409851	0.182313
H49	H	0.812127	-0.226981	0.163697
H50	H	0.757623	0.289645	0.333283
O51	O	0.486698	-0.063732	0.015602
H52	H	0.429008	-0.046818	0.011325
H53	H	0.846211	-0.453590	-0.244549
H54	H	0.607762	0.365280	-0.091851
H55	H	0.627119	-0.031252	0.007538
H56	H	0.163436	0.354020	-0.089171
O57	O	0.892015	0.045533	0.322135
H58	H	0.944414	0.064793	0.346374
H59	H	0.031232	0.350666	-0.088369
O60	O	0.042374	-0.075005	0.018255
H61	H	-0.015317	-0.058091	0.013986
O62	O	0.193841	-0.071150	0.017348
H63	H	0.159972	-0.148094	0.036598
