data_functionalizedCrystal
_audit_creation_method	'MofGen! by Chris Wilmer'
_symmetry_space_group_name_H-M	'P1'
_symmetry_Int_Tables_number	1
_symmetry_cell_setting	triclinic
loop_
_symmetry_equiv_pos_as_xyz
  x,y,z
_cell_length_a	8.559649
_cell_length_b	16.109301
_cell_length_c	15.186229
_cell_angle_alpha	90.001705
_cell_angle_beta	90.004821
_cell_angle_gamma	76.620073
loop_
_atom_site_label
_atom_site_type_symbol
_atom_site_fract_x
_atom_site_fract_y
_atom_site_fract_z
O1	O	-2.120146	0.028212	-0.073213
O2	O	-1.620146	0.528212	0.426787
O3	O	-1.654920	-0.014727	-0.073219
O4	O	-1.154920	0.485273	0.426781
O5	O	-1.900314	0.128588	-0.073207
O6	O	-1.400314	0.628588	0.426793
O7	O	-1.874753	-0.115103	-0.073225
O8	O	-1.374753	0.384897	0.426775
O9	O	-1.900285	0.128579	0.073250
O10	O	-1.400285	0.628579	0.573250
O11	O	-1.654891	-0.014736	0.073238
O12	O	-1.154891	0.485264	0.573238
O13	O	-2.120118	0.028203	0.073244
O14	O	-1.620118	0.528203	0.573244
Zn15	Zn	-1.887500	0.006732	0.096494
Zn16	Zn	-1.387500	0.506732	0.596494
Zn17	Zn	-1.887538	0.006744	-0.096469
Zn18	Zn	-1.387538	0.506744	0.403531
O19	O	-1.874724	-0.115112	0.073232
O20	O	-1.374724	0.384888	0.573232
C21	C	-1.595374	-0.017985	0.000009
C22	C	-1.095374	0.482015	0.500009
C23	C	-1.417989	-0.027671	0.000007
C24	C	-0.917989	0.472329	0.500007
C25	C	-1.899264	0.159492	0.000022
C26	C	-1.399264	0.659492	0.500022
C27	C	-1.896160	0.251590	0.000023
C28	C	-1.396160	0.751590	0.500023
C29	C	-2.179664	0.031461	0.000014
C30	C	-1.679664	0.531461	0.500014
C31	C	-2.357049	0.041147	0.000011
C32	C	-1.857049	0.541147	0.500011
C33	C	-1.875774	-0.146016	0.000001
C34	C	-1.375774	0.353984	0.500001
C35	C	-1.878878	-0.238114	-0.000006
C36	C	-1.378878	0.261886	0.499994
N37	N	-1.887486	0.006725	0.228187
N38	N	-1.387486	0.506725	0.728187
C39	C	-2.034553	0.482679	0.000011
C40	C	-1.534553	0.982679	0.500011
C41	C	-2.031624	0.569213	0.000004
C42	C	-1.531624	1.069213	0.500004
C43	C	-1.740473	0.530789	0.000004
C44	C	-1.240473	1.030789	0.500004
C45	C	-1.743404	0.444257	0.000005
C46	C	-1.243404	0.944257	0.500005
C47	C	-1.890449	0.420205	0.000013
C48	C	-1.390449	0.920205	0.500013
C49	C	-1.884589	0.593271	0.000005
C50	C	-1.384589	1.093271	0.500005
C51	C	-1.881412	0.687094	-0.000003
C52	C	-1.381412	1.187094	0.499997
C53	C	-1.893627	0.326376	0.000019
C54	C	-1.393627	0.826376	0.500019
N55	N	-1.887565	0.006758	-0.228162
N56	N	-1.387565	0.506758	0.271838
C57	C	-1.984397	-0.037529	0.453907
C58	C	-1.484397	0.462471	0.953907
C59	C	-1.984414	-0.037522	0.546097
C60	C	-1.484414	0.462478	1.046097
C61	C	-1.790650	0.051018	0.546111
C62	C	-1.290650	0.551018	1.046111
C63	C	-1.790642	0.051015	0.453924
C64	C	-1.290642	0.551015	0.953924
C65	C	-1.887513	0.006737	0.407824
C66	C	-1.387513	0.506737	0.907824
C67	C	-1.887538	0.006746	0.592201
C68	C	-1.387538	0.506746	1.092201
C69	C	-1.887556	0.006754	0.692158
C70	C	-1.387556	0.506754	1.192158
C71	C	-1.887497	0.006730	0.307861
C72	C	-1.387497	0.506730	0.807861
H73	H	-1.440580	0.107476	0.000011
H74	H	-0.940580	0.607476	0.500011
H75	H	-2.154287	0.463099	0.000016
H76	H	-1.654287	0.963099	0.500016
H77	H	-1.334449	-0.094004	-0.000003
H78	H	-0.834449	0.405996	0.499997
H79	H	-1.620755	0.550384	-0.000001
H80	H	-1.120755	1.050384	0.499999
H81	H	-1.711746	0.087066	0.416401
H82	H	-1.211746	0.587066	0.916401
C83	C	-1.584870	0.375531	0.000002
C84	C	-1.084870	0.875531	0.500002
N85	N	-1.465466	0.323766	-0.000003
N86	N	-0.965466	0.823766	0.499997
C87	C	-2.190151	0.637932	0.000010
C88	C	-1.690151	1.137932	0.500010
N89	N	-2.309561	0.689691	0.000016
N90	N	-1.809561	1.189691	0.500016
C91	C	-2.090971	-0.086228	0.403201
C92	C	-1.590971	0.413772	0.903201
N93	N	-2.171253	-0.122906	0.365011
N94	N	-1.671253	0.377094	0.865011
H95	H	-2.063309	-0.073566	0.583614
H96	H	-1.563309	0.426434	1.083614
C97	C	-1.684081	0.099711	0.596830
C98	C	-1.184081	0.599711	1.096830
N99	N	-1.603805	0.136385	0.635030
N100	N	-1.103805	0.636385	1.135030
