data_functionalizedCrystal
_audit_creation_method	'MofGen! by Chris Wilmer'
_symmetry_space_group_name_H-M	'P1'
_symmetry_Int_Tables_number	1
_symmetry_cell_setting	triclinic
loop_
_symmetry_equiv_pos_as_xyz
  x,y,z
_cell_length_a	17.077404
_cell_length_b	16.120484
_cell_length_c	17.077396
_cell_angle_alpha	92.868746
_cell_angle_beta	89.980499
_cell_angle_gamma	92.925780
loop_
_atom_site_label
_atom_site_type_symbol
_atom_site_fract_x
_atom_site_fract_y
_atom_site_fract_z
Zn1	Zn	1.184194	-0.331902	-0.459673
Zn2	Zn	1.177439	-0.471326	-0.335057
Zn3	Zn	1.052925	-0.331932	-0.328422
Zn4	Zn	1.046234	-0.471277	-0.466278
O5	O	1.115198	-0.401609	-0.397358
O6	O	1.293145	-0.350406	-0.443155
O7	O	1.160895	-0.452868	-0.224331
O8	O	1.075965	-0.215262	-0.340292
O9	O	1.288181	-0.452840	-0.351600
O10	O	1.172408	-0.215241	-0.436721
O11	O	1.069415	-0.350456	-0.219457
O12	O	0.942191	-0.350408	-0.346697
O13	O	1.064562	-0.452756	-0.575247
O14	O	0.937275	-0.452784	-0.447979
O15	O	1.165921	-0.350358	-0.570395
O16	O	1.154407	-0.587986	-0.358004
O17	O	1.058011	-0.587949	-0.454412
C18	C	0.911251	-0.401594	-0.397335
C19	C	0.824000	-0.401608	-0.397345
C20	C	0.780467	-0.454996	-0.450006
C21	C	0.698487	-0.454997	-0.450019
C22	C	0.660041	-0.401615	-0.397366
C23	C	0.703580	-0.348221	-0.344703
C24	C	0.785559	-0.348216	-0.344694
C25	C	0.532709	-0.348238	-0.344722
C26	C	0.450724	-0.348244	-0.344729
C27	C	0.445637	-0.455019	-0.450047
C28	C	0.527616	-0.455014	-0.450038
C29	C	0.571149	-0.401621	-0.397374
C30	C	1.104771	-0.618218	-0.407662
C31	C	1.100383	-0.710884	-0.412097
C32	C	1.092374	-0.880545	-0.420209
C33	C	1.138162	-0.921833	-0.374519
C34	C	1.133706	-1.016239	-0.379033
C35	C	1.096829	-0.786131	-0.415696
C36	C	1.319941	-0.401625	-0.397381
C37	C	1.407191	-0.401632	-0.397390
C38	C	1.115248	-0.401548	-0.602099
C39	C	1.115270	-0.401522	-0.689348
C40	C	1.125687	-0.184155	-0.387030
C41	C	1.130156	-0.091489	-0.382629
C42	C	1.168049	-0.348199	-0.727812
C43	C	1.168060	-0.348171	-0.809791
C44	C	1.115295	-0.401471	-0.853305
C45	C	1.062509	-0.454796	-0.814835
C46	C	1.062495	-0.454819	-0.732857
C47	C	1.062543	-0.454746	-0.985702
C48	C	1.062558	-0.454725	-1.067686
C49	C	1.168108	-0.348098	-1.062637
C50	C	1.168094	-0.348121	-0.980659
C51	C	1.115310	-0.401448	-0.942195
C52	C	1.115196	-0.401610	-0.193410
C53	C	1.115338	-0.401402	-0.106150
H54	H	0.811764	-0.498469	-0.492880
C55	C	1.195635	-0.873808	-0.317088
C56	C	1.284325	-0.885582	-0.324116
C57	C	1.341792	-0.837551	-0.266685
C58	C	1.310568	-0.777747	-0.202225
C59	C	1.221873	-0.765971	-0.195194
C60	C	1.164407	-0.814001	-0.252625
H61	H	1.307443	-0.929855	-0.371836
H62	H	1.407450	-0.846269	-0.271891
H63	H	1.353108	-0.742192	-0.159711
H64	H	1.198756	-0.721697	-0.147474
H65	H	1.098749	-0.805283	-0.247419
H66	H	1.049831	-0.916096	-0.462712
C67	C	1.226093	-0.289567	-0.679950
C68	C	1.224258	-0.194787	-0.686720
C69	C	1.282302	-0.136151	-0.638861
C70	C	1.342181	-0.172295	-0.584231
C71	C	1.344018	-0.267080	-0.577459
C72	C	1.285975	-0.325716	-0.625318
H73	H	1.179930	-0.168027	-0.727163
H74	H	1.280941	-0.065985	-0.643875
H75	H	1.385148	-0.128889	-0.548803
H76	H	1.388346	-0.293840	-0.537017
H77	H	1.287335	-0.395882	-0.620305
H78	H	1.211040	-0.304752	-0.841105
H79	H	1.019549	-0.498158	-0.954387
C80	C	0.569907	-0.513737	-0.507955
C81	C	0.623103	-0.579140	-0.476941
C82	C	0.665394	-0.637862	-0.534860
C83	C	0.654488	-0.631182	-0.623791
C84	C	0.601289	-0.565777	-0.654809
C85	C	0.558999	-0.507054	-0.596890
H86	H	0.631179	-0.584087	-0.411105
H87	H	0.704775	-0.686280	-0.511898
H88	H	0.685794	-0.674652	-0.666665
H89	H	0.593214	-0.560830	-0.720645
H90	H	0.519617	-0.458637	-0.619852
C91	C	0.397756	-0.513752	-0.507982
C92	C	0.338234	-0.579161	-0.476983
C93	C	0.290351	-0.637897	-0.534912
C94	C	0.301990	-0.631223	-0.623840
C95	C	0.361515	-0.565811	-0.654844
C96	C	0.409398	-0.507076	-0.596914
H97	H	0.329616	-0.584104	-0.411148
H98	H	0.246287	-0.686319	-0.511960
H99	H	0.266545	-0.674702	-0.666723
H100	H	0.370134	-0.560869	-0.720678
H101	H	0.453462	-0.458654	-0.619866
H102	H	1.211065	-0.304724	-0.945232
H103	H	1.019544	-0.498191	-0.850270
H104	H	1.211086	-0.304676	-1.093958
H105	H	1.019590	-0.498124	-1.103113
C106	C	0.408422	-0.289509	-0.286833
C107	C	0.424247	-0.194742	-0.288908
C108	C	0.381941	-0.136002	-0.231020
C109	C	0.323810	-0.172028	-0.171056
C110	C	0.307982	-0.266800	-0.168979
C111	C	0.350288	-0.325540	-0.226867
H112	H	0.467282	-0.168069	-0.333299
H113	H	0.393658	-0.065845	-0.232558
H114	H	0.292492	-0.128545	-0.128204
H115	H	0.264948	-0.293473	-0.124588
H116	H	0.338571	-0.395697	-0.225329
C117	C	0.580601	-0.289504	-0.286796
C118	C	0.573892	-0.194737	-0.288842
C119	C	0.621786	-0.136008	-0.230916
C120	C	0.676389	-0.172045	-0.170945
C121	C	0.683100	-0.266817	-0.168897
C122	C	0.635206	-0.325546	-0.226822
H123	H	0.533469	-0.168056	-0.333238
H124	H	0.616817	-0.065851	-0.232433
H125	H	0.711843	-0.128570	-0.128066
H126	H	0.723523	-0.293498	-0.124501
H127	H	0.640175	-0.395703	-0.225306
C128	C	0.833450	-0.289490	-0.286766
C129	C	0.892968	-0.224079	-0.317769
C130	C	0.940859	-0.165348	-0.259843
C131	C	0.929233	-0.172029	-0.170914
C132	C	0.869713	-0.237443	-0.139906
C133	C	0.821822	-0.296174	-0.197833
H134	H	0.901576	-0.219131	-0.383604
H135	H	0.984920	-0.116924	-0.282797
H136	H	0.964685	-0.128553	-0.128033
H137	H	0.861104	-0.242391	-0.074072
H138	H	0.777761	-0.344597	-0.174878
C139	C	1.004441	-0.513477	-0.690540
C140	C	0.915534	-0.506666	-0.701470
C141	C	0.857476	-0.565323	-0.659152
C142	C	0.888326	-0.630791	-0.605904
C143	C	0.977237	-0.637605	-0.594972
C144	C	1.035295	-0.578948	-0.637290
H145	H	0.892694	-0.458200	-0.740889
H146	H	0.791658	-0.560278	-0.667245
H147	H	0.845348	-0.674212	-0.574578
H148	H	1.000077	-0.686070	-0.555553
H149	H	1.101113	-0.583993	-0.629196
H150	H	0.672271	-0.304753	-0.301835
H151	H	0.663045	-0.498472	-0.492900
