data_functionalizedCrystal
_audit_creation_method	'MofGen! by Chris Wilmer'
_symmetry_space_group_name_H-M	'P1'
_symmetry_Int_Tables_number	1
_symmetry_cell_setting	triclinic
loop_
_symmetry_equiv_pos_as_xyz
  x,y,z
_cell_length_a	12.759401
_cell_length_b	19.805405
_cell_length_c	19.805399
_cell_angle_alpha	89.970699
_cell_angle_beta	89.983178
_cell_angle_gamma	90.027935
loop_
_atom_site_label
_atom_site_type_symbol
_atom_site_fract_x
_atom_site_fract_y
_atom_site_fract_z
Zn1	Zn	1.606138	-0.269451	-0.382662
Zn2	Zn	1.606006	-0.382640	-0.269470
Zn3	Zn	1.430450	-0.269473	-0.269492
Zn4	Zn	1.430393	-0.382607	-0.382622
O5	O	1.518247	-0.326043	-0.326062
O6	O	1.753142	-0.284471	-0.367654
O7	O	1.582686	-0.367651	-0.174756
O8	O	1.453834	-0.174754	-0.284530
O9	O	1.753045	-0.367630	-0.284493
O10	O	1.582912	-0.174738	-0.367675
O11	O	1.453706	-0.284508	-0.174772
O12	O	1.283421	-0.284476	-0.284491
O13	O	1.453737	-0.367574	-0.477344
O14	O	1.283379	-0.367595	-0.367608
O15	O	1.582857	-0.284439	-0.477373
O16	O	1.582631	-0.477352	-0.284455
O17	O	1.453609	-0.477328	-0.367587
C18	C	1.518128	-0.501899	-0.326029
C19	C	1.518174	-0.577131	-0.326037
C20	C	1.245279	-0.326034	-0.326048
C21	C	1.128503	-0.326047	-0.326058
C22	C	1.585421	-0.612465	-0.282796
C23	C	1.585466	-0.683153	-0.282811
C24	C	1.518257	-0.718506	-0.326065
C25	C	1.451007	-0.683167	-0.369311
C26	C	1.450969	-0.612480	-0.369299
C27	C	1.451162	-0.968240	-0.369361
C28	C	1.451204	-1.038932	-0.369368
C29	C	1.585659	-1.038914	-0.282873
C30	C	1.585621	-0.968227	-0.282861
C31	C	1.518375	-0.932894	-0.326110
C32	C	1.518329	-0.856245	-0.326094
C33	C	1.518297	-0.795153	-0.326077
C34	C	1.073647	-0.369393	-0.369269
C35	C	0.963922	-0.369396	-0.369283
C36	C	0.963920	-0.282705	-0.282869
C37	C	1.073642	-0.282699	-0.282859
C38	C	0.814010	-0.393693	-0.449076
C39	C	0.759150	-0.437049	-0.492280
C40	C	0.794726	-0.503105	-0.502548
C41	C	0.885159	-0.525817	-0.469600
C42	C	0.940014	-0.482464	-0.426390
C43	C	0.904440	-0.416399	-0.416136
C44	C	1.223557	-0.258409	-0.203065
C45	C	1.278413	-0.215059	-0.159852
C46	C	1.242840	-0.149003	-0.149578
C47	C	1.152402	-0.126292	-0.182513
C48	C	1.097546	-0.169642	-0.225727
C49	C	1.133127	-0.235698	-0.236002
C50	C	1.792280	-0.326052	-0.326075
C51	C	1.909057	-0.326055	-0.326081
C52	C	1.518306	-0.326000	-0.502604
C53	C	1.518331	-0.325982	-0.577836
C54	C	1.518394	-0.149500	-0.326109
C55	C	1.518457	-0.074268	-0.326130
C56	C	1.585565	-0.282691	-0.613197
C57	C	1.585575	-0.282672	-0.683885
C58	C	1.518357	-0.325947	-0.719212
C59	C	1.451115	-0.369239	-0.683847
C60	C	1.451100	-0.369255	-0.613160
C61	C	1.451175	-0.369176	-0.968920
C62	C	1.451197	-0.369158	-1.039612
C63	C	1.585650	-0.282593	-1.039646
C64	C	1.585635	-0.282609	-0.968959
C65	C	1.518390	-0.325898	-0.933600
C66	C	1.518378	-0.325918	-0.856951
C67	C	1.518374	-0.325931	-0.795859
C68	C	1.518248	-0.326036	-0.150206
C69	C	1.518427	-0.325864	-0.074974
H70	H	1.640224	-0.711920	-0.247598
H71	H	1.640418	-1.067690	-0.247660
O72	O	1.650881	-0.240625	-0.934538
C73	C	1.636423	-0.249905	-0.864566
H74	H	1.601991	-0.302146	-0.854890
H75	H	1.580479	-0.209769	-0.844521
C76	C	1.785000	-0.179525	-0.840160
C77	C	1.742719	-0.243691	-0.828277
H78	H	1.850567	-0.175689	-0.817774
H79	H	1.794740	-0.173271	-0.887302
H80	H	1.738371	-0.146086	-0.823457
H81	H	1.789342	-0.277129	-0.844988
H82	H	1.732990	-0.249951	-0.781136
O83	O	0.779604	-0.329478	-0.439177
C84	C	0.857874	-0.283523	-0.459603
H85	H	0.912247	-0.309038	-0.497470
H86	H	0.905008	-0.266711	-0.413694
C87	C	0.739473	-0.190228	-0.446268
C88	C	0.806249	-0.221565	-0.492782
H89	H	0.707629	-0.152008	-0.466732
H90	H	0.686741	-0.221189	-0.432504
H91	H	0.778761	-0.176224	-0.408014
H92	H	0.766958	-0.235576	-0.531030
H93	H	0.858974	-0.190605	-0.506552
O94	O	1.127054	-0.411400	-0.411269
C95	C	1.190555	-0.372917	-0.455061
H96	H	1.207012	-0.321592	-0.431280
H97	H	1.148306	-0.365547	-0.505237
C98	C	1.274552	-0.473208	-0.496450
C99	C	1.294771	-0.410171	-0.467239
H100	H	1.338835	-0.496188	-0.503966
H101	H	1.231768	-0.499135	-0.466949
H102	H	1.239341	-0.467057	-0.538260
H103	H	1.329969	-0.416324	-0.425427
H104	H	1.337564	-0.384246	-0.496734
O105	O	1.386031	-1.073245	-0.411489
C106	C	1.408915	-1.055905	-0.478957
H107	H	1.492832	-1.036424	-0.482415
H108	H	1.352549	-1.014896	-0.496618
C109	C	1.293624	-1.142606	-0.519883
C110	C	1.396697	-1.118684	-0.524130
H111	H	1.286083	-1.181329	-0.547749
H112	H	1.278204	-1.154287	-0.474429
H113	H	1.246665	-1.108425	-0.534599
H114	H	1.443653	-1.152861	-0.509406
H115	H	1.412125	-1.107011	-0.569584
O116	O	1.385982	-0.933897	-0.411439
C117	C	1.445722	-0.892935	-0.455179
H118	H	1.528480	-0.914184	-0.459412
H119	H	1.449323	-0.839372	-0.434252
C120	C	1.292677	-0.865743	-0.520312
C121	C	1.394319	-0.891845	-0.525515
H122	H	1.260968	-0.865068	-0.563698
H123	H	1.252427	-0.893338	-0.490842
H124	H	1.295692	-0.821110	-0.502870
H125	H	1.391302	-0.936480	-0.542949
H126	H	1.434567	-0.864257	-0.554990
O127	O	1.650866	-0.240555	-1.074100
C128	C	1.636486	-0.249827	-1.144065
H129	H	1.555389	-0.271987	-1.153707
H130	H	1.698777	-0.285868	-1.164123
C131	C	1.745786	-0.154114	-1.168530
C132	C	1.646178	-0.181327	-1.180373
H133	H	1.751769	-0.111862	-1.190928
H134	H	1.755478	-0.147869	-1.121393
H135	H	1.797684	-0.184155	-1.185245
H136	H	1.594283	-0.151291	-1.163651
H137	H	1.636478	-0.187566	-1.227508
O138	O	1.295985	-0.106904	-0.107512
C139	C	1.229438	-0.086290	-0.054555
H140	H	1.163783	-0.124797	-0.047981
H141	H	1.194328	-0.034878	-0.067122
C142	C	1.373503	-0.033912	0.003313
C143	C	1.292869	-0.081209	0.011391
H144	H	1.412629	-0.030774	0.043991
H145	H	1.418336	-0.047797	-0.032366
H146	H	1.344232	0.008927	-0.007162
H147	H	1.322141	-0.124048	0.021857
H148	H	1.248041	-0.067331	0.047073
O149	O	1.385793	-0.411216	-1.073825
C150	C	1.326453	-0.449439	-1.027460
H151	H	1.322825	-0.421728	-0.977078
H152	H	1.364873	-0.500851	-1.019931
C153	C	1.219092	-0.493212	-1.116920
C154	C	1.214629	-0.459174	-1.055042
H155	H	1.150115	-0.499220	-1.133934
H156	H	1.259072	-0.467462	-1.148158
H157	H	1.251113	-0.536051	-1.110637
H158	H	1.182620	-0.416333	-1.061327
H159	H	1.174640	-0.484916	-1.023805
H160	H	1.640145	-0.583685	-0.247571
H161	H	1.640327	-0.247422	-0.712673
O162	O	1.386001	-0.411263	-0.934511
C163	C	1.445754	-0.455010	-0.893626
H164	H	1.525389	-0.431147	-0.883035
H165	H	1.457267	-0.505160	-0.920860
C166	C	1.290089	-0.496595	-0.839488
C167	C	1.387895	-0.467283	-0.826476
H168	H	1.254398	-0.504169	-0.798069
H169	H	1.249831	-0.467124	-0.867035
H170	H	1.299697	-0.538383	-0.862185
H171	H	1.378285	-0.425492	-0.803788
H172	H	1.428150	-0.496747	-0.798924
O173	O	1.257936	-0.322623	-0.213028
C174	C	1.179685	-0.368582	-0.192581
H175	H	1.099996	-0.342617	-0.193980
H176	H	1.196691	-0.386542	-0.138997
C177	C	1.276755	-0.461489	-0.239022
C178	C	1.178879	-0.429600	-0.240745
H179	H	1.276260	-0.499130	-0.268729
H180	H	1.329477	-0.430527	-0.252796
H181	H	1.290916	-0.476450	-0.194366
H182	H	1.164726	-0.414633	-0.285399
H183	H	1.126154	-0.460562	-0.226980
O184	O	1.651007	-0.933990	-0.240823
C185	C	1.710355	-0.980336	-0.202648
H186	H	1.713994	-1.030705	-0.230380
H187	H	1.671936	-0.987908	-0.151220
C188	C	1.817698	-0.890830	-0.158894
C189	C	1.822174	-0.952692	-0.192958
H190	H	1.886672	-0.873778	-0.152913
H191	H	1.777712	-0.859606	-0.184611
H192	H	1.785677	-0.897149	-0.116041
H193	H	1.854182	-0.946372	-0.235813
H194	H	1.862169	-0.983915	-0.167247
O195	O	1.027852	-0.504621	-0.394454
C196	C	1.047469	-0.572232	-0.412757
H197	H	1.008295	-0.583466	-0.463244
H198	H	1.014397	-0.607365	-0.372411
C199	C	1.214603	-0.569656	-0.357044
C200	C	1.166496	-0.583452	-0.419055
H201	H	1.288024	-0.576579	-0.360926
H202	H	1.201386	-0.524106	-0.344710
H203	H	1.187031	-0.598935	-0.323428
H204	H	1.194058	-0.554167	-0.452667
H205	H	1.179721	-0.628998	-0.431395
H206	H	0.914111	-0.579609	-0.477958
O207	O	0.741341	-0.545124	-0.544563
C208	C	0.653881	-0.510921	-0.571424
H209	H	0.668204	-0.454142	-0.569303
H210	H	0.581168	-0.523952	-0.540584
C211	C	0.619628	-0.602392	-0.647894
C212	C	0.637224	-0.532655	-0.645294
H213	H	0.609349	-0.615800	-0.693460
H214	H	0.678549	-0.625436	-0.629796
H215	H	0.559036	-0.613242	-0.622191
H216	H	0.697822	-0.521807	-0.670990
H217	H	0.578313	-0.509609	-0.663399
H218	H	0.685519	-0.418550	-0.519107
H219	H	0.919240	-0.247413	-0.247697
H220	H	1.396381	-0.404471	-0.712616
H221	H	1.023912	-0.151144	-0.252549
O222	O	1.117695	-0.062167	-0.172466
C223	C	1.015656	-0.063990	-0.145182
H224	H	1.002288	-0.114619	-0.119153
H225	H	0.955897	-0.057355	-0.187447
C226	C	1.019393	0.055631	-0.125417
C227	C	1.002978	-0.006551	-0.093442
H228	H	1.011570	0.091063	-0.093503
H229	H	1.088138	0.056860	-0.143801
H230	H	0.969592	0.061150	-0.160636
H231	H	1.052787	-0.012073	-0.058229
H232	H	0.934242	-0.007779	-0.075050
H233	H	1.352052	-0.233556	-0.133034
H234	H	1.396211	-0.583711	-0.404512
O235	O	1.650750	-0.240556	-0.578915
C236	C	1.627862	-0.173094	-0.596220
H237	H	1.543936	-0.169672	-0.615643
H238	H	1.684210	-0.155395	-0.637264
C239	C	1.743193	-0.132135	-0.509588
C240	C	1.640110	-0.127932	-0.533438
H241	H	1.750753	-0.104276	-0.470863
H242	H	1.758617	-0.177585	-0.497931
H243	H	1.790138	-0.117387	-0.543798
H244	H	1.593169	-0.142688	-0.499233
H245	H	1.624679	-0.082483	-0.545089
H246	H	1.396289	-0.711957	-0.404532
H247	H	1.396341	-0.404499	-0.584370
