data_functionalizedCrystal
_audit_creation_method	'MofGen! by Chris Wilmer'
_symmetry_space_group_name_H-M	'P1'
_symmetry_Int_Tables_number	1
_symmetry_cell_setting	triclinic
loop_
_symmetry_equiv_pos_as_xyz
  x,y,z
_cell_length_a	27.732048
_cell_length_b	27.732048
_cell_length_c	9.616153
_cell_angle_alpha	89.992780
_cell_angle_beta	89.998655
_cell_angle_gamma	82.642655
loop_
_atom_site_label
_atom_site_type_symbol
_atom_site_fract_x
_atom_site_fract_y
_atom_site_fract_z
O1	O	0.640929	0.057515	-0.115481
O2	O	1.140929	0.557515	0.384519
O3	O	0.500136	0.066260	-0.115525
O4	O	1.000136	0.566260	0.384475
O5	O	0.574905	-0.008509	-0.115475
O6	O	1.074905	0.491491	0.384525
O7	O	0.566160	0.132284	-0.115531
O8	O	1.066160	0.632284	0.384469
O9	O	0.574895	-0.008507	0.115816
O10	O	1.074895	0.491493	0.615816
O11	O	0.500125	0.066262	0.115766
O12	O	1.000125	0.566262	0.615766
O13	O	0.640919	0.057517	0.115810
O14	O	1.140919	0.557517	0.615810
Zn15	Zn	0.570520	0.061890	0.152511
Zn16	Zn	1.070520	0.561890	0.652511
Zn17	Zn	0.570534	0.061887	-0.152226
Zn18	Zn	1.070534	0.561887	0.347774
O19	O	0.566149	0.132286	0.115760
O20	O	1.066149	0.632286	0.615760
C21	C	0.482124	0.066078	0.000115
C22	C	0.982124	0.566078	0.500115
C23	C	0.428469	0.065525	0.000099
C24	C	0.928469	0.565525	0.500099
C25	C	0.089654	0.106229	0.000143
C26	C	0.589654	0.606229	0.500143
C27	C	-0.112006	0.104178	0.000157
C28	C	0.387994	0.604178	0.500157
O29	O	-0.143262	0.141398	0.000202
O30	O	0.356738	0.641398	0.500202
N31	N	-0.131130	0.059843	0.000172
N32	N	0.368870	0.559843	0.500172
C33	C	-0.099835	0.016017	0.000193
C34	C	0.400165	0.516017	0.500193
O35	O	-0.120728	-0.021740	0.000220
O36	O	0.379272	0.478260	0.500220
C37	C	0.101824	0.018068	0.000189
C38	C	0.601824	0.518068	0.500189
C39	C	0.120944	0.062407	0.000160
C40	C	0.620944	0.562407	0.500160
C41	C	0.108775	0.150563	0.000116
C42	C	0.608775	0.650563	0.500116
C43	C	0.159187	0.151075	0.000105
C44	C	0.659187	0.651075	0.500105
C45	C	0.190477	0.107253	0.000122
C46	C	0.690477	0.607253	0.500122
C47	C	0.171356	0.062919	0.000149
C48	C	0.671356	0.562919	0.500149
C49	C	0.133117	-0.025757	0.000220
C50	C	0.633117	0.474243	0.500220
C51	C	0.183535	-0.025240	0.000223
C52	C	0.683535	0.474760	0.500223
C53	C	0.202655	0.019098	0.000194
C54	C	0.702655	0.519098	0.500194
C55	C	0.253059	0.019609	0.000155
C56	C	0.753059	0.519609	0.500155
N57	N	0.272183	0.063944	0.000140
N58	N	0.772183	0.563944	0.500140
C59	C	0.240892	0.107766	0.000123
C60	C	0.740892	0.607766	0.500123
C61	C	-0.205709	0.014943	0.000192
C62	C	0.294291	0.514943	0.500192
C63	C	-0.256124	0.014430	0.000190
C64	C	0.243876	0.514430	0.500190
C65	C	-0.268291	0.102591	0.000157
C66	C	0.231709	0.602591	0.500157
C67	C	-0.217876	0.103104	0.000148
C68	C	0.282124	0.603104	0.500148
C69	C	-0.186585	0.059278	0.000177
C70	C	0.313415	0.559278	0.500177
C71	C	0.346761	0.108839	0.000099
C72	C	0.846761	0.608839	0.500099
C73	C	0.397178	0.109347	0.000083
C74	C	0.897178	0.609347	0.500083
C75	C	0.409341	0.021186	0.000123
C76	C	0.909341	0.521186	0.500123
C77	C	0.358929	0.020678	0.000133
C78	C	0.858929	0.520678	0.500133
C79	C	0.327639	0.064508	0.000125
C80	C	0.827639	0.564508	0.500125
O81	O	0.284343	-0.017592	0.000125
O82	O	0.784343	0.482408	0.500125
O83	O	0.261794	0.145518	0.000127
O84	O	0.761794	0.645518	0.500127
C85	C	0.039242	0.105716	0.000154
C86	C	0.539242	0.605716	0.500154
C87	C	0.020120	0.061382	0.000182
C88	C	0.520120	0.561382	0.500182
C89	C	0.051411	0.017560	0.000199
C90	C	0.551411	0.517560	0.500199
C91	C	-0.030294	0.060869	0.000180
C92	C	0.469706	0.560869	0.500180
C93	C	-0.061585	0.104691	0.000164
C94	C	0.438415	0.604691	0.500164
C95	C	-0.042461	0.149026	0.000149
C96	C	0.457539	0.649026	0.500149
C97	C	0.007951	0.149539	0.000138
C98	C	0.507951	0.649539	0.500138
C99	C	0.032287	-0.026775	0.000214
C100	C	0.532287	0.473225	0.500214
C101	C	-0.018125	-0.027284	0.000223
C102	C	0.481875	0.472716	0.500223
C103	C	-0.049416	0.016538	0.000206
C104	C	0.450584	0.516538	0.500206
C105	C	0.574716	-0.026515	0.000174
C106	C	1.074716	0.473485	0.500174
C107	C	0.574164	-0.080170	0.000185
C108	C	1.074164	0.419830	0.500185
C109	C	0.614867	-0.418985	0.000127
C110	C	1.114867	0.081015	0.500127
C111	C	0.612816	-0.620645	0.000107
C112	C	1.112816	-0.120645	0.500107
O113	O	0.650037	-0.651900	0.000057
O114	O	1.150037	-0.151900	0.500057
N115	N	0.568481	-0.639768	0.000094
N116	N	1.068481	-0.139768	0.500094
C117	C	0.524656	-0.608474	0.000077
C118	C	1.024656	-0.108474	0.500077
O119	O	0.486899	-0.629367	0.000052
O120	O	0.986899	-0.129367	0.500052
C121	C	0.526707	-0.406815	0.000087
C122	C	1.026707	0.093185	0.500087
C123	C	0.571045	-0.387694	0.000114
C124	C	1.071045	0.112306	0.500114
C125	C	0.659202	-0.399864	0.000152
C126	C	1.159202	0.100136	0.500152
C127	C	0.659714	-0.349452	0.000164
C128	C	1.159714	0.150548	0.500164
C129	C	0.615892	-0.318161	0.000152
C130	C	1.115892	0.181839	0.500152
C131	C	0.571557	-0.337282	0.000127
C132	C	1.071557	0.162718	0.500127
C133	C	0.482882	-0.375521	0.000061
C134	C	0.982882	0.124479	0.500061
C135	C	0.483399	-0.325104	0.000060
C136	C	0.983399	0.174896	0.500060
C137	C	0.527737	-0.305983	0.000086
C138	C	1.027737	0.194017	0.500086
C139	C	0.528247	-0.255580	0.000127
C140	C	1.028247	0.244420	0.500127
N141	N	0.572583	-0.236456	0.000139
N142	N	1.072583	0.263544	0.500139
C143	C	0.616405	-0.267747	0.000152
C144	C	1.116405	0.232253	0.500152
C145	C	0.523582	-0.714348	0.000075
C146	C	1.023582	-0.214348	0.500075
C147	C	0.523069	-0.764762	0.000075
C148	C	1.023069	-0.264762	0.500075
C149	C	0.611230	-0.776930	0.000101
C150	C	1.111230	-0.276930	0.500101
C151	C	0.611742	-0.726514	0.000111
C152	C	1.111742	-0.226514	0.500111
C153	C	0.567917	-0.695224	0.000087
C154	C	1.067917	-0.195224	0.500087
C155	C	0.617477	-0.161878	0.000179
C156	C	1.117477	0.338122	0.500179
C157	C	0.617986	-0.111461	0.000198
C158	C	1.117986	0.388539	0.500198
C159	C	0.529825	-0.099298	0.000164
C160	C	1.029825	0.400702	0.500164
C161	C	0.529316	-0.149710	0.000153
C162	C	1.029316	0.350290	0.500153
C163	C	0.573147	-0.180999	0.000156
C164	C	1.073147	0.319001	0.500156
O165	O	0.491047	-0.224296	0.000160
O166	O	0.991047	0.275704	0.500160
O167	O	0.654156	-0.246844	0.000147
O168	O	1.154156	0.253156	0.500147
C169	C	0.614355	-0.469397	0.000114
C170	C	1.114355	0.030603	0.500114
C171	C	0.570021	-0.488518	0.000089
C172	C	1.070021	0.011482	0.500089
C173	C	0.526198	-0.457228	0.000076
C174	C	1.026198	0.042772	0.500076
C175	C	0.569508	-0.538933	0.000089
C176	C	1.069508	-0.038933	0.500089
C177	C	0.613330	-0.570223	0.000101
C178	C	1.113330	-0.070223	0.500101
C179	C	0.657665	-0.551100	0.000114
C180	C	1.157665	-0.051100	0.500114
C181	C	0.658177	-0.500688	0.000127
C182	C	1.158177	-0.000688	0.500127
C183	C	0.481863	-0.476351	0.000064
C184	C	0.981863	0.023649	0.500064
C185	C	0.481355	-0.526764	0.000053
C186	C	0.981355	-0.026764	0.500053
C187	C	0.525177	-0.558054	0.000065
C188	C	1.025177	-0.058054	0.500065
C189	C	0.658931	0.057699	0.000167
C190	C	1.158931	0.557699	0.500167
C191	C	0.712586	0.058252	0.000173
C192	C	1.212586	0.558252	0.500173
C193	C	0.566338	0.150292	0.000108
C194	C	1.066338	0.650292	0.500108
C195	C	0.566891	0.203947	0.000087
C196	C	1.066891	0.703947	0.500087
N197	N	0.570515	0.061891	0.360485
N198	N	1.070515	0.561891	0.860485
N199	N	0.570543	0.061882	-0.360200
N200	N	1.070543	0.561882	0.139800
C201	C	0.530400	0.101758	0.580828
C202	C	1.030400	0.601758	1.080828
C203	C	0.530485	0.101903	0.419661
C204	C	1.030485	0.601903	0.919661
C205	C	0.620872	0.072531	0.418945
C206	C	1.120872	0.572531	0.918945
C207	C	0.620652	0.072812	0.580163
C208	C	1.120652	0.572812	1.080163
C209	C	0.560778	0.011247	0.580413
C210	C	1.060778	0.511247	1.080413
C211	C	0.559613	0.011596	0.419186
C212	C	1.059613	0.511596	0.919186
H213	H	0.209009	-0.060929	0.000247
H214	H	0.709009	0.439071	0.500247
H215	H	0.434827	-0.014492	0.000132
H216	H	0.934827	0.485508	0.500132
O217	O	0.704931	-0.584855	0.000139
O218	O	1.204931	-0.084855	0.500139
H219	H	0.726174	-0.578093	-0.094117
H220	H	1.226174	-0.078093	0.405883
O221	O	0.632633	0.120873	0.365442
O222	O	1.132633	0.620873	0.865442
H223	H	0.636780	0.145420	0.454604
H224	H	1.136780	0.645420	0.954604
H225	H	0.651438	0.044246	0.380612
H226	H	1.151438	0.544246	0.880612
H227	H	0.629314	0.109729	0.617740
H228	H	1.129314	0.609729	1.117740
O229	O	-0.076217	0.196292	0.000149
O230	O	0.423783	0.696292	0.500149
H231	H	-0.099483	0.198165	-0.094108
H232	H	0.400517	0.698165	0.405892
H233	H	0.694889	-0.425336	0.000157
H234	H	1.194889	0.074664	0.500157
O235	O	0.707538	-0.328836	0.000154
O236	O	1.207538	0.171164	0.500154
H237	H	0.728579	-0.341440	0.094415
H238	H	1.228579	0.158560	0.594415
O239	O	-0.197256	0.150926	0.000145
O240	O	0.302744	0.650926	0.500145
H241	H	-0.209853	0.171967	-0.094126
H242	H	0.290147	0.671967	0.405874
O243	O	0.661384	0.035785	0.631853
O244	O	1.161384	0.535785	1.131853
H245	H	0.681153	0.017760	0.541695
H246	H	1.181153	0.517760	1.041695
O247	O	-0.171963	-0.032329	0.000222
O248	O	0.328037	0.467671	0.500222
H249	H	-0.178720	-0.053561	-0.094047
H250	H	0.321280	0.446439	0.405953
H251	H	0.646911	-0.802415	0.000112
H252	H	1.146911	-0.302415	0.500112
O253	O	0.595869	-0.029510	0.365862
O254	O	1.095869	0.470490	0.865862
H255	H	0.594045	-0.030672	0.250626
H256	H	1.094045	0.469328	0.750626
O257	O	-0.302044	0.149859	0.000160
O258	O	0.197956	0.649859	0.500160
H259	H	-0.340311	0.142048	0.000179
H260	H	0.159689	0.642048	0.500179
H261	H	0.647846	-0.710950	0.000132
H262	H	1.147846	-0.210950	0.500132
O263	O	0.433530	-0.547385	0.000034
O264	O	0.933530	-0.047385	0.500034
H265	H	0.412500	-0.534785	-0.094250
H266	H	0.912500	-0.034785	0.405750
O267	O	0.665809	-0.090837	0.000225
O268	O	1.165809	0.409163	0.500225
H269	H	0.668154	-0.068150	-0.094035
H270	H	1.168154	0.431850	0.405965
O271	O	0.075029	0.197832	0.000092
O272	O	0.575029	0.697832	0.500092
H273	H	0.096803	0.228742	0.000064
H274	H	0.596803	0.728742	0.500064
O275	O	-0.276745	-0.033391	0.000218
O276	O	0.223255	0.466609	0.500218
H277	H	-0.246513	-0.063774	0.000248
H278	H	0.253487	0.436226	0.500248
O279	O	0.112501	-0.073579	0.000281
O280	O	0.612501	0.426421	0.500281
H281	H	0.142736	-0.103960	0.000319
H282	H	0.642736	0.396040	0.500319
O283	O	0.313017	0.156111	0.000079
O284	O	0.813017	0.656111	0.500079
H285	H	0.334790	0.187022	0.000045
H286	H	0.834790	0.687022	0.500045
O287	O	0.706002	-0.480073	0.000137
O288	O	1.206002	0.019927	0.500137
H289	H	0.708350	-0.457404	0.094414
H290	H	1.208350	0.042596	0.594414
O291	O	0.538688	0.151688	0.368533
O292	O	1.038688	0.651688	0.868533
H293	H	0.538772	0.151967	0.253111
H294	H	1.038772	0.651967	0.753111
H295	H	0.446177	-0.450879	0.000050
H296	H	0.946177	0.049121	0.500050
O297	O	-0.038743	-0.075110	0.000270
O298	O	0.461257	0.424890	0.500270
H299	H	-0.026147	-0.096156	-0.093979
H300	H	0.473853	0.403844	0.406021
H301	H	0.493042	0.095619	0.380137
H302	H	0.993042	0.595619	0.880137
O303	O	0.480642	0.093588	0.632241
O304	O	0.980642	0.593588	1.132241
H305	H	0.483989	0.061022	0.700381
H306	H	0.983989	0.561022	1.200381
H307	H	0.343360	-0.015426	0.000136
H308	H	0.843360	0.484574	0.500136
H309	H	0.412743	0.145454	0.000058
H310	H	0.912743	0.645454	0.500058
O311	O	0.481493	-0.170332	0.000141
O312	O	0.981493	0.329668	0.500141
H313	H	0.479144	-0.193014	0.094408
H314	H	0.979144	0.306986	0.594408
O315	O	0.538490	0.151263	0.634451
O316	O	1.038490	0.651263	1.134451
H317	H	0.509959	0.179139	0.592207
H318	H	1.009959	0.679139	1.092207
O319	O	0.475247	-0.785384	0.000064
O320	O	0.975247	-0.285384	0.500064
H321	H	0.444864	-0.755151	0.000043
H322	H	0.944864	-0.255151	0.500043
H323	H	0.023514	0.185643	0.000116
H324	H	0.523514	0.685643	0.500116
O325	O	0.513218	-0.002429	0.634308
O326	O	1.013218	0.497571	1.134308
H327	H	0.483062	0.025556	0.601989
H328	H	0.983062	0.525556	1.101989
H329	H	0.653168	-0.187348	0.000177
H330	H	1.153168	0.312652	0.500177
H331	H	0.447710	-0.299629	0.000038
H332	H	0.947710	0.200371	0.500038
O333	O	0.066034	-0.074043	0.000230
O334	O	0.566034	0.425957	0.500230
H335	H	0.044262	-0.104954	0.000234
H336	H	0.544262	0.395046	0.500234
H337	H	0.487892	-0.688875	0.000055
H338	H	0.987892	-0.188875	0.500055
O339	O	0.179808	0.198897	0.000115
O340	O	0.679808	0.698897	0.500115
H341	H	0.149573	0.229279	0.000128
H342	H	0.649573	0.729279	0.500128
O343	O	0.435060	-0.396138	0.000027
O344	O	0.935060	0.103862	0.500027
H345	H	0.404679	-0.365902	0.000001
H346	H	0.904679	0.134098	0.500001
O347	O	0.482560	-0.065545	0.000148
O348	O	0.982560	0.434455	0.500148
H349	H	0.490370	-0.027277	0.000145
H350	H	0.990370	0.472723	0.500145
O351	O	0.510545	0.000885	0.368603
O352	O	1.010545	0.500885	0.868603
H353	H	0.493989	0.031251	0.301921
H354	H	0.993989	0.531251	0.801921
H355	H	0.590057	-0.018422	0.618549
H356	H	1.090057	0.481578	1.118549
