data_functionalizedCrystal
_audit_creation_method	'MofGen! by Chris Wilmer'
_symmetry_space_group_name_H-M	'P1'
_symmetry_Int_Tables_number	1
_symmetry_cell_setting	triclinic
loop_
_symmetry_equiv_pos_as_xyz
  x,y,z
_cell_length_a	17.699083
_cell_length_b	11.026607
_cell_length_c	16.176319
_cell_angle_alpha	89.996049
_cell_angle_beta	89.998611
_cell_angle_gamma	95.934516
loop_
_atom_site_label
_atom_site_type_symbol
_atom_site_fract_x
_atom_site_fract_y
_atom_site_fract_z
O1	O	1.025155	0.153399	-0.068626
O2	O	0.807518	0.173357	-0.068652
O3	O	0.898299	-0.013222	-0.068638
O4	O	0.934374	0.339978	-0.068640
O5	O	0.898282	-0.013234	0.068855
O6	O	0.807501	0.173345	0.068841
O7	O	1.025137	0.153387	0.068867
Cu8	Cu	0.916317	0.163365	0.081408
Cu9	Cu	0.916338	0.163379	-0.081193
O10	O	0.934357	0.339966	0.068853
C11	C	0.779214	0.172636	0.000091
C12	C	0.694902	0.170490	0.000080
C13	C	0.661328	0.280008	0.000080
C14	C	0.582106	0.277985	0.000091
C15	C	0.536460	0.166443	0.000096
C16	C	0.570039	0.056917	0.000099
C17	C	0.649259	0.058941	0.000094
C18	C	0.250554	0.048751	0.000119
C19	C	0.171329	0.046735	0.000121
C20	C	0.183402	0.267794	0.000116
C21	C	0.262621	0.269819	0.000111
C22	C	0.296194	0.160293	0.000118
C23	C	0.382094	0.162488	0.000108
C24	C	0.450561	0.164247	0.000100
C25	C	0.891635	-0.058419	0.000106
C26	C	0.871796	-0.193075	0.000101
C27	C	0.926576	-0.267042	0.000107
C28	C	0.906072	-0.406216	0.000101
C29	C	1.053441	0.154108	0.000122
C30	C	1.137754	0.156254	0.000127
C31	C	0.941021	0.385163	0.000107
C32	C	0.960860	0.519819	0.000106
N33	N	0.916308	0.163354	0.195773
N34	N	0.916352	0.163380	-0.195559
C35	C	0.956526	0.080771	0.239044
C36	C	0.956530	0.080770	0.325591
C37	C	0.916320	0.163358	0.368866
C38	C	0.876097	0.245946	0.325590
C39	C	0.876089	0.245940	0.239044
C40	C	0.876126	0.245969	0.674618
C41	C	0.876138	0.245970	0.761169
C42	C	0.956566	0.080798	0.761165
C43	C	0.956559	0.080792	0.674619
C44	C	0.916333	0.163375	0.631350
C45	C	0.916328	0.163374	0.537506
C46	C	0.916328	0.163366	0.462709
H47	H	0.299783	0.360648	0.000103
H48	H	0.988654	-0.227333	0.000119
H49	H	0.843990	-0.445918	0.000088
C50	C	0.146471	0.388278	0.000118
C51	C	0.162350	0.479746	0.071508
C52	C	0.125423	0.600226	0.071506
C53	C	0.072616	0.629239	0.000114
C54	C	0.056735	0.537770	-0.071281
C55	C	0.093663	0.417289	-0.071279
H56	H	0.201443	0.458270	0.124361
H57	H	0.137179	0.667937	0.124358
H58	H	0.045280	0.718426	0.000113
H59	H	0.017642	0.559245	-0.124135
H60	H	0.081906	0.349578	-0.124131
C61	C	0.787929	-0.246704	0.000089
C62	C	0.756753	-0.329717	0.071480
C63	C	0.672883	-0.383342	0.071468
C64	C	0.620190	-0.353953	0.000065
C65	C	0.651366	-0.270935	-0.071331
C66	C	0.735235	-0.217310	-0.071319
H67	H	0.795760	-0.351477	0.124341
H68	H	0.649806	-0.444798	0.124320
H69	H	0.558105	-0.393649	0.000057
H70	H	0.612358	-0.249175	-0.124192
H71	H	0.758312	-0.155855	-0.124171
H72	H	1.022943	-0.440480	0.000052
H73	H	0.843374	0.313212	0.639395
H74	H	0.843353	0.313187	0.360829
H75	H	0.134166	-0.044102	0.000127
H76	H	0.989274	0.013523	0.203815
H77	H	0.989277	0.013523	0.360821
H78	H	0.989318	0.013551	0.796403
C79	C	1.000789	-0.010057	0.627016
C80	C	1.045025	-0.100907	0.674610
C81	C	1.089253	-0.191762	0.627008
C82	C	1.089244	-0.191768	0.531811
C83	C	1.045006	-0.100915	0.484212
C84	C	1.000778	-0.010060	0.531814
H85	H	1.045033	-0.100906	0.745086
H86	H	1.122001	-0.259018	0.662245
H87	H	1.121984	-0.259024	0.496573
H88	H	1.044998	-0.100916	0.413737
H89	H	0.968030	0.057196	0.496577
C90	C	0.831899	0.336816	0.808774
C91	C	0.787649	0.427651	0.761183
C92	C	0.743413	0.518492	0.808789
C93	C	0.743427	0.518499	0.903986
C94	C	0.787679	0.427661	0.951582
C95	C	0.831915	0.336819	0.903976
H96	H	0.787636	0.427649	0.690708
H97	H	0.710655	0.585737	0.773554
H98	H	0.710682	0.585745	0.939226
H99	H	0.787692	0.427662	1.022057
H100	H	0.864673	0.269575	0.939211
H101	H	0.698488	0.370838	0.000075
H102	H	0.554775	0.367165	0.000090
H103	H	0.277879	-0.040432	0.000126
H104	H	0.843339	0.313186	0.203814
H105	H	0.532868	-0.033903	0.000115
H106	H	0.676594	-0.030240	0.000094
