data_functionalizedCrystal
_audit_creation_method	'MofGen! by Chris Wilmer'
_symmetry_space_group_name_H-M	'P1'
_symmetry_Int_Tables_number	1
_symmetry_cell_setting	triclinic
loop_
_symmetry_equiv_pos_as_xyz
  x,y,z
_cell_length_a	15.995350
_cell_length_b	11.804365
_cell_length_c	13.339070
_cell_angle_alpha	105.112168
_cell_angle_beta	99.560835
_cell_angle_gamma	78.155245
loop_
_atom_site_label
_atom_site_type_symbol
_atom_site_fract_x
_atom_site_fract_y
_atom_site_fract_z
O1	O	1.153436	-0.098919	0.109993
O2	O	0.913404	-0.098942	0.126090
O3	O	1.005872	-0.098930	-0.029222
O4	O	1.060968	-0.098931	0.265305
O5	O	0.981519	0.099123	0.011624
O6	O	0.889052	0.099110	0.166936
O7	O	1.129083	0.099134	0.150839
Cu8	Cu	1.006844	0.117206	0.162617
Cu9	Cu	1.035644	-0.117014	0.114312
O10	O	1.036616	0.099121	0.306151
C11	C	0.869879	0.000081	0.145847
C12	C	0.776466	0.000072	0.143849
N13	N	0.986593	0.281944	0.196592
N14	N	1.055899	-0.281752	0.080328
C15	C	0.437050	0.000097	0.136687
C16	C	0.458733	0.000539	0.026166
C17	C	0.555943	0.000084	0.028068
C18	C	0.605438	0.000085	0.140240
C19	C	0.590932	-0.113008	0.171473
C20	C	0.493661	-0.113095	0.168676
C21	C	0.466160	0.112128	0.217412
C22	C	0.562916	0.113614	0.217692
C23	C	0.700605	0.000074	0.142253
C24	C	0.341885	0.000099	0.134676
C25	C	1.172609	0.000108	0.131082
C26	C	1.266023	0.000110	0.133078
C27	C	0.984389	0.000094	-0.046489
C28	C	0.956648	0.000087	-0.158792
C29	C	1.104523	0.655909	-0.001277
C30	C	1.119840	0.531249	-0.026984
C31	C	1.086529	0.468917	0.028908
C32	C	1.037899	0.531256	0.110511
C33	C	1.022586	0.655928	0.136225
C34	C	1.004593	0.468936	0.166410
C35	C	0.955963	0.531275	0.248013
C36	C	0.940652	0.655935	0.273723
C37	C	0.973962	0.718267	0.217831
C38	C	1.019906	0.344264	0.140696
C39	C	0.937970	0.344283	0.278198
C40	C	0.922652	0.468943	0.303905
C41	C	1.172349	0.000109	-0.523580
C42	C	1.198415	0.000122	-0.418065
C43	C	1.137975	0.000113	-0.353242
C44	C	1.051466	0.000091	-0.393944
C45	C	1.025397	0.000086	-0.499468
C46	C	0.991023	0.000091	-0.329129
C47	C	0.904514	0.000068	-0.369832
C48	C	0.878449	0.000063	-0.475346
C49	C	0.938888	0.000072	-0.540169
C50	C	1.017092	0.000095	-0.223605
C51	C	0.870140	0.000073	-0.199493
C52	C	0.844074	0.000059	-0.305009
C53	C	1.058099	0.000095	0.323417
C54	C	1.085841	0.000095	0.435719
H55	H	0.564440	0.081155	0.001903
Br56	Br	0.892767	0.259698	0.354063
H57	H	0.917670	0.000057	-0.626090
Br58	Br	1.134493	0.000129	-0.168378
Br59	Br	1.185837	0.446647	-0.137721
Br60	Br	1.149738	0.740502	-0.077112
Br61	Br	1.107317	0.299733	-0.005981
H62	H	0.480910	-0.118227	0.248828
Br63	Br	0.953165	0.887456	0.252714
H64	H	0.901062	0.706692	0.340176
H65	H	0.820924	0.000071	-0.146712
H66	H	0.620852	-0.197175	0.116221
H67	H	1.159203	0.000124	-0.267327
H68	H	0.883057	0.519715	0.370348
H69	H	1.268850	0.000142	-0.384932
Br70	Br	0.761041	0.000056	-0.530579
Br71	Br	0.394115	0.135720	-0.019651
H72	H	1.221548	0.000126	-0.576366
H73	H	0.453251	0.112893	0.299123
H74	H	0.596445	0.120446	0.300900
H75	H	0.583756	-0.081126	-0.031856
Br76	Br	0.425555	-0.133882	-0.074923
H77	H	0.773637	0.000042	-0.338163
H78	H	0.624719	-0.117213	0.253015
Br79	Br	0.465062	-0.254001	0.073305
Br80	Br	0.400367	0.255006	0.186605
H81	H	1.059501	0.293518	0.074255
Br82	Br	0.575734	0.253065	0.179958
