data_functionalizedCrystal
_audit_creation_method	'MofGen! by Chris Wilmer'
_symmetry_space_group_name_H-M	'P1'
_symmetry_Int_Tables_number	1
_symmetry_cell_setting	triclinic
loop_
_symmetry_equiv_pos_as_xyz
  x,y,z
_cell_length_a	19.805407
_cell_length_b	12.759400
_cell_length_c	19.805399
_cell_angle_alpha	90.022119
_cell_angle_beta	90.024201
_cell_angle_gamma	90.012413
loop_
_atom_site_label
_atom_site_type_symbol
_atom_site_fract_x
_atom_site_fract_y
_atom_site_fract_z
Zn1	Zn	1.034798	-0.418312	0.382829
Zn2	Zn	1.034739	-0.594005	0.269651
Zn3	Zn	0.921613	-0.418338	0.269644
Zn4	Zn	0.921602	-0.593947	0.382789
O5	O	0.978188	-0.506150	0.326228
O6	O	1.129507	-0.441631	0.367835
O7	O	1.019712	-0.570738	0.174934
O8	O	0.936656	-0.271314	0.284672
O9	O	1.129463	-0.570712	0.284684
O10	O	1.019813	-0.271294	0.367828
O11	O	0.936599	-0.441676	0.174929
O12	O	0.826895	-0.441620	0.284634
O13	O	0.936638	-0.570613	0.477511
O14	O	0.826887	-0.570639	0.367761
O15	O	1.019803	-0.441575	0.477540
O16	O	1.019702	-0.741018	0.284646
O17	O	0.936581	-0.740976	0.367767
C18	C	0.802332	-0.506127	0.326192
C19	C	0.727100	-0.506142	0.326193
C20	C	0.265323	-0.573457	0.369488
C21	C	0.336011	-0.573455	0.369474
C22	C	0.371338	-0.506176	0.326255
C23	C	0.335973	-0.438901	0.283043
C24	C	0.265286	-0.438909	0.283054
C25	C	0.621047	-0.438869	0.282995
C26	C	0.691739	-0.438864	0.282989
C27	C	0.691772	-0.573415	0.369415
C28	C	0.621085	-0.573423	0.369426
C29	C	0.585726	-0.506153	0.326212
C30	C	0.509077	-0.506157	0.326227
C31	C	0.447985	-0.506166	0.326243
C32	C	0.978153	-0.779118	0.326218
C33	C	0.978199	-0.895894	0.326236
C34	C	1.021477	-0.950667	0.369571
C35	C	1.021509	-1.060391	0.369587
C36	C	0.934982	-1.060561	0.282928
C37	C	0.934948	-0.950839	0.282916
C38	C	1.064729	-0.895722	0.412891
C39	C	1.108011	-0.950495	0.456229
C40	C	1.108042	-1.060219	0.456245
C41	C	1.064792	-1.115170	0.412924
C42	C	1.154731	-0.506175	0.326265
C43	C	1.229963	-0.506185	0.326281
C44	C	0.978226	-0.506084	0.502771
C45	C	0.978242	-0.506056	0.578003
C46	C	0.978242	-0.232117	0.326254
C47	C	0.978265	-0.115341	0.326265
C48	C	0.978189	-0.506141	0.150372
C49	C	0.978304	-0.505873	0.075141
C50	C	1.021547	-0.438862	0.613364
C51	C	1.021554	-0.438832	0.684052
C52	C	0.978259	-0.506001	0.719379
C53	C	0.934950	-0.573198	0.684013
C54	C	0.934940	-0.573222	0.613326
C55	C	0.934988	-0.573100	0.969087
C56	C	0.935002	-0.573073	1.039779
C57	C	1.021602	-0.438710	1.039813
C58	C	1.021592	-0.438734	0.969126
C59	C	0.978280	-0.505926	0.933766
C60	C	0.978272	-0.505957	0.857118
C61	C	0.978270	-0.505976	0.796026
H62	H	0.364798	-0.628237	0.404656
C63	C	0.887341	-0.890584	0.235247
C64	C	0.834160	-0.815191	0.264520
C65	C	0.786548	-0.754938	0.216855
C66	C	0.792116	-0.770078	0.139916
C67	C	0.845298	-0.845474	0.110639
C68	C	0.892911	-0.905728	0.158304
H69	H	0.830037	-0.803981	0.321479
H70	H	0.747179	-0.699124	0.238528
H71	H	0.756870	-0.725475	0.104631
H72	H	0.849422	-0.856685	0.053680
H73	H	0.932280	-0.961541	0.136631
H74	H	0.236565	-0.628238	0.404686
H75	H	1.143279	-1.104811	0.491538
C76	C	0.887415	-1.121006	0.235272
C77	C	0.916803	-1.196448	0.182171
C78	C	0.869236	-1.256892	0.134513
C79	C	0.792282	-1.241893	0.139955
C80	C	0.762891	-1.166448	0.193058
C81	C	0.810457	-1.106004	0.240717
H82	H	0.973772	-1.207554	0.178141
H83	H	0.890995	-1.312742	0.095202
H84	H	0.757071	-1.286638	0.104675
H85	H	0.705921	-1.155342	0.197089
H86	H	0.788698	-1.050154	0.280027
H87	H	1.143220	-0.905747	0.491504
H88	H	1.056818	-0.384119	0.712840
H89	H	0.236497	-0.384127	0.247872
H90	H	0.720500	-0.384073	0.247793
H91	H	1.056805	-0.384169	0.584606
C92	C	1.069216	-0.364846	0.930267
C93	C	1.116849	-0.290927	0.969162
C94	C	1.164472	-0.217035	0.930305
C95	C	1.164463	-0.217061	0.852552
C96	C	1.116828	-0.290982	0.813652
C97	C	1.069205	-0.364875	0.852510
H98	H	1.116858	-0.290906	1.026724
H99	H	1.199735	-0.162313	0.959101
H100	H	1.199716	-0.162361	0.823787
H101	H	1.116819	-0.291004	0.756090
H102	H	1.033943	-0.419596	0.823713
C103	C	0.887329	-0.647086	0.722876
C104	C	0.916658	-0.729555	0.771468
C105	C	0.869040	-0.803448	0.810332
C106	C	0.792093	-0.794873	0.800603
C107	C	0.762760	-0.712402	0.752009
C108	C	0.810378	-0.638508	0.713145
H109	H	0.973622	-0.735905	0.778672
H110	H	0.890754	-0.864499	0.846305
H111	H	0.756844	-0.849574	0.829372
H112	H	0.705796	-0.706051	0.744805
H113	H	0.788664	-0.577458	0.677173
C114	C	0.887307	-0.647139	0.574424
C115	C	0.810365	-0.638554	0.584121
C116	C	0.762730	-0.712468	0.545218
C117	C	0.792037	-0.794968	0.496619
C118	C	0.868984	-0.803557	0.486920
C119	C	0.916619	-0.729642	0.525823
H120	H	0.788666	-0.577479	0.620099
H121	H	0.705769	-0.706110	0.552398
H122	H	0.756775	-0.849684	0.467821
H123	H	0.890682	-0.864631	0.450942
H124	H	0.973580	-0.736000	0.518643
C125	C	0.582225	-0.647432	0.416967
C126	C	0.621120	-0.721436	0.464493
C127	C	0.582262	-0.795449	0.512033
C128	C	0.504509	-0.795458	0.512047
C129	C	0.465610	-0.721452	0.464519
C130	C	0.504468	-0.647438	0.416979
H131	H	0.678682	-0.721432	0.464484
H132	H	0.611059	-0.850234	0.547216
H133	H	0.475744	-0.850248	0.547238
H134	H	0.408048	-0.721456	0.464528
H135	H	0.475672	-0.592654	0.381796
C136	C	1.069241	-0.364787	1.078710
C137	C	1.146183	-0.373383	1.069013
C138	C	1.193823	-0.299466	1.107908
C139	C	1.164521	-0.216952	1.156500
C140	C	1.087575	-0.208352	1.166199
C141	C	1.039935	-0.282270	1.127305
H142	H	1.167878	-0.434468	1.033040
H143	H	1.250783	-0.305832	1.100727
H144	H	1.199786	-0.162234	1.185292
H145	H	1.065880	-0.147268	1.202172
H146	H	0.982974	-0.275903	1.134485
C147	C	0.582158	-0.364888	0.235452
C148	C	0.621018	-0.290894	0.187908
C149	C	0.582126	-0.216917	0.140356
C150	C	0.504373	-0.216935	0.140349
C151	C	0.465508	-0.290932	0.187895
C152	C	0.504400	-0.364908	0.235447
H153	H	0.678580	-0.290879	0.187911
H154	H	0.610897	-0.162140	0.105159
H155	H	0.475583	-0.162173	0.105148
H156	H	0.407947	-0.290947	0.187891
H157	H	0.475629	-0.419685	0.270643
H158	H	0.899744	-0.627772	1.068540
H159	H	0.364742	-0.384126	0.247850
H160	H	0.720569	-0.628193	0.404600
H161	H	1.064709	-0.806380	0.412881
H162	H	0.899731	-0.627827	0.940306
H163	H	1.064813	-1.204515	0.412949
