data_functionalizedCrystal
_audit_creation_method	'MofGen! by Chris Wilmer'
_symmetry_space_group_name_H-M	'P1'
_symmetry_Int_Tables_number	1
_symmetry_cell_setting	triclinic
loop_
_symmetry_equiv_pos_as_xyz
  x,y,z
_cell_length_a	12.827893
_cell_length_b	12.827891
_cell_length_c	12.827885
_cell_angle_alpha	89.971966
_cell_angle_beta	90.016318
_cell_angle_gamma	89.968216
loop_
_atom_site_label
_atom_site_type_symbol
_atom_site_fract_x
_atom_site_fract_y
_atom_site_fract_z
Zn1	Zn	1.597571	0.415905	0.590779
Zn2	Zn	1.930904	0.749238	0.924112
Zn3	Zn	2.264237	1.082572	1.257446
Zn4	Zn	1.597423	0.590682	0.416045
Zn5	Zn	1.930757	0.924016	0.749378
Zn6	Zn	2.264090	1.257349	1.082711
Zn7	Zn	1.422812	0.415964	0.416062
Zn8	Zn	1.756146	0.749298	0.749395
Zn9	Zn	2.089479	1.082631	1.082728
Zn10	Zn	1.422756	0.590613	0.590754
Zn11	Zn	1.756089	0.923946	0.924087
Zn12	Zn	2.089423	1.257280	1.257420
O13	O	1.510141	0.503291	0.503410
O14	O	1.843474	0.836625	0.836743
O15	O	2.176807	1.169958	1.170076
O16	O	1.743787	0.439094	0.567604
O17	O	2.077121	0.772427	0.900937
O18	O	2.410454	1.105760	1.234270
O19	O	1.574223	0.567559	0.269811
O20	O	1.907556	0.900893	0.603144
O21	O	2.240889	1.234226	0.936477
O22	O	1.446079	0.269720	0.439256
O23	O	1.779413	0.603054	0.772589
O24	O	2.112746	0.936387	1.105923
O25	O	1.743679	0.567502	0.439227
O26	O	2.077012	0.900835	0.772560
O27	O	2.410346	1.234168	1.105894
O28	O	1.574474	0.269677	0.567620
O29	O	1.907807	0.603010	0.900953
O30	O	2.241141	0.936343	1.234287
O31	O	1.445937	0.439195	0.269823
O32	O	1.779270	0.772528	0.603157
O33	O	2.112603	1.105862	0.936490
O34	O	1.276569	0.439128	0.439231
O35	O	1.609902	0.772461	0.772565
O36	O	1.943235	1.105794	1.105898
O37	O	1.445984	0.567384	0.736993
O38	O	1.779317	0.900717	1.070326
O39	O	2.112650	1.234051	1.403660
O40	O	1.276527	0.567442	0.567577
O41	O	1.609861	0.900775	0.900910
O42	O	1.943194	1.234108	1.234244
O43	O	1.574419	0.439027	0.737012
O44	O	1.907753	0.772360	1.070345
O45	O	2.241086	1.105693	1.403678
O46	O	1.574168	0.736909	0.439202
O47	O	1.907502	1.070243	0.772536
O48	O	2.240835	1.403576	1.105869
O49	O	1.445841	0.736858	0.567560
O50	O	1.779174	1.070192	0.900894
O51	O	2.112507	1.403525	1.234227
C52	C	1.238631	0.503284	0.503404
C53	C	1.571964	0.836618	0.836737
C54	C	1.905297	1.169951	1.170071
C55	C	1.122478	0.503307	0.503426
C56	C	1.455811	0.836640	0.836759
C57	C	1.789144	1.169973	1.170093
C58	C	1.510011	0.774801	0.503400
C59	C	1.843344	1.108135	0.836733
C60	C	2.176677	1.441468	1.170066
C61	C	1.510051	0.890954	0.503430
C62	C	1.843384	1.224288	0.836764
C63	C	2.176717	1.557621	1.170097
C64	C	1.510212	0.503191	0.775980
C65	C	1.843545	0.836524	1.109313
C66	C	2.176878	1.169858	1.442647
C67	C	1.510242	0.503148	0.892133
C68	C	1.843575	0.836481	1.225467
C69	C	2.176909	1.169815	1.558800
C70	C	1.782711	0.503299	0.503416
C71	C	2.116044	0.836632	0.836750
C72	C	2.449377	1.169965	1.170083
C73	C	1.898864	0.503302	0.503419
C74	C	2.232197	0.836635	0.836752
C75	C	2.565530	1.169969	1.170086
C76	C	1.950702	0.439770	0.566939
C77	C	2.284035	0.773103	0.900272
C78	C	2.617369	1.106436	1.233605
C79	C	2.070752	0.439772	0.566943
C80	C	2.404086	0.773105	0.900276
C81	C	2.737419	1.106438	1.233610
C82	C	1.446637	1.062888	0.439913
C83	C	1.779970	1.396222	0.773247
C84	C	2.113303	1.729555	1.106580
C85	C	1.446594	0.942838	0.439880
C86	C	1.779927	1.276171	0.773214
C87	C	2.113260	1.609505	1.106547
C88	C	1.510240	1.230721	0.503451
C89	C	1.843573	1.564054	0.836785
C90	C	2.176906	1.897388	1.170118
C91	C	1.510130	1.114568	0.503491
C92	C	1.843463	1.447901	0.836824
C93	C	2.176796	1.781235	1.170157
C94	C	1.510130	0.503316	0.231900
C95	C	1.843463	0.836649	0.565233
C96	C	2.176797	1.169982	0.898566
C97	C	1.510302	0.503064	0.115747
C98	C	1.843635	0.836397	0.449081
C99	C	2.176969	1.169731	0.782414
C100	C	1.573803	0.439620	0.943927
C101	C	1.907136	0.772954	1.277261
C102	C	2.240470	1.106287	1.610594
C103	C	1.573836	0.439575	1.063978
C104	C	1.907169	0.772908	1.397311
C105	C	2.240502	1.106241	1.730644
H106	H	1.906206	0.385380	0.621321
H107	H	2.239539	0.718713	0.954654
H108	H	2.572873	1.052047	1.287987
H109	H	1.564453	1.069937	0.557902
H110	H	1.897786	1.403271	0.891235
H111	H	2.231120	1.736604	1.224568
H112	H	1.392238	0.898395	0.385445
H113	H	1.725572	1.231729	0.718778
H114	H	2.058905	1.565062	1.052111
Cl115	Cl	1.426254	0.587066	0.960882
Cl116	Cl	1.759587	0.920400	1.294215
Cl117	Cl	2.092920	1.253733	1.627548
Cl118	Cl	2.053663	0.587286	0.419452
Cl119	Cl	2.386996	0.920619	0.752786
Cl120	Cl	2.720330	1.253953	1.086119
Cl121	Cl	2.139574	0.355783	0.650902
Cl122	Cl	2.472907	0.689117	0.984236
Cl123	Cl	2.806240	1.022450	1.317569
H124	H	1.943360	0.557702	0.449047
H125	H	2.276693	0.891035	0.782380
H126	H	2.610027	1.224368	1.115713
H127	H	1.628192	0.385262	0.899393
H128	H	1.961525	0.718595	1.232727
H129	H	2.294858	1.051929	1.566060
Cl130	Cl	1.362744	1.131787	0.355920
Cl131	Cl	1.696077	1.465121	0.689254
Cl132	Cl	2.029411	1.798454	1.022587
H133	H	1.564416	0.935391	0.557860
H134	H	1.897750	1.268725	0.891194
H135	H	2.231083	1.602058	1.224527
Cl136	Cl	1.657862	0.355604	1.132740
Cl137	Cl	1.991195	0.688937	1.466074
Cl138	Cl	2.324528	1.022271	1.799407
H139	H	1.455886	0.557459	1.071212
H140	H	1.789220	0.890793	1.404546
H141	H	2.122553	1.224126	1.737879
