data_functionalizedCrystal
_audit_creation_method	'MofGen! by Chris Wilmer'
_symmetry_space_group_name_H-M	'P1'
_symmetry_Int_Tables_number	1
_symmetry_cell_setting	triclinic
loop_
_symmetry_equiv_pos_as_xyz
  x,y,z
_cell_length_a	12.645331
_cell_length_b	12.645323
_cell_length_c	13.897448
_cell_angle_alpha	90.028168
_cell_angle_beta	89.983329
_cell_angle_gamma	89.977324
loop_
_atom_site_label
_atom_site_type_symbol
_atom_site_fract_x
_atom_site_fract_y
_atom_site_fract_z
Zn1	Zn	1.620731	-0.599422	0.384034
Zn2	Zn	2.120731	-0.099422	0.884034
Zn3	Zn	1.620613	-0.422152	0.545348
Zn4	Zn	2.120613	0.077848	1.045348
Zn5	Zn	1.443446	-0.422166	0.384066
Zn6	Zn	1.943446	0.077834	0.884066
Zn7	Zn	1.443428	-0.599367	0.545285
Zn8	Zn	1.943428	-0.099367	1.045285
O9	O	1.532054	-0.510777	0.464683
O10	O	2.032054	-0.010777	0.964683
O11	O	1.769063	-0.575924	0.405445
O12	O	2.269063	-0.075924	0.905445
O13	O	1.597069	-0.273806	0.523994
O14	O	2.097069	0.226194	1.023994
O15	O	1.467020	-0.445709	0.249080
O16	O	1.967020	0.054291	0.749080
O17	O	1.768976	-0.445684	0.523962
O18	O	2.268976	0.054316	1.023962
O19	O	1.597271	-0.575938	0.249056
O20	O	2.097271	-0.075938	0.749056
O21	O	1.466906	-0.273817	0.405501
O22	O	1.966906	0.226183	0.905501
O23	O	1.295096	-0.445656	0.405439
O24	O	1.795096	0.054344	0.905439
O25	O	1.466989	-0.747722	0.523855
O26	O	1.966989	-0.247722	1.023855
O27	O	1.295083	-0.575844	0.523887
O28	O	1.795083	-0.075844	1.023887
O29	O	1.597253	-0.747762	0.405384
O30	O	2.097253	-0.247762	0.905384
O31	O	1.597052	-0.445631	0.680322
O32	O	2.097052	0.054369	1.180322
O33	O	1.466874	-0.575830	0.680275
O34	O	1.966874	-0.075830	1.180275
C35	C	1.256625	-0.510746	0.464660
C36	C	1.756625	-0.010746	0.964660
C37	C	1.138795	-0.510758	0.464674
C38	C	1.638795	-0.010758	0.964674
C39	C	0.971204	-0.429308	0.389816
C40	C	1.471204	0.070692	0.889816
C41	C	1.093763	-0.428949	0.390010
C42	C	1.593763	0.071051	0.890010
C43	C	1.094274	-0.480237	0.566286
C44	C	1.594274	0.019763	1.066286
C45	C	0.971676	-0.479681	0.565877
C46	C	1.471676	0.020319	1.065877
C47	C	0.971645	-0.623044	0.438886
C48	C	1.471645	-0.123044	0.938886
C49	C	1.094251	-0.622420	0.436616
C50	C	1.594251	-0.122420	0.936616
C51	C	1.532132	-0.787282	0.464609
C52	C	2.032132	-0.287282	0.964609
C53	C	1.532166	-0.905112	0.464577
C54	C	2.032166	-0.405112	0.964577
C55	C	1.449964	-1.072651	0.538756
C56	C	1.949964	-0.572651	1.038756
C57	C	1.450179	-0.950091	0.539123
C58	C	1.950179	-0.450091	1.039123
C59	C	1.643865	-0.949631	0.492166
C60	C	2.143865	-0.449631	0.992166
C61	C	1.643414	-1.072229	0.492631
C62	C	2.143414	-0.572229	0.992631
C63	C	1.503724	-1.072317	0.362395
C64	C	2.003724	-0.572317	0.862395
C65	C	1.501232	-0.949710	0.363007
C66	C	2.001232	-0.449710	0.863007
C67	C	1.808560	-0.510808	0.464707
C68	C	2.308560	-0.010808	0.964707
C69	C	1.926390	-0.510822	0.464717
C70	C	2.426390	-0.010822	0.964717
C71	C	1.531977	-0.510746	0.715298
C72	C	2.031977	-0.010746	1.215298
C73	C	1.532041	-0.510768	0.822512
C74	C	2.032041	-0.010768	1.322512
C75	C	1.532038	-0.235347	0.464688
C76	C	2.032038	0.264653	0.964688
C77	C	1.532210	-0.117518	0.464448
C78	C	2.032210	0.382482	0.964448
C79	C	1.532161	-0.510831	0.213090
C80	C	2.032161	-0.010831	0.713090
C81	C	1.532206	-0.510854	0.105876
C82	C	2.032206	-0.010854	0.605876
C83	C	1.532152	-0.510835	1.018807
C84	C	2.032152	-0.010835	1.518807
C85	C	1.532087	-0.510801	0.909574
C86	C	2.032087	-0.010801	1.409574
H87	H	1.123355	-0.645435	0.361841
H88	H	1.623355	-0.145435	0.861841
C89	C	1.135658	-0.708859	0.504947
C90	C	1.635658	-0.208859	1.004947
N91	N	1.166843	-0.773961	0.556423
N92	N	1.666843	-0.273961	1.056423
H93	H	1.563628	-1.101334	0.307032
H94	H	2.063628	-0.601334	0.807032
H95	H	0.941740	-0.448234	0.314240
H96	H	1.441740	0.051766	0.814240
C97	C	1.677042	-0.908174	0.591899
C98	C	2.177042	-0.408174	1.091899
N99	N	1.702024	-0.876951	0.667021
N100	N	2.202024	-0.376951	1.167021
H101	H	1.123864	-0.448081	0.314660
H102	H	1.623864	0.051919	0.814660
C103	C	1.337728	-1.112460	0.515652
C104	C	1.837728	-0.612460	1.015652
N105	N	1.253190	-1.142452	0.498249
N106	N	1.753190	-0.642452	0.998249
C107	C	1.728875	-0.910270	0.421367
C108	C	2.228875	-0.410270	0.921367
N109	N	1.792904	-0.880620	0.368042
N110	N	2.292904	-0.380620	0.868042
C111	C	1.133321	-0.316603	0.413080
C112	C	1.633321	0.183397	0.913080
N113	N	1.163115	-0.231979	0.430461
N114	N	1.663115	0.268021	0.930461
C115	C	0.929513	-0.317624	0.412610
C116	C	1.429513	0.182376	0.912610
N117	N	0.898109	-0.233504	0.429781
N118	N	1.398109	0.266496	0.929781
C119	C	0.932974	-0.368845	0.595459
C120	C	1.432974	0.131155	1.095459
N121	N	0.903829	-0.285358	0.617736
N122	N	1.403829	0.214642	1.117736
H123	H	1.124930	-0.399077	0.588568
H124	H	1.624930	0.100923	1.088568
H125	H	0.942031	-0.536463	0.623574
H126	H	1.442031	-0.036463	1.123574
H127	H	1.423691	-1.103222	0.337247
H128	H	1.923691	-0.603222	0.837247
C129	C	1.390204	-0.910357	0.334875
C130	C	1.890204	-0.410357	0.834875
N131	N	1.306584	-0.880694	0.313681
N132	N	1.806584	-0.380694	0.813681
H133	H	1.123444	-0.537744	0.623585
H134	H	1.623444	-0.037744	1.123585
H135	H	0.940749	-0.650800	0.366084
H136	H	1.440749	-0.150800	0.866084
H137	H	0.942666	-0.683779	0.493441
H138	H	1.442666	-0.183779	0.993441
H139	H	1.367350	-0.919990	0.521859
H140	H	1.867350	-0.419990	1.021859
C141	C	1.475129	-1.114263	0.640330
C142	C	1.975129	-0.614263	1.140330
N143	N	1.494091	-1.145601	0.716837
N144	N	1.994091	-0.645601	1.216837
H145	H	1.468983	-0.920772	0.614780
H146	H	1.968983	-0.420772	1.114780
H147	H	1.667559	-1.100835	0.567234
H148	H	2.167559	-0.600835	1.067234
C149	C	1.729022	-1.112330	0.422706
C150	C	2.229022	-0.612330	0.922706
N151	N	1.793508	-1.142530	0.370046
N152	N	2.293508	-0.642530	0.870046
H153	H	1.556760	-0.919093	0.304716
H154	H	2.056760	-0.419093	0.804716
