data_functionalizedCrystal
_audit_creation_method	'MofGen! by Chris Wilmer'
_symmetry_space_group_name_H-M	'P1'
_symmetry_Int_Tables_number	1
_symmetry_cell_setting	triclinic
loop_
_symmetry_equiv_pos_as_xyz
  x,y,z
_cell_length_a	8.559649
_cell_length_b	19.288840
_cell_length_c	18.366186
_cell_angle_alpha	89.983729
_cell_angle_beta	89.994914
_cell_angle_gamma	76.452340
loop_
_atom_site_label
_atom_site_type_symbol
_atom_site_fract_x
_atom_site_fract_y
_atom_site_fract_z
O1	O	0.199216	0.911008	-0.060666
O2	O	0.226157	0.707344	-0.060641
O3	O	-0.020048	0.827119	-0.060655
O4	O	0.445421	0.791233	-0.060652
O5	O	-0.020060	0.827101	0.060444
O6	O	0.226145	0.707327	0.060459
O7	O	0.199204	0.910990	0.060433
Zn8	Zn	0.212673	0.809156	0.079673
Zn9	Zn	0.212689	0.809179	-0.079881
O10	O	0.445409	0.791216	0.060447
C11	C	0.225291	0.681503	-0.000088
C12	C	0.222709	0.604533	-0.000078
C13	C	0.221475	0.568404	-0.066091
C14	C	0.219031	0.496084	-0.066100
C15	C	0.217789	0.459900	-0.000092
C16	C	0.219032	0.496037	0.065930
C17	C	0.221492	0.568354	0.065937
C18	C	0.120259	0.355634	0.050468
C19	C	0.117789	0.283320	0.050459
C20	C	0.210208	0.236850	-0.000111
C21	C	0.305077	0.262706	-0.050683
C22	C	0.307537	0.335022	-0.050676
C23	C	0.215122	0.381484	-0.000092
C24	C	0.206326	0.122303	-0.066139
C25	C	0.203892	0.049981	-0.066145
C26	C	0.203877	0.049937	0.065887
C27	C	0.206327	0.122256	0.065891
C28	C	0.207544	0.158436	-0.000124
C29	C	-0.079604	0.829830	-0.000107
C30	C	-0.257044	0.837925	-0.000112
C31	C	0.504965	0.788505	-0.000102
C32	C	0.682405	0.780410	-0.000102
N33	N	0.212661	0.809145	0.188564
C34	C	0.200070	0.936831	-0.000122
C35	C	0.202652	1.013801	-0.000136
N36	N	0.212688	0.809196	-0.188772
C37	C	0.103694	0.862194	0.226658
C38	C	0.103687	0.862199	0.302886
C39	C	0.212674	0.809160	0.341017
C40	C	0.321649	0.756102	0.302914
C41	C	0.321642	0.756094	0.226687
C42	C	0.358322	0.792290	0.461779
C43	C	0.358330	0.792302	0.538004
C44	C	0.212694	0.809179	0.576124
C45	C	0.067043	0.826058	0.538011
C46	C	0.067036	0.826050	0.461784
C47	C	0.212693	0.809162	0.423672
C48	C	0.103711	0.862236	0.696873
C49	C	0.103702	0.862236	0.773103
C50	C	0.321677	0.756141	0.773129
C51	C	0.321672	0.756139	0.696901
C52	C	0.212691	0.809189	0.658778
H53	H	0.218024	0.466571	0.119674
Br54	Br	0.202215	0.000836	0.155471
Br55	Br	-0.177748	0.688012	-0.000086
Br56	Br	-0.396897	0.930327	-0.000111
H57	H	0.014959	0.905433	0.804119
H58	H	0.410410	0.712953	0.804174
Br59	Br	-0.044209	0.934187	0.174919
H60	H	0.014950	0.905399	0.333908
H61	H	-0.051549	0.839800	0.569047
H62	H	-0.051558	0.839792	0.430755
Br63	Br	0.469567	0.684142	0.645196
H64	H	0.014967	0.905431	0.665832
Br65	Br	0.555997	0.769403	0.589722
Br66	Br	0.555994	0.769454	0.410052
H67	H	0.410377	0.712895	0.195670
Br68	Br	0.223170	0.617390	0.155533
Br69	Br	0.469550	0.684115	0.354660
H70	H	0.222466	0.597856	-0.119846
H71	H	0.202897	0.020564	-0.119903
H72	H	0.384786	0.356070	-0.091852
Br73	Br	0.217360	0.447039	-0.155696
H74	H	0.207334	0.151760	-0.119892
Br75	Br	0.207997	0.171293	0.155486
Br76	Br	0.430516	0.199647	-0.119318
Br77	Br	-0.005173	0.418694	0.119108
Br78	Br	-0.010920	0.248233	0.119106
