data_functionalizedCrystal
_audit_creation_method	'MofGen! by Chris Wilmer'
_symmetry_space_group_name_H-M	'P1'
_symmetry_Int_Tables_number	1
_symmetry_cell_setting	triclinic
loop_
_symmetry_equiv_pos_as_xyz
  x,y,z
_cell_length_a	6.817900
_cell_length_b	17.982959
_cell_length_c	14.858572
_cell_angle_alpha	95.362884
_cell_angle_beta	104.524003
_cell_angle_gamma	102.451857
loop_
_atom_site_label
_atom_site_type_symbol
_atom_site_fract_x
_atom_site_fract_y
_atom_site_fract_z
V1	V	-4.033211	-0.105893	-0.290350
V2	V	-3.533211	0.394107	0.209650
O3	O	-4.025834	0.004595	-0.284424
O4	O	-3.525834	0.504595	0.215576
O5	O	-3.979652	-0.209493	-0.288749
O6	O	-3.479652	0.290507	0.211251
O7	O	-3.989920	-0.104480	-0.416807
O8	O	-3.489920	0.395520	0.083193
O9	O	-4.015496	-0.101144	-0.155479
O10	O	-3.515496	0.398856	0.344521
V11	V	-4.516846	-0.092651	-0.274172
V12	V	-4.016846	0.407349	0.225828
O13	O	-4.294225	-0.134938	-0.325839
O14	O	-3.794225	0.365062	0.174161
O15	O	-4.706030	-0.063606	-0.238683
O16	O	-4.206030	0.436394	0.261317
O17	O	-4.347199	0.010949	-0.275773
O18	O	-3.847199	0.510949	0.224227
O19	O	-4.641620	-0.203139	-0.280099
O20	O	-4.141620	0.296861	0.219901
O21	O	-4.651959	-0.097400	-0.409043
O22	O	-4.151959	0.402600	0.090957
O23	O	-4.336931	-0.094064	-0.147715
O24	O	-3.836931	0.405936	0.352285
C25	C	-3.823233	-0.234742	-0.284268
C26	C	-3.323233	0.265258	0.215732
C27	C	-3.860763	-0.319437	-0.283801
C28	C	-3.360763	0.180563	0.216199
C29	C	-4.060499	-0.363116	-0.288235
C30	C	-3.560499	0.136884	0.211765
C31	C	-4.095753	-0.442697	-0.287802
C32	C	-3.595753	0.057303	0.212198
C33	C	-3.931265	-0.478598	-0.282929
C34	C	-3.431265	0.021402	0.217071
C35	C	-3.731514	-0.434914	-0.278497
C36	C	-3.231514	0.065086	0.221503
C37	C	-3.696266	-0.355335	-0.278937
C38	C	-3.196266	0.144665	0.221063
C39	C	-3.873662	-0.755846	-0.276726
C40	C	-3.373662	-0.255846	0.223274
C41	C	-3.908926	-0.835431	-0.276284
C42	C	-3.408926	-0.335431	0.223716
C43	C	-4.273150	-0.843209	-0.285591
C44	C	-3.773150	-0.343209	0.214409
C45	C	-4.237902	-0.763630	-0.286031
C46	C	-3.737902	-0.263630	0.213969
C47	C	-4.038158	-0.719953	-0.281604
C48	C	-3.538158	-0.219953	0.218396
C49	C	-3.999934	-0.633663	-0.282075
C50	C	-3.499934	-0.133663	0.217925
C51	C	-3.969483	-0.564886	-0.282451
C52	C	-3.469483	-0.064886	0.217549
C53	C	-3.836329	-0.100787	-0.447617
C54	C	-3.336329	0.399213	0.052383
C55	C	-3.882182	-0.100317	-0.550998
C56	C	-3.382182	0.399683	-0.050998
C57	C	-4.050007	-0.098602	-0.929560
C58	C	-3.550007	0.401398	-0.429560
C59	C	-4.003305	-0.099080	-0.824232
C60	C	-3.503305	0.400920	-0.324232
C61	C	-3.966096	-0.099461	-0.740283
C62	C	-3.466096	0.400539	-0.240283
C63	C	-3.919391	-0.099936	-0.634948
C64	C	-3.419391	0.400064	-0.134948
C65	C	-4.166960	0.036193	-0.280252
C66	C	-3.666960	0.536193	0.219748
C67	C	-4.108668	0.120888	-0.280725
C68	C	-3.608668	0.620888	0.219275
C69	C	-4.153864	-0.097760	-0.116900
C70	C	-3.653864	0.402240	0.383100
C71	C	-4.087249	-0.098225	-0.013518
C72	C	-3.587249	0.401775	0.486482
H73	H	-3.533624	-0.319773	-0.275330
H74	H	-3.033624	0.180227	0.224670
H75	H	-4.194445	-0.333891	-0.292195
H76	H	-3.694445	0.166109	0.207805
H77	H	-3.711021	-0.720294	-0.273116
H78	H	-3.211021	-0.220294	0.226884
H79	H	-4.258396	-0.478257	-0.291414
H80	H	-3.758396	0.021743	0.208586
H81	H	-3.774971	-0.864659	-0.272321
H82	H	-3.274971	-0.364659	0.227679
H83	H	-4.371847	-0.734403	-0.289994
H84	H	-3.871847	-0.234403	0.210006
H85	H	-3.597590	-0.464151	-0.274535
H86	H	-3.097590	0.035849	0.225465
H87	H	-4.435796	-0.878780	-0.289197
H88	H	-3.935796	-0.378780	0.210803
