data_functionalizedCrystal
_audit_creation_method	'MofGen! by Chris Wilmer'
_symmetry_space_group_name_H-M	'P1'
_symmetry_Int_Tables_number	1
_symmetry_cell_setting	triclinic
loop_
_symmetry_equiv_pos_as_xyz
  x,y,z
_cell_length_a	14.971486
_cell_length_b	12.837942
_cell_length_c	13.448316
_cell_angle_alpha	89.994234
_cell_angle_beta	89.998199
_cell_angle_gamma	89.221535
loop_
_atom_site_label
_atom_site_type_symbol
_atom_site_fract_x
_atom_site_fract_y
_atom_site_fract_z
O1	O	1.198338	0.135106	-0.082576
O2	O	0.939302	0.151285	-0.082603
O3	O	1.063076	-0.007715	-0.082584
O4	O	1.074564	0.294105	-0.082595
O5	O	1.063058	-0.007724	0.082800
O6	O	0.939284	0.151275	0.082781
O7	O	1.198320	0.135096	0.082808
Cu8	Cu	1.068800	0.143185	0.097895
Cu9	Cu	1.068822	0.143196	-0.097690
O10	O	1.074546	0.294095	0.082789
C11	C	0.905907	0.150556	0.000086
C12	C	0.806427	0.148388	0.000075
C13	C	0.757077	0.241796	0.000073
C14	C	0.663606	0.239752	0.000088
C15	C	0.619486	0.144300	0.000098
C16	C	0.668842	0.050885	0.000103
C17	C	0.762313	0.052930	0.000095
C18	C	0.474021	0.046630	0.000117
C19	C	0.380545	0.044585	0.000123
C20	C	0.375314	0.233453	0.000110
C21	C	0.468784	0.235497	0.000102
C22	C	0.518135	0.142082	0.000105
C23	C	1.059187	-0.046345	0.000107
C24	C	1.047612	-0.161436	0.000104
C25	C	1.186755	-0.402222	0.000098
C26	C	1.175884	-0.510362	0.000095
C27	C	1.015001	-0.485856	0.000089
C28	C	1.025872	-0.377717	0.000092
C29	C	1.111751	-0.335904	0.000098
C30	C	1.122621	-0.227763	0.000108
C31	C	0.961739	-0.203260	0.000094
C32	C	0.950868	-0.311399	0.000091
C33	C	1.231715	0.135824	0.000117
C34	C	1.331195	0.137993	0.000121
C35	C	1.078436	0.332726	0.000096
C36	C	1.090010	0.447817	0.000092
N37	N	1.068792	0.143176	0.235460
N38	N	1.068837	0.143197	-0.235255
C39	C	1.123620	0.072800	0.287508
C40	C	1.123626	0.072799	0.391612
C41	C	1.068807	0.143180	0.443664
C42	C	1.013972	0.213559	0.391608
C43	C	1.013963	0.213554	0.287507
C44	C	1.013998	0.213566	0.608588
C45	C	1.014008	0.213573	0.712697
C46	C	1.123661	0.072811	0.712693
C47	C	1.123651	0.072806	0.608592
C48	C	1.068818	0.143187	0.556543
H49	H	0.335129	0.309515	0.000112
C50	C	0.395098	-0.141899	0.000152
C51	C	0.332046	-0.060337	0.000139
H52	H	0.365155	-0.206673	0.000167
H53	H	0.431445	-0.137180	-0.057519
H54	H	0.431447	-0.137168	0.057827
H55	H	0.295701	-0.065064	-0.057540
H56	H	0.295684	-0.065059	0.057816
H57	H	0.632913	-0.026834	0.000125
H58	H	1.168264	0.015492	0.245134
C59	C	1.232036	-0.066308	0.381151
C60	C	1.183911	-0.004545	0.448823
H61	H	1.269261	-0.114051	0.416474
H62	H	1.191626	-0.103686	0.340566
H63	H	1.267872	-0.023071	0.340531
H64	H	1.148069	-0.047781	0.489440
H65	H	1.224326	0.032836	0.489426
H66	H	1.256681	-0.368178	0.000113
H67	H	0.969314	0.270860	0.245130
C68	C	0.905620	0.352719	0.619043
C69	C	0.953729	0.290935	0.551374
H70	H	0.868421	0.400488	0.583719
H71	H	0.869766	0.309507	0.659653
H72	H	0.946048	0.390078	0.659640
H73	H	0.913300	0.253571	0.510782
H74	H	0.989585	0.334153	0.510747
H75	H	0.969368	0.270883	0.755073
H76	H	0.792993	0.319524	0.000065
C77	C	1.256984	-0.646203	0.085110
C78	C	1.258327	-0.583263	0.000097
H79	H	1.307881	-0.691214	0.085105
H80	H	1.257884	-0.603515	0.142774
H81	H	1.204280	-0.686579	0.085098
H82	H	1.311028	-0.542881	0.000114
H83	H	1.257436	-0.625956	-0.057581
H84	H	0.900666	-0.149251	0.000102
C85	C	0.926912	-0.640753	0.000078
C86	C	0.920608	-0.531831	0.000083
H87	H	0.868636	-0.669133	0.000081
H88	H	0.958180	-0.663488	-0.057592
H89	H	0.958182	-0.663506	0.057754
H90	H	0.889343	-0.509077	-0.057597
H91	H	0.889327	-0.509086	0.057759
C92	C	0.454231	0.421982	0.000098
C93	C	0.517283	0.340419	0.000093
H94	H	0.484174	0.486755	0.000101
H95	H	0.417884	0.417265	-0.057569
H96	H	0.417882	0.417248	0.057777
H97	H	0.553628	0.345149	-0.057591
H98	H	0.553646	0.345139	0.057766
C99	C	0.582174	-0.060627	-0.084904
C100	C	0.528274	-0.056050	0.000117
H101	H	0.615672	-0.124013	-0.084902
H102	H	0.545598	-0.057501	-0.142562
H103	H	0.621820	-0.003479	-0.084897
H104	H	0.488624	-0.113195	0.000107
H105	H	0.564854	-0.059187	0.057790
H106	H	0.969333	0.270861	0.433995
C107	C	0.758100	-0.133962	0.000092
C108	C	0.816562	-0.049747	0.000088
H109	H	0.791593	-0.197351	0.000083
H110	H	0.721540	-0.130837	0.057764
H111	H	0.721530	-0.130819	-0.057582
H112	H	0.853128	-0.052886	0.057766
H113	H	0.853138	-0.052874	-0.057590
C114	C	1.263092	-0.215338	-0.084917
C115	C	1.217016	-0.181795	0.000106
H116	H	1.321366	-0.186955	-0.084922
H117	H	1.267351	-0.289224	-0.084911
H118	H	1.231811	-0.192567	-0.142580
H119	H	1.248294	-0.204572	0.057769
H120	H	1.212761	-0.107893	0.000108
C121	C	0.810399	-0.323803	-0.084935
C122	C	0.856474	-0.357370	0.000083
H123	H	0.752125	-0.352188	-0.084940
H124	H	0.806137	-0.249917	-0.084923
H125	H	0.841681	-0.346555	-0.142602
H126	H	0.825195	-0.334610	0.057750
H127	H	0.860731	-0.431271	0.000079
H128	H	0.623429	0.315815	0.000086
C129	C	1.232063	-0.066317	0.702228
C130	C	1.183940	-0.004551	0.769900
H131	H	1.269282	-0.114066	0.737550
H132	H	1.191651	-0.103689	0.661639
H133	H	1.267904	-0.023083	0.661610
H134	H	1.148093	-0.047785	0.810513
H135	H	1.224357	0.032823	0.810505
H136	H	1.168294	0.015502	0.566211
