data_functionalizedCrystal
_audit_creation_method	'MofGen! by Chris Wilmer'
_symmetry_space_group_name_H-M	'P1'
_symmetry_Int_Tables_number	1
_symmetry_cell_setting	triclinic
loop_
_symmetry_equiv_pos_as_xyz
  x,y,z
_cell_length_a	21.395362
_cell_length_b	15.297327
_cell_length_c	21.395355
_cell_angle_alpha	99.659679
_cell_angle_beta	89.956060
_cell_angle_gamma	99.725883
loop_
_atom_site_label
_atom_site_type_symbol
_atom_site_fract_x
_atom_site_fract_y
_atom_site_fract_z
Zn1	Zn	0.914743	-0.358918	-0.397693
Zn2	Zn	1.414743	0.141082	0.102307
Zn3	Zn	0.896524	-0.509774	-0.311034
Zn4	Zn	1.396524	-0.009774	0.188966
Zn5	Zn	0.809953	-0.358960	-0.292899
Zn6	Zn	1.309953	0.141040	0.207101
Zn7	Zn	0.791803	-0.509792	-0.415741
Zn8	Zn	1.291803	-0.009792	0.084259
O9	O	0.853256	-0.434361	-0.354342
O10	O	1.353256	0.065639	0.145658
O11	O	1.000007	-0.378904	-0.386234
O12	O	1.500007	0.121096	0.113766
O13	O	0.885011	-0.489778	-0.220951
O14	O	1.385011	0.010222	0.279049
O15	O	0.839075	-0.232697	-0.291658
O16	O	1.339075	0.267303	0.208342
O17	O	0.986621	-0.489737	-0.322566
O18	O	1.486621	0.010263	0.177434
O19	O	0.916063	-0.232666	-0.368649
O20	O	1.416063	0.267334	0.131351
O21	O	0.821408	-0.378975	-0.207628
O22	O	1.321408	0.121025	0.292372
O23	O	0.719864	-0.378993	-0.309158
O24	O	1.219864	0.121007	0.190842
O25	O	0.808140	-0.489769	-0.501023
O26	O	1.308140	0.010231	-0.001023
O27	O	0.706530	-0.489810	-0.399409
O28	O	1.206530	0.010190	0.100591
O29	O	0.898464	-0.378922	-0.487764
O30	O	1.398464	0.121078	0.012236
O31	O	0.867411	-0.636034	-0.340066
O32	O	1.367411	-0.136034	0.159934
O33	O	0.790473	-0.636048	-0.416993
O34	O	1.290473	-0.136048	0.083007
C35	C	0.690462	-0.434409	-0.354275
C36	C	1.190462	0.065591	0.145725
C37	C	0.620816	-0.434451	-0.354263
C38	C	1.120816	0.065549	0.145737
C39	C	0.825013	-0.668778	-0.382470
C40	C	1.325013	-0.168778	0.117530
C41	C	0.812988	-0.769063	-0.394524
C42	C	1.312988	-0.269063	0.105476
C43	C	0.581167	-0.492229	-0.401206
C44	C	1.081167	0.007771	0.098794
C45	C	0.515734	-0.492207	-0.401232
C46	C	1.015734	0.007793	0.098768
C47	C	0.489952	-0.434416	-0.354304
C48	C	0.989952	0.065584	0.145696
C49	C	0.529610	-0.376627	-0.307357
C50	C	1.029610	0.123373	0.192643
C51	C	0.595042	-0.376644	-0.307337
C52	C	1.095042	0.123356	0.192663
C53	C	0.387100	-0.427148	-0.297026
C54	C	0.887100	0.072852	0.202974
C55	C	0.321669	-0.427137	-0.297046
C56	C	0.821669	0.072863	0.202954
C57	C	0.288138	-0.434357	-0.354366
C58	C	0.788138	0.065643	0.145634
C59	C	0.320045	-0.441608	-0.411670
C60	C	0.820045	0.058392	0.088330
C61	C	0.385477	-0.441625	-0.411650
C62	C	0.885477	0.058375	0.088350
C63	C	0.419003	-0.434390	-0.354321
C64	C	0.919003	0.065610	0.145679
C65	C	0.177539	-0.492115	-0.401340
C66	C	0.677539	0.007885	0.098660
C67	C	0.112106	-0.492086	-0.401366
C68	C	0.612106	0.007914	0.098634
C69	C	0.125983	-0.376510	-0.307486
C70	C	0.625983	0.123490	0.192514
C71	C	0.191415	-0.376534	-0.307465
C72	C	0.691415	0.123466	0.192535
C73	C	0.217189	-0.434341	-0.354392
C74	C	0.717189	0.065659	0.145608
C75	C	0.939459	-1.051594	-0.268402
C76	C	1.439459	-0.551594	0.231598
C77	C	0.950757	-0.957372	-0.257073
C78	C	1.450757	-0.457372	0.242927
C79	C	0.916316	-0.910290	-0.291435
C80	C	1.416316	-0.410290	0.208565
C81	C	0.870575	-0.957440	-0.337127
C82	C	1.370575	-0.457440	0.162873
C83	C	0.859272	-1.051671	-0.348454
C84	C	1.359272	-0.551671	0.151546
C85	C	0.836129	-0.910367	-0.371487
C86	C	1.336129	-0.410367	0.128513
C87	C	0.790387	-0.957517	-0.417179
C88	C	1.290387	-0.457517	0.082821
C89	C	0.779087	-1.051739	-0.428503
C90	C	1.279087	-0.551739	0.071497
C91	C	0.813528	-1.098821	-0.394142
C92	C	1.313528	-0.598821	0.105858
C93	C	0.847431	-0.816135	-0.360160
C94	C	1.347431	-0.316135	0.139840
C95	C	0.767244	-0.816212	-0.440212
C96	C	1.267244	-0.316212	0.059788
C97	C	0.755946	-0.910435	-0.451540
C98	C	1.255946	-0.410435	0.048460
C99	C	1.016685	-0.434314	-0.354409
C100	C	1.516685	0.065686	0.145591
C101	C	1.086328	-0.434294	-0.354438
C102	C	1.586328	0.065706	0.145562
C103	C	0.853310	-0.434343	-0.517763
C104	C	1.353310	0.065657	-0.017763
C105	C	0.853333	-0.434335	-0.587403
C106	C	1.353333	0.065665	-0.087403
C107	C	0.881626	-0.199029	-0.326118
C108	C	1.381626	0.300971	0.173882
C109	C	0.893716	-0.098744	-0.314090
C110	C	1.393716	0.401256	0.185910
C111	C	0.900363	-0.376615	-0.613213
C112	C	1.400363	0.123385	-0.113213
C113	C	0.900367	-0.376576	-0.678643
C114	C	1.400367	0.123424	-0.178643
C115	C	0.853345	-0.434273	-0.718264
C116	C	1.353345	0.065727	-0.218264
C117	C	0.806307	-0.491998	-0.692447
C118	C	1.306307	0.008002	-0.192447
C119	C	0.806301	-0.492029	-0.627017
C120	C	1.306301	0.007971	-0.127017
C121	C	0.838610	-0.515514	-0.831685
C122	C	1.338610	-0.015514	-0.331685
C123	C	0.838620	-0.515485	-0.897115
C124	C	1.338620	-0.015485	-0.397115
C125	C	0.853361	-0.434178	-0.920074
C126	C	1.353361	0.065822	-0.420074
C127	C	0.868104	-0.352898	-0.877594
C128	C	1.368104	0.147102	-0.377594
C129	C	0.868098	-0.352928	-0.812164
C130	C	1.368098	0.147072	-0.312164
C131	C	0.853346	-0.434246	-0.789213
C132	C	1.353346	0.065754	-0.289213
C133	C	0.900398	-0.376411	-1.016830
C134	C	1.400398	0.123589	-0.516830
C135	C	0.900397	-0.376370	-1.082262
C136	C	1.400397	0.123630	-0.582262
C137	C	0.806339	-0.491801	-1.096065
C138	C	1.306339	0.008199	-0.596065
C139	C	0.806338	-0.491833	-1.030634
C140	C	1.306338	0.008167	-0.530634
C141	C	0.853370	-0.434139	-0.991020
C142	C	1.353370	0.065861	-0.491020
C143	C	0.853246	-0.434314	-0.191548
C144	C	1.353246	0.065686	0.308452
C145	C	0.853374	-0.434068	-0.121878
C146	C	1.353374	0.065932	0.378122
H147	H	0.602147	-0.539299	-0.439419
H148	H	1.102147	-0.039299	0.060581
C149	C	0.286578	-0.419154	-0.234010
C150	C	0.786578	0.080846	0.265990
N151	N	0.260150	-0.413137	-0.186529
N152	N	0.760150	0.086863	0.313471
H153	H	0.884674	-0.777754	-0.322957
H154	H	1.384674	-0.277754	0.177043
C155	C	0.420572	-0.449600	-0.474684
C156	C	0.920572	0.050400	0.025316
N157	N	0.447006	-0.455605	-0.522161
N158	N	0.947006	0.044395	-0.022161
C159	C	0.472111	-0.555773	-0.452873
C160	C	0.972111	-0.055773	0.047127
N161	N	0.439256	-0.603653	-0.491768
N162	N	0.939256	-0.103653	0.008232
H163	H	0.925517	-0.833570	-0.282208
H164	H	1.425517	-0.333570	0.217792
H165	H	0.938691	-0.329428	-0.984574
H166	H	1.438691	0.170572	-0.484574
H167	H	0.627326	-0.329591	-0.269110
H168	H	1.127326	0.170409	0.230890
C169	C	1.001060	-0.905515	-0.206803
C170	C	1.501060	-0.405515	0.293197
N171	N	1.038948	-0.866455	-0.168933
N172	N	1.538948	-0.366455	0.331067
C173	C	0.097627	-0.312939	-0.255865
C174	C	0.597627	0.187061	0.244135
N175	N	0.076266	-0.265054	-0.216983
N176	N	0.576266	0.234946	0.283017
C177	C	0.977332	-1.103390	-0.230603
C178	C	1.477332	-0.603390	0.269397
N179	N	1.005859	-1.142405	-0.202129
N180	N	1.505859	-0.642405	0.297871
H181	H	0.292746	-0.447486	-0.458346
H182	H	0.792746	0.052514	0.041654
C183	C	0.801100	-1.202472	-0.406598
C184	C	1.301100	-0.702472	0.093402
N185	N	0.791740	-1.280543	-0.415978
N186	N	1.291740	-0.780543	0.084022
C187	C	0.705626	-0.962311	-0.501796
C188	C	1.205626	-0.462311	-0.001796
N189	N	0.667725	-1.001386	-0.539647
N190	N	1.167725	-0.501386	-0.039647
H191	H	0.198525	-0.539180	-0.439553
H192	H	0.698525	-0.039180	0.060447
H193	H	0.079824	-0.539135	-0.439596
H194	H	0.579824	-0.039135	0.060404
H195	H	0.739198	-0.777879	-0.468191
H196	H	1.239198	-0.277879	0.031809
C197	C	0.728765	-1.103601	-0.478761
C198	C	1.228765	-0.603601	0.021239
N199	N	0.690861	-1.142662	-0.516615
N200	N	1.190861	-0.642662	-0.016615
C201	C	0.754615	-0.555270	-1.139644
C202	C	1.254615	-0.055270	-0.639644
N203	N	0.715655	-0.603076	-1.172472
N204	N	1.215655	-0.103076	-0.672472
H205	H	0.768020	-0.538973	-0.724710
H206	H	1.268020	-0.038973	-0.224710
H207	H	0.938660	-0.329635	-0.580963
H208	H	1.438660	0.170365	-0.080963
C209	C	0.952109	-0.313082	-0.707041
C210	C	1.452109	0.186918	-0.207041
N211	N	0.991082	-0.265260	-0.728428
N212	N	1.491082	0.234740	-0.228428
H213	H	0.768000	-0.539030	-0.606004
H214	H	1.268000	-0.039030	-0.106004
C215	C	0.884307	-0.263521	-0.765440
C216	C	1.384307	0.236479	-0.265440
N217	N	0.896512	-0.196177	-0.730247
N218	N	1.396512	0.303823	-0.230247
C219	C	0.884318	-0.263452	-0.902843
C220	C	1.384318	0.236548	-0.402843
N221	N	0.896531	-0.196084	-0.921864
N222	N	1.396531	0.303916	-0.421864
C223	C	0.952136	-0.312868	-1.110651
C224	C	1.452136	0.187132	-0.610651
N225	N	0.991107	-0.265038	-1.132034
N226	N	1.491107	0.234962	-0.632034
C227	C	0.423977	-0.419208	-0.233965
C228	C	0.923977	0.080792	0.266035
N229	N	0.451751	-0.413229	-0.186469
N230	N	0.951751	0.086771	0.313531
C231	C	0.754602	-0.555335	-1.002243
C232	C	1.254602	-0.055335	-0.502243
N233	N	0.715631	-0.603165	-0.980859
N234	N	1.215631	-0.103165	-0.480859
C235	C	0.822402	-0.604895	-0.943836
C236	C	1.322402	-0.104895	-0.443836
N237	N	0.810184	-0.672240	-0.979024
N238	N	1.310184	-0.172240	-0.479024
H239	H	0.223698	-0.329489	-0.269237
H240	H	0.723698	0.170511	0.230763
C241	C	0.822405	-0.604966	-0.806439
C242	C	1.322405	-0.104966	-0.306439
N243	N	0.810205	-0.672340	-0.787424
N244	N	1.310205	-0.172340	-0.287424
C245	C	0.501249	-0.313056	-0.255736
C246	C	1.001249	0.186944	0.244264
N247	N	0.479888	-0.265171	-0.216855
N248	N	0.979888	0.234829	0.283145
