data_functionalizedCrystal
_audit_creation_method	'MofGen! by Chris Wilmer'
_symmetry_space_group_name_H-M	'P1'
_symmetry_Int_Tables_number	1
_symmetry_cell_setting	triclinic
loop_
_symmetry_equiv_pos_as_xyz
  x,y,z
_cell_length_a	10.654550
_cell_length_b	9.130313
_cell_length_c	10.654551
_cell_angle_alpha	90.001552
_cell_angle_beta	95.514868
_cell_angle_gamma	90.003780
loop_
_atom_site_label
_atom_site_type_symbol
_atom_site_fract_x
_atom_site_fract_y
_atom_site_fract_z
O1	O	-1.667835	-0.121910	0.176393
O2	O	-1.302356	-0.121885	0.193199
O3	O	-1.493498	-0.121899	0.002057
O4	O	-1.476693	-0.121896	0.367535
O5	O	-1.493496	0.121700	0.002062
O6	O	-1.302354	0.121713	0.193204
O7	O	-1.667832	0.121689	0.176398
Cu8	Cu	-1.485093	0.143944	0.184802
Cu9	Cu	-1.485096	-0.144140	0.184796
O10	O	-1.476691	0.121703	0.367540
C11	C	-1.255557	-0.000083	0.191968
C12	C	-1.116114	-0.000074	0.188276
C13	C	-1.492263	-0.000103	-0.044739
C14	C	-1.488570	-0.000112	-0.184182
C15	C	-1.714632	-0.000117	0.177629
C16	C	-1.854075	-0.000135	0.181321
N17	N	-1.485100	0.346566	0.184805
C18	C	-1.036629	-0.000095	0.300817
C19	C	-0.905608	-0.000120	0.297341
C20	C	-0.933570	-0.000110	0.068771
C21	C	-1.064589	-0.000074	0.072249
C22	C	-1.088154	-0.000094	0.416844
C23	C	-1.008667	-0.000116	0.529395
C24	C	-0.877647	-0.000142	0.525918
C25	C	-0.826112	-0.000145	0.409891
N26	N	-1.485098	-0.346763	0.184782
C27	C	-1.569760	0.423212	0.100196
C28	C	-1.569756	0.576549	0.100181
C29	C	-1.400430	0.576581	0.269395
C30	C	-1.400428	0.423246	0.269403
C31	C	-1.654431	0.346532	0.015599
C32	C	-1.739099	0.423178	-0.069016
C33	C	-1.739095	0.576515	-0.069031
C34	C	-1.654425	0.653206	0.015569
C35	C	-1.486839	-0.132895	-0.249696
C36	C	-1.483359	-0.132888	-0.380717
C37	C	-1.483346	0.132696	-0.380697
C38	C	-1.486817	0.132688	-0.249678
C39	C	-1.488592	-0.265696	-0.184201
C40	C	-1.486863	-0.398490	-0.249716
C41	C	-1.483382	-0.398483	-0.380736
C42	C	-1.481632	-0.265682	-0.446241
C43	C	-1.477926	-0.000097	0.414336
C44	C	-1.481619	-0.000097	0.553779
H45	H	-1.194836	-0.000080	0.419687
Br46	Br	-1.853988	0.319105	-0.183839
H47	H	-1.331490	0.360841	0.338298
Br48	Br	-0.648296	-0.000152	0.405175
H49	H	-1.488276	-0.506611	-0.196371
Br50	Br	-0.863630	-0.000118	-0.088684
H51	H	-1.129308	-0.000062	-0.019392
H52	H	-0.812931	-0.000145	0.617562
H53	H	-1.491429	-0.265716	-0.077518
H54	H	-1.654444	0.221678	0.015606
H55	H	-1.481961	-0.506609	-0.434073
H56	H	-1.478779	-0.265687	-0.552925
H57	H	-1.481921	0.240816	-0.434042
H58	H	-1.050636	-0.000101	0.623860
Br59	Br	-1.853983	0.680535	-0.183874
H60	H	-1.654420	0.778063	0.015541
H61	H	-1.488200	0.240812	-0.196331
Br62	Br	-1.285529	0.680658	0.384203
