data_functionalizedCrystal
_audit_creation_method	'MofGen! by Chris Wilmer'
_symmetry_space_group_name_H-M	'P1'
_symmetry_Int_Tables_number	1
_symmetry_cell_setting	triclinic
loop_
_symmetry_equiv_pos_as_xyz
  x,y,z
_cell_length_a	16.992694
_cell_length_b	16.974813
_cell_length_c	16.053802
_cell_angle_alpha	88.912550
_cell_angle_beta	87.249047
_cell_angle_gamma	87.024634
loop_
_atom_site_label
_atom_site_type_symbol
_atom_site_fract_x
_atom_site_fract_y
_atom_site_fract_z
O1	O	1.044046	0.164036	-0.080405
O2	O	1.544046	0.664036	0.419595
O3	O	0.815757	0.162201	-0.080306
O4	O	1.315757	0.662201	0.419694
O5	O	0.935897	0.048765	-0.072625
O6	O	1.435897	0.548765	0.427375
O7	O	0.923906	0.277473	-0.088087
O8	O	1.423906	0.777473	0.411913
O9	O	0.929284	0.054981	0.065813
O10	O	1.429284	0.554981	0.565813
O11	O	0.809145	0.168418	0.058132
O12	O	1.309145	0.668418	0.558132
O13	O	1.037433	0.170253	0.058033
O14	O	1.537433	0.670253	0.558033
Zn15	Zn	0.922239	0.170322	0.080062
Zn16	Zn	1.422239	0.670322	0.580062
Zn17	Zn	0.930951	0.162132	-0.102336
Zn18	Zn	1.430951	0.662132	0.397664
O19	O	0.917293	0.283689	0.050351
O20	O	1.417293	0.783689	0.550351
C21	C	0.783234	0.162951	-0.010931
C22	C	1.283234	0.662951	0.489069
C23	C	0.696175	0.155912	-0.010465
C24	C	1.196175	0.655912	0.489535
C25	C	0.646080	0.223821	-0.015055
C26	C	1.146080	0.723821	0.484945
C27	C	0.564279	0.217204	-0.014596
C28	C	1.064279	0.717204	0.485404
C29	C	0.532574	0.142676	-0.009553
C30	C	1.032574	0.642676	0.490447
C31	C	0.582675	0.074762	-0.004959
C32	C	1.082675	0.574762	0.495041
C33	C	0.664475	0.081380	-0.005412
C34	C	1.164475	0.581380	0.494588
C35	C	0.288916	0.115246	-0.007676
C36	C	0.788916	0.615246	0.492324
C37	C	0.207111	0.108632	-0.007226
C38	C	0.707111	0.608632	0.492774
C39	C	0.188719	0.251075	-0.016861
C40	C	0.688719	0.751075	0.483139
C41	C	0.270522	0.257687	-0.017318
C42	C	0.770522	0.757687	0.482682
C43	C	0.320615	0.189773	-0.012721
C44	C	0.820615	0.689773	0.487279
N45	N	0.448960	0.135910	-0.009086
N46	N	0.948960	0.635910	0.490914
N47	N	0.404227	0.196540	-0.013181
N48	N	0.904227	0.696540	0.486819
C49	C	0.932011	0.022473	-0.001420
C50	C	1.432011	0.522473	0.498580
C51	C	0.930277	-0.065130	0.004496
C52	C	1.430277	0.434870	0.504496
C53	C	0.933069	-0.109669	-0.068186
C54	C	1.433069	0.390331	0.431814
C55	C	0.931434	-0.191981	-0.062625
C56	C	1.431434	0.308019	0.437375
C57	C	0.927013	-0.229752	0.015620
C58	C	1.427013	0.270248	0.515620
C59	C	0.924219	-0.185206	0.088308
C60	C	1.424219	0.314794	0.588308
C61	C	0.925848	-0.102895	0.082746
C62	C	1.425848	0.397105	0.582746
C63	C	0.921749	-0.475560	0.040348
C64	C	1.421749	0.024440	0.540348
C65	C	0.920122	-0.557877	0.045906
C66	C	1.420122	-0.057877	0.545906
C67	C	0.927336	-0.564647	-0.105028
C68	C	1.427336	-0.064647	0.394972
C69	C	0.928969	-0.482334	-0.110584
C70	C	1.428969	0.017666	0.389416
C71	C	0.926171	-0.437795	-0.037896
C72	C	1.426171	0.062205	0.462104
N73	N	0.925344	-0.313887	0.021307
N74	N	1.425344	0.186113	0.521307
N75	N	0.927834	-0.353661	-0.043583
N76	N	1.427834	0.146339	0.456417
C77	C	1.069957	0.169503	-0.011344
C78	C	1.569957	0.669503	0.488656
C79	C	1.157016	0.176542	-0.011816
C80	C	1.657016	0.676542	0.488184
C81	C	0.921179	0.309981	-0.020855
C82	C	1.421179	0.809981	0.479145
C83	C	0.922914	0.397583	-0.026777
C84	C	1.422914	0.897583	0.473223
N85	N	0.916298	0.175912	0.204544
N86	N	1.416298	0.675912	0.704544
N87	N	0.936898	0.156536	-0.226817
N88	N	1.436898	0.656536	0.273183
C89	C	0.967436	0.127664	0.251505
C90	C	1.467436	0.627664	0.751505
C91	C	0.963288	0.131582	0.338647
C92	C	1.463288	0.631582	0.838647
C93	C	0.908005	0.183752	0.378825
C94	C	1.408005	0.683752	0.878825
C95	C	0.856862	0.232002	0.331858
C96	C	1.356862	0.732002	0.831858
C97	C	0.861007	0.228080	0.244718
C98	C	1.361007	0.728080	0.744718
C99	C	0.889899	0.200864	0.639076
C100	C	1.389899	0.700864	1.139076
C101	C	0.885760	0.204784	0.726222
C102	C	1.385760	0.704784	1.226222
C103	C	0.992186	0.104363	0.733005
C104	C	1.492186	0.604363	1.233005
C105	C	0.996329	0.100448	0.645863
C106	C	1.496329	0.600448	1.145863
C107	C	0.945183	0.148695	0.598903
C108	C	1.445183	0.648695	1.098903
N109	N	0.903765	0.187760	0.467898
N110	N	1.403765	0.687760	0.967898
N111	N	0.949419	0.144683	0.509833
N112	N	1.449419	0.644683	1.009833
H113	H	0.181301	0.047940	-0.003120
H114	H	0.681301	0.547940	0.496880
C115	C	1.048437	0.051288	0.784667
C116	C	1.548437	0.551288	1.284667
N117	N	1.090804	0.011307	0.823580
N118	N	1.590804	0.511307	1.323580
H119	H	1.041345	0.057967	0.613151
H120	H	1.541345	0.557967	1.113151
H121	H	0.329693	0.059945	-0.003932
H122	H	0.829693	0.559945	0.496068
H123	H	1.012457	0.085185	0.218798
H124	H	1.512457	0.585185	0.718798
C125	C	0.824939	0.262176	0.770416
C126	C	1.324939	0.762176	1.270416
N127	N	0.779132	0.305401	0.803704
N128	N	1.279132	0.805401	1.303704
H129	H	0.919486	-0.439307	0.099536
H130	H	1.419486	0.060693	0.599536
H131	H	0.671887	0.284510	-0.019162
H132	H	1.171887	0.784510	0.480838
C133	C	0.833738	0.254046	0.587425
C134	C	1.333738	0.754046	1.087425
N135	N	0.791472	0.294144	0.548515
N136	N	1.291472	0.794144	1.048515
H137	H	0.811845	0.274478	0.364576
H138	H	1.311845	0.774478	0.864576
C139	C	0.804757	0.281163	0.193061
C140	C	1.304757	0.781163	0.693061
N141	N	0.762388	0.321148	0.154154
N142	N	1.262388	0.821148	0.654154
H143	H	0.523494	0.272503	-0.018335
H144	H	1.023494	0.772503	0.481665
C145	C	0.919350	-0.226756	0.174379
C146	C	1.419350	0.273244	0.674379
N147	N	0.915685	-0.258051	0.239209
N148	N	1.415685	0.241949	0.739209
H149	H	0.296329	0.318375	-0.021435
H150	H	0.796329	0.818375	0.478565
H151	H	0.932570	-0.451588	-0.174299
H152	H	1.432570	0.048412	0.325701
H153	H	0.147925	0.306367	-0.020602
H154	H	0.647925	0.806367	0.479398
H155	H	0.705262	0.026081	-0.001675
H156	H	1.205262	0.526081	0.498325
C157	C	0.547797	-0.007220	0.000590
C158	C	1.047797	0.492780	0.500590
N159	N	0.521528	-0.068970	0.004766
N160	N	1.021528	0.431030	0.504766
C161	C	0.937932	-0.068130	-0.154263
C162	C	1.437932	0.431870	0.345737
N163	N	0.941591	-0.036844	-0.219098
N164	N	1.441591	0.463156	0.280902
H165	H	0.933710	-0.228242	-0.121810
H166	H	1.433710	0.271758	0.378190
H167	H	0.929612	-0.600919	-0.164206
H168	H	1.429612	-0.100919	0.335794
H169	H	0.916518	-0.588626	0.109625
H170	H	1.416518	-0.088626	0.609625
H171	H	0.923564	-0.066631	0.141932
H172	H	1.423564	0.433369	0.641932
C173	C	1.019526	0.078485	0.390301
C174	C	1.519526	0.578485	0.890301
N175	N	1.061879	0.038482	0.429208
N176	N	1.561879	0.538482	0.929208
