data_functionalizedCrystal
_audit_creation_method	'MofGen! by Chris Wilmer'
_symmetry_space_group_name_H-M	'P1'
_symmetry_Int_Tables_number	1
_symmetry_cell_setting	triclinic
loop_
_symmetry_equiv_pos_as_xyz
  x,y,z
_cell_length_a	19.077105
_cell_length_b	19.121063
_cell_length_c	19.077174
_cell_angle_alpha	94.804191
_cell_angle_beta	85.483752
_cell_angle_gamma	90.263052
loop_
_atom_site_label
_atom_site_type_symbol
_atom_site_fract_x
_atom_site_fract_y
_atom_site_fract_z
Zn1	Zn	1.079661	-0.341255	-0.455843
Zn2	Zn	1.579661	0.158745	0.044157
Zn3	Zn	1.070214	-0.453789	-0.342572
Zn4	Zn	1.570214	0.046211	0.157428
Zn5	Zn	0.957450	-0.331437	-0.332838
Zn6	Zn	1.457450	0.168563	0.167162
Zn7	Zn	0.957110	-0.453743	-0.455688
Zn8	Zn	1.457110	0.046257	0.044312
O9	O	1.016109	-0.395056	-0.396735
O10	O	1.516109	0.104944	0.103265
O11	O	1.176888	-0.360311	-0.444956
O12	O	1.676888	0.139689	0.055044
O13	O	1.051444	-0.433469	-0.242463
O14	O	1.551444	0.066531	0.257537
O15	O	0.977757	-0.234459	-0.345146
O16	O	1.477757	0.265541	0.154854
O17	O	1.169947	-0.442989	-0.361736
O18	O	1.669947	0.057011	0.138264
O19	O	1.067545	-0.241672	-0.435517
O20	O	1.567545	0.258328	0.064483
O21	O	0.968597	-0.343578	-0.235312
O22	O	1.468597	0.156422	0.264688
O23	O	0.858924	-0.343533	-0.344996
O24	O	1.358924	0.156467	0.155004
O25	O	0.977178	-0.442911	-0.554526
O26	O	1.477178	0.057089	-0.054526
O27	O	0.858675	-0.433391	-0.435253
O28	O	1.358675	0.066609	0.064747
O29	O	1.067215	-0.360267	-0.554640
O30	O	1.567215	0.139733	-0.054640
O31	O	1.051115	-0.552064	-0.361586
O32	O	1.551115	-0.052064	0.138414
O33	O	0.968018	-0.552030	-0.444692
O34	O	1.468018	-0.052030	0.055308
C35	C	0.833265	-0.387392	-0.389052
C36	C	1.333265	0.112608	0.110948
C37	C	0.755043	-0.384131	-0.385782
C38	C	1.255043	0.115869	0.114218
C39	C	0.718177	-0.429448	-0.431170
C40	C	1.218177	0.070552	0.068830
C41	C	0.644681	-0.426375	-0.428101
C42	C	1.144681	0.073625	0.071899
C43	C	0.608051	-0.377988	-0.379640
C44	C	1.108051	0.122012	0.120360
C45	C	0.644922	-0.332666	-0.334250
C46	C	1.144922	0.167334	0.165750
C47	C	0.718417	-0.335737	-0.337323
C48	C	1.218417	0.164263	0.162677
C49	C	0.388255	-0.363778	-0.365420
C50	C	0.888255	0.136222	0.134580
C51	C	0.314753	-0.360713	-0.362349
C52	C	0.814753	0.139287	0.137651
C53	C	0.314518	-0.454421	-0.456201
C54	C	0.814518	0.045579	0.043799
C55	C	0.388015	-0.457489	-0.459267
C56	C	0.888015	0.042511	0.040733
C57	C	0.424879	-0.412166	-0.413880
C58	C	0.924879	0.087834	0.086120
N59	N	0.532925	-0.374847	-0.376500
N60	N	1.032925	0.125153	0.123500
N61	N	0.500004	-0.415304	-0.417024
N62	N	1.000004	0.084696	0.082976
C63	C	1.008524	-0.577531	-0.404195
C64	C	1.508524	-0.077531	0.095805
C65	C	1.005344	-0.655599	-0.407412
C66	C	1.505344	-0.155599	0.092588
C67	C	1.047151	-0.692272	-0.365694
C68	C	1.547151	-0.192272	0.134306
C69	C	1.044165	-0.765625	-0.368724
C70	C	1.544165	-0.265625	0.131276
C71	C	0.999368	-0.802303	-0.413469
C72	C	1.499368	-0.302303	0.086531
C73	C	0.957560	-0.765624	-0.455192
C74	C	1.457560	-0.265624	0.044808
C75	C	0.960550	-0.692273	-0.452165
C76	C	1.460550	-0.192273	0.047835
C77	C	0.988177	-1.023777	-0.424775
C78	C	1.488177	-0.523777	0.075225
C79	C	0.985189	-1.097133	-0.427797
C80	C	1.485189	-0.597133	0.072203
C81	C	1.071796	-1.097129	-0.341330
C82	C	1.571796	-0.597129	0.158670
C83	C	1.074779	-1.023776	-0.338303
C84	C	1.574779	-0.523776	0.161697
C85	C	1.032973	-0.987104	-0.380029
C86	C	1.532973	-0.487104	0.119971
C87	C	0.996314	-0.877281	-0.416566
C88	C	1.496314	-0.377281	0.083434
C89	C	1.036032	-0.912127	-0.376936
C90	C	1.536032	-0.412127	0.123064
C91	C	1.199666	-0.402750	-0.404449
C92	C	1.699666	0.097250	0.095551
C93	C	1.277888	-0.406029	-0.407737
C94	C	1.777888	0.093971	0.092263
C95	C	1.023212	-0.402679	-0.580922
C96	C	1.523212	0.097321	-0.080922
C97	C	1.026239	-0.405927	-0.659411
C98	C	1.526239	0.094073	-0.159411
C99	C	1.023743	-0.211870	-0.389263
C100	C	1.523743	0.288130	0.110737
C101	C	1.026996	-0.133807	-0.386079
C102	C	1.526996	0.366193	0.113921
C103	C	0.984529	-0.360653	-0.692562
C104	C	1.484529	0.139347	-0.192562
C105	C	0.987371	-0.363710	-0.766311
C106	C	1.487371	0.136290	-0.266311
C107	C	1.031926	-0.412040	-0.806908
C108	C	1.531926	0.087960	-0.306908
C109	C	1.073638	-0.457319	-0.773753
C110	C	1.573638	0.042681	-0.273753
C111	C	1.070792	-0.454264	-0.700005
C112	C	1.570792	0.045736	-0.200005
C113	C	1.045059	-0.426198	-1.027870
C114	C	1.545059	0.073802	-0.527870
C115	C	1.047903	-0.429248	-1.101623
C116	C	1.547903	0.070752	-0.601623
C117	C	0.961634	-0.335640	-1.094176
C118	C	1.461634	0.164360	-0.594176
C119	C	0.958795	-0.332587	-1.020427
C120	C	1.458795	0.167413	-0.520427
C121	C	1.000504	-0.377868	-0.987278
C122	C	1.500504	0.122132	-0.487278
N123	N	1.034833	-0.415165	-0.882292
N124	N	1.534833	0.084835	-0.382292
N125	N	0.997593	-0.374746	-0.911896
N126	N	1.497593	0.125254	-0.411896
C127	C	1.009075	-0.387414	-0.213265
C128	C	1.509075	0.112586	0.286735
C129	C	1.006192	-0.383974	-0.134774
C130	C	1.506192	0.116026	0.365226
H131	H	0.614668	-0.463277	-0.465060
H132	H	1.114668	0.036723	0.034940
H133	H	0.284932	-0.321302	-0.322890
H134	H	0.784932	0.178698	0.177110
H135	H	0.948251	-0.321294	-0.659512
H136	H	1.448251	0.178706	-0.159512
N137	N	0.758184	-0.286855	-0.288374
N138	N	1.258184	0.213145	0.211626
H139	H	0.723828	-0.255736	-0.257208
H140	H	1.223828	0.244264	0.242792
H141	H	0.786227	-0.315308	-0.258088
H142	H	1.286227	0.184692	0.241912
H143	H	0.417834	-0.496893	-0.498728
H144	H	0.917834	0.003107	0.001272
H145	H	0.418261	-0.326877	-0.328457
H146	H	0.918261	0.173123	0.171543
H147	H	0.615092	-0.293266	-0.294795
H148	H	1.115092	0.206734	0.205205
H149	H	1.072509	-0.882262	-0.340507
H150	H	1.572509	-0.382262	0.159493
N151	N	1.116880	-1.136689	-0.296330
N152	N	1.616880	-0.636689	0.203670
H153	H	1.149339	-1.169636	-0.327677
H154	H	1.649339	-0.669636	0.172323
H155	H	1.145668	-1.102281	-0.267529
H156	H	1.645668	-0.602281	0.232471
N157	N	0.274757	-0.503303	-0.505152
N158	N	0.774757	-0.003303	-0.005152
H159	H	0.222640	-0.494018	-0.495854
H160	H	0.722640	0.005982	0.004146
H161	H	0.290012	-0.495074	-0.555697
H162	H	0.790012	0.004926	-0.055697
H163	H	0.922511	-0.293233	-0.987377
H164	H	1.422511	0.206767	-0.487377
N165	N	0.943079	-0.984229	-0.469768
N166	N	1.443079	-0.484229	0.030232
H167	H	0.974153	-0.956310	-0.502464
H168	H	1.474153	-0.456310	-0.002464
H169	H	0.914252	-1.018640	-0.498523
H170	H	1.414252	-0.518640	0.001477
H171	H	0.959838	-0.907152	-0.452996
H172	H	1.459838	-0.407152	0.047004
N173	N	0.916635	-0.286816	-1.129929
N174	N	1.416635	0.213184	-0.629929
H175	H	0.925192	-0.296087	-1.182808
H176	H	1.425192	0.203913	-0.682808
H177	H	0.865426	-0.295121	-1.115364
H178	H	1.365426	0.204879	-0.615364
N179	N	1.090047	-0.475033	-0.992124
N180	N	1.590047	0.024967	-0.492124
H181	H	1.141279	-0.466762	-1.006626
H182	H	1.641279	0.033238	-0.506626
H183	H	1.081426	-0.465745	-0.939255
H184	H	1.581426	0.034255	-0.439255
N185	N	1.095964	-0.481374	-1.145413
N186	N	1.595964	0.018626	-0.645413
H187	H	1.121955	-0.509597	-1.113223
H188	H	1.621955	-0.009597	-0.613223
H189	H	1.067143	-0.513938	-1.176137
H190	H	1.567143	-0.013938	-0.676137
H191	H	1.083627	-0.662414	-0.329254
H192	H	1.583627	-0.162414	0.170746
H193	H	0.953403	-0.326846	-0.793298
H194	H	1.453403	0.173154	-0.293298
N195	N	1.089257	-0.805181	-0.323728
N196	N	1.589257	-0.305181	0.176272
H197	H	1.118085	-0.770815	-0.294919
H198	H	1.618085	-0.270815	0.205081
H199	H	1.058131	-0.833103	-0.291083
H200	H	1.558131	-0.333103	0.208917
N201	N	1.121687	-0.509455	-0.817536
N202	N	1.621687	-0.009455	-0.317536
H203	H	1.117162	-0.504521	-0.869286
H204	H	1.617162	-0.004521	-0.369286
H205	H	1.171907	-0.500102	-0.806312
H206	H	1.671907	-0.000102	-0.306312
N207	N	0.909244	-0.805180	-0.503457
N208	N	1.409244	-0.305180	-0.003457
H209	H	0.913691	-0.857213	-0.499043
H210	H	1.413691	-0.357213	0.000957
H211	H	0.859089	-0.789843	-0.489785
H212	H	1.359089	-0.289843	0.010215
H213	H	1.104763	-0.491126	-0.673015
H214	H	1.604763	0.008874	-0.173015
N215	N	1.123106	-0.984218	-0.290053
N216	N	1.623106	-0.484218	0.209947
H217	H	1.149143	-1.018583	-0.264088
H218	H	1.649143	-0.518583	0.235912
H219	H	1.157998	-0.956304	-0.318946
H220	H	1.657998	-0.456304	0.181054
H221	H	0.948718	-1.126995	-0.464247
H222	H	1.448718	-0.626995	0.035753
N223	N	0.915460	-0.652710	-0.497158
N224	N	1.415460	-0.152710	0.002842
H225	H	0.927776	-0.667989	-0.548604
H226	H	1.427776	-0.167989	-0.048604
H227	H	0.864255	-0.662972	-0.484508
H228	H	1.364255	-0.162972	0.015492
N229	N	0.757683	-0.481642	-0.483434
N230	N	1.257683	0.018358	0.016566
H231	H	0.723173	-0.509882	-0.511722
H232	H	1.223173	-0.009882	-0.011722
H233	H	0.790632	-0.455734	-0.516270
H234	H	1.290632	0.044266	-0.016270
