data_functionalizedCrystal
_audit_creation_method	'MofGen! by Chris Wilmer'
_symmetry_space_group_name_H-M	'P1'
_symmetry_Int_Tables_number	1
_symmetry_cell_setting	triclinic
loop_
_symmetry_equiv_pos_as_xyz
  x,y,z
_cell_length_a	19.077068
_cell_length_b	19.805407
_cell_length_c	19.805399
_cell_angle_alpha	89.980427
_cell_angle_beta	92.269429
_cell_angle_gamma	92.327086
loop_
_atom_site_label
_atom_site_type_symbol
_atom_site_fract_x
_atom_site_fract_y
_atom_site_fract_z
Zn1	Zn	-0.280218	1.023904	-0.393534
Zn2	Zn	0.219782	1.523904	0.106466
Zn3	Zn	-0.397917	1.019269	-0.284888
Zn4	Zn	0.102083	1.519269	0.215112
Zn5	Zn	-0.280237	0.910718	-0.280359
Zn6	Zn	0.219763	1.410718	0.219641
Zn7	Zn	-0.397880	0.906134	-0.398033
Zn8	Zn	0.102120	1.406134	0.101967
O9	O	-0.339063	0.965006	-0.339204
O10	O	0.160937	1.465006	0.160796
O11	O	-0.295839	1.118005	-0.379134
O12	O	0.204161	1.618005	0.120866
O13	O	-0.382330	1.004848	-0.189571
O14	O	0.117670	1.504848	0.310429
O15	O	-0.181744	0.929590	-0.291594
O16	O	0.318256	1.429590	0.208406
O17	O	-0.382312	1.114600	-0.299312
O18	O	0.117688	1.614600	0.200688
O19	O	-0.181729	1.012748	-0.374743
O20	O	0.318271	1.512748	0.125257
O21	O	-0.295872	0.925096	-0.186244
O22	O	0.204128	1.425096	0.313756
O23	O	-0.295835	0.815394	-0.295957
O24	O	0.204165	1.315394	0.204043
O25	O	-0.382248	0.921778	-0.492152
O26	O	0.117752	1.421778	0.007848
O27	O	-0.382267	0.812026	-0.382411
O28	O	0.117733	1.312026	0.117589
O29	O	-0.295802	1.008303	-0.488846
O30	O	0.204198	1.508303	0.011154
O31	O	-0.496403	1.000404	-0.303675
O32	O	0.003597	1.500404	0.196325
O33	O	-0.496376	0.917284	-0.386802
O34	O	0.003624	1.417284	0.113198
C35	C	-0.339050	0.789151	-0.339181
C36	C	0.160950	1.289151	0.160819
C37	C	-0.339061	0.713918	-0.339188
C38	C	0.160939	1.213918	0.160812
C39	C	-0.384133	0.676836	-0.384138
C40	C	0.115867	1.176836	0.115862
C41	C	-0.384135	0.606147	-0.384147
C42	C	0.115865	1.106147	0.115853
C43	C	-0.339066	0.572543	-0.339204
C44	C	0.160934	1.072543	0.160796
C45	C	-0.293989	0.609630	-0.294252
C46	C	0.206011	1.109630	0.205748
C47	C	-0.293985	0.680318	-0.294246
C48	C	0.206015	1.180318	0.205754
C49	C	-0.294004	0.324556	-0.294275
C50	C	0.205996	0.824556	0.205725
C51	C	-0.294014	0.253864	-0.294283
C52	C	0.205986	0.753864	0.205717
C53	C	-0.384154	0.250386	-0.384176
C54	C	0.115846	0.750386	0.115824
C55	C	-0.384150	0.321073	-0.384170
C56	C	0.115850	0.821073	0.115830
C57	C	-0.339070	0.358155	-0.339221
C58	C	0.160930	0.858155	0.160779
C59	C	-0.339069	0.434804	-0.339212
C60	C	0.160931	0.934804	0.160788
C61	C	-0.339071	0.495895	-0.339209
C62	C	0.160929	0.995895	0.160791
C63	C	-0.521927	0.957862	-0.346233
C64	C	-0.021927	1.457862	0.153767
C65	C	-0.600157	0.954867	-0.349263
C66	C	-0.100157	1.454867	0.150737
C67	C	-0.636901	0.996770	-0.307443
C68	C	-0.136901	1.496770	0.192557
C69	C	-0.710406	0.993957	-0.310296
C70	C	-0.210406	1.493957	0.189704
C71	C	-0.747167	0.949238	-0.354968
C72	C	-0.247167	1.449238	0.145032
C73	C	-0.710418	0.907333	-0.396793
C74	C	-0.210418	1.407333	0.103207
C75	C	-0.636914	0.910150	-0.393942
C76	C	-0.136914	1.410150	0.106058
C77	C	-0.967002	0.936174	-0.368135
C78	C	-0.467002	1.436174	0.131865
C79	C	-1.040511	0.933359	-0.370981
C80	C	-0.540511	1.433359	0.129019
C81	C	-1.040494	1.019984	-0.284485
C82	C	-0.540494	1.519984	0.215515
C83	C	-0.966989	1.022794	-0.281635
C84	C	-0.466989	1.522794	0.218365
C85	C	-0.930246	0.980892	-0.323463
C86	C	-0.430246	1.480892	0.176537
N87	N	-0.822301	0.946361	-0.357884
N88	N	-0.322301	1.446361	0.142116
N89	N	-0.855113	0.983773	-0.320549
N90	N	-0.355113	1.483773	0.179451
C91	C	-0.155485	0.972197	-0.332161
C92	C	0.344515	1.472197	0.167839
C93	C	-0.077255	0.975262	-0.329160
C94	C	0.422745	1.475262	0.170840
C95	C	-0.339019	0.965046	-0.515745
C96	C	0.160981	1.465046	-0.015745
C97	C	-0.339000	0.965063	-0.590976
C98	C	0.161000	1.465063	-0.090976
C99	C	-0.339077	1.141548	-0.339226
C100	C	0.160923	1.641548	0.160774
C101	C	-0.339083	1.216780	-0.339236
C102	C	0.160917	1.716780	0.160764
C103	C	-0.293985	1.010118	-0.624600
C104	C	0.206015	1.510118	-0.124600
C105	C	-0.293965	1.010125	-0.695288
C106	C	0.206035	1.510125	-0.195288
C107	C	-0.338963	0.965081	-0.732350
C108	C	0.161037	1.465081	-0.232350
C109	C	-0.383980	0.920022	-0.698721
C110	C	0.116020	1.420022	-0.198721
C111	C	-0.383996	0.920011	-0.628035
C112	C	0.116004	1.420011	-0.128035
C113	C	-0.383914	0.920062	-0.983792
C114	C	0.116086	1.420062	-0.483792
C115	C	-0.383896	0.920078	-1.054484
C116	C	0.116104	1.420078	-0.554484
C117	C	-0.293883	1.010177	-1.051045
C118	C	0.206117	1.510177	-0.551045
C119	C	-0.293899	1.010166	-0.980358
C120	C	0.206101	1.510166	-0.480358
C121	C	-0.338913	0.965104	-0.946736
C122	C	0.161087	1.465104	-0.446736
C123	C	-0.338934	0.965096	-0.870088
C124	C	0.161066	1.465096	-0.370088
C125	C	-0.338947	0.965093	-0.808997
C126	C	0.161053	1.465093	-0.308997
C127	C	-0.339056	0.965008	-0.163347
C128	C	0.160944	1.465008	0.336653
C129	C	-0.338877	0.965130	-0.088109
C130	C	0.161123	1.465130	0.411891
H131	H	-0.257309	0.226505	-0.257684
H132	H	0.242691	0.726505	0.242316
H133	H	-0.257311	1.046815	-0.722661
H134	H	0.242689	1.546815	-0.222661
C135	C	-0.244395	1.059715	-0.939593
C136	C	0.255605	1.559715	-0.439593
N137	N	-0.207104	1.097034	-0.908890
N138	N	0.292896	1.597034	-0.408890
H139	H	-0.420644	0.883316	-0.600659
H140	H	0.079356	1.383316	-0.100659
H141	H	-0.257228	1.046866	-1.078429
H142	H	0.242772	1.546866	-0.578429
C143	C	-0.244420	0.365337	-0.244826
C144	C	0.255580	0.865337	0.255174
N145	N	-0.207071	0.396055	-0.207577
N146	N	0.292929	0.896055	0.292423
C147	C	-1.080917	1.066075	-0.238480
C148	C	-0.580917	1.566075	0.261520
N149	N	-1.111363	1.100794	-0.203828
N150	N	-0.611363	1.600794	0.296172
H151	H	-0.740354	0.870925	-0.433168
H152	H	-0.240354	1.370925	0.066832
H153	H	-0.420838	0.575957	-0.420749
H154	H	0.079162	1.075957	0.079251
H155	H	-0.937092	0.902054	-0.402191
H156	H	-0.437092	1.402054	0.097809
C157	C	-1.080946	0.884166	-0.420129
C158	C	-0.580946	1.384166	0.079871
N159	N	-1.111402	0.847117	-0.457147
N160	N	-0.611402	1.347117	0.042853
H161	H	-0.420540	0.883394	-1.084658
H162	H	0.079460	1.383394	-0.584658
C163	C	-0.596471	1.045963	-0.258298
C164	C	-0.096471	1.545963	0.241702
N165	N	-0.566021	1.083019	-0.221283
N166	N	-0.066021	1.583019	0.278717
C167	C	-0.433428	0.870491	-0.946816
C168	C	0.066572	1.370491	-0.446816
N169	N	-0.470723	0.833150	-0.918964
N170	N	0.029277	1.333150	-0.418964
C171	C	-0.433730	0.358034	-0.433611
C172	C	0.066270	0.858034	0.066389
N173	N	-0.471072	0.385872	-0.470852
N174	N	0.028928	0.885872	0.029148
H175	H	-0.420836	0.704191	-0.420734
H176	H	0.079164	1.204191	0.079266
C177	C	-0.433738	0.209590	-0.433627
C178	C	0.066262	0.709590	0.066373
N179	N	-0.471084	0.178864	-0.470871
N180	N	0.028916	0.678864	0.029129
C181	C	-0.596497	0.864054	-0.439949
C182	C	-0.096497	1.364054	0.060051
N183	N	-0.566055	0.829334	-0.474604
N184	N	-0.066055	1.329334	0.025396
C185	C	-0.244482	1.059670	-0.583837
C186	C	0.255518	1.559670	-0.083837
N187	N	-0.207193	1.096992	-0.553137
N188	N	0.292807	1.596992	-0.053137
H189	H	-0.257290	0.582264	-0.257661
H190	H	0.242710	1.082264	0.242339
C191	C	-0.244403	0.721108	-0.244797
C192	C	0.255597	1.221108	0.255203
N193	N	-0.207055	0.751831	-0.207551
N194	N	0.292945	1.251831	0.292449
C195	C	-0.750821	1.040050	-0.264286
C196	C	-0.250821	1.540050	0.235714
N197	N	-0.781261	1.074768	-0.229627
N198	N	-0.281261	1.574768	0.270373
C199	C	-0.433471	0.870466	-0.739493
C200	C	0.066529	1.370466	-0.239493
N201	N	-0.470749	0.833140	-0.770201
N202	N	0.029251	1.333140	-0.270201
H203	H	-0.937060	1.059207	-0.245260
H204	H	-0.437060	1.559207	0.254740
