data_functionalizedCrystal
_audit_creation_method	'MofGen! by Chris Wilmer'
_symmetry_space_group_name_H-M	'P1'
_symmetry_Int_Tables_number	1
_symmetry_cell_setting	triclinic
loop_
_symmetry_equiv_pos_as_xyz
  x,y,z
_cell_length_a	19.805407
_cell_length_b	19.805405
_cell_length_c	19.805399
_cell_angle_alpha	90.027486
_cell_angle_beta	89.980427
_cell_angle_gamma	89.972273
loop_
_atom_site_label
_atom_site_type_symbol
_atom_site_fract_x
_atom_site_fract_y
_atom_site_fract_z
Zn1	Zn	1.034729	0.269479	-0.382720
Zn2	Zn	1.534729	0.769479	0.117280
Zn3	Zn	1.034642	0.382667	-0.269532
Zn4	Zn	1.534642	0.882667	0.230468
Zn5	Zn	0.921544	0.269498	-0.269545
Zn6	Zn	1.421544	0.769498	0.230455
Zn7	Zn	0.921505	0.382631	-0.382679
Zn8	Zn	1.421505	0.882631	0.117321
O9	O	0.978105	0.326069	-0.326119
O10	O	1.478105	0.826069	0.173881
O11	O	1.129434	0.284501	-0.367717
O12	O	1.629434	0.784501	0.132283
O13	O	1.019619	0.367678	-0.174817
O14	O	1.519619	0.867678	0.325183
O15	O	0.936611	0.174778	-0.284580
O16	O	1.436611	0.674778	0.215420
O17	O	1.129370	0.367660	-0.284559
O18	O	1.629370	0.867660	0.215441
O19	O	1.019768	0.174765	-0.367730
O20	O	1.519768	0.674765	0.132270
O21	O	0.936526	0.284533	-0.174826
O22	O	1.436526	0.784533	0.325174
O23	O	0.826822	0.284498	-0.284540
O24	O	1.326822	0.784498	0.215460
O25	O	0.936545	0.367598	-0.477401
O26	O	1.436545	0.867598	0.022599
O27	O	0.826794	0.367617	-0.367659
O28	O	1.326794	0.867617	0.132341
O29	O	1.019730	0.284466	-0.477431
O30	O	1.519730	0.784466	0.022569
O31	O	1.019581	0.477379	-0.284519
O32	O	1.519581	0.977379	0.215481
O33	O	0.936460	0.477353	-0.367647
O34	O	1.436460	0.977353	0.132353
C35	C	0.802249	0.326056	-0.326097
C36	C	1.302249	0.826056	0.173903
C37	C	0.727017	0.326067	-0.326104
C38	C	1.227017	0.826067	0.173896
C39	C	0.691676	0.369412	-0.369314
C40	C	1.191676	0.869412	0.130686
C41	C	0.620987	0.369413	-0.369323
C42	C	1.120987	0.869413	0.130677
C43	C	0.585642	0.326072	-0.326119
C44	C	1.085642	0.826072	0.173881
C45	C	0.620988	0.282722	-0.282907
C46	C	1.120988	0.782722	0.217093
C47	C	0.691675	0.282718	-0.282901
C48	C	1.191675	0.782718	0.217099
C49	C	0.335915	0.282737	-0.282929
C50	C	0.835915	0.782737	0.217071
C51	C	0.265222	0.282746	-0.282937
C52	C	0.765222	0.782746	0.217063
C53	C	0.265227	0.369432	-0.369351
C54	C	0.765227	0.869432	0.130649
C55	C	0.335914	0.369428	-0.369346
C56	C	0.835914	0.869428	0.130654
C57	C	0.371254	0.326076	-0.326137
C58	C	0.871254	0.826076	0.173863
C59	C	0.447903	0.326074	-0.326128
C60	C	0.947903	0.826074	0.173872
C61	C	0.508994	0.326076	-0.326124
C62	C	1.008994	0.826076	0.173876
C63	C	0.978025	0.501925	-0.326092
C64	C	1.478025	1.001925	0.173908
C65	C	0.978053	0.577157	-0.326103
C66	C	1.478053	1.077157	0.173897
C67	C	1.021375	0.612492	-0.282864
C68	C	1.521375	1.112492	0.217136
C69	C	1.021402	0.683181	-0.282881
C70	C	1.521402	1.183181	0.217119
C71	C	0.978103	0.718532	-0.326134
C72	C	1.478103	1.218532	0.173866
C73	C	0.934779	0.683192	-0.369378
C74	C	1.434779	1.183192	0.130622
C75	C	0.934755	0.612505	-0.369363
C76	C	1.434755	1.112505	0.130637
C77	C	0.934872	0.968265	-0.369437
C78	C	1.434872	1.468265	0.130563
C79	C	0.934897	1.038957	-0.369446
C80	C	1.434897	1.538957	0.130554
C81	C	1.021518	1.038941	-0.282955
C82	C	1.521518	1.538941	0.217045
C83	C	1.021495	0.968254	-0.282941
C84	C	1.521495	1.468254	0.217059
C85	C	0.978174	0.932920	-0.326186
C86	C	1.478174	1.432920	0.173814
C87	C	0.978146	0.856271	-0.326168
C88	C	1.478146	1.356271	0.173832
C89	C	0.978127	0.795179	-0.326150
C90	C	1.478127	1.295179	0.173850
C91	C	1.154648	0.326082	-0.326141
C92	C	1.654648	0.826082	0.173859
C93	C	1.229880	0.326088	-0.326151
C94	C	1.729880	0.826088	0.173849
C95	C	0.978143	0.326026	-0.502662
C96	C	1.478143	0.826026	-0.002662
C97	C	0.978159	0.326008	-0.577894
C98	C	1.478159	0.826008	-0.077894
C99	C	0.978198	1.149526	-0.326169
C100	C	1.478198	1.649526	0.173831
C101	C	0.978223	1.074294	-0.326211
C102	C	1.478223	1.574294	0.173789
C103	C	1.021475	0.282719	-0.613255
C104	C	1.521475	0.782719	-0.113255
C105	C	1.021482	0.282699	-0.683943
C106	C	1.521482	0.782699	-0.183943
C107	C	0.978176	0.325973	-0.719269
C108	C	1.478176	0.825973	-0.219269
C109	C	0.934856	0.369264	-0.683903
C110	C	1.434856	0.869264	-0.183903
C111	C	0.934846	0.369279	-0.613216
C112	C	1.434846	0.869279	-0.113216
C113	C	0.934894	0.369201	-0.968977
C114	C	1.434894	0.869201	-0.468977
C115	C	0.934908	0.369183	-1.039669
C116	C	1.434908	0.869183	-0.539669
C117	C	1.021530	0.282620	-1.039704
C118	C	1.521530	0.782620	-0.539704
C119	C	1.021520	0.282636	-0.969017
C120	C	1.521520	0.782636	-0.469017
C121	C	0.978197	0.325924	-0.933657
C122	C	1.478197	0.825924	-0.433657
C123	C	0.978189	0.325944	-0.857008
C124	C	1.478189	0.825944	-0.357008
C125	C	0.978187	0.325957	-0.795917
C126	C	1.478187	0.825957	-0.295917
C127	C	0.978106	0.326062	-0.150263
C128	C	1.478106	0.826062	0.349737
C129	C	0.978221	0.325890	-0.075031
C130	C	1.478221	0.825890	0.424969
H131	H	0.364689	0.404723	-0.404525
H132	H	0.864689	0.904723	0.095475
H133	H	0.720449	0.404707	-0.404494
H134	H	1.220449	0.904707	0.095506
H135	H	0.899641	0.404423	-1.068430
H136	H	1.399641	0.904423	-0.568430
H137	H	1.056795	1.067719	-0.247745
H138	H	1.556795	1.567719	0.252255
H139	H	0.592215	0.404709	-0.404509
H140	H	1.092215	0.904709	0.095491
H141	H	0.236444	0.404729	-0.404537
H142	H	0.736444	0.904729	0.095463
H143	H	0.899597	0.939502	-0.404647
H144	H	1.399597	1.439502	0.095353
C145	C	0.887724	0.416164	-0.722219
C146	C	1.387724	0.916164	-0.222219
C147	C	0.820760	0.401413	-0.705029
C148	C	1.320760	0.901413	-0.205029
C149	C	0.777324	0.444600	-0.740316
C150	C	1.277324	0.944600	-0.240316
H151	H	0.897512	0.461669	-0.710651
H152	H	1.397512	0.961669	-0.210651
H153	H	0.893887	0.409952	-0.769389
H154	H	1.393887	0.909952	-0.269389
H155	H	0.814599	0.407630	-0.657869
H156	H	1.314599	0.907630	-0.157869
H157	H	0.810950	0.355916	-0.716598
H158	H	1.310950	0.855916	-0.216598
H159	H	0.783488	0.438388	-0.787486
H160	H	1.283488	0.938388	-0.287486
H161	H	0.787118	0.490102	-0.728746
H162	H	1.287118	0.990102	-0.228746
H163	H	0.731884	0.434593	-0.728662
H164	H	1.231884	0.934593	-0.228662
C165	C	1.068468	0.929960	-0.235871
C166	C	1.568468	1.429960	0.264129
C167	C	1.053790	0.947224	-0.168892
C168	C	1.553790	1.447224	0.331108
C169	C	1.097057	0.911969	-0.125514
C170	C	1.597057	1.411969	0.374486
H171	H	1.062293	0.882790	-0.241963
H172	H	1.562293	1.382790	0.258037
H173	H	1.113955	0.941516	-0.245783
H174	H	1.613955	1.441516	0.254217
H175	H	1.008315	0.935663	-0.158983
H176	H	1.508315	1.435663	0.341017
H177	H	1.059970	0.994387	-0.162779
H178	H	1.559970	1.494387	0.337221
H179	H	1.142543	0.923525	-0.135427
H180	H	1.642543	1.423525	0.364573
H181	H	1.090878	0.864801	-0.131612
H182	H	1.590878	1.364801	0.368388
H183	H	1.087108	0.923682	-0.080065
H184	H	1.587108	1.423682	0.419935
H185	H	0.236446	0.247448	-0.247754
H186	H	0.736446	0.747448	0.252246
C187	C	0.887781	0.416084	-0.930548
C188	C	1.387781	0.916084	-0.430548
C189	C	0.844405	0.377758	-0.889984
C190	C	1.344405	0.877758	-0.389984
C191	C	0.800989	0.420924	-0.854575
C192	C	1.300989	0.920924	-0.354575
H193	H	0.913573	0.445595	-0.902913
H194	H	1.413573	0.945595	-0.402913
H195	H	0.861950	0.441846	-0.961685
H196	H	1.361950	0.941846	-0.461685
H197	H	0.870233	0.352008	-0.858851
H198	H	1.370233	0.852008	-0.358851
H199	H	0.818598	0.348250	-0.917603
H200	H	1.318598	0.848250	-0.417603
H201	H	0.775158	0.446686	-0.885712
H202	H	1.275158	0.946686	-0.385712
H203	H	0.826786	0.450432	-0.826943
H204	H	1.326786	0.950432	-0.326943
H205	H	0.771549	0.394926	-0.827053
H206	H	1.271549	0.894926	-0.327053
C207	C	1.068610	0.235758	-0.930622
C208	C	1.568610	0.735758	-0.430622
C209	C	1.111978	0.274086	-0.890044
C210	C	1.611978	0.774086	-0.390044
C211	C	1.155366	0.230921	-0.854671
C212	C	1.655366	0.730921	-0.354671
H213	H	1.042797	0.206265	-0.902998
H214	H	1.542797	0.706265	-0.402998
H215	H	1.094448	0.209979	-0.961780
H216	H	1.594448	0.709979	-0.461780
H217	H	1.086143	0.299855	-0.858889
H218	H	1.586143	0.799855	-0.358889
H219	H	1.137806	0.303578	-0.917651
H220	H	1.637806	0.803578	-0.417651
H221	H	1.181204	0.205141	-0.885829
H222	H	1.681204	0.705141	-0.385829
H223	H	1.129548	0.201429	-0.827051
H224	H	1.629548	0.701429	-0.327051
H225	H	1.184800	0.256920	-0.827139
H226	H	1.684800	0.756920	-0.327139
H227	H	1.056803	0.247370	-1.068502
H228	H	1.556803	0.747370	-0.568502
H229	H	0.899527	0.711981	-0.404598
H230	H	1.399527	1.211981	0.095402
H231	H	0.364680	0.247442	-0.247741
H232	H	0.864680	0.747442	0.252259
C233	C	0.887844	0.416208	-0.574699
C234	C	1.387844	0.916208	-0.074699
C235	C	0.897090	0.406946	-0.505234
C236	C	1.397090	0.906946	-0.005234
C237	C	0.853793	0.450157	-0.469733
C238	C	1.353793	0.950157	0.030267
H239	H	0.897681	0.461711	-0.586191
H240	H	1.397681	0.961711	-0.086191
H241	H	0.842360	0.406288	-0.586239
H242	H	1.342360	0.906288	-0.086239
H243	H	0.942563	0.416871	-0.493699
H244	H	1.442563	0.916871	0.006301
H245	H	0.887247	0.361452	-0.493722
H246	H	1.387247	0.861452	0.006278
H247	H	0.808309	0.440237	-0.481272
H248	H	1.308309	0.940237	0.018728
H249	H	0.863634	0.495658	-0.481230
H250	H	1.363634	0.995658	0.018770
H251	H	0.860056	0.443875	-0.422597
H252	H	1.360056	0.943875	0.077403
H253	H	0.720449	0.247418	-0.247719
H254	H	1.220449	0.747418	0.252281
C255	C	0.582577	0.235775	-0.235918
C256	C	1.082577	0.735775	0.264082
C257	C	0.541974	0.274044	-0.192457
C258	C	1.041974	0.774044	0.307543
C259	C	0.506588	0.230820	-0.149155
C260	C	1.006588	0.730820	0.350845
H261	H	0.554970	0.206309	-0.261788
H262	H	1.054970	0.706309	0.238212
H263	H	0.613728	0.209969	-0.210143
H264	H	1.113728	0.709969	0.289857
H265	H	0.510826	0.299839	-0.218229
H266	H	1.010826	0.799839	0.281771
H267	H	0.569564	0.303509	-0.166571
H268	H	1.069564	0.803509	0.333429
H269	H	0.537739	0.205014	-0.123380
H270	H	1.037739	0.705014	0.376620
H271	H	0.478984	0.201356	-0.175031
H272	H	0.978984	0.701356	0.324969
H273	H	0.479039	0.256779	-0.119657
H274	H	0.979039	0.756779	0.380343
C275	C	1.068346	0.574199	-0.235792
C276	C	1.568346	1.074199	0.264208
C277	C	1.053665	0.591466	-0.168814
C278	C	1.553665	1.091466	0.331186
C279	C	1.096930	0.556213	-0.125433
C280	C	1.596930	1.056213	0.374567
H281	H	1.062171	0.527029	-0.241882
H282	H	1.562171	1.027029	0.258118
H283	H	1.113833	0.585755	-0.245702
H284	H	1.613833	1.085755	0.254298
H285	H	1.008190	0.579907	-0.158907
H286	H	1.508190	1.079907	0.341093
H287	H	1.059845	0.638630	-0.162703
H288	H	1.559845	1.138630	0.337297
H289	H	1.142416	0.567768	-0.135344
H290	H	1.642416	1.067768	0.364656
H291	H	1.090751	0.509045	-0.131529
H292	H	1.590751	1.009045	0.368471
H293	H	1.086979	0.567928	-0.079985
H294	H	1.586979	1.067928	0.420015
C295	C	1.068598	0.721398	-0.235976
C296	C	1.568598	1.221398	0.264024
C297	C	1.135521	0.704050	-0.250813
C298	C	1.635521	1.204050	0.249187
C299	C	1.179041	0.739208	-0.207612
C300	C	1.679041	1.239208	0.292388
H301	H	1.062560	0.768581	-0.242101
H302	H	1.562560	1.268581	0.257899
H303	H	1.058768	0.709819	-0.190478
H304	H	1.558768	1.209819	0.309522
H305	H	1.145347	0.715634	-0.296300
H306	H	1.645347	1.215634	0.203700
H307	H	1.141580	0.656873	-0.244685
H308	H	1.641580	1.156873	0.255315
H309	H	1.169211	0.727630	-0.162114
H310	H	1.669211	1.227630	0.337886
H311	H	1.172998	0.786390	-0.213740
H312	H	1.672998	1.286390	0.286260
H313	H	1.224453	0.727438	-0.217669
H314	H	1.724453	1.227438	0.282331
H315	H	0.899479	0.583735	-0.404573
H316	H	1.399479	1.083735	0.095427
H317	H	0.899638	1.067739	-0.404673
H318	H	1.399638	1.567739	0.095327
H319	H	1.056742	0.247482	-0.584497
H320	H	1.556742	0.747482	-0.084497
H321	H	1.056755	0.247450	-0.712731
H322	H	1.556755	0.747450	-0.212731
