data_functionalizedCrystal
_audit_creation_method	'MofGen! by Chris Wilmer'
_symmetry_space_group_name_H-M	'P1'
_symmetry_Int_Tables_number	1
_symmetry_cell_setting	triclinic
loop_
_symmetry_equiv_pos_as_xyz
  x,y,z
_cell_length_a	14.853566
_cell_length_b	12.503572
_cell_length_c	14.853567
_cell_angle_alpha	93.532015
_cell_angle_beta	96.365328
_cell_angle_gamma	93.520393
loop_
_atom_site_label
_atom_site_type_symbol
_atom_site_fract_x
_atom_site_fract_y
_atom_site_fract_z
O1	O	1.201553	0.089240	-0.112494
O2	O	0.939094	0.089257	-0.126516
O3	O	1.077335	0.089252	0.011725
O4	O	1.063313	0.089246	-0.250735
O5	O	1.066938	-0.089390	0.001311
O6	O	0.928698	-0.089384	-0.136930
O7	O	1.191157	-0.089401	-0.122908
Cu8	Cu	1.058978	-0.105704	-0.130870
Cu9	Cu	1.071273	0.105560	-0.118554
O10	O	1.052916	-0.089396	-0.261149
C11	C	0.900308	-0.000061	-0.131088
C12	C	0.800224	-0.000055	-0.129184
N13	N	1.050337	-0.254296	-0.139531
C14	C	0.382705	0.097304	-0.115458
C15	C	0.371392	-0.097458	-0.126812
C16	C	0.465426	-0.097455	-0.128599
C17	C	0.518104	-0.000070	-0.123817
C18	C	0.476748	0.097310	-0.117248
C19	C	0.506788	-0.194834	-0.135177
C20	C	0.600828	-0.194834	-0.136966
C21	C	0.653509	-0.097449	-0.132177
C22	C	0.612147	-0.000064	-0.125607
C23	C	0.664825	0.097320	-0.120825
C24	C	0.623466	0.194706	-0.114248
C25	C	0.529429	0.194696	-0.112459
C26	C	0.747546	-0.097439	-0.133966
C27	C	0.758868	0.097326	-0.122615
C28	C	1.037625	-0.473411	-0.152280
C29	C	1.092630	-0.526740	-0.097140
C30	C	1.085557	-0.648663	-0.104233
C31	C	1.044697	-0.351477	-0.145188
C32	C	1.229944	-0.000080	-0.118336
C33	C	1.330027	-0.000080	-0.120240
C34	C	1.071501	-0.000066	0.040107
C35	C	1.069598	-0.000057	0.140191
N36	N	1.079921	0.254152	-0.109886
C37	C	1.058750	-0.000076	-0.289531
C38	C	1.060654	-0.000078	-0.389615
C39	C	0.979431	-0.000071	0.552724
C40	C	1.143664	-0.000082	0.574005
C41	C	1.145454	-0.000075	0.479971
C42	C	1.064232	-0.000069	0.422309
C43	C	0.981219	-0.000068	0.458681
C44	C	1.228465	-0.000087	0.443592
C45	C	1.230258	-0.000082	0.349553
C46	C	1.149036	-0.000067	0.291890
C47	C	1.066020	-0.000066	0.328267
C48	C	0.984797	-0.000059	0.270605
C49	C	0.901781	-0.000050	0.306981
C50	C	0.899996	-0.000054	0.401018
C51	C	1.150820	-0.000063	0.197853
C52	C	0.986585	-0.000056	0.176562
H53	H	0.801753	0.176629	-0.118717
H54	H	1.294591	-0.000102	0.490546
H55	H	0.985227	-0.519316	-0.204812
H56	H	0.666368	0.273996	-0.110360
Br57	Br	0.656950	-0.326997	-0.145892
H58	H	1.145033	-0.480829	-0.044605
H59	H	1.297855	-0.000088	0.319945
Br60	Br	0.803672	-0.229593	-0.142902
Br61	Br	0.876349	-0.000034	0.098314
Br62	Br	0.791554	-0.000055	0.228714
H63	H	0.328495	-0.176743	-0.130711
H64	H	0.463891	-0.274118	-0.139077
Br65	Br	0.787342	-0.000034	0.450391
Br66	Br	1.263474	-0.000102	0.148487
H67	H	0.911841	-0.000060	0.582345
Br68	Br	0.473299	0.326850	-0.103492
H69	H	1.209790	-0.000096	0.620958
H70	H	0.349027	0.176593	-0.110099
