data_functionalizedCrystal
_audit_creation_method	'MofGen! by Chris Wilmer'
_symmetry_space_group_name_H-M	'P1'
_symmetry_Int_Tables_number	1
_symmetry_cell_setting	triclinic
loop_
_symmetry_equiv_pos_as_xyz
  x,y,z
_cell_length_a	6.817900
_cell_length_b	12.530095
_cell_length_c	20.936756
_cell_angle_alpha	64.151448
_cell_angle_beta	91.662409
_cell_angle_gamma	89.999806
loop_
_atom_site_label
_atom_site_type_symbol
_atom_site_fract_x
_atom_site_fract_y
_atom_site_fract_z
V1	V	-3.805734	-0.381156	0.096097
O2	O	-3.873506	-0.323270	-0.005742
O3	O	-3.685621	-0.427244	0.191624
O4	O	-3.694306	-0.525176	0.094125
O5	O	-3.864760	-0.224660	0.092432
V6	V	-4.306822	-0.356523	0.083974
O7	O	-4.028464	-0.435192	0.122689
O8	O	-4.534290	-0.302487	0.057381
O9	O	-4.203729	-0.310435	-0.011554
O10	O	-4.356447	-0.414409	0.185812
O11	O	-4.365193	-0.513019	0.087638
O12	O	-4.195044	-0.212503	0.085945
C13	C	-3.515215	-0.433796	0.214927
C14	C	-3.497874	-0.472439	0.293020
C15	C	-3.500335	-0.388001	0.319985
C16	C	-3.484073	-0.424295	0.393360
C17	C	-3.465335	-0.545025	0.439768
C18	C	-3.462880	-0.629468	0.412798
C19	C	-3.479156	-0.593175	0.339424
C20	C	-3.526308	-0.558715	0.090554
C21	C	-3.515819	-0.678989	0.089555
C22	C	-4.037475	-0.303882	-0.034853
C23	C	-4.034050	-0.265247	-0.112945
C24	C	-4.210114	-0.240060	-0.153179
C25	C	-4.206909	-0.203902	-0.226541
C26	C	-4.027632	-0.192956	-0.259663
C27	C	-3.851544	-0.218141	-0.219419
C28	C	-3.854754	-0.254287	-0.146060
N29	N	-3.895880	-0.205587	-0.366075
N30	N	-3.892844	-0.171252	-0.435763
C31	C	-4.017951	-0.084049	-0.480689
N32	N	-4.146241	-0.032491	-0.453294
N33	N	-4.149284	-0.066834	-0.383599
C34	C	-4.024132	-0.153762	-0.339208
C35	C	-4.190552	-0.019654	-0.600471
C36	C	-4.187339	0.016511	-0.673834
C37	C	-3.831970	0.002260	-0.666710
C38	C	-3.835187	-0.033893	-0.593349
C39	C	-4.014484	-0.044853	-0.560234
C40	C	-4.015730	-0.058709	0.090545
C41	C	-4.026403	-0.178970	0.089528
V42	V	-3.735314	0.118833	0.096115
O43	O	-3.676942	0.275309	0.092480
O44	O	-3.847094	-0.025166	0.094117
O45	O	-3.838394	0.072698	0.191649
O46	O	-3.685702	0.176768	-0.005728
V47	V	-3.236389	0.143477	0.083987
O48	O	-3.507843	0.064794	0.122697
O49	O	-3.013663	0.197523	0.057398
O50	O	-3.347815	0.287473	0.085989
O51	O	-3.177365	-0.012998	0.087620
O52	O	-3.168604	0.085543	0.185828
O53	O	-3.356515	0.189609	-0.011544
C54	C	-4.004644	0.066130	0.214954
C55	C	-4.008060	0.027457	0.293049
C56	C	-3.526922	0.196169	-0.034846
C57	C	-3.544265	0.234845	-0.112941
C58	C	-3.729464	0.245893	-0.146060
C59	C	-3.745789	0.282249	-0.219440
C60	C	-3.576913	0.307549	-0.259699
C61	C	-3.391699	0.296502	-0.226575
C62	C	-3.375377	0.260154	-0.153197
H63	H	-3.452082	-0.574562	0.499511
Br64	Br	-4.426302	0.050720	-0.728443
H65	H	-3.254207	0.317107	-0.259364
Br66	Br	-3.475798	-0.707787	0.302838
Br67	Br	-3.588659	0.017120	-0.711654
H68	H	-3.705575	-0.209225	-0.246392
H69	H	-3.224562	0.251155	-0.126237
H70	H	-3.447625	-0.727769	0.450594
Br71	Br	-3.525760	-0.224144	0.257018
Br72	Br	-3.596229	-0.068072	-0.538742
Br73	Br	-4.453443	-0.254925	-0.108241
H74	H	-4.350285	-0.183384	-0.259307
Br75	Br	-3.615790	-0.288466	-0.091453
Br76	Br	-4.433876	-0.034525	-0.555524
H77	H	-3.866993	0.225296	-0.113291
H78	H	-3.486069	-0.355521	0.415307
H79	H	-3.896614	0.291235	-0.246399
H80	H	-3.590231	0.337145	-0.319447
