data_functionalizedCrystal
_audit_creation_method	'MofGen! by Chris Wilmer'
_symmetry_space_group_name_H-M	'P1'
_symmetry_Int_Tables_number	1
_symmetry_cell_setting	triclinic
loop_
_symmetry_equiv_pos_as_xyz
  x,y,z
_cell_length_a	19.188933
_cell_length_b	9.730223
_cell_length_c	19.188940
_cell_angle_alpha	90.001757
_cell_angle_beta	83.147142
_cell_angle_gamma	89.998779
loop_
_atom_site_label
_atom_site_type_symbol
_atom_site_fract_x
_atom_site_fract_y
_atom_site_fract_z
O1	O	0.926143	0.114245	0.087171
O2	O	1.426143	0.614245	0.587171
O3	O	0.722832	0.114258	0.098903
O4	O	1.222832	0.614258	0.598903
O5	O	0.830351	0.114241	-0.008618
O6	O	1.330351	0.614241	0.491382
O7	O	0.818624	0.114263	0.194692
O8	O	1.318624	0.614263	0.694692
O9	O	0.830350	-0.114339	-0.008615
O10	O	1.330350	0.385661	0.491385
O11	O	0.722831	-0.114322	0.098906
O12	O	1.222831	0.385678	0.598906
O13	O	0.926142	-0.114335	0.087173
O14	O	1.426142	0.385665	0.587173
Zn15	Zn	0.824486	-0.150620	0.093040
Zn16	Zn	1.324486	0.349380	0.593040
Zn17	Zn	0.824488	0.150544	0.093037
Zn18	Zn	1.324488	0.650544	0.593037
O19	O	0.818623	-0.114317	0.194695
O20	O	1.318623	0.385683	0.694695
C21	C	0.696821	-0.000030	0.098525
C22	C	1.196821	0.499970	0.598525
C23	C	0.619316	-0.000025	0.097383
C24	C	1.119316	0.499975	0.597383
N25	N	0.824490	-0.356156	0.093042
N26	N	1.324490	0.143844	0.593042
C27	C	0.066061	0.124558	0.089237
C28	C	0.566061	0.624558	0.589237
C29	C	0.138885	0.124563	0.090305
C30	C	0.638885	0.624563	0.590305
C31	C	0.175302	-0.000035	0.090844
C32	C	0.675302	0.499965	0.590844
C33	C	0.138890	-0.124648	0.090296
C34	C	0.638890	0.375352	0.590296
C35	C	0.066068	-0.124650	0.089221
C36	C	0.566068	0.375350	0.589221
N37	N	0.284323	-0.092775	0.132263
N38	N	0.784323	0.407225	0.632263
N39	N	0.353500	-0.092765	0.133286
N40	N	0.853500	0.407235	0.633286
C41	C	0.394711	-0.000037	0.094081
C42	C	0.894711	0.499963	0.594081
N43	N	0.364129	0.092701	0.053824
N44	N	0.864129	0.592701	0.553824
N45	N	0.294944	0.092695	0.052805
N46	N	0.794944	0.592695	0.552805
C47	C	0.254265	-0.000047	0.092009
C48	C	0.754265	0.499953	0.592009
C49	C	0.510078	0.124574	0.095782
C50	C	1.010078	0.624574	0.595782
C51	C	0.582905	0.124574	0.096846
C52	C	1.082905	0.624574	0.596846
C53	C	0.582907	-0.124641	0.096844
C54	C	1.082907	0.375359	0.596844
C55	C	0.510083	-0.124637	0.095773
C56	C	1.010083	0.375363	0.595773
C57	C	0.473673	-0.000026	0.095246
C58	C	0.973673	0.499974	0.595246
C59	C	0.872112	-0.428090	0.045448
C60	C	1.372112	0.071910	0.545448
C61	C	0.872110	-0.571973	0.045439
C62	C	1.372110	-0.071973	0.545439
C63	C	0.776863	-0.571976	0.140626
C64	C	1.276863	-0.071976	0.640626
C65	C	0.776862	-0.428096	0.140631
C66	C	1.276862	0.071904	0.640631
C67	C	0.919740	-0.356151	-0.002141
C68	C	1.419740	0.143849	0.497859
C69	C	0.967366	-0.428085	-0.049739
C70	C	1.467366	0.071915	0.450261
C71	C	0.967364	-0.571968	-0.049747
C72	C	1.467364	-0.071968	0.450253
C73	C	0.919736	-0.643917	-0.002158
C74	C	1.419736	-0.143917	0.497842
C75	C	0.952153	-0.000043	0.087552
C76	C	1.452153	0.499957	0.587552
C77	C	1.029658	-0.000039	0.088693
C78	C	1.529658	0.499961	0.588693
C79	C	0.829970	-0.000049	-0.034628
C80	C	1.329970	0.499951	0.465372
C81	C	0.828826	-0.000048	-0.112132
C82	C	1.328826	0.499952	0.387868
N83	N	0.824489	0.356080	0.093029
N84	N	1.324489	0.856080	0.593029
C85	C	0.820691	-0.124614	-0.665390
C86	C	1.320691	0.375386	-0.165390
C87	C	0.821758	-0.124622	-0.592565
C88	C	1.321758	0.375378	-0.092565
C89	C	0.822295	-0.000024	-0.556147
C90	C	1.322295	0.499976	-0.056147
C91	C	0.821748	0.124590	-0.592557
C92	C	1.321748	0.624590	-0.092557
C93	C	0.820674	0.124594	-0.665379
C94	C	1.320674	0.624594	-0.165379
N95	N	0.863712	0.092714	-0.447124
N96	N	1.363712	0.592714	0.052876
N97	N	0.864733	0.092701	-0.377946
N98	N	1.364733	0.592701	0.122054
C99	C	0.825529	-0.000029	-0.336738
C100	C	1.325529	0.499971	0.163262
N101	N	0.785273	-0.092768	-0.367322
N102	N	1.285273	0.407232	0.132678
N103	N	0.784254	-0.092759	-0.436507
N104	N	1.284254	0.407241	0.063493
C105	C	0.823459	-0.000015	-0.477184
C106	C	1.323459	0.499985	0.022816
C107	C	0.827228	-0.124644	-0.221371
C108	C	1.327228	0.375356	0.278629
C109	C	0.828290	-0.124647	-0.148545
C110	C	1.328290	0.375353	0.351455
C111	C	0.828287	0.124569	-0.148539
C112	C	1.328287	0.624569	0.351461
C113	C	0.827218	0.124568	-0.221363
C114	C	1.327218	0.624568	0.278637
C115	C	0.826691	-0.000043	-0.257775
C116	C	1.326691	0.499957	0.242225
C117	C	0.819004	-0.000024	0.220704
C118	C	1.319004	0.499976	0.720704
C119	C	0.820148	-0.000016	0.298209
C120	C	1.320148	0.499984	0.798209
H121	H	0.168530	0.226028	0.090751
H122	H	0.668530	0.726028	0.590751
C123	C	0.828889	-0.261711	-0.108503
C124	C	1.328889	0.238289	0.391497
H125	H	0.828429	-0.335918	-0.140622
H126	H	1.328429	0.164082	0.359378
H127	H	0.788602	-0.266906	-0.074648
H128	H	1.288602	0.233094	0.425352
H129	H	0.870019	-0.266880	-0.085544
H130	H	1.370019	0.233120	0.414456
H131	H	0.820230	0.226060	-0.695017
H132	H	1.320230	0.726060	-0.195017
H133	H	0.822183	0.226038	-0.562900
H134	H	1.322183	0.726038	-0.062900
C135	C	0.919729	-0.802185	-0.002168
C136	C	1.419729	-0.302185	0.497832
H137	H	0.884544	-0.834728	0.032989
H138	H	1.384544	-0.334728	0.532989
H139	H	0.964321	-0.834745	0.007275
H140	H	1.464321	-0.334745	0.507275
H141	H	0.910306	-0.834721	-0.046775
H142	H	1.410306	-0.334721	0.453225
C143	C	0.025999	-0.261708	0.088781
C144	C	0.525999	0.238292	0.588781
H145	H	-0.022592	-0.243863	0.088108
H146	H	0.477408	0.256137	0.588108
H147	H	0.032538	-0.312714	0.129709
H148	H	0.532538	0.187286	0.629709
H149	H	0.043317	-0.313096	0.048290
H150	H	0.543317	0.186904	0.548290
C151	C	0.826636	-0.261706	-0.261426
C152	C	1.326636	0.238294	0.238574
H153	H	0.827100	-0.335916	-0.229312
H154	H	1.327100	0.164084	0.270688
H155	H	0.866923	-0.266893	-0.295282
H156	H	1.366923	0.233107	0.204718
H157	H	0.785506	-0.266875	-0.284385
H158	H	1.285506	0.233125	0.215615
H159	H	0.919747	-0.238994	-0.002137
H160	H	1.419747	0.261006	0.497863
H161	H	0.826780	0.226029	-0.251003
H162	H	1.326780	0.726029	0.248997
C163	C	1.019750	-0.348954	-0.102087
C164	C	1.519750	0.151046	0.397913
H165	H	1.048106	-0.412406	-0.130439
H166	H	1.548106	0.087594	0.369561
H167	H	1.048735	-0.292831	-0.077040
H168	H	1.548735	0.207169	0.422960
H169	H	0.994721	-0.292823	-0.131090
H170	H	1.494721	0.207177	0.368910
H171	H	1.006138	-0.630535	-0.088508
H172	H	1.506138	-0.130535	0.411492
C173	C	0.828882	0.261624	-0.108489
C174	C	1.328882	0.761624	0.391511
H175	H	0.829604	0.243778	-0.059905
H176	H	1.329604	0.743778	0.440095
H177	H	0.788002	0.312829	-0.114974
H178	H	1.288002	0.812829	0.385026
H179	H	0.869418	0.312813	-0.125871
H180	H	1.369418	0.812813	0.374129
H181	H	0.738087	-0.630566	0.179372
H182	H	1.238087	-0.130566	0.679372
H183	H	0.738083	-0.369527	0.179386
H184	H	1.238083	0.130473	0.679386
C185	C	0.820102	-0.261679	-0.705438
C186	C	1.320102	0.238321	-0.205438
H187	H	0.820572	-0.335887	-0.673323
H188	H	1.320572	0.164113	-0.173323
H189	H	0.860387	-0.266862	-0.739296
H190	H	1.360387	0.233138	-0.239296
H191	H	0.778970	-0.266857	-0.728394
H192	H	1.278970	0.233143	-0.228394
H193	H	0.036421	0.226026	0.088804
H194	H	0.536421	0.726026	0.588804
H195	H	0.480432	0.226040	0.095350
H196	H	0.980432	0.726040	0.595350
C197	C	0.178944	-0.261703	0.090892
C198	C	0.678944	0.238297	0.590892
H199	H	0.227528	-0.243857	0.091618
H200	H	0.727528	0.256143	0.591618
H201	H	0.172462	-0.312904	0.050010
H202	H	0.672462	0.187096	0.550010
H203	H	0.161560	-0.312895	0.131426
H204	H	0.661560	0.187105	0.631426
C205	C	0.822360	-0.261684	-0.552515
C206	C	1.322360	0.238316	-0.052515
H207	H	0.821896	-0.335895	-0.584632
H208	H	1.321896	0.164105	-0.084632
H209	H	0.782075	-0.266874	-0.518658
H210	H	1.282075	0.233126	-0.018658
H211	H	0.863492	-0.266850	-0.529559
H212	H	1.363492	0.233150	-0.029559
H213	H	0.612557	-0.226091	0.097280
H214	H	1.112557	0.273909	0.597280
H215	H	0.480443	-0.226098	0.095333
H216	H	0.980443	0.273902	0.595333
H217	H	0.612544	0.226040	0.097283
H218	H	1.112544	0.726040	0.597283
