data_functionalizedCrystal
_audit_creation_method	'MofGen! by Chris Wilmer'
_symmetry_space_group_name_H-M	'P1'
_symmetry_Int_Tables_number	1
_symmetry_cell_setting	triclinic
loop_
_symmetry_equiv_pos_as_xyz
  x,y,z
_cell_length_a	11.026607
_cell_length_b	15.944551
_cell_length_c	10.065875
_cell_angle_alpha	98.788968
_cell_angle_beta	79.302338
_cell_angle_gamma	96.042377
loop_
_atom_site_label
_atom_site_type_symbol
_atom_site_fract_x
_atom_site_fract_y
_atom_site_fract_z
O1	O	1.627949	0.342077	-0.113512
O2	O	1.274640	0.302024	-0.113511
O3	O	1.460941	0.201235	-0.113499
O4	O	1.441648	0.442866	-0.113524
O5	O	1.425416	0.220553	0.113487
O6	O	1.239115	0.321342	0.113475
O7	O	1.592424	0.361394	0.113475
Zn8	Zn	1.410129	0.344435	0.149514
Zn9	Zn	1.456935	0.318983	-0.149550
O10	O	1.406123	0.462183	0.113463
C11	C	1.211666	0.304294	-0.000018
C12	C	1.076950	0.282267	-0.000017
C13	C	1.442377	0.179479	-0.000006
C14	C	1.439975	0.085870	-0.000005
C15	C	1.003150	0.343086	-0.000024
C16	C	0.863914	0.320322	-0.000024
C17	C	1.318759	-0.147313	-0.000024
C18	C	1.357533	-0.190296	0.111894
C19	C	1.435632	-0.085514	-0.000015
C20	C	1.392586	-0.209321	-0.111896
C21	C	1.431429	-0.251063	-0.000031
C22	C	1.474424	-0.127256	0.111995
C23	C	1.509476	-0.146286	-0.111896
C24	C	1.548331	-0.189236	0.000049
C25	C	1.438050	0.009855	-0.000005
C26	C	1.429019	-0.346429	-0.000032
C27	C	1.655399	0.359124	-0.000022
C28	C	1.790116	0.381150	-0.000031
C29	C	1.424687	0.483939	-0.000034
C30	C	1.427090	0.577548	-0.000043
N31	N	1.378194	0.361806	0.353617
N32	N	1.488879	0.301607	-0.353654
C33	C	1.445816	0.325021	0.421401
C34	C	1.421248	0.338398	0.578566
H35	H	1.043047	0.412009	-0.000024
H36	H	1.521895	0.283620	0.363081
H37	H	1.357946	-0.244926	-0.206521
O38	O	1.579709	0.252259	0.576799
C39	C	1.694635	0.286755	0.611359
H40	H	1.678677	0.327873	0.715181
H41	H	1.744780	0.327401	0.530941
C42	C	1.793594	0.163487	0.489981
C43	C	1.773994	0.213982	0.617503
H44	H	1.842549	0.118598	0.493765
H45	H	1.716167	0.140247	0.466693
H46	H	1.835376	0.197367	0.422980
H47	H	1.732199	0.180104	0.684498
H48	H	1.851416	0.237215	0.640803
O49	O	1.287498	0.411302	0.423031
C50	C	1.312996	0.494489	0.388232
H51	H	1.375925	0.492604	0.284440
H52	H	1.361023	0.536319	0.468610
C53	C	1.113676	0.533713	0.509327
C54	C	1.190958	0.531397	0.381842
H55	H	1.038398	0.556482	0.505391
H56	H	1.096499	0.477669	0.532777
H57	H	1.153713	0.568570	0.576295
H58	H	1.150927	0.496532	0.314880
H59	H	1.208126	0.587435	0.358380
O60	O	1.330400	0.387678	0.648277
C61	C	1.242461	0.338463	0.730926
H62	H	1.287234	0.281750	0.752185
H63	H	1.161272	0.314676	0.675960
C64	C	1.140603	0.463104	0.840629
C65	C	1.195598	0.393451	0.866749
H66	H	1.111690	0.497023	0.924408
H67	H	1.199846	0.496260	0.784944
H68	H	1.072953	0.443270	0.794821
H69	H	1.263255	0.413285	0.912540
H70	H	1.136365	0.360299	0.922445
O71	O	0.816355	0.238099	0.000223
C72	C	0.837629	0.207889	0.117766
H73	H	0.851196	0.264046	0.199930
H74	H	0.924200	0.171212	0.091189
C75	C	0.708933	0.079603	0.070158
C76	C	0.725586	0.148576	0.171078
H77	H	0.639823	0.043013	0.103042
H78	H	0.694603	0.099954	-0.009036
H79	H	0.781083	0.049049	0.048020
H80	H	0.653443	0.179135	0.193203
H81	H	0.739901	0.128229	0.250277
H82	H	0.830005	0.450078	-0.000029
H83	H	1.037057	0.213342	-0.000045
H84	H	1.221730	-0.128661	0.000088
H85	H	1.508991	-0.091738	0.206717
O86	O	1.280720	-0.213580	0.224671
C87	C	1.159792	-0.192481	0.224295
H88	H	1.148673	-0.187761	0.115385
H89	H	1.143053	-0.128721	0.290623
C90	C	1.078983	-0.267739	0.415170
C91	C	1.065324	-0.261948	0.281403
H92	H	1.020709	-0.310586	0.450403
H93	H	1.160455	-0.281951	0.415428
H94	H	1.065037	-0.214600	0.470426
H95	H	1.079285	-0.315082	0.226146
H96	H	0.983851	-0.247746	0.281138
H97	H	1.573676	-0.126742	-0.206519
H98	H	1.645418	-0.207712	0.000112
