data_functionalizedCrystal
_audit_creation_method	'MofGen! by Chris Wilmer'
_symmetry_space_group_name_H-M	'P1'
_symmetry_Int_Tables_number	1
_symmetry_cell_setting	triclinic
loop_
_symmetry_equiv_pos_as_xyz
  x,y,z
_cell_length_a	17.699083
_cell_length_b	15.538191
_cell_length_c	16.776229
_cell_angle_alpha	89.995703
_cell_angle_beta	89.998886
_cell_angle_gamma	65.277554
loop_
_atom_site_label
_atom_site_type_symbol
_atom_site_fract_x
_atom_site_fract_y
_atom_site_fract_z
O1	O	0.971508	0.119201	-0.066172
O2	O	1.471508	0.619201	0.433828
O3	O	0.746892	0.134709	-0.066198
O4	O	1.246892	0.634709	0.433802
O5	O	0.902923	-0.010275	-0.066184
O6	O	1.402923	0.489725	0.433816
O7	O	0.815476	0.264184	-0.066186
O8	O	1.315476	0.764184	0.433814
O9	O	0.902910	-0.010283	0.066393
O10	O	1.402910	0.489717	0.566393
O11	O	0.746879	0.134700	0.066379
O12	O	1.246879	0.634700	0.566379
O13	O	0.971495	0.119192	0.066404
O14	O	1.471495	0.619192	0.566404
Zn15	Zn	0.859185	0.126945	0.087441
Zn16	Zn	1.359185	0.626945	0.587441
Zn17	Zn	0.859202	0.126956	-0.087235
Zn18	Zn	1.359202	0.626956	0.412765
O19	O	0.815463	0.264176	0.066390
O20	O	1.315463	0.764176	0.566390
C21	C	0.718840	0.134149	0.000087
C22	C	1.218840	0.634149	0.500087
C23	C	0.635277	0.132482	0.000077
C24	C	1.135277	0.632482	0.500077
C25	C	0.912066	-0.045395	0.000103
C26	C	1.412066	0.454605	0.500103
C27	C	0.939318	-0.150032	0.000098
C28	C	1.439318	0.349968	0.500098
C29	C	0.563403	0.217584	0.000077
C30	C	1.063403	0.717584	0.500077
C31	C	0.484889	0.216012	0.000087
C32	C	0.984889	0.716012	0.500087
C33	C	0.478252	0.129337	0.000092
C34	C	0.978252	0.629337	0.500092
C35	C	0.550134	0.044228	0.000095
C36	C	1.050134	0.544228	0.500095
C37	C	0.628646	0.045801	0.000090
C38	C	1.128646	0.545801	0.500090
C39	C	0.233505	0.037882	0.000115
C40	C	0.733505	0.537882	0.500115
C41	C	0.154985	0.036316	0.000117
C42	C	0.654985	0.536316	0.500117
C43	C	0.089748	0.208094	0.000111
C44	C	0.589748	0.708094	0.500111
C45	C	0.168260	0.209667	0.000107
C46	C	0.668260	0.709667	0.500107
C47	C	0.240135	0.124558	0.000114
C48	C	0.740135	0.624558	0.500114
C49	C	0.325269	0.126264	0.000104
C50	C	0.825269	0.626264	0.500104
C51	C	0.393120	0.127630	0.000096
C52	C	0.893120	0.627630	0.500096
C53	C	0.668571	-0.437202	0.000084
C54	C	1.168571	0.062798	0.500084
C55	C	0.694198	-0.535527	0.000089
C56	C	1.194198	-0.035527	0.500089
C57	C	0.838344	-0.558300	0.000105
C58	C	1.338344	-0.058300	0.500105
C59	C	0.812729	-0.459975	0.000096
C60	C	1.312729	0.040025	0.500096
C61	C	0.727842	-0.399434	0.000087
C62	C	1.227842	0.100566	0.500087
C63	C	0.872000	-0.422207	0.000099
C64	C	1.372000	0.077793	0.500099
C65	C	0.846387	-0.323891	0.000095
C66	C	1.346387	0.176109	0.500095
C67	C	0.761503	-0.263343	0.000087
C68	C	1.261503	0.236657	0.500087
C69	C	0.702229	-0.301118	0.000082
C70	C	1.202229	0.198882	0.500082
C71	C	0.956887	-0.482750	0.000114
C72	C	1.456887	0.017250	0.500114
C73	C	1.016158	-0.444981	0.000117
C74	C	1.516158	0.055019	0.500117
C75	C	0.990545	-0.346663	0.000107
C76	C	1.490545	0.153337	0.500107
C77	C	0.905661	-0.286116	0.000100
C78	C	1.405661	0.213884	0.500100
C79	C	1.049819	-0.308889	0.000112
C80	C	1.549819	0.191111	0.500112
C81	C	1.024206	-0.210573	0.000107
C82	C	1.524206	0.289427	0.500107
C83	C	0.880048	-0.187800	0.000095
C84	C	1.380048	0.312200	0.500095
C85	C	0.999546	0.119752	0.000117
C86	C	1.499546	0.619752	0.500117
C87	C	1.083109	0.121419	0.000122
C88	C	1.583109	0.621419	0.500122
C89	C	0.806321	0.299297	0.000102
C90	C	1.306321	0.799297	0.500102
C91	C	0.779068	0.403933	0.000101
C92	C	1.279068	0.903933	0.500101
N93	N	0.859179	0.126936	0.206652
N94	N	1.359179	0.626936	0.706652
N95	N	0.859216	0.126957	-0.206446
N96	N	1.359216	0.626957	0.293554
C97	C	0.928278	0.062764	0.248375
C98	C	1.428278	0.562764	0.748375
C99	C	0.928282	0.062763	0.331827
C100	C	1.428282	0.562763	0.831827
C101	C	0.859189	0.126940	0.373555
C102	C	1.359189	0.626940	0.873555
C103	C	0.790084	0.191115	0.331826
C104	C	1.290084	0.691115	0.831826
C105	C	0.790078	0.191111	0.248375
C106	C	1.290078	0.691111	0.748375
C107	C	0.790106	0.191134	0.668373
C108	C	1.290106	0.691134	1.168373
C109	C	0.790118	0.191135	0.751829
C110	C	1.290118	0.691135	1.251829
C111	C	0.928310	0.062786	0.751825
C112	C	1.428310	0.562786	1.251825
C113	C	0.928304	0.062781	0.668375
C114	C	1.428304	0.562781	1.168375
C115	C	0.859198	0.126953	0.626653
C116	C	1.359198	0.626953	1.126653
C117	C	0.859193	0.126952	0.536164
C118	C	1.359193	0.626952	1.036164
C119	C	0.859195	0.126946	0.464042
C120	C	1.359195	0.626946	0.964042
H121	H	0.568797	0.288165	0.000072
H122	H	1.068797	0.788165	0.500072
Br123	Br	0.953545	-0.640470	0.000127
Br124	Br	1.453545	-0.140470	0.500127
H125	H	0.733851	0.243398	0.785803
H126	H	1.233851	0.743398	1.285803
Br127	Br	1.022100	-0.024308	0.808451
Br128	Br	1.522100	0.475692	1.308451
H129	H	0.031216	0.277393	0.000110
H130	H	0.531216	0.777393	0.500110
Br131	Br	0.587023	-0.218945	0.000058
Br132	Br	1.087023	0.281055	0.500058
Br133	Br	1.165019	-0.391062	0.000144
Br134	Br	1.665019	0.108938	0.500144
H135	H	0.733838	0.243386	0.634410
H136	H	1.233838	0.743386	1.134410
Br137	Br	1.131358	-0.527152	0.000139
Br138	Br	1.631358	-0.027152	0.500139
H139	H	0.984568	0.010526	0.634403
H140	H	1.484568	0.510526	1.134403
H141	H	0.599448	-0.387905	0.000070
H142	H	1.099448	0.112095	0.500070
H143	H	0.645927	-0.566272	0.000098
H144	H	1.145927	-0.066272	0.500098
H145	H	0.426369	0.285311	0.000086
H146	H	0.926369	0.785311	0.500086
Br147	Br	0.696293	0.278200	0.191750
Br148	Br	1.196293	0.778200	0.691750
Br149	Br	0.177262	0.327301	0.000092
Br150	Br	0.677262	0.827301	0.500092
Br151	Br	0.145981	-0.081323	0.000122
Br152	Br	0.645981	0.418677	0.500122
H153	H	1.072470	-0.179822	0.000111
H154	H	1.572470	0.320178	0.500111
Br155	Br	0.331041	-0.077622	0.000126
Br156	Br	0.831041	0.422378	0.500126
Br157	Br	1.022056	-0.024332	0.191754
Br158	Br	1.522056	0.475668	0.691754
Br159	Br	0.726738	-0.129912	0.000092
Br160	Br	1.226738	0.370088	0.500092
H161	H	0.544725	-0.026345	0.000111
H162	H	1.044725	0.473655	0.500111
H163	H	0.733824	0.243366	0.365805
H164	H	1.233824	0.743366	0.865805
Br165	Br	1.022059	-0.024333	0.388455
Br166	Br	1.522059	0.475667	0.888455
H167	H	0.810924	-0.138503	0.000082
H168	H	1.310924	0.361497	0.500082
H169	H	0.687169	-0.023498	0.000090
H170	H	1.187169	0.476502	0.500090
H171	H	0.977738	-0.562804	0.000111
H172	H	1.477738	-0.062804	0.500111
