data_functionalizedCrystal
_audit_creation_method	'MofGen! by Chris Wilmer'
_symmetry_space_group_name_H-M	'P1'
_symmetry_Int_Tables_number	1
_symmetry_cell_setting	triclinic
loop_
_symmetry_equiv_pos_as_xyz
  x,y,z
_cell_length_a	13.032127
_cell_length_b	12.827893
_cell_length_c	12.827885
_cell_angle_alpha	89.978811
_cell_angle_beta	97.216231
_cell_angle_gamma	82.811319
loop_
_atom_site_label
_atom_site_type_symbol
_atom_site_fract_x
_atom_site_fract_y
_atom_site_fract_z
Zn1	Zn	-0.416108	-1.544849	0.537998
Zn2	Zn	0.083892	-1.044849	1.037998
Zn3	Zn	-0.590917	-1.522553	0.341032
Zn4	Zn	-0.090917	-1.022553	0.841032
Zn5	Zn	-0.416153	-1.370085	0.363260
Zn6	Zn	0.083847	-0.870085	0.863260
Zn7	Zn	-0.590834	-1.347896	0.515737
Zn8	Zn	-0.090834	-0.847896	1.015737
O9	O	-0.503503	-1.446346	0.439507
O10	O	-0.003503	-0.946346	0.939507
O11	O	-0.439312	-1.688126	0.511884
O12	O	0.060688	-1.188126	1.011884
O13	O	-0.567788	-1.502283	0.197738
O14	O	-0.067788	-1.002283	0.697738
O15	O	-0.269885	-1.411885	0.405057
O16	O	0.230115	-0.911885	0.905057
O17	O	-0.567744	-1.671745	0.367174
O18	O	-0.067744	-1.171745	0.867174
O19	O	-0.269851	-1.540283	0.533436
O20	O	0.230149	-1.040283	1.033436
O21	O	-0.439390	-1.390265	0.214068
O22	O	0.060610	-0.890265	0.714068
O23	O	-0.439309	-1.220907	0.383472
O24	O	0.060691	-0.720907	0.883472
O25	O	-0.567602	-1.374067	0.664933
O26	O	-0.067602	-0.874067	1.164933
O27	O	-0.567646	-1.204606	0.495497
O28	O	-0.067646	-0.704606	0.995497
O29	O	-0.439232	-1.518768	0.681288
O30	O	0.060768	-1.018768	1.181288
O31	O	-0.737169	-1.480768	0.345589
O32	O	-0.237169	-0.980768	0.845589
O33	O	-0.737108	-1.352448	0.473944
O34	O	-0.237108	-0.852448	0.973944
C35	C	-0.503475	-1.174840	0.439481
C36	C	-0.003475	-0.674840	0.939481
C37	C	-0.503488	-1.058685	0.439492
C38	C	-0.003488	-0.558685	0.939492
C39	C	-0.440046	-1.014992	0.511182
C40	C	0.059954	-0.514992	1.011182
C41	C	-0.440058	-0.894940	0.511195
C42	C	0.059942	-0.394940	1.011195
C43	C	-0.775062	-1.411809	0.404962
C44	C	-0.275062	-0.911809	0.904962
C45	C	-0.891236	-1.397130	0.390218
C46	C	-0.391236	-0.897130	0.890218
C47	C	-1.063008	-1.438895	0.431991
C48	C	-0.563008	-0.938895	0.931991
C49	C	-0.942935	-1.454076	0.447232
C50	C	-0.442935	-0.954076	0.947232
C51	C	-0.230883	-1.481046	0.474209
C52	C	0.269117	-0.981046	0.974209
C53	C	-0.114709	-1.495833	0.488997
C54	C	0.385291	-0.995833	0.988997
C55	C	-0.503403	-1.446430	0.712090
C56	C	-0.003403	-0.946430	1.212090
C57	C	-0.503360	-1.446465	0.828248
C58	C	-0.003360	-0.946465	1.328248
C59	C	-0.503524	-0.718913	0.439525
C60	C	-0.003524	-0.218913	0.939525
C61	C	-0.503511	-0.835068	0.439515
C62	C	-0.003511	-0.335068	0.939515
C63	C	-0.503528	-1.446332	0.167994
C64	C	-0.003528	-0.946332	0.667994
C65	C	-0.503276	-1.446536	0.051873
C66	C	-0.003276	-0.946536	0.551873
C67	C	-0.439826	-1.518076	0.888128
C68	C	0.060174	-1.018076	1.388128
C69	C	-0.439780	-1.518115	1.008184
C70	C	0.060220	-1.018115	1.508184
H71	H	-0.557834	-0.872667	0.378140
H72	H	-0.057834	-0.372667	0.878140
N73	N	-0.367721	-1.599335	1.076333
N74	N	0.132279	-1.099335	1.576333
H75	H	-0.410223	-1.642327	1.116214
H76	H	0.089777	-1.142327	1.616214
H77	H	-0.319315	-1.562928	1.127716
H78	H	0.180685	-1.062928	1.627716
N79	N	-0.575440	-0.990512	0.358197
N80	N	-0.075440	-0.490512	0.858197
H81	H	-0.623889	-0.939088	0.394467
H82	H	-0.123889	-0.439088	0.894467
H83	H	-0.617706	-1.036236	0.310373
H84	H	-0.117706	-0.536236	0.810373
H85	H	-1.107637	-1.378906	0.371907
H86	H	-0.607637	-0.878906	0.871907
N87	N	-1.055607	-1.575285	0.568603
N88	N	-0.555607	-1.075285	1.068603
H89	H	-0.978209	-1.574864	0.568210
H90	H	-0.478209	-1.074864	1.068210
H91	H	-1.074586	-1.647547	0.550018
H92	H	-0.574586	-1.147547	1.050018
H93	H	-0.385462	-1.579353	0.850512
H94	H	0.114538	-1.079353	1.350512
H95	H	-0.898311	-1.514061	0.507329
H96	H	-0.398311	-1.014061	1.007329
N97	N	-0.950344	-1.317670	0.310616
N98	N	-0.450344	-0.817670	0.810616
H99	H	-0.931443	-1.336316	0.238348
H100	H	-0.431443	-0.836316	0.738348
H101	H	-0.931423	-1.245398	0.329248
H102	H	-0.431423	-0.745398	0.829248
H103	H	-0.557677	-1.385228	1.000415
H104	H	-0.057677	-0.885228	1.500415
N105	N	-0.575365	-1.365294	0.878076
N106	N	-0.075365	-0.865294	1.378076
H107	H	-0.650072	-1.371990	0.849634
H108	H	-0.150072	-0.871990	1.349634
H109	H	-0.559060	-1.292708	0.861184
H110	H	-0.059060	-0.792708	1.361184
N111	N	-0.368103	-1.083154	0.592491
N112	N	0.131897	-0.583154	1.092491
H113	H	-0.378302	-1.159252	0.580966
H114	H	0.121698	-0.659252	1.080966
H115	H	-0.384469	-1.062075	0.665027
H116	H	0.115531	-0.562075	1.165027
N117	N	-0.368114	-0.845138	0.592506
N118	N	0.131886	-0.345138	1.092506
H119	H	-0.378322	-0.766437	0.580991
H120	H	0.121678	-0.266437	1.080991
H121	H	-0.293428	-0.873643	0.585879
H122	H	0.206572	-0.373643	1.085879
