data_functionalizedCrystal
_audit_creation_method	'MofGen! by Chris Wilmer'
_symmetry_space_group_name_H-M	'P1'
_symmetry_Int_Tables_number	1
_symmetry_cell_setting	triclinic
loop_
_symmetry_equiv_pos_as_xyz
  x,y,z
_cell_length_a	18.215407
_cell_length_b	16.959454
_cell_length_c	18.215399
_cell_angle_alpha	90.023696
_cell_angle_beta	90.019833
_cell_angle_gamma	90.020523
loop_
_atom_site_label
_atom_site_type_symbol
_atom_site_fract_x
_atom_site_fract_y
_atom_site_fract_z
Zn1	Zn	1.125097	-0.314680	0.416138
Zn2	Zn	1.625097	0.185320	0.916138
Zn3	Zn	1.125015	-0.446866	0.293080
Zn4	Zn	1.625015	0.053134	0.793080
Zn5	Zn	1.002029	-0.314706	0.293085
Zn6	Zn	1.502029	0.185294	0.793085
Zn7	Zn	1.002005	-0.446822	0.416105
Zn8	Zn	1.502005	0.053178	0.916105
O9	O	1.063537	-0.380768	0.354602
O10	O	1.563537	0.119232	0.854602
O11	O	1.228070	-0.332222	0.399825
O12	O	1.728070	0.167778	0.899825
O13	O	1.108677	-0.429364	0.190097
O14	O	1.608677	0.070636	0.690097
O15	O	1.018398	-0.204092	0.309424
O16	O	1.518398	0.295908	0.809424
O17	O	1.228010	-0.429339	0.309416
O18	O	1.728010	0.070661	0.809416
O19	O	1.108815	-0.204073	0.399830
O20	O	1.608815	0.295927	0.899830
O21	O	1.018319	-0.332267	0.190100
O22	O	1.518319	0.167733	0.690100
O23	O	0.899042	-0.332224	0.309392
O24	O	1.399042	0.167776	0.809392
O25	O	1.018358	-0.429264	0.519094
O26	O	1.518358	0.070736	1.019094
O27	O	0.899024	-0.429289	0.399775
O28	O	1.399024	0.070711	0.899775
O29	O	1.108792	-0.332180	0.519118
O30	O	1.608792	0.167820	1.019118
O31	O	1.108654	-0.557471	0.309385
O32	O	1.608654	-0.057471	0.809385
O33	O	1.018279	-0.557438	0.399770
O34	O	1.518279	-0.057438	0.899770
C35	C	0.872330	-0.380755	0.354581
C36	C	1.372330	0.119245	0.854581
C37	C	0.790531	-0.380768	0.354589
C38	C	1.290531	0.119232	0.854589
C39	C	1.063475	-0.586135	0.354590
C40	C	1.563475	-0.086135	0.854590
C41	C	1.063516	-0.673991	0.354609
C42	C	1.563516	-0.173991	0.854609
C43	C	0.602348	-0.431389	0.401593
C44	C	1.102348	0.068611	0.901593
C45	C	0.525489	-0.431392	0.401602
C46	C	1.025489	0.068608	0.901602
C47	C	0.525478	-0.330162	0.307628
C48	C	1.025478	0.169838	0.807628
C49	C	0.602335	-0.330156	0.307623
C50	C	1.102335	0.169844	0.807623
C51	C	0.640768	-0.380774	0.354604
C52	C	1.140768	0.119226	0.854604
C53	C	0.487052	-0.380782	0.354618
C54	C	0.987052	0.119218	0.854618
C55	C	0.403718	-0.380785	0.354628
C56	C	0.903718	0.119215	0.854628
C57	C	0.724107	-0.380771	0.354596
C58	C	1.224107	0.119229	0.854596
C59	C	1.016547	-1.045480	0.401661
C60	C	1.516547	-0.545480	0.901661
C61	C	1.110731	-1.045454	0.307618
C62	C	1.610731	-0.545454	0.807618
C63	C	1.110706	-0.962908	0.307611
C64	C	1.610706	-0.462908	0.807611
C65	C	1.063599	-0.921644	0.354629
C66	C	1.563599	-0.421644	0.854629
C67	C	1.016518	-0.962926	0.401654
C68	C	1.516518	-0.462926	0.901654
C69	C	1.157781	-0.921619	0.260582
C70	C	1.657781	-0.421619	0.760582
C71	C	1.157756	-0.839068	0.260573
C72	C	1.657756	-0.339068	0.760573
C73	C	1.110653	-0.797803	0.307595
C74	C	1.610653	-0.297803	0.807595
C75	C	1.063570	-0.839091	0.354622
C76	C	1.563570	-0.339091	0.854622
C77	C	1.016464	-0.797827	0.401640
C78	C	1.516464	-0.297827	0.901640
C79	C	0.969384	-0.839113	0.448672
C80	C	1.469384	-0.339113	0.948672
C81	C	0.969414	-0.921661	0.448676
C82	C	1.469414	-0.421661	0.948676
C83	C	1.110623	-0.715255	0.307591
C84	C	1.610623	-0.215255	0.807591
C85	C	1.016435	-0.715273	0.401634
C86	C	1.516435	-0.215273	0.901634
C87	C	1.255489	-0.380783	0.354624
C88	C	1.755489	0.119217	0.854624
C89	C	1.337288	-0.380789	0.354633
C90	C	1.837288	0.119211	0.854633
C91	C	1.063581	-0.380714	0.546555
C92	C	1.563581	0.119286	1.046555
C93	C	1.063601	-0.380691	0.628354
C94	C	1.563601	0.119309	1.128354
C95	C	1.063619	-0.174600	0.354631
C96	C	1.563619	0.325400	0.854631
C97	C	1.063653	-0.086744	0.354643
C98	C	1.563653	0.413256	0.854643
C99	C	1.063534	-0.380766	0.163396
C100	C	1.563534	0.119234	0.663396
C101	C	1.063658	-0.380566	0.081597
C102	C	1.563658	0.119434	0.581597
C103	C	1.110707	-0.330092	0.816562
C104	C	1.610707	0.169908	1.316562
C105	C	1.110716	-0.330069	0.893420
C106	C	1.610716	0.169931	1.393420
C107	C	1.016546	-0.431167	0.893384
C108	C	1.516546	0.068833	1.393384
C109	C	1.016534	-0.431186	0.816527
C110	C	1.516534	0.068814	1.316527
C111	C	1.063619	-0.380649	0.778118
C112	C	1.563619	0.119351	1.278118
C113	C	1.063639	-0.380608	0.931834
C114	C	1.563639	0.119392	1.431834
C115	C	1.063649	-0.380583	1.015168
C116	C	1.563649	0.119417	1.515168
C117	C	1.063609	-0.380672	0.694779
C118	C	1.563609	0.119328	1.194779
H119	H	0.633638	-0.472604	0.439850
H120	H	1.133638	0.027396	0.939850
O121	O	1.156386	-0.280981	0.930878
O122	O	1.656386	0.219019	1.430878
C123	C	1.146313	-0.291808	1.006951
C124	C	1.646313	0.208192	1.506951
H125	H	1.089511	-0.317693	1.017433
H126	H	1.589511	0.182307	1.517433
H127	H	1.151326	-0.232591	1.036168
H128	H	1.651326	0.267409	1.536168
H129	H	1.189954	-0.333892	1.028768
H130	H	1.689954	0.166108	1.528768
H131	H	0.931026	-0.805506	0.486951
H132	H	1.431026	-0.305506	0.986951
H133	H	0.494211	-0.472606	0.439866
H134	H	0.994211	0.027394	0.939866
H135	H	0.978214	-0.472314	0.924667
H136	H	1.478214	0.027686	1.424667
O137	O	0.970894	-0.480340	0.779096
O138	O	1.470894	0.019660	1.279096
C139	C	1.012769	-0.531415	0.734650
C140	C	1.512769	-0.031415	1.234650
H141	H	1.068550	-0.503542	0.723156
H142	H	1.568550	-0.003542	1.223156
H143	H	0.982783	-0.542016	0.680595
H144	H	1.482783	-0.042016	1.180595
H145	H	1.020837	-0.589987	0.764259
H146	H	1.520837	-0.089987	1.264259
O147	O	0.488028	-0.281070	0.262015
O148	O	0.988028	0.218930	0.762015
C149	C	0.411953	-0.291913	0.272107
C150	C	0.911953	0.208087	0.772107
H151	H	0.401448	-0.352948	0.296112
H152	H	0.901448	0.147052	0.796112
H153	H	0.382721	-0.286475	0.216994
H154	H	0.882721	0.213525	0.716994
H155	H	0.390172	-0.245085	0.311375
H156	H	0.890172	0.254915	0.811375
H157	H	0.931084	-0.955284	0.486966
H158	H	1.431084	-0.455284	0.986966
H159	H	0.633617	-0.288934	0.269359
H160	H	1.133617	0.211066	0.769359
H161	H	0.978077	-0.681682	0.439924
H162	H	1.478077	-0.181682	0.939924
H163	H	0.978218	-1.079098	0.439955
H164	H	1.478218	-0.579098	0.939955
H165	H	1.149079	-1.079055	0.269334
H166	H	1.649079	-0.579055	0.769334
H167	H	1.196127	-0.955222	0.222297
H168	H	1.696127	-0.455222	0.722297
H169	H	1.196091	-0.805459	0.222279
H170	H	1.696091	-0.305459	0.722279
H171	H	1.148950	-0.681644	0.269295
H172	H	1.648950	-0.181644	0.769295
H173	H	1.149044	-0.288940	0.785291
H174	H	1.649044	0.211060	1.285291
