data_functionalizedCrystal
_audit_creation_method	'MofGen! by Chris Wilmer'
_symmetry_space_group_name_H-M	'P1'
_symmetry_Int_Tables_number	1
_symmetry_cell_setting	triclinic
loop_
_symmetry_equiv_pos_as_xyz
  x,y,z
_cell_length_a	17.640112
_cell_length_b	29.839131
_cell_length_c	29.839125
_cell_angle_alpha	89.982291
_cell_angle_beta	101.180576
_cell_angle_gamma	101.266684
loop_
_atom_site_label
_atom_site_type_symbol
_atom_site_fract_x
_atom_site_fract_y
_atom_site_fract_z
Zn1	Zn	1.208283	-0.039898	-0.115400
Zn2	Zn	1.208163	-0.115023	-0.040283
Zn3	Zn	1.076114	-0.055101	-0.055444
Zn4	Zn	1.076022	-0.130219	-0.130543
O5	O	1.142146	-0.085060	-0.085417
O6	O	1.318882	-0.037141	-0.092753
O7	O	1.190635	-0.107078	0.020572
O8	O	1.093735	0.009793	-0.063404
O9	O	1.318794	-0.092336	-0.037565
O10	O	1.190839	0.020963	-0.107453
O11	O	1.093619	-0.063053	0.009433
O12	O	0.965487	-0.077788	-0.078088
O13	O	1.093578	-0.118234	-0.191400
O14	O	0.965420	-0.132976	-0.133263
O15	O	1.190750	-0.051875	-0.180274
O16	O	1.190546	-0.179916	-0.052249
O17	O	1.093463	-0.191080	-0.118563
C18	C	0.936772	-0.108681	-0.108964
C19	C	0.848913	-0.118797	-0.119048
C20	C	0.560020	-0.008204	-0.008813
C21	C	0.477462	-0.017718	-0.018295
C22	C	0.477446	-0.075265	-0.075649
C23	C	0.560005	-0.065754	-0.066174
C24	C	0.601286	-0.032223	-0.032755
C25	C	0.601271	-0.089773	-0.090116
C26	C	0.683823	-0.080264	-0.080640
C27	C	0.725109	-0.046736	-0.047221
C28	C	0.683838	-0.022714	-0.023279
C29	C	0.559990	-0.123306	-0.123533
C30	C	0.601255	-0.147325	-0.147475
C31	C	0.683809	-0.137814	-0.138001
C32	C	0.725095	-0.104286	-0.104583
C33	C	0.725081	-0.161836	-0.161944
C34	C	0.807632	-0.152327	-0.152467
C35	C	0.807647	-0.094777	-0.095106
C36	C	1.142003	-0.201799	-0.085411
C37	C	1.142014	-0.251732	-0.085416
C38	C	1.192789	-0.555524	-0.050919
C39	C	1.192886	-0.743186	-0.050926
O40	O	1.235944	-0.762489	-0.021591
N41	N	1.142309	-0.772483	-0.085432
C42	C	1.091708	-0.754862	-0.119942
O43	O	1.048697	-0.784087	-0.149295
C44	C	1.091615	-0.567201	-0.119937
C45	C	1.142190	-0.537906	-0.085425
C46	C	1.243360	-0.526230	-0.016411
C47	C	1.243332	-0.479318	-0.016408
C48	C	1.192733	-0.461700	-0.050914
C49	C	1.142162	-0.490994	-0.085423
C50	C	1.041018	-0.549580	-0.154448
C51	C	1.041001	-0.502661	-0.154444
C52	C	1.091576	-0.473366	-0.119932
C53	C	1.091535	-0.426464	-0.119926
N54	N	1.142112	-0.397166	-0.085419
C55	C	1.192711	-0.414785	-0.050913
C56	C	1.091759	-0.853387	-0.119941
C57	C	1.091782	-0.900302	-0.119942
C58	C	1.192961	-0.888623	-0.050926
C59	C	1.192934	-0.841707	-0.050924
C60	C	1.142336	-0.824090	-0.085435
C61	C	1.192648	-0.316266	-0.050910
C62	C	1.192613	-0.269350	-0.050910
C63	C	1.091437	-0.281034	-0.119927
C64	C	1.091468	-0.327945	-0.119926
C65	C	1.142080	-0.345560	-0.085416
O66	O	1.048506	-0.407129	-0.149248
O67	O	1.235728	-0.385551	-0.021570
C68	C	1.192817	-0.602437	-0.050922
C69	C	1.142246	-0.631731	-0.085430
C70	C	1.091647	-0.614113	-0.119936
C71	C	1.142268	-0.678646	-0.085431
C72	C	1.192867	-0.696264	-0.050925
C73	C	1.243444	-0.666967	-0.016419
C74	C	1.243416	-0.620055	-0.016416
C75	C	1.041070	-0.643410	-0.154443
C76	C	1.041101	-0.690322	-0.154443
C77	C	1.091700	-0.707940	-0.119937
C78	C	1.348321	-0.061348	-0.061779
C79	C	1.436180	-0.051243	-0.051705
C80	C	1.142167	-0.085054	-0.202593
C81	C	1.142176	-0.085051	-0.252527
C82	C	1.142310	0.032137	-0.085431
C83	C	1.142381	0.082080	-0.085436
C84	C	1.192826	-0.050417	-0.556374
C85	C	1.192866	-0.050374	-0.744042
O86	O	1.235872	-0.020976	-0.763386
N87	N	1.142281	-0.084919	-0.773300
C88	C	1.091679	-0.119475	-0.755638
O89	O	1.048649	-0.148853	-0.784830
C90	C	1.091637	-0.119515	-0.567971
C91	C	1.142230	-0.084971	-0.538715
C92	C	1.243415	-0.015875	-0.527118
C93	C	1.243408	-0.015887	-0.480204
C94	C	1.192812	-0.050442	-0.462545
C95	C	1.142223	-0.084983	-0.491800
C96	C	1.041031	-0.154069	-0.550310
C97	C	1.041024	-0.154076	-0.503390
C98	C	1.091617	-0.119531	-0.474134
C99	C	1.091619	-0.119550	-0.427226
N100	N	1.142204	-0.085005	-0.397969
C101	C	1.192800	-0.050451	-0.415628
C102	C	1.091706	-0.119451	-0.854166
C103	C	1.091718	-0.119442	-0.901082
C104	C	1.192903	-0.050340	-0.889483
C105	C	1.192895	-0.050352	-0.842566
C106	C	1.142291	-0.084907	-0.824908
C107	C	1.192782	-0.050480	-0.317104
C108	C	1.192772	-0.050497	-0.270186
C109	C	1.091584	-0.119596	-0.281789
C110	C	1.091596	-0.119581	-0.328703
C111	C	1.142198	-0.085019	-0.346359
O112	O	1.048630	-0.148930	-0.407852
O113	O	1.235812	-0.021071	-0.386430
C114	C	1.192834	-0.050404	-0.603288
C115	C	1.142245	-0.084946	-0.632544
C116	C	1.091649	-0.119500	-0.614885
C117	C	1.142256	-0.084936	-0.679461
C118	C	1.192852	-0.050382	-0.697120
C119	C	1.243437	-0.015838	-0.667862
C120	C	1.243430	-0.015850	-0.620948
C121	C	1.041064	-0.154045	-0.644142
C122	C	1.041076	-0.154030	-0.691057
C123	C	1.091672	-0.119476	-0.708716
C124	C	1.142170	-0.085029	0.031308
C125	C	1.142314	-0.084888	0.081259
H126	H	1.233797	-0.245500	-0.022805
H127	H	1.233863	-0.330601	-0.022809
C128	C	1.248555	-0.012328	-0.908918
N129	N	1.290465	0.016303	-0.923558
C130	C	1.298962	-0.447100	0.021561
N131	N	1.340864	-0.422837	0.050162
C132	C	0.555838	-0.184207	-0.184236
N133	N	0.521630	-0.211986	-0.211926
H134	H	1.284599	-0.596206	0.011687
H135	H	0.999806	-0.182211	-0.489018
C136	C	1.035946	-0.157584	-0.360885
N137	N	0.994023	-0.186206	-0.385122
H138	H	0.691458	-0.189140	-0.189150
C139	C	1.036067	-0.157446	-0.933258
N140	N	0.994144	-0.186070	-0.957493
H141	H	1.050392	-0.147731	-0.267402
C142	C	1.299089	0.022174	-0.687297
N143	N	1.340999	0.050805	-0.701938
H144	H	0.841232	-0.171886	-0.171964
H145	H	0.841260	-0.067466	-0.067900
C146	C	0.432029	-0.112147	-0.112410
N147	N	0.397821	-0.139926	-0.140100
C148	C	0.985460	-0.722541	-0.192411
N149	N	0.943556	-0.746807	-0.221009
H150	H	1.050554	-0.839047	-0.148045
C151	C	1.036035	-0.157467	-0.834749
N152	N	0.994104	-0.186102	-0.820127
C153	C	1.299054	0.022120	-0.448029
N154	N	1.340966	0.050750	-0.423798
H155	H	1.284568	-0.540569	0.011689
C156	C	0.985338	-0.483285	-0.192410
N157	N	0.943411	-0.468693	-0.221005
C158	C	0.605433	0.028684	0.027948
N159	N	0.639638	0.056465	0.055636
H160	H	1.234161	-0.902975	-0.022830
H161	H	1.234117	-0.817858	-0.022822
H162	H	1.050289	-0.351798	-0.148029
H163	H	0.492770	-0.131047	-0.131247
C164	C	1.036138	-0.932522	-0.157904
N165	N	0.994228	-0.956789	-0.186500
H166	H	1.233975	-0.022366	-0.246367
H167	H	1.284628	0.012280	-0.597131
H168	H	0.999831	-0.573425	-0.182549
C169	C	0.815920	-0.036275	-0.036798
N170	N	0.884318	-0.028395	-0.028949
C171	C	1.035784	-0.261644	-0.157883
N172	N	0.993870	-0.247038	-0.186474
C173	C	1.299102	-0.686356	0.021539
N174	N	1.341024	-0.700962	0.050125
C175	C	0.985367	-0.192068	-0.582483
N176	N	0.943434	-0.220691	-0.606715
H177	H	0.999878	-0.182164	-0.714873
H178	H	0.443867	0.001847	0.001201
H179	H	0.999867	-0.629069	-0.182543
H180	H	0.717450	0.004597	0.003928
H181	H	1.233984	-0.022335	-0.331474
H182	H	1.284617	0.012266	-0.541491
C183	C	1.248546	-0.012348	-0.810389
N184	N	1.290462	0.016279	-0.786155
H185	H	0.999862	-0.182184	-0.629770
