data_functionalizedCrystal
_audit_creation_method	'MofGen! by Chris Wilmer'
_symmetry_space_group_name_H-M	'P1'
_symmetry_Int_Tables_number	1
_symmetry_cell_setting	triclinic
loop_
_symmetry_equiv_pos_as_xyz
  x,y,z
_cell_length_a	21.606444
_cell_length_b	14.560438
_cell_length_c	14.560438
_cell_angle_alpha	59.996306
_cell_angle_beta	90.001237
_cell_angle_gamma	60.001889
loop_
_atom_site_label
_atom_site_type_symbol
_atom_site_fract_x
_atom_site_fract_y
_atom_site_fract_z
Zr1	Zr	0.596238	1.005315	-0.120577
O2	O	0.497413	1.196926	-0.267240
O3	O	0.626533	0.813706	-0.075608
O4	O	0.626532	1.005318	-0.267225
O5	O	0.497415	1.005312	0.075517
O6	O	0.728384	1.005318	-0.267223
O7	O	0.497414	1.005314	-0.075624
O8	O	0.728385	0.662559	0.075545
O9	O	0.497413	1.348070	-0.267250
O10	O	0.715465	0.892517	-0.056438
O11	O	0.639455	0.892515	0.056355
O12	O	0.639454	1.118113	-0.169249
O13	O	0.563444	1.118111	-0.056456
Zr14	Zr	0.758683	1.005310	0.120479
Zr15	Zr	0.758680	1.005315	-0.120573
Zr16	Zr	0.596241	1.005311	0.120475
Zr17	Zr	0.596239	1.246372	-0.120593
Zr18	Zr	0.758682	0.764253	0.120494
O19	O	0.728388	1.196919	0.075510
O20	O	0.728384	1.196926	-0.267235
O21	O	0.497416	1.196920	0.075505
O22	O	0.857508	0.813699	0.267142
O23	O	0.857504	0.813706	-0.075603
O24	O	0.626536	0.813700	0.267137
O25	O	0.857505	1.005314	-0.075615
O26	O	0.728389	1.005308	0.267127
O27	O	0.626537	1.005308	0.267125
O28	O	0.857507	1.005311	0.075525
O29	O	0.626533	1.348070	-0.267247
O30	O	0.728387	0.662556	0.267149
O31	O	0.857507	0.662556	0.267152
O32	O	0.857505	0.662559	0.075548
O33	O	0.497415	1.348066	-0.075646
O34	O	0.626535	1.348066	-0.075643
O35	O	0.715467	0.892513	0.169151
O36	O	0.791477	0.892515	0.056358
O37	O	0.715466	1.118111	-0.056453
O38	O	0.639456	1.118109	0.056340
C39	C	0.677459	0.703787	-0.000030
C40	C	0.677458	0.601452	-0.000023
C41	C	0.621345	0.636668	-0.083307
C42	C	0.621348	0.540528	-0.083336
C43	C	0.733581	0.373958	0.083213
C44	C	0.733581	0.470097	0.083236
C45	C	0.474270	1.005313	-0.000054
C46	C	0.405309	1.005313	-0.000055
C47	C	0.372910	1.005318	-0.083323
C48	C	0.308116	1.005312	-0.083319
C49	C	0.275719	1.005309	-0.000051
C50	C	0.308124	1.005300	0.083225
C51	C	0.372920	1.005297	0.083225
C52	C	0.046811	1.005310	0.083229
C53	C	-0.017991	1.005316	0.083221
C54	C	-0.017994	1.005324	-0.083315
C55	C	0.046802	1.005321	-0.083315
C56	C	0.079204	1.005305	-0.000036
C57	C	0.149462	1.005310	-0.000040
C58	C	0.205460	1.005314	-0.000050
C59	C	0.880651	1.005312	-0.000044
C60	C	0.949612	1.005312	-0.000043
C61	C	0.677457	1.005318	-0.301569
C62	C	0.677456	1.005320	-0.403902
C63	C	0.677462	1.306838	-0.000068
C64	C	0.677462	1.409173	-0.000075
C65	C	0.637785	1.123069	-0.607018
C66	C	0.637779	1.123077	-0.510871
C67	C	0.717136	0.887547	-0.393082
C68	C	0.717138	0.887541	-0.489229
C69	C	0.677464	1.005307	0.301471
C70	C	0.677465	1.005305	0.403804
C71	C	0.880649	0.703787	-0.000025
C72	C	0.949610	0.601452	-0.000017
C73	C	0.677462	0.703782	0.301490
C74	C	0.677463	0.601445	0.403830
C75	C	0.880652	0.703781	0.301495
C76	C	0.949614	0.601444	0.403836
C77	C	0.474268	1.306844	-0.301593
C78	C	0.405307	1.409181	-0.403934
C79	C	0.474272	1.306839	-0.000073
C80	C	0.405311	1.409174	-0.000081
C81	C	0.677459	1.306844	-0.301588
C82	C	0.677458	1.409181	-0.403928
C83	C	0.942317	0.553395	-0.058902
C84	C	1.007106	0.457254	-0.058917
C85	C	1.079188	0.409164	-0.000039
C86	C	1.086479	0.457230	0.058847
C87	C	1.021691	0.553376	0.058855
C88	C	1.021682	0.553387	0.393020
C89	C	1.086485	0.457244	0.489171
C90	C	1.079218	0.409153	0.596137
C91	C	1.007142	0.457220	0.606951
C92	C	0.942341	0.553368	0.510801
C93	C	0.333239	1.457250	-0.393118
C94	C	0.268436	1.553423	-0.489269
C95	C	0.275703	1.601519	-0.596235
C96	C	0.347778	1.553445	-0.607049
C97	C	0.412580	1.457281	-0.510899
C98	C	0.412604	1.457240	0.058794
C99	C	0.347815	1.553408	0.058782
C100	C	0.275733	1.601501	-0.000099
C101	C	0.268441	1.553431	-0.058981
C102	C	0.333230	1.457271	-0.058975
C103	C	0.717140	0.553364	0.510788
C104	C	0.717132	0.457216	0.606943
C105	C	0.637768	0.457236	0.489168
C106	C	0.637772	0.553388	0.393015
H107	H	0.575656	0.569213	-0.151155
H108	H	0.749455	0.592493	0.519599
F109	F	-0.052481	1.005335	-0.171946
F110	F	0.595559	1.248405	-0.720859
F111	F	0.206785	1.703843	-0.000094
F112	F	0.355501	1.604643	-0.720900
F113	F	0.273648	1.005288	0.171851
H114	H	0.327307	1.418096	-0.306029
F115	F	0.595536	0.604569	0.279173
F116	F	0.206728	1.703866	-0.698558
H117	H	0.209755	1.592548	-0.480442
H118	H	1.001154	0.418130	-0.106869
F119	F	0.793309	0.432611	0.171880
H120	H	1.131937	0.330875	-0.000054
H121	H	0.749440	0.418075	0.694029
H122	H	1.145166	0.418117	0.480346
F123	F	-0.052468	1.005312	0.171852
H124	H	0.471259	1.418144	-0.519720
H125	H	0.353766	1.592531	0.106735
H126	H	0.749439	0.791667	-0.305979
F127	F	0.595540	1.248418	-0.522396
F128	F	1.029433	0.604557	0.279187
F129	F	0.407403	1.005286	0.171853
F130	F	0.191720	1.604625	-0.121639
H131	H	0.471291	1.418090	0.106749
H132	H	0.327281	1.418138	-0.106915
F133	F	0.595531	0.406080	0.477670
H134	H	0.073186	1.005300	0.151036
F135	F	1.163200	0.406033	0.121508
F136	F	1.029464	0.604505	0.121539
F137	F	0.759369	0.762193	-0.477707
H138	H	0.399280	1.005329	-0.151134
H139	H	1.131990	0.330864	0.674420
F140	F	0.793305	0.234157	0.171823
H141	H	0.575643	0.743620	-0.151096
H142	H	0.281737	1.005315	-0.151121
F143	F	0.865608	0.604562	-0.121575
F144	F	0.999420	0.406026	0.720802
H145	H	0.073175	1.005330	-0.151123
F146	F	0.865642	0.604499	0.522330
