data_functionalizedCrystal
_audit_creation_method	'MofGen! by Chris Wilmer'
_symmetry_space_group_name_H-M	'P1'
_symmetry_Int_Tables_number	1
_symmetry_cell_setting	triclinic
loop_
_symmetry_equiv_pos_as_xyz
  x,y,z
_cell_length_a	16.109301
_cell_length_b	15.995350
_cell_length_c	14.586319
_cell_angle_alpha	89.998440
_cell_angle_beta	89.999213
_cell_angle_gamma	83.476928
loop_
_atom_site_label
_atom_site_type_symbol
_atom_site_fract_x
_atom_site_fract_y
_atom_site_fract_z
O1	O	1.103160	0.107624	-0.076178
O2	O	1.436493	0.440957	0.257156
O3	O	1.769826	0.774291	0.590489
O4	O	0.861101	0.121018	-0.076192
O5	O	1.194435	0.454351	0.257142
O6	O	1.527768	0.787684	0.590475
O7	O	0.988747	-0.007569	-0.076184
O8	O	1.322081	0.325765	0.257150
O9	O	1.655414	0.659098	0.590483
O10	O	0.975514	0.236210	-0.076186
O11	O	1.308847	0.569544	0.257147
O12	O	1.642180	0.902877	0.590481
O13	O	0.988739	-0.007570	0.076297
O14	O	1.322072	0.325763	0.409631
O15	O	1.655405	0.659096	0.742964
O16	O	0.861093	0.121016	0.076289
O17	O	1.194426	0.454349	0.409622
O18	O	1.527759	0.787683	0.742956
O19	O	1.103151	0.107622	0.076303
O20	O	1.436484	0.440956	0.409636
O21	O	1.769818	0.774289	0.742970
Cu22	Cu	0.982121	0.114319	0.090219
Cu23	Cu	1.315454	0.447652	0.423552
Cu24	Cu	1.648788	0.780986	0.756885
Cu25	Cu	0.982131	0.114321	-0.090107
Cu26	Cu	1.315465	0.447654	0.243226
Cu27	Cu	1.648798	0.780988	0.576559
O28	O	0.975505	0.236208	0.076295
O29	O	1.308838	0.569542	0.409628
O30	O	1.642172	0.902875	0.742961
C31	C	0.830122	0.120474	0.000047
C32	C	1.163455	0.453808	0.333380
C33	C	1.496789	0.787141	0.666713
C34	C	0.737826	0.118848	0.000041
C35	C	1.071160	0.452181	0.333375
C36	C	1.404493	0.785514	0.666708
C37	C	0.515573	0.191366	0.000051
C38	C	0.848907	0.524699	0.333385
C39	C	1.182240	0.858033	0.666718
C40	C	0.428853	0.189831	0.000057
C41	C	0.762186	0.523165	0.333390
C42	C	1.095519	0.856498	0.666724
C43	C	0.448686	0.037268	0.000055
C44	C	0.782019	0.370601	0.333388
C45	C	1.115352	0.703935	0.666721
C46	C	0.535405	0.038804	0.000055
C47	C	0.868738	0.372137	0.333389
C48	C	1.202072	0.705470	0.666722
C49	C	0.568846	0.115855	0.000049
C50	C	0.902179	0.449189	0.333382
C51	C	1.235513	0.782522	0.666716
C52	C	0.395406	0.112785	0.000054
C53	C	0.728740	0.446118	0.333388
C54	C	1.062073	0.779451	0.666721
C55	C	0.301380	0.111120	0.000061
C56	C	0.634713	0.444453	0.333394
C57	C	0.968046	0.777787	0.666727
C58	C	0.662879	0.117520	0.000044
C59	C	0.996212	0.450854	0.333378
C60	C	1.329545	0.784187	0.666711
C61	C	0.988196	-0.038764	0.000055
C62	C	1.321529	0.294569	0.333388
C63	C	1.654863	0.627903	0.666722
C64	C	0.986556	-0.131714	0.000050
C65	C	1.319889	0.201619	0.333383
C66	C	1.653222	0.534953	0.666716
C67	C	0.980665	-0.469460	0.000053
C68	C	1.313999	-0.136127	0.333386
C69	C	1.647332	0.197207	0.666719
C70	C	0.889758	-0.422001	-0.000295
C71	C	1.223091	-0.088668	0.333039
C72	C	1.556425	0.244666	0.666372
C73	C	0.891399	-0.325311	0.000049
C74	C	1.224732	0.008022	0.333382
C75	C	1.558065	0.341355	0.666716
C76	C	0.983587	-0.301900	0.000051
C77	C	1.316920	0.031433	0.333384
C78	C	1.650254	0.364767	0.666717
C79	C	1.028421	-0.342991	0.087126
C80	C	1.361754	-0.009658	0.420459
C81	C	1.695087	0.323676	0.753792
C82	C	1.026137	-0.439626	0.087198
C83	C	1.359470	-0.106293	0.420532
C84	C	1.692804	0.227041	0.753865
C85	C	1.028025	-0.439983	-0.086201
C86	C	1.361358	-0.106649	0.247133
C87	C	1.694692	0.226684	0.580466
C88	C	1.028003	-0.343037	-0.087351
C89	C	1.361337	-0.009704	0.245982
C90	C	1.694670	0.323629	0.579315
C91	C	0.985243	-0.207203	0.000053
C92	C	1.318577	0.126130	0.333386
C93	C	1.651910	0.459464	0.666719
C94	C	0.979012	-0.564157	0.000057
C95	C	1.312345	-0.230824	0.333390
C96	C	1.645679	0.102509	0.666723
C97	C	1.134130	0.108166	0.000062
C98	C	1.467464	0.441499	0.333396
C99	C	1.800797	0.774832	0.666729
C100	C	1.226426	0.109792	0.000062
C101	C	1.559759	0.443126	0.333395
C102	C	1.893093	0.776459	0.666729
C103	C	0.976056	0.267404	0.000054
C104	C	1.309390	0.600737	0.333387
C105	C	1.642723	0.934071	0.666721
C106	C	0.977697	0.360354	0.000053
C107	C	1.311030	0.693687	0.333387
C108	C	1.644363	1.027021	0.666720
N109	N	0.982120	0.114317	0.217050
N110	N	1.315453	0.447650	0.550384
N111	N	1.648786	0.780983	0.883717
N112	N	0.982139	0.114317	-0.216939
N113	N	1.315473	0.447650	0.116394
N114	N	1.648806	0.780983	0.449727
C115	C	1.038660	0.057398	0.452061
C116	C	1.371993	0.390731	0.785394
C117	C	1.705327	0.724064	1.118727
C118	C	1.038662	0.057396	0.548042
C119	C	1.371996	0.390729	0.881375
C120	C	1.705329	0.724062	1.214708
C121	C	0.925593	0.171238	0.548044
C122	C	1.258926	0.504572	0.881377
C123	C	1.592260	0.837905	1.214711
C124	C	0.925587	0.171236	0.452064
C125	C	1.258921	0.504569	0.785398
C126	C	1.592254	0.837902	1.118731
C127	C	0.982125	0.114316	0.404075
C128	C	1.315459	0.447650	0.737409
C129	C	1.648792	0.780983	1.070742
C130	C	0.982134	0.114317	0.596036
C131	C	1.315467	0.447650	0.929369
C132	C	1.648800	0.780984	1.262703
C133	C	0.982136	0.114315	0.700103
C134	C	1.315469	0.447649	1.033436
C135	C	1.648802	0.780982	1.366770
C136	C	0.982122	0.114317	0.300001
C137	C	1.315456	0.447650	0.633335
C138	C	1.648789	0.780983	0.966668
H139	H	0.385481	0.251320	0.000061
H140	H	0.718814	0.584653	0.333394
H141	H	1.052147	0.917987	0.666727
Br142	Br	1.115388	-0.019851	0.386936
Br143	Br	1.448722	0.313482	0.720269
Br144	Br	1.782055	0.646816	1.053602
H145	H	1.084697	0.011047	0.587109
H146	H	1.418030	0.344380	0.920442
H147	H	1.751364	0.677713	1.253776
H148	H	0.879562	0.217582	0.587126
H149	H	1.212895	0.550915	0.920460
H150	H	1.546229	0.884248	1.253793
H151	H	0.421447	-0.025465	0.000066
H152	H	0.754780	0.307869	0.333399
H153	H	1.088114	0.641202	0.666732
H154	H	1.096149	-0.328884	0.090365
H155	H	1.429482	0.004450	0.423698
H156	H	1.762815	0.337783	0.757032
Br157	Br	0.607710	-0.063683	0.000064
Br158	Br	0.941044	0.269650	0.333397
Br159	Br	1.274377	0.602984	0.666731
H160	H	0.856156	-0.296879	-0.062370
H161	H	1.189490	0.036455	0.270964
H162	H	1.522823	0.369788	0.604297
Br163	Br	0.829285	-0.455042	0.102878
Br164	Br	1.162619	-0.121709	0.436211
Br165	Br	1.495952	0.211625	0.769545
Br166	Br	0.560956	0.295935	0.000046
Br167	Br	0.894289	0.629269	0.333379
Br168	Br	1.227622	0.962602	0.666712
Br169	Br	0.829198	-0.452865	-0.104374
Br170	Br	1.162531	-0.119532	0.228960
Br171	Br	1.495865	0.213801	0.562293
Br172	Br	0.832246	-0.278845	0.104252
Br173	Br	1.165580	0.054489	0.437586
Br174	Br	1.498913	0.387822	0.770919
Br175	Br	0.971632	-0.470121	0.195681
Br176	Br	1.304965	-0.136788	0.529015
Br177	Br	1.638299	0.196546	0.862348
Br178	Br	1.137374	-0.493410	0.093797
Br179	Br	1.470708	-0.160077	0.427130
Br180	Br	1.804041	0.173256	0.760463
Br181	Br	0.976511	-0.295678	0.195129
Br182	Br	1.309844	0.037655	0.528462
Br183	Br	1.643178	0.370989	0.861796
H184	H	0.995224	-0.315779	-0.151767
H185	H	1.328558	0.017555	0.181566
H186	H	1.661891	0.350888	0.514900
Br187	Br	0.848850	0.248481	0.386934
Br188	Br	1.182183	0.581814	0.720267
Br189	Br	1.515517	0.915148	1.053600
Br190	Br	0.978485	-0.474189	-0.196202
Br191	Br	1.311819	-0.140856	0.137131
Br192	Br	1.645152	0.192478	0.470464
H193	H	1.095231	-0.327694	-0.092608
H194	H	1.428565	0.005640	0.240726
H195	H	1.761898	0.338973	0.574059
Br196	Br	1.139737	-0.492949	-0.087176
Br197	Br	1.473071	-0.159615	0.246157
Br198	Br	1.806404	0.173718	0.579490
