data_functionalizedCrystal
_audit_creation_method	'MofGen! by Chris Wilmer'
_symmetry_space_group_name_H-M	'P1'
_symmetry_Int_Tables_number	1
_symmetry_cell_setting	triclinic
loop_
_symmetry_equiv_pos_as_xyz
  x,y,z
_cell_length_a	10.654550
_cell_length_b	14.472310
_cell_length_c	15.995343
_cell_angle_alpha	90.005791
_cell_angle_beta	83.987043
_cell_angle_gamma	90.016585
loop_
_atom_site_label
_atom_site_type_symbol
_atom_site_fract_x
_atom_site_fract_y
_atom_site_fract_z
O1	O	1.666316	0.076928	0.117597
O2	O	1.300691	0.076914	0.128802
O3	O	1.493504	0.076904	0.001369
O4	O	1.473504	0.076938	0.245029
O5	O	1.493454	-0.076778	0.001377
O6	O	1.300642	-0.076768	0.128809
O7	O	1.666267	-0.076754	0.117604
Cu8	Cu	1.483450	-0.090794	0.123207
Cu9	Cu	1.483508	0.090953	0.123199
O10	O	1.473454	-0.076744	0.245037
C11	C	1.253879	0.000071	0.127983
C12	C	1.114468	0.000065	0.125521
N13	N	1.483418	-0.218625	0.123213
C14	C	1.033999	0.000089	0.200551
C15	C	0.903009	0.000104	0.198233
C16	C	0.932969	0.000076	0.045849
C17	C	1.063957	0.000054	0.048168
C18	C	1.016701	0.000109	0.288529
C19	C	0.885710	0.000125	0.286212
C20	C	1.483507	-0.592716	0.123195
C21	C	1.379991	-0.553545	0.191149
C22	C	1.380229	-0.446457	0.191401
C23	C	1.483461	-0.407125	0.123204
C24	C	1.614494	-0.445954	0.143047
C25	C	1.613912	-0.553075	0.143531
C26	C	1.457159	-0.553259	0.035202
C27	C	1.454154	-0.446131	0.035771
C28	C	1.483444	-0.302237	0.123207
C29	C	1.483533	-0.697604	0.123194
C30	C	1.713079	0.000091	0.118423
C31	C	1.852490	0.000103	0.120885
C32	C	1.492654	0.000061	-0.029827
C33	C	1.490180	0.000053	-0.122792
N34	N	1.483550	0.218784	0.123187
C35	C	1.485690	0.000074	-0.293004
C36	C	1.346509	0.000071	-0.317158
C37	C	1.343891	0.000430	-0.413851
C38	C	1.481268	0.000094	-0.460590
C39	C	1.551279	0.087680	-0.431089
C40	C	1.552929	0.087743	-0.334286
C41	C	1.554911	-0.087028	-0.334371
C42	C	1.549772	-0.088169	-0.430896
C43	C	1.478776	0.000108	-0.555302
C44	C	1.488186	0.000066	-0.198292
C45	C	1.474304	0.000101	0.276233
C46	C	1.476778	0.000114	0.369198
H47	H	1.129471	0.000021	-0.012929
C48	C	1.064412	0.089729	0.326394
H49	H	1.153430	0.086657	0.326710
H50	H	1.025872	0.096814	0.382319
H51	H	1.043387	0.141005	0.293505
H52	H	0.839669	-0.066220	0.312803
H53	H	1.638267	-0.419106	0.206516
H54	H	1.357765	-0.420755	0.020730
H55	H	0.843564	0.064450	0.319357
C56	C	1.248649	-0.410989	0.175294
H57	H	1.194566	-0.462051	0.168542
H58	H	1.255541	-0.374402	0.125722
H59	H	1.214648	-0.374649	0.221700
C60	C	1.274834	0.084780	-0.278411
H61	H	1.329364	0.120151	-0.247582
H62	H	1.204075	0.064760	-0.241819
H63	H	1.246864	0.121698	-0.321932
H64	H	1.289391	0.063583	-0.432603
C65	C	1.495543	-0.176744	-0.296548
H66	H	1.427979	-0.161916	-0.255169
H67	H	1.557543	-0.211176	-0.271400
H68	H	1.464445	-0.212481	-0.339746
C69	C	1.247985	-0.588398	0.175290
H70	H	1.254815	-0.627156	0.127088
H71	H	1.195361	-0.537166	0.166233
H72	H	1.212348	-0.622398	0.222765
H73	H	1.652385	0.090696	-0.462347
H74	H	1.396583	-0.580444	0.256063
C75	C	1.402964	-0.411807	0.279588
H76	H	1.412102	-0.463200	0.315396
H77	H	1.333223	-0.375378	0.301931
H78	H	1.477619	-0.375476	0.275842
C79	C	1.721089	-0.588082	0.079266
H80	H	1.764799	-0.536833	0.052985
H81	H	1.686561	-0.624572	0.037921
H82	H	1.778045	-0.624426	0.107256
H83	H	1.637130	-0.578041	0.207727
H84	H	1.045560	-0.064206	0.322940
H85	H	1.693364	-0.420474	0.094901
H86	H	0.891827	0.000082	-0.017130
H87	H	1.505052	0.153461	-0.307776
C88	C	1.330856	-0.589793	0.009699
H89	H	1.293007	-0.629456	0.052483
H90	H	1.345528	-0.623162	-0.041535
H91	H	1.276095	-0.539293	0.002437
C92	C	1.549399	-0.409982	-0.035824
H93	H	1.608553	-0.370455	-0.013229
H94	H	1.505826	-0.376547	-0.074949
H95	H	1.592607	-0.460651	-0.063455
H96	H	1.532649	-0.578589	-0.015375
C97	C	1.269852	-0.084365	-0.439982
H98	H	1.241102	-0.119340	-0.391461
H99	H	1.323266	-0.121625	-0.477443
H100	H	1.199484	-0.064437	-0.467148
C101	C	1.273594	-0.084765	-0.279748
H102	H	1.327372	-0.120941	-0.249058
H103	H	1.245725	-0.120831	-0.323867
H104	H	1.202705	-0.064855	-0.243219
H105	H	1.503282	0.153108	-0.451455
H106	H	1.654996	0.091480	-0.319120
C107	C	1.480930	-0.175709	-0.456393
H108	H	1.410733	-0.158549	-0.485018
H109	H	1.452359	-0.210116	-0.407500
H110	H	1.537233	-0.212460	-0.492418
H111	H	1.650015	-0.093717	-0.463262
H112	H	1.657353	-0.087875	-0.319756
