data_functionalizedCrystal
_audit_creation_method	'MofGen! by Chris Wilmer'
_symmetry_space_group_name_H-M	'P1'
_symmetry_Int_Tables_number	1
_symmetry_cell_setting	triclinic
loop_
_symmetry_equiv_pos_as_xyz
  x,y,z
_cell_length_a	14.971486
_cell_length_b	14.971486
_cell_length_c	15.455348
_cell_angle_alpha	92.988273
_cell_angle_beta	92.998621
_cell_angle_gamma	83.614129
loop_
_atom_site_label
_atom_site_type_symbol
_atom_site_fract_x
_atom_site_fract_y
_atom_site_fract_z
O1	O	1.183444	0.113069	-0.072031
O2	O	1.683444	0.613069	0.427969
O3	O	0.923043	0.127027	-0.072055
O4	O	1.423043	0.627027	0.427945
O5	O	1.060223	-0.010152	-0.072036
O6	O	1.560223	0.489848	0.427964
O7	O	1.046264	0.250248	-0.072050
O8	O	1.546264	0.750248	0.427950
O9	O	1.067222	-0.003159	0.072225
O10	O	1.567222	0.496841	0.572225
O11	O	0.930042	0.134019	0.072206
O12	O	1.430042	0.634019	0.572206
O13	O	1.190443	0.120062	0.072230
O14	O	1.690443	0.620062	0.572230
Cu15	Cu	1.060882	0.127679	0.085391
Cu16	Cu	1.560882	0.627679	0.585391
Cu17	Cu	1.052604	0.119410	-0.085215
Cu18	Cu	1.552604	0.619410	0.414785
O19	O	1.053263	0.257240	0.072211
O20	O	1.553263	0.757240	0.572211
C21	C	0.893217	0.129899	0.000073
C22	C	1.393217	0.629899	0.500073
C23	C	0.793920	0.128027	0.000064
C24	C	1.293920	0.628027	0.500064
C25	C	1.063098	-0.039980	0.000094
C26	C	1.563098	0.460020	0.500094
C27	C	1.061228	-0.139277	0.000093
C28	C	1.561228	0.360723	0.500093
C29	C	0.736694	0.208617	0.000061
C30	C	1.236694	0.708617	0.500061
C31	C	0.643396	0.206854	0.000074
C32	C	1.143396	0.706854	0.500074
C33	C	0.607324	0.124501	0.000084
C34	C	1.107324	0.624501	0.500084
C35	C	0.664557	0.043906	0.000089
C36	C	1.164557	0.543906	0.500089
C37	C	0.757854	0.045670	0.000082
C38	C	1.257854	0.545670	0.500082
C39	C	0.470095	0.040236	0.000101
C40	C	0.970095	0.540236	0.500101
C41	C	0.376791	0.038471	0.000107
C42	C	0.876791	0.538471	0.500107
C43	C	0.355636	0.201420	0.000093
C44	C	0.855636	0.701420	0.500093
C45	C	0.448934	0.203184	0.000086
C46	C	0.948934	0.703184	0.500086
C47	C	0.506160	0.122588	0.000090
C48	C	1.006160	0.622588	0.500090
C49	C	1.220268	0.117190	0.000100
C50	C	1.720268	0.617190	0.500100
C51	C	1.319566	0.119061	0.000104
C52	C	1.819566	0.619061	0.500104
N53	N	1.066710	0.133495	0.205386
N54	N	1.566710	0.633495	0.705386
C55	C	1.141817	-0.196502	0.000101
C56	C	1.641817	0.303498	0.500101
C57	C	1.140054	-0.289802	0.000092
C58	C	1.640054	0.210198	0.500092
C59	C	1.057700	-0.325875	0.000082
C60	C	1.557700	0.174125	0.500082
C61	C	0.977104	-0.268643	0.000071
C62	C	1.477104	0.231357	0.500071
C63	C	0.978868	-0.175345	0.000074
C64	C	1.478868	0.324655	0.500074
C65	C	0.973433	-0.463106	0.000067
C66	C	1.473433	0.036894	0.500067
C67	C	0.971668	-0.556410	0.000066
C68	C	1.471668	-0.056410	0.500066
C69	C	1.134618	-0.577563	0.000086
C70	C	1.634618	-0.077563	0.500086
C71	C	1.136382	-0.484265	0.000089
C72	C	1.636382	0.015735	0.500089
C73	C	1.055786	-0.427039	0.000080
C74	C	1.555786	0.072961	0.500080
C75	C	1.050387	0.287069	0.000079
C76	C	1.550387	0.787069	0.500079
C77	C	1.052258	0.386365	0.000074
C78	C	1.552258	0.886365	0.500074
C79	C	1.098886	0.165729	0.749391
C80	C	1.598886	0.665729	1.249391
C81	C	1.094483	0.161324	0.658584
C82	C	1.594483	0.661324	1.158584
C83	C	1.037986	0.104777	0.613176
C84	C	1.537986	0.604777	1.113176
C85	C	0.985881	0.052637	0.658581
C86	C	1.485881	0.552637	1.158581
C87	C	0.990279	0.057047	0.749387
C88	C	1.490279	0.557047	1.249387
C89	C	1.019004	0.085765	0.341596
C90	C	1.519004	0.585765	0.841596
C91	C	1.014611	0.081357	0.250784
C92	C	1.514611	0.581357	0.750784
C93	C	1.123213	0.190046	0.250793
C94	C	1.623213	0.690046	0.750793
C95	C	1.127610	0.194447	0.341601
C96	C	1.627610	0.694447	0.841601
C97	C	1.075502	0.142311	0.386997
C98	C	1.575502	0.642311	0.886997
N99	N	1.033486	0.100271	0.520356
N100	N	1.533486	0.600271	1.020356
N101	N	1.079997	0.146822	0.479816
N102	N	1.579997	0.646822	0.979816
N103	N	1.046787	0.113591	0.794790
N104	N	1.546787	0.613591	1.294790
H105	H	0.766056	0.275678	0.000052
H106	H	1.266056	0.775678	0.500052
H107	H	0.910050	-0.298021	0.000057
H108	H	1.410050	0.201979	0.500057
O109	O	0.924996	-0.008410	0.609612
O110	O	1.424996	0.491590	1.109612
H111	H	0.930716	-0.002745	0.538842
H112	H	1.430716	0.497255	1.038842
H113	H	0.596806	0.272478	0.000070
H114	H	1.096806	0.772478	0.500070
H115	H	1.200243	-0.624161	0.000091
H116	H	1.700243	-0.124161	0.500091
H117	H	0.976576	0.043309	0.378547
H118	H	1.476576	0.543309	0.878547
O119	O	0.819584	-0.041249	0.000089
O120	O	1.319584	0.458751	0.500089
H121	H	0.803899	-0.083507	-0.058709
H122	H	1.303899	0.416493	0.441291
O123	O	0.882848	-0.595325	0.000058
O124	O	1.382848	-0.095325	0.500058
H125	H	0.875308	-0.640183	-0.058736
H126	H	1.375308	-0.140183	0.441264
O127	O	0.891948	-0.113616	0.000074
O128	O	1.391948	0.386384	0.500074
H129	H	0.834386	-0.154372	0.000077
H130	H	1.334386	0.345628	0.500077
O131	O	1.150675	0.217564	0.609622
O132	O	1.650675	0.717564	1.109622
H133	H	1.196695	0.172761	0.568254
H134	H	1.696695	0.672761	1.068254
H135	H	0.947853	0.014593	0.786349
H136	H	1.447853	0.514593	1.286349
H137	H	0.968599	0.035310	0.213816
H138	H	1.468599	0.535310	0.713816
O139	O	0.487838	0.292009	0.000086
O140	O	0.987838	0.792009	0.500086
H141	H	0.461993	0.327898	-0.058707
H142	H	0.961993	0.827898	0.441293
O143	O	0.293922	0.288353	0.000098
O144	O	0.793922	0.788353	0.500098
H145	H	0.222987	0.273295	0.000117
H146	H	0.722987	0.773295	0.500117
H147	H	0.347425	-0.028587	0.000116
H148	H	0.847425	0.471413	0.500116
O149	O	1.230647	-0.157606	0.000107
O150	O	1.730647	0.342394	0.500107
H151	H	1.238212	-0.112766	0.058910
H152	H	1.738212	0.387234	0.558910
O153	O	0.531823	-0.046690	0.000102
O154	O	1.031823	0.453310	0.500102
H155	H	0.491067	-0.104253	0.000099
H156	H	0.991067	0.395747	0.500099
H157	H	1.144896	0.211772	0.786355
H158	H	1.644896	0.711772	1.286355
O159	O	1.188544	0.255440	0.390577
O160	O	1.688544	0.755440	0.890577
H161	H	1.224028	0.290961	0.343752
H162	H	1.724028	0.790961	0.843752
H163	H	0.635180	-0.023146	0.000110
H164	H	1.135180	0.476854	0.500110
H165	H	1.165635	0.232493	0.213821
H166	H	1.665635	0.732493	0.713821
O167	O	1.226975	-0.351526	0.000115
O168	O	1.726975	0.148474	0.500115
H169	H	1.284537	-0.310768	0.000139
H170	H	1.784537	0.189232	0.500139
H171	H	1.203442	-0.454898	0.000104
H172	H	1.703442	0.045102	0.500104
O173	O	0.886507	-0.401378	0.000066
O174	O	1.386507	0.098622	0.500066
H175	H	0.828945	-0.442133	0.000070
H176	H	1.328945	0.057867	0.500070
