data_functionalizedCrystal
_audit_creation_method	'MofGen! by Chris Wilmer'
_symmetry_space_group_name_H-M	'P1'
_symmetry_Int_Tables_number	1
_symmetry_cell_setting	triclinic
loop_
_symmetry_equiv_pos_as_xyz
  x,y,z
_cell_length_a	18.215407
_cell_length_b	21.295417
_cell_length_c	18.215399
_cell_angle_alpha	89.968895
_cell_angle_beta	89.980167
_cell_angle_gamma	90.030150
loop_
_atom_site_label
_atom_site_type_symbol
_atom_site_fract_x
_atom_site_fract_y
_atom_site_fract_z
Zn1	Zn	1.125047	-0.250608	-0.416100
Zn2	Zn	1.625047	0.249392	0.083900
Zn3	Zn	1.124945	-0.355879	-0.293027
Zn4	Zn	1.624945	0.144121	0.206973
Zn5	Zn	1.001980	-0.250629	-0.293047
Zn6	Zn	1.501980	0.249371	0.206953
Zn7	Zn	1.001935	-0.355844	-0.416052
Zn8	Zn	1.501935	0.144156	0.083948
O9	O	1.063477	-0.303240	-0.354556
O10	O	1.563477	0.196760	0.145444
O11	O	1.228018	-0.264579	-0.399785
O12	O	1.728018	0.235421	0.100215
O13	O	1.108610	-0.341941	-0.190045
O14	O	1.608610	0.158059	0.309955
O15	O	1.018366	-0.162537	-0.309399
O16	O	1.518366	0.337463	0.190601
O17	O	1.227943	-0.341921	-0.309364
O18	O	1.727943	0.158079	0.190636
O19	O	1.108783	-0.162521	-0.399805
O20	O	1.608783	0.337479	0.100195
O21	O	1.018267	-0.264614	-0.190060
O22	O	1.518267	0.235386	0.309940
O23	O	0.898990	-0.264580	-0.309352
O24	O	1.398990	0.235420	0.190648
O25	O	1.018291	-0.341861	-0.519042
O26	O	1.518291	0.158139	-0.019042
O27	O	0.898957	-0.341881	-0.399723
O28	O	1.398957	0.158119	0.100277
O29	O	1.108740	-0.264545	-0.519078
O30	O	1.608740	0.235455	-0.019078
O31	O	1.108567	-0.443964	-0.309317
O32	O	1.608567	0.056036	0.190683
O33	O	1.018192	-0.443938	-0.399703
O34	O	1.518192	0.056062	0.100297
C35	C	0.872271	-0.303229	-0.354535
C36	C	1.372271	0.196771	0.145465
C37	C	0.790472	-0.303240	-0.354544
C38	C	1.290472	0.196760	0.145456
C39	C	1.063383	-0.466792	-0.354519
C40	C	1.563383	0.033208	0.145481
C41	C	1.063410	-0.536760	-0.354528
C42	C	1.563410	-0.036760	0.145472
C43	C	0.602280	-0.343554	-0.401541
C44	C	1.102280	0.156446	0.098459
C45	C	0.525421	-0.343556	-0.401550
C46	C	1.025421	0.156444	0.098450
C47	C	0.525426	-0.262938	-0.307588
C48	C	1.025426	0.237062	0.192412
C49	C	0.602283	-0.262933	-0.307583
C50	C	1.102283	0.237067	0.192417
C51	C	0.640708	-0.303245	-0.354558
C52	C	1.140708	0.196755	0.145442
C53	C	0.486992	-0.303251	-0.354572
C54	C	0.986992	0.196749	0.145428
C55	C	0.403659	-0.303253	-0.354582
C56	C	0.903659	0.196747	0.145418
C57	C	0.724047	-0.303242	-0.354550
C58	C	1.224047	0.196758	0.145450
C59	C	1.110464	-0.569561	-0.401636
C60	C	1.610464	-0.069561	0.098364
C61	C	1.110490	-0.635304	-0.401654
C62	C	1.610490	-0.135304	0.098346
C63	C	1.063470	-0.668242	-0.354551
C64	C	1.563470	-0.168242	0.145449
C65	C	1.016408	-0.635433	-0.307439
C66	C	1.516408	-0.135433	0.192561
C67	C	1.016378	-0.569692	-0.307428
C68	C	1.516378	-0.069692	0.192572
N69	N	1.057911	-0.771505	-0.290145
N70	N	1.557911	-0.271505	0.209855
N71	N	1.057944	-0.833956	-0.290158
N72	N	1.557944	-0.333956	0.209842
C73	C	1.063556	-0.866317	-0.354584
C74	C	1.563556	-0.366317	0.145416
N75	N	1.069149	-0.833867	-0.418998
N76	N	1.569149	-0.333867	0.081002
N77	N	1.069120	-0.771410	-0.418984
N78	N	1.569120	-0.271410	0.081016
C79	C	1.063497	-0.739528	-0.354559
C80	C	1.563497	-0.239528	0.145441
C81	C	1.110640	-0.970404	-0.401716
C82	C	1.610640	-0.470404	0.098284
C83	C	1.110661	-1.036148	-0.401735
C84	C	1.610661	-0.536148	0.098265
C85	C	1.016583	-1.036275	-0.307514
C86	C	1.516583	-0.536275	0.192486
C87	C	1.016558	-0.970533	-0.307501
C88	C	1.516558	-0.470533	0.192499
C89	C	1.063591	-0.937601	-0.354601
C90	C	1.563591	-0.437601	0.145399
C91	C	1.255430	-0.303251	-0.354578
C92	C	1.755430	0.196749	0.145422
C93	C	1.337229	-0.303256	-0.354587
C94	C	1.837229	0.196744	0.145413
C95	C	1.063522	-0.303197	-0.546509
C96	C	1.563522	0.196803	-0.046509
C97	C	1.063541	-0.303178	-0.628308
C98	C	1.563541	0.196822	-0.128308
C99	C	1.063591	-0.139050	-0.354610
C100	C	1.563591	0.360950	0.145390
C101	C	1.063640	-0.069082	-0.354633
C102	C	1.563640	0.430918	0.145367
C103	C	1.110655	-0.262882	-0.816522
C104	C	1.610655	0.237118	-0.316522
C105	C	1.110664	-0.262863	-0.893381
C106	C	1.610664	0.237137	-0.393381
C107	C	1.016479	-0.343377	-0.893333
C108	C	1.516479	0.156623	-0.393333
C109	C	1.016467	-0.343392	-0.816475
C110	C	1.516467	0.156608	-0.316475
C111	C	1.063559	-0.303145	-0.778072
C112	C	1.563559	0.196855	-0.278072
C113	C	1.063580	-0.303112	-0.931788
C114	C	1.563580	0.196888	-0.431788
C115	C	1.063589	-0.303093	-1.015122
C116	C	1.563589	0.196907	-0.515122
C117	C	1.063549	-0.303164	-0.694733
C118	C	1.563549	0.196836	-0.194733
C119	C	1.063475	-0.303238	-0.163350
C120	C	1.563475	0.196762	0.336650
C121	C	1.063598	-0.303079	-0.081552
C122	C	1.563598	0.196921	0.418448
H123	H	0.494137	-0.376379	-0.439809
H124	H	0.994137	0.123621	0.060191
C125	C	1.161651	-0.670814	-0.452839
C126	C	1.661651	-0.170814	0.047161
C127	C	1.202839	-0.627902	-0.494077
C128	C	1.702839	-0.127902	0.005923
C129	C	1.249978	-0.660589	-0.541233
C130	C	1.749978	-0.160589	-0.041233
H131	H	1.133567	-0.696461	-0.484945
H132	H	1.633567	-0.196461	0.015055
H133	H	1.193784	-0.696441	-0.424742
H134	H	1.693784	-0.196441	0.075258
H135	H	1.170710	-0.602286	-0.522172
H136	H	1.670710	-0.102286	-0.022172
H137	H	1.230938	-0.602253	-0.461990
H138	H	1.730938	-0.102253	0.038010
H139	H	1.282111	-0.686216	-0.513136
H140	H	1.782111	-0.186216	-0.013136
H141	H	1.221888	-0.686235	-0.573334
H142	H	1.721888	-0.186235	-0.073334
H143	H	1.277935	-0.631478	-0.569214
H144	H	1.777935	-0.131478	-0.069214
C145	C	1.161401	-0.533730	-0.452822
C146	C	1.661401	-0.033730	0.047178
C147	C	1.119689	-0.495983	-0.499937
C148	C	1.619689	0.004017	0.000063
C149	C	1.166586	-0.462959	-0.547095
C150	C	1.666586	0.037041	-0.047095
H151	H	1.189443	-0.562614	-0.480951
H152	H	1.689443	-0.062614	0.019049
H153	H	1.193461	-0.508038	-0.424718
H154	H	1.693461	-0.008038	0.075282
H155	H	1.087642	-0.521672	-0.528038
H156	H	1.587642	-0.021672	-0.028038
H157	H	1.091649	-0.467087	-0.471829
H158	H	1.591649	0.032913	0.028171
H159	H	1.198646	-0.437267	-0.518991
H160	H	1.698646	0.062733	-0.018991
H161	H	1.194626	-0.491848	-0.575218
H162	H	1.694626	0.008152	-0.075218
H163	H	1.138292	-0.437339	-0.579063
H164	H	1.638292	0.062661	-0.079063
C165	C	0.965606	-1.072142	-0.256406
C166	C	1.465606	-0.572142	0.243594
C167	C	0.975710	-1.136737	-0.266489
C168	C	1.475710	-0.636737	0.233511
C169	C	0.928764	-1.169800	-0.219418
C170	C	1.428764	-0.669800	0.280582
H171	H	0.916120	-1.061473	-0.267087
H172	H	1.416120	-0.561473	0.232913
H173	H	0.976403	-1.061429	-0.206949
H174	H	1.476403	-0.561429	0.293051
H175	H	0.964908	-1.147446	-0.315935
H176	H	1.464908	-0.647446	0.184065
H177	H	1.025186	-1.147425	-0.255803
H178	H	1.525186	-0.647425	0.244197
H179	H	0.939561	-1.159087	-0.169961
H180	H	1.439561	-0.659087	0.330039
H181	H	0.879281	-1.159126	-0.230103
H182	H	1.379281	-0.659126	0.269897
H183	H	0.935618	-1.213631	-0.226248
H184	H	1.435618	-0.713631	0.273752
C185	C	0.965451	-0.387146	-0.774629
C186	C	1.465451	0.112854	-0.274629
C187	C	1.007088	-0.427490	-0.730482
C188	C	1.507088	0.072510	-0.230482
C189	C	0.960118	-0.467795	-0.691916
C190	C	1.460118	0.032205	-0.191916
H191	H	0.937393	-0.411177	-0.808422
H192	H	1.437393	0.088823	-0.308422
H193	H	0.933410	-0.363086	-0.744608
H194	H	1.433410	0.136914	-0.244608
H195	H	1.039116	-0.451548	-0.760501
H196	H	1.539116	0.048452	-0.260501
H197	H	1.035145	-0.403477	-0.696676
H198	H	1.535145	0.096523	-0.196676
H199	H	0.928076	-0.443735	-0.661894
H200	H	1.428076	0.056265	-0.161894
H201	H	0.932062	-0.491822	-0.725714
H202	H	1.432062	0.008178	-0.225714
H203	H	0.988361	-0.495169	-0.661953
H204	H	1.488361	0.004831	-0.161953
H205	H	0.494131	-0.230118	-0.269341
H206	H	0.994131	0.269882	0.230659
H207	H	0.633564	-0.376377	-0.439793
H208	H	1.133564	0.123623	0.060207
H209	H	0.978122	-0.662255	-0.269089
H210	H	1.478122	-0.162255	0.230911
H211	H	0.633572	-0.230104	-0.269324
H212	H	1.133572	0.269896	0.230676
H213	H	1.148935	-0.943590	-0.440070
H214	H	1.648935	-0.443590	0.059930
H215	H	0.978061	-0.542984	-0.269066
H216	H	1.478061	-0.042984	0.230934
C217	C	1.161834	-1.071650	-0.452910
C218	C	1.661834	-0.571650	0.047090
C219	C	1.203029	-1.028735	-0.494137
C220	C	1.703029	-0.528735	0.005863
C221	C	1.250186	-1.061418	-0.541278
C222	C	1.750186	-0.561418	-0.041278
H223	H	1.133763	-1.097301	-0.485025
H224	H	1.633763	-0.597301	0.014975
H225	H	1.193962	-1.097274	-0.424803
H226	H	1.693962	-0.597274	0.075197
H227	H	1.170905	-1.003122	-0.522241
H228	H	1.670905	-0.503122	-0.022241
H229	H	1.231115	-1.003084	-0.462042
H230	H	1.731115	-0.503084	0.037958
H231	H	1.282314	-1.087042	-0.513171
H232	H	1.782314	-0.587042	-0.013171
H233	H	1.222109	-1.087067	-0.573387
H234	H	1.722109	-0.587067	-0.073387
H235	H	1.278148	-1.032305	-0.569251
H236	H	1.778148	-0.532305	-0.069251
H237	H	0.978246	-0.943824	-0.269138
H238	H	1.478246	-0.443824	0.230862
C239	C	0.965480	-0.387154	-0.935069
C240	C	1.465480	0.112846	-0.435069
C241	C	1.007132	-0.427504	-0.979170
C242	C	1.507132	0.072496	-0.479170
C243	C	0.960178	-0.467847	-1.017619
C244	C	1.460178	0.032153	-0.517619
H245	H	0.933421	-0.363140	-0.965116
H246	H	1.433421	0.136860	-0.465116
H247	H	0.937441	-0.411172	-0.901184
H248	H	1.437441	0.088828	-0.401184
H249	H	1.035159	-0.403489	-1.013051
H250	H	1.535159	0.096511	-0.513051
H251	H	1.039189	-0.451531	-0.949142
H252	H	1.539189	0.048469	-0.449142
H253	H	0.932139	-0.491865	-0.983734
H254	H	1.432139	0.008135	-0.483734
H255	H	0.928122	-0.443829	-1.047661
H256	H	1.428122	0.056171	-0.547661
H257	H	0.988432	-0.495233	-1.047541
H258	H	1.488432	0.004767	-0.547541
H259	H	1.148999	-0.230109	-0.785256
H260	H	1.648999	0.269891	-0.285256
H261	H	1.149013	-0.230076	-0.924683
H262	H	1.649013	0.269924	-0.424683
