data_functionalizedCrystal
_audit_creation_method	'MofGen! by Chris Wilmer'
_symmetry_space_group_name_H-M	'P1'
_symmetry_Int_Tables_number	1
_symmetry_cell_setting	triclinic
loop_
_symmetry_equiv_pos_as_xyz
  x,y,z
_cell_length_a	14.519709
_cell_length_b	11.792241
_cell_length_c	10.868271
_cell_angle_alpha	90.005281
_cell_angle_beta	89.998701
_cell_angle_gamma	83.936780
loop_
_atom_site_label
_atom_site_type_symbol
_atom_site_fract_x
_atom_site_fract_y
_atom_site_fract_z
O1	O	-1.224412	-0.148781	-0.102162
O2	O	-0.724412	0.351219	0.397838
O3	O	-0.955999	-0.166302	-0.102200
O4	O	-0.455999	0.333698	0.397800
O5	O	-1.096719	0.007665	-0.102172
O6	O	-0.596719	0.507665	0.397828
O7	O	-1.083692	-0.322748	-0.102191
O8	O	-0.583692	0.177252	0.397809
O9	O	-1.096707	0.007672	0.102473
O10	O	-0.596707	0.507672	0.602473
O11	O	-0.955987	-0.166295	0.102445
O12	O	-0.455987	0.333705	0.602445
O13	O	-1.224400	-0.148774	0.102482
O14	O	-0.724400	0.351226	0.602482
Zn15	Zn	-1.090192	-0.157533	0.134955
Zn16	Zn	-0.590192	0.342467	0.634955
Zn17	Zn	-1.090207	-0.157542	-0.134673
Zn18	Zn	-0.590207	0.342458	0.365327
O19	O	-1.083680	-0.322741	0.102454
O20	O	-0.583680	0.177259	0.602454
C21	C	-0.921630	-0.165482	0.000117
C22	C	-0.421630	0.334518	0.500117
C23	C	-0.819240	-0.163035	0.000103
C24	C	-0.319240	0.336965	0.500103
C25	C	-1.095895	0.049955	0.000150
C26	C	-0.595895	0.549955	0.500150
C27	C	-1.093446	0.175955	0.000149
C28	C	-0.593446	0.675955	0.500149
C29	C	-1.258769	-0.149594	0.000162
C30	C	-0.758769	0.350406	0.500162
C31	C	-1.361159	-0.152041	0.000168
C32	C	-0.861159	0.347959	0.500168
C33	C	-0.444311	-0.154027	0.000160
C34	C	0.055689	0.345973	0.500160
C35	C	-0.548628	-0.156528	0.000144
C36	C	-0.048628	0.343472	0.500144
C37	C	-0.631772	-0.158531	0.000130
C38	C	-0.131772	0.341469	0.500130
C39	C	-0.736096	-0.161033	0.000117
C40	C	-0.236096	0.338967	0.500117
C41	C	-1.084504	-0.365031	0.000129
C42	C	-0.584504	0.134969	0.500129
C43	C	-1.086954	-0.491031	0.000123
C44	C	-0.586954	0.008969	0.500123
N45	N	-1.090188	-0.157527	0.318969
N46	N	-0.590188	0.342473	0.818969
C47	C	-1.088942	0.406642	0.000127
C48	C	-0.588942	0.906642	0.500127
C49	C	-1.091444	0.278271	0.000139
C50	C	-0.591444	0.778271	0.500139
N51	N	-1.090218	-0.157540	-0.318687
N52	N	-0.590218	0.342460	0.181313
C53	C	-1.090202	-0.157540	0.569975
C54	C	-0.590202	0.342460	1.069975
C55	C	-1.090191	-0.157536	0.430298
C56	C	-0.590191	0.342464	0.930298
