data_functionalizedCrystal
_audit_creation_method	'MofGen! by Chris Wilmer'
_symmetry_space_group_name_H-M	'P1'
_symmetry_Int_Tables_number	1
_symmetry_cell_setting	triclinic
loop_
_symmetry_equiv_pos_as_xyz
  x,y,z
_cell_length_a	21.395364
_cell_length_b	14.908178
_cell_length_c	21.395355
_cell_angle_alpha	93.314561
_cell_angle_beta	90.024552
_cell_angle_gamma	93.328811
loop_
_atom_site_label
_atom_site_type_symbol
_atom_site_fract_x
_atom_site_fract_y
_atom_site_fract_z
Zn1	Zn	0.943529	-0.358933	0.339876
Zn2	Zn	1.193529	-0.108933	0.589876
Zn3	Zn	1.443529	0.141067	0.839876
Zn4	Zn	1.693529	0.391067	1.089876
Zn5	Zn	0.937409	-0.509786	0.229052
Zn6	Zn	1.187409	-0.259786	0.479052
Zn7	Zn	1.437409	-0.009786	0.729052
Zn8	Zn	1.687409	0.240214	0.979052
Zn9	Zn	0.838743	-0.358972	0.235111
Zn10	Zn	1.088743	-0.108972	0.485111
Zn11	Zn	1.338743	0.141028	0.735111
Zn12	Zn	1.588743	0.391028	0.985111
Zn13	Zn	0.832690	-0.509802	0.333791
Zn14	Zn	1.082690	-0.259802	0.583791
Zn15	Zn	1.332690	-0.009802	0.833791
Zn16	Zn	1.582690	0.240198	1.083791
O17	O	0.888093	-0.434373	0.284457
O18	O	1.138093	-0.184373	0.534457
O19	O	1.388093	0.065627	0.784457
O20	O	1.638093	0.315627	1.034457
O21	O	1.030396	-0.378920	0.325185
O22	O	1.280396	-0.128920	0.575185
O23	O	1.530396	0.121080	0.825185
O24	O	1.780396	0.371080	1.075185
O25	O	0.924292	-0.489790	0.142177
O26	O	1.174292	-0.239790	0.392177
O27	O	1.424292	0.010210	0.642177
O28	O	1.674292	0.260210	0.892177
O29	O	0.857737	-0.232712	0.254090
O30	O	1.107737	0.017288	0.504090
O31	O	1.357737	0.267288	0.754090
O32	O	1.607737	0.517288	1.004090
O33	O	1.025900	-0.489751	0.243764
O34	O	1.275900	-0.239751	0.493764
O35	O	1.525900	0.010249	0.743764
O36	O	1.775900	0.260249	0.993764
O37	O	0.934723	-0.232683	0.331060
O38	O	1.184723	0.017317	0.581060
O39	O	1.434723	0.267317	0.831060
O40	O	1.684723	0.517317	1.081060
O41	O	0.851803	-0.378988	0.146629
O42	O	1.101803	-0.128988	0.396629
O43	O	1.351803	0.121012	0.646629
O44	O	1.601803	0.371012	0.896629
O45	O	0.750261	-0.379003	0.248190
O46	O	1.000261	-0.129003	0.498190
O47	O	1.250261	0.120997	0.748190
O48	O	1.500261	0.370997	0.998190
O49	O	0.847421	-0.489779	0.422277
O50	O	1.097421	-0.239779	0.672277
O51	O	1.347421	0.010221	0.922277
O52	O	1.597421	0.260221	1.172277
O53	O	0.745814	-0.489817	0.320691
O54	O	0.995814	-0.239817	0.570691
O55	O	1.245814	0.010183	0.820691
O56	O	1.495814	0.260183	1.070691
O57	O	0.928854	-0.378936	0.426747
O58	O	1.178854	-0.128936	0.676747
O59	O	1.428854	0.121064	0.926747
O60	O	1.678854	0.371064	1.176747
O61	O	0.918424	-0.636043	0.237864
O62	O	1.168424	-0.386043	0.487864
O63	O	1.418424	-0.136043	0.737864
O64	O	1.668424	0.113957	0.987864
O65	O	0.841487	-0.636055	0.314816
O66	O	1.091487	-0.386055	0.564816
O67	O	1.341487	-0.136055	0.814816
O68	O	1.591487	0.113945	1.064816
C69	C	0.725303	-0.434417	0.284438
C70	C	0.975303	-0.184417	0.534438
C71	C	1.225303	0.065583	0.784438
C72	C	1.475303	0.315583	1.034438
C73	C	0.655660	-0.434457	0.284444
C74	C	0.905660	-0.184457	0.534444
C75	C	1.155660	0.065543	0.784444
C76	C	1.405660	0.315543	1.034444
C77	C	0.625307	-0.376842	0.326898
C78	C	0.875307	-0.126842	0.576898
C79	C	1.125307	0.123158	0.826898
C80	C	1.375307	0.373158	1.076898
C81	C	0.559873	-0.376818	0.326902
C82	C	0.809873	-0.126818	0.576902
C83	C	1.059873	0.123182	0.826902
C84	C	1.309873	0.373182	1.076902
C85	C	0.524793	-0.434426	0.284456
C86	C	0.774793	-0.184426	0.534456
C87	C	1.024793	0.065574	0.784456
C88	C	1.274793	0.315574	1.034456
C89	C	0.555154	-0.492045	0.241994
C90	C	0.805154	-0.242045	0.491994
C91	C	1.055154	0.007955	0.741994
C92	C	1.305154	0.257955	0.991994
C93	C	0.620588	-0.492061	0.241988
C94	C	0.870588	-0.242061	0.491988
C95	C	1.120588	0.007939	0.741988
C96	C	1.370588	0.257939	0.991988
C97	C	0.417825	-0.515676	0.276162
C98	C	0.667825	-0.265676	0.526162
C99	C	0.917825	-0.015676	0.776162
C100	C	1.167825	0.234324	1.026162
C101	C	0.352393	-0.515662	0.276173
C102	C	0.602393	-0.265662	0.526173
C103	C	0.852393	-0.015662	0.776173
C104	C	1.102393	0.234338	1.026173
C105	C	0.322975	-0.434376	0.284472
C106	C	0.572975	-0.184376	0.534472
C107	C	0.822975	0.065624	0.784472
C108	C	1.072975	0.315624	1.034472
C109	C	0.358997	-0.353102	0.292774
C110	C	0.608997	-0.103102	0.542774
C111	C	0.858997	0.146898	0.792774
C112	C	1.108997	0.396898	1.042774
C113	C	0.424431	-0.353118	0.292768
C114	C	0.674431	-0.103118	0.542768
C115	C	0.924431	0.146882	0.792768
C116	C	1.174431	0.396882	1.042768
C117	C	0.453842	-0.434414	0.284458
C118	C	0.703842	-0.184414	0.534458
C119	C	0.953842	0.065586	0.784458
C120	C	1.203842	0.315586	1.034458
C121	C	0.221670	-0.376730	0.326933
C122	C	0.471670	-0.126730	0.576933
C123	C	0.721670	0.123270	0.826933
C124	C	0.971670	0.373270	1.076933
C125	C	0.156235	-0.376704	0.326932
C126	C	0.406235	-0.126704	0.576932
C127	C	0.656235	0.123296	0.826932
C128	C	0.906235	0.373296	1.076932
C129	C	0.151517	-0.491939	0.242027
C130	C	0.401517	-0.241939	0.492027
C131	C	0.651517	0.008061	0.742027
C132	C	0.901517	0.258061	0.992027
C133	C	0.216952	-0.491956	0.242025
C134	C	0.466952	-0.241956	0.492025
C135	C	0.716952	0.008044	0.742025
C136	C	0.966952	0.258044	0.992025
C137	C	0.252024	-0.434353	0.284481
C138	C	0.502024	-0.184353	0.534481
C139	C	0.752024	0.065647	0.784481
C140	C	1.002024	0.315647	1.034481
C141	C	0.878651	-0.668785	0.275036
C142	C	1.128651	-0.418785	0.525036
C143	C	1.378651	-0.168785	0.775036
C144	C	1.628651	0.081215	1.025036
C145	C	0.874670	-0.769068	0.271026
C146	C	1.124670	-0.519068	0.521026
C147	C	1.374670	-0.269068	0.771026
C148	C	1.624670	-0.019068	1.021026
C149	C	0.947293	-0.957329	0.343727
C150	C	1.197293	-0.707329	0.593727
C151	C	1.447293	-0.457329	0.843727
C152	C	1.697293	-0.207329	1.093727
C153	C	0.943554	-1.051553	0.339962
C154	C	1.193554	-0.801553	0.589962
C155	C	1.443554	-0.551553	0.839962
C156	C	1.693554	-0.301553	1.089962
C157	C	0.863450	-1.051742	0.259734
C158	C	1.113450	-0.801742	0.509734
C159	C	1.363450	-0.551742	0.759734
C160	C	1.613450	-0.301742	1.009734
C161	C	0.867189	-0.957518	0.263499
C162	C	1.117189	-0.707518	0.513499
C163	C	1.367189	-0.457518	0.763499
C164	C	1.617189	-0.207518	1.013499
C165	C	0.909112	-0.910315	0.305496
C166	C	1.159112	-0.660315	0.555496
C167	C	1.409112	-0.410315	0.805496
C168	C	1.659112	-0.160315	1.055496
C169	C	0.912854	-0.816088	0.309258
C170	C	1.162854	-0.566088	0.559258
C171	C	1.412854	-0.316088	0.809258
C172	C	1.662854	-0.066088	1.059258
C173	C	0.832748	-0.816279	0.229034
C174	C	1.082748	-0.566279	0.479034
C175	C	1.332748	-0.316279	0.729034
C176	C	1.582748	-0.066279	0.979034
C177	C	0.829009	-0.910504	0.225269
C178	C	1.079009	-0.660504	0.475269
C179	C	1.329009	-0.410504	0.725269
C180	C	1.579009	-0.160504	0.975269
C181	C	1.051518	-0.434330	0.284477
C182	C	1.301518	-0.184330	0.534477
C183	C	1.551518	0.065670	0.784477
C184	C	1.801518	0.315670	1.034477
C185	C	1.121160	-0.434311	0.284486
C186	C	1.371160	-0.184311	0.534486
C187	C	1.621160	0.065689	0.784486
C188	C	1.871160	0.315689	1.034486
C189	C	0.888146	-0.434355	0.447881
C190	C	1.138146	-0.184355	0.697881
C191	C	1.388146	0.065645	0.947881
C192	C	1.638146	0.315645	1.197881
C193	C	0.888168	-0.434347	0.517523
C194	C	1.138168	-0.184347	0.767523
C195	C	1.388168	0.065653	1.017523
C196	C	1.638168	0.315653	1.267523
C197	C	0.897588	-0.199046	0.293929
C198	C	1.147588	0.050954	0.543929
C199	C	1.397588	0.300954	0.793929
C200	C	1.647588	0.550954	1.043929
C201	C	0.901634	-0.098763	0.297966
C202	C	1.151634	0.151237	0.547966
C203	C	1.401634	0.401237	0.797966
C204	C	1.651634	0.651237	1.047966
C205	C	0.888079	-0.434326	0.121672
C206	C	1.138079	-0.184326	0.371672
C207	C	1.388079	0.065674	0.621672
C208	C	1.638079	0.315674	0.871672
C209	C	0.888188	-0.434080	0.052041
C210	C	1.138188	-0.184080	0.302041
C211	C	1.388188	0.065920	0.552041
C212	C	1.638188	0.315920	0.802041
C213	C	0.930569	-0.376629	0.552565
C214	C	1.180569	-0.126629	0.802565
C215	C	1.430569	0.123371	1.052565
C216	C	1.680569	0.373371	1.302565
C217	C	0.930569	-0.376590	0.618002
C218	C	1.180569	-0.126590	0.868002
C219	C	1.430569	0.123410	1.118002
C220	C	1.680569	0.373410	1.368002
C221	C	0.888175	-0.434286	0.648394
C222	C	1.138175	-0.184286	0.898394
C223	C	1.388175	0.065714	1.148394
C224	C	1.638175	0.315714	1.398394
C225	C	0.845767	-0.492008	0.613344
C226	C	1.095767	-0.242008	0.863344
C227	C	1.345767	0.007992	1.113344
C228	C	1.595767	0.257992	1.363344
C229	C	0.845763	-0.492039	0.547909
C230	C	1.095763	-0.242039	0.797909
C231	C	1.345763	0.007961	1.047909
C232	C	1.595763	0.257961	1.297909
C233	C	0.879956	-0.515525	0.748803
C234	C	1.129956	-0.265525	0.998803
C235	C	1.379956	-0.015525	1.248803
C236	C	1.629956	0.234475	1.498803
C237	C	0.879964	-0.515495	0.814238
C238	C	1.129964	-0.265495	1.064238
C239	C	1.379964	-0.015495	1.314238
C240	C	1.629964	0.234505	1.564238
C241	C	0.888183	-0.434190	0.850219
C242	C	1.138183	-0.184190	1.100219
C243	C	1.388183	0.065810	1.350219
C244	C	1.638183	0.315810	1.600219
C245	C	0.896407	-0.352912	0.820758
C246	C	1.146407	-0.102912	1.070758
C247	C	1.396407	0.147088	1.320758
C248	C	1.646407	0.397088	1.570758
C249	C	0.896404	-0.352942	0.755322
C250	C	1.146404	-0.102942	1.005322
C251	C	1.396404	0.147058	1.255322
C252	C	1.646404	0.397058	1.505322
C253	C	0.888174	-0.434258	0.719347
C254	C	1.138174	-0.184258	0.969347
C255	C	1.388174	0.065742	1.219347
C256	C	1.638174	0.315742	1.469347
C257	C	0.930587	-0.376425	0.956215
C258	C	1.180587	-0.126425	1.206215
C259	C	1.430587	0.123575	1.456215
C260	C	1.680587	0.373575	1.706215
C261	C	0.930583	-0.376385	1.021653
C262	C	1.180583	-0.126385	1.271653
C263	C	1.430583	0.123615	1.521653
C264	C	1.680583	0.373615	1.771653
C265	C	0.845784	-0.491811	1.016994
C266	C	1.095784	-0.241811	1.266994
C267	C	1.345784	0.008189	1.516994
C268	C	1.595784	0.258189	1.766994
C269	C	0.845784	-0.491843	0.951557
C270	C	1.095784	-0.241843	1.201557
C271	C	1.345784	0.008157	1.451557
C272	C	1.595784	0.258157	1.701557
C273	C	0.888189	-0.434151	0.921171
C274	C	1.138189	-0.184151	1.171171
C275	C	1.388189	0.065849	1.421171
C276	C	1.638189	0.315849	1.671171
H277	H	0.241665	-0.538877	0.207457
H278	H	0.491665	-0.288877	0.457457
H279	H	0.741665	-0.038877	0.707457
H280	H	0.991665	0.211123	0.957457
H281	H	0.526589	-0.538948	0.207435
H282	H	0.776589	-0.288948	0.457435
H283	H	1.026589	-0.038948	0.707435
H284	H	1.276589	0.211052	0.957435
C285	C	0.993397	-0.905402	0.389928
C286	C	1.243397	-0.655402	0.639928
C287	C	1.493397	-0.405402	0.889928
C288	C	1.743397	-0.155402	1.139928
H289	H	1.015596	-0.946899	0.412163
H290	H	1.265596	-0.696899	0.662163
H291	H	1.515596	-0.446899	0.912163
H292	H	1.765596	-0.196899	1.162163
H293	H	1.022170	-0.868608	0.367466
H294	H	1.272170	-0.618608	0.617466
H295	H	1.522170	-0.368608	0.867466
H296	H	1.772170	-0.118608	1.117466
H297	H	0.970859	-0.868676	0.418672
H298	H	1.220859	-0.618676	0.668672
H299	H	1.470859	-0.368676	0.918672
H300	H	1.720859	-0.118676	1.168672
C301	C	0.985555	-1.103266	0.382011
C302	C	1.235555	-0.853266	0.632011
C303	C	1.485555	-0.603266	0.882011
C304	C	1.735555	-0.353266	1.132011
H305	H	1.011061	-1.061655	0.407557
H306	H	1.261061	-0.811655	0.657557
H307	H	1.511061	-0.561655	0.907557
H308	H	1.761061	-0.311655	1.157557
H309	H	0.960116	-1.140046	0.407818
H310	H	1.210116	-0.890046	0.657818
H311	H	1.460116	-0.640046	0.907818
H312	H	1.710116	-0.390046	1.157818
H313	H	1.011414	-1.139991	0.356597
H314	H	1.261414	-0.889991	0.606597
H315	H	1.511414	-0.639991	0.856597
H316	H	1.761414	-0.389991	1.106597
C317	C	0.905448	-0.263468	0.860325
C318	C	1.155448	-0.013468	1.110325
C319	C	1.405448	0.236532	1.360325
C320	C	1.655448	0.486532	1.610325
H321	H	0.910349	-0.215071	0.833408
H322	H	1.160349	0.034929	1.083408
H323	H	1.410349	0.284929	1.333408
H324	H	1.660349	0.534929	1.583408
H325	H	0.869861	-0.255533	0.886153
H326	H	1.119861	-0.005533	1.136153
H327	H	1.369861	0.244467	1.386153
H328	H	1.619861	0.494467	1.636153
H329	H	0.941724	-0.264620	0.885820
H330	H	1.191724	-0.014620	1.135820
H331	H	1.441724	0.235380	1.385820
H332	H	1.691724	0.485380	1.635820
C333	C	0.790748	-0.764566	0.186976
C334	C	1.040748	-0.514566	0.436976
C335	C	1.290748	-0.264566	0.686976
C336	C	1.540748	-0.014566	0.936976
H337	H	0.765250	-0.806177	0.161422
H338	H	1.015250	-0.556177	0.411422
H339	H	1.265250	-0.306177	0.661422
H340	H	1.515250	-0.056177	0.911422
H341	H	0.764893	-0.727831	0.212379
H342	H	1.014893	-0.477831	0.462379
H343	H	1.264893	-0.227831	0.712379
H344	H	1.514893	0.022169	0.962379
H345	H	0.816198	-0.727796	0.161167
H346	H	1.066198	-0.477796	0.411167
H347	H	1.316198	-0.227796	0.661167
H348	H	1.566198	0.022204	0.911167
C349	C	0.817333	-1.103672	0.213547
C350	C	1.067333	-0.853672	0.463547
C351	C	1.317333	-0.603672	0.713547
C352	C	1.567333	-0.353672	0.963547
H353	H	0.795123	-1.062179	0.191320
H354	H	1.045123	-0.812179	0.441320
H355	H	1.295123	-0.562179	0.691320
H356	H	1.545123	-0.312179	0.941320
H357	H	0.839853	-1.140417	0.184805
H358	H	1.089853	-0.890417	0.434805
H359	H	1.339853	-0.640417	0.684805
H360	H	1.589853	-0.390417	0.934805
H361	H	0.788560	-1.140448	0.236029
H362	H	1.038560	-0.890448	0.486029
H363	H	1.288560	-0.640448	0.736029
H364	H	1.538560	-0.390448	0.986029
H365	H	0.965097	-0.329651	0.527829
H366	H	1.215097	-0.079651	0.777829
H367	H	1.465097	0.170349	1.027829
H368	H	1.715097	0.420349	1.277829
H369	H	0.323068	-0.581840	0.269416
H370	H	0.573068	-0.331840	0.519416
H371	H	0.823068	-0.081840	0.769416
H372	H	1.073068	0.168160	1.019416
H373	H	0.965096	-0.329584	0.646538
H374	H	1.215096	-0.079584	0.896538
H375	H	1.465096	0.170416	1.146538
H376	H	1.715096	0.420416	1.396538
C377	C	0.450182	-0.605094	0.267029
C378	C	0.700182	-0.355094	0.517029
C379	C	0.950182	-0.105094	0.767029
C380	C	1.200182	0.144906	1.017029
H381	H	0.494310	-0.593464	0.268207
H382	H	0.744310	-0.343464	0.518207
H383	H	0.994310	-0.093464	0.768207
H384	H	1.244310	0.156536	1.018207
H385	H	0.437934	-0.643118	0.299541
H386	H	0.687934	-0.393118	0.549541
H387	H	0.937934	-0.143118	0.799541
H388	H	1.187934	0.106882	1.049541
H389	H	0.438270	-0.633855	0.227693
H390	H	0.688270	-0.383855	0.477693
H391	H	0.938270	-0.133855	0.727693
H392	H	1.188270	0.116145	0.977693
H393	H	0.903098	-0.286763	0.731338
H394	H	1.153098	-0.036763	0.981338
H395	H	1.403098	0.213237	1.231338
H396	H	1.653098	0.463237	1.481338
H397	H	0.645301	-0.538979	0.207415
H398	H	0.895301	-0.288979	0.457415
H399	H	1.145301	-0.038979	0.707415
H400	H	1.395301	0.211021	0.957415
C401	C	0.977223	-0.312963	0.922785
C402	C	1.227223	-0.062963	1.172785
C403	C	1.477223	0.187037	1.422785
C404	C	1.727223	0.437037	1.672785
H405	H	0.971155	-0.321257	0.878795
H406	H	1.221155	-0.071257	1.128795
H407	H	1.471155	0.178743	1.378795
H408	H	1.721155	0.428743	1.628795
H409	H	0.970500	-0.252340	0.935932
H410	H	1.220500	-0.002340	1.185932
H411	H	1.470500	0.247660	1.435932
H412	H	1.720500	0.497660	1.685932
H413	H	1.018791	-0.326157	0.932999
H414	H	1.268791	-0.076157	1.182999
H415	H	1.518791	0.173843	1.432999
H416	H	1.768791	0.423843	1.682999
C417	C	0.977227	-0.312892	1.060199
C418	C	1.227227	-0.062892	1.310199
C419	C	1.477227	0.187108	1.560199
C420	C	1.727227	0.437108	1.810199
H421	H	1.002483	-0.278546	1.032728
H422	H	1.252483	-0.028546	1.282728
H423	H	1.502483	0.221454	1.532728
H424	H	1.752483	0.471454	1.782728
H425	H	0.954850	-0.273570	1.087291
H426	H	1.204850	-0.023570	1.337291
H427	H	1.454850	0.226430	1.587291
H428	H	1.704850	0.476430	1.837291
H429	H	1.003134	-0.347395	1.084353
H430	H	1.253134	-0.097395	1.334353
H431	H	1.503134	0.152605	1.584353
H432	H	1.753134	0.402605	1.834353
C433	C	0.112938	-0.555310	0.195341
C434	C	0.362938	-0.305310	0.445341
C435	C	0.612938	-0.055310	0.695341
C436	C	0.862938	0.194690	0.945341
H437	H	0.069620	-0.547054	0.201428
H438	H	0.319620	-0.297054	0.451428
H439	H	0.569620	-0.047054	0.701428
H440	H	0.819620	0.202946	0.951428
H441	H	0.124178	-0.542026	0.153791
H442	H	0.374178	-0.292026	0.403791
H443	H	0.624178	-0.042026	0.653791
H444	H	0.874178	0.207974	0.903791
H445	H	0.121205	-0.615954	0.202011
H446	H	0.371205	-0.365954	0.452011
H447	H	0.621205	-0.115954	0.702011
H448	H	0.871205	0.134046	0.952011
H449	H	0.811248	-0.538981	0.638094
H450	H	1.061248	-0.288981	0.888094
H451	H	1.311248	-0.038981	1.138094
H452	H	1.561248	0.211019	1.388094
H453	H	0.811260	-0.538778	1.041739
H454	H	1.061260	-0.288778	1.291739
H455	H	1.311260	-0.038778	1.541739
H456	H	1.561260	0.211222	1.791739
C457	C	0.799148	-0.555340	0.913009
C458	C	1.049148	-0.305340	1.163009
C459	C	1.299148	-0.055340	1.413009
C460	C	1.549148	0.194660	1.663009
H461	H	0.773901	-0.589702	0.940479
H462	H	1.023901	-0.339702	1.190479
H463	H	1.273901	-0.089702	1.440479
H464	H	1.523901	0.160298	1.690479
H465	H	0.773240	-0.520847	0.888854
H466	H	1.023240	-0.270847	1.138854
H467	H	1.273240	-0.020847	1.388854
H468	H	1.523240	0.229153	1.638854
H469	H	0.821531	-0.594661	0.885918
H470	H	1.071531	-0.344661	1.135918
H471	H	1.321531	-0.094661	1.385918
H472	H	1.571531	0.155339	1.635918
C473	C	0.464056	-0.263727	0.301894
C474	C	0.714056	-0.013727	0.551894
C475	C	0.964056	0.236273	0.801894
C476	C	1.214056	0.486273	1.051894
H477	H	0.507237	-0.275383	0.300706
H478	H	0.757237	-0.025383	0.550706
H479	H	1.007237	0.224617	0.800706
H480	H	1.257237	0.474617	1.050706
H481	H	0.454860	-0.225699	0.269384
H482	H	0.704860	0.024301	0.519384
H483	H	0.954860	0.274301	0.769384
H484	H	1.204860	0.524301	1.019384
H485	H	0.454522	-0.234957	0.341232
H486	H	0.704522	0.015043	0.591232
H487	H	0.954522	0.265043	0.841232
H488	H	1.204522	0.515043	1.091232
C489	C	0.782895	-0.962428	0.179075
C490	C	1.032895	-0.712428	0.429075
C491	C	1.282895	-0.462428	0.679075
C492	C	1.532895	-0.212428	0.929075
H493	H	0.760690	-0.920930	0.156849
H494	H	1.010690	-0.670930	0.406849
H495	H	1.260690	-0.420930	0.656849
H496	H	1.510690	-0.170930	0.906849
H497	H	0.805419	-0.999168	0.150333
H498	H	1.055419	-0.749168	0.400333
H499	H	1.305419	-0.499168	0.650333
H500	H	1.555419	-0.249168	0.900333
H501	H	0.754119	-0.999208	0.201551
H502	H	1.004119	-0.749208	0.451551
H503	H	1.254119	-0.499208	0.701551
H504	H	1.504119	-0.249208	0.951551
C505	C	0.870926	-0.604895	0.846642
C506	C	1.120926	-0.354895	1.096642
C507	C	1.370926	-0.104895	1.346642
C508	C	1.620926	0.145105	1.596642
H509	H	0.872115	-0.593235	0.890766
H510	H	1.122115	-0.343235	1.140766
H511	H	1.372115	-0.093235	1.390766
H512	H	1.622115	0.156765	1.640766
H513	H	0.831617	-0.633762	0.834750
H514	H	1.081617	-0.383762	1.084750
H515	H	1.331617	-0.133762	1.334750
H516	H	1.581617	0.116238	1.584750
H517	H	0.903482	-0.642839	0.834407
H518	H	1.153482	-0.392839	1.084407
H519	H	1.403482	-0.142839	1.334407
H520	H	1.653482	0.107161	1.584407
H521	H	0.131523	-0.329782	0.361502
H522	H	0.381523	-0.079782	0.611502
H523	H	0.631523	0.170218	0.861502
H524	H	0.881523	0.420218	1.111502
H525	H	0.873096	-0.581716	0.719514
H526	H	1.123096	-0.331716	0.969514
H527	H	1.373096	-0.081716	1.219514
H528	H	1.623096	0.168284	1.469514
C529	C	0.958958	-0.764166	0.355461
C530	C	1.208958	-0.514166	0.605461
C531	C	1.458958	-0.264166	0.855461
C532	C	1.708958	-0.014166	1.105461
H533	H	0.981154	-0.805664	0.377697
H534	H	1.231154	-0.555664	0.627697
H535	H	1.481154	-0.305664	0.877697
H536	H	1.731154	-0.055664	1.127697
H537	H	0.987735	-0.727374	0.333001
H538	H	1.237735	-0.477374	0.583001
H539	H	1.487735	-0.227374	0.833001
H540	H	1.737735	0.022626	1.083001
H541	H	0.936420	-0.727436	0.384204
H542	H	1.186420	-0.477436	0.634204
H543	H	1.436420	-0.227436	0.884204
H544	H	1.686420	0.022564	1.134204
C545	C	0.526476	-0.313449	0.373610
C546	C	0.776476	-0.063449	0.623610
C547	C	1.026476	0.186551	0.873610
C548	C	1.276476	0.436551	1.123610
H549	H	0.556736	-0.279152	0.398897
H550	H	0.806736	-0.029152	0.648897
H551	H	1.056736	0.220848	0.898897
H552	H	1.306736	0.470848	1.148897
H553	H	0.502532	-0.274078	0.351279
H554	H	0.752532	-0.024078	0.601279
H555	H	1.002532	0.225922	0.851279
H556	H	1.252532	0.475922	1.101279
H557	H	0.499565	-0.348034	0.399480
H558	H	0.749565	-0.098034	0.649480
H559	H	0.999565	0.151966	0.899480
H560	H	1.249565	0.401966	1.149480
C561	C	0.799124	-0.555533	0.509358
C562	C	1.049124	-0.305533	0.759358
C563	C	1.299124	-0.055533	1.009358
C564	C	1.549124	0.194467	1.259358
H565	H	0.805193	-0.547286	0.466035
H566	H	1.055193	-0.297286	0.716035
H567	H	1.305193	-0.047286	0.966035
H568	H	1.555193	0.202714	1.216035
H569	H	0.805846	-0.616146	0.517657
H570	H	1.055846	-0.366146	0.767657
H571	H	1.305846	-0.116146	1.017657
H572	H	1.555846	0.133854	1.267657
H573	H	0.757557	-0.542327	0.520592
H574	H	1.007557	-0.292327	0.770592
H575	H	1.257557	-0.042327	1.020592
H576	H	1.507557	0.207673	1.270592
C577	C	0.663886	-0.313481	0.373595
C578	C	0.913886	-0.063481	0.623595
C579	C	1.163886	0.186519	0.873595
C580	C	1.413886	0.436519	1.123595
H581	H	0.707204	-0.321746	0.367516
H582	H	0.957204	-0.071746	0.617516
H583	H	1.207204	0.178254	0.867516
H584	H	1.457204	0.428254	1.117516
H585	H	0.655620	-0.252838	0.366938
H586	H	0.905620	-0.002838	0.616938
H587	H	1.155620	0.247162	0.866938
H588	H	1.405620	0.497162	1.116938
H589	H	0.652643	-0.326784	0.415145
H590	H	0.902643	-0.076784	0.665145
H591	H	1.152643	0.173216	0.915145
H592	H	1.402643	0.423216	1.165145
C593	C	0.326647	-0.263683	0.301906
C594	C	0.576647	-0.013683	0.551906
C595	C	0.826647	0.236317	0.801906
C596	C	1.076647	0.486317	1.051906
H597	H	0.282518	-0.275309	0.300715
H598	H	0.532518	-0.025309	0.550715
H599	H	0.782518	0.224691	0.800715
H600	H	1.032518	0.474691	1.050715
H601	H	0.338557	-0.234920	0.341238
H602	H	0.588557	0.015080	0.591238
H603	H	0.838557	0.265080	0.841238
H604	H	1.088557	0.515080	1.091238
H605	H	0.338898	-0.225660	0.269391
H606	H	0.588898	0.024340	0.519391
H607	H	0.838898	0.274340	0.769391
H608	H	1.088898	0.524340	1.019391
C609	C	0.260253	-0.313363	0.373627
C610	C	0.510253	-0.063363	0.623627
C611	C	0.760253	0.186637	0.873627
C612	C	1.010253	0.436637	1.123627
H613	H	0.232802	-0.279035	0.398906
H614	H	0.482802	-0.029035	0.648906
H615	H	0.732802	0.220965	0.898906
H616	H	0.982802	0.470965	1.148906
H617	H	0.284387	-0.347940	0.399496
H618	H	0.534387	-0.097940	0.649496
H619	H	0.784387	0.152060	0.899496
H620	H	1.034387	0.402060	1.149496
H621	H	0.287365	-0.274006	0.351280
H622	H	0.537365	-0.024006	0.601280
H623	H	0.787365	0.225994	0.851280
H624	H	1.037365	0.475994	1.101280
