data_functionalizedCrystal
_audit_creation_method	'MofGen! by Chris Wilmer'
_symmetry_space_group_name_H-M	'P1'
_symmetry_Int_Tables_number	1
_symmetry_cell_setting	triclinic
loop_
_symmetry_equiv_pos_as_xyz
  x,y,z
_cell_length_a	16.109301
_cell_length_b	13.596369
_cell_length_c	16.109301
_cell_angle_alpha	90.007411
_cell_angle_beta	83.461481
_cell_angle_gamma	90.002607
loop_
_atom_site_label
_atom_site_type_symbol
_atom_site_fract_x
_atom_site_fract_y
_atom_site_fract_z
O1	O	1.103133	0.081732	0.106869
O2	O	1.603133	0.581732	0.606869
O3	O	0.861071	0.081748	0.120168
O4	O	1.361071	0.581748	0.620168
O5	O	0.988751	0.081730	-0.007513
O6	O	1.488751	0.581730	0.492487
O7	O	0.975452	0.081751	0.234549
O8	O	1.475452	0.581751	0.734549
O9	O	0.988739	-0.081853	-0.007520
O10	O	1.488739	0.418147	0.492480
O11	O	0.861058	-0.081835	0.120161
O12	O	1.361058	0.418165	0.620161
O13	O	1.103120	-0.081851	0.106862
O14	O	1.603120	0.418149	0.606862
Zn15	Zn	0.982087	-0.107815	0.113510
Zn16	Zn	1.482087	0.392185	0.613510
Zn17	Zn	0.982104	0.107713	0.113519
Zn18	Zn	1.482104	0.607713	0.613519
O19	O	0.975439	-0.081832	0.234542
O20	O	1.475439	0.418168	0.734542
C21	C	0.830090	-0.000041	0.119626
C22	C	1.330090	0.499959	0.619626
C23	C	0.737794	-0.000035	0.118011
C24	C	1.237794	0.499965	0.618011
N25	N	0.982082	-0.254907	0.113504
N26	N	1.482082	0.245093	0.613504
C27	C	0.515522	-0.000041	0.190018
C28	C	1.015522	0.499959	0.690018
C29	C	0.428801	-0.000047	0.188494
C30	C	0.928801	0.499953	0.688494
C31	C	0.448676	-0.000056	0.037006
C32	C	0.948676	0.499944	0.537006
C33	C	0.535394	-0.000057	0.038530
C34	C	1.035394	0.499943	0.538530
C35	C	0.568815	-0.000044	0.115039
C36	C	1.068815	0.499956	0.615039
C37	C	0.395376	-0.000050	0.111990
C38	C	0.895376	0.499950	0.611990
C39	C	0.301350	-0.000057	0.110337
C40	C	0.801350	0.499943	0.610337
C41	C	0.662847	-0.000039	0.116693
C42	C	1.162847	0.499961	0.616693
C43	C	0.982103	-0.656198	0.113520
C44	C	1.482103	-0.156198	0.613520
C45	C	0.982094	-0.544546	0.113518
C46	C	1.482094	-0.044546	0.613518
C47	C	0.982093	-0.455556	0.113513
C48	C	1.482093	0.044444	0.613513
C49	C	0.982083	-0.343897	0.113510
C50	C	1.482083	0.156103	0.613510
C51	C	1.134101	-0.000059	0.107404
C52	C	1.634101	0.499941	0.607404
C53	C	1.226397	-0.000058	0.109019
C54	C	1.726397	0.499942	0.609019
C55	C	0.988206	-0.000062	-0.038491
C56	C	1.488206	0.499938	0.461509
C57	C	0.986591	-0.000063	-0.130786
C58	C	1.486591	0.499937	0.369214
N59	N	0.982116	0.254805	0.113519
N60	N	1.482116	0.754805	0.613519
C61	C	1.058599	-0.000052	-0.353059
C62	C	1.558599	0.499948	0.146941
C63	C	1.057075	-0.000044	-0.439779
C64	C	1.557075	0.499956	0.060221
C65	C	0.905586	-0.000038	-0.419905
C66	C	1.405586	0.499962	0.080095
C67	C	0.907111	-0.000039	-0.333186
C68	C	1.407111	0.499961	0.166814
C69	C	0.983620	-0.000051	-0.299766
C70	C	1.483620	0.499949	0.200234
C71	C	0.980571	-0.000042	-0.473205
C72	C	1.480571	0.499958	0.026795
C73	C	0.978918	-0.000033	-0.567231
C74	C	1.478918	0.499967	-0.067231
C75	C	0.985273	-0.000058	-0.205734
C76	C	1.485273	0.499942	0.294266
C77	C	0.975984	-0.000038	0.265521
C78	C	1.475984	0.499962	0.765521
C79	C	0.977600	-0.000030	0.357816
C80	C	1.477600	0.499970	0.857816
H81	H	0.542730	-0.000038	0.252317
H82	H	1.042730	0.499962	0.752317
F83	F	0.372086	-0.000045	0.268298
F84	F	0.872086	0.499955	0.768298
F85	F	0.413100	-0.000065	-0.044416
F86	F	0.913100	0.499935	0.455584
F87	F	1.136878	-0.000043	-0.496495
F88	F	1.636878	0.499957	0.003505
H89	H	0.578788	-0.000062	-0.022530
H90	H	1.078788	0.499938	0.477470
F91	F	1.140026	-0.000064	-0.317493
F92	F	1.640026	0.499936	0.182507
F93	F	0.824164	-0.000025	-0.455481
F94	F	1.324164	0.499975	0.044519
F95	F	0.827304	-0.000031	-0.276464
F96	F	1.327304	0.499969	0.223536
