data_functionalizedCrystal
_audit_creation_method	'MofGen! by Chris Wilmer'
_symmetry_space_group_name_H-M	'P1'
_symmetry_Int_Tables_number	1
_symmetry_cell_setting	triclinic
loop_
_symmetry_equiv_pos_as_xyz
  x,y,z
_cell_length_a	14.044191
_cell_length_b	10.489716
_cell_length_c	12.503572
_cell_angle_alpha	93.562900
_cell_angle_beta	86.162165
_cell_angle_gamma	88.860456
loop_
_atom_site_label
_atom_site_type_symbol
_atom_site_fract_x
_atom_site_fract_y
_atom_site_fract_z
O1	O	1.265205	0.301031	-0.089250
O2	O	1.765205	0.801031	0.410750
O3	O	0.989161	0.289915	-0.089265
O4	O	1.489161	0.789915	0.410735
O5	O	1.133477	0.110512	-0.089261
O6	O	1.633477	0.610512	0.410739
O7	O	1.120890	0.480435	-0.089254
O8	O	1.620890	0.980435	0.410746
O9	O	1.122624	0.124028	0.089381
O10	O	1.622624	0.624028	0.589381
O11	O	0.978308	0.303432	0.089377
O12	O	1.478308	0.803432	0.589377
O13	O	1.254352	0.314548	0.089391
O14	O	1.754352	0.814548	0.589391
Cu15	Cu	1.115339	0.310224	0.105696
Cu16	Cu	1.615339	0.810224	0.605696
Cu17	Cu	1.128174	0.294239	-0.105569
Cu18	Cu	1.628174	0.794239	0.394431
O19	O	1.110036	0.493951	0.089388
O20	O	1.610036	0.993951	0.589388
C21	C	0.948388	0.291811	0.000054
C22	C	1.448388	0.791811	0.500054
C23	C	0.843064	0.277308	0.000048
C24	C	1.343064	0.777308	0.500048
C25	C	1.127105	0.069642	0.000056
C26	C	1.627105	0.569642	0.500056
C27	C	1.124276	-0.072277	0.000047
C28	C	1.624276	0.427723	0.500047
C29	C	0.593293	0.353654	0.000060
C30	C	1.093293	0.853654	0.500060
C31	C	0.650227	0.250814	0.000057
C32	C	1.150227	0.750814	0.500057
C33	C	0.757531	0.265558	0.000052
C34	C	1.257531	0.765558	0.500052
C35	C	0.485978	0.338912	0.000065
C36	C	0.985978	0.838912	0.500065
C37	C	1.212774	-0.160971	0.000061
C38	C	1.712774	0.339029	0.500061
C39	C	1.171360	-0.249741	-0.088018
C40	C	1.671360	0.250259	0.411982
C41	C	1.160640	-0.236380	0.088108
C42	C	1.660640	0.263620	0.588108
C43	C	1.082904	-0.159183	-0.088106
C44	C	1.582904	0.340817	0.411894
C45	C	1.072191	-0.145810	0.088100
C46	C	1.572191	0.354190	0.588100
C47	C	1.030714	-0.234539	-0.000001
C48	C	1.530714	0.265461	0.499999
C49	C	1.295126	0.312651	0.000070
C50	C	1.795126	0.812651	0.500070
C51	C	1.400450	0.327155	0.000069
C52	C	1.900450	0.827155	0.500069
C53	C	1.116409	0.534821	0.000068
C54	C	1.616409	1.034821	0.500068
C55	C	1.119238	0.676740	0.000071
C56	C	1.619238	1.176740	0.500071
N57	N	1.106318	0.321467	0.254288
N58	N	1.606318	0.821467	0.754288
N59	N	1.137202	0.282987	-0.254161
N60	N	1.637202	0.782987	0.245839
C61	C	1.093049	0.338017	0.473402
C62	C	1.593049	0.838017	0.973402
C63	C	1.150469	0.266441	0.526731
C64	C	1.650469	0.766441	1.026731
C65	C	1.143086	0.275649	0.648654
C66	C	1.643086	0.775649	1.148654
C67	C	1.100431	0.328810	0.351468
C68	C	1.600431	0.828810	0.851468
H69	H	0.618386	0.151689	-0.000021
H70	H	1.118386	0.651689	0.499979
H71	H	1.289758	-0.128491	-0.000025
H72	H	1.789758	0.371509	0.499975
H73	H	0.625137	0.452765	0.000059
H74	H	1.125137	0.952765	0.500059
H75	H	1.213243	-0.295079	-0.162481
H76	H	1.713243	0.204921	0.337519
H77	H	1.205174	0.198248	0.480819
H78	H	1.705174	0.698248	0.980819
H79	H	1.038349	0.406207	0.519309
H80	H	1.538349	0.906207	1.019309
H81	H	1.030341	-0.100445	0.162565
H82	H	1.530341	0.399555	0.662565
H83	H	0.953680	-0.266790	-0.000052
H84	H	1.453680	0.233210	0.499948
H85	H	1.050094	-0.125308	-0.162652
H86	H	1.550094	0.374692	0.337348
H87	H	1.193493	-0.270426	0.162571
H88	H	1.693493	0.229574	0.662571
