data_functionalizedCrystal
_audit_creation_method	'MofGen! by Chris Wilmer'
_symmetry_space_group_name_H-M	'P1'
_symmetry_Int_Tables_number	1
_symmetry_cell_setting	triclinic
loop_
_symmetry_equiv_pos_as_xyz
  x,y,z
_cell_length_a	6.817900
_cell_length_b	11.168121
_cell_length_c	16.015572
_cell_angle_alpha	76.765931
_cell_angle_beta	104.485554
_cell_angle_gamma	108.508496
loop_
_atom_site_label
_atom_site_type_symbol
_atom_site_fract_x
_atom_site_fract_y
_atom_site_fract_z
V1	V	-3.999072	-0.050929	-0.269395
O2	O	-3.960769	0.129811	-0.264259
O3	O	-3.976115	-0.223478	-0.267560
O4	O	-3.927036	0.005739	-0.386884
O5	O	-4.010187	-0.100993	-0.144109
V6	V	-4.482466	-0.035914	-0.254409
O7	O	-4.260614	-0.083867	-0.302268
O8	O	-4.671122	-0.002977	-0.221536
O9	O	-4.282217	0.136635	-0.256244
O10	O	-4.638166	-0.216654	-0.259545
O11	O	-4.588748	0.014149	-0.379695
O12	O	-4.331295	-0.092583	-0.136920
C13	C	-3.828070	-0.267288	-0.263312
C14	C	-3.890428	-0.407989	-0.262594
C15	C	-4.091383	-0.474945	-0.266372
C16	C	-4.155839	-0.620367	-0.265631
C17	C	-3.765464	0.025102	-0.415521
C18	C	-3.788019	0.070293	-0.511569
C19	C	-4.135798	-0.330821	-0.889218
C20	C	-4.156989	-0.288316	-0.979466
C21	C	-4.047576	-0.068411	-0.954750
C22	C	-4.026364	-0.110897	-0.864498
C23	C	-4.070481	-0.242103	-0.831740
C24	C	-3.961048	-0.022180	-0.807020
C25	C	-3.939849	-0.064663	-0.716776
C26	C	-3.983967	-0.195864	-0.684011
C27	C	-4.049283	-0.284587	-0.741497
C28	C	-3.916947	0.109026	-0.839780
C29	C	-3.851630	0.197743	-0.782302
C30	C	-3.830416	0.155261	-0.692056
C31	C	-3.874533	0.024060	-0.659291
C32	C	-3.765100	0.243983	-0.634571
C33	C	-3.743901	0.201500	-0.544327
C34	C	-3.853335	-0.018424	-0.569047
C35	C	-4.093605	0.180437	-0.260490
C36	C	-4.010484	0.321139	-0.261213
C37	C	-4.156211	-0.111952	-0.108278
C38	C	-4.112894	-0.157137	-0.012230
H39	H	-3.889232	-0.125265	-0.542374
H40	H	-4.327987	-0.677934	-0.268855
H41	H	-3.838327	-0.621305	-0.257976
H42	H	-4.210170	-0.360570	-1.026264
C43	C	-4.457374	-0.496727	-0.274821
C44	C	-4.259239	-0.407011	-0.271473
H45	H	-4.561004	-0.454786	-0.277973
H46	H	-4.455322	-0.559834	-0.223768
H47	H	-4.490182	-0.536391	-0.325005
H48	H	-4.226425	-0.367353	-0.221285
H49	H	-4.261288	-0.343881	-0.322532
C50	C	-4.095595	-0.200898	-0.552147
C51	C	-3.960664	-0.242568	-0.584814
H52	H	-4.081195	-0.229726	-0.490906
H53	H	-4.237114	-0.234642	-0.579934
H54	H	-4.059955	-0.110060	-0.563434
H55	H	-3.996314	-0.333406	-0.573532
H56	H	-3.819114	-0.208830	-0.557017
H57	H	-4.171695	-0.437661	-0.862545
C58	C	-4.158551	-0.497696	-0.774962
C59	C	-4.097065	-0.428796	-0.705463
H60	H	-4.187851	-0.586714	-0.752708
H61	H	-4.048116	-0.473494	-0.806919
H62	H	-4.281410	-0.479620	-0.812383
H63	H	-3.974196	-0.446864	-0.668045
H64	H	-4.207509	-0.453007	-0.673491
H65	H	-4.011669	0.038418	-0.981435
H66	H	-3.934179	0.143613	-0.913263
C67	C	-3.936695	0.394234	-0.793167
C68	C	-3.803156	0.341961	-0.818320
H69	H	-3.906773	0.483267	-0.815408
H70	H	-3.914698	0.381637	-0.731202
H71	H	-4.079181	0.353262	-0.815846
H72	H	-3.660669	0.382927	-0.795636
H73	H	-3.825136	0.354568	-0.880298
H74	H	-3.766103	-0.458324	-0.258816
C75	C	-3.850195	0.440462	-0.645435
C76	C	-3.716646	0.388200	-0.670592
H77	H	-3.820291	0.529494	-0.667679
H78	H	-3.828189	0.427868	-0.583470
H79	H	-3.992680	0.399480	-0.668110
H80	H	-3.574161	0.429176	-0.647911
H81	H	-3.738635	0.400804	-0.732569
C82	C	-3.828357	0.277266	-0.432640
C83	C	-3.672095	0.299014	-0.481139
H84	H	-3.784032	0.337474	-0.393634
H85	H	-3.851585	0.193056	-0.400220
H86	H	-3.955424	0.286541	-0.471178
H87	H	-3.545032	0.289730	-0.442601
H88	H	-3.648840	0.383245	-0.513561
