data_functionalizedCrystal
_audit_creation_method	'MofGen! by Chris Wilmer'
_symmetry_space_group_name_H-M	'P1'
_symmetry_Int_Tables_number	1
_symmetry_cell_setting	triclinic
loop_
_symmetry_equiv_pos_as_xyz
  x,y,z
_cell_length_a	11.026607
_cell_length_b	10.723024
_cell_length_c	9.198806
_cell_angle_alpha	89.996352
_cell_angle_beta	90.001089
_cell_angle_gamma	83.473057
loop_
_atom_site_label
_atom_site_type_symbol
_atom_site_fract_x
_atom_site_fract_y
_atom_site_fract_z
O1	O	0.170518	-1.693992	0.120878
O2	O	0.186840	-1.334363	0.120883
O3	O	0.001778	-1.484372	0.120876
O4	O	0.355580	-1.543983	0.120886
O5	O	0.001777	-1.484357	-0.120909
O6	O	0.186840	-1.334348	-0.120902
O7	O	0.170518	-1.693977	-0.120907
Cu8	Cu	0.178679	-1.514161	-0.142981
Cu9	Cu	0.178679	-1.514179	0.142958
O10	O	0.355580	-1.543968	-0.120899
C11	C	-0.043525	-1.473367	-0.000015
C12	C	-0.178512	-1.440584	-0.000009
C13	C	0.185652	-1.287599	-0.000009
C14	C	0.182098	-1.148278	-0.000007
C15	C	0.171706	-1.740741	-0.000011
C16	C	0.175259	-1.880062	-0.000004
C17	C	-0.251564	-1.531104	-0.000008
C18	C	-0.391080	-1.497223	-0.000003
C19	C	0.400883	-1.554973	-0.000006
C20	C	0.535869	-1.587756	-0.000002
N21	N	0.178677	-1.514157	-0.344095
C22	C	0.285649	-1.095646	-0.000003
C23	C	0.281979	-0.951650	-0.000001
C24	C	0.100633	-1.577068	-0.416295
C25	C	0.100628	-1.577086	-0.583707
N26	N	0.178671	-1.514191	0.344072
H27	H	-0.210818	-1.633684	-0.000019
H28	H	0.090727	-1.086734	0.000028
O29	O	0.406686	-1.177161	-0.000003
H30	H	0.459122	-1.156892	-0.098556
H31	H	-0.423393	-1.690344	0.000106
O32	O	-0.445027	-1.361330	-0.000010
H33	H	-0.546142	-1.356043	-0.000020
H34	H	-0.219257	-1.338003	0.000002
O35	O	0.399407	-0.891652	-0.000006
H36	H	0.453128	-0.921491	0.098546
H37	H	0.033815	-1.630952	-0.645796
O38	O	0.057822	-0.940045	-0.000023
H39	H	0.054123	-0.999237	0.098515
H40	H	0.033813	-1.630909	-0.354172
H41	H	0.245496	-1.460333	-0.593849
O42	O	0.267205	-1.442838	-0.426358
H43	H	0.215626	-1.370504	-0.495733
