data_functionalizedCrystal
_audit_creation_method	'MofGen! by Chris Wilmer'
_symmetry_space_group_name_H-M	'P1'
_symmetry_Int_Tables_number	1
_symmetry_cell_setting	triclinic
loop_
_symmetry_equiv_pos_as_xyz
  x,y,z
_cell_length_a	14.853566
_cell_length_b	11.792254
_cell_length_c	13.930277
_cell_angle_alpha	89.995290
_cell_angle_beta	89.995631
_cell_angle_gamma	83.916506
loop_
_atom_site_label
_atom_site_type_symbol
_atom_site_fract_x
_atom_site_fract_y
_atom_site_fract_z
O1	O	1.196951	0.148173	-0.079768
O2	O	1.696951	0.648173	0.420232
O3	O	0.934561	0.165827	-0.079784
O4	O	1.434561	0.665827	0.420216
O5	O	1.072118	-0.008209	-0.079769
O6	O	1.572118	0.491791	0.420231
O7	O	1.059395	0.322209	-0.079783
O8	O	1.559395	0.822209	0.420217
O9	O	1.072098	-0.008212	0.079893
O10	O	1.572098	0.491788	0.579893
O11	O	0.934542	0.165823	0.079878
O12	O	1.434542	0.665823	0.579878
O13	O	1.196932	0.148170	0.079894
O14	O	1.696932	0.648170	0.579894
Zn15	Zn	1.065734	0.156996	0.105236
Zn16	Zn	1.565734	0.656996	0.605236
Zn17	Zn	1.065759	0.157001	-0.105126
Zn18	Zn	1.565759	0.657001	0.394874
O19	O	1.059375	0.322205	0.079879
O20	O	1.559375	0.822205	0.579879
C21	C	0.900960	0.165025	0.000045
C22	C	1.400960	0.665025	0.500045
C23	C	0.800866	0.162629	0.000039
C24	C	1.300866	0.662629	0.500039
C25	C	0.377652	0.152496	-0.086975
C26	C	0.877652	0.652496	0.413025
C27	C	0.377653	0.152493	0.087094
C28	C	0.877653	0.652493	0.587094
C29	C	0.471695	0.154743	0.087091
C30	C	0.971695	0.654743	0.587091
C31	C	0.518721	0.155871	0.000054
C32	C	1.018721	0.655871	0.500054
C33	C	0.471703	0.154750	-0.086981
C34	C	0.971703	0.654750	0.413019
C35	C	0.518719	0.155876	0.174124
C36	C	1.018719	0.655876	0.674124
C37	C	0.612767	0.158128	0.174125
C38	C	1.112767	0.658128	0.674125
C39	C	0.659795	0.159248	0.087086
C40	C	1.159795	0.659248	0.587086
C41	C	0.612772	0.158125	0.000048
C42	C	1.112772	0.658125	0.500048
C43	C	0.659798	0.159254	-0.086990
C44	C	1.159798	0.659254	0.413010
C45	C	0.612777	0.158123	-0.174029
C46	C	1.112777	0.658123	0.325971
C47	C	0.518731	0.155870	-0.174019
C48	C	1.018731	0.655870	0.325981
C49	C	0.753841	0.161501	0.087077
C50	C	1.253841	0.661501	0.587077
C51	C	0.753849	0.161508	-0.086995
C52	C	1.253849	0.661508	0.413005
C53	C	1.071307	-0.050496	0.000062
C54	C	1.571307	0.449504	0.500062
C55	C	1.068908	-0.176495	0.000061
C56	C	1.568908	0.323505	0.500061
C57	C	1.066959	-0.278819	0.000057
C58	C	1.566959	0.221181	0.500057
C59	C	1.064521	-0.407191	0.000048
C60	C	1.564521	0.092809	0.500048
C61	C	1.230534	0.148971	0.000063
C62	C	1.730534	0.648971	0.500063
C63	C	1.330627	0.151367	0.000063
C64	C	1.830627	0.651367	0.500063
C65	C	1.060186	0.364493	0.000046
C66	C	1.560186	0.864493	0.500046
C67	C	1.062585	0.490491	0.000041
C68	C	1.562585	0.990491	0.500041
N69	N	1.065723	0.156992	0.248802
N70	N	1.565723	0.656992	0.748802
N71	N	1.065777	0.156996	-0.248692
N72	N	1.565777	0.656996	0.251308
C73	C	1.004847	0.234033	0.701065
C74	C	1.504847	0.734033	1.201065
C75	C	1.126697	0.079959	0.701047
C76	C	1.626697	0.579959	1.201047
C77	C	1.126686	0.079956	0.600552
C78	C	1.626686	0.579956	1.100552
C79	C	1.065756	0.156993	0.550308
C80	C	1.565756	0.656993	1.050308
C81	C	1.004836	0.234034	0.600559
C82	C	1.504836	0.734034	1.100559
C83	C	1.187611	0.002924	0.550292
C84	C	1.687611	0.502924	1.050292
C85	C	1.187603	0.002918	0.449790
C86	C	1.687603	0.502918	0.949790
C87	C	1.126667	0.079951	0.399545
C88	C	1.626667	0.579951	0.899545
C89	C	1.065745	0.156994	0.449803
C90	C	1.565745	0.656994	0.949803
C91	C	1.004814	0.234032	0.399559
C92	C	1.504814	0.734032	0.899559
C93	C	0.943886	0.311071	0.449815
C94	C	1.443886	0.811071	0.949815
C95	C	0.943900	0.311068	0.550314
C96	C	1.443900	0.811068	1.050314
C97	C	1.126654	0.079954	0.299046
C98	C	1.626654	0.579954	0.799046
C99	C	1.004803	0.234033	0.299054
C100	C	1.504803	0.734033	0.799054
H101	H	0.792131	0.162423	-0.157873
H102	H	1.292131	0.662423	0.342127
H103	H	0.651077	0.159049	-0.244895
H104	H	1.151077	0.659049	0.255105
H105	H	0.894280	0.373800	0.408895
H106	H	1.394280	0.873800	0.908895
H107	H	1.237212	-0.059812	0.408878
H108	H	1.737212	0.440188	0.908878
H109	H	0.339358	0.151582	0.157956
H110	H	0.839358	0.651582	0.657956
H111	H	0.955237	0.296755	0.741986
H112	H	1.455237	0.796755	1.241986
H113	H	0.955183	0.296763	0.258151
H114	H	1.455183	0.796763	0.758151
H115	H	0.480423	0.154965	0.244986
H116	H	0.980423	0.654965	0.744986
H117	H	0.480439	0.154948	-0.244882
H118	H	0.980439	0.654948	0.255118
H119	H	1.176309	0.017243	0.741959
H120	H	1.676309	0.517243	1.241959
H121	H	1.237223	-0.059793	0.591204
H122	H	1.737223	0.440207	1.091204
H123	H	0.894296	0.373791	0.591239
H124	H	1.394296	0.873791	1.091239
H125	H	0.792120	0.162433	0.157943
H126	H	1.292120	0.662433	0.657943
H127	H	1.176264	0.017235	0.258132
H128	H	1.676264	0.517235	0.758132
H129	H	0.651044	0.159046	0.244997
H130	H	1.151044	0.659046	0.744997
H131	H	0.339364	0.151570	-0.157840
H132	H	0.839364	0.651570	0.342160
