data_functionalizedCrystal
_audit_creation_method	'MofGen! by Chris Wilmer'
_symmetry_space_group_name_H-M	'P1'
_symmetry_Int_Tables_number	1
_symmetry_cell_setting	triclinic
loop_
_symmetry_equiv_pos_as_xyz
  x,y,z
_cell_length_a	10.489746
_cell_length_b	8.965430
_cell_length_c	16.109301
_cell_angle_alpha	89.997898
_cell_angle_beta	95.998609
_cell_angle_gamma	89.994189
loop_
_atom_site_label
_atom_site_type_symbol
_atom_site_fract_x
_atom_site_fract_y
_atom_site_fract_z
O1	O	1.692335	0.123944	-0.117315
O2	O	1.320980	0.123970	-0.128321
O3	O	1.516859	0.123941	-0.001850
O4	O	1.496456	0.123973	-0.243786
O5	O	1.516868	-0.124138	-0.001854
O6	O	1.320989	-0.124109	-0.128325
O7	O	1.692344	-0.124134	-0.117319
Cu8	Cu	1.506667	-0.146773	-0.122822
Cu9	Cu	1.506657	0.146609	-0.122818
O10	O	1.496465	-0.124106	-0.243790
C11	C	1.273465	-0.000066	-0.127491
C12	C	1.131872	-0.000057	-0.125001
C13	C	0.980203	-0.000089	-0.043058
C14	C	1.057007	-0.122395	-0.084028
C15	C	1.056953	0.122191	-0.084043
C16	C	0.956391	-0.122502	-0.161577
C17	C	0.956332	0.122195	-0.161581
C18	C	1.033086	-0.000141	-0.202609
N19	N	1.506684	-0.353122	-0.122825
C20	C	1.597301	-0.450402	-0.064341
C21	C	1.482050	-0.549801	-0.047501
C22	C	1.621891	-0.549851	-0.139611
C23	C	1.391375	-0.450332	-0.105948
C24	C	1.531292	-0.450374	-0.198091
C25	C	1.415958	-0.549728	-0.181283
C26	C	1.739859	-0.000095	-0.118149
C27	C	1.881452	-0.000094	-0.120639
C28	C	1.516037	-0.000099	0.029128
C29	C	1.513559	-0.000101	0.121438
N30	N	1.506650	0.352958	-0.122808
C31	C	1.497287	-0.000062	-0.274768
C32	C	1.499765	-0.000051	-0.367079
C33	C	1.624028	-0.000085	0.343029
C34	C	1.621690	-0.000072	0.429763
C35	C	1.389287	-0.000062	0.411324
C36	C	1.391626	-0.000064	0.324591
C37	C	1.509001	-0.000083	0.290446
C38	C	1.504323	-0.000069	0.463914
C39	C	1.501787	-0.000055	0.557956
C40	C	1.511537	-0.000093	0.196398
H41	H	0.956461	-0.000221	0.024402
H42	H	1.339228	-0.593065	-0.230737
H43	H	1.100868	0.225594	-0.051276
H44	H	1.293910	-0.406803	-0.091671
F45	F	1.264375	-0.000041	0.447672
F46	F	1.697369	-0.393392	0.000336
H47	H	1.100963	-0.225808	-0.051279
F48	F	1.454804	-0.606876	0.035704
F49	F	1.748948	-0.000103	0.306692
F50	F	0.899211	-0.257812	-0.204358
H51	H	1.552165	-0.406668	-0.261730
H52	H	1.715358	-0.000071	0.472573
H53	H	1.297951	-0.000058	0.281776
H54	H	1.056582	-0.000200	-0.270119
H55	H	0.912353	0.225612	-0.194301
F56	F	1.749253	-0.606996	-0.158177
