data_functionalizedCrystal
_audit_creation_method	'MofGen! by Chris Wilmer'
_symmetry_space_group_name_H-M	'P1'
_symmetry_Int_Tables_number	1
_symmetry_cell_setting	triclinic
loop_
_symmetry_equiv_pos_as_xyz
  x,y,z
_cell_length_a	21.395362
_cell_length_b	21.395361
_cell_length_c	21.395355
_cell_angle_alpha	89.978489
_cell_angle_beta	89.956060
_cell_angle_gamma	90.046585
loop_
_atom_site_label
_atom_site_type_symbol
_atom_site_fract_x
_atom_site_fract_y
_atom_site_fract_z
Zn1	Zn	0.957859	-0.249246	-0.354573
Zn2	Zn	1.207859	0.000754	-0.104573
Zn3	Zn	1.457859	0.250754	0.145427
Zn4	Zn	1.707859	0.500754	0.395427
Zn5	Zn	0.957762	-0.354005	-0.249790
Zn6	Zn	1.207762	-0.104005	0.000210
Zn7	Zn	1.457762	0.145995	0.250210
Zn8	Zn	1.707762	0.395995	0.500210
Zn9	Zn	0.853074	-0.249275	-0.249774
Zn10	Zn	1.103074	0.000725	0.000226
Zn11	Zn	1.353074	0.250725	0.250226
Zn12	Zn	1.603074	0.500725	0.500226
Zn13	Zn	0.853044	-0.354018	-0.354494
Zn14	Zn	1.103044	-0.104018	-0.104494
Zn15	Zn	1.353044	0.145982	0.145506
Zn16	Zn	1.603044	0.395982	0.395506
O17	O	0.905435	-0.301636	-0.302158
O18	O	1.155435	-0.051636	-0.052158
O19	O	1.405435	0.198364	0.197842
O20	O	1.655435	0.448364	0.447842
O21	O	1.045524	-0.263125	-0.340712
O22	O	1.295524	-0.013125	-0.090712
O23	O	1.545524	0.236875	0.159288
O24	O	1.795524	0.486875	0.409288
O25	O	0.943847	-0.340119	-0.162110
O26	O	1.193847	-0.090119	0.087890
O27	O	1.443847	0.159881	0.337890
O28	O	1.693847	0.409881	0.587890
O29	O	0.867028	-0.161593	-0.263702
O30	O	1.117028	0.088407	-0.013702
O31	O	1.367028	0.338407	0.236298
O32	O	1.617028	0.588407	0.486298
O33	O	1.045453	-0.340091	-0.263729
O34	O	1.295453	-0.090091	-0.013729
O35	O	1.545453	0.159909	0.236271
O36	O	1.795453	0.409909	0.486271
O37	O	0.944013	-0.161572	-0.340697
O38	O	1.194013	0.088428	-0.090697
O39	O	1.444013	0.338428	0.159303
O40	O	1.694013	0.588428	0.409303
O41	O	0.866934	-0.263174	-0.162098
O42	O	1.116934	-0.013174	0.087902
O43	O	1.366934	0.236826	0.337902
O44	O	1.616934	0.486826	0.587902
O45	O	0.765392	-0.263187	-0.263626
O46	O	1.015392	-0.013187	-0.013626
O47	O	1.265392	0.236813	0.236374
O48	O	1.515392	0.486813	0.486374
O49	O	0.866976	-0.340113	-0.442183
O50	O	1.116976	-0.090113	-0.192183
O51	O	1.366976	0.159887	0.057817
O52	O	1.616976	0.409887	0.307817
O53	O	0.765370	-0.340141	-0.340564
O54	O	1.015370	-0.090141	-0.090564
O55	O	1.265370	0.159859	0.159436
O56	O	1.515370	0.409859	0.409436
O57	O	0.943983	-0.263137	-0.442240
O58	O	1.193983	-0.013137	-0.192240
O59	O	1.443983	0.236863	0.057760
O60	O	1.693983	0.486863	0.307760
O61	O	0.943817	-0.441685	-0.263653
O62	O	1.193817	-0.191685	-0.013653
O63	O	1.443817	0.058315	0.236347
O64	O	1.693817	0.308315	0.486347
O65	O	0.866881	-0.441695	-0.340579
O66	O	1.116881	-0.191695	-0.090579
O67	O	1.366881	0.058305	0.159421
O68	O	1.616881	0.308305	0.409421
C69	C	0.742647	-0.301669	-0.302085
C70	C	0.992647	-0.051669	-0.052085
C71	C	1.242647	0.198331	0.197915
C72	C	1.492647	0.448331	0.447915
C73	C	0.673006	-0.301698	-0.302069
C74	C	0.923006	-0.051698	-0.052069
C75	C	1.173006	0.198302	0.197931
C76	C	1.423006	0.448302	0.447931
C77	C	0.905352	-0.464424	-0.302123
C78	C	1.155352	-0.214424	-0.052123
C79	C	1.405352	0.035576	0.197877
C80	C	1.655352	0.285576	0.447877
C81	C	0.905374	-0.534065	-0.302129
C82	C	1.155374	-0.284065	-0.052129
C83	C	1.405374	-0.034065	0.197871
C84	C	1.655374	0.215935	0.447871
C85	C	0.640297	-0.341822	-0.342070
C86	C	0.890297	-0.091822	-0.092070
C87	C	1.140297	0.158178	0.157930
C88	C	1.390297	0.408178	0.407930
C89	C	0.574862	-0.341806	-0.342098
C90	C	0.824862	-0.091806	-0.092098
C91	C	1.074862	0.158194	0.157902
C92	C	1.324862	0.408194	0.407902
C93	C	0.542138	-0.301674	-0.302113
C94	C	0.792138	-0.051674	-0.052113
C95	C	1.042138	0.198326	0.197887
C96	C	1.292138	0.448326	0.447887
C97	C	0.574854	-0.261543	-0.262109
C98	C	0.824854	-0.011543	-0.012109
C99	C	1.074854	0.238457	0.237891
C100	C	1.324854	0.488457	0.487891
C101	C	0.640288	-0.261555	-0.262087
C102	C	0.890288	-0.011555	-0.012087
C103	C	1.140288	0.238445	0.237913
C104	C	1.390288	0.488445	0.487913
C105	C	0.438413	-0.296627	-0.245708
C106	C	0.688413	-0.046627	0.004292
C107	C	0.938413	0.203373	0.254292
C108	C	1.188413	0.453373	0.504292
C109	C	0.372980	-0.296619	-0.245730
C110	C	0.622980	-0.046619	0.004270
C111	C	0.872980	0.203381	0.254270
C112	C	1.122980	0.453381	0.504270
C113	C	0.340317	-0.301633	-0.302182
C114	C	0.590317	-0.051633	-0.052182
C115	C	0.840317	0.198367	0.197818
C116	C	1.090317	0.448367	0.447818
C117	C	0.373095	-0.306668	-0.358616
C118	C	0.623095	-0.056668	-0.108616
C119	C	0.873095	0.193332	0.141384
C120	C	1.123095	0.443332	0.391384
C121	C	0.438529	-0.306681	-0.358594
C122	C	0.688529	-0.056681	-0.108594
C123	C	0.938529	0.193319	0.141406
C124	C	1.188529	0.443319	0.391406
C125	C	0.471185	-0.301656	-0.302133
C126	C	0.721185	-0.051656	-0.052133
C127	C	0.971185	0.198344	0.197867
C128	C	1.221185	0.448344	0.447867
C129	C	0.236656	-0.341742	-0.342218
C130	C	0.486656	-0.091742	-0.092218
C131	C	0.736656	0.158258	0.157782
C132	C	0.986656	0.408258	0.407782
C133	C	0.171219	-0.341723	-0.342247
C134	C	0.421219	-0.091723	-0.092247
C135	C	0.671219	0.158277	0.157753
C136	C	0.921219	0.408277	0.407753
C137	C	0.171213	-0.261462	-0.262252
C138	C	0.421213	-0.011462	-0.012252
C139	C	0.671213	0.238538	0.237748
C140	C	0.921213	0.488538	0.487748
C141	C	0.236648	-0.261479	-0.262229
C142	C	0.486648	-0.011479	-0.012229
C143	C	0.736648	0.238521	0.237771
C144	C	0.986648	0.488521	0.487771
C145	C	0.269366	-0.301622	-0.302211
C146	C	0.519366	-0.051622	-0.052211
C147	C	0.769366	0.198378	0.197789
C148	C	1.019366	0.448378	0.447789
C149	C	0.945470	-0.566752	-0.262114
C150	C	1.195470	-0.316752	-0.012114
C151	C	1.445470	-0.066752	0.237886
C152	C	1.695470	0.183248	0.487886
C153	C	0.945499	-0.632188	-0.262128
C154	C	1.195499	-0.382188	-0.012128
C155	C	1.445499	-0.132188	0.237872
C156	C	1.695499	0.117812	0.487872
C157	C	0.905421	-0.664933	-0.302150
C158	C	1.155421	-0.414933	-0.052150
C159	C	1.405421	-0.164933	0.197850
C160	C	1.655421	0.085067	0.447850
C161	C	0.865322	-0.632238	-0.342172
C162	C	1.115322	-0.382238	-0.092172
C163	C	1.365322	-0.132238	0.157828
C164	C	1.615322	0.117762	0.407828
C165	C	0.865299	-0.566804	-0.342162
C166	C	1.115299	-0.316804	-0.092162
C167	C	1.365299	-0.066804	0.157838
C168	C	1.615299	0.183196	0.407838
C169	C	0.849006	-0.768664	-0.307041
C170	C	1.099006	-0.518664	-0.057041
C171	C	1.349006	-0.268664	0.192959
C172	C	1.599006	-0.018664	0.442959
C173	C	0.849029	-0.834097	-0.307047
C174	C	1.099029	-0.584097	-0.057047
C175	C	1.349029	-0.334097	0.192953
C176	C	1.599029	-0.084097	0.442953
C177	C	0.905494	-0.866754	-0.302187
C178	C	1.155494	-0.616754	-0.052187
C179	C	1.405494	-0.366754	0.197813
C180	C	1.655494	-0.116754	0.447813
C181	C	0.961939	-0.833970	-0.297307
C182	C	1.211939	-0.583970	-0.047307
C183	C	1.461939	-0.333970	0.202693
C184	C	1.711939	-0.083970	0.452693
C185	C	0.961915	-0.768536	-0.297296
C186	C	1.211915	-0.518536	-0.047296
C187	C	1.461915	-0.268536	0.202704
C188	C	1.711915	-0.018536	0.452704
C189	C	0.905443	-0.735886	-0.302167
C190	C	1.155443	-0.485886	-0.052167
C191	C	1.405443	-0.235886	0.197833
C192	C	1.655443	0.014114	0.447833
C193	C	0.945625	-0.970394	-0.262186
C194	C	1.195625	-0.720394	-0.012186
C195	C	1.445625	-0.470394	0.237814
C196	C	1.695625	-0.220394	0.487814
C197	C	0.945655	-1.035830	-0.262204
C198	C	1.195655	-0.785830	-0.012204
C199	C	1.445655	-0.535830	0.237796
C200	C	1.695655	-0.285830	0.487796
C201	C	0.865473	-1.035879	-0.342245
C202	C	1.115473	-0.785879	-0.092245
C203	C	1.365473	-0.535879	0.157755
C204	C	1.615473	-0.285879	0.407755
C205	C	0.865448	-0.970444	-0.342230
C206	C	1.115448	-0.720444	-0.092230
C207	C	1.365448	-0.470444	0.157770
C208	C	1.615448	-0.220444	0.407770
C209	C	0.905524	-0.937705	-0.302197
C210	C	1.155524	-0.687705	-0.052197
C211	C	1.405524	-0.437705	0.197803
C212	C	1.655524	-0.187705	0.447803
C213	C	1.068858	-0.301603	-0.302231
C214	C	1.318858	-0.051603	-0.052231
C215	C	1.568858	0.198397	0.197769
C216	C	1.818858	0.448397	0.447769
C217	C	1.138499	-0.301589	-0.302262
C218	C	1.388499	-0.051589	-0.052262
C219	C	1.638499	0.198411	0.197738
C220	C	1.888499	0.448411	0.447738
C221	C	0.905487	-0.301623	-0.465581
C222	C	1.155487	-0.051623	-0.215581
C223	C	1.405487	0.198377	0.034419
C224	C	1.655487	0.448377	0.284419
C225	C	0.905509	-0.301618	-0.535222
C226	C	1.155509	-0.051618	-0.285222
C227	C	1.405509	0.198382	-0.035222
C228	C	1.655509	0.448382	0.214778
C229	C	0.905535	-0.138213	-0.302206
C230	C	1.155535	0.111787	-0.052206
C231	C	1.405535	0.361787	0.197794
C232	C	1.655535	0.611787	0.447794
C233	C	0.905578	-0.068571	-0.302227
C234	C	1.155578	0.181429	-0.052227
C235	C	1.405578	0.431429	0.197773
C236	C	1.655578	0.681429	0.447773
C237	C	0.945605	-0.261535	-0.567966
C238	C	1.195605	-0.011535	-0.317966
C239	C	1.445605	0.238465	-0.067966
C240	C	1.695605	0.488465	0.182034
C241	C	0.945604	-0.261508	-0.633402
C242	C	1.195604	-0.011508	-0.383402
C243	C	1.445604	0.238492	-0.133402
C244	C	1.695604	0.488492	0.116598
C245	C	0.905514	-0.301575	-0.666091
C246	C	1.155514	-0.051575	-0.416091
C247	C	1.405514	0.198425	-0.166091
C248	C	1.655514	0.448425	0.083909
C249	C	0.865410	-0.341661	-0.633339
C250	C	1.115410	-0.091661	-0.383339
C251	C	1.365410	0.158339	-0.133339
C252	C	1.615410	0.408339	0.116661
C253	C	0.865407	-0.341682	-0.567904
C254	C	1.115407	-0.091682	-0.317904
C255	C	1.365407	0.158318	-0.067904
C256	C	1.615407	0.408318	0.182096
C257	C	0.900538	-0.357992	-0.769752
C258	C	1.150538	-0.107992	-0.519752
C259	C	1.400538	0.142008	-0.269752
C260	C	1.650538	0.392008	-0.019752
C261	C	0.900545	-0.357972	-0.835185
C262	C	1.150545	-0.107972	-0.585185
C263	C	1.400545	0.142028	-0.335185
C264	C	1.650545	0.392028	-0.085185
C265	C	0.905518	-0.301509	-0.867911
C266	C	1.155518	-0.051509	-0.617911
C267	C	1.405518	0.198491	-0.367911
C268	C	1.655518	0.448491	-0.117911
C269	C	0.910497	-0.245065	-0.835197
C270	C	1.160497	0.004935	-0.585197
C271	C	1.410497	0.254935	-0.335197
C272	C	1.660497	0.504935	-0.085197
C273	C	0.910495	-0.245086	-0.769763
C274	C	1.160495	0.004914	-0.519763
C275	C	1.410495	0.254914	-0.269763
C276	C	1.660495	0.504914	-0.019763
C277	C	0.905512	-0.301556	-0.737043
C278	C	1.155512	-0.051556	-0.487043
C279	C	1.405512	0.198444	-0.237043
C280	C	1.655512	0.448444	0.012957
C281	C	0.945615	-0.261393	-0.971608
C282	C	1.195615	-0.011393	-0.721608
C283	C	1.445615	0.238607	-0.471608
C284	C	1.695615	0.488607	-0.221608
C285	C	0.945610	-0.261365	-1.037045
C286	C	1.195610	-0.011365	-0.787045
C287	C	1.445610	0.238635	-0.537045
C288	C	1.695610	0.488635	-0.287045
C289	C	0.865419	-0.341524	-1.036980
C290	C	1.115419	-0.091524	-0.786980
C291	C	1.365419	0.158476	-0.536980
C292	C	1.615419	0.408476	-0.286980
C293	C	0.865421	-0.341547	-0.971545
C294	C	1.115421	-0.091547	-0.721545
C295	C	1.365421	0.158453	-0.471545
C296	C	1.615421	0.408453	-0.221545
C297	C	0.905522	-0.301482	-0.938863
C298	C	1.155522	-0.051482	-0.688863
C299	C	1.405522	0.198518	-0.438863
C300	C	1.655522	0.448518	-0.188863
C301	C	0.905419	-0.301603	-0.139370
C302	C	1.155419	-0.051603	0.110630
C303	C	1.405419	0.198397	0.360630
C304	C	1.655419	0.448397	0.610630
C305	C	0.905518	-0.301432	-0.069729
C306	C	1.155518	-0.051432	0.180271
C307	C	1.405518	0.198568	0.430271
C308	C	1.655518	0.448568	0.680271
H309	H	0.666932	-0.374509	-0.374627
H310	H	0.916932	-0.124509	-0.124627
H311	H	1.166932	0.125491	0.125373
H312	H	1.416932	0.375491	0.375373
H313	H	0.832774	-0.374190	-0.944885
H314	H	1.082774	-0.124190	-0.694885
H315	H	1.332774	0.125810	-0.444885
H316	H	1.582774	0.375810	-0.194885
H317	H	1.007918	-0.860558	-0.293349
H318	H	1.257918	-0.610558	-0.043349
H319	H	1.507918	-0.360558	0.206651
H320	H	1.757918	-0.110558	0.456651
Br321	Br	0.530462	-0.396262	-0.396391
Br322	Br	0.780462	-0.146262	-0.146391
Br323	Br	1.030462	0.103738	0.103609
Br324	Br	1.280462	0.353738	0.353609
Br325	Br	0.810997	-0.396034	-0.677700
Br326	Br	1.060997	-0.146034	-0.427700
Br327	Br	1.310997	0.103966	-0.177700
Br328	Br	1.560997	0.353966	0.072300
Br329	Br	0.810935	-0.676676	-0.396493
Br330	Br	1.060935	-0.426676	-0.146493
Br331	Br	1.310935	-0.176676	0.103507
Br332	Br	1.560935	0.073324	0.353507
Br333	Br	0.483012	-0.313511	-0.435177
Br334	Br	0.733012	-0.063511	-0.185177
Br335	Br	0.983012	0.186489	0.064823
Br336	Br	1.233012	0.436489	0.314823
H337	H	0.144569	-0.228783	-0.229699
H338	H	0.394569	0.021217	0.020301
H339	H	0.644569	0.271217	0.270301
H340	H	0.894569	0.521217	0.520301
H341	H	0.978265	-0.228767	-0.944997
H342	H	1.228265	0.021233	-0.694997
H343	H	1.478265	0.271233	-0.444997
H344	H	1.728265	0.521233	-0.194997
Br345	Br	0.893796	-0.434573	-0.879576
Br346	Br	1.143796	-0.184573	-0.629576
Br347	Br	1.393796	0.065427	-0.379576
Br348	Br	1.643796	0.315427	-0.129576
Br349	Br	0.772427	-0.878583	-0.313666
Br350	Br	1.022427	-0.628583	-0.063666
Br351	Br	1.272427	-0.378583	0.186334
Br352	Br	1.522427	-0.128583	0.436334
Br353	Br	0.328775	-0.313472	-0.435237
Br354	Br	0.578775	-0.063472	-0.185237
Br355	Br	0.828775	0.186528	0.064763
Br356	Br	1.078775	0.436528	0.314763
H357	H	0.263280	-0.228809	-0.229652
H358	H	0.513280	0.021191	0.020348
H359	H	0.763280	0.271191	0.270348
H360	H	1.013280	0.521191	0.520348
Br361	Br	0.917252	-0.168432	-0.879604
Br362	Br	1.167252	0.081568	-0.629604
Br363	Br	1.417252	0.331568	-0.379604
Br364	Br	1.667252	0.581568	-0.129604
H365	H	0.263296	-0.374426	-0.374776
H366	H	0.513296	-0.124426	-0.124776
H367	H	0.763296	0.125574	0.125224
H368	H	1.013296	0.375574	0.375224
Br369	Br	1.038514	-0.724045	-0.290678
Br370	Br	1.288514	-0.474045	-0.040678
Br371	Br	1.538514	-0.224045	0.209322
Br372	Br	1.788514	0.025955	0.459322
H373	H	0.548206	-0.228866	-0.229554
H374	H	0.798206	0.021134	0.020446
H375	H	1.048206	0.271134	0.270446
H376	H	1.298206	0.521134	0.520446
Br377	Br	0.893807	-0.434628	-0.725343
Br378	Br	1.143807	-0.184628	-0.475343
Br379	Br	1.393807	0.065372	-0.225343
Br380	Br	1.643807	0.315372	0.024657
H381	H	0.978259	-0.943737	-0.229590
H382	H	1.228259	-0.693737	0.020410
H383	H	1.478259	-0.443737	0.270410
H384	H	1.728259	-0.193737	0.520410
H385	H	0.832647	-0.540189	-0.374747
H386	H	1.082647	-0.290189	-0.124747
H387	H	1.332647	-0.040189	0.125253
H388	H	1.582647	0.209811	0.375253
Br389	Br	0.917249	-0.168488	-0.725367
Br390	Br	1.167249	0.081512	-0.475367
Br391	Br	1.417249	0.331512	-0.225367
Br392	Br	1.667249	0.581512	0.024633
Br393	Br	1.000041	-0.206971	-1.081485
Br394	Br	1.250041	0.043029	-0.831485
Br395	Br	1.500041	0.293029	-0.581485
Br396	Br	1.750041	0.543029	-0.331485
Br397	Br	0.999920	-0.676559	-0.207820
Br398	Br	1.249920	-0.426559	0.042180
Br399	Br	1.499920	-0.176559	0.292180
Br400	Br	1.749920	0.073441	0.542180
Br401	Br	1.000083	-1.080193	-0.207900
Br402	Br	1.250083	-0.830193	0.042100
Br403	Br	1.500083	-0.580193	0.292100
Br404	Br	1.750083	-0.330193	0.542100
Br405	Br	0.328502	-0.289787	-0.169143
Br406	Br	0.578502	-0.039787	0.080857
Br407	Br	0.828502	0.210213	0.330857
Br408	Br	1.078502	0.460213	0.580857
H409	H	0.978103	-0.540098	-0.229519
H410	H	1.228103	-0.290098	0.020481
H411	H	1.478103	-0.040098	0.270481
H412	H	1.728103	0.209902	0.520481
Br413	Br	0.126828	-0.396175	-0.396545
Br414	Br	0.376828	-0.146175	-0.146545
Br415	Br	0.626828	0.103825	0.103455
Br416	Br	0.876828	0.353825	0.353455
H417	H	0.465002	-0.292541	-0.199734
H418	H	0.715002	-0.042541	0.050266
H419	H	0.965002	0.207459	0.300266
H420	H	1.215002	0.457459	0.550266
Br421	Br	0.684682	-0.207096	-0.207796
Br422	Br	0.934682	0.042904	0.042204
Br423	Br	1.184682	0.292904	0.292204
Br424	Br	1.434682	0.542904	0.542204
Br425	Br	0.811086	-1.080313	-0.396568
Br426	Br	1.061086	-0.830313	-0.146568
Br427	Br	1.311086	-0.580313	0.103432
Br428	Br	1.561086	-0.330313	0.353432
Br429	Br	0.811001	-0.395895	-1.081337
Br430	Br	1.061001	-0.145895	-0.831337
Br431	Br	1.311001	0.104105	-0.581337
Br432	Br	1.561001	0.354105	-0.331337
H433	H	0.803022	-0.742081	-0.311001
H434	H	1.053022	-0.492081	-0.061001
H435	H	1.303022	-0.242081	0.188999
H436	H	1.553022	0.007919	0.438999
Br437	Br	1.000026	-0.207159	-0.523615
Br438	Br	1.250026	0.042841	-0.273615
Br439	Br	1.500026	0.292841	-0.023615
Br440	Br	1.750026	0.542841	0.226385
H441	H	0.832795	-0.943828	-0.374811
H442	H	1.082795	-0.693828	-0.124811
H443	H	1.332795	-0.443828	0.125189
H444	H	1.582795	-0.193828	0.375189
Br445	Br	1.000009	-0.207090	-0.677850
Br446	Br	1.250009	0.042910	-0.427850
Br447	Br	1.500009	0.292910	-0.177850
Br448	Br	1.750009	0.542910	0.072150
H449	H	0.832753	-0.374322	-0.541245
H450	H	1.082753	-0.124322	-0.291245
H451	H	1.332753	0.125678	-0.041245
H452	H	1.582753	0.375678	0.208755
