data_functionalizedCrystal
_audit_creation_method	'MofGen! by Chris Wilmer'
_symmetry_space_group_name_H-M	'P1'
_symmetry_Int_Tables_number	1
_symmetry_cell_setting	triclinic
loop_
_symmetry_equiv_pos_as_xyz
  x,y,z
_cell_length_a	16.992694
_cell_length_b	23.532407
_cell_length_c	16.053802
_cell_angle_alpha	92.544672
_cell_angle_beta	87.249047
_cell_angle_gamma	86.758451
loop_
_atom_site_label
_atom_site_type_symbol
_atom_site_fract_x
_atom_site_fract_y
_atom_site_fract_z
O1	O	1.042772	0.118472	-0.069339
O2	O	0.814498	0.117146	-0.069363
O3	O	0.935518	0.035219	-0.069335
O4	O	0.921752	0.200399	-0.069367
O5	O	0.928857	0.039709	0.069523
O6	O	0.807837	0.121636	0.069494
O7	O	1.036111	0.122961	0.069519
Zn8	Zn	0.920917	0.123011	0.091553
Zn9	Zn	0.929693	0.117096	-0.091397
O10	O	0.915091	0.204888	0.069490
C11	C	0.781969	0.117687	0.000063
C12	C	0.694964	0.112604	0.000054
C13	C	0.644342	0.161650	0.000045
C14	C	0.562592	0.156871	0.000058
C15	C	0.531466	0.103045	0.000073
C16	C	0.582095	0.053995	0.000084
C17	C	0.663843	0.058775	0.000078
C18	C	0.288022	0.083234	0.000099
C19	C	0.206267	0.078457	0.000103
C20	C	0.186770	0.181334	0.000078
C21	C	0.268521	0.186109	0.000066
C22	C	0.319142	0.137059	0.000082
N23	N	0.447905	0.098158	0.000083
N24	N	0.402702	0.141946	0.000078
C25	C	0.931837	0.016231	0.000096
C26	C	0.930783	-0.047038	0.000102
C27	C	0.995791	-0.442917	0.000063
C28	C	0.994812	-0.502366	0.000057
O29	O	1.055075	-0.536121	0.000033
N30	N	0.922865	-0.528562	0.000050
C31	C	0.851893	-0.495307	0.000041
O32	O	0.790607	-0.523048	0.000033
C33	C	0.852873	-0.435859	0.000041
C34	C	0.924824	-0.409666	0.000057
C35	C	1.067736	-0.416723	0.000078
C36	C	1.068715	-0.357278	0.000086
C37	C	0.997748	-0.324027	0.000079
C38	C	0.925803	-0.350221	0.000065
C39	C	0.781902	-0.402605	0.000026
C40	C	0.782889	-0.343154	0.000026
C41	C	0.854840	-0.316960	0.000042
C42	C	0.855814	-0.257525	0.000066
N43	N	0.927761	-0.231328	0.000073
C44	C	0.998728	-0.264579	0.000080
C45	C	0.849841	-0.620151	0.000038
C46	C	0.848860	-0.679598	0.000044
C47	C	0.991779	-0.686653	0.000058
C48	C	0.992759	-0.627205	0.000059
C49	C	0.921788	-0.593955	0.000045
C50	C	1.000777	-0.139740	0.000097
C51	C	1.001749	-0.080289	0.000109
C52	C	0.858831	-0.073240	0.000090
C53	C	0.857858	-0.132685	0.000083
C54	C	0.928838	-0.165934	0.000084
O55	O	0.795583	-0.223734	0.000087
O56	O	1.060004	-0.236831	0.000076
C57	C	1.068641	0.122420	0.000091
C58	C	1.155645	0.127503	0.000094
C59	C	0.918773	0.223877	0.000058
C60	C	0.919827	0.287146	0.000046
N61	N	0.914933	0.127048	0.216412
N62	N	0.935683	0.113055	-0.216256
C63	C	0.966445	0.092202	0.260118
C64	C	0.962267	0.095032	0.347524
C65	C	0.906579	0.132711	0.391222
C66	C	0.855061	0.167558	0.347510
C67	C	0.859236	0.164725	0.260106
C68	C	0.888340	0.145069	0.652627
C69	C	0.884170	0.147901	0.740038
C70	C	0.991376	0.075374	0.740045
C71	C	0.995550	0.072546	0.652640
C72	C	0.944029	0.107392	0.608935
N73	N	0.902308	0.135606	0.480565
N74	N	0.948296	0.104494	0.519594
H75	H	0.669678	0.205481	0.000032
H76	H	0.723313	-0.423922	0.000008
H77	H	1.011796	0.061523	0.224545
O78	O	0.782289	-0.037372	0.000082
H79	H	0.795065	0.008365	0.000080
O80	O	1.017840	0.057460	0.394667
H81	H	1.057276	0.030792	0.349597
H82	H	0.725094	-0.316084	0.000014
H83	H	0.556745	0.010169	0.000109
O84	O	0.832778	0.182658	0.605500
H85	H	0.845027	0.174357	0.537380
O86	O	1.055606	0.031902	0.605507
H87	H	1.090720	0.008142	0.650584
H88	H	0.180928	0.034624	0.000115
H89	H	0.521379	0.196809	0.000049
O90	O	0.342616	0.030333	0.000116
H91	H	0.307236	-0.007897	0.000120
O92	O	0.824102	0.188544	0.787168
H93	H	0.829865	0.184664	0.855288
H94	H	0.705059	0.018836	0.000085
O95	O	1.046935	0.037791	0.787190
H96	H	1.108779	0.047312	0.770408
H97	H	1.060343	-0.058966	0.000124
H98	H	0.809714	0.198235	0.383094
O99	O	0.803681	0.202311	0.212959
H100	H	0.764261	0.228993	0.258027
O101	O	1.077331	-0.175598	0.000111
H102	H	1.127516	-0.147387	0.000132
O103	O	1.146324	-0.329035	0.000079
H104	H	1.177697	-0.340321	0.056669
O105	O	0.302093	0.244164	0.000071
H106	H	0.253156	0.277468	0.000080
H107	H	1.051348	-0.605882	0.000071
O108	O	0.132174	0.234236	0.000078
H109	H	0.070099	0.221873	0.000096
H110	H	1.125529	-0.443790	0.000080
O111	O	1.068327	-0.722521	0.000062
H112	H	1.074013	-0.751593	-0.056539
O113	O	0.771256	-0.707848	0.000038
H114	H	0.722078	-0.674733	0.000030
H115	H	0.792043	-0.593082	0.000034
H116	H	0.799269	-0.154012	0.000093
