data_functionalizedCrystal
_audit_creation_method	'MofGen! by Chris Wilmer'
_symmetry_space_group_name_H-M	'P1'
_symmetry_Int_Tables_number	1
_symmetry_cell_setting	triclinic
loop_
_symmetry_equiv_pos_as_xyz
  x,y,z
_cell_length_a	23.096457
_cell_length_b	23.196402
_cell_length_c	23.196401
_cell_angle_alpha	60.008822
_cell_angle_beta	90.011648
_cell_angle_gamma	60.000277
loop_
_atom_site_label
_atom_site_type_symbol
_atom_site_fract_x
_atom_site_fract_y
_atom_site_fract_z
Zr1	Zr	0.557764	0.631008	-0.075648
O2	O	0.465297	0.751273	-0.167691
O3	O	0.586108	0.510743	-0.047435
O4	O	0.586082	0.631010	-0.167700
O5	O	0.465345	0.631005	0.047446
O6	O	0.681363	0.631012	-0.167704
O7	O	0.465322	0.631006	-0.047426
O8	O	0.681408	0.415876	0.047429
O9	O	0.465299	0.846141	-0.167687
O10	O	0.669306	0.560211	-0.035401
O11	O	0.598216	0.560209	0.035403
O12	O	0.598186	0.701808	-0.106194
O13	O	0.527096	0.701806	-0.035390
Zr14	Zr	0.709761	0.631009	0.075656
Zr15	Zr	0.709725	0.631011	-0.075653
Zr16	Zr	0.557800	0.631006	0.075661
Zr17	Zr	0.557768	0.782311	-0.075641
Zr18	Zr	0.709757	0.479706	0.075649
O19	O	0.681418	0.751274	0.047443
O20	O	0.681366	0.751277	-0.167699
O21	O	0.465348	0.751270	0.047451
O22	O	0.802229	0.510743	0.167699
O23	O	0.802177	0.510747	-0.047443
O24	O	0.586159	0.510740	0.167707
O25	O	0.802180	0.631012	-0.047438
O26	O	0.681443	0.631007	0.167708
O27	O	0.586163	0.631005	0.167712
O28	O	0.802203	0.631011	0.047434
O29	O	0.586088	0.846143	-0.167691
O30	O	0.681437	0.415874	0.167699
O31	O	0.802226	0.415876	0.167695
O32	O	0.802197	0.415878	0.047424
O33	O	0.465328	0.846139	-0.047416
O34	O	0.586117	0.846141	-0.047421
O35	O	0.669340	0.560209	0.106202
O36	O	0.740429	0.560211	0.035398
O37	O	0.669309	0.701808	-0.035395
O38	O	0.598220	0.701806	0.035409
C39	C	0.633757	0.441752	-0.000004
C40	C	0.633756	0.377520	-0.000007
C41	C	0.443682	0.631005	0.000011
C42	C	0.379171	0.631004	0.000013
C43	C	0.670859	0.347351	-0.036968
C44	C	0.670866	0.286990	-0.036963
C45	C	0.633756	0.256812	-0.000005
C46	C	0.596651	0.286985	0.036965
C47	C	0.596651	0.347339	0.036964
C48	C	0.571582	0.194782	-0.005277
C49	C	0.571580	0.134432	-0.005281
C50	C	0.633756	0.070657	0.000002
C51	C	0.695934	0.067247	0.005275
C52	C	0.695934	0.127601	0.005274
C53	C	0.633752	0.191368	0.000001
C54	C	0.670870	-0.024963	-0.036955
C55	C	0.670879	-0.085329	-0.036944
C56	C	0.596657	-0.085327	0.036978
C57	C	0.596655	-0.024968	0.036972
C58	C	0.633760	0.005213	0.000002
C59	C	0.385989	0.557094	0.036960
C60	C	0.325373	0.557093	0.036963
C61	C	0.257940	0.631006	0.000006
C62	C	0.251125	0.704926	-0.036942
C63	C	0.311740	0.704925	-0.036939
N64	N	0.135132	0.686024	-0.060143
N65	N	0.077552	0.686020	-0.060145
C66	C	0.075307	0.631013	-0.000007
N67	N	0.132824	0.575999	0.060133
N68	N	0.190410	0.576001	0.060134
C69	C	0.192209	0.631015	-0.000002
C70	C	0.016402	0.557097	0.036946
C71	C	-0.044216	0.557099	0.036951
C72	C	-0.118465	0.704934	-0.036961
C73	C	-0.057847	0.704930	-0.036959
C74	C	0.009584	0.631009	-0.000007
C75	C	0.823843	0.631012	-0.000003
C76	C	0.888354	0.631013	-0.000005
C77	C	0.633717	0.631011	-0.189260
C78	C	0.633702	0.631012	-0.253495
C79	C	0.633768	0.820265	0.000012
C80	C	0.633770	0.884497	0.000015
C81	C	0.596581	0.704922	-0.320621
C82	C	0.596599	0.704923	-0.380976
C83	C	0.633728	0.631010	-0.374201
C84	C	0.670857	0.557091	-0.307063
C85	C	0.670843	0.557092	-0.246710
C86	C	0.628454	0.574382	-0.441521
C87	C	0.628462	0.574384	-0.501874
C88	C	0.633773	0.631004	-0.560349
C89	C	0.639061	0.687636	-0.558470
C90	C	0.639048	0.687637	-0.498116
C91	C	0.633747	0.631001	-0.439640
C92	C	0.596670	0.704920	-0.692922
C93	C	0.596693	0.704918	-0.753277
C94	C	0.670946	0.557084	-0.679361
C95	C	0.670928	0.557088	-0.619008
C96	C	0.633786	0.631008	-0.625793
C97	C	0.633808	0.631005	0.189268
C98	C	0.633824	0.631004	0.253503
C99	C	0.823838	0.441755	-0.000011
C100	C	0.888347	0.377525	-0.000016
C101	C	0.633803	0.441749	0.189260
C102	C	0.633817	0.377516	0.253492
C103	C	0.823883	0.441752	0.189253
C104	C	0.888408	0.377521	0.253483
C105	C	0.443642	0.820264	-0.189245
C106	C	0.379117	0.884496	-0.253475
C107	C	0.443688	0.820261	0.000019
C108	C	0.379178	0.884492	0.000024
C109	C	0.633722	0.820268	-0.189252
C110	C	0.633709	0.884500	-0.253484
C111	C	0.881516	0.347361	-0.036981
C112	C	0.942124	0.287018	-0.037000
C113	C	1.009563	0.256835	-0.000050
C114	C	1.016393	0.287005	0.036917
C115	C	0.955785	0.347351	0.036931
C116	C	0.670949	0.347352	0.320619
C117	C	0.670959	0.287007	0.380977
C118	C	0.633841	0.256823	0.374207
C119	C	0.596704	0.286993	0.307074
C120	C	0.596690	0.347342	0.246717
C121	C	0.955825	0.347358	0.246687
C122	C	1.016459	0.287014	0.307031
C123	C	1.009675	0.256829	0.374171
C124	C	0.942252	0.286998	0.380966
C125	C	0.881619	0.347345	0.320622
C126	C	0.311701	0.914666	-0.246679
C127	C	0.251067	0.975029	-0.307023
C128	C	0.257850	1.005217	-0.374163
C129	C	0.325274	0.975044	-0.380958
C130	C	0.385906	0.914687	-0.320614
C131	C	0.386009	0.914662	0.036983
C132	C	0.325401	0.975022	0.036985
C133	C	0.257963	1.005207	0.000032
C134	C	0.251133	0.975035	-0.036931
C135	C	0.311740	0.914680	-0.036937
C136	C	0.670834	0.914665	-0.246692
C137	C	0.670835	0.975011	-0.307039
C138	C	0.633706	1.005195	-0.374177
C139	C	0.596579	0.975024	-0.380968
C140	C	0.596583	0.914675	-0.320622
H141	H	0.701074	0.371921	-0.067070
H142	H	0.306164	0.890091	-0.192015
H143	H	0.566455	0.371893	0.192062
H144	H	0.566341	0.765114	-0.326152
H145	H	0.936549	0.262461	-0.067102
H146	H	0.961361	0.371925	0.192023
H147	H	0.196216	0.999620	-0.067017
H148	H	0.936739	0.262413	0.435640
H149	H	0.701175	0.371921	0.326144
H150	H	0.330789	0.999631	-0.435631
H151	H	1.071352	0.262457	0.301486
H152	H	0.196174	0.999585	-0.301477
H153	H	0.566350	0.999609	-0.435640
H154	H	0.208618	1.054352	0.000043
H155	H	0.566442	-0.109897	0.067070
H156	H	0.440916	0.890090	0.067079
H157	H	0.440798	0.890123	-0.326156
H158	H	0.330976	0.999578	0.067088
H159	H	0.826728	0.371896	0.326166
H160	H	0.306168	0.890117	-0.067031
H161	H	0.701203	0.262449	0.435634
H162	H	1.071309	0.262421	0.067000
H163	H	0.566483	0.262409	0.301572
H164	H	-0.173369	0.765115	-0.067053
H165	H	0.566468	0.765107	-0.807935
H166	H	0.701069	0.890099	-0.192030
H167	H	0.701067	0.999569	-0.301496
H168	H	0.746561	0.124819	0.009570
H169	H	1.058907	0.207697	-0.000066
H170	H	0.208474	1.054364	-0.423294
H171	H	0.624152	0.528275	-0.503400
H172	H	0.071308	0.496907	0.067049
H173	H	0.633709	1.054335	-0.423309
H174	H	0.633858	0.207684	0.423360
H175	H	0.196216	0.765106	-0.067033
H176	H	0.566348	0.890122	-0.326162
H177	H	0.746566	0.015314	0.009586
H178	H	0.701086	-0.000391	-0.067056
H179	H	0.701081	0.262422	-0.067062
H180	H	0.330925	0.496905	0.067049
H181	H	0.701097	-0.109897	-0.067040
H182	H	1.059052	0.207691	0.423302
H183	H	0.566439	-0.000401	0.067068
H184	H	0.520951	0.137218	-0.009579
H185	H	0.440890	0.496902	0.067044
H186	H	0.701088	0.496910	-0.301550
H187	H	0.520944	0.246717	-0.009594
H188	H	0.566370	0.765111	-0.435641
H189	H	0.566436	0.262410	0.067057
H190	H	0.566435	0.371904	0.067062
H191	H	0.306183	0.765113	-0.067023
H192	H	-0.063402	0.765115	-0.067050
H193	H	-0.038658	0.496910	0.067042
H194	H	0.961358	0.371902	0.067036
H195	H	0.643356	0.733746	-0.496589
H196	H	0.566428	0.765111	-0.698447
H197	H	0.701178	0.496902	-0.673843
H198	H	0.701152	0.496902	-0.564350
H199	H	0.624124	0.528276	-0.393912
H200	H	0.701072	0.496904	-0.192051
H201	H	0.643382	0.733743	-0.606082
H202	H	0.826610	0.371935	-0.067079
