data_functionalizedCrystal
_audit_creation_method	'MofGen! by Chris Wilmer'
_symmetry_space_group_name_H-M	'P1'
_symmetry_Int_Tables_number	1
_symmetry_cell_setting	triclinic
loop_
_symmetry_equiv_pos_as_xyz
  x,y,z
_cell_length_a	14.971482
_cell_length_b	14.853568
_cell_length_c	13.448316
_cell_angle_alpha	90.002017
_cell_angle_beta	89.993798
_cell_angle_gamma	96.376102
loop_
_atom_site_label
_atom_site_type_symbol
_atom_site_fract_x
_atom_site_fract_y
_atom_site_fract_z
O1	O	1.186971	-0.117472	-0.082669
O2	O	1.686971	0.382528	0.417331
O3	O	0.926573	-0.131545	-0.082672
O4	O	1.426573	0.368455	0.417328
O5	O	1.063727	0.006723	-0.082675
O6	O	1.563727	0.506723	0.417325
O7	O	1.049817	-0.255739	-0.082665
O8	O	1.549817	0.244261	0.417335
O9	O	1.063710	0.006731	0.082708
O10	O	1.563710	0.506731	0.582708
O11	O	0.926556	-0.131536	0.082712
O12	O	1.426556	0.368464	0.582712
O13	O	1.186954	-0.117463	0.082715
O14	O	1.686954	0.382537	0.582715
Cu15	Cu	1.056753	-0.124499	0.097814
Cu16	Cu	1.556753	0.375501	0.597814
Cu17	Cu	1.056774	-0.124509	-0.097771
Cu18	Cu	1.556774	0.375491	0.402229
O19	O	1.049799	-0.255731	0.082718
O20	O	1.549799	0.244269	0.582718
C21	C	0.893239	-0.130912	0.000019
C22	C	1.393239	0.369088	0.500019
C23	C	0.793942	-0.129027	0.000017
C24	C	1.293942	0.370973	0.500017
C25	C	0.747288	-0.128135	0.090169
C26	C	1.247288	0.371865	0.590169
C27	C	0.653989	-0.126350	0.090170
C28	C	1.153989	0.373650	0.590170
C29	C	0.607345	-0.125464	0.000018
C30	C	1.107345	0.374536	0.500018
C31	C	0.654006	-0.126354	-0.090141
C32	C	1.154006	0.373646	0.409859
C33	C	0.747304	-0.128132	-0.090140
C34	C	1.247304	0.371868	0.409860
C35	C	0.459544	-0.122649	-0.090134
C36	C	0.959544	0.377351	0.409866
C37	C	0.366239	-0.120873	-0.090135
C38	C	0.866239	0.379127	0.409865
C39	C	0.366228	-0.120868	0.090176
C40	C	0.866228	0.379132	0.590176
C41	C	0.459526	-0.122646	0.090176
C42	C	0.959526	0.377354	0.590176
C43	C	0.506181	-0.123537	0.000017
C44	C	1.006181	0.376463	0.500017
C45	C	1.063088	0.040316	0.000013
C46	C	1.563088	0.540316	0.500013
C47	C	1.061199	0.140399	0.000003
C48	C	1.561199	0.640399	0.500003
C49	C	0.971741	0.552915	0.000014
C50	C	1.471741	1.052915	0.500014
C51	C	1.134684	0.574228	0.000016
C52	C	1.634684	1.074228	0.500016
C53	C	1.136460	0.480195	0.000012
C54	C	1.636460	0.980195	0.500012
C55	C	1.055875	0.422517	0.000010
C56	C	1.555875	0.922517	0.500010
C57	C	0.973515	0.458873	0.000013
C58	C	1.473515	0.958873	0.500013
C59	C	1.218819	0.443832	0.000019
C60	C	1.718819	0.943832	0.500019
C61	C	1.220599	0.349793	0.000016
C62	C	1.720599	0.849793	0.500016
C63	C	1.140013	0.292114	0.000007
C64	C	1.640013	0.792114	0.500007
C65	C	1.057649	0.328475	0.000009
C66	C	1.557649	0.828475	0.500009
C67	C	0.977065	0.270797	0.000007
C68	C	1.477065	0.770797	0.500007
C69	C	0.894700	0.307156	0.000002
C70	C	1.394700	0.807156	0.500002
C71	C	0.892929	0.401193	0.000004
C72	C	1.392929	0.901193	0.500004
C73	C	1.141784	0.198077	0.000005
C74	C	1.641784	0.698077	0.500005
C75	C	0.978838	0.176755	0.000006
C76	C	1.478838	0.676755	0.500006
C77	C	1.220287	-0.118096	0.000022
C78	C	1.720287	0.381904	0.500022
C79	C	1.319585	-0.119980	0.000017
C80	C	1.819585	0.380020	0.500017
N81	N	1.056745	-0.124491	0.235379
N82	N	1.556745	0.375509	0.735379
C83	C	1.050438	0.710676	0.000024
C84	C	1.550438	1.210676	0.500024
C85	C	1.052325	0.610593	0.000016
C86	C	1.552325	1.110593	0.500016
N87	N	1.056788	-0.124509	-0.235336
N88	N	1.556788	0.375491	0.264664
C89	C	1.117496	-0.063292	0.287418
C90	C	1.617496	0.436708	0.787418
C91	C	1.117502	-0.063291	0.391521
C92	C	1.617502	0.436709	0.891521
C93	C	1.056760	-0.124495	0.443583
C94	C	1.556760	0.375505	0.943583
C95	C	0.996003	-0.185697	0.391537
C96	C	1.496003	0.314303	0.891537
C97	C	0.995994	-0.185693	0.287436
C98	C	1.495994	0.314307	0.787436
C99	C	0.996028	-0.185703	0.608517
C100	C	1.496028	0.314297	1.108517
C101	C	0.996038	-0.185709	0.712625
C102	C	1.496038	0.314291	1.212625
C103	C	1.117536	-0.063301	0.712602
C104	C	1.617536	0.436699	1.212602
C105	C	1.117527	-0.063297	0.608501
C106	C	1.617527	0.436703	1.108501
C107	C	1.056770	-0.124501	0.556462
C108	C	1.556770	0.375499	1.056462
H109	H	0.328264	-0.120152	-0.163544
H110	H	0.828264	0.379848	0.336456
F111	F	1.304576	0.505220	0.000039
F112	F	1.804576	1.005220	0.500039
F113	F	0.884086	0.591611	-0.000000
F114	F	1.384086	1.091611	0.500000
H115	H	0.616009	-0.125609	0.163581
H116	H	1.116009	0.374391	0.663581
H117	H	0.497500	-0.123373	0.163586
H118	H	0.997500	0.376627	0.663586
F119	F	0.509195	-0.123594	-0.186092
F120	F	1.009195	0.376406	0.313908
F121	F	1.220442	0.635614	0.000032
F122	F	1.720442	1.135614	0.500032
H123	H	1.287665	0.320198	0.000019
H124	H	1.787665	0.820198	0.500019
H125	H	0.946541	-0.235528	0.433932
H126	H	1.446541	0.264472	0.933932
H127	H	1.208844	0.168477	0.000016
H128	H	1.708844	0.668477	0.500016
H129	H	1.166963	-0.013456	0.245035
H130	H	1.666963	0.486544	0.745035
H131	H	0.616022	-0.125626	-0.163544
H132	H	1.116022	0.374374	0.336456
F133	F	1.182158	0.001845	0.446905
F134	F	1.682158	0.501845	0.946905
H135	H	1.167005	-0.013467	0.754978
H136	H	1.667005	0.486533	1.254978
F137	F	0.931386	-0.250850	0.768027
F138	F	1.431386	0.249150	1.268027
F139	F	1.182179	0.001837	0.553092
F140	F	1.682179	0.501837	1.053092
F141	F	0.931360	-0.250842	0.553137
F142	F	1.431360	0.249158	1.053137
H143	H	0.785289	-0.128860	-0.163551
H144	H	1.285289	0.371140	0.336449
H145	H	0.913216	0.129799	0.000000
H146	H	1.413216	0.629799	0.500000
F147	F	0.805278	0.439896	-0.000005
F148	F	1.305278	0.939896	0.499995
H149	H	0.829088	0.260183	0.000007
H150	H	1.329088	0.760183	0.500007
H151	H	0.785257	-0.128864	0.163581
H152	H	1.285257	0.371136	0.663581
F153	F	0.316575	-0.119920	0.186131
F154	F	0.816575	0.380080	0.686131
F155	F	0.931331	-0.250828	0.232053
F156	F	1.431331	0.249172	0.732053
