data_functionalizedCrystal
_audit_creation_method	'MofGen! by Chris Wilmer'
_symmetry_space_group_name_H-M	'P1'
_symmetry_Int_Tables_number	1
_symmetry_cell_setting	triclinic
loop_
_symmetry_equiv_pos_as_xyz
  x,y,z
_cell_length_a	17.699077
_cell_length_b	17.699083
_cell_length_c	7.540329
_cell_angle_alpha	89.995522
_cell_angle_beta	89.997601
_cell_angle_gamma	83.281795
loop_
_atom_site_label
_atom_site_type_symbol
_atom_site_fract_x
_atom_site_fract_y
_atom_site_fract_z
O1	O	1.004077	0.095689	-0.147462
O2	O	0.783698	0.108146	-0.147472
O3	O	0.900114	-0.008272	-0.147451
O4	O	0.887661	0.212107	-0.147483
O5	O	0.900107	-0.008274	0.147514
O6	O	0.783691	0.108144	0.147494
O7	O	1.004070	0.095687	0.147503
Cu8	Cu	0.893880	0.101916	0.174431
Cu9	Cu	0.893888	0.101917	-0.174400
O10	O	0.887654	0.212105	0.147482
C11	C	0.755498	0.107700	0.000010
C12	C	0.671479	0.106363	0.000007
C13	C	0.632008	0.105732	0.160794
C14	C	0.553066	0.104464	0.160796
C15	C	0.513595	0.103832	0.000009
C16	C	0.553072	0.104460	-0.160791
C17	C	0.632014	0.105723	-0.160791
C18	C	0.234709	0.099367	-0.160793
C19	C	0.155761	0.098106	-0.160781
C20	C	0.155760	0.098108	0.160794
C21	C	0.234702	0.099371	0.160794
C22	C	0.274173	0.099995	-0.000005
C23	C	0.359772	0.101369	-0.000005
C24	C	0.427997	0.102464	0.000008
C25	C	0.899664	-0.036470	0.000032
C26	C	0.898326	-0.120488	0.000032
C27	C	0.966659	-0.169110	0.000038
C28	C	0.965397	-0.248054	0.000022
C29	C	0.895800	-0.278373	0.000014
C30	C	0.827461	-0.229744	0.000003
C31	C	0.828724	-0.150803	0.000006
C32	C	0.822366	-0.548107	-0.000012
C33	C	0.821108	-0.627055	-0.000009
C34	C	0.959039	-0.645358	0.000004
C35	C	0.960302	-0.566417	0.000007
C36	C	0.891963	-0.517795	-0.000013
C37	C	0.893333	-0.432196	0.000001
C38	C	0.894430	-0.363971	0.000013
C39	C	1.032271	0.096133	0.000017
C40	C	1.116289	0.097470	0.000009
C41	C	0.888104	0.240303	-0.000004
C42	C	0.889443	0.324321	-0.000017
N43	N	0.893880	0.101914	0.419779
N44	N	0.893894	0.101913	-0.419748
H45	H	0.520929	0.103940	-0.291706
Cl46	Cl	0.106142	0.097310	-0.362929
H47	H	0.664150	0.106238	-0.291721
H48	H	0.520933	0.103938	0.291726
H49	H	0.266836	0.099873	-0.291726
Cl50	Cl	1.054157	-0.131003	0.000066
H51	H	1.021041	-0.287639	0.000030
Cl52	Cl	0.284318	0.100169	0.362934
H53	H	0.123614	0.097596	0.291724
Cl54	Cl	0.739968	-0.267860	-0.000030
Cl55	Cl	1.047798	-0.528306	0.000012
Cl56	Cl	1.044951	-0.706488	0.000022
H57	H	0.764431	-0.651737	-0.000013
Cl58	Cl	0.736454	-0.486993	-0.000041
H59	H	0.664139	0.106253	0.291726
Cl60	Cl	0.742816	-0.089676	-0.000007
