data_functionalizedCrystal
_audit_creation_method	'MofGen! by Chris Wilmer'
_symmetry_space_group_name_H-M	'P1'
_symmetry_Int_Tables_number	1
_symmetry_cell_setting	triclinic
loop_
_symmetry_equiv_pos_as_xyz
  x,y,z
_cell_length_a	16.992694
_cell_length_b	13.101039
_cell_length_c	16.992695
_cell_angle_alpha	86.408978
_cell_angle_beta	90.668223
_cell_angle_gamma	93.581737
loop_
_atom_site_label
_atom_site_type_symbol
_atom_site_fract_x
_atom_site_fract_y
_atom_site_fract_z
O1	O	1.054903	0.085087	0.162849
O2	O	1.554903	0.585087	0.662849
O3	O	0.826504	0.085117	0.161017
O4	O	1.326504	0.585117	0.661017
O5	O	0.939787	0.085094	0.047733
O6	O	1.439787	0.585094	0.547733
O7	O	0.941619	0.085110	0.276133
O8	O	1.441619	0.585110	0.776133
O9	O	0.931660	-0.085335	0.055876
O10	O	1.431660	0.414665	0.555876
O11	O	0.818377	-0.085311	0.169159
O12	O	1.318377	0.414689	0.669159
O13	O	1.046776	-0.085342	0.170992
O14	O	1.546776	0.414658	0.670992
Zn15	Zn	0.931286	-0.112386	0.171368
Zn16	Zn	1.431286	0.387614	0.671368
Zn17	Zn	0.941994	0.112161	0.160640
Zn18	Zn	1.441994	0.612161	0.660640
O19	O	0.933492	-0.085319	0.284275
O20	O	1.433492	0.414681	0.784275
C21	C	0.793081	-0.000094	0.162732
C22	C	1.293081	0.499906	0.662732
C23	C	0.705597	-0.000082	0.155703
C24	C	1.205597	0.499918	0.655703
N25	N	0.923984	-0.265633	0.178689
N26	N	1.423984	0.234367	0.678689
C27	C	0.659606	-0.000078	0.223520
C28	C	1.159606	0.499922	0.723520
C29	C	0.577404	-0.000093	0.216912
C30	C	1.077404	0.499907	0.716912
C31	C	0.541196	-0.000104	0.142485
C32	C	1.041196	0.499896	0.642485
C33	C	0.587192	-0.000111	0.074662
C34	C	1.087192	0.499889	0.574662
C35	C	0.669392	-0.000104	0.081272
C36	C	1.169392	0.499896	0.581272
C37	C	0.295880	-0.000133	0.115092
C38	C	0.795880	0.499867	0.615092
C39	C	0.213674	-0.000138	0.108488
C40	C	0.713674	0.499862	0.608488
C41	C	0.203892	-0.000121	0.250738
C42	C	0.703892	0.499879	0.750738
C43	C	0.286094	-0.000108	0.257341
C44	C	0.786094	0.499892	0.757341
C45	C	0.332083	-0.000120	0.189518
C46	C	0.832083	0.499880	0.689518
N47	N	0.457173	-0.000116	0.135728
N48	N	0.957173	0.499884	0.635728
N49	N	0.416104	-0.000116	0.196276
N50	N	0.916104	0.499884	0.696276
C51	C	0.914050	-0.474673	0.188658
C52	C	1.414050	0.025327	0.688658
C53	C	0.959233	-0.525558	0.143347
C54	C	1.459233	-0.025558	0.643347
C55	C	0.953706	-0.641876	0.148894
C56	C	1.453706	-0.141876	0.648894
C57	C	0.919576	-0.358345	0.183112
C58	C	1.419576	0.141655	0.683112
C59	C	1.080199	-0.000129	0.169276
C60	C	1.580199	0.499871	0.669276
C61	C	1.167684	-0.000134	0.176305
C62	C	1.667684	0.499866	0.676305
C63	C	0.933368	-0.000120	0.022444
C64	C	1.433368	0.499880	0.522444
C65	C	0.926339	-0.000119	-0.065040
C66	C	1.426339	0.499881	0.434960
N67	N	0.949302	0.265408	0.153313
N68	N	1.449302	0.765408	0.653313
C69	C	0.994157	-0.000129	-0.111031
C70	C	1.494157	0.499871	0.388969
C71	C	0.987549	-0.000118	-0.193232
C72	C	1.487549	0.499882	0.306768
C73	C	0.913122	-0.000105	-0.229441
C74	C	1.413122	0.499895	0.270559
C75	C	0.845299	-0.000092	-0.183445
C76	C	1.345299	0.499908	0.316555
C77	C	0.851909	-0.000095	-0.101245
C78	C	1.351909	0.499905	0.398755
C79	C	0.885728	-0.000087	-0.474756
C80	C	1.385728	0.499913	0.025244
C81	C	0.879123	-0.000087	-0.556961
C82	C	1.379123	0.499913	-0.056961
C83	C	1.021373	-0.000112	-0.566743
C84	C	1.521373	0.499888	-0.066743
C85	C	1.027976	-0.000121	-0.484542
C86	C	1.527976	0.499879	0.015458
C87	C	0.960154	-0.000102	-0.438553
C88	C	1.460154	0.499898	0.061447
N89	N	0.906365	-0.000097	-0.313464
N90	N	1.406365	0.499903	0.186536
N91	N	0.966912	-0.000103	-0.354532
N92	N	1.466912	0.499897	0.145468
C93	C	0.939912	-0.000103	0.309564
C94	C	1.439912	0.499897	0.809564
C95	C	0.946941	-0.000097	0.397048
C96	C	1.446941	0.499903	0.897048
H97	H	0.689081	-0.000068	0.284127
H98	H	1.189081	0.499932	0.784127
H99	H	0.818512	-0.000093	-0.586439
H100	H	1.318512	0.499907	-0.086439
H101	H	1.002068	-0.481765	0.100391
H102	H	1.502068	0.018235	0.600391
C103	C	0.856890	-0.533191	0.245816
C104	C	1.356890	-0.033191	0.745816
C105	C	0.803134	-0.594814	0.203816
C106	C	1.303134	-0.094814	0.703816
C107	C	0.750478	-0.648760	0.256445
C108	C	1.250478	-0.148760	0.756445
H109	H	0.829185	-0.486092	0.273544
H110	H	1.329185	0.013908	0.773544
H111	H	0.885344	-0.575102	0.282273
H112	H	1.385344	-0.075102	0.782273
H113	H	0.774683	-0.552908	0.167373
H114	H	1.274683	-0.052908	0.667373
H115	H	0.830817	-0.641932	0.176090
H116	H	1.330817	-0.141932	0.676090
H117	H	0.778932	-0.690670	0.292902
H118	H	1.278932	-0.190670	0.792902
H119	H	0.722778	-0.601653	0.284171
H120	H	1.222778	-0.101653	0.784171
H121	H	0.714003	-0.690584	0.227957
H122	H	1.214003	-0.190584	0.727957
C123	C	0.527610	-0.000035	0.290635
C124	C	1.027610	0.499965	0.790635
C125	C	0.576916	0.000009	0.357227
C126	C	1.076916	0.500009	0.857227
C127	C	0.531074	0.000074	0.425157
C128	C	1.031074	0.500074	0.925157
H129	H	0.492507	-0.059455	0.293967
H130	H	0.992507	0.440545	0.793967
H131	H	0.498180	0.059416	0.288215
H132	H	0.998180	0.559416	0.788215
H133	H	0.606332	-0.059436	0.359648
H134	H	1.106332	0.440564	0.859648
H135	H	0.612019	0.059426	0.353921
H136	H	1.112019	0.559426	0.853921
H137	H	0.501644	0.059525	0.422737
H138	H	1.001644	0.559525	0.922737
H139	H	0.495972	-0.059348	0.428481
H140	H	0.995972	0.440652	0.928481
H141	H	0.564521	0.000114	0.470347
H142	H	1.064521	0.500114	0.970347
C143	C	0.811997	-0.000135	-0.424965
C144	C	1.311997	0.499865	0.075035
C145	C	0.745404	-0.000158	-0.474271
C146	C	1.245404	0.499842	0.025729
C147	C	0.677466	-0.000220	-0.428427
C148	C	1.177466	0.499780	0.071573
H149	H	0.814334	0.059279	-0.395519
H150	H	1.314334	0.559279	0.104481
H151	H	0.808741	-0.059593	-0.389874
H152	H	1.308741	0.440407	0.110126
H153	H	0.748660	0.059294	-0.509348
H154	H	1.248660	0.559294	-0.009348
H155	H	0.743042	-0.059568	-0.503717
H156	H	1.243042	0.440432	-0.003717
H157	H	0.674210	-0.059678	-0.393336
H158	H	1.174210	0.440322	0.106664
H159	H	0.679811	0.059195	-0.398983
H160	H	1.179811	0.559195	0.101017
H161	H	0.632275	-0.000245	-0.461873
H162	H	1.132275	0.499755	0.038127
H163	H	1.054763	-0.000146	-0.081556
H164	H	1.554763	0.499854	0.418444
C165	C	0.325254	-0.000154	0.338222
C166	C	0.825254	0.499846	0.838222
C167	C	0.267381	-0.000181	0.396203
C168	C	0.767381	0.499819	0.896203
C169	C	0.303424	-0.000235	0.470721
C170	C	0.803424	0.499765	0.970721
H171	H	0.359938	0.059264	0.341029
H172	H	0.859938	0.559264	0.841029
H173	H	0.354268	-0.059608	0.346638
H174	H	0.854268	0.440392	0.846638
H175	H	0.238379	0.059266	0.387790
H176	H	0.738379	0.559266	0.887790
H177	H	0.232693	-0.059596	0.393421
H178	H	0.732693	0.440404	0.893421
H179	H	0.332439	-0.059688	0.479136
H180	H	0.832439	0.440312	0.979136
H181	H	0.338108	0.059185	0.473520
H182	H	0.838108	0.559185	0.973520
H183	H	0.264163	-0.000263	0.510070
H184	H	0.764163	0.499737	1.010070
H185	H	1.042773	-0.000129	-0.230674
H186	H	1.542773	0.499871	0.269326
C187	C	0.174505	-0.000201	0.027608
C188	C	0.674505	0.499799	0.527608
C189	C	0.232372	-0.000235	-0.030374
C190	C	0.732372	0.499765	0.469626
C191	C	0.196318	-0.000302	-0.104883
C192	C	0.696318	0.499698	0.395117
H193	H	0.145477	0.059216	0.019124
H194	H	0.645477	0.559216	0.519124
H195	H	0.139830	-0.059656	0.024876
H196	H	0.639830	0.440344	0.524876
H197	H	0.267033	0.059214	-0.027644
H198	H	0.767033	0.559214	0.472356
H199	H	0.261404	-0.059648	-0.021916
H200	H	0.761404	0.440352	0.478084
H201	H	0.161643	-0.059757	-0.107616
H202	H	0.661643	0.440243	0.392384
H203	H	0.167291	0.059116	-0.113359
H204	H	0.667291	0.559116	0.386641
H205	H	0.235574	-0.000335	-0.144232
H206	H	0.735574	0.499665	0.355768
C207	C	1.108744	0.000031	-0.445139
C208	C	1.608744	0.500031	0.054861
C209	C	1.120870	0.087697	-0.402403
C210	C	1.620870	0.587697	0.097597
C211	C	1.195261	0.087862	-0.366089
C212	C	1.695261	0.587862	0.133911
H213	H	1.148261	0.000081	-0.484223
H214	H	1.648261	0.500081	0.015777
H215	H	1.111459	-0.059372	-0.410398
H216	H	1.611459	0.440628	0.089602
H217	H	1.118162	0.147085	-0.437141
H218	H	1.618162	0.647085	0.062859
H219	H	1.081371	0.087666	-0.363306
H220	H	1.581371	0.587666	0.136694
H221	H	1.197976	0.028459	-0.331347
H222	H	1.697976	0.528459	0.168653
H223	H	1.234772	0.087909	-0.405178
H224	H	1.734772	0.587909	0.094822
H225	H	1.203495	0.147337	-0.337082
H226	H	1.703495	0.647337	0.162918
H227	H	1.076590	-0.000125	-0.604196
H228	H	1.576590	0.499875	-0.104196
H229	H	0.784699	-0.000075	-0.212933
H230	H	1.284699	0.499925	0.287067
C231	C	0.345905	0.000027	0.041513
C232	C	0.845905	0.500027	0.541513
C233	C	0.397566	0.087699	0.036970
C234	C	0.897566	0.587699	0.536970
C235	C	0.443671	0.087878	-0.030799
C236	C	0.943671	0.587878	0.469201
H237	H	0.312660	0.000078	-0.003816
H238	H	0.812660	0.500078	0.496184
H239	H	0.375396	-0.059372	0.043962
H240	H	0.875396	0.440628	0.543962
H241	H	0.368078	0.147083	0.034514
H242	H	0.868078	0.647083	0.534514
H243	H	0.430828	0.087667	0.082283
H244	H	0.930828	0.587667	0.582283
H245	H	0.473161	0.028479	-0.028349
H246	H	0.973161	0.528479	0.471651
H247	H	0.410420	0.087926	-0.076123
H248	H	0.910420	0.587926	0.423877
H249	H	0.478733	0.147357	-0.033886
H250	H	0.978733	0.647357	0.466114
C251	C	0.719194	-0.000050	0.007544
C252	C	1.219194	0.499950	0.507544
C253	C	0.669894	-0.000032	-0.059053
C254	C	1.169894	0.499968	0.440947
C255	C	0.715744	0.000028	-0.126987
C256	C	1.215744	0.500028	0.373013
H257	H	0.748649	-0.059463	0.009893
H258	H	1.248649	0.440537	0.509893
H259	H	0.754277	0.059409	0.004281
H260	H	1.254277	0.559409	0.504281
H261	H	0.634825	-0.059484	-0.055791
H262	H	1.134825	0.440516	0.444209
H263	H	0.640440	0.059377	-0.061428
H264	H	1.140440	0.559377	0.438572
H265	H	0.750827	0.059487	-0.130250
H266	H	1.250827	0.559487	0.369750
H267	H	0.745196	-0.059386	-0.124630
H268	H	1.245196	0.440614	0.375370
H269	H	0.682301	0.000050	-0.172181
H270	H	1.182301	0.500050	0.327819
H271	H	0.557704	-0.000135	0.014063
H272	H	1.057704	0.499865	0.514063
H273	H	0.166439	-0.000113	0.305955
H274	H	0.666439	0.499887	0.805955
H275	H	0.796684	-0.000087	-0.063800
H276	H	1.296684	0.499913	0.436200
