data_functionalizedCrystal
_audit_creation_method	'MofGen! by Chris Wilmer'
_symmetry_space_group_name_H-M	'P1'
_symmetry_Int_Tables_number	1
_symmetry_cell_setting	triclinic
loop_
_symmetry_equiv_pos_as_xyz
  x,y,z
_cell_length_a	14.853567
_cell_length_b	14.853559
_cell_length_c	13.330367
_cell_angle_alpha	90.000206
_cell_angle_beta	90.004719
_cell_angle_gamma	83.633192
loop_
_atom_site_label
_atom_site_type_symbol
_atom_site_fract_x
_atom_site_fract_y
_atom_site_fract_z
O1	O	1.196366	0.117701	0.083349
O2	O	0.933906	0.131723	0.083366
O3	O	1.072150	-0.006518	0.083356
O4	O	1.058121	0.255942	0.083359
O5	O	1.072129	-0.006516	-0.083491
O6	O	0.933885	0.131725	-0.083481
O7	O	1.196345	0.117704	-0.083498
Cu8	Cu	1.065113	0.124715	-0.098724
Cu9	Cu	1.065138	0.124712	0.098592
O10	O	1.058100	0.255945	-0.083488
C11	C	0.900307	0.131089	-0.000055
C12	C	0.800223	0.129185	-0.000049
C13	C	1.071506	-0.040106	-0.000066
C14	C	1.069605	-0.140190	-0.000060
C15	C	0.387692	0.039019	-0.000072
C16	C	0.366406	0.203252	-0.000070
C17	C	0.460440	0.205042	-0.000066
C18	C	0.518104	0.123819	-0.000065
C19	C	0.481735	0.040806	-0.000066
C20	C	0.496816	0.288054	-0.000055
C21	C	0.590855	0.289847	-0.000050
C22	C	0.648521	0.208623	-0.000056
C23	C	0.612147	0.125607	-0.000058
C24	C	0.669811	0.044384	-0.000057
C25	C	0.633438	-0.038633	-0.000067
C26	C	0.539401	-0.040417	-0.000072
C27	C	0.742559	0.210408	-0.000051
C28	C	0.763854	0.046172	-0.000050
C29	C	1.061553	-0.563367	0.090889
C30	C	1.061529	-0.563358	-0.091014
C31	C	1.063323	-0.469325	-0.091015
C32	C	1.064230	-0.422308	-0.000062
C33	C	1.063343	-0.469324	0.090891
C34	C	1.064200	-0.422300	-0.181967
C35	C	1.065993	-0.328261	-0.181971
C36	C	1.066906	-0.281243	-0.091018
C37	C	1.066021	-0.328266	-0.000061
C38	C	1.066928	-0.281249	0.090892
C39	C	1.066049	-0.328270	0.181850
C40	C	1.064257	-0.422306	0.181845
C41	C	1.068698	-0.187207	-0.091012
C42	C	1.068718	-0.187206	0.090894
C43	C	1.229944	0.118338	-0.000074
C44	C	1.330027	0.120242	-0.000074
C45	C	1.058745	0.289532	-0.000064
C46	C	1.060646	0.389616	-0.000063
N47	N	1.065102	0.124717	-0.237505
C48	C	1.010363	0.069937	-0.290028
C49	C	1.119851	0.179492	-0.290011
C50	C	1.119862	0.179492	-0.395030
C51	C	1.065123	0.124712	-0.447552
C52	C	1.010374	0.069933	-0.395056
C53	C	1.174617	0.234263	-0.447534
C54	C	1.174631	0.234264	-0.552559
C55	C	1.119887	0.179488	-0.605083
C56	C	1.065134	0.124707	-0.552580
C57	C	1.010395	0.069928	-0.605102
C58	C	0.955638	0.015151	-0.552601
C59	C	0.955630	0.015157	-0.447580
C60	C	1.119895	0.179482	-0.710104
C61	C	1.010406	0.069923	-0.710130
N62	N	1.065156	0.124703	0.237374
H63	H	0.680401	-0.104765	-0.000058
O64	O	1.067016	-0.277552	0.279947
H65	H	1.128073	-0.303557	0.323565
O66	O	1.233683	0.293342	-0.609185
H67	H	1.214148	0.365366	-0.589038
H68	H	0.810799	-0.019971	-0.000053
O69	O	0.896579	-0.043948	-0.390988
H70	H	0.916126	-0.115959	-0.411180
H71	H	1.164423	0.224086	-0.247242
O72	O	1.063241	-0.473021	-0.280054
H73	H	1.001038	-0.507923	-0.284400
H74	H	0.358073	-0.028572	-0.000084
O75	O	0.781786	0.299939	-0.000045
H76	H	0.824119	0.304684	0.067964
O77	O	1.063294	-0.473017	0.279944
H78	H	1.061882	-0.546303	0.264660
O79	O	0.630074	0.379387	-0.000055
H80	H	0.672407	0.384142	0.067952
H81	H	0.509777	-0.108006	-0.000103
O82	O	1.066960	-0.277548	-0.280069
H83	H	1.066038	-0.326043	-0.343313
H84	H	1.069393	-0.148924	-0.165069
H85	H	0.965827	0.025319	-0.752886
H86	H	0.449859	0.354181	-0.000046
O87	O	1.178960	0.238545	-0.766726
H88	H	1.169779	0.229334	-0.848578
O89	O	0.896596	-0.043931	-0.609252
H90	H	0.905805	-0.034725	-0.691099
H91	H	1.060840	-0.601656	0.164945
H92	H	0.965778	0.025342	-0.247277
O93	O	1.069689	-0.136494	0.188994
H94	H	1.068768	-0.184990	0.252236
O95	O	1.060569	-0.614064	-0.189110
H96	H	1.059185	-0.687355	-0.173831
O97	O	1.233648	0.293351	-0.390891
H98	H	1.224429	0.284162	-0.309043
H99	H	0.319450	0.269380	-0.000063
