data_functionalizedCrystal
_audit_creation_method	'MofGen! by Chris Wilmer'
_symmetry_space_group_name_H-M	'P1'
_symmetry_Int_Tables_number	1
_symmetry_cell_setting	triclinic
loop_
_symmetry_equiv_pos_as_xyz
  x,y,z
_cell_length_a	19.288859
_cell_length_b	17.019294
_cell_length_c	17.766277
_cell_angle_alpha	86.114664
_cell_angle_beta	89.989768
_cell_angle_gamma	83.264228
loop_
_atom_site_label
_atom_site_type_symbol
_atom_site_fract_x
_atom_site_fract_y
_atom_site_fract_z
O1	O	0.921530	0.098383	-0.068985
O2	O	0.719292	0.111663	-0.069844
O3	O	0.826052	-0.009830	-0.061966
O4	O	0.814770	0.219876	-0.076862
O5	O	0.826033	-0.009836	0.063223
O6	O	0.719273	0.111657	0.055345
O7	O	0.921511	0.098377	0.056204
Cu8	Cu	0.820391	0.105016	0.067205
Cu9	Cu	0.820413	0.105024	-0.080845
O10	O	0.814751	0.219870	0.048327
C11	C	0.693405	0.111234	-0.007221
C12	C	0.616299	0.109953	-0.007138
C13	C	0.052370	0.172579	-0.011200
C14	C	0.124818	0.173789	-0.011282
C15	C	0.169399	0.102502	-0.006658
C16	C	0.141525	0.030000	-0.001970
C17	C	0.069078	0.028793	-0.001896
C18	C	0.290568	0.049335	0.040652
C19	C	0.363014	0.050546	0.040581
C20	C	0.392851	0.106225	-0.006892
C21	C	0.350232	0.160706	-0.054286
C22	C	0.277785	0.159498	-0.054211
C23	C	0.247957	0.103804	-0.006739
C24	C	0.499273	0.180034	-0.011674
C25	C	0.571724	0.181241	-0.011760
C26	C	0.588430	0.037450	-0.002441
C27	C	0.515981	0.036245	-0.002362
C28	C	0.471407	0.107539	-0.006975
C29	C	0.825615	-0.039221	0.002532
C30	C	0.824331	-0.126787	0.008206
C31	C	0.823739	-0.167918	-0.057368
C32	C	0.822528	-0.250194	-0.052035
C33	C	0.821914	-0.291340	0.018874
C34	C	0.822503	-0.250203	0.084453
C35	C	0.823709	-0.167927	0.079119
C36	C	0.818268	-0.539760	0.038393
C37	C	0.817064	-0.622042	0.043722
C38	C	0.817088	-0.622028	-0.092766
C39	C	0.818298	-0.539751	-0.098094
C40	C	0.818884	-0.498621	-0.032515
C41	C	0.820678	-0.375440	0.024327
C42	C	0.820114	-0.414521	-0.037969
C43	C	0.947398	0.098807	-0.006420
C44	C	1.024504	0.100087	-0.006509
C45	C	0.815189	0.249261	-0.016173
C46	C	0.816473	0.336827	-0.021852
N47	N	0.820380	0.105011	0.171336
N48	N	0.820429	0.105023	-0.184975
C49	C	0.867669	0.051240	0.214209
C50	C	0.867673	0.051236	0.293012
C51	C	0.820395	0.105017	0.328936
C52	C	0.773097	0.158792	0.286053
C53	C	0.773090	0.158789	0.207253
C54	C	0.811223	0.176893	0.449113
C55	C	0.811235	0.176897	0.527912
C56	C	0.820413	0.105027	0.571982
C57	C	0.829594	0.033149	0.537244
C58	C	0.829587	0.033146	0.458444
C59	C	0.820397	0.105026	0.414381
C60	C	0.867709	0.051247	0.700302
C61	C	0.867708	0.051243	0.779105
C62	C	0.773136	0.158805	0.772145
C63	C	0.773133	0.158803	0.693344
C64	C	0.820423	0.105025	0.657427
H65	H	0.397709	0.006188	0.079176
Cl66	Cl	0.799749	0.267255	0.393719
H67	H	0.837067	-0.025375	0.573125
H68	H	0.734581	0.202576	0.172345
H69	H	0.243087	0.203857	-0.092802
Cl70	Cl	0.824452	-0.116219	0.161559
Cl71	Cl	0.821786	-0.301899	-0.134476
H72	H	0.266282	0.003991	0.079312
Cl73	Cl	0.927114	-0.016369	0.169057
Cl74	Cl	0.606755	0.272383	-0.017667
H75	H	0.906213	0.007455	0.671057
Cl76	Cl	0.816296	-0.673767	0.132871
H77	H	0.820180	-0.408950	0.082061
Cl78	Cl	0.927157	-0.016365	0.833007
Cl79	Cl	0.818993	-0.488062	0.120837
Cl80	Cl	0.819072	-0.488032	-0.187240
H81	H	0.824243	-0.134424	-0.115110
Cl82	Cl	0.927127	-0.016367	0.346918
H83	H	0.821999	-0.283709	0.142188
Cl84	Cl	0.820890	-0.362795	-0.127108
H85	H	0.837060	-0.025379	0.430164
H86	H	0.177828	-0.028041	0.001793
H87	H	0.046391	-0.030241	0.001924
Cl88	Cl	0.644467	-0.052169	0.003361
Cl89	Cl	0.799699	0.267256	0.571575
H90	H	0.462979	0.238086	-0.015431
Cl91	Cl	0.713695	0.226410	0.817303
H92	H	0.493293	-0.022786	0.001463
H93	H	0.816610	-0.655525	-0.146157
H94	H	0.734602	0.202580	0.315307
Cl95	Cl	-0.003663	0.262206	-0.017009
Cl96	Cl	0.387731	0.230715	-0.113962
Cl97	Cl	0.159858	0.264929	-0.017178
H98	H	0.734629	0.202591	0.658433
