data_functionalizedCrystal
_audit_creation_method	'MofGen! by Chris Wilmer'
_symmetry_space_group_name_H-M	'P1'
_symmetry_Int_Tables_number	1
_symmetry_cell_setting	triclinic
loop_
_symmetry_equiv_pos_as_xyz
  x,y,z
_cell_length_a	12.759401
_cell_length_b	16.625546
_cell_length_c	16.625539
_cell_angle_alpha	90.028532
_cell_angle_beta	90.013884
_cell_angle_gamma	90.022629
loop_
_atom_site_label
_atom_site_type_symbol
_atom_site_fract_x
_atom_site_fract_y
_atom_site_fract_z
Zn1	Zn	1.606151	-0.321012	0.455829
Zn2	Zn	2.106151	0.178988	0.955829
Zn3	Zn	1.606035	-0.455850	0.320992
Zn4	Zn	2.106035	0.044150	0.820992
Zn5	Zn	1.430467	-0.321036	0.321017
Zn6	Zn	1.930467	0.178964	0.821017
Zn7	Zn	1.430418	-0.455806	0.455789
Zn8	Zn	1.930418	0.044194	0.955789
O9	O	1.518268	-0.388426	0.388407
O10	O	2.018268	0.111574	0.888407
O11	O	1.753157	-0.338907	0.437949
O12	O	2.253157	0.161093	0.937949
O13	O	1.582718	-0.437995	0.208163
O14	O	2.082718	0.062005	0.708163
O15	O	1.453841	-0.208200	0.338928
O16	O	1.953841	0.291800	0.838928
O17	O	1.753072	-0.437972	0.338884
O18	O	2.253072	0.062028	0.838884
O19	O	1.582915	-0.208182	0.437974
O20	O	2.082915	0.291818	0.937974
O21	O	1.453729	-0.338948	0.208182
O22	O	1.953729	0.161052	0.708182
O23	O	1.283439	-0.338905	0.338889
O24	O	1.783439	0.161095	0.838889
O25	O	1.453757	-0.437897	0.568627
O26	O	1.953757	0.062103	1.068627
O27	O	1.283403	-0.437920	0.437905
O28	O	1.783403	0.062080	0.937905
O29	O	1.582867	-0.338864	0.568656
O30	O	2.082867	0.161136	1.068656
O31	O	1.582670	-0.568677	0.338845
O32	O	2.082670	-0.068677	0.838845
O33	O	1.453645	-0.568645	0.437880
O34	O	1.953645	-0.068645	0.937880
C35	C	1.245300	-0.388411	0.388396
C36	C	1.745300	0.111589	0.888396
C37	C	1.128524	-0.388424	0.388410
C38	C	1.628524	0.111576	0.888410
C39	C	1.073670	-0.440064	0.439883
C40	C	1.573670	0.059936	0.939883
C41	C	0.963946	-0.440074	0.439892
C42	C	1.463946	0.059926	0.939892
C43	C	0.963939	-0.336803	0.336949
C44	C	1.463939	0.163197	0.836949
C45	C	1.073661	-0.336789	0.336944
C46	C	1.573661	0.163211	0.836944
C47	C	1.073674	-0.499690	0.499314
C48	C	1.573674	0.000310	0.999314
C49	C	0.963950	-0.499700	0.499322
C50	C	1.463950	0.000300	0.999322
C51	C	1.518168	-0.597917	0.388373
C52	C	2.018168	-0.097917	0.888373
C53	C	1.518222	-0.687538	0.388386
C54	C	2.018222	-0.187538	0.888386
C55	C	1.518405	-1.015714	0.388470
C56	C	2.018405	-0.515714	0.888470
C57	C	1.518351	-0.924405	0.388448
C58	C	2.018351	-0.424405	0.888448
C59	C	1.518313	-0.851629	0.388427
C60	C	2.018313	-0.351629	0.888427
C61	C	1.518260	-0.760314	0.388407
C62	C	2.018260	-0.260314	0.888407
C63	C	1.792301	-0.388441	0.388418
C64	C	2.292301	0.111559	0.888418
C65	C	1.909078	-0.388448	0.388423
C66	C	2.409078	0.111552	0.888423
C67	C	1.518319	-0.388373	0.598716
C68	C	2.018319	0.111627	1.098716
C69	C	1.518341	-0.388350	0.688337
C70	C	2.018341	0.111650	1.188337
C71	C	1.518396	-0.178117	0.388458
C72	C	2.018396	0.321883	0.888458
C73	C	1.518451	-0.088496	0.388480
C74	C	2.018451	0.411504	0.888480
C75	C	1.518277	-0.388421	0.178916
C76	C	2.018277	0.111579	0.678916
C77	C	1.518458	-0.388216	0.089295
C78	C	2.018458	0.111784	0.589295
C79	C	1.518358	-0.388332	0.761120
C80	C	2.018358	0.111668	1.261120
C81	C	1.518383	-0.388302	0.852428
C82	C	2.018383	0.111698	1.352428
C83	C	1.518408	-0.388274	0.925205
C84	C	2.018408	0.111726	1.425205
C85	C	1.518434	-0.388245	1.016519
C86	C	2.018434	0.111755	1.516519
H87	H	0.934145	-0.562130	0.482485
H88	H	1.434145	-0.062130	0.982485
H89	H	1.103478	-0.483045	0.561791
H90	H	1.603478	0.016955	1.061791
H91	H	0.929950	-0.477418	0.558689
H92	H	1.429950	0.022582	1.058689
C93	C	1.133996	-0.279983	0.280327
C94	C	1.633996	0.220017	0.780327
H95	H	1.085605	-0.249241	0.249673
H96	H	1.585605	0.250759	0.749673
H97	H	1.176824	-0.244889	0.311233
H98	H	1.676824	0.255111	0.811233
H99	H	1.176772	-0.310780	0.245132
H100	H	1.676772	0.189220	0.745132
C101	C	0.903586	-0.280011	0.280338
C102	C	1.403586	0.219989	0.780338
H103	H	0.830383	-0.287416	0.287710
H104	H	1.330383	0.212584	0.787710
H105	H	0.921593	-0.225850	0.292236
H106	H	1.421593	0.274150	0.792236
H107	H	0.921540	-0.291742	0.226137
H108	H	1.421540	0.208258	0.726137
C109	C	1.119627	-0.579776	0.468956
C110	C	1.619627	-0.079776	0.968956
H111	H	1.193988	-0.577034	0.469984
H112	H	1.693988	-0.077034	0.969984
H113	H	1.096636	-0.622365	0.502696
H114	H	1.596636	-0.122365	1.002696
H115	H	1.096617	-0.589328	0.415448
H116	H	1.596617	-0.089328	0.915448
