data_functionalizedCrystal
_audit_creation_method	'MofGen! by Chris Wilmer'
_symmetry_space_group_name_H-M	'P1'
_symmetry_Int_Tables_number	1
_symmetry_cell_setting	triclinic
loop_
_symmetry_equiv_pos_as_xyz
  x,y,z
_cell_length_a	17.038272
_cell_length_b	15.944545
_cell_length_c	14.421503
_cell_angle_alpha	89.995153
_cell_angle_beta	89.989101
_cell_angle_gamma	92.696136
loop_
_atom_site_label
_atom_site_type_symbol
_atom_site_fract_x
_atom_site_fract_y
_atom_site_fract_z
O1	O	-0.100803	1.121730	-0.077039
O2	O	0.399197	1.621730	0.422961
O3	O	-0.113241	0.878067	-0.077052
O4	O	0.386759	1.378067	0.422948
O5	O	0.006794	0.998450	-0.077054
O6	O	0.506794	1.498450	0.422946
O7	O	-0.220838	1.001347	-0.077037
O8	O	0.279162	1.501347	0.422963
O9	O	0.006776	0.998430	0.077170
O10	O	0.506776	1.498430	0.577170
O11	O	-0.113258	0.878047	0.077171
O12	O	0.386742	1.378047	0.577171
O13	O	-0.100821	1.121710	0.077185
O14	O	0.399179	1.621710	0.577185
Cu15	Cu	-0.107041	0.999877	0.091260
Cu16	Cu	0.392959	1.499877	0.591260
Cu17	Cu	-0.107020	0.999900	-0.091127
Cu18	Cu	0.392980	1.499900	0.408873
O19	O	-0.220856	1.001327	0.077186
O20	O	0.279144	1.501327	0.577186
C21	C	-0.112734	0.846727	0.000058
C22	C	0.387266	1.346727	0.500058
C23	C	-0.111189	0.753370	0.000052
C24	C	0.388811	1.253370	0.500052
C25	C	-0.032168	0.477095	0.000056
C26	C	0.467832	0.977095	0.500056
C27	C	-0.070274	0.530387	0.076101
C28	C	0.429726	1.030387	0.576101
C29	C	-0.105678	0.417333	0.000067
C30	C	0.394322	0.917333	0.500067
C31	C	-0.070276	0.530389	-0.075951
C32	C	0.429724	1.030389	0.424049
C33	C	-0.108381	0.582439	0.000058
C34	C	0.391619	1.082439	0.500058
C35	C	-0.143764	0.469395	0.076175
C36	C	0.356236	0.969395	0.576175
C37	C	-0.143756	0.469392	-0.075945
C38	C	0.356244	0.969392	0.424055
C39	C	-0.181916	0.522655	0.000119
C40	C	0.318084	1.022655	0.500119
C41	C	-0.104118	0.322219	0.000073
C42	C	0.395882	0.822219	0.500073
C43	C	-0.109947	0.677550	0.000059
C44	C	0.390053	1.177550	0.500059
C45	C	-0.249976	1.003971	0.000077
C46	C	0.250024	1.503971	0.500077
C47	C	-0.336771	1.011830	0.000083
C48	C	0.163229	1.511830	0.500083
C49	C	-0.386865	0.939673	0.000079
C50	C	0.113135	1.439673	0.500079
C51	C	-0.468418	0.947062	0.000068
C52	C	0.031582	1.447062	0.500068
C53	C	-0.499874	1.026610	0.000067
C54	C	0.000126	1.526610	0.500067
C55	C	-0.449774	1.098773	0.000069
C56	C	0.050226	1.598773	0.500069
C57	C	-0.368223	1.091383	0.000074
C58	C	0.131777	1.591383	0.500074
C59	C	-0.745639	1.052719	0.000048
C60	C	-0.245639	1.552719	0.500048
C61	C	-0.827197	1.060104	0.000046
C62	C	-0.327197	1.560104	0.500046
C63	C	-0.845835	0.908393	0.000043
C64	C	-0.345835	1.408393	0.500043
C65	C	-0.764282	0.901009	0.000053
C66	C	-0.264282	1.401009	0.500053
C67	C	-0.714188	0.973172	0.000050
C68	C	-0.214188	1.473172	0.500050
C69	C	-0.583234	1.034166	0.000059
C70	C	-0.083234	1.534166	0.500059
C71	C	-0.630830	0.965616	0.000051
C72	C	-0.130830	1.465616	0.500051
C73	C	0.035914	0.995806	0.000054
C74	C	0.535914	1.495806	0.500054
C75	C	0.122709	0.987947	0.000041
C76	C	0.622709	1.487947	0.500041
C77	C	-0.101328	1.153051	0.000073
C78	C	0.398672	1.653051	0.500073
C79	C	-0.102873	1.246407	0.000073
C80	C	0.397127	1.746407	0.500073
N81	N	-0.107056	0.999866	0.219541
N82	N	0.392944	1.499866	0.719541
N83	N	-0.107000	0.999917	-0.219408
N84	N	0.393000	1.499917	0.280592
C85	C	-0.162535	0.944189	0.469195
C86	C	0.337465	1.444189	0.969195
C87	C	-0.177712	1.021173	0.531004
C88	C	0.322288	1.521173	1.031004
C89	C	-0.107037	0.999885	0.408703
C90	C	0.392963	1.499885	0.908703
C91	C	-0.091878	0.922922	0.530988
C92	C	0.408122	1.422922	1.030988
C93	C	-0.107021	0.999897	0.591424
C94	C	0.392979	1.499897	1.091424
C95	C	-0.122250	1.076910	0.469150
C96	C	0.377750	1.576910	0.969150
C97	C	-0.036385	0.978607	0.469129
C98	C	0.463615	1.478607	0.969129
C99	C	-0.051532	1.055644	0.530909
C100	C	0.448468	1.555644	1.030909
C101	C	-0.107049	0.999877	0.303441
C102	C	0.392951	1.499877	0.803441
C103	C	-0.107009	0.999913	0.696683
C104	C	0.392991	1.499913	1.196683
H105	H	-0.039237	0.557093	0.140387
H106	H	0.460763	1.057093	0.640387
H107	H	-0.361260	0.874896	0.000090
H108	H	0.138740	1.374896	0.500090
F109	F	-0.139090	1.162016	0.433799
F110	F	0.360910	1.662016	0.933799
F111	F	-0.255798	1.044712	0.566528
F112	F	0.244202	1.544712	1.066528
H113	H	-0.004590	1.102805	0.557837
H114	H	0.495410	1.602805	1.057837
F115	F	-0.029674	0.565300	-0.159977
F116	F	0.470326	1.065300	0.340023
F117	F	-0.483254	1.183435	0.000062
F118	F	0.016746	1.683435	0.500062
H119	H	0.023338	0.960577	0.441930
H120	H	0.523338	1.460577	0.941930
H121	H	-0.079064	0.857831	0.558153
H122	H	0.420936	1.357831	1.058153
H123	H	0.031139	0.456922	0.000125
H124	H	0.531139	0.956922	0.500125
H125	H	-0.209505	0.897142	0.442098
H126	H	0.290495	1.397142	0.942098
H127	H	-0.327436	1.150142	0.000073
H128	H	0.172564	1.650142	0.500073
H129	H	-0.886630	0.849642	0.000044
H130	H	-0.386630	1.349642	0.500044
H131	H	-0.509202	0.888304	0.000061
H132	H	-0.009202	1.388304	0.500061
H133	H	-0.174766	0.442669	-0.140233
H134	H	0.325234	0.942669	0.359767
H135	H	-0.605215	0.900848	0.000047
H136	H	-0.105215	1.400848	0.500047
H137	H	-0.174793	0.442792	0.140534
H138	H	0.325207	0.942792	0.640534
H139	H	-0.245272	0.542671	0.000168
H140	H	0.254728	1.042671	0.500168
F141	F	-0.860673	1.144774	0.000066
F142	F	-0.360673	1.644774	0.500066
H143	H	-0.738676	0.836233	0.000042
H144	H	-0.238676	1.336233	0.500042
F145	F	-0.616720	1.118825	0.000060
F146	F	-0.116720	1.618825	0.500060
H147	H	-0.704862	1.111480	0.000051
H148	H	-0.204862	1.611480	0.500051
