data_functionalizedCrystal
_audit_creation_method	'MofGen! by Chris Wilmer'
_symmetry_space_group_name_H-M	'P1'
_symmetry_Int_Tables_number	1
_symmetry_cell_setting	triclinic
loop_
_symmetry_equiv_pos_as_xyz
  x,y,z
_cell_length_a	6.817900
_cell_length_b	7.190339
_cell_length_c	14.858340
_cell_angle_alpha	89.888744
_cell_angle_beta	75.480246
_cell_angle_gamma	119.388276
loop_
_atom_site_label
_atom_site_type_symbol
_atom_site_fract_x
_atom_site_fract_y
_atom_site_fract_z
V1	V	4.125790	0.296452	-0.289300
V2	V	4.625790	0.796452	0.210700
O3	O	4.021777	-0.012846	-0.284469
O4	O	4.521777	0.487154	0.215531
O5	O	4.162843	0.586468	-0.286671
O6	O	4.662843	1.086468	0.213329
O7	O	4.081246	0.292506	-0.415770
O8	O	4.581246	0.792506	0.084230
O9	O	4.103939	0.283151	-0.154476
O10	O	4.603939	0.783151	0.345524
V11	V	4.597845	0.259384	-0.273253
V12	V	5.097845	0.759384	0.226747
O13	O	4.412203	0.377764	-0.324500
O14	O	4.912203	0.877764	0.175500
O15	O	4.761629	0.178072	-0.238053
O16	O	5.261629	0.678072	0.261947
O17	O	4.337586	-0.030633	-0.275882
O18	O	4.837586	0.469367	0.224118
O19	O	4.819255	0.568682	-0.278084
O20	O	5.319255	1.068682	0.221916
O21	O	4.737093	0.272684	-0.408077
O22	O	5.237093	0.772684	0.091923
O23	O	4.419183	0.263330	-0.146782
O24	O	4.919183	0.763330	0.353218
C25	C	3.924420	0.282168	-0.446617
C26	C	4.424420	0.782168	0.053383
C27	C	3.969850	0.280861	-0.550003
C28	C	4.469850	0.780861	-0.050003
C29	C	4.028524	0.657151	-0.281943
C30	C	4.528524	1.157151	0.218057
C31	C	4.142230	0.898704	-0.280614
C32	C	4.642230	1.398704	0.219386
C33	C	4.006740	0.279797	-0.633964
C34	C	4.506740	0.779797	-0.133964
C35	C	4.053034	0.278453	-0.739296
C36	C	4.553034	0.778453	-0.239296
C37	C	4.089946	0.277382	-0.823250
C38	C	4.589946	0.777382	-0.323250
C39	C	4.136246	0.276042	-0.928590
C40	C	4.636246	0.776042	-0.428590
C41	C	4.239352	0.273674	-0.115931
C42	C	4.739352	0.773674	0.384069
C43	C	4.173158	0.274971	-0.012544
C44	C	4.673158	0.774971	0.487456
