data_functionalizedCrystal
_audit_creation_method	'MofGen! by Chris Wilmer'
_symmetry_space_group_name_H-M	'P1'
_symmetry_Int_Tables_number	1
_symmetry_cell_setting	triclinic
loop_
_symmetry_equiv_pos_as_xyz
  x,y,z
_cell_length_a	8.634740
_cell_length_b	17.038272
_cell_length_c	7.681481
_cell_angle_alpha	83.842174
_cell_angle_beta	96.618670
_cell_angle_gamma	95.840931
loop_
_atom_site_label
_atom_site_type_symbol
_atom_site_fract_x
_atom_site_fract_y
_atom_site_fract_z
O1	O	2.066089	0.263825	-0.146445
O2	O	1.614305	0.242236	-0.146446
O3	O	1.837513	0.139012	-0.146431
O4	O	1.842881	0.367049	-0.146459
O5	O	1.864982	0.126273	0.146428
O6	O	1.641774	0.229497	0.146414
O7	O	2.093558	0.251086	0.146415
Zn8	Zn	1.872027	0.238269	0.192912
Zn9	Zn	1.835836	0.255053	-0.192943
O10	O	1.870350	0.354310	0.146400
C11	C	1.569948	0.230976	-0.000016
C12	C	1.396851	0.216394	-0.000016
C13	C	1.846363	0.103145	-0.000002
C14	C	1.831791	0.015253	-0.000002
C15	C	1.965582	-0.024765	-0.000000
C16	C	1.951879	-0.107349	-0.000017
C17	C	1.804385	-0.149914	-0.000023
C18	C	1.670584	-0.109890	-0.000031
C19	C	1.684287	-0.027307	-0.000026
C20	C	1.755973	-0.399324	-0.000047
C21	C	1.742280	-0.481913	-0.000046
C22	C	2.023576	-0.479366	-0.000036
C23	C	2.037267	-0.396782	-0.000021
C24	C	1.903465	-0.356765	-0.000038
C25	C	1.790375	-0.234328	-0.000035
C26	C	1.917475	-0.272351	-0.000039
C27	C	2.137915	0.262346	-0.000019
C28	C	2.311010	0.276929	-0.000030
C29	C	1.861499	0.390176	-0.000033
C30	C	1.876071	0.478070	-0.000044
N31	N	1.896738	0.226814	0.456248
N32	N	1.811136	0.266502	-0.456279
H33	H	1.337907	0.153409	-0.000059
N34	N	2.006370	0.175986	0.550558
N35	N	2.086847	0.138669	0.468407
H36	H	2.164273	0.102771	0.535012
N37	N	1.384955	0.355936	-0.000010
N38	N	1.530182	0.368068	0.000011
H39	H	1.582417	0.423868	0.000028
N40	N	2.116260	0.018697	0.000030
N41	N	2.235702	-0.017047	0.000033
H42	H	2.342124	0.013645	0.000053
N43	N	2.088557	-0.148213	-0.000032
N44	N	2.220239	-0.110200	-0.000024
H45	H	2.316776	-0.139058	-0.000041
H46	H	2.157372	-0.362131	-0.000016
N47	N	2.160227	-0.520255	-0.000016
N48	N	2.147981	-0.593989	-0.000016
H49	H	2.244496	-0.622868	-0.000005
H50	H	1.670285	-0.268994	-0.000036
H51	H	1.622170	-0.516568	-0.000023
N52	N	1.701526	0.317321	0.449365
N53	N	1.686211	0.324416	0.284776
H54	H	1.608799	0.360309	0.218124
H55	H	1.550490	-0.144552	-0.000047
N56	N	1.619287	-0.358467	-0.000052
N57	N	1.487611	-0.396485	-0.000044
H58	H	1.391069	-0.367628	-0.000041
H59	H	2.037560	-0.237690	-0.000073
N60	N	1.547640	0.013588	-0.000042
N61	N	1.512340	0.064760	-0.123494
H62	H	1.415830	0.093644	-0.123515
