data_functionalizedCrystal
_audit_creation_method	'MofGen! by Chris Wilmer'
_symmetry_space_group_name_H-M	'P1'
_symmetry_Int_Tables_number	1
_symmetry_cell_setting	triclinic
loop_
_symmetry_equiv_pos_as_xyz
  x,y,z
_cell_length_a	12.759395
_cell_length_b	12.594516
_cell_length_c	12.594509
_cell_angle_alpha	89.972932
_cell_angle_beta	89.981373
_cell_angle_gamma	90.019709
loop_
_atom_site_label
_atom_site_type_symbol
_atom_site_fract_x
_atom_site_fract_y
_atom_site_fract_z
Zn1	Zn	1.606224	-0.423666	-0.601792
Zn2	Zn	1.606110	-0.601677	-0.423817
Zn3	Zn	1.430528	-0.423717	-0.423829
Zn4	Zn	1.430504	-0.601608	-0.601755
O5	O	1.518341	-0.512667	-0.512798
O6	O	1.753230	-0.447287	-0.578193
O7	O	1.582781	-0.578120	-0.274873
O8	O	1.453892	-0.274765	-0.447457
O9	O	1.753146	-0.578071	-0.447436
O10	O	1.582975	-0.274727	-0.578205
O11	O	1.453781	-0.447374	-0.274882
O12	O	1.283504	-0.447308	-0.447421
O13	O	1.453851	-0.577954	-0.750706
O14	O	1.283486	-0.578003	-0.578143
O15	O	1.582952	-0.447221	-0.750733
O16	O	1.582757	-0.750613	-0.447401
O17	O	1.453740	-0.750563	-0.578131
C18	C	1.245374	-0.512654	-0.512780
C19	C	1.128597	-0.512674	-0.512798
C20	C	1.128617	-0.648988	-0.648698
C21	C	1.073766	-0.717153	-0.716651
C22	C	0.964045	-0.717166	-0.716664
C23	C	0.909171	-0.649004	-0.648719
C24	C	0.964022	-0.580839	-0.580766
C25	C	1.073746	-0.580836	-0.580758
C26	C	0.964002	-0.444522	-0.444872
C27	C	1.073724	-0.444512	-0.444852
C28	C	0.909129	-0.376360	-0.376927
C29	C	0.963979	-0.308199	-0.308967
C30	C	1.073708	-0.308189	-0.308956
C31	C	1.128574	-0.376347	-0.376899
C32	C	1.518262	-0.789208	-0.512784
C33	C	1.518325	-0.907514	-0.512813
C34	C	1.448209	-1.047541	-0.583882
C35	C	1.543990	-0.976628	-0.609991
C36	C	1.422553	-0.976856	-0.486751
C37	C	1.614328	-1.047385	-0.539013
C38	C	1.492826	-1.047620	-0.415727
C39	C	1.588673	-0.976738	-0.441800
C40	C	1.792375	-0.512681	-0.512817
C41	C	1.909151	-0.512687	-0.512826
C42	C	1.518412	-0.512574	-0.790419
C43	C	1.518442	-0.512534	-0.908725
C44	C	1.518449	-0.235046	-0.512836
C45	C	1.518495	-0.116741	-0.512853
C46	C	1.448246	-0.583599	-0.977964
C47	C	1.544110	-0.609603	-1.048750
C48	C	1.422652	-0.486466	-1.048738
C49	C	1.614356	-0.538589	-0.977953
C50	C	1.492833	-0.415407	-0.977935
C51	C	1.588764	-0.441374	-1.048689
C52	C	1.518332	-0.512683	-0.236257
C53	C	1.518505	-0.512423	-0.117953
H54	H	1.217958	-0.648992	-0.648686
C55	C	1.668957	-0.934993	-0.360631
C56	C	1.785810	-0.963055	-0.372734
C57	C	1.866096	-0.921307	-0.291571
C58	C	1.829530	-0.851497	-0.198304
C59	C	1.712672	-0.823432	-0.186198
C60	C	1.632386	-0.865179	-0.267361
H61	H	1.812883	-1.014735	-0.441779
H62	H	1.952602	-0.942083	-0.300534
H63	H	1.888963	-0.820593	-0.138223
H64	H	1.685599	-0.771751	-0.117153
H65	H	1.545879	-0.844403	-0.258398
H66	H	1.565805	-0.691694	-1.079855
H67	H	1.695415	-0.560684	-0.946991
C68	C	1.134040	-0.233205	-0.234205
C69	C	1.254730	-0.233187	-0.234182
C70	C	1.315057	-0.158201	-0.159429
C71	C	1.254695	-0.083232	-0.084700
C72	C	1.133998	-0.083247	-0.084719
C73	C	1.073670	-0.158233	-0.159472
H74	H	1.299420	-0.288685	-0.289504
H75	H	1.404405	-0.158190	-0.159415
H76	H	1.299353	-0.027723	-0.029363
H77	H	1.089308	-0.027749	-0.029397
H78	H	0.984322	-0.158244	-0.159486
C79	C	1.313043	-0.934990	-0.456943
C80	C	1.298890	-0.865137	-0.357653
C81	C	1.189379	-0.823271	-0.327859
C82	C	1.094022	-0.851258	-0.397355
C83	C	1.108173	-0.921115	-0.496652
C84	C	1.217683	-0.962981	-0.526446
H85	H	1.369481	-0.844416	-0.306202
H86	H	1.178905	-0.771558	-0.254352
H87	H	1.012956	-0.820266	-0.375300
H88	H	1.037581	-0.941836	-0.548103
H89	H	1.228158	-1.014693	-0.599953
C90	C	1.368115	-0.664906	-0.935998
C91	C	1.379961	-0.783310	-0.963974
C92	C	1.299837	-0.864618	-0.922007
C93	C	1.207867	-0.827522	-0.852064
C94	C	1.196018	-0.709113	-0.824085
C95	C	1.276142	-0.627805	-0.866052
H96	H	1.448046	-0.810776	-1.015753
H97	H	1.308609	-0.952273	-0.942719
H98	H	1.148555	-0.887711	-0.820998
H99	H	1.127933	-0.681647	-0.772306
H100	H	1.267369	-0.540150	-0.845340
H101	H	1.648222	-0.381229	-1.079547
H102	H	1.118457	-0.772647	-0.771972
H103	H	1.471152	-1.078824	-0.333631
C104	C	0.903617	-0.233227	-0.234238
C105	C	0.828231	-0.149731	-0.280525
C106	C	0.767863	-0.074760	-0.205794
C107	C	0.782880	-0.083284	-0.084776
C108	C	0.858269	-0.166784	-0.038482
C109	C	0.918638	-0.241756	-0.113213
H110	H	0.817112	-0.143417	-0.370116
H111	H	0.712055	-0.012948	-0.240065
H112	H	0.738192	-0.027786	-0.029455
H113	H	0.869389	-0.173098	0.051109
H114	H	0.974445	-0.303568	-0.078942
H115	H	1.341617	-0.464464	-1.079831
C116	C	1.368112	-1.089551	-0.665105
C117	C	1.379906	-1.061491	-0.783529
C118	C	1.299815	-1.103503	-0.864754
C119	C	1.207930	-1.173575	-0.827556
C120	C	1.196132	-1.201639	-0.709126
C121	C	1.276223	-1.159627	-0.627901
H122	H	1.447928	-1.009616	-0.811071
H123	H	1.308549	-1.082728	-0.952423
H124	H	1.148642	-1.204675	-0.887683
H125	H	1.128110	-1.253514	-0.681585
H126	H	1.267489	-1.180402	-0.540232
C127	C	1.573231	-0.934494	-0.720926
C128	C	1.596267	-1.012829	-0.811822
C129	C	1.625498	-0.970699	-0.922759
C130	C	1.631692	-0.850234	-0.942798
C131	C	1.608655	-0.771891	-0.851899
C132	C	1.579424	-0.814021	-0.740962
H133	H	1.591683	-1.102011	-0.796990
H134	H	1.642551	-1.028695	-0.990048
H135	H	1.653330	-0.819047	-1.024920
H136	H	1.613239	-0.682709	-0.866731
H137	H	1.562371	-0.756026	-0.673673
H138	H	0.919386	-0.772666	-0.772003
H139	H	0.819830	-0.649011	-0.648745
C140	C	1.723875	-1.089057	-0.568950
C141	C	1.744198	-1.209441	-0.574547
C142	C	1.853741	-1.251115	-0.604487
C143	C	1.942962	-1.172404	-0.628829
C144	C	1.922642	-1.052012	-0.623232
C145	C	1.813098	-1.010338	-0.593293
H146	H	1.678149	-1.267714	-0.556527
H147	H	1.868783	-1.340237	-0.608630
H148	H	2.024053	-1.203253	-0.650992
H149	H	1.988691	-0.993739	-0.641252
H150	H	1.798057	-0.921216	-0.589150
H151	H	0.819787	-0.376371	-0.376947
H152	H	1.217915	-0.376350	-0.376894
H153	H	1.471111	-0.333340	-0.946806
