data_functionalizedCrystal
_audit_creation_method	'MofGen! by Chris Wilmer'
_symmetry_space_group_name_H-M	'P1'
_symmetry_Int_Tables_number	1
_symmetry_cell_setting	triclinic
loop_
_symmetry_equiv_pos_as_xyz
  x,y,z
_cell_length_a	13.339070
_cell_length_b	19.188930
_cell_length_c	11.804783
_cell_angle_alpha	76.675961
_cell_angle_beta	80.565097
_cell_angle_gamma	99.387037
loop_
_atom_site_label
_atom_site_type_symbol
_atom_site_fract_x
_atom_site_fract_y
_atom_site_fract_z
O1	O	1.322567	0.333604	0.099113
O2	O	1.028246	0.287703	0.099099
O3	O	1.183904	0.210665	0.099083
O4	O	1.166909	0.410642	0.099129
O5	O	1.220192	0.242871	-0.098950
O6	O	1.064533	0.319909	-0.098934
O7	O	1.358854	0.365810	-0.098920
Cu8	Cu	1.215007	0.345800	-0.117009
Cu9	Cu	1.172093	0.307713	0.117188
O10	O	1.203196	0.442848	-0.098904
C11	C	1.008735	0.296052	0.000080
C12	C	0.896537	0.272940	0.000074
C13	C	1.201498	0.200649	0.000063
C14	C	1.199849	0.122823	0.000053
C15	C	0.530938	0.452644	0.000134
C16	C	0.636352	0.474360	0.000143
C17	C	0.701404	0.424007	0.000126
C18	C	0.661030	0.351934	0.000099
C19	C	0.555603	0.330214	0.000098
C20	C	0.726069	0.301577	0.000090
C21	C	0.685695	0.229504	0.000064
C22	C	0.580278	0.207788	0.000062
C23	C	0.515227	0.258141	0.000080
C24	C	0.831496	0.323297	0.000091
C25	C	0.856161	0.200867	0.000056
C26	C	0.750746	0.179151	0.000046
C27	C	1.291183	0.095785	0.000051
C28	C	1.289628	0.022655	0.000070
C29	C	1.196738	-0.023432	0.000067
C30	C	1.105391	0.003612	0.000075
C31	C	1.106947	0.076740	0.000068
N32	N	1.138085	-0.134381	-0.067331
N33	N	1.136614	-0.203848	-0.067327
C34	C	1.192046	-0.243763	0.000091
N35	N	1.249023	-0.211582	0.067489
N36	N	1.250498	-0.142107	0.067479
C37	C	1.195042	-0.102728	0.000075
C38	C	1.281700	-0.350097	0.000112
C39	C	1.280140	-0.423230	0.000138
C40	C	1.095903	-0.442270	0.000131
C41	C	1.097464	-0.369139	0.000116
C42	C	1.190366	-0.323056	0.000101
C43	C	1.378365	0.357460	0.000101
C44	C	1.490562	0.380571	0.000115
C45	C	1.185601	0.452863	0.000118
C46	C	1.187249	0.530688	0.000136
N47	N	1.245198	0.372589	-0.281731
C48	C	1.069376	0.216575	-0.655790
C49	C	1.046517	0.196301	-0.531143
C50	C	1.096185	0.240372	-0.468784
C51	C	1.168716	0.304719	-0.531084
C52	C	1.191583	0.324993	-0.655744
C53	C	1.218392	0.348789	-0.468737
C54	C	1.290923	0.413137	-0.531037
C55	C	1.313786	0.433407	-0.655685
C56	C	1.264118	0.389337	-0.718044
C57	C	1.195525	0.328516	-0.344078
C58	C	1.317733	0.436933	-0.344031
C59	C	1.340591	0.457207	-0.468678
N60	N	1.141911	0.280919	0.281909
H61	H	0.864358	0.381980	0.000108
H62	H	1.357346	-0.312574	0.000105
H63	H	1.023091	-0.347125	0.000110
H64	H	1.399648	0.509601	-0.519421
F65	F	0.461699	0.506222	0.000169
F66	F	1.370601	0.483838	-0.277670
H67	H	1.354517	-0.445243	0.000144
H68	H	1.366830	0.133302	0.000043
H69	H	1.136470	0.276124	-0.293365
F70	F	1.016529	0.169678	-0.722164
H71	H	1.364004	0.000635	0.000074
F72	F	0.997041	-0.491315	0.000133
H73	H	1.077569	0.223861	-0.367290
F74	F	0.925387	0.147272	0.000044
H75	H	0.669215	0.533040	0.000174
H76	H	0.547407	0.149099	0.000054
F77	F	0.813596	0.447122	0.000134
F78	F	0.403030	0.235032	0.000067
F79	F	1.390990	0.501887	-0.721986
H80	H	0.987465	0.143908	-0.480427
H81	H	0.717857	0.120466	0.000034
H82	H	1.282722	0.405843	-0.819542
H83	H	1.032569	0.098752	0.000069
F84	F	1.006530	-0.045439	0.000079
