data_functionalizedCrystal
_audit_creation_method	'MofGen! by Chris Wilmer'
_symmetry_space_group_name_H-M	'P1'
_symmetry_Int_Tables_number	1
_symmetry_cell_setting	triclinic
loop_
_symmetry_equiv_pos_as_xyz
  x,y,z
_cell_length_a	29.839131
_cell_length_b	13.032831
_cell_length_c	13.033327
_cell_angle_alpha	76.683917
_cell_angle_beta	82.825863
_cell_angle_gamma	97.154634
loop_
_atom_site_label
_atom_site_type_symbol
_atom_site_fract_x
_atom_site_fract_y
_atom_site_fract_z
Zn1	Zn	-0.315927	-1.699576	0.806274
Zn2	Zn	-0.380092	-1.676892	0.628642
Zn3	Zn	-0.294046	-1.499477	0.606181
Zn4	Zn	-0.380076	-1.521865	0.783680
O5	O	-0.342535	-1.599453	0.706194
O6	O	-0.333602	-1.845189	0.801566
O7	O	-0.359527	-1.634495	0.477039
O8	O	-0.234091	-1.526145	0.632780
O9	O	-0.380744	-1.828523	0.671060
O10	O	-0.250167	-1.673157	0.779787
O11	O	-0.296310	-1.504149	0.460537
O12	O	-0.296295	-1.353825	0.610872
O13	O	-0.380717	-1.564301	0.935301
O14	O	-0.359501	-1.370273	0.741279
O15	O	-0.333587	-1.694865	0.951900
O16	O	-0.442947	-1.656204	0.649152
O17	O	-0.442936	-1.542306	0.763058
C18	C	-0.325522	-1.323513	0.671187
C19	C	-0.318256	-1.205468	0.656236
C20	C	-0.459243	-1.599254	0.706117
C21	C	-0.509179	-1.599271	0.706132
C22	C	-0.359591	-1.634611	0.983214
C23	C	-0.366859	-1.649593	1.101264
C24	C	-0.818843	-1.658895	0.646998
C25	C	-1.006526	-1.659032	0.647056
O26	O	-1.030797	-1.709569	0.596718
N27	N	-1.029996	-1.599683	0.706302
C28	C	-1.006542	-1.540302	0.765544
O29	O	-1.030812	-1.489834	0.815946
C30	C	-0.818860	-1.540172	0.765491
C31	C	-0.795392	-1.599516	0.706233
C32	C	-0.795375	-1.718235	0.587745
C33	C	-0.748456	-1.718196	0.587727
C34	C	-0.725006	-1.658817	0.646961
C35	C	-0.748473	-1.599477	0.706214
C36	C	-0.795408	-1.480797	0.824738
C37	C	-0.748485	-1.480772	0.824722
C38	C	-0.725017	-1.540116	0.765463
C39	C	-0.678104	-1.540058	0.765430
N40	N	-0.654635	-1.599407	0.706184
C41	C	-0.678085	-1.658786	0.646949
C42	C	-1.105078	-1.540372	0.765565
C43	C	-1.151998	-1.540403	0.765577
C44	C	-1.151979	-1.659135	0.647091
C45	C	-1.105057	-1.659097	0.647074
C46	C	-1.081608	-1.599721	0.706319
C47	C	-0.579553	-1.658698	0.646914
C48	C	-0.532630	-1.658650	0.646898
C49	C	-0.532653	-1.539923	0.765388
C50	C	-0.579572	-1.539966	0.765401
C51	C	-0.603021	-1.599362	0.706162
O52	O	-0.653806	-1.489556	0.815751
O53	O	-0.653810	-1.709265	0.596573
C54	C	-0.865761	-1.658935	0.647017
C55	C	-0.889229	-1.599594	0.706270
C56	C	-0.865779	-1.540215	0.765504
C57	C	-0.936149	-1.599625	0.706281
C58	C	-0.959600	-1.659005	0.647047
C59	C	-0.936131	-1.718353	0.587801
C60	C	-0.889212	-1.718314	0.587782
C61	C	-0.889248	-1.480866	0.824750
C62	C	-0.936167	-1.480910	0.824763
C63	C	-0.959617	-1.540289	0.765528
C64	C	-0.225375	-1.599684	0.706298
C65	C	-0.175449	-1.599782	0.706343
C66	C	-0.359615	-1.876469	0.741338
C67	C	-0.366894	-1.994518	0.756315
C68	C	-0.346328	-1.160994	0.713997
C69	C	-0.338819	-1.038988	0.698546
C70	C	-0.338821	-1.591780	1.145729
C71	C	-0.346332	-1.607264	1.267740
C72	C	-0.325556	-1.564424	1.430251
C73	C	-0.318290	-1.549443	1.312201
H74	H	-0.513523	-1.706975	0.598639
H75	H	-0.288723	-1.488477	1.259947
F76	F	-0.384981	-1.686943	1.336036
H77	H	-0.309223	-0.986745	0.637656
F78	F	-0.723531	-1.417576	0.887783
F79	F	-0.405572	-1.062800	0.835923
H80	H	-0.396425	-1.710551	1.153523
H81	H	-0.598640	-1.707067	0.598679
H82	H	-0.814464	-1.766595	0.539510
F83	F	-1.080085	-1.722259	0.584004
F84	F	-0.723487	-1.781372	0.524669
F85	F	-0.300172	-1.512111	1.077430
H86	H	-0.288662	-1.153221	0.595351
H87	H	-1.171081	-1.707484	0.598860
H88	H	-1.085989	-1.492018	0.813811
F89	F	-1.176968	-1.477227	0.828635
H90	H	-0.598681	-1.491647	0.813658
F91	F	-0.820375	-1.417644	0.887821
H92	H	-0.513552	-1.491573	0.813613
H93	H	-0.870108	-1.766638	0.539529
H94	H	-0.955232	-1.766699	0.539567
H95	H	-0.955270	-1.432575	0.873016
H96	H	-0.870158	-1.432514	0.872987
F97	F	-0.385009	-1.229280	0.793584
