data_functionalizedCrystal
_audit_creation_method	'MofGen! by Chris Wilmer'
_symmetry_space_group_name_H-M	'P1'
_symmetry_Int_Tables_number	1
_symmetry_cell_setting	triclinic
loop_
_symmetry_equiv_pos_as_xyz
  x,y,z
_cell_length_a	16.120490
_cell_length_b	18.050589
_cell_length_c	16.120256
_cell_angle_alpha	92.877403
_cell_angle_beta	90.129807
_cell_angle_gamma	87.120764
loop_
_atom_site_label
_atom_site_type_symbol
_atom_site_fract_x
_atom_site_fract_y
_atom_site_fract_z
Zn1	Zn	1.247411	-0.376323	-0.534559
Zn2	Zn	1.747411	0.123677	-0.034559
Zn3	Zn	1.254350	-0.494544	-0.395508
Zn4	Zn	1.754350	0.005456	0.104492
Zn5	Zn	1.115402	-0.363763	-0.388479
Zn6	Zn	1.615402	0.136237	0.111521
Zn7	Zn	1.108306	-0.493857	-0.527481
Zn8	Zn	1.608306	0.006143	-0.027481
O9	O	1.181367	-0.432122	-0.461507
O10	O	1.681367	0.067878	0.038493
O11	O	1.364698	-0.397549	-0.522017
O12	O	1.864698	0.102451	-0.022017
O13	O	1.241792	-0.472227	-0.278209
O14	O	1.741792	0.027773	0.221791
O15	O	1.132978	-0.261508	-0.407877
O16	O	1.632978	0.238492	0.092123
O17	O	1.369796	-0.484406	-0.419857
O18	O	1.869796	0.015594	0.080143
O19	O	1.229965	-0.270736	-0.515202
O20	O	1.729965	0.229264	-0.015202
O21	O	1.139707	-0.376143	-0.273045
O22	O	1.639707	0.123857	0.226955
O23	O	0.998094	-0.375476	-0.401014
O24	O	1.498094	0.124524	0.098986
O25	O	1.120885	-0.483234	-0.644786
O26	O	1.620885	0.016766	-0.144786
O27	O	0.992881	-0.471055	-0.503138
O28	O	1.492881	0.028945	-0.003138
O29	O	1.223084	-0.396882	-0.649987
O30	O	1.723084	0.103118	-0.149987
O31	O	1.234912	-0.598374	-0.412994
O32	O	1.734912	-0.098374	0.087006
O33	O	1.127614	-0.597869	-0.509954
O34	O	1.627614	-0.097869	-0.009954
C35	C	0.965315	-0.421829	-0.450546
C36	C	1.465315	0.078171	0.049454
C37	C	0.872886	-0.417444	-0.445877
C38	C	1.372886	0.082556	0.054123
C39	C	0.659920	-0.454859	-0.485729
C40	C	1.159920	0.045141	0.014271
C41	C	0.703662	-0.409446	-0.437351
C42	C	1.203662	0.090554	0.062649
C43	C	0.797827	-0.413898	-0.442096
C44	C	1.297827	0.086102	0.057904
C45	C	0.565747	-0.450409	-0.480984
C46	C	1.065747	0.049591	0.019016
C47	C	1.181267	-0.625068	-0.461488
C48	C	1.681267	-0.125068	0.038512
C49	C	1.181299	-0.707617	-0.461511
C50	C	1.681299	-0.207617	0.038489
C51	C	1.123006	-0.906821	-0.514222
C52	C	1.623006	-0.406821	-0.014222
C53	C	1.106583	-0.952040	-0.437316
C54	C	1.606583	-0.452040	0.062684
C55	C	1.181381	-0.858751	-0.461526
C56	C	1.681381	-0.358751	0.038474
C57	C	1.197844	-0.960616	-0.538443
C58	C	1.697844	-0.460616	-0.038443
C59	C	1.181457	-1.004741	-0.461548
C60	C	1.681457	-0.504741	0.038452
C61	C	1.164920	-0.902880	-0.384579
C62	C	1.664920	-0.402880	0.115421
C63	C	1.256213	-0.911455	-0.485758
C64	C	1.756213	-0.411455	0.014242
C65	C	1.239822	-0.956651	-0.408802
C66	C	1.739822	-0.456651	0.091198
C67	C	1.181334	-0.774650	-0.461515
C68	C	1.681334	-0.274650	0.038485
C69	C	1.181504	-1.088840	-0.461550
C70	C	1.681504	-0.588840	0.038450
C71	C	1.398263	-0.442455	-0.472511
C72	C	1.898263	0.057545	0.027489
C73	C	1.490691	-0.446859	-0.477200
C74	C	1.990691	0.053141	0.022800
C75	C	1.170419	-0.441383	-0.678403
C76	C	1.670419	0.058617	-0.178403
C77	C	1.165753	-0.445329	-0.770831
C78	C	1.665753	0.054671	-0.270831
C79	C	1.181489	-0.238423	-0.461545
C80	C	1.681489	0.261577	0.038455
C81	C	1.181541	-0.155880	-0.461561
C82	C	1.681541	0.344120	0.038439
C83	C	1.205696	-0.411522	-0.983812
C84	C	1.705696	0.088478	-0.483812
C85	C	1.157208	-0.452502	-0.940051
C86	C	1.657208	0.047498	-0.440051
C87	C	1.161964	-0.448510	-0.845888
C88	C	1.661964	0.051490	-0.345888
C89	C	1.200940	-0.415513	-1.077983
C90	C	1.700940	0.084487	-0.577983
C91	C	1.192321	-0.422845	-0.245457
C92	C	1.692321	0.077155	0.254543
C93	C	1.197147	-0.418697	-0.153038
C94	C	1.697147	0.081303	0.346962
H95	H	0.693190	-0.497079	-0.530706
H96	H	1.193190	0.002921	-0.030706
H97	H	1.043335	-0.970032	-0.416839
H98	H	1.543335	-0.470032	0.083161
H99	H	1.112119	-0.490581	-0.973306
H100	H	1.612119	0.009419	-0.473306
H101	H	1.250777	-0.373442	-0.950559
H102	H	1.750777	0.126558	-0.450559
C103	C	0.978006	-0.897597	-0.548715
C104	C	1.478006	-0.397597	-0.048715
C105	C	1.056281	-0.877279	-0.574284
C106	C	1.556281	-0.377279	-0.074284
H107	H	0.936814	-0.879353	-0.585790
H108	H	1.436814	-0.379353	-0.085790
H109	H	0.977247	-0.950181	-0.548771
H110	H	1.477247	-0.450181	-0.048771
H111	H	0.966868	-0.877024	-0.494246
H112	H	1.466868	-0.377024	0.005754
H113	H	1.067422	-0.897856	-0.628751
H114	H	1.567422	-0.397856	-0.128751
H115	H	1.057043	-0.824685	-0.574237
H116	H	1.557043	-0.324685	-0.074237
H117	H	1.150952	-0.877744	-0.319518
H118	H	1.650952	-0.377744	0.180482
H119	H	0.670390	-0.367223	-0.392369
H120	H	1.170390	0.132777	0.107631
C121	C	1.289107	-0.956559	-0.268133
C122	C	1.789107	-0.456559	0.231867
C123	C	1.306509	-0.986000	-0.348587
C124	C	1.806509	-0.486000	0.151413
H125	H	1.330272	-0.974684	-0.230959
H126	H	1.830272	-0.474684	0.269041
H127	H	1.289137	-0.903914	-0.267470
H128	H	1.789137	-0.403914	0.232530
H129	H	1.236112	-0.971124	-0.251403
H130	H	1.736112	-0.471124	0.248597
H131	H	1.359501	-0.971431	-0.365320
H132	H	1.859501	-0.471431	0.134680
H133	H	1.306487	-1.038657	-0.349253
H134	H	1.806487	-0.538657	0.150747
C135	C	1.358646	-0.916412	-0.594044
C136	C	1.858646	-0.416412	-0.094044
C137	C	1.341571	-0.887161	-0.513449
C138	C	1.841571	-0.387161	-0.013449
H139	H	1.411340	-0.901408	-0.611146
H140	H	1.911340	-0.401408	-0.111146
H141	H	1.359148	-0.969080	-0.594743
H142	H	1.859148	-0.469080	-0.094743
H143	H	1.317035	-0.898574	-0.630904
H144	H	1.817035	-0.398574	-0.130904
H145	H	1.383179	-0.905003	-0.476588
H146	H	1.883179	-0.405003	0.023412
H147	H	1.341076	-0.834481	-0.512744
H148	H	1.841076	-0.334481	-0.012744
H149	H	1.211739	-0.985837	-0.603482
H150	H	1.711739	-0.485837	-0.103482
