data_functionalizedCrystal
_audit_creation_method	'MofGen! by Chris Wilmer'
_symmetry_space_group_name_H-M	'P1'
_symmetry_Int_Tables_number	1
_symmetry_cell_setting	triclinic
loop_
_symmetry_equiv_pos_as_xyz
  x,y,z
_cell_length_a	10.654547
_cell_length_b	10.654541
_cell_length_c	18.366186
_cell_angle_alpha	90.005966
_cell_angle_beta	90.009751
_cell_angle_gamma	84.484992
loop_
_atom_site_label
_atom_site_type_symbol
_atom_site_fract_x
_atom_site_fract_y
_atom_site_fract_z
O1	O	1.667847	0.176418	0.060562
O2	O	1.302368	0.193220	0.060561
O3	O	1.493512	0.002079	0.060557
O4	O	1.476703	0.367558	0.060566
O5	O	1.493479	0.002070	-0.060543
O6	O	1.302335	0.193210	-0.060539
O7	O	1.667814	0.176408	-0.060538
Zn8	Zn	1.485069	0.184807	-0.079765
Zn9	Zn	1.485113	0.184820	0.079788
O10	O	1.476670	0.367549	-0.060534
C11	C	1.255554	0.191981	0.000011
C12	C	1.116111	0.188287	0.000010
C13	C	0.854127	0.181336	0.132046
C14	C	0.919663	0.183079	0.198057
C15	C	1.050680	0.186558	0.198055
C16	C	1.116165	0.188292	0.132035
C17	C	1.050629	0.186550	0.066023
C18	C	0.919608	0.183074	0.066032
C19	C	1.050575	0.186545	-0.066001
C20	C	0.919556	0.183074	-0.066001
C21	C	1.116060	0.188279	-0.132022
C22	C	1.050523	0.186546	-0.198035
C23	C	0.919497	0.183067	-0.198030
C24	C	0.854020	0.181332	-0.132013
C25	C	1.492262	-0.044724	0.000008
C26	C	1.488571	-0.184167	0.000009
C27	C	1.717136	-0.212136	0.000000
C28	C	1.829679	-0.291629	-0.000005
C29	C	1.826203	-0.422647	-0.000003
C30	C	1.710172	-0.474173	0.000007
C31	C	1.597629	-0.394680	0.000013
C32	C	1.601117	-0.263661	0.000008
C33	C	1.369068	-0.366712	0.000026
C34	C	1.372540	-0.235693	0.000019
C35	C	1.253037	-0.418238	0.000036
C36	C	1.140491	-0.338745	0.000037
C37	C	1.143971	-0.207719	0.000034
C38	C	1.259997	-0.156200	0.000025
C39	C	1.714628	0.177647	0.000014
C40	C	1.854071	0.181340	0.000019
C41	C	1.477920	0.414351	0.000017
C42	C	1.481611	0.553795	0.000021
N43	N	1.485049	0.184798	-0.188656
C44	C	1.569716	0.100203	-0.226758
C45	C	1.569724	0.100198	-0.302986
C46	C	1.485077	0.184809	-0.341109
C47	C	1.400394	0.269410	-0.302998
C48	C	1.400380	0.269404	-0.226772
C49	C	1.469618	0.299047	-0.461867
C50	C	1.469640	0.299054	-0.538092
C51	C	1.485113	0.184825	-0.576217
C52	C	1.500589	0.070584	-0.538107
C53	C	1.500575	0.070578	-0.461881
C54	C	1.485082	0.184823	-0.423764
C55	C	1.569793	0.100217	-0.696974
C56	C	1.569792	0.100210	-0.773203
C57	C	1.400468	0.269433	-0.773213
C58	C	1.400463	0.269429	-0.696985
C59	C	1.485132	0.184823	-0.658870
N60	N	1.485143	0.184820	0.188679
H61	H	0.866145	0.181654	-0.251785
F62	F	1.953161	-0.236782	-0.000012
H63	H	1.046028	-0.380709	0.000050
H64	H	1.262842	-0.049520	0.000018
F65	F	1.120431	0.188405	0.268311
H66	H	1.331543	0.338320	-0.804252
F67	F	1.024184	-0.123125	0.000045
F68	F	1.706479	-0.613615	0.000049
F69	F	1.659822	0.010154	-0.186195
F70	F	1.659843	0.010156	-0.343544
H71	H	0.747338	0.178507	-0.132002
H72	H	1.513173	-0.022441	-0.430855
H73	H	1.222849	0.191110	0.132039
H74	H	1.638732	0.031321	-0.665939
F75	F	1.517065	-0.050997	-0.578676
F76	F	1.720844	-0.072695	-0.000016
H77	H	1.331471	0.338300	-0.334041
H78	H	1.222742	0.191104	-0.132019
F79	F	1.659903	0.010161	-0.813756
F80	F	1.310355	0.359472	-0.656431
H81	H	1.917846	-0.487371	-0.000002
F82	F	1.453178	0.420638	-0.578643
H83	H	1.456996	0.392072	-0.430832
H84	H	1.331433	0.338293	-0.195748
H85	H	0.747444	0.178519	0.132054
F86	F	1.120224	0.188384	-0.268290
H87	H	0.866331	0.181662	0.251810
F88	F	1.249340	-0.557680	0.000076
