data_functionalizedCrystal
_audit_creation_method	'MofGen! by Chris Wilmer'
_symmetry_space_group_name_H-M	'P1'
_symmetry_Int_Tables_number	1
_symmetry_cell_setting	triclinic
loop_
_symmetry_equiv_pos_as_xyz
  x,y,z
_cell_length_a	10.654541
_cell_length_b	16.992694
_cell_length_c	15.455313
_cell_angle_alpha	92.857794
_cell_angle_beta	92.691200
_cell_angle_gamma	92.423924
loop_
_atom_site_label
_atom_site_type_symbol
_atom_site_fract_x
_atom_site_fract_y
_atom_site_fract_z
O1	O	0.261289	-1.045242	-0.072021
O2	O	0.761289	-0.545242	0.427979
O3	O	0.258364	-0.816942	-0.072047
O4	O	0.758364	-0.316942	0.427953
O5	O	0.077541	-0.936342	-0.072028
O6	O	0.577541	-0.436342	0.427972
O7	O	0.442112	-0.925843	-0.072040
O8	O	0.942112	-0.425843	0.427960
O9	O	0.087836	-0.929514	0.072233
O10	O	0.587836	-0.429514	0.572233
O11	O	0.268659	-0.810114	0.072214
O12	O	0.768659	-0.310114	0.572214
O13	O	0.271584	-1.038414	0.072240
O14	O	0.771584	-0.538414	0.572240
Cu15	Cu	0.271061	-0.923641	0.085399
Cu16	Cu	0.771061	-0.423641	0.585399
Cu17	Cu	0.258886	-0.931716	-0.085206
Cu18	Cu	0.758886	-0.431716	0.414794
O19	O	0.452407	-0.919015	0.072221
O20	O	0.952407	-0.419015	0.572221
C21	C	0.259751	-0.784296	0.000080
C22	C	0.759751	-0.284296	0.500080
C23	C	0.248531	-0.697191	0.000071
C24	C	0.748531	-0.197191	0.500071
C25	C	0.035824	-0.932158	0.000102
C26	C	0.535824	-0.432158	0.500102
C27	C	-0.103819	-0.929852	0.000100
C28	C	0.396181	-0.429852	0.500100
C29	C	0.270197	-1.071061	0.000111
C30	C	0.770197	-0.571061	0.500111
C31	C	0.281416	-1.158166	0.000115
C32	C	0.781416	-0.658166	0.500115
C33	C	-0.119450	-1.072627	0.000127
C34	C	0.380550	-0.572627	0.500127
C35	C	-0.192868	-1.142928	0.000142
C36	C	0.307132	-0.642928	0.500142
C37	C	-0.324074	-1.140757	0.000139
C38	C	0.175926	-0.640757	0.500139
C39	C	-0.381864	-1.068277	0.000119
C40	C	0.118136	-0.568277	0.500119
C41	C	-0.308446	-0.997977	0.000103
C42	C	0.191554	-0.497977	0.500103
C43	C	-0.177238	-1.000155	0.000109
C44	C	0.322762	-0.500155	0.500109
C45	C	-0.292816	-0.855204	0.000070
C46	C	0.207184	-0.355204	0.500070
C47	C	-0.161609	-0.857373	0.000079
C48	C	0.338391	-0.357373	0.500079
C49	C	-0.350606	-0.782725	0.000050
C50	C	0.149394	-0.282725	0.500050
C51	C	-0.277188	-0.712422	0.000041
C52	C	0.222812	-0.212422	0.500041
C53	C	-0.145974	-0.714596	0.000045
C54	C	0.354026	-0.214596	0.500045
C55	C	-0.088191	-0.787072	0.000064
C56	C	0.411809	-0.287072	0.500064
C57	C	0.494124	-0.923199	0.000089
C58	C	0.994124	-0.423199	0.500089
C59	C	0.633766	-0.925505	0.000085
C60	C	1.133766	-0.425505	0.500085
N61	N	0.279624	-0.917967	0.205394
N62	N	0.779624	-0.417967	0.705394
C63	C	0.356782	-0.647539	0.000068
C64	C	0.856782	-0.147539	0.500068
C65	C	0.346233	-0.565694	0.000080
C66	C	0.846233	-0.065694	0.500080
C67	C	0.227433	-0.533504	0.000089
C68	C	0.727433	-0.033504	0.500089
C69	C	0.119174	-0.583162	0.000095
C70	C	0.619174	-0.083162	0.500095
C71	C	0.129724	-0.665005	0.000089
C72	C	0.629724	-0.165005	0.500089
C73	C	0.183707	-0.289667	0.000114
C74	C	0.683707	0.210333	0.500114
C75	C	0.173165	-0.207818	0.000117
C76	C	0.673165	0.292182	0.500117
C77	C	0.400226	-0.190356	0.000105
C78	C	0.900226	0.309644	0.500105
C79	C	0.410765	-0.272201	0.000093
C80	C	0.910765	0.227799	0.500093
C81	C	0.302507	-0.321852	0.000103
C82	C	0.802507	0.178148	0.500103
N83	N	0.216648	-0.449846	0.000099
N84	N	0.716648	0.050154	0.500099
N85	N	0.313293	-0.405508	0.000100
N86	N	0.813293	0.094492	0.500100
N87	N	0.250314	-0.937396	-0.205201
N88	N	0.750314	-0.437396	0.294799
C89	C	0.202836	-0.968710	0.250796
C90	C	0.702836	-0.468710	0.750796
C91	C	0.209324	-0.964427	0.341603
C92	C	0.709324	-0.464427	0.841603
C93	C	0.292608	-0.909403	0.387007
C94	C	0.792608	-0.409403	0.887007
C95	C	0.369399	-0.858655	0.341598
C96	C	0.869399	-0.358655	0.841598
C97	C	0.362903	-0.862935	0.250793
C98	C	0.862903	-0.362935	0.750793
C99	C	0.320610	-0.890928	0.658585
C100	C	0.820610	-0.390928	1.158585
C101	C	0.327102	-0.886653	0.749397
C102	C	0.827102	-0.386653	1.249397
C103	C	0.167025	-0.992424	0.749396
C104	C	0.667025	-0.492424	1.249396
C105	C	0.160543	-0.996703	0.658588
C106	C	0.660543	-0.496703	1.158588
C107	C	0.237329	-0.945952	0.613188
C108	C	0.737329	-0.445952	1.113188
N109	N	0.299244	-0.905025	0.479826
N110	N	0.799244	-0.405025	0.979826
N111	N	0.230685	-0.950326	0.520370
N112	N	0.730685	-0.450326	1.020370
H113	H	-0.145800	-1.201939	0.000167
H114	H	0.354200	-0.701939	0.500167
H115	H	0.135024	-1.013519	0.213834
H116	H	0.635024	-0.513519	0.713834
H117	H	0.018643	-0.788849	0.000073
H118	H	0.518643	-0.288849	0.500073
O119	O	0.416938	-0.827302	0.798367
O120	O	0.916938	-0.327302	1.298367
H121	H	0.408563	-0.832862	0.869136
H122	H	0.908563	-0.332862	1.369136
H123	H	0.453522	-0.673741	0.000060
H124	H	0.953522	-0.173741	0.500060
H125	H	0.104508	-1.033743	0.786369
H126	H	0.604508	-0.533743	1.286369
O127	O	0.538901	-0.306921	0.000106
O128	O	1.038901	0.193079	0.500106
H129	H	0.612406	-0.258643	0.000119
H130	H	1.112406	0.241357	0.500119
O131	O	0.126504	-1.019168	0.390562
O132	O	0.626504	-0.519168	0.890562
H133	H	0.065026	-0.983874	0.431937
H134	H	0.565026	-0.483874	0.931937
H135	H	-0.488700	-1.066517	0.000105
H136	H	0.011300	-0.566517	0.500105
O137	O	0.459230	-0.799311	0.390570
O138	O	0.959230	-0.299311	0.890570
H139	H	0.556945	-0.810659	0.373119
H140	H	1.056945	-0.310659	0.873119
H141	H	0.076419	-0.181613	0.000124
H142	H	0.576419	0.318387	0.500124
H143	H	0.383135	-0.849605	0.621627
H144	H	0.883135	-0.349605	1.121627
H145	H	0.434383	-0.525270	0.000077
H146	H	0.934383	-0.025270	0.500077
O147	O	0.445723	-0.808193	0.201831
O148	O	0.945723	-0.308193	0.701831
H149	H	0.385995	-0.771725	0.160486
H150	H	0.885995	-0.271725	0.660486
H151	H	-0.457442	-0.780962	0.000042
H152	H	0.042558	-0.280962	0.500042
H153	H	0.092727	-1.041507	0.621623
H154	H	0.592727	-0.541507	1.121623
H155	H	0.095555	-0.330084	0.000123
H156	H	0.595555	0.169916	0.500123
H157	H	-0.086204	-0.657348	0.000029
H158	H	0.413796	-0.157348	0.500029
H159	H	0.488363	-0.149921	0.000098
H160	H	0.988363	0.350079	0.500098
H161	H	0.022445	-0.556946	0.000114
H162	H	0.522445	-0.056946	0.500114
O163	O	0.012971	-0.718565	0.000094
O164	O	0.512971	-0.218565	0.500094
H165	H	-0.047690	-0.709829	-0.058703
H166	H	0.452310	-0.209829	0.441297
O167	O	-0.339520	-0.634256	0.000027
O168	O	0.160480	-0.134256	0.500027
H169	H	-0.403117	-0.632639	-0.058772
H170	H	0.096883	-0.132639	0.441228
O171	O	0.022067	-1.074962	0.000143
O172	O	0.522067	-0.574962	0.500143
H173	H	0.049114	-1.109136	-0.058647
H174	H	0.549114	-0.609136	0.441353
H175	H	-0.383851	-1.198002	0.000145
H176	H	0.116149	-0.698002	0.500145
