data_functionalizedCrystal
_audit_creation_method	'MofGen! by Chris Wilmer'
_symmetry_space_group_name_H-M	'P1'
_symmetry_Int_Tables_number	1
_symmetry_cell_setting	triclinic
loop_
_symmetry_equiv_pos_as_xyz
  x,y,z
_cell_length_a	6.817900
_cell_length_b	11.168121
_cell_length_c	10.943624
_cell_angle_alpha	91.899023
_cell_angle_beta	108.838799
_cell_angle_gamma	108.508496
loop_
_atom_site_label
_atom_site_type_symbol
_atom_site_fract_x
_atom_site_fract_y
_atom_site_fract_z
V1	V	-4.113777	-0.174672	-0.402562
O2	O	-4.073287	0.008428	-0.394888
O3	O	-4.090038	-0.346377	-0.399819
O4	O	-4.091766	-0.171970	-0.578128
O5	O	-4.071547	-0.167187	-0.215344
V6	V	-4.590790	-0.152773	-0.380168
O7	O	-4.389315	-0.222709	-0.451685
O8	O	-4.765448	-0.104735	-0.331045
O9	O	-4.391322	0.018933	-0.382910
O10	O	-4.748676	-0.335872	-0.387842
O11	O	-4.750416	-0.160257	-0.567385
O12	O	-4.389594	-0.155474	-0.204602
C13	C	-3.940184	-0.388236	-0.393471
C14	C	-4.002237	-0.528607	-0.392399
C15	C	-4.204801	-0.597299	-0.398045
C16	C	-4.268940	-0.742380	-0.396937
C17	C	-3.942387	-0.165760	-0.620920
C18	C	-4.005837	-0.164687	-0.764447
C19	C	-3.850738	-0.157463	-0.841594
C20	C	-4.039042	-0.264697	-0.947591
C21	C	-3.930618	-0.055553	-0.914191
C22	C	-4.193350	-0.272023	-0.868567
C23	C	-4.084847	-0.062784	-0.835144
C24	C	-4.273287	-0.170049	-0.941111
C25	C	-4.204518	0.060785	-0.389255
C26	C	-4.121705	0.201155	-0.390335
C27	C	-4.202315	-0.161688	-0.161802
C28	C	-4.118102	-0.162754	-0.018275
H29	H	-4.330742	-0.548702	-0.403706
H30	H	-4.303832	-0.363609	-0.848028
Br31	Br	-4.558170	-0.840790	-0.404975
Br32	Br	-3.832455	-0.700438	-0.382266
Br33	Br	-3.552144	-0.148825	-0.769168
H34	H	-3.876303	-0.577206	-0.386753
Br35	Br	-4.572062	-0.178951	-1.013190
H36	H	-4.020340	-0.350059	-0.996545
H37	H	-4.103465	0.022582	-0.786155
Br38	Br	-3.746522	0.096932	-0.948718
