data_functionalizedCrystal
_audit_creation_method	'MofGen! by Chris Wilmer'
_symmetry_space_group_name_H-M	'P1'
_symmetry_Int_Tables_number	1
_symmetry_cell_setting	triclinic
loop_
_symmetry_equiv_pos_as_xyz
  x,y,z
_cell_length_a	10.686220
_cell_length_b	29.839131
_cell_length_c	10.686551
_cell_angle_alpha	94.418204
_cell_angle_beta	89.691918
_cell_angle_gamma	94.417877
loop_
_atom_site_label
_atom_site_type_symbol
_atom_site_fract_x
_atom_site_fract_y
_atom_site_fract_z
Zn1	Zn	1.972174	-0.109531	0.562319
Zn2	Zn	1.955860	-0.190849	0.352511
Zn3	Zn	1.746280	-0.121024	0.368629
Zn4	Zn	1.762291	-0.189938	0.578289
O5	O	1.859151	-0.152836	0.465437
O6	O	2.145556	-0.115889	0.521058
O7	O	1.914531	-0.186777	0.179100
O8	O	1.776372	-0.056627	0.394385
O9	O	2.133570	-0.175633	0.366913
O10	O	1.942335	-0.048184	0.536688
O11	O	1.760553	-0.135477	0.190942
O12	O	1.572857	-0.134594	0.409870
O13	O	1.803660	-0.174081	0.751719
O14	O	1.584620	-0.185225	0.563906
O15	O	1.957860	-0.115007	0.739986
O16	O	1.930055	-0.253600	0.382398
O17	O	1.787841	-0.252931	0.548276
C18	C	1.533222	-0.161059	0.490371
C19	C	1.393790	-0.164586	0.501068
C20	C	1.858952	-0.269566	0.465346
C21	C	1.858984	-0.319500	0.465340
C22	C	1.945559	-0.624701	0.539650
C23	C	1.945701	-0.812369	0.539715
O24	O	2.019117	-0.832864	0.602831
N25	N	1.859375	-0.840268	0.465560
C26	C	1.773001	-0.821248	0.391390
O27	O	1.699570	-0.849284	0.328328
C28	C	1.772855	-0.633581	0.391332
C29	C	1.859195	-0.605684	0.465482
C30	C	2.031892	-0.596805	0.613795
C31	C	2.031860	-0.549891	0.613773
C32	C	1.945495	-0.530873	0.539605
C33	C	1.859163	-0.558770	0.465460
C34	C	1.686476	-0.614562	0.317170
C35	C	1.686445	-0.567642	0.317165
C36	C	1.772786	-0.539745	0.391315
C37	C	1.772767	-0.492839	0.391271
N38	N	1.859093	-0.464940	0.465426
C39	C	1.945458	-0.483957	0.539593
C40	C	1.773086	-0.919775	0.391423
C41	C	1.773124	-0.966692	0.391436
C42	C	1.945823	-0.957809	0.539763
C43	C	1.945790	-0.910892	0.539742
C44	C	1.859413	-0.891876	0.465578
C45	C	1.945385	-0.385435	0.539540
C46	C	1.945349	-0.338517	0.539507
C47	C	1.772646	-0.347403	0.391186
C48	C	1.772686	-0.394317	0.391213
C49	C	1.859060	-0.413331	0.465400
O50	O	1.699380	-0.472313	0.328198
O51	O	2.018860	-0.455913	0.602667
C52	C	1.945591	-0.671615	0.539672
C53	C	1.859259	-0.699512	0.465527
C54	C	1.772894	-0.680495	0.391360
C55	C	1.859297	-0.746429	0.465539
C56	C	1.945661	-0.765446	0.539706
C57	C	2.031987	-0.737547	0.613861
C58	C	2.031955	-0.690633	0.613839
C59	C	1.686568	-0.708394	0.317205
C60	C	1.686608	-0.755308	0.317232
C61	C	1.772972	-0.774325	0.391399
C62	C	2.186353	-0.144581	0.440406
C63	C	2.325787	-0.141063	0.429739
C64	C	1.884366	-0.143160	0.792643
C65	C	1.895111	-0.139037	0.932079
C66	C	1.859388	-0.035647	0.465553
C67	C	1.859488	0.014291	0.465603
C68	C	1.834107	-0.162439	0.139498
C69	C	1.823605	-0.166429	0.000045
H70	H	2.015662	-0.315804	0.599889
Br71	Br	1.406533	-0.102998	0.314307
Br72	Br	2.010866	-0.094695	1.012883
H73	H	1.616169	-0.637268	0.256788
Br74	Br	1.313038	-0.202661	0.616484
H75	H	1.702390	-0.417032	0.330823
H76	H	1.754164	-0.193038	0.951554
Br77	Br	2.062609	-0.411232	0.640221
H78	H	2.102162	-0.527179	0.674156
Br79	Br	2.149111	-0.622604	0.714471
H80	H	2.016095	-0.888181	0.600122
H81	H	2.016145	-0.973301	0.600151
H82	H	1.702829	-0.989402	0.331041
H83	H	1.702746	-0.904296	0.331026
H84	H	1.616103	-0.552162	0.256773
H85	H	1.702333	-0.331912	0.330795
H86	H	2.102262	-0.667922	0.674219
Br87	Br	1.569427	-0.793163	0.216582
Br88	Br	2.149201	-0.763365	0.714509
Br89	Br	1.569339	-0.682593	0.216548
