data_functionalizedCrystal
_audit_creation_method	'MofGen! by Chris Wilmer'
_symmetry_space_group_name_H-M	'P1'
_symmetry_Int_Tables_number	1
_symmetry_cell_setting	triclinic
loop_
_symmetry_equiv_pos_as_xyz
  x,y,z
_cell_length_a	11.792254
_cell_length_b	9.798715
_cell_length_c	10.723024
_cell_angle_alpha	90.001978
_cell_angle_beta	84.333234
_cell_angle_gamma	90.003639
loop_
_atom_site_label
_atom_site_type_symbol
_atom_site_fract_x
_atom_site_fract_y
_atom_site_fract_z
O1	O	1.507274	0.113486	0.171111
O2	O	1.176973	0.113489	0.188722
O3	O	1.349742	0.113482	-0.001679
O4	O	1.334505	0.113493	0.361513
O5	O	1.349729	-0.113500	-0.001680
O6	O	1.176960	-0.113493	0.188722
O7	O	1.507261	-0.113496	0.171111
Zn8	Zn	1.342108	-0.149533	0.179916
Zn9	Zn	1.342125	0.149526	0.179917
O10	O	1.334492	-0.113490	0.361512
C11	C	1.134673	-0.000002	0.187612
C12	C	1.008653	-0.000001	0.184292
N13	N	1.342105	-0.353633	0.179915
C14	C	0.906311	0.000005	0.181594
C15	C	0.777917	0.000006	0.178220
C16	C	1.414646	-0.421412	0.099619
C17	C	1.414664	-0.578575	0.099615
C18	C	1.549560	-0.000002	0.172220
C19	C	1.675581	0.000006	0.175541
N20	N	1.342138	0.353625	0.179908
C21	C	1.348627	-0.000007	-0.048176
C22	C	1.345309	-0.000002	-0.186722
C23	C	1.441982	-0.000001	-0.261956
C24	C	1.438555	0.000004	-0.405150
C25	C	1.335607	0.000003	0.408009
C26	C	1.338925	0.000007	0.546555
H27	H	1.476735	-0.363092	0.030873
O28	O	1.537262	0.000249	-0.482315
C29	C	1.541544	0.117789	-0.558475
H30	H	1.483922	0.199952	-0.511126
H31	H	1.511319	0.091213	-0.653273
C32	C	1.735658	0.070182	-0.635724
C33	C	1.664894	0.171100	-0.577565
H34	H	1.811747	0.103064	-0.647506
H35	H	1.732773	-0.009011	-0.584418
H36	H	1.710458	0.048044	-0.714717
H37	H	1.690087	0.193224	-0.498568
H38	H	1.667787	0.250298	-0.628858
H39	H	1.476774	-0.636863	0.030875
H40	H	1.256161	-0.000003	-0.388805
O41	O	1.243442	0.000063	-0.236132
C42	C	1.154221	0.000024	-0.138377
H43	H	1.186615	0.042990	-0.049676
H44	H	1.122771	-0.108871	-0.120228
C45	C	1.015699	0.036271	-0.284879
C46	C	1.055483	0.089054	-0.175937
H47	H	0.954790	0.091183	-0.308048
H48	H	1.075808	0.036292	-0.350740
H49	H	0.989499	-0.054474	-0.269740
H50	H	1.081696	0.179790	-0.191082
H51	H	0.995376	0.089050	-0.110080
H52	H	1.280009	-0.411955	0.248652
O53	O	1.543779	0.000243	-0.212396
C54	C	1.605906	0.117783	-0.252762
H55	H	1.544661	0.199946	-0.280351
H56	H	1.668592	0.091206	-0.337078
C57	C	1.747048	0.070179	-0.111809
C58	C	1.671824	0.171096	-0.145683
H59	H	1.787714	0.103063	-0.045761
H60	H	1.705195	-0.009014	-0.084616
H61	H	1.799276	0.048040	-0.182081
H62	H	1.619590	0.193220	-0.075416
H63	H	1.713671	0.250294	-0.172862
H64	H	1.280033	-0.588096	0.248661
