data_functionalizedCrystal
_audit_creation_method	'MofGen! by Chris Wilmer'
_symmetry_space_group_name_H-M	'P1'
_symmetry_Int_Tables_number	1
_symmetry_cell_setting	triclinic
loop_
_symmetry_equiv_pos_as_xyz
  x,y,z
_cell_length_a	12.811438
_cell_length_b	12.837942
_cell_length_c	11.295675
_cell_angle_alpha	94.535486
_cell_angle_beta	91.299112
_cell_angle_gamma	89.411773
loop_
_atom_site_label
_atom_site_type_symbol
_atom_site_fract_x
_atom_site_fract_y
_atom_site_fract_z
O1	O	1.390614	0.157174	0.249181
O2	O	1.088646	0.170074	0.216577
O3	O	1.232935	0.012641	0.232149
O4	O	1.246326	0.314607	0.233610
O5	O	1.245577	-0.001166	0.035469
O6	O	1.101289	0.156268	0.019897
O7	O	1.403256	0.143368	0.052501
Cu8	Cu	1.253427	0.148557	0.018240
Cu9	Cu	1.238476	0.164885	0.250838
O10	O	1.258968	0.300801	0.036929
C11	C	1.056049	0.162025	0.114035
C12	C	0.940081	0.158597	0.101513
C13	C	0.783522	0.146241	-0.023339
C14	C	0.892484	0.149462	-0.011579
C15	C	0.878709	0.164515	0.202853
C16	C	0.769747	0.161294	0.191094
C17	C	0.722157	0.152155	0.077994
C18	C	0.613194	0.148927	0.066235
C19	C	0.599420	0.163988	0.280667
C20	C	0.708382	0.167209	0.292426
C21	C	1.234732	-0.032937	0.133321
C22	C	1.221240	-0.148175	0.131866
C23	C	1.383441	-0.387197	0.149404
C24	C	1.370769	-0.495474	0.148038
C25	C	1.183222	-0.473006	0.127776
C26	C	1.195895	-0.364730	0.129142
C27	C	1.296008	-0.321829	0.139955
C28	C	1.308680	-0.213551	0.141313
C29	C	1.121134	-0.191085	0.121059
C30	C	1.108461	-0.299362	0.119693
C31	C	1.435854	0.151417	0.155046
C32	C	1.551821	0.154845	0.167575
C33	C	1.257171	0.346379	0.135760
C34	C	1.270663	0.461617	0.137222
N35	N	1.263950	0.137072	-0.145355
C36	C	1.152094	0.259085	-0.406770
C37	C	1.160069	0.250396	-0.530569
C38	C	1.287882	0.111012	-0.516754
C39	C	1.279906	0.119701	-0.392955
C40	C	1.212009	0.193738	-0.337968
C41	C	1.204028	0.202421	-0.214167
C42	C	1.331846	0.063043	-0.200354
C43	C	1.339822	0.054355	-0.324153
N44	N	1.227960	0.176361	0.414434
H45	H	0.917475	0.171965	0.294934
C46	C	0.531910	0.170496	0.392140
N47	N	0.481061	0.175396	0.476100
C48	C	0.959981	0.142950	-0.123054
N49	N	1.010821	0.138045	-0.207021
H50	H	0.744774	0.138806	-0.115429
C51	C	1.493565	-0.340005	0.161292
N52	N	1.576512	-0.304462	0.170247
H53	H	0.747145	0.174654	0.384509
C54	C	1.397766	-0.008834	-0.124660
N55	N	1.447417	-0.062969	-0.067646
C56	C	1.077392	0.340512	-0.346283
N57	N	1.021123	0.401842	-0.300726
H58	H	1.049940	-0.137851	0.113355
H59	H	1.148740	0.262703	-0.169398
H60	H	1.441966	-0.548693	0.155737
H61	H	1.390197	-0.178624	0.150113
C62	C	0.998343	-0.346566	0.107785
N63	N	0.915401	-0.382119	0.098808
C64	C	1.094153	0.322279	-0.606248
N65	N	1.044502	0.376424	-0.663250
H66	H	1.343170	0.050740	-0.561540
H67	H	1.101714	-0.507954	0.118985
H68	H	0.574448	0.141493	-0.025857
C69	C	1.414502	-0.027086	-0.384654
N70	N	1.470749	-0.088432	-0.430222
