data_functionalizedCrystal
_audit_creation_method	'MofGen! by Chris Wilmer'
_symmetry_space_group_name_H-M	'P1'
_symmetry_Int_Tables_number	1
_symmetry_cell_setting	triclinic
loop_
_symmetry_equiv_pos_as_xyz
  x,y,z
_cell_length_a	17.699083
_cell_length_b	15.944551
_cell_length_c	16.776229
_cell_angle_alpha	89.992397
_cell_angle_beta	89.998886
_cell_angle_gamma	83.390877
loop_
_atom_site_label
_atom_site_type_symbol
_atom_site_fract_x
_atom_site_fract_y
_atom_site_fract_z
O1	O	1.004260	0.106222	-0.066178
O2	O	0.783905	0.120042	-0.066204
O3	O	0.900100	-0.009156	-0.066183
O4	O	0.888065	0.235419	-0.066199
O5	O	0.900084	-0.009164	0.066393
O6	O	0.783890	0.120034	0.066372
O7	O	1.004244	0.106214	0.066398
Zn8	Zn	0.894065	0.113123	0.087435
Zn9	Zn	0.894085	0.113133	-0.087241
O10	O	0.888050	0.235411	0.066377
C11	C	0.755700	0.119542	0.000080
C12	C	0.671679	0.118057	0.000071
C13	C	0.623187	0.193893	0.000066
C14	C	0.544242	0.192492	0.000076
C15	C	0.513789	0.115254	0.000086
C16	C	0.562287	0.039412	0.000093
C17	C	0.641231	0.040814	0.000088
C18	C	0.243914	0.033758	0.000113
C19	C	0.164964	0.032362	0.000115
C20	C	0.146925	0.185436	0.000101
C21	C	0.225869	0.186837	0.000096
C22	C	0.274360	0.110996	0.000108
C23	C	0.359962	0.112516	0.000098
C24	C	0.428189	0.113733	0.000090
C25	C	0.899593	-0.040453	0.000105
C26	C	0.898095	-0.133696	0.000105
C27	C	0.822492	-0.348393	0.000085
C28	C	0.857592	-0.409488	0.065458
C29	C	0.895385	-0.304416	0.000099
C30	C	0.857624	-0.409464	-0.065252
C31	C	0.892762	-0.469323	0.000089
C32	C	0.930505	-0.364283	0.065525
C33	C	0.930527	-0.364252	-0.065244
C34	C	0.965680	-0.425329	0.000145
C35	C	0.896894	-0.209417	0.000105
C36	C	0.891259	-0.564321	0.000089
C37	C	1.032450	0.106713	0.000112
C38	C	1.116471	0.108199	0.000116
C39	C	0.888557	0.266708	0.000087
C40	C	0.890055	0.359951	0.000082
N41	N	0.894056	0.113115	0.206646
N42	N	0.894099	0.113134	-0.206452
C43	C	0.945523	0.055930	0.248372
C44	C	0.945527	0.055929	0.331824
C45	C	0.894068	0.113118	0.373549
C46	C	0.842595	0.170306	0.331816
C47	C	0.842588	0.170302	0.248366
C48	C	0.842623	0.170323	0.668364
C49	C	0.842636	0.170324	0.751820
C50	C	0.945562	0.055949	0.751822
C51	C	0.945555	0.055945	0.668372
C52	C	0.894080	0.113130	0.626647
C53	C	0.894075	0.113129	0.536158
C54	C	0.894076	0.113124	0.464036
H55	H	0.504763	0.254246	0.000072
H56	H	0.987435	0.009364	0.365798
H57	H	0.647975	0.256789	0.000058
N58	N	0.816782	-0.435991	-0.138455
H59	H	0.762703	-0.407711	-0.138400
H60	H	0.843829	-0.418732	-0.187785
N61	N	1.001060	-0.005733	0.623369
H62	H	1.033665	-0.041962	0.662466
H63	H	0.972081	-0.042827	0.588755
H64	H	0.961304	-0.344360	0.120853
N65	N	0.787077	0.231985	0.203364
H66	H	0.815991	0.269135	0.168727
H67	H	0.753577	0.199869	0.168798
H68	H	0.761987	-0.314958	0.000143
H69	H	0.987430	0.009363	0.214406
N70	N	0.296200	-0.048045	0.000126
H71	H	0.286402	-0.081747	-0.049017
H72	H	0.350813	-0.035381	0.000156
H73	H	0.250659	0.249732	0.000085
N74	N	0.094621	0.267238	0.000124
H75	H	0.125894	0.316379	0.000120
H76	H	0.061461	0.270007	-0.049015
H77	H	0.140173	-0.030538	0.000124
H78	H	0.987473	0.009384	0.785804
H79	H	0.537486	-0.023476	0.000112
N80	N	0.693536	-0.040980	0.000099
H81	H	0.662267	-0.090123	0.000105
H82	H	0.726685	-0.043733	-0.049048
H83	H	0.826754	-0.429535	0.120718
H84	H	1.026238	-0.458615	0.000189
N85	N	0.787126	0.232004	0.796826
H86	H	0.754513	0.268227	0.757731
H87	H	0.753679	0.199883	0.831460
N88	N	0.971346	-0.337667	-0.138441
H89	H	0.943768	-0.353909	-0.187798
H90	H	0.972477	-0.274489	-0.137543
N91	N	0.787103	0.231993	0.623366
H92	H	0.754507	0.268221	0.662464
H93	H	0.816066	0.269089	0.588727
N94	N	0.787086	0.231984	0.376814
H95	H	0.794900	0.223312	0.436012
H96	H	0.795825	0.291561	0.362215
