data_functionalizedCrystal
_audit_creation_method	'MofGen! by Chris Wilmer'
_symmetry_space_group_name_H-M	'P1'
_symmetry_Int_Tables_number	1
_symmetry_cell_setting	triclinic
loop_
_symmetry_equiv_pos_as_xyz
  x,y,z
_cell_length_a	16.992695
_cell_length_b	17.699083
_cell_length_c	16.776229
_cell_angle_alpha	90.007545
_cell_angle_beta	89.994951
_cell_angle_gamma	93.024381
loop_
_atom_site_label
_atom_site_type_symbol
_atom_site_fract_x
_atom_site_fract_y
_atom_site_fract_z
O1	O	1.040088	-0.160469	-0.066259
O2	O	0.811806	-0.158709	-0.066268
O3	O	0.932397	-0.049801	-0.066256
O4	O	0.919498	-0.269377	-0.066271
O5	O	0.932381	-0.049793	0.066320
O6	O	0.811790	-0.158701	0.066309
O7	O	1.040072	-0.160461	0.066317
Zn8	Zn	0.925929	-0.159580	0.087362
Zn9	Zn	0.925950	-0.159590	-0.087313
O10	O	0.919482	-0.269369	0.066306
C11	C	0.782590	-0.156440	0.000019
C12	C	0.695559	-0.149683	0.000016
C13	C	0.931927	-0.021572	0.000032
C14	C	0.930540	0.062533	0.000032
C15	C	1.069289	-0.162730	0.000028
C16	C	1.156320	-0.169487	0.000026
C17	C	1.206685	-0.104290	0.000028
C18	C	1.288459	-0.110643	0.000030
C19	C	1.319867	-0.182195	0.000025
C20	C	1.269496	-0.247398	0.000026
C21	C	1.187723	-0.241043	0.000029
C22	C	1.563415	-0.208531	0.000020
C23	C	1.645194	-0.214881	0.000015
C24	C	1.664152	-0.078125	0.000020
C25	C	1.582376	-0.071777	0.000019
C26	C	1.532012	-0.136980	0.000024
N27	N	1.403454	-0.188691	0.000025
N28	N	1.448427	-0.130483	0.000030
C29	C	0.919952	-0.297598	0.000016
C30	C	0.921339	-0.381703	0.000010
N31	N	0.925920	-0.159572	0.206574
C32	C	1.001324	0.106747	0.000036
C33	C	1.000017	0.185771	0.000029
C34	C	0.927924	0.220581	0.000024
C35	C	0.857135	0.176361	0.000018
C36	C	0.858443	0.097338	0.000019
C37	C	0.851857	0.495053	0.000011
C38	C	0.850554	0.574082	0.000012
C39	C	0.993430	0.583486	0.000021
C40	C	0.994739	0.504463	0.000022
C41	C	0.923950	0.460250	0.000012
C42	C	0.925368	0.374563	0.000018
C43	C	0.926505	0.306267	0.000023
N44	N	0.925965	-0.159592	-0.206524
C45	C	0.979334	-0.111370	0.248296
C46	C	0.979338	-0.111370	0.331748
C47	C	0.925932	-0.159576	0.373476
C48	C	0.872513	-0.207780	0.331748
C49	C	0.872505	-0.207776	0.248298
C50	C	0.872541	-0.207797	0.668296
C51	C	0.872554	-0.207799	0.751752
C52	C	0.979374	-0.111390	0.751746
C53	C	0.979367	-0.111386	0.668295
C54	C	0.925945	-0.159587	0.626574
C55	C	0.925940	-0.159586	0.536086
C56	C	0.925940	-0.159582	0.463963
H57	H	1.181119	-0.046024	0.000027
H58	H	1.329463	-0.057552	0.000035
C59	C	1.609332	0.062761	0.000042
C60	C	1.547855	0.006875	0.000035
H61	H	1.588018	0.111318	0.000056
H62	H	1.640831	0.057441	-0.046190
H63	H	1.640832	0.057433	0.046275
H64	H	1.516358	0.012200	-0.046201
H65	H	1.516343	0.012198	0.046272
C66	C	0.770431	0.400735	0.068154
C67	C	0.774050	0.446455	0.000005
H68	H	0.722396	0.370726	0.068145
H69	H	0.772880	0.431762	0.114378
H70	H	0.813558	0.368699	0.068146
H71	H	0.730926	0.478495	0.000015
H72	H	0.771593	0.415424	-0.046232
C73	C	1.654224	-0.333417	-0.068130
C74	C	1.679725	-0.293534	0.000017
H75	H	1.675541	-0.381972	-0.068124
H76	H	1.671520	-0.306370	-0.114356
H77	H	1.598315	-0.338968	-0.068116
H78	H	1.735634	-0.287978	0.000001
H79	H	1.662433	-0.320588	0.046255
C80	C	0.765770	-0.217680	0.154473
C81	C	0.813792	-0.260763	0.202434
H82	H	0.729517	-0.250392	0.126165
H83	H	0.797575	-0.188977	0.117683
H84	H	0.737639	-0.184461	0.187050
H85	H	0.841927	-0.293978	0.169857
H86	H	0.781983	-0.289478	0.239229
C87	C	1.460470	-0.280727	-0.068138
C88	C	1.508063	-0.280202	0.000012
H89	H	1.426294	-0.324975	-0.068141
H90	H	1.492769	-0.280361	-0.114362
H91	H	1.430060	-0.237205	-0.068121
H92	H	1.538478	-0.323722	-0.000008
H93	H	1.475761	-0.280575	0.046248
C94	C	1.146380	-0.355650	-0.068135
C95	C	1.132357	-0.312709	0.000022
H96	H	1.112195	-0.399892	-0.068138
H97	H	1.199569	-0.369674	-0.068133
H98	H	1.136874	-0.326508	-0.114359
H99	H	1.141869	-0.341849	0.046246
H100	H	1.079156	-0.298686	0.000027
C101	C	1.278511	-0.365910	0.068175
C102	C	1.304017	-0.326050	0.000022
H103	H	1.299827	-0.414466	0.068172
H104	H	1.222609	-0.371455	0.068172
H105	H	1.295814	-0.338847	0.114402
H106	H	1.286710	-0.353111	-0.046205
H107	H	1.359932	-0.320509	0.000018
H108	H	0.798436	0.204709	0.000009
H109	H	1.022857	-0.072135	0.634322
H110	H	1.060030	0.078411	0.000045
C111	C	0.996601	-0.009427	0.845602
C112	C	1.038089	-0.058397	0.797608
H113	H	1.032850	0.023289	0.873910
H114	H	0.964803	-0.038136	0.882393
H115	H	0.964023	0.019785	0.813047
H116	H	1.070664	-0.087613	0.830164
H117	H	1.069901	-0.029685	0.760813
H118	H	1.705166	-0.025041	0.000017
H119	H	1.051070	0.619494	0.000025
H120	H	1.057656	0.221767	0.000034
C121	C	1.116929	0.488139	-0.068130
C122	C	1.073984	0.466200	0.000024
H123	H	1.165850	0.464514	-0.068132
H124	H	1.126281	0.541523	-0.068123
H125	H	1.087785	0.473246	-0.114356
H126	H	1.103126	0.481099	0.046251
H127	H	1.064635	0.412804	0.000025
H128	H	0.791844	0.602420	0.000009
C129	C	0.777035	0.003006	-0.068140
C130	C	0.780635	0.048735	0.000015
H131	H	0.728995	-0.026995	-0.068147
H132	H	0.820153	-0.029030	-0.068131
H133	H	0.779502	0.034034	-0.114366
H134	H	0.778173	0.017707	0.046241
H135	H	0.737505	0.080774	0.000013
C136	C	1.084919	-0.016067	0.256680
C137	C	1.038039	-0.058378	0.202432
H138	H	1.121157	0.016654	0.228366
H139	H	1.113060	-0.049291	0.289215
H140	H	1.052332	0.013143	0.289243
H141	H	1.070626	-0.087592	0.169873
H142	H	1.009897	-0.025149	0.169884
H143	H	1.022831	-0.072120	0.365718
H144	H	0.829062	-0.247055	0.785726
C145	C	0.766960	-0.303100	0.676696
C146	C	0.813827	-0.260785	0.622443
H147	H	0.730714	-0.335818	0.648384
H148	H	0.738827	-0.269878	0.709255
H149	H	0.799554	-0.332313	0.709233
H150	H	0.781233	-0.231568	0.589910
H151	H	0.841961	-0.294011	0.589870
H152	H	0.829024	-0.247028	0.365729
