data_functionalizedCrystal
_audit_creation_method	'MofGen! by Chris Wilmer'
_symmetry_space_group_name_H-M	'P1'
_symmetry_Int_Tables_number	1
_symmetry_cell_setting	triclinic
loop_
_symmetry_equiv_pos_as_xyz
  x,y,z
_cell_length_a	14.853567
_cell_length_b	15.944551
_cell_length_c	13.930277
_cell_angle_alpha	89.994493
_cell_angle_beta	89.995755
_cell_angle_gamma	83.566834
loop_
_atom_site_label
_atom_site_type_symbol
_atom_site_fract_x
_atom_site_fract_y
_atom_site_fract_z
O1	O	1.196228	0.109664	-0.079767
O2	O	0.933751	0.122728	-0.079783
O3	O	1.072157	-0.006071	-0.079766
O4	O	1.057822	0.238463	-0.079784
O5	O	1.072138	-0.006073	0.079896
O6	O	0.933732	0.122725	0.079878
O7	O	1.196208	0.109662	0.079895
Zn8	Zn	1.064967	0.116193	0.105236
Zn9	Zn	1.064993	0.116197	-0.105125
O10	O	1.057803	0.238460	0.079878
C11	C	0.900154	0.122135	0.000045
C12	C	0.800072	0.120361	0.000039
C13	C	0.387646	0.036354	0.000067
C14	C	0.366169	0.189369	0.000055
C15	C	0.460201	0.191037	0.000051
C16	C	0.517960	0.115362	0.000055
C17	C	0.481687	0.038019	0.000061
C18	C	0.496480	0.268379	0.000035
C19	C	0.590517	0.270050	0.000031
C20	C	0.648278	0.194374	0.000041
C21	C	0.612000	0.117028	0.000049
C22	C	0.669759	0.041353	0.000052
C23	C	0.633483	-0.035994	0.000066
C24	C	0.539448	-0.037657	0.000071
C25	C	0.742313	0.196036	0.000036
C26	C	0.763800	0.043018	0.000046
C27	C	1.071552	-0.037367	0.000065
C28	C	1.069768	-0.130615	0.000065
C29	C	0.979713	-0.345572	0.000047
C30	C	1.021522	-0.406544	0.078772
C31	C	1.066541	-0.301344	0.000058
C32	C	1.021562	-0.406524	-0.078642
C33	C	1.063416	-0.466260	0.000046
C34	C	1.108373	-0.361088	0.078848
C35	C	1.108401	-0.361062	-0.078636
C36	C	1.150273	-0.422017	0.000109
C37	C	1.068338	-0.206340	0.000065
C38	C	1.061626	-0.561263	0.000046
C39	C	1.229806	0.110255	0.000064
C40	C	1.329887	0.112029	0.000064
C41	C	1.058407	0.269756	0.000044
C42	C	1.060191	0.363004	0.000038
N43	N	1.064957	0.116190	0.248803
N44	N	1.065010	0.116193	-0.248691
C45	C	1.003704	0.173206	0.701064
C46	C	1.126306	0.059181	0.701049
C47	C	1.126295	0.059178	0.600553
C48	C	1.064989	0.116191	0.550308
C49	C	1.003693	0.173207	0.600559
C50	C	1.187596	0.002169	0.550295
C51	C	1.187588	0.002164	0.449793
C52	C	1.126277	0.059174	0.399546
C53	C	1.064978	0.116192	0.449803
C54	C	1.003672	0.173205	0.399558
C55	C	0.942368	0.230220	0.449814
C56	C	0.942382	0.230217	0.550312
C57	C	1.126263	0.059177	0.299047
C58	C	1.003661	0.173206	0.299053
H59	H	0.358106	-0.026620	0.000082
C60	C	0.697030	-0.119234	0.000072
N61	N	0.744897	-0.181928	0.000079
C62	C	0.971940	-0.433713	-0.168554
N63	N	0.934560	-0.454187	-0.236273
C64	C	1.255028	-0.060541	0.605570
N65	N	1.305818	-0.107779	0.647208
H66	H	1.145059	-0.341058	0.145478
H67	H	0.953734	0.219631	0.258150
H68	H	0.319136	0.250981	0.000044
H69	H	0.907643	-0.312344	0.000121
C70	C	0.782213	0.281112	0.000019
N71	N	0.812265	0.345197	0.000009
H72	H	0.984790	-0.426694	0.145324
C73	C	1.157981	-0.333806	-0.168550
N74	N	1.195319	-0.313275	-0.236281
H75	H	1.222407	-0.455095	0.000158
C76	C	0.874934	0.292933	0.394531
N77	N	0.824144	0.340167	0.352888
C78	C	0.630412	0.355132	0.000030
N79	N	0.660462	0.419217	0.000036
C80	C	0.874949	0.292923	0.605600
N81	N	0.824159	0.340152	0.647247
C82	C	0.936267	0.235913	0.756345
N83	N	0.885471	0.283143	0.797983
H84	H	1.176224	0.012766	0.741962
C85	C	1.193693	-0.003534	0.243772
N86	N	1.244484	-0.050774	0.202139
C87	C	0.827328	-0.040233	0.000050
N88	N	0.875177	-0.102938	0.000051
C89	C	0.432941	0.351616	0.000033
N90	N	0.385078	0.414312	0.000035
C91	C	0.499536	-0.122731	0.000079
N92	N	0.469471	-0.186808	0.000081
C93	C	1.255016	-0.060558	0.394522
N94	N	1.305800	-0.107805	0.352890
