data_functionalizedCrystal
_audit_creation_method	'MofGen! by Chris Wilmer'
_symmetry_space_group_name_H-M	'P1'
_symmetry_Int_Tables_number	1
_symmetry_cell_setting	triclinic
loop_
_symmetry_equiv_pos_as_xyz
  x,y,z
_cell_length_a	16.776229
_cell_length_b	17.699083
_cell_length_c	17.699083
_cell_angle_alpha	96.716985
_cell_angle_beta	90.008282
_cell_angle_gamma	90.004823
loop_
_atom_site_label
_atom_site_type_symbol
_atom_site_fract_x
_atom_site_fract_y
_atom_site_fract_z
O1	O	0.066178	-1.004072	0.095715
O2	O	0.566178	-0.504072	0.595715
O3	O	0.066204	-0.783693	0.108167
O4	O	0.566204	-0.283693	0.608167
O5	O	0.066183	-0.900109	-0.008248
O6	O	0.566183	-0.400109	0.491752
O7	O	0.066199	-0.887656	0.212130
O8	O	0.566199	-0.387656	0.712130
O9	O	-0.066393	-0.900107	-0.008259
O10	O	0.433607	-0.400107	0.491741
O11	O	-0.066372	-0.783691	0.108157
O12	O	0.433628	-0.283691	0.608157
O13	O	-0.066398	-1.004070	0.095704
O14	O	0.433602	-0.504070	0.595704
Zn15	Zn	-0.087435	-0.893880	0.101929
Zn16	Zn	0.412565	-0.393880	0.601929
Zn17	Zn	0.087241	-0.893883	0.101942
Zn18	Zn	0.587241	-0.393883	0.601942
O19	O	-0.066378	-0.887654	0.212120
O20	O	0.433622	-0.387654	0.712120
C21	C	-0.000105	-0.899662	-0.036451
C22	C	0.499895	-0.399662	0.463549
C23	C	-0.000105	-0.898323	-0.120469
C24	C	0.499895	-0.398323	0.379531
C25	C	-0.000081	-0.755495	0.107716
C26	C	0.499919	-0.255495	0.607716
C27	C	-0.000071	-0.671477	0.106377
C28	C	0.499929	-0.171477	0.606377
N29	N	-0.206646	-0.893884	0.101919
N30	N	0.293354	-0.393884	0.601919
N31	N	0.206452	-0.893885	0.101946
N32	N	0.706452	-0.393885	0.601946
C33	C	0.248160	-0.945529	0.050499
C34	C	0.748160	-0.445529	0.550499
C35	C	0.331612	-0.945532	0.050497
C36	C	0.831612	-0.445532	0.550497
C37	C	0.373355	-0.893887	0.101939
C38	C	0.873355	-0.393887	0.601939
C39	C	0.331641	-0.842240	0.153392
C40	C	0.831641	-0.342240	0.653392
C41	C	0.248190	-0.842241	0.153397
C42	C	0.748190	-0.342241	0.653397
C43	C	0.668188	-0.842234	0.153374
C44	C	1.168188	-0.342234	0.653374
C45	C	0.751645	-0.842236	0.153364
C46	C	1.251645	-0.342236	0.653364
C47	C	0.751610	-0.945525	0.050473
C48	C	1.251610	-0.445525	0.550473
C49	C	0.668159	-0.945527	0.050478
C50	C	1.168159	-0.445527	0.550478
C51	C	0.626453	-0.893883	0.101934
C52	C	1.126453	-0.393883	0.601934
C53	C	0.535964	-0.893881	0.101936
C54	C	1.035964	-0.393881	0.601936
C55	C	0.463842	-0.893884	0.101934
C56	C	0.963842	-0.393884	0.601934
C57	C	-0.000112	-1.032268	0.096156
C58	C	0.499888	-0.532268	0.596156
C59	C	-0.000116	-1.116286	0.097494
C60	C	0.499884	-0.616286	0.597494
C61	C	-0.000066	-0.622856	0.174710
C62	C	0.499934	-0.122856	0.674710
C63	C	-0.000077	-0.543913	0.173448
C64	C	0.499923	-0.043913	0.673448
C65	C	-0.000086	-0.513592	0.103852
C66	C	0.499914	-0.013592	0.603852
C67	C	-0.000093	-0.562219	0.035513
C68	C	0.499907	-0.062219	0.535513
C69	C	-0.000088	-0.641161	0.036776
C70	C	0.499912	-0.141161	0.536776
C71	C	-0.000113	-0.243856	0.030418
C72	C	0.499887	0.256144	0.530418
C73	C	-0.000115	-0.164908	0.029160
C74	C	0.499885	0.335092	0.529160
C75	C	-0.000101	-0.146608	0.167090
C76	C	0.499899	0.353392	0.667090
C77	C	-0.000097	-0.225550	0.168353
C78	C	0.499903	0.274450	0.668353
C79	C	-0.000108	-0.274170	0.100015
C80	C	0.499892	0.225830	0.600015
C81	C	-0.000098	-0.359769	0.101384
C82	C	0.499902	0.140231	0.601384
C83	C	-0.000090	-0.427995	0.102481
C84	C	0.499910	0.072005	0.602481
C85	C	-0.000114	-0.966656	-0.169090
C86	C	0.499886	-0.466656	0.330910
C87	C	-0.000107	-0.965394	-0.248033
C88	C	0.499893	-0.465394	0.251967
C89	C	-0.000096	-0.895798	-0.278354
C90	C	0.499904	-0.395798	0.221646
C91	C	-0.000085	-0.827459	-0.229727
C92	C	0.499915	-0.327459	0.270273
C93	C	-0.000086	-0.828722	-0.150785
C94	C	0.499914	-0.328722	0.349215
C95	C	-0.000078	-0.822364	-0.548090
C96	C	0.499922	-0.322364	-0.048090
C97	C	-0.000078	-0.821106	-0.627038
C98	C	0.499922	-0.321106	-0.127038
C99	C	-0.000099	-0.959036	-0.645338
C100	C	0.499901	-0.459036	-0.145338
C101	C	-0.000100	-0.960299	-0.566396
C102	C	0.499900	-0.460299	-0.066396
C103	C	-0.000084	-0.891961	-0.517776
C104	C	0.499916	-0.391961	-0.017776
C105	C	-0.000090	-0.893330	-0.432177
C106	C	0.499910	-0.393330	0.067823
C107	C	-0.000096	-0.894427	-0.363951
C108	C	0.499904	-0.394427	0.136049
C109	C	-0.000087	-0.888102	0.240322
C110	C	0.499913	-0.388102	0.740322
C111	C	-0.000082	-0.889440	0.324340
C112	C	0.499918	-0.389440	0.824340
H113	H	0.365570	-0.987585	0.008605
H114	H	0.865570	-0.487585	0.508605
H115	H	-0.000071	-0.770792	-0.254420
H116	H	0.499929	-0.270792	0.245580
O117	O	-0.000116	-1.039096	-0.300478
O118	O	0.499884	-0.539096	0.199522
H119	H	-0.054147	-1.041811	-0.336896
H120	H	0.445853	-0.541811	0.163104
H121	H	-0.000113	-1.016971	-0.541714
H122	H	0.499887	-0.516971	-0.041714
H123	H	-0.000107	-1.014680	-0.684934
H124	H	0.499893	-0.514680	-0.184934
O125	O	-0.000081	-0.748660	-0.495653
O126	O	0.499919	-0.248660	0.004347
H127	H	-0.000087	-0.700056	-0.530002
H128	H	0.499913	-0.200056	-0.030002
O129	O	-0.000098	-0.693603	-0.036929
O130	O	0.499902	-0.193603	0.463071
H131	H	-0.000103	-0.753589	-0.024359
H132	H	0.499897	-0.253589	0.475641
O133	O	0.203206	-0.786539	0.208891
O134	O	0.703206	-0.286539	0.708891
H135	H	0.138165	-0.795222	0.200259
H136	H	0.638165	-0.295222	0.700259
H137	H	0.634175	-0.987579	0.008587
H138	H	1.134175	-0.487579	0.508587
O139	O	-0.000118	-1.041722	-0.136387
O140	O	0.499882	-0.541722	0.363613
H141	H	-0.000113	-1.089025	-0.183462
H142	H	0.499887	-0.589025	0.316538
H143	H	-0.000078	-0.773078	-0.111198
H144	H	0.499922	-0.273078	0.388802
H145	H	0.214178	-0.987582	0.008605
H146	H	0.714178	-0.487582	0.508605
H147	H	0.785576	-0.987579	0.008578
H148	H	1.285576	-0.487579	0.508578
O149	O	0.796673	-0.786536	0.208857
O150	O	1.296673	-0.286536	0.708857
H151	H	0.753653	-0.750631	0.244644
H152	H	1.253653	-0.250631	0.744644
O153	O	-0.000061	-0.746038	-0.659745
O154	O	0.499939	-0.246038	-0.159745
H155	H	-0.000042	-0.698730	-0.612675
H156	H	0.499958	-0.198730	-0.112675
H157	H	-0.000072	-0.504328	0.229092
H158	H	0.499928	-0.004328	0.729092
H159	H	0.634237	-0.800183	0.195269
H160	H	1.134237	-0.300183	0.695269
O161	O	-0.000125	-0.296293	-0.043286
O162	O	0.499875	0.203707	0.456714
H163	H	-0.000125	-0.261944	-0.091890
H164	H	0.499875	0.238056	0.408110
H165	H	-0.000058	-0.647537	0.231384
H166	H	0.499942	-0.147537	0.731384
H167	H	-0.000085	-0.250232	0.225025
H168	H	0.499915	0.249768	0.725025
O169	O	0.376658	-0.786519	0.208864
O170	O	0.876658	-0.286519	0.708864
H171	H	0.441694	-0.795182	0.200207
H172	H	0.941694	-0.295182	0.700207
O173	O	-0.000107	-0.094169	0.240803
O174	O	0.499893	0.405831	0.740803
H175	H	-0.000123	-0.034181	0.228237
H176	H	0.499877	0.465819	0.728237
H177	H	-0.000124	-0.140225	-0.027517
H178	H	0.499876	0.359775	0.472483
O179	O	-0.000106	-0.529522	-0.039555
O180	O	0.499894	-0.029522	0.460445
H181	H	-0.000101	-0.466461	-0.028955
H182	H	0.499899	0.033539	0.471045
