data_functionalizedCrystal
_audit_creation_method	'MofGen! by Chris Wilmer'
_symmetry_space_group_name_H-M	'P1'
_symmetry_Int_Tables_number	1
_symmetry_cell_setting	triclinic
loop_
_symmetry_equiv_pos_as_xyz
  x,y,z
_cell_length_a	17.699083
_cell_length_b	15.500227
_cell_length_c	17.699083
_cell_angle_alpha	87.178547
_cell_angle_beta	83.283015
_cell_angle_gamma	92.832683
loop_
_atom_site_label
_atom_site_type_symbol
_atom_site_fract_x
_atom_site_fract_y
_atom_site_fract_z
O1	O	1.007597	0.071824	0.092197
O2	O	1.340930	0.405157	0.425530
O3	O	1.674264	0.738491	0.758864
O4	O	0.787220	0.071853	0.104648
O5	O	1.120553	0.405186	0.437981
O6	O	1.453887	0.738519	0.771315
O7	O	0.903634	0.071830	-0.011766
O8	O	1.236968	0.405163	0.321567
O9	O	1.570301	0.738497	0.654900
O10	O	0.891183	0.071847	0.208611
O11	O	1.224516	0.405180	0.541945
O12	O	1.557849	0.738513	0.875278
O13	O	0.896570	-0.072057	-0.004730
O14	O	1.229903	0.261276	0.328604
O15	O	1.563237	0.594609	0.661937
O16	O	0.780156	-0.072035	0.111685
O17	O	1.113489	0.261299	0.445018
O18	O	1.446822	0.594632	0.778351
O19	O	1.000533	-0.072063	0.099234
O20	O	1.333866	0.261270	0.432567
O21	O	1.667199	0.594603	0.765900
Cu22	Cu	0.889699	-0.085187	0.106102
Cu23	Cu	1.223033	0.248146	0.439435
Cu24	Cu	1.556366	0.581480	0.772768
Cu25	Cu	0.898054	0.084976	0.097780
Cu26	Cu	1.231387	0.418310	0.431113
Cu27	Cu	1.564720	0.751643	0.764447
O28	O	0.884118	-0.072041	0.215648
O29	O	1.217452	0.261293	0.548981
O30	O	1.550785	0.594626	0.882315
C31	C	0.755491	-0.000087	0.107720
C32	C	1.088824	0.333246	0.441053
C33	C	1.422158	0.666579	0.774387
C34	C	0.671474	-0.000077	0.106381
C35	C	1.004807	0.333257	0.439714
C36	C	1.338140	0.666590	0.773048
N37	N	0.883829	-0.204871	0.111954
N38	N	1.217162	0.128462	0.445287
N39	N	1.550495	0.461796	0.778621
C40	C	0.622853	-0.000072	0.174714
C41	C	0.956186	0.333261	0.508047
C42	C	1.289520	0.666595	0.841381
C43	C	0.543909	-0.000083	0.173452
C44	C	0.877242	0.333250	0.506786
C45	C	1.210576	0.666584	0.840119
C46	C	0.513588	-0.000093	0.103856
C47	C	0.846921	0.333240	0.437190
C48	C	1.180254	0.666573	0.770523
C49	C	0.562214	-0.000101	0.035518
C50	C	0.895548	0.333233	0.368851
C51	C	1.228881	0.666566	0.702185
C52	C	0.641157	-0.000096	0.036781
C53	C	0.974490	0.333238	0.370114
C54	C	1.307823	0.666571	0.703448
C55	C	0.243850	-0.000123	0.030424
C56	C	0.577184	0.333211	0.363757
C57	C	0.910517	0.666544	0.697091
C58	C	0.164902	-0.000125	0.029166
C59	C	0.498236	0.333208	0.362499
C60	C	0.831569	0.666542	0.695833
C61	C	0.146603	-0.000110	0.167095
C62	C	0.479936	0.333223	0.500429
C63	C	0.813270	0.666557	0.833762
C64	C	0.225545	-0.000105	0.168358
C65	C	0.558878	0.333228	0.501691
C66	C	0.892212	0.666562	0.835025
C67	C	0.274164	-0.000117	0.100020
C68	C	0.607498	0.333216	0.433354
C69	C	0.940831	0.666550	0.766687
C70	C	0.359764	-0.000106	0.101389
C71	C	0.693098	0.333227	0.434723
C72	C	1.026431	0.666560	0.768056
C73	C	0.427990	-0.000098	0.102486
C74	C	0.761323	0.333236	0.435820
C75	C	1.094656	0.666569	0.769153
C76	C	0.933175	-0.250157	0.062643
C77	C	1.266508	0.083176	0.395977
C78	C	1.599841	0.416510	0.729310
C79	C	0.928742	-0.340729	0.067077
C80	C	1.262075	-0.007396	0.400410
C81	C	1.595409	0.325938	0.733743
C82	C	0.874966	-0.386013	0.120825
C83	C	1.208300	-0.052680	0.454158
C84	C	1.541633	0.280654	0.787491
C85	C	0.825615	-0.340721	0.170137
C86	C	1.158949	-0.007387	0.503471
C87	C	1.492282	0.325946	0.836804
C88	C	0.830045	-0.250150	0.165700
C89	C	1.163378	0.083183	0.499034
C90	C	1.496712	0.416516	0.832367
C91	C	0.859009	-0.659477	0.136797
C92	C	1.192342	-0.326144	0.470130
C93	C	1.525675	0.007190	0.803464
C94	C	0.854584	-0.750054	0.141232
C95	C	1.187918	-0.416720	0.474566
C96	C	1.521251	-0.083387	0.807899
C97	C	0.957710	-0.750056	0.038170
C98	C	1.291044	-0.416723	0.371503
C99	C	1.624377	-0.083389	0.704836
C100	C	0.962138	-0.659484	0.033740
C101	C	1.295472	-0.326150	0.367074
C102	C	1.628805	0.007183	0.700407
C103	C	0.912785	-0.614199	0.083050
C104	C	1.246118	-0.280866	0.416384
C105	C	1.579451	0.052468	0.749717
C106	C	0.870436	-0.478592	0.125359
C107	C	1.203769	-0.145259	0.458692
C108	C	1.537102	0.188074	0.792026
C109	C	0.917312	-0.521622	0.078512
C110	C	1.250646	-0.188288	0.411845
C111	C	1.583979	0.145045	0.745179
C112	C	1.032262	-0.000121	0.096162
C113	C	1.365595	0.333212	0.429495
C114	C	1.698929	0.666545	0.762828
C115	C	1.116280	-0.000126	0.097500
C116	C	1.449613	0.333207	0.430834
C117	C	1.782946	0.666540	0.764167
C118	C	0.899656	-0.000114	-0.036445
C119	C	1.232989	0.333220	0.296888
C120	C	1.566323	0.666553	0.630222
C121	C	0.898317	-0.000114	-0.120463
C122	C	1.231651	0.333219	0.212870
C123	C	1.564984	0.666553	0.546204
N124	N	0.903930	0.204660	0.091921
N125	N	1.237263	0.537993	0.425255
N126	N	1.570597	0.871327	0.758588
C127	C	0.966650	-0.000124	-0.169084
C128	C	1.299984	0.333209	0.164250
C129	C	1.633317	0.666543	0.497583
C130	C	0.965388	-0.000116	-0.248027
C131	C	1.298722	0.333217	0.085306
C132	C	1.632055	0.666550	0.418639
C133	C	0.895793	-0.000105	-0.278349
C134	C	1.229126	0.333229	0.054985
C135	C	1.562459	0.666562	0.388318
C136	C	0.827455	-0.000092	-0.229722
C137	C	1.160788	0.333241	0.103611
C138	C	1.494121	0.666575	0.436945
C139	C	0.828718	-0.000094	-0.150780
C140	C	1.162051	0.333240	0.182553
C141	C	1.495384	0.666573	0.515886
C142	C	0.822360	-0.000084	-0.548085
C143	C	1.155693	0.333249	-0.214752
C144	C	1.489026	0.666582	0.118581
C145	C	0.821102	-0.000085	-0.627033
C146	C	1.154435	0.333248	-0.293700
C147	C	1.487768	0.666581	0.039633
C148	C	0.959031	-0.000107	-0.645332
C149	C	1.292364	0.333226	-0.311999
C150	C	1.625697	0.666560	0.021334
C151	C	0.960294	-0.000109	-0.566391
C152	C	1.293627	0.333225	-0.233057
C153	C	1.626960	0.666558	0.100276
C154	C	0.891956	-0.000091	-0.517771
C155	C	1.225290	0.333242	-0.184438
C156	C	1.558623	0.666575	0.148895
C157	C	0.893325	-0.000098	-0.432172
C158	C	1.226659	0.333235	-0.098838
C159	C	1.559992	0.666568	0.234495
C160	C	0.894422	-0.000104	-0.363946
C161	C	1.227756	0.333229	-0.030613
C162	C	1.561089	0.666563	0.302720
C163	C	0.888097	-0.000095	0.240326
C164	C	1.221430	0.333238	0.573660
C165	C	1.554764	0.666572	0.906993
C166	C	0.889436	-0.000089	0.324344
C167	C	1.222769	0.333244	0.657678
C168	C	1.556102	0.666578	0.991011
H169	H	0.647534	-0.000063	0.231387
H170	H	0.980867	0.333270	0.564720
H171	H	1.314200	0.666604	0.898054
F172	F	0.813205	-0.526792	0.182562
F173	F	1.146539	-0.193459	0.515896
F174	F	1.479872	0.139875	0.849229
H175	H	0.140218	-0.000134	-0.027511
H176	H	0.473552	0.333199	0.305823
H177	H	0.806885	0.666532	0.639156
H178	H	0.107007	-0.000105	0.222739
H179	H	0.440340	0.333229	0.556073
H180	H	0.773673	0.666562	0.889406
H181	H	0.968923	-0.377601	0.026923
H182	H	1.302256	-0.044267	0.360257
H183	H	1.635589	0.289066	0.693590
H184	H	0.250228	-0.000093	0.225030
H185	H	0.583561	0.333241	0.558363
H186	H	0.916894	0.666574	0.891697
H187	H	0.976968	-0.213293	0.018879
H188	H	1.310301	0.120041	0.352213
H189	H	1.643634	0.453374	0.685546
H190	H	0.283428	-0.000133	-0.025221
H191	H	0.616761	0.333200	0.308112
H192	H	0.950094	0.666534	0.641446
F193	F	0.749629	-0.000064	-0.496351
F194	F	1.082962	0.333270	-0.163018
F195	F	1.416295	0.666603	0.170316
H196	H	0.504325	-0.000078	0.229096
H197	H	0.837658	0.333255	0.562429
H198	H	1.170991	0.666589	0.895763
F199	F	0.529942	-0.000117	-0.038551
F200	F	0.863275	0.333216	0.294782
F201	F	1.196609	0.666550	0.628115
F202	F	1.040725	-0.000145	-0.136821
F203	F	1.374058	0.333188	0.196513
F204	F	1.707391	0.666522	0.529846
H205	H	0.680743	-0.000099	-0.018863
H206	H	1.014077	0.333234	0.314470
H207	H	1.347410	0.666567	0.647803
F208	F	0.753385	-0.000070	-0.261995
F209	F	1.086719	0.333264	0.071339
F210	F	1.420052	0.666597	0.404672
H211	H	0.789861	-0.213279	0.205853
H212	H	1.123195	0.120054	0.539187
H213	H	1.456528	0.453388	0.872520
H214	H	1.005927	-0.622615	-0.010026
H215	H	1.339260	-0.289282	0.323308
H216	H	1.672593	0.044051	0.656641
H217	H	1.021032	-0.000126	-0.287611
H218	H	1.354365	0.333207	0.045722
H219	H	1.687699	0.666540	0.379055
F220	F	0.755988	-0.000080	-0.099035
F221	F	1.089322	0.333253	0.234299
F222	F	1.422655	0.666587	0.567632
H223	H	0.997891	-0.786935	-0.001977
H224	H	1.331224	-0.453602	0.331356
H225	H	1.664558	-0.120268	0.664690
H226	H	0.810791	-0.786920	0.185003
H227	H	1.144125	-0.453586	0.518337
H228	H	1.477458	-0.120253	0.851670
F229	F	1.034367	-0.000120	-0.534125
F230	F	1.367700	0.333213	-0.200792
F231	F	1.701033	0.666547	0.132542
H232	H	0.764425	-0.000077	-0.651717
H233	H	1.097758	0.333256	-0.318384
H234	H	1.431092	0.666589	0.014949
H235	H	0.818824	-0.622613	0.176949
H236	H	1.152157	-0.289280	0.510282
H237	H	1.485491	0.044053	0.843616
H238	H	0.781826	-0.377596	0.213898
H239	H	1.115159	-0.044263	0.547231
H240	H	1.448493	0.289071	0.880565
F241	F	1.031762	-0.000122	-0.697083
F242	F	1.365096	0.333211	-0.363750
F243	F	1.698429	0.666544	-0.030417
F244	F	0.974540	-0.473426	0.021308
F245	F	1.307873	-0.140093	0.354642
F246	F	1.641206	0.193241	0.687975
