data_functionalizedCrystal
_audit_creation_method	'MofGen! by Chris Wilmer'
_symmetry_space_group_name_H-M	'P1'
_symmetry_Int_Tables_number	1
_symmetry_cell_setting	triclinic
loop_
_symmetry_equiv_pos_as_xyz
  x,y,z
_cell_length_a	17.000383
_cell_length_b	15.500215
_cell_length_c	17.699083
_cell_angle_alpha	93.188936
_cell_angle_beta	79.441659
_cell_angle_gamma	93.374105
loop_
_atom_site_label
_atom_site_type_symbol
_atom_site_fract_x
_atom_site_fract_y
_atom_site_fract_z
O1	O	1.059345	0.072005	0.030207
O2	O	1.392678	0.405338	0.363540
O3	O	1.726012	0.738671	0.696873
O4	O	0.827559	0.071994	0.057677
O5	O	1.160893	0.405327	0.391011
O6	O	1.494226	0.738661	0.724344
O7	O	0.950000	0.071992	-0.066672
O8	O	1.283334	0.405325	0.266662
O9	O	1.616667	0.738659	0.599995
O10	O	0.936904	0.072007	0.154556
O11	O	1.270237	0.405340	0.487889
O12	O	1.603571	0.738673	0.821222
O13	O	0.943400	-0.071898	-0.072512
O14	O	1.276733	0.261435	0.260821
O15	O	1.610066	0.594769	0.594154
O16	O	0.820959	-0.071896	0.051837
O17	O	1.154292	0.261437	0.385170
O18	O	1.487625	0.594771	0.718503
O19	O	1.052744	-0.071885	0.024366
O20	O	1.386078	0.261448	0.357700
O21	O	1.719411	0.594781	0.691033
Cu22	Cu	0.936249	-0.085029	0.037568
Cu23	Cu	1.269582	0.248304	0.370901
Cu24	Cu	1.602916	0.581638	0.704235
Cu25	Cu	0.944055	0.085138	0.044475
Cu26	Cu	1.277388	0.418471	0.377809
Cu27	Cu	1.610722	0.751804	0.711142
O28	O	0.930303	-0.071883	0.148715
O29	O	1.263637	0.261450	0.482049
O30	O	1.596970	0.594783	0.815382
C31	C	0.794602	0.000047	0.056232
C32	C	1.127936	0.333381	0.389566
C33	C	1.461269	0.666714	0.722899
C34	C	0.706235	0.000043	0.060619
C35	C	1.039569	0.333376	0.393952
C36	C	1.372902	0.666710	0.727286
C37	C	0.205965	0.000077	0.088949
C38	C	0.539299	0.333411	0.422282
C39	C	0.872632	0.666744	0.755615
C40	C	0.288996	0.000076	0.084821
C41	C	0.622329	0.333410	0.418154
C42	C	0.955663	0.666743	0.751487
C43	C	0.340129	0.000065	0.013167
C44	C	0.673462	0.333398	0.346501
C45	C	1.006796	0.666732	0.679834
C46	C	0.308228	0.000063	-0.054362
C47	C	0.641561	0.333397	0.278972
C48	C	0.974894	0.666730	0.612305
C49	C	0.225198	0.000071	-0.050232
C50	C	0.558532	0.333404	0.283101
C51	C	0.891865	0.666737	0.616434
C52	C	0.591305	0.000049	-0.002781
C53	C	0.924638	0.333382	0.330552
C54	C	1.257971	0.666715	0.663886
C55	C	0.674339	0.000039	-0.006905
C56	C	1.007672	0.333372	0.326428
C57	C	1.341006	0.666706	0.659762
C58	C	0.655102	0.000053	0.132278
C59	C	0.988435	0.333387	0.465611
C60	C	1.321768	0.666720	0.798944
C61	C	0.572072	0.000055	0.136400
C62	C	0.905405	0.333389	0.469734
C63	C	1.238738	0.666722	0.803067
C64	C	0.540178	0.000058	0.068872
C65	C	0.873511	0.333392	0.402205
C66	C	1.206844	0.666725	0.735538
C67	C	0.425000	0.000061	0.008946
C68	C	0.758333	0.333395	0.342279
C69	C	1.091667	0.666728	0.675613
C70	C	0.455308	0.000068	0.073094
C71	C	0.788642	0.333402	0.406427
C72	C	1.121975	0.666735	0.739761
N73	N	0.930764	-0.204715	0.032709
N74	N	1.264098	0.128618	0.366042
N75	N	1.597431	0.461952	0.699376
C76	C	0.976879	-0.249983	0.073598
C77	C	1.310212	0.083351	0.406931
C78	C	1.643545	0.416684	0.740265
C79	C	0.972741	-0.340556	0.069918
C80	C	1.306075	-0.007223	0.403251
C81	C	1.639408	0.326110	0.736584
C82	C	0.922485	-0.385861	0.025352
C83	C	1.255818	-0.052527	0.358686
C84	C	1.589152	0.280806	0.692019
C85	C	0.876369	-0.340587	-0.015541
C86	C	1.209702	-0.007253	0.317792
C87	C	1.543036	0.326080	0.651125
C88	C	0.880511	-0.250015	-0.011865
C89	C	1.213845	0.083319	0.321468
C90	C	1.547178	0.416652	0.654802
C91	C	0.907572	-0.659330	0.012111
C92	C	1.240905	-0.325997	0.345444
C93	C	1.574239	0.007336	0.678777
C94	C	0.903432	-0.749909	0.008439
C95	C	1.236765	-0.416575	0.341772
C96	C	1.570098	-0.083242	0.675106
C97	C	0.999805	-0.749872	0.093897
C98	C	1.333139	-0.416539	0.427231
C99	C	1.666472	-0.083205	0.760564
C100	C	1.003939	-0.659298	0.097573
C101	C	1.337273	-0.325965	0.430907
C102	C	1.670606	0.007368	0.764240
C103	C	0.957827	-0.614032	0.056676
C104	C	1.291160	-0.280699	0.390010
C105	C	1.624493	0.052634	0.723343
C106	C	0.918253	-0.478441	0.021591
C107	C	1.251586	-0.145108	0.354925
C108	C	1.584920	0.188225	0.688258
C109	C	0.962063	-0.521453	0.060434
C110	C	1.295397	-0.188120	0.393767
C111	C	1.628730	0.145214	0.727100
C112	C	1.085701	0.000063	0.025811
C113	C	1.419035	0.333396	0.359145
C114	C	1.752368	0.666730	0.692478
C115	C	1.174069	0.000073	0.021425
C116	C	1.507402	0.333406	0.354758
C117	C	1.840735	0.666740	0.688091
C118	C	0.946231	0.000047	-0.097759
C119	C	1.279564	0.333380	0.235575
C120	C	1.612897	0.666714	0.568908
C121	C	0.944823	0.000046	-0.181686
C122	C	1.278156	0.333380	0.151648
C123	C	1.611490	0.666713	0.484981
N124	N	0.949546	0.204824	0.049328
N125	N	1.282879	0.538157	0.382661
N126	N	1.616212	0.871490	0.715995
C127	C	1.016693	0.000049	-0.234963
C128	C	1.350027	0.333382	0.098370
C129	C	1.683360	0.666715	0.431703
C130	C	1.015366	0.000056	-0.313820
C131	C	1.348699	0.333390	0.019513
C132	C	1.682033	0.666723	0.352846
C133	C	0.942167	0.000055	-0.339398
C134	C	1.275501	0.333389	-0.006065
C135	C	1.608834	0.666722	0.327268
C136	C	0.870291	0.000056	-0.286114
C137	C	1.203625	0.333389	0.047219
C138	C	1.536958	0.666723	0.380553
C139	C	0.871620	0.000055	-0.207258
C140	C	1.204953	0.333388	0.126075
C141	C	1.538286	0.666721	0.459408
C142	C	0.864933	0.000063	-0.604129
C143	C	1.198266	0.333396	-0.270796
C144	C	1.531599	0.666729	0.062537
C145	C	0.863610	0.000061	-0.682992
C146	C	1.196943	0.333395	-0.349658
C147	C	1.530276	0.666728	-0.016325
C148	C	1.008679	0.000064	-0.710691
C149	C	1.342012	0.333398	-0.377358
C150	C	1.675346	0.666731	-0.044025
C151	C	1.010007	0.000063	-0.631836
C152	C	1.343341	0.333396	-0.298502
C153	C	1.676674	0.666730	0.034831
C154	C	0.938132	0.000068	-0.578558
C155	C	1.271465	0.333401	-0.245225
C156	C	1.604799	0.666735	0.088108
C157	C	0.939572	0.000061	-0.493053
C158	C	1.272906	0.333395	-0.159719
C159	C	1.606239	0.666728	0.173614
C160	C	0.940726	0.000056	-0.424902
C161	C	1.274059	0.333389	-0.091569
C162	C	1.607393	0.666723	0.241764
C163	C	0.934073	0.000064	0.179802
C164	C	1.267406	0.333397	0.513135
C165	C	1.600740	0.666730	0.846469
C166	C	0.935481	0.000070	0.263729
C167	C	1.268815	0.333403	0.597063
C168	C	1.602148	0.666736	0.930396
H169	H	0.413673	0.000081	0.131434
H170	H	0.747006	0.333415	0.464767
H171	H	1.080339	0.666748	0.798100
H172	H	0.803999	0.000059	-0.703813
H173	H	1.137332	0.333393	-0.370480
H174	H	1.470665	0.666726	-0.037146
H175	H	0.565347	0.000049	-0.057768
H176	H	0.898681	0.333382	0.275566
H177	H	1.232014	0.666715	0.608899
H178	H	0.715971	0.000034	-0.065256
H179	H	1.049304	0.333367	0.268077
H180	H	1.382637	0.666701	0.601410
H181	H	0.349867	0.000059	-0.112703
H182	H	0.683200	0.333393	0.220631
H183	H	1.016534	0.666726	0.553964
H184	H	0.314962	0.000088	0.139806
H185	H	0.648295	0.333421	0.473139
H186	H	0.981628	0.666754	0.806473
H187	H	1.076300	0.000044	-0.214145
H188	H	1.409633	0.333377	0.119188
H189	H	1.742967	0.666711	0.452522
H190	H	1.002985	-0.484563	0.096715
H191	H	1.336318	-0.151229	0.430049
H192	H	1.669651	0.182104	0.763382
H193	H	1.069613	0.000059	-0.611016
H194	H	1.402946	0.333393	-0.277682
H195	H	1.736280	0.666726	0.055651
H196	H	0.842960	-0.213159	-0.045161
H197	H	1.176293	0.120175	0.288172
H198	H	1.509626	0.453508	0.621506
H199	H	0.877334	-0.515338	-0.014693
H200	H	1.210667	-0.182005	0.318640
H201	H	1.544000	0.151328	0.651973
H202	H	0.813095	0.000053	-0.163879
H203	H	1.146429	0.333386	0.169454
H204	H	1.479762	0.666720	0.502788
H205	H	0.835453	-0.377481	-0.051831
H206	H	1.168787	-0.044147	0.281502
H207	H	1.502120	0.289186	0.614835
H208	H	1.010294	-0.377409	0.103212
H209	H	1.343627	-0.044076	0.436546
H210	H	1.676961	0.289258	0.769879
H211	H	1.073890	0.000056	-0.357197
H212	H	1.407224	0.333389	-0.023864
H213	H	1.740557	0.666723	0.309470
H214	H	1.017798	-0.213102	0.109893
H215	H	1.351131	0.120231	0.443226
H216	H	1.684464	0.453564	0.776559
H217	H	0.164337	0.000080	0.147296
H218	H	0.497671	0.333413	0.480630
H219	H	0.831004	0.666747	0.813963
H220	H	0.806407	0.000067	-0.560759
H221	H	1.139741	0.333400	-0.227426
H222	H	1.473074	0.666733	0.105907
H223	H	0.530444	0.000067	0.194748
H224	H	0.863777	0.333400	0.528081
H225	H	1.197111	0.666734	0.861415
H226	H	0.810692	0.000061	-0.306945
H227	H	1.144025	0.333394	0.026388
H228	H	1.477358	0.666727	0.359721
H229	H	0.681079	0.000052	0.187256
H230	H	1.014413	0.333386	0.520589
H231	H	1.347746	0.666719	0.853923
H232	H	0.199230	0.000069	-0.105218
H233	H	0.532564	0.333402	0.228116
H234	H	0.865897	0.666736	0.561449
H235	H	1.067203	0.000065	-0.754080
H236	H	1.400537	0.333398	-0.420747
H237	H	1.733870	0.666731	-0.087413
H238	H	1.044866	-0.622418	0.133861
H239	H	1.378199	-0.289084	0.467194
H240	H	1.711532	0.044249	0.800527
H241	H	1.037348	-0.786738	0.127192
H242	H	1.370681	-0.453404	0.460526
H243	H	1.704015	-0.120071	0.793859
H244	H	0.466641	0.000049	-0.049394
H245	H	0.799975	0.333382	0.283939
H246	H	1.133308	0.666716	0.617273
H247	H	0.862503	-0.786793	-0.027851
H248	H	1.195836	-0.453460	0.305483
H249	H	1.529169	-0.120126	0.638816
H250	H	0.870024	-0.622486	-0.021191
H251	H	1.203357	-0.289152	0.312142
H252	H	1.536691	0.044181	0.645476
