data_functionalizedCrystal
_audit_creation_method	'MofGen! by Chris Wilmer'
_symmetry_space_group_name_H-M	'P1'
_symmetry_Int_Tables_number	1
_symmetry_cell_setting	triclinic
loop_
_symmetry_equiv_pos_as_xyz
  x,y,z
_cell_length_a	12.645331
_cell_length_b	10.686285
_cell_length_c	10.686551
_cell_angle_alpha	80.915481
_cell_angle_beta	94.397346
_cell_angle_gamma	94.369454
loop_
_atom_site_label
_atom_site_type_symbol
_atom_site_fract_x
_atom_site_fract_y
_atom_site_fract_z
Zn1	Zn	1.693603	0.450199	0.679057
Zn2	Zn	1.693517	0.678779	0.450555
Zn3	Zn	1.503688	0.466549	0.466813
Zn4	Zn	1.528956	0.662392	0.662754
O5	O	1.604941	0.564480	0.564795
O6	O	1.841941	0.480535	0.648765
O7	O	1.657725	0.664326	0.275081
O8	O	1.518341	0.286757	0.508595
O9	O	1.841878	0.648472	0.480885
O10	O	1.657871	0.274745	0.664530
O11	O	1.518258	0.508401	0.287026
O12	O	1.358690	0.492512	0.492786
O13	O	1.561408	0.620544	0.842547
O14	O	1.377255	0.636398	0.636743
O15	O	1.682373	0.464647	0.854525
O16	O	1.682227	0.854228	0.465076
O17	O	1.561325	0.842189	0.620978
C18	C	1.624539	0.894262	0.539521
C19	C	1.633023	1.035341	0.528751
C20	C	1.329507	0.564452	0.564760
C21	C	1.211679	0.564469	0.564773
C22	C	1.624719	0.538944	0.895881
C23	C	1.633147	0.528062	1.036971
C24	C	1.032406	0.473458	0.474786
C25	C	1.154955	0.473746	0.474337
C26	C	1.172962	0.700987	0.517996
C27	C	1.050292	0.700500	0.517372
C28	C	1.050507	0.520205	0.701818
C29	C	1.172890	0.517276	0.701300
C30	C	1.881450	0.564508	0.564830
C31	C	1.999282	0.564520	0.564845
C32	C	1.585297	0.233407	0.590195
C33	C	1.576926	0.092324	0.601019
C34	C	1.585296	0.589824	0.235003
C35	C	1.577052	0.600349	0.093942
H36	H	0.998357	0.372267	0.505058
C37	C	1.503476	0.695221	1.014030
H38	H	1.469424	0.739124	1.068688
H39	H	1.451347	0.650624	0.966020
H40	H	1.544279	0.754472	0.958089
C41	C	1.706746	0.433210	1.116892
H42	H	1.702946	0.438088	1.204417
H43	H	1.777795	0.453447	1.093805
H44	H	1.684887	0.349570	1.101773
H45	H	1.180503	0.372834	0.504832
C46	C	1.225821	0.599222	0.797923
H47	H	1.200937	0.568564	0.879503
H48	H	1.208439	0.684876	0.772728
H49	H	1.300748	0.594768	0.801161
H50	H	0.996992	0.503280	0.374097
H51	H	1.179647	0.503862	0.373043
H52	H	1.687534	1.094492	0.458626
C53	C	1.021825	0.795891	0.601486
H54	H	1.085213	0.834790	0.635865
H55	H	0.981683	0.752558	0.668651
H56	H	0.981031	0.859162	0.551855
C57	C	1.006012	0.749622	0.381690
H58	H	1.063015	0.769680	0.327468
H59	H	0.968987	0.823579	0.382302
H60	H	0.958731	0.685890	0.351580
H61	H	1.030140	0.586406	0.769046
H62	H	1.199583	0.737774	0.418574
C63	C	1.223980	0.795709	0.603203
H64	H	1.199482	0.877634	0.573232
H65	H	1.299104	0.798983	0.600977
H66	H	1.204811	0.768954	0.687975
C67	C	1.003726	0.387339	0.756620
H68	H	0.952511	0.357647	0.696468
H69	H	0.970771	0.391900	0.832577
H70	H	1.059039	0.330489	0.774594
H71	H	1.522410	1.033182	0.671132
C72	C	1.206492	0.381495	0.748708
H73	H	1.244009	0.353674	0.685575
H74	H	1.145082	0.326158	0.765360
H75	H	1.251141	0.380894	0.824431
