data_functionalizedCrystal
_audit_creation_method	'MofGen! by Chris Wilmer'
_symmetry_space_group_name_H-M	'P1'
_symmetry_Int_Tables_number	1
_symmetry_cell_setting	triclinic
loop_
_symmetry_equiv_pos_as_xyz
  x,y,z
_cell_length_a	25.639239
_cell_length_b	21.395362
_cell_length_c	21.395356
_cell_angle_alpha	90.047076
_cell_angle_beta	89.971496
_cell_angle_gamma	89.943053
loop_
_atom_site_label
_atom_site_type_symbol
_atom_site_fract_x
_atom_site_fract_y
_atom_site_fract_z
Zn1	Zn	-0.207909	-0.957819	-0.354651
Zn2	Zn	0.292091	-0.457819	0.145349
Zn3	Zn	-0.295343	-0.957709	-0.249872
Zn4	Zn	0.204657	-0.457709	0.250128
Zn5	Zn	-0.207951	-0.853036	-0.249844
Zn6	Zn	0.292049	-0.353036	0.250156
Zn7	Zn	-0.295343	-0.852988	-0.354569
Zn8	Zn	0.204657	-0.352988	0.145431
O9	O	-0.251637	-0.905388	-0.302234
O10	O	0.248363	-0.405388	0.197766
O11	O	-0.219490	-1.045482	-0.340797
O12	O	0.280510	-0.545482	0.159203
O13	O	-0.283768	-0.943797	-0.162190
O14	O	0.216232	-0.443797	0.337810
O15	O	-0.134780	-0.867001	-0.263770
O16	O	0.365220	-0.367001	0.236230
O17	O	-0.283727	-1.045401	-0.263816
O18	O	0.216273	-0.545401	0.236184
O19	O	-0.134749	-0.943985	-0.340771
O20	O	0.365251	-0.443985	0.159229
O21	O	-0.219561	-0.866894	-0.162170
O22	O	0.280439	-0.366894	0.337830
O23	O	-0.219562	-0.765351	-0.263691
O24	O	0.280438	-0.265351	0.236309
O25	O	-0.283728	-0.866921	-0.442258
O26	O	0.216272	-0.366921	0.057742
O27	O	-0.283768	-0.765317	-0.340631
O28	O	0.216232	-0.265317	0.159369
O29	O	-0.219490	-0.943939	-0.442318
O30	O	0.280510	-0.443939	0.057682
O31	O	-0.368508	-0.943751	-0.263737
O32	O	0.131492	-0.443751	0.236263
O33	O	-0.368508	-0.866814	-0.340658
O34	O	0.131492	-0.366814	0.159342
C35	C	-0.251670	-0.742600	-0.302149
C36	C	0.248330	-0.242600	0.197851
C37	C	-0.251697	-0.672959	-0.302128
C38	C	0.248303	-0.172959	0.197872
C39	C	-0.285175	-0.640244	-0.342129
C40	C	0.214825	-0.140244	0.157871
C41	C	-0.285164	-0.574809	-0.342152
C42	C	0.214836	-0.074809	0.157848
C43	C	-0.251681	-0.542091	-0.302164
C44	C	0.248319	-0.042091	0.197836
C45	C	-0.218197	-0.574813	-0.262160
C46	C	0.281803	-0.074813	0.237840
C47	C	-0.218205	-0.640247	-0.262142
C48	C	0.281795	-0.140247	0.237858
C49	C	-0.247480	-0.438368	-0.245751
C50	C	0.252520	0.061632	0.254249
C51	C	-0.247476	-0.372935	-0.245768
C52	C	0.252524	0.127065	0.254232
C53	C	-0.251654	-0.340270	-0.302218
C54	C	0.248346	0.159730	0.197782
C55	C	-0.255847	-0.373046	-0.358654
C56	C	0.244153	0.126954	0.141346
C57	C	-0.255855	-0.438480	-0.358637
C58	C	0.244145	0.061520	0.141363
C59	C	-0.251669	-0.471138	-0.302178
C60	C	0.248331	0.028862	0.197822
C61	C	-0.285122	-0.236603	-0.342247
C62	C	0.214878	0.263397	0.157753
C63	C	-0.285108	-0.171166	-0.342272
C64	C	0.214892	0.328834	0.157728
C65	C	-0.218144	-0.171172	-0.262274
C66	C	0.281856	0.328828	0.237726
C67	C	-0.218155	-0.236607	-0.262255
C68	C	0.281845	0.263393	0.237745
C69	C	-0.251647	-0.269319	-0.302241
C70	C	0.248353	0.230681	0.197759
C71	C	-0.387479	-0.905283	-0.302205
C72	C	0.112521	-0.405283	0.197795
C73	C	-0.445593	-0.905295	-0.302214
C74	C	0.054407	-0.405295	0.197786
C75	C	-0.805943	-0.945554	-0.262250
C76	C	-0.305943	-0.445554	0.237750
C77	C	-0.860548	-0.945578	-0.262258
C78	C	-0.360548	-0.445578	0.237742
O79	O	-0.888774	-0.979698	-0.228247
O80	O	-0.388774	-0.479698	0.271753
N81	N	-0.887876	-0.905498	-0.302275
N82	N	-0.387876	-0.405498	0.197725
C83	C	-0.860596	-0.865396	-0.342292
C84	C	-0.360596	-0.365396	0.157708
O85	O	-0.888855	-0.831307	-0.376331
O86	O	-0.388855	-0.331307	0.123669
C87	C	-0.805993	-0.865375	-0.342286
C88	C	-0.305993	-0.365375	0.157714
C89	C	-0.778668	-0.905453	-0.302261
C90	C	-0.278668	-0.405453	0.197739
C91	C	-0.778618	-0.985629	-0.222229
C92	C	-0.278618	-0.485629	0.277771
C93	C	-0.724018	-0.985604	-0.222220
C94	C	-0.224018	-0.485604	0.277780
C95	C	-0.696742	-0.945503	-0.262231
C96	C	-0.196742	-0.445503	0.237769
C97	C	-0.724067	-0.905428	-0.302252
C98	C	-0.224067	-0.405428	0.197748
C99	C	-0.778715	-0.825276	-0.382305
C100	C	-0.278715	-0.325276	0.117695
C101	C	-0.724108	-0.825259	-0.382296
C102	C	-0.224108	-0.325259	0.117704
C103	C	-0.696783	-0.865337	-0.342271
C104	C	-0.196783	-0.365337	0.157729
C105	C	-0.642191	-0.865302	-0.342255
C106	C	-0.142191	-0.365302	0.157745
N107	N	-0.614864	-0.905382	-0.302237
N108	N	-0.114864	-0.405382	0.197763
C109	C	-0.642139	-0.945483	-0.262226
C110	C	-0.142139	-0.445483	0.237774
C111	C	-0.975267	-0.865443	-0.342301
C112	C	-0.475267	-0.365443	0.157699
C113	C	-1.029869	-0.865460	-0.342304
C114	C	-0.529869	-0.365460	0.157696
C115	C	-1.029817	-0.945643	-0.262271
C116	C	-0.529817	-0.445643	0.237729
C117	C	-0.975214	-0.945623	-0.262266
C118	C	-0.475214	-0.445623	0.237734
C119	C	-0.947939	-0.905523	-0.302284
C120	C	-0.447939	-0.405523	0.197716
C121	C	-0.527474	-0.945426	-0.262209
C122	C	-0.027474	-0.445426	0.237791
C123	C	-0.472869	-0.945395	-0.262202
C124	C	0.027131	-0.445395	0.237798
C125	C	-0.472926	-0.865215	-0.342237
C126	C	0.027074	-0.365215	0.157763
C127	C	-0.527526	-0.865243	-0.342242
C128	C	-0.027526	-0.365243	0.157758
C129	C	-0.554799	-0.905354	-0.302226
C130	C	-0.054799	-0.405354	0.197774
O131	O	-0.613931	-0.831201	-0.376250
O132	O	-0.113931	-0.331201	0.123750
O133	O	-0.613874	-0.979571	-0.228198
O134	O	-0.113874	-0.479571	0.271802
C135	C	-0.115264	-0.905511	-0.302276
C136	C	0.384736	-0.405511	0.197724
C137	C	-0.057149	-0.905563	-0.302295
C138	C	0.442851	-0.405563	0.197705
C139	C	-0.251604	-0.905437	-0.465657
C140	C	0.248396	-0.405437	0.034343
C141	C	-0.251590	-0.905458	-0.535298
C142	C	0.248410	-0.405458	-0.035298
C143	C	-0.251612	-0.068811	-0.302301
C144	C	0.248388	0.431189	0.197699
C145	C	-0.251624	-0.138452	-0.302284
C146	C	0.248376	0.361548	0.197716
C147	C	-0.218154	-0.865426	-0.567991
C148	C	0.281846	-0.365426	-0.067991
C149	C	-0.218145	-0.865424	-0.633427
C150	C	0.281855	-0.365424	-0.133427
C151	C	-0.251565	-0.905465	-0.666167
C152	C	0.248435	-0.405465	-0.166167
C153	C	-0.285008	-0.945501	-0.633466
C154	C	0.214992	-0.445501	-0.133466
C155	C	-0.285020	-0.945497	-0.568032
C156	C	0.214980	-0.445497	-0.068032
C157	C	-0.255661	-0.961916	-0.769876
C158	C	0.244339	-0.461916	-0.269876
C159	C	-0.255645	-0.961921	-0.835309
C160	C	0.244355	-0.461921	-0.335309
C161	C	-0.251530	-0.905475	-0.867988
C162	C	0.248470	-0.405475	-0.367988
C163	C	-0.247421	-0.849024	-0.835225
C164	C	0.252579	-0.349024	-0.335225
C165	C	-0.247433	-0.849020	-0.769791
C166	C	0.252567	-0.349020	-0.269791
C167	C	-0.251556	-0.905473	-0.737119
C168	C	0.248444	-0.405473	-0.237119
C169	C	-0.218082	-0.865437	-0.971633
C170	C	0.281918	-0.365437	-0.471633
C171	C	-0.218076	-0.865434	-1.037070
C172	C	0.281924	-0.365434	-0.537070
C173	C	-0.284936	-0.945517	-1.037108
C174	C	0.215064	-0.445517	-0.537108
C175	C	-0.284945	-0.945514	-0.971672
C176	C	0.215055	-0.445514	-0.471672
C177	C	-0.251515	-0.905475	-0.938939
C178	C	0.248485	-0.405475	-0.438939
C179	C	-0.251631	-0.905375	-0.139446
C180	C	0.248369	-0.405375	0.360554
C181	C	-0.251498	-0.905475	-0.069805
C182	C	0.248502	-0.405475	0.430195
H183	H	-0.190934	-0.548170	-0.229602
H184	H	0.309066	-0.048170	0.270398
H185	H	-0.312446	-0.666874	-0.374689
H186	H	0.187554	-0.166874	0.125311
F187	F	-0.320797	-0.539984	-0.384728
F188	F	0.179203	-0.039984	0.115272
H189	H	-0.259248	-0.346452	-0.404622
H190	H	0.240752	0.153548	0.095378
F191	F	-0.243062	-0.788942	-0.734925
F192	F	0.256938	-0.288942	-0.234925
H193	H	-0.190896	-0.263244	-0.229679
H194	H	0.309104	0.236756	0.270321
H195	H	-0.190935	-0.832821	-0.541344
H196	H	0.309065	-0.332821	-0.041344
H197	H	-0.244066	-0.803061	-0.861831
H198	H	0.255934	-0.303061	-0.361831
H199	H	-0.259007	-1.007885	-0.743275
H200	H	0.240993	-0.507885	-0.243275
F201	F	-0.182547	-0.822824	-0.668228
F202	F	0.317453	-0.322824	-0.168228
H203	H	-1.052113	-0.832818	-0.374890
H204	H	-0.552113	-0.332818	0.125110
F205	F	-0.182571	-0.675066	-0.219567
F206	F	0.317429	-0.175066	0.280433
F207	F	-0.182506	-0.822822	-0.936794
F208	F	0.317494	-0.322822	-0.436794
H209	H	-0.952969	-0.978258	-0.229675
H210	H	-0.452969	-0.478258	0.270325
H211	H	-0.190879	-0.144533	-0.229718
H212	H	0.309121	0.355467	0.270282
H213	H	-0.190850	-0.832830	-1.063687
H214	H	0.309150	-0.332830	-0.563687
F215	F	-0.443888	-0.822540	-0.384820
F216	F	0.056112	-0.322540	0.115180
H217	H	-0.312147	-0.978121	-1.063764
H218	H	0.187853	-0.478121	-0.563764
F219	F	-0.694943	-1.028268	-0.179627
F220	F	-0.194943	-0.528268	0.320373
H221	H	-0.312247	-0.978099	-0.541414
H222	H	0.187753	-0.478099	-0.041414
H223	H	-0.312391	-0.263238	-0.374809
H224	H	0.187609	0.236762	0.125191
H225	H	-0.450622	-0.978032	-0.229607
H226	H	0.049378	-0.478032	0.270393
H227	H	-0.312171	-0.978115	-0.945054
H228	H	0.187829	-0.478115	-0.445054
H229	H	-0.953063	-0.832784	-0.374887
H230	H	-0.453063	-0.332784	0.125113
F231	F	-1.058855	-0.988322	-0.219686
F232	F	-0.558855	-0.488322	0.280314
F233	F	-0.260023	-1.022001	-0.870172
F234	F	0.239977	-0.522001	-0.370172
H235	H	-0.259267	-0.465164	-0.404589
H236	H	0.240733	0.034836	0.095411
F237	F	-0.320739	-0.136349	-0.384852
F238	F	0.179261	0.363651	0.115148
H239	H	-0.244065	-0.346253	-0.199814
H240	H	0.255935	0.153747	0.300186
H241	H	-0.800953	-0.792637	-0.414894
H242	H	-0.300953	-0.292637	0.085106
H243	H	-0.312220	-0.978103	-0.660127
H244	H	0.187780	-0.478103	-0.160127
H245	H	-0.549673	-0.978090	-0.229626
H246	H	-0.049673	-0.478090	0.270374
F247	F	-0.243035	-0.473125	-0.185664
F248	F	0.256965	0.026875	0.314336
H249	H	-0.800820	-1.018287	-0.189646
H250	H	-0.300820	-0.518287	0.310354
H251	H	-0.701903	-0.792606	-0.414885
H252	H	-0.201903	-0.292606	0.085115
H253	H	-0.549776	-0.832610	-0.374835
H254	H	-0.049776	-0.332610	0.125165
