data_functionalizedCrystal
_audit_creation_method	'MofGen! by Chris Wilmer'
_symmetry_space_group_name_H-M	'P1'
_symmetry_Int_Tables_number	1
_symmetry_cell_setting	triclinic
loop_
_symmetry_equiv_pos_as_xyz
  x,y,z
_cell_length_a	20.919309
_cell_length_b	14.560438
_cell_length_c	14.560438
_cell_angle_alpha	60.003849
_cell_angle_beta	89.997775
_cell_angle_gamma	57.446696
loop_
_atom_site_label
_atom_site_type_symbol
_atom_site_fract_x
_atom_site_fract_y
_atom_site_fract_z
Zr1	Zr	0.641877	0.933367	-0.084517
O2	O	0.535533	1.136829	-0.237077
O3	O	0.674462	0.738151	-0.037770
O4	O	0.674487	0.929722	-0.229343
O5	O	0.535505	0.945259	0.105635
O6	O	0.784116	0.917465	-0.223218
O7	O	0.535507	0.945259	-0.045504
O8	O	0.784070	0.574781	0.119471
O9	O	0.535551	1.287943	-0.237054
O10	O	0.770192	0.806246	-0.013237
O11	O	0.688376	0.815392	0.094986
O12	O	0.688407	1.040941	-0.130567
O13	O	0.606591	1.050088	-0.022344
Zr14	Zr	0.816718	0.913820	0.166301
Zr15	Zr	0.816721	0.913820	-0.074749
Zr16	Zr	0.641874	0.933367	0.156533
Zr17	Zr	0.641906	1.174376	-0.084480
Zr18	Zr	0.816689	0.672811	0.166264
O19	O	0.784134	1.109035	0.119554
O20	O	0.784139	1.109036	-0.223189
O21	O	0.535528	1.136829	0.105665
O22	O	0.923063	0.710358	0.318861
O23	O	0.923068	0.710358	-0.023881
O24	O	0.674457	0.738151	0.304972
O25	O	0.923091	0.901928	-0.023852
O26	O	0.784108	0.917465	0.311127
O27	O	0.674480	0.929721	0.305002
O28	O	0.923088	0.901928	0.127288
O29	O	0.674529	1.272406	-0.229290
O30	O	0.784067	0.574781	0.311074
O31	O	0.923045	0.559244	0.318838
O32	O	0.923047	0.559244	0.127235
O33	O	0.535548	1.287943	-0.045451
O34	O	0.674526	1.272406	-0.037687
O35	O	0.770189	0.806245	0.212350
O36	O	0.852005	0.797099	0.104127
O37	O	0.770219	1.031795	-0.013202
O38	O	0.688403	1.040941	0.095021
C39	C	0.729262	0.622128	0.040845
C40	C	0.729249	0.519813	0.040829
C41	C	0.510594	0.948044	0.028674
C42	C	0.436368	0.956342	0.024527
C43	C	0.686569	0.476471	0.097357
C44	C	0.686615	0.380254	0.097416
C45	C	0.772028	0.370725	-0.015580
C46	C	0.771977	0.466947	-0.015646
C47	C	0.643842	0.529337	0.153832
C48	C	0.601159	0.485995	0.210365
C49	C	0.601204	0.389778	0.210425
C50	C	0.643933	0.336903	0.153951
C51	C	0.444186	0.837735	0.083818
C52	C	0.374440	0.845541	0.079919
C53	C	0.296877	0.971954	0.016722
C54	C	0.289061	1.090570	-0.042570
C55	C	0.358806	1.082764	-0.038664
C56	C	0.084156	1.001654	0.001870
C57	C	0.014409	1.009451	-0.002034
C58	C	0.099793	0.764421	0.120458
C59	C	0.169536	0.756626	0.124352
C60	C	0.161714	0.875241	0.065065
C61	C	0.225585	0.979935	0.012732
C62	C	0.233006	0.867259	0.069062
C63	C	0.948001	0.899143	0.053110
C64	C	1.022227	0.890844	0.057257
C65	C	0.729302	0.923594	-0.260625
C66	C	0.729304	0.923594	-0.362957
C67	C	0.729334	1.225059	0.040939
C68	C	0.729346	1.327374	0.040954
C69	C	0.789695	0.916847	-0.407667
C70	C	0.789691	0.916842	-0.503817
C71	C	0.668897	0.930336	-0.510540
C72	C	0.668905	0.930331	-0.414388
C73	C	0.850093	0.910110	-0.356237
C74	C	0.910489	0.903365	-0.400948
C75	C	0.910485	0.903360	-0.497097
C76	C	0.850085	0.910100	-0.548536
C77	C	0.729293	0.923593	0.342409
C78	C	0.729292	0.923593	0.444741
C79	C	0.947965	0.597677	0.053063
C80	C	1.022179	0.487064	0.057194
C81	C	0.729257	0.622128	0.342362
C82	C	0.729243	0.519813	0.444678
C83	C	0.947961	0.597677	0.354580
C84	C	1.022173	0.487064	0.461043
C85	C	0.510635	1.249510	-0.272797
C86	C	0.436423	1.360123	-0.379260
C87	C	0.510630	1.249510	0.028720
C88	C	0.436417	1.360123	0.024590
C89	C	0.729338	1.225059	-0.260578
C90	C	0.729352	1.327374	-0.362895
C91	C	1.014325	0.439893	-0.002139
C92	C	1.084050	0.335975	0.001719
C93	C	1.161628	0.279222	0.064918
C94	C	1.169480	0.326402	0.124253
C95	C	1.099756	0.430326	0.120388
C96	C	1.099738	0.430343	0.454548
C97	C	1.169475	0.326423	0.554573
C98	C	1.161645	0.279219	0.661091
C99	C	1.084071	0.335950	0.667583
C100	C	1.014336	0.439874	0.567560
C101	C	0.358857	1.416855	-0.372765
C102	C	0.289120	1.520805	-0.472789
C103	C	0.296951	1.568014	-0.579307
C104	C	0.374524	1.511278	-0.585799
C105	C	0.444259	1.407336	-0.485776
C106	C	0.444270	1.407303	0.083913
C107	C	0.374546	1.511249	0.080028
C108	C	0.296968	1.568005	0.016825
C109	C	0.289115	1.520820	-0.042505
C110	C	0.358840	1.416883	-0.038626
C111	C	0.771943	0.466966	0.554010
C112	C	0.771924	0.370836	0.650143
C113	C	0.686503	0.380405	0.527599
C114	C	0.686518	0.476540	0.431468
C115	C	0.814668	0.510238	0.567220
C116	C	0.857373	0.457389	0.676557
C117	C	0.857353	0.361260	0.772690
C118	C	0.814629	0.317979	0.759486
H119	H	0.643800	0.607681	0.153791
H120	H	1.077708	0.297500	0.754324
H121	H	0.162425	1.082862	-0.038722
H122	H	0.850100	0.910117	-0.277949
H123	H	0.232687	0.653686	0.175792
H124	H	1.232632	0.280243	0.549267
F125	F	0.222724	1.678639	-0.685753
F126	F	0.382845	1.561534	-0.699174
H127	H	0.959668	0.897866	-0.359056
F128	F	0.108110	0.638191	0.183555
F129	F	0.931767	0.500279	-0.069411
H130	H	1.218434	0.194596	0.742528
F131	F	0.526808	1.346961	-0.492706
F132	F	0.206544	1.581235	-0.109763
F133	F	0.526828	1.346920	0.151182
H134	H	0.959666	0.897854	-0.533493
H135	H	0.619722	0.935825	-0.552429
H136	H	0.850092	0.910081	-0.626820
F137	F	0.382920	1.561443	0.143183
H138	H	0.380812	0.748958	0.128202
F139	F	0.931787	0.500224	0.574490
H140	H	0.352436	1.179346	-0.086931
F141	F	0.350505	1.366628	-0.259410
F142	F	0.222767	1.678623	0.012709
H143	H	-0.048748	1.112398	-0.053502
H144	H	0.566365	0.529060	0.256336
F145	F	0.641071	0.532790	0.315104
F146	F	0.206569	1.581167	-0.465856
F147	F	0.641039	0.334337	0.513554
F148	F	0.350468	1.366675	-0.101763
H149	H	1.077640	0.297574	-0.046599
F150	F	0.814694	0.612545	0.464913
F151	F	0.555771	0.343663	0.270581
F152	F	0.604631	0.937507	-0.366801
H153	H	0.225903	1.193499	-0.094020
F154	F	0.643971	0.234512	0.154007
H155	H	0.806817	0.327667	-0.061558
F156	F	0.817401	0.513079	-0.075810
H157	H	1.218395	0.194601	0.068058
H158	H	1.106162	0.468718	0.168711
H159	H	0.892151	0.492644	0.687299
H160	H	1.232653	0.280179	0.175708
H161	H	0.296160	0.764334	0.120521
H162	H	1.106129	0.468761	0.367826
H163	H	0.892119	0.318242	0.861712
F164	F	0.814604	0.215678	0.861803
H165	H	0.507338	0.734796	0.135284
H166	H	0.077777	1.098239	-0.046426
