data_functionalizedCrystal
_audit_creation_method	'MofGen! by Chris Wilmer'
_symmetry_space_group_name_H-M	'P1'
_symmetry_Int_Tables_number	1
_symmetry_cell_setting	triclinic
loop_
_symmetry_equiv_pos_as_xyz
  x,y,z
_cell_length_a	14.044220
_cell_length_b	14.044190
_cell_length_c	9.130307
_cell_angle_alpha	89.991681
_cell_angle_beta	90.003348
_cell_angle_gamma	93.190328
loop_
_atom_site_label
_atom_site_type_symbol
_atom_site_fract_x
_atom_site_fract_y
_atom_site_fract_z
O1	O	1.277170	0.230166	-0.121673
O2	O	1.000498	0.221861	-0.121709
O3	O	1.134678	0.087677	-0.121663
O4	O	1.142990	0.364350	-0.121720
O5	O	1.134673	0.087676	0.121936
O6	O	1.000493	0.221859	0.121890
O7	O	1.277165	0.230165	0.121926
Cu8	Cu	1.138829	0.226012	0.144150
Cu9	Cu	1.138834	0.226014	-0.143934
O10	O	1.142985	0.364348	0.121879
C11	C	0.964874	0.218224	0.000086
C12	C	0.858731	0.207380	0.000073
C13	C	1.131039	0.052054	0.000140
C14	C	1.120191	-0.054089	0.000152
C15	C	0.664392	0.187553	0.000106
C16	C	0.613264	0.264468	0.000097
C17	C	0.505128	0.253436	0.000115
C18	C	0.772539	0.198583	0.000088
C19	C	1.177292	-0.299547	0.000102
C20	C	1.100375	-0.248422	0.000102
C21	C	1.111404	-0.140285	0.000130
C22	C	1.166265	-0.407694	0.000074
C23	C	1.312789	0.233801	0.000127
C24	C	1.418932	0.244646	0.000130
C25	C	1.146624	0.399971	0.000073
C26	C	1.157472	0.506114	0.000052
N27	N	1.138831	0.226010	0.346773
N28	N	1.138838	0.226008	-0.346557
C29	C	1.257703	0.107233	0.346804
C30	C	1.317146	0.047847	0.423486
C31	C	1.317155	0.047847	0.576820
C32	C	1.257714	0.107237	0.653474
C33	C	1.198271	0.166623	0.576792
C34	C	1.198270	0.166618	0.423455
C35	C	1.079396	0.285394	0.576761
C36	C	1.079390	0.285400	0.423428
C37	C	1.019955	0.344784	0.653416
C38	C	0.960516	0.404176	0.576734
C39	C	0.960509	0.404174	0.423391
C40	C	1.019948	0.344786	0.346745
H41	H	0.650706	0.338602	0.000075
H42	H	1.026243	-0.285865	0.000084
O43	O	1.275487	-0.249961	0.000143
H44	H	1.268847	-0.171577	0.000175
H45	H	0.912118	0.452522	0.639155
O46	O	0.614810	0.089357	0.000126
H47	H	0.536425	0.095994	0.000123
O48	O	1.257692	0.107236	0.181423
H49	H	1.309004	0.055960	0.141003
H50	H	1.019960	0.344777	0.778268
H51	H	1.365541	-0.000510	0.361061
O52	O	1.381272	-0.016195	0.659542
H53	H	1.422610	-0.057487	0.580487
H54	H	1.257717	0.107225	0.778327
O55	O	0.896398	0.468229	0.340683
H56	H	0.855077	0.509526	0.419751
O57	O	1.019941	0.344773	0.181364
H58	H	1.041235	0.417391	0.140901
