data_functionalizedCrystal
_audit_creation_method	'MofGen! by Chris Wilmer'
_symmetry_space_group_name_H-M	'P1'
_symmetry_Int_Tables_number	1
_symmetry_cell_setting	triclinic
loop_
_symmetry_equiv_pos_as_xyz
  x,y,z
_cell_length_a	12.759401
_cell_length_b	25.639239
_cell_length_c	12.759393
_cell_angle_alpha	89.964022
_cell_angle_beta	89.979062
_cell_angle_gamma	90.040211
loop_
_atom_site_label
_atom_site_type_symbol
_atom_site_fract_x
_atom_site_fract_y
_atom_site_fract_z
Zn1	Zn	1.606091	-0.208104	-0.593980
Zn2	Zn	1.605909	-0.295549	-0.418283
Zn3	Zn	1.430390	-0.208132	-0.418315
Zn4	Zn	1.430308	-0.295513	-0.593921
O5	O	1.518175	-0.251825	-0.506125
O6	O	1.753088	-0.219708	-0.570685
O7	O	1.582584	-0.283980	-0.271266
O8	O	1.453808	-0.134963	-0.441656
O9	O	1.752954	-0.283953	-0.441601
O10	O	1.582895	-0.134943	-0.570716
O11	O	1.453631	-0.219755	-0.271290
O12	O	1.283358	-0.219720	-0.441598
O13	O	1.453669	-0.283891	-0.740950
O14	O	1.283298	-0.283918	-0.570615
O15	O	1.582816	-0.219672	-0.740993
O16	O	1.582505	-0.368710	-0.441544
O17	O	1.453492	-0.368683	-0.570584
C18	C	1.245207	-0.251818	-0.506104
C19	C	1.128431	-0.251828	-0.506120
C20	C	1.073565	-0.285307	-0.573193
C21	C	0.963841	-0.285309	-0.573214
C22	C	0.963858	-0.218352	-0.439079
C23	C	1.073580	-0.218347	-0.439065
C24	C	0.813929	-0.304070	-0.697071
C25	C	0.759060	-0.337557	-0.764135
C26	C	0.794614	-0.388581	-0.780073
C27	C	0.885037	-0.406129	-0.728931
C28	C	0.939901	-0.372645	-0.661860
C29	C	0.904348	-0.321613	-0.645942
C30	C	1.223494	-0.199592	-0.315206
C31	C	1.278359	-0.166110	-0.248129
C32	C	1.242807	-0.115085	-0.232180
C33	C	1.152381	-0.097539	-0.283303
C34	C	1.097515	-0.131021	-0.350380
C35	C	1.133075	-0.182046	-0.366331
C36	C	1.517998	-0.387667	-0.506077
C37	C	1.518018	-0.445781	-0.506091
C38	C	1.585527	-0.806146	-0.439048
C39	C	1.585568	-0.860750	-0.439062
O40	O	1.642783	-0.888988	-0.382007
N41	N	1.518359	-0.888064	-0.506194
C42	C	1.451113	-0.860770	-0.573324
O43	O	1.393952	-0.889017	-0.630428
C44	C	1.451079	-0.806167	-0.573315
C45	C	1.518284	-0.778856	-0.506171
C46	C	1.652728	-0.778835	-0.371910
C47	C	1.652685	-0.724234	-0.371895
C48	C	1.585442	-0.696945	-0.439018
C49	C	1.518242	-0.724255	-0.506156
C50	C	1.383839	-0.778874	-0.640449
C51	C	1.383810	-0.724267	-0.640435
C52	C	1.451016	-0.696957	-0.573291
C53	C	1.450956	-0.642365	-0.573263
N54	N	1.518165	-0.615052	-0.506131
C55	C	1.585408	-0.642341	-0.439008
C56	C	1.451192	-0.975441	-0.573341
C57	C	1.451221	-1.030043	-0.573346
C58	C	1.585677	-1.030019	-0.439085
C59	C	1.585642	-0.975416	-0.439075
C60	C	1.518401	-0.948127	-0.506208
C61	C	1.585313	-0.527676	-0.438981
C62	C	1.585261	-0.473071	-0.438969
C63	C	1.450810	-0.473100	-0.573233
C64	C	1.450857	-0.527700	-0.573242
C65	C	1.518117	-0.554987	-0.506112
O66	O	1.393774	-0.614093	-0.630292
O67	O	1.642569	-0.614088	-0.381925
C68	C	1.792208	-0.251831	-0.506146
C69	C	1.908984	-0.251834	-0.506156
C70	C	1.518253	-0.251774	-0.780158
C71	C	1.518287	-0.251753	-0.896935
C72	C	1.518381	-0.115452	-0.506196
C73	C	1.518468	-0.057337	-0.506226
C74	C	1.585539	-0.218309	-0.951821
C75	C	1.585556	-0.218286	-1.061546
C76	C	1.451068	-0.285156	-1.061487
C77	C	1.451045	-0.285176	-0.951765
C78	C	1.623220	-0.156599	-1.211536
C79	C	1.690489	-0.123160	-1.266426
C80	C	1.793008	-0.115142	-1.230836
C81	C	1.828280	-0.140572	-1.140358
C82	C	1.761018	-0.174015	-1.085473
C83	C	1.658484	-0.182023	-1.121061
C84	C	1.413392	-0.346864	-0.801773
C85	C	1.346134	-0.380310	-0.746887
C86	C	1.243613	-0.388333	-0.782474
C87	C	1.208344	-0.362913	-0.872956
C88	C	1.275603	-0.329466	-0.927843
C89	C	1.378123	-0.321443	-0.892247
C90	C	1.518157	-0.251837	-0.233157
C91	C	1.518327	-0.251711	-0.116381
H92	H	1.252456	-0.241140	-0.328196
C93	C	1.378186	-0.321426	-1.121209
C94	C	1.392619	-0.314262	-1.229048
C95	C	1.325509	-0.347671	-1.284093
H96	H	1.307561	-0.313808	-1.103348
H97	H	1.393514	-0.356570	-1.103270
H98	H	1.377284	-0.279125	-1.246980
H99	H	1.463230	-0.321884	-1.246940
H100	H	1.340837	-0.382815	-1.266154
H101	H	1.254888	-0.340050	-1.266223
H102	H	1.335299	-0.342818	-1.357267
C103	C	1.658348	-0.443514	-0.366028
C104	C	1.717265	-0.479105	-0.307272
C105	C	1.784612	-0.451898	-0.240083
H106	H	1.618287	-0.422250	-0.320114
H107	H	1.704146	-0.422185	-0.406228
H108	H	1.671473	-0.500425	-0.267075
H109	H	1.757348	-0.500369	-0.353159
H110	H	1.830409	-0.430569	-0.280283
H111	H	1.744541	-0.430636	-0.194175
H112	H	1.824601	-0.476042	-0.200216
H113	H	1.124864	-0.369447	-0.901935
H114	H	1.329055	-0.702052	-0.695106
H115	H	1.396058	-0.450872	-0.627881
H116	H	1.396136	-0.549938	-0.627919
C117	C	1.237227	-0.301959	-1.026155
C118	C	1.207435	-0.339154	-1.100734
C119	C	1.172068	-0.313834	-1.191305
H120	H	1.291886	-0.280894	-1.053880
H121	H	1.178767	-0.280623	-1.009277
H122	H	1.265888	-0.360480	-1.117612
H123	H	1.152767	-0.360221	-1.073043
H124	H	1.113608	-0.292499	-1.174428
H125	H	1.226732	-0.292770	-1.219020
H126	H	1.151840	-0.339067	-1.241915
H127	H	1.329108	-0.801102	-0.695120
H128	H	1.640288	-0.191092	-0.907182
H129	H	1.911766	-0.134045	-1.111393
C130	C	1.170731	-0.424650	-0.722712
C131	C	1.223549	-0.445192	-0.635846
C132	C	1.156439	-0.478641	-0.580767
H133	H	1.149120	-0.452295	-0.767289
H134	H	1.110992	-0.405754	-0.699679
H135	H	1.283269	-0.464087	-0.658881
H136	H	1.245158	-0.417559	-0.591245
H137	H	1.096700	-0.459746	-0.557734
H138	H	1.134832	-0.506283	-0.625352
H139	H	1.192263	-0.492580	-0.521817
C140	C	1.658481	-0.557319	-0.366279
C141	C	1.725842	-0.588592	-0.425835
C142	C	1.793270	-0.615898	-0.358899
H143	H	1.618474	-0.578703	-0.320438
H144	H	1.698552	-0.533239	-0.326324
H145	H	1.685776	-0.612669	-0.465772
H146	H	1.765872	-0.567220	-0.471673
H147	H	1.833341	-0.591818	-0.318944
H148	H	1.753254	-0.637280	-0.313061
H149	H	1.838988	-0.637116	-0.399298
H150	H	1.374863	-0.401014	-0.673218
H151	H	1.640367	-0.953182	-0.384401
H152	H	1.707412	-0.702001	-0.317224
H153	H	1.707491	-0.801048	-0.317251
C154	C	1.799477	-0.201555	-0.987236
C155	C	1.903656	-0.187370	-0.967801
C156	C	1.939116	-0.212721	-0.877302
H157	H	1.795274	-0.238227	-0.996921
H158	H	1.757072	-0.191692	-0.929337
H159	H	1.946049	-0.197236	-1.025687
H160	H	1.907887	-0.150702	-0.958097
H161	H	1.896710	-0.202858	-0.819402
H162	H	1.934906	-0.249392	-0.886995
H163	H	2.009800	-0.203096	-0.864098
H164	H	1.539738	-0.163120	-1.240516
H165	H	1.640434	-1.052248	-0.384433
C166	C	1.865876	-0.078806	-1.290557
C167	C	1.813043	-0.058249	-1.377401
C168	C	1.880127	-0.024771	-1.432441
H169	H	1.925629	-0.097667	-1.313623
H170	H	1.887454	-0.051170	-1.245917
H171	H	1.791480	-0.085880	-1.422034
H172	H	1.753295	-0.039379	-1.354365
H173	H	1.901705	0.002864	-1.387801
H174	H	1.939877	-0.043637	-1.455500
H175	H	1.844287	-0.010816	-1.491365
H176	H	0.919185	-0.191094	-0.384484
H177	H	1.118221	-0.312568	-0.627796
H178	H	1.013520	-0.386932	-0.620221
H179	H	1.661760	-0.102455	-1.340093
C180	C	1.378206	-1.059597	-0.646352
C181	C	1.319332	-1.024004	-0.705145
C182	C	1.252072	-1.051208	-0.772426
H183	H	1.332370	-1.080940	-0.606249
H184	H	1.418361	-1.080847	-0.692232
H185	H	1.279179	-1.002763	-0.659271
H186	H	1.365140	-1.002660	-0.745269
H187	H	1.292228	-1.072457	-0.818305
H188	H	1.206243	-1.072549	-0.732314
H189	H	1.212125	-1.027062	-0.812331
C190	C	0.923705	-0.461503	-0.746435
C191	C	0.945891	-0.468736	-0.852911
C192	C	0.981531	-0.519738	-0.869076
H193	H	0.871107	-0.485524	-0.725186
H194	H	0.985447	-0.467170	-0.706432
H195	H	0.884157	-0.463075	-0.892901
H196	H	0.998496	-0.444728	-0.874184
H197	H	1.043273	-0.525404	-0.829073
H198	H	0.928929	-0.543755	-0.847822
H199	H	0.996599	-0.524651	-0.941318
C200	C	1.378345	-0.945787	-0.646352
C201	C	1.437766	-0.914395	-0.713766
C202	C	1.370698	-0.887079	-0.781048
H203	H	1.332552	-0.924482	-0.606241
H204	H	1.338345	-0.969862	-0.686391
H205	H	1.477748	-0.890323	-0.673732
H206	H	1.483556	-0.935687	-0.753900
H207	H	1.330698	-0.911153	-0.821087
H208	H	1.324908	-0.865777	-0.740928
H209	H	1.411006	-0.865780	-0.826802
H210	H	1.023890	-0.116729	-0.392014
H211	H	1.123421	-0.055993	-0.270300
C212	C	1.302546	-0.078803	-0.159344
C213	C	1.389355	-0.105085	-0.117991
C214	C	1.444412	-0.071677	-0.050906
H215	H	1.257935	-0.068034	-0.103821
H216	H	1.325636	-0.049084	-0.197423
H217	H	1.366263	-0.134795	-0.079913
H218	H	1.433990	-0.115853	-0.173490
H219	H	1.467503	-0.041957	-0.088985
H220	H	1.399794	-0.060910	0.004611
H221	H	1.503324	-0.089503	-0.022848
C222	C	0.734931	-0.424852	-0.852969
C223	C	0.648151	-0.398561	-0.894360
C224	C	0.593153	-0.431950	-0.961530
H225	H	0.711803	-0.454583	-0.814977
H226	H	0.779620	-0.435597	-0.908466
H227	H	0.603470	-0.387823	-0.838871
H228	H	0.671249	-0.368831	-0.932369
H229	H	0.637841	-0.442696	-1.017027
H230	H	0.570031	-0.461680	-0.923530
H231	H	0.534272	-0.414115	-0.989629
H232	H	0.685438	-0.323264	-0.805775
H233	H	1.351989	-0.180401	-0.206501
H234	H	0.784979	-0.262520	-0.684111
H235	H	1.496871	-0.340330	-0.772783
