data_functionalizedCrystal
_audit_creation_method	'MofGen! by Chris Wilmer'
_symmetry_space_group_name_H-M	'P1'
_symmetry_Int_Tables_number	1
_symmetry_cell_setting	triclinic
loop_
_symmetry_equiv_pos_as_xyz
  x,y,z
_cell_length_a	15.944551
_cell_length_b	14.519709
_cell_length_c	13.596369
_cell_angle_alpha	90.006934
_cell_angle_beta	90.000836
_cell_angle_gamma	83.589442
loop_
_atom_site_label
_atom_site_type_symbol
_atom_site_fract_x
_atom_site_fract_y
_atom_site_fract_z
O1	O	-1.114698	-0.118943	-0.081691
O2	O	-0.870169	-0.133607	-0.081716
O3	O	-0.998917	0.007975	-0.081694
O4	O	-0.985950	-0.260525	-0.081713
O5	O	-0.998904	0.007982	0.081889
O6	O	-0.870156	-0.133600	0.081867
O7	O	-1.114685	-0.118936	0.081892
Zn8	Zn	-0.992419	-0.126267	0.107852
Zn9	Zn	-0.992435	-0.126276	-0.107676
O10	O	-0.985937	-0.260518	0.081870
C11	C	-0.838868	-0.132995	0.000073
C12	C	-0.745619	-0.131170	0.000064
C13	C	-1.145986	-0.119548	0.000101
C14	C	-1.239235	-0.121373	0.000104
C15	C	-0.998306	0.042337	0.000098
C16	C	-0.996495	0.144715	0.000098
C17	C	-0.530629	-0.039048	0.000089
C18	C	-0.469677	-0.081830	-0.080569
C19	C	-0.574889	-0.127868	0.000075
C20	C	-0.469687	-0.081844	0.080711
C21	C	-0.409971	-0.124672	0.000091
C22	C	-0.515165	-0.170674	-0.080649
C23	C	-0.515181	-0.170675	0.080703
C24	C	-0.454247	-0.213522	0.000025
C25	C	-0.669894	-0.129706	0.000065
C26	C	-0.314967	-0.122840	0.000094
C27	C	-0.986548	-0.294880	0.000076
C28	C	-0.988359	-0.397258	0.000070
N29	N	-0.992413	-0.126259	0.254944
C30	C	-0.989829	0.519599	0.000072
C31	C	-0.991680	0.415295	0.000080
C32	C	-0.993162	0.332161	0.000086
C33	C	-0.995013	0.227849	0.000092
N34	N	-0.992448	-0.126276	-0.254767
C35	C	-0.992434	-0.126277	0.656235
C36	C	-0.992426	-0.126275	0.544583
C37	C	-0.992424	-0.126269	0.455593
C38	C	-0.992415	-0.126266	0.343934
H39	H	-0.449518	-0.044266	-0.148754
O40	O	-0.538926	-0.215517	-0.162125
C41	C	-0.467075	-0.245154	-0.219115
H42	H	-0.408596	-0.251229	-0.170287
H43	H	-0.459958	-0.192653	-0.280044
C44	C	-0.549023	-0.332780	-0.324995
C45	C	-0.477199	-0.340250	-0.265022
H46	H	-0.555269	-0.391438	-0.353317
H47	H	-0.597432	-0.312811	-0.286603
H48	H	-0.543084	-0.289026	-0.375761
H49	H	-0.483145	-0.383994	-0.214251
H50	H	-0.428792	-0.360229	-0.303407
H51	H	-0.421196	-0.287311	-0.000025
H52	H	-0.535361	-0.208208	0.148892
O53	O	-0.570345	0.048855	-0.000125
C54	C	-0.621749	0.062189	-0.084437
H55	H	-0.638062	-0.007745	-0.112150
H56	H	-0.586475	0.097120	-0.144293
C57	C	-0.683480	0.209928	-0.024204
C58	C	-0.703521	0.124035	-0.058237
H59	H	-0.733919	0.248081	-0.008045
H60	H	-0.648846	0.200947	0.032597
H61	H	-0.654083	0.239026	-0.074089
H62	H	-0.732907	0.094934	-0.008347
H63	H	-0.738162	0.133013	-0.115029
O64	O	-0.445624	-0.036878	0.161960
C65	C	-0.404758	0.039997	0.133012
H66	H	-0.425533	0.061865	0.055438
H67	H	-0.333515	0.020338	0.134205
C68	C	-0.402777	0.094128	0.299845
C69	C	-0.428299	0.120992	0.204570
H70	H	-0.417295	0.144089	0.343987
H71	H	-0.430307	0.042334	0.319349
H72	H	-0.343409	0.077746	0.300826
H73	H	-0.487667	0.137363	0.203588
H74	H	-0.400780	0.172791	0.185068
