data_functionalizedCrystal
_audit_creation_method	'MofGen! by Chris Wilmer'
_symmetry_space_group_name_H-M	'P1'
_symmetry_Int_Tables_number	1
_symmetry_cell_setting	triclinic
loop_
_symmetry_equiv_pos_as_xyz
  x,y,z
_cell_length_a	16.109317
_cell_length_b	11.892095
_cell_length_c	16.109298
_cell_angle_alpha	93.893369
_cell_angle_beta	83.464201
_cell_angle_gamma	86.106418
loop_
_atom_site_label
_atom_site_type_symbol
_atom_site_fract_x
_atom_site_fract_y
_atom_site_fract_z
O1	O	-1.108432	0.093869	-0.101624
O2	O	-0.608432	0.593869	0.398376
O3	O	-0.866373	0.093896	-0.114907
O4	O	-0.366373	0.593896	0.385093
O5	O	-0.994054	0.093890	0.012766
O6	O	-0.494054	0.593890	0.512766
O7	O	-0.980751	0.093875	-0.229297
O8	O	-0.480751	0.593875	0.270703
O9	O	-0.983408	-0.094117	0.002137
O10	O	-0.483408	0.405883	0.502137
O11	O	-0.855727	-0.094111	-0.125536
O12	O	-0.355727	0.405889	0.374464
O13	O	-1.097786	-0.094138	-0.112253
O14	O	-0.597786	0.405862	0.387747
Zn15	Zn	-0.975067	-0.123974	-0.120582
Zn16	Zn	-0.475067	0.376026	0.379418
Zn17	Zn	-0.989093	0.123733	-0.106578
Zn18	Zn	-0.489093	0.623733	0.393422
O19	O	-0.970105	-0.094132	-0.239925
O20	O	-0.470105	0.405868	0.260075
C21	C	-0.830076	-0.000104	-0.119681
C22	C	-0.330076	0.499896	0.380319
C23	C	-0.737782	-0.000093	-0.118060
C24	C	-0.237782	0.499907	0.381940
N25	N	-0.965500	-0.293028	-0.130139
N26	N	-0.465500	0.206972	0.369861
C27	C	-0.444510	0.102378	-0.107033
C28	C	0.055490	0.602378	0.392967
C29	C	-0.531232	0.102382	-0.108549
C30	C	-0.031232	0.602382	0.391451
C31	C	-0.519644	-0.102593	-0.120126
C32	C	-0.019644	0.397407	0.379874
C33	C	-0.432925	-0.102597	-0.118603
C34	C	0.067075	0.397403	0.381397
C35	C	-0.395360	-0.000108	-0.112061
C36	C	0.104640	0.499892	0.387939
C37	C	-0.568801	-0.000100	-0.115100
C38	C	-0.068801	0.499900	0.384900
C39	C	-0.662828	-0.000095	-0.116745
C40	C	-0.162828	0.499905	0.383255
C41	C	-0.301327	-0.000112	-0.110414
C42	C	0.198673	0.499888	0.389586
C43	C	-1.065234	-0.529681	-0.030467
C44	C	-0.565234	-0.029681	0.469533
C45	C	-1.058553	-0.648022	-0.037153
C46	C	-0.558553	-0.148022	0.462847
C47	C	-0.945454	-0.648055	-0.150192
C48	C	-0.445454	-0.148055	0.349808
C49	C	-0.952135	-0.529713	-0.143506
C50	C	-0.452135	-0.029713	0.356494
C51	C	-1.012028	-0.470530	-0.083642
C52	C	-0.512028	0.029470	0.416358
C53	C	-1.018712	-0.352187	-0.076961
C54	C	-0.518712	0.147813	0.423039
C55	C	-0.905609	-0.352221	-0.189996
C56	C	-0.405609	0.147779	0.310004
C57	C	-0.898929	-0.470563	-0.196682
C58	C	-0.398929	0.029437	0.303318
C59	C	-0.134084	-0.000129	-0.107479
C60	C	0.365916	0.499871	0.392521
C61	C	-0.226379	-0.000115	-0.109101
C62	C	0.273621	0.499885	0.390899
C63	C	-0.988193	-0.000109	0.038426
C64	C	-0.488193	0.499891	0.538426
C65	C	-0.986580	-0.000095	0.130723
C66	C	-0.486580	0.499905	0.630723
N67	N	-0.998666	0.292786	-0.097015
N68	N	-0.498666	0.792786	0.402985
C69	C	-0.975966	-0.000130	-0.265586
C70	C	-0.475966	0.499870	0.234414
C71	C	-0.977580	-0.000136	-0.357882
C72	C	-0.477580	0.499864	0.142118
C73	C	-0.987114	0.102364	0.435584
C74	C	-0.487114	0.602364	0.935584
C75	C	-0.988642	0.102372	0.348865
C76	C	-0.488642	0.602372	0.848865
C77	C	-0.977048	-0.102604	0.337262
C78	C	-0.477048	0.397396	0.837262
C79	C	-0.975525	-0.102610	0.423981
C80	C	-0.475525	0.397390	0.923981
C81	C	-0.980555	-0.000123	0.473140
C82	C	-0.480555	0.499877	0.973140
C83	C	-0.983605	-0.000109	0.299701
C84	C	-0.483605	0.499891	0.799701
C85	C	-0.985262	-0.000101	0.205676
C86	C	-0.485262	0.499899	0.705676
C87	C	-0.978899	-0.000130	0.567171
C88	C	-0.478899	0.499870	1.067171
H89	H	-0.413928	0.185831	-0.101704
H90	H	0.086072	0.685831	0.398296
H91	H	-0.850163	-0.518763	-0.245420
H92	H	-0.350163	-0.018763	0.254580
H93	H	-0.972952	-0.186045	0.297227
H94	H	-0.472952	0.313955	0.797227
F95	F	-0.992469	0.211440	0.487900
F96	F	-0.492469	0.711440	0.987900
H97	H	-0.862288	-0.304048	-0.233297
H98	H	-0.362288	0.195952	0.266703
H99	H	-0.571247	0.185836	-0.104454
H100	H	-0.071247	0.685836	0.395546
H101	H	-1.067481	-0.304001	-0.028219
H102	H	-0.567481	0.195999	0.471781
F103	F	-0.881708	-0.711054	-0.213893
F104	F	-0.381708	-0.211054	0.286107
F105	F	-0.968548	-0.211697	0.463953
F106	F	-0.468548	0.288303	0.963953
F107	F	-0.559630	-0.211663	-0.127096
F108	F	-0.059630	0.288337	0.372904
F109	F	-0.380612	-0.211682	-0.123953
F110	F	0.119388	0.288318	0.376047
H111	H	-0.993985	0.185827	0.318292
H112	H	-0.493985	0.685827	0.818292
H113	H	-1.114006	-0.481493	0.018271
H114	H	-0.614006	0.018507	0.518271
H115	H	-1.101878	-0.696179	0.006149
H116	H	-0.601878	-0.196179	0.506149
