data_functionalizedCrystal
_audit_creation_method	'MofGen! by Chris Wilmer'
_symmetry_space_group_name_H-M	'P1'
_symmetry_Int_Tables_number	1
_symmetry_cell_setting	triclinic
loop_
_symmetry_equiv_pos_as_xyz
  x,y,z
_cell_length_a	14.044220
_cell_length_b	11.026623
_cell_length_c	10.065875
_cell_angle_alpha	100.697799
_cell_angle_beta	99.592716
_cell_angle_gamma	79.112210
loop_
_atom_site_label
_atom_site_type_symbol
_atom_site_fract_x
_atom_site_fract_y
_atom_site_fract_z
O1	O	0.393292	-1.670494	-0.113518
O2	O	0.893292	-1.170494	0.386482
O3	O	0.347242	-1.312203	-0.113517
O4	O	0.847242	-0.812203	0.386483
O5	O	0.231366	-1.485969	-0.113504
O6	O	0.731366	-0.985969	0.386496
O7	O	0.509168	-1.496728	-0.113531
O8	O	1.009168	-0.996728	0.386469
O9	O	0.253575	-1.452846	0.113482
O10	O	0.753575	-0.952846	0.613482
O11	O	0.369451	-1.279081	0.113470
O12	O	0.869451	-0.779081	0.613470
O13	O	0.415501	-1.637372	0.113468
O14	O	0.915501	-1.137372	0.613468
Zn15	Zn	0.396003	-1.452967	0.149508
Zn16	Zn	0.896003	-0.952967	0.649508
Zn17	Zn	0.366741	-1.496607	-0.149556
Zn18	Zn	0.866741	-0.996607	0.350444
O19	O	0.531377	-1.463606	0.113455
O20	O	1.031377	-0.963606	0.613455
C21	C	0.349851	-1.249511	-0.000023
C22	C	0.849851	-0.749511	0.499977
C23	C	0.324527	-1.112056	-0.000022
C24	C	0.824527	-0.612056	0.499978
C25	C	0.206353	-1.464699	-0.000010
C26	C	0.706353	-0.964699	0.499990
C27	C	0.098731	-1.450655	-0.000008
C28	C	0.598731	-0.950655	0.499992
C29	C	0.394450	-1.045821	-0.000030
C30	C	0.894450	-0.545821	0.499970
C31	C	0.368277	-0.903753	-0.000029
C32	C	0.868277	-0.403753	0.499971
C33	C	-0.098313	-1.424983	-0.000028
C34	C	0.401687	-0.924983	0.499972
C35	C	-0.138951	-1.524588	-0.000032
C36	C	0.361049	-1.024588	0.499968
C37	C	-0.248593	-1.510304	-0.000043
C38	C	0.251407	-1.010304	0.499957
C39	C	0.011338	-1.439265	-0.000017
C40	C	0.511338	-0.939265	0.499983
C41	C	0.556390	-1.484876	-0.000041
C42	C	1.056390	-0.984876	0.499959
C43	C	0.664011	-1.498921	-0.000052
C44	C	1.164011	-0.998921	0.499948
C45	C	0.412890	-0.700064	-0.000028
C46	C	0.912890	-0.200064	0.499972
C47	C	0.438211	-0.837520	-0.000036
C48	C	0.938211	-0.337520	0.499964
N49	N	0.415974	-1.423193	0.353611
N50	N	0.915974	-0.923193	0.853611
N51	N	0.346763	-1.526391	-0.353660
N52	N	0.846763	-1.026391	0.146340
C53	C	0.373682	-1.486240	0.421395
C54	C	0.873682	-0.986240	0.921395
C55	C	0.389062	-1.463335	0.578560
C56	C	0.889062	-0.963335	1.078560
H57	H	0.473691	-1.094290	-0.000030
H58	H	0.973691	-0.594290	0.499970
H59	H	0.299162	-1.597325	0.588025
H60	H	0.799162	-1.097325	1.088025
H61	H	0.517458	-0.885982	-0.000035
H62	H	1.017458	-0.385982	0.499965
H63	H	-0.145863	-1.328988	-0.000031
H64	H	0.354137	-0.828988	0.499969
H65	H	0.326084	-1.557169	0.363076
H66	H	0.826084	-1.057169	0.863076
H67	H	0.436654	-1.392391	0.636876
H68	H	0.936654	-0.892391	1.136876
H69	H	0.463564	-1.352254	0.411932
H70	H	0.963564	-0.852254	0.911932
H71	H	0.289029	-0.855293	-0.000056
H72	H	0.789029	-0.355293	0.499944
N73	N	0.219562	-1.047866	0.000005
N74	N	0.719562	-0.547866	0.500005
H75	H	0.215744	-0.955476	0.000007
H76	H	0.715744	-0.455476	0.500007
H77	H	0.178130	-1.084930	-0.084137
H78	H	0.678130	-0.584930	0.415863
H79	H	-0.091407	-1.620605	-0.000124
H80	H	0.408593	-1.120605	0.499876
