data_functionalizedCrystal
_audit_creation_method	'MofGen! by Chris Wilmer'
_symmetry_space_group_name_H-M	'P1'
_symmetry_Int_Tables_number	1
_symmetry_cell_setting	triclinic
loop_
_symmetry_equiv_pos_as_xyz
  x,y,z
_cell_length_a	17.077404
_cell_length_b	11.169416
_cell_length_c	17.077396
_cell_angle_alpha	89.976500
_cell_angle_beta	89.982756
_cell_angle_gamma	90.010565
loop_
_atom_site_label
_atom_site_type_symbol
_atom_site_fract_x
_atom_site_fract_y
_atom_site_fract_z
Zn1	Zn	1.200106	-0.477790	-0.443874
Zn2	Zn	1.700106	0.022210	0.056126
Zn3	Zn	1.200047	-0.678505	-0.312622
Zn4	Zn	1.700047	-0.178505	0.187378
Zn5	Zn	1.068843	-0.477835	-0.312622
Zn6	Zn	1.568843	0.022165	0.187378
Zn7	Zn	1.068834	-0.678431	-0.443845
Zn8	Zn	1.568834	-0.178431	0.056155
O9	O	1.134457	-0.578140	-0.378241
O10	O	1.634457	-0.078140	0.121759
O11	O	1.309945	-0.504427	-0.426475
O12	O	1.809945	-0.004427	0.073525
O13	O	1.182621	-0.651935	-0.202775
O14	O	1.682621	-0.151935	0.297225
O15	O	1.086283	-0.309879	-0.330046
O16	O	1.586283	0.190121	0.169954
O17	O	1.309901	-0.651892	-0.330045
O18	O	1.809901	-0.151892	0.169955
O19	O	1.182721	-0.309846	-0.426476
O20	O	1.682721	0.190154	0.073524
O21	O	1.086226	-0.504504	-0.202775
O22	O	1.586226	-0.004504	0.297225
O23	O	0.958995	-0.504432	-0.330017
O24	O	1.458995	-0.004432	0.169983
O25	O	1.086269	-0.651765	-0.553696
O26	O	1.586269	-0.151765	-0.053696
O27	O	0.958988	-0.651809	-0.426426
O28	O	1.458988	-0.151809	0.073574
O29	O	1.182713	-0.504356	-0.553718
O30	O	1.682713	-0.004356	-0.053718
O31	O	1.182613	-0.846445	-0.330016
O32	O	1.682613	-0.346445	0.169984
O33	O	1.086211	-0.846390	-0.426426
O34	O	1.586211	-0.346390	0.073574
C35	C	0.930509	-0.578118	-0.378219
C36	C	1.430509	-0.078118	0.121781
C37	C	0.843260	-0.578138	-0.378229
C38	C	1.343260	-0.078138	0.121771
C39	C	0.802287	-0.654993	-0.428348
C40	C	1.302287	-0.154993	0.071652
C41	C	0.720306	-0.654995	-0.428361
C42	C	1.220306	-0.154995	0.071639
C43	C	0.679300	-0.578148	-0.378249
C44	C	1.179300	-0.078148	0.121751
C45	C	0.720279	-0.501285	-0.328127
C46	C	1.220279	-0.001285	0.171873
C47	C	0.802258	-0.501277	-0.328119
C48	C	1.302258	-0.001277	0.171881
C49	C	0.549409	-0.501309	-0.328146
C50	C	1.049409	-0.001309	0.171854
C51	C	0.467424	-0.501318	-0.328153
C52	C	0.967424	-0.001318	0.171847
C53	C	0.467457	-0.655027	-0.428388
C54	C	0.967457	-0.155027	0.071612
C55	C	0.549436	-0.655019	-0.428380
C56	C	1.049436	-0.155019	0.071620
C57	C	0.590409	-0.578157	-0.378257
C58	C	1.090409	-0.078157	0.121743
C59	C	1.134426	-0.889965	-0.378235
C60	C	1.634426	-0.389965	0.121765
C61	C	1.134485	-1.023365	-0.378259
C62	C	1.634485	-0.523365	0.121741
C63	C	1.339201	-0.578163	-0.378263
C64	C	1.839201	-0.078163	0.121737
C65	C	1.426451	-0.578172	-0.378273
C66	C	1.926451	-0.078172	0.121727
C67	C	1.134497	-0.578047	-0.582985
C68	C	1.634497	-0.078047	-0.082985
C69	C	1.134513	-0.578008	-0.670235
C70	C	1.634513	-0.078008	-0.170235
C71	C	1.134510	-0.265098	-0.378264
C72	C	1.634510	0.234902	0.121736
C73	C	1.134532	-0.131698	-0.378274
C74	C	1.634532	0.368302	0.121726
C75	C	1.084336	-0.501231	-0.711225
C76	C	1.584336	-0.001231	-0.211225
C77	C	1.084349	-0.501204	-0.793206
C78	C	1.584349	-0.001204	-0.293206
C79	C	1.134544	-0.577948	-0.834195
C80	C	1.634544	-0.077948	-0.334195
C81	C	1.184723	-0.654733	-0.793199
C82	C	1.684723	-0.154733	-0.293199
C83	C	1.184706	-0.654765	-0.711220
C84	C	1.684706	-0.154765	-0.211220
C85	C	1.184757	-0.654658	-0.964069
C86	C	1.684757	-0.154658	-0.464069
C87	C	1.184776	-0.654624	-1.046054
C88	C	1.684776	-0.154624	-0.546054
C89	C	1.084400	-0.501096	-1.046055
C90	C	1.584400	-0.001096	-0.546055
C91	C	1.084383	-0.501129	-0.964076
C92	C	1.584383	-0.001129	-0.464076
C93	C	1.134564	-0.577912	-0.923086
C94	C	1.634564	-0.077912	-0.423086
C95	C	1.134463	-0.578146	-0.174293
C96	C	1.634463	-0.078146	0.325707
C97	C	1.134598	-0.577848	-0.087044
C98	C	1.634598	-0.077848	0.412956
H99	H	0.434093	-0.717607	-0.469202
H100	H	0.934093	-0.217607	0.030798
H101	H	0.835668	-0.717575	-0.469153
H102	H	1.335668	-0.217575	0.030847
H103	H	1.225589	-0.717225	-0.826579
H104	H	1.725589	-0.217225	-0.326579
H105	H	1.043486	-0.438689	-0.826576
H106	H	1.543486	0.061311	-0.326576
H107	H	1.043513	-0.438631	-0.930704
H108	H	1.543513	0.061369	-0.430704
H109	H	1.043542	-0.438575	-1.079433
H110	H	1.543542	0.061425	-0.579433
Br111	Br	0.664629	-0.396980	-0.260125
Br112	Br	1.164629	0.103020	0.239875
H113	H	1.225627	-0.717173	-0.930698
H114	H	1.725627	-0.217173	-0.430698
H115	H	1.225649	-0.717116	-1.079425
H116	H	1.725649	-0.217116	-0.579425
Br117	Br	1.252801	-0.758975	-0.655590
Br118	Br	1.752801	-0.258975	-0.155590
Br119	Br	0.857865	-0.396964	-0.260102
Br120	Br	1.357865	0.103036	0.239898
H121	H	1.043466	-0.438730	-0.677857
H122	H	1.543466	0.061270	-0.177857
Br123	Br	0.605014	-0.396992	-0.260123
Br124	Br	1.105014	0.103008	0.239877
Br125	Br	0.605088	-0.759324	-0.496381
Br126	Br	1.105088	-0.259324	0.003619
H127	H	0.686950	-0.717579	-0.469173
H128	H	1.186950	-0.217579	0.030827
H129	H	0.434039	-0.438728	-0.287357
H130	H	0.934039	0.061272	0.212643
