data_functionalizedCrystal
_audit_creation_method	'MofGen! by Chris Wilmer'
_symmetry_space_group_name_H-M	'P1'
_symmetry_Int_Tables_number	1
_symmetry_cell_setting	triclinic
loop_
_symmetry_equiv_pos_as_xyz
  x,y,z
_cell_length_a	11.169417
_cell_length_b	25.639240
_cell_length_c	11.169409
_cell_angle_alpha	89.953594
_cell_angle_beta	89.979436
_cell_angle_gamma	90.033637
loop_
_atom_site_label
_atom_site_type_symbol
_atom_site_fract_x
_atom_site_fract_y
_atom_site_fract_z
Zn1	Zn	1.834784	-0.208097	-0.678425
Zn2	Zn	1.834592	-0.295547	-0.477692
Zn3	Zn	1.634067	-0.208128	-0.477759
Zn4	Zn	1.633999	-0.295504	-0.678337
O5	O	1.734361	-0.251819	-0.578053
O6	O	2.002708	-0.219701	-0.651806
O7	O	1.807941	-0.283981	-0.309751
O8	O	1.660802	-0.134959	-0.504443
O9	O	2.002567	-0.283951	-0.504329
O10	O	1.808268	-0.134935	-0.651871
O11	O	1.660616	-0.219756	-0.309801
O12	O	1.466109	-0.219714	-0.504358
O13	O	1.660685	-0.283878	-0.846299
O14	O	1.466058	-0.283909	-0.651721
O15	O	1.808201	-0.219660	-0.846363
O16	O	1.807874	-0.368706	-0.504244
O17	O	1.660499	-0.368675	-0.651656
C18	C	1.422536	-0.251811	-0.578038
C19	C	1.289136	-0.251820	-0.578060
C20	C	1.734191	-0.387661	-0.577959
C21	C	1.734228	-0.445776	-0.577959
C22	C	1.811184	-0.806088	-0.654958
C23	C	1.811220	-0.860692	-0.654982
O24	O	1.876449	-0.888886	-0.720352
N25	N	1.734527	-0.888058	-0.578169
C26	C	1.657786	-0.860816	-0.501336
O27	O	1.592555	-0.889107	-0.436004
C28	C	1.657745	-0.806213	-0.501318
C29	C	1.734451	-0.778850	-0.578128
C30	C	1.887883	-0.778725	-0.731762
C31	C	1.887849	-0.724124	-0.731735
C32	C	1.811116	-0.696887	-0.654905
C33	C	1.734417	-0.724250	-0.578101
C34	C	1.580999	-0.778973	-0.424492
C35	C	1.580964	-0.724366	-0.424482
C36	C	1.657670	-0.697003	-0.501291
C37	C	1.657650	-0.642412	-0.501245
N38	N	1.734343	-0.615046	-0.578058
C39	C	1.811075	-0.642283	-0.654888
C40	C	1.657875	-0.975487	-0.501380
C41	C	1.657921	-1.030089	-0.501390
C42	C	1.811354	-1.029961	-0.655038
C43	C	1.811313	-0.975358	-0.655021
C44	C	1.734568	-0.948121	-0.578193
C45	C	1.810999	-0.527618	-0.654826
C46	C	1.810961	-0.473013	-0.654789
C47	C	1.657525	-0.473146	-0.501146
C48	C	1.657566	-0.527747	-0.501178
C49	C	1.734307	-0.554981	-0.578028
O50	O	1.592451	-0.614183	-0.435912
O51	O	1.876284	-0.613986	-0.720220
C52	C	2.047403	-0.251827	-0.578070
C53	C	2.180803	-0.251831	-0.578077
C54	C	1.734457	-0.251761	-0.891096
C55	C	1.734498	-0.251736	-1.024496
C56	C	1.734564	-0.115446	-0.578174
C57	C	1.734650	-0.057332	-0.578225
C58	C	1.734334	-0.251839	-0.266229
C59	C	1.734526	-0.251716	-0.132829
H60	H	1.873429	-0.450736	-0.717337
H61	H	1.873773	-0.953082	-0.717566
N62	N	1.498200	-0.694987	-0.341606
H63	H	1.442541	-0.672331	-0.390319
H64	H	1.449699	-0.720641	-0.292969
H65	H	1.873480	-0.549787	-0.717413
H66	H	1.873832	-1.052148	-0.717600
H67	H	1.595115	-0.550027	-0.438624
H68	H	1.595053	-0.450961	-0.438588
H69	H	1.950306	-0.701849	-0.794283
H70	H	1.950368	-0.800896	-0.794333
N71	N	1.575110	-0.946117	-0.418487
H72	H	1.623897	-0.923467	-0.362902
H73	H	1.519455	-0.923492	-0.467276
H74	H	1.595472	-1.052364	-0.438832
N75	N	1.498258	-0.808471	-0.341643
H76	H	1.412497	-0.798987	-0.360222
H77	H	1.510007	-0.847188	-0.353332
