data_functionalizedCrystal
_audit_creation_method	'MofGen! by Chris Wilmer'
_symmetry_space_group_name_H-M	'P1'
_symmetry_Int_Tables_number	1
_symmetry_cell_setting	triclinic
loop_
_symmetry_equiv_pos_as_xyz
  x,y,z
_cell_length_a	19.805407
_cell_length_b	19.120786
_cell_length_c	19.805399
_cell_angle_alpha	92.468930
_cell_angle_beta	90.024201
_cell_angle_gamma	92.464129
loop_
_atom_site_label
_atom_site_type_symbol
_atom_site_fract_x
_atom_site_fract_y
_atom_site_fract_z
Zn1	Zn	1.023243	-0.279660	0.371297
Zn2	Zn	1.018331	-0.397119	0.253277
Zn3	Zn	0.910057	-0.279678	0.258112
Zn4	Zn	0.905196	-0.397080	0.366416
O5	O	0.964207	-0.338384	0.312276
O6	O	1.117308	-0.295250	0.355661
O7	O	1.003947	-0.381564	0.159201
O8	O	0.929162	-0.181385	0.277193
O9	O	1.113699	-0.381547	0.268952
O10	O	1.012319	-0.181372	0.360350
O11	O	0.924399	-0.295281	0.162753
O12	O	0.814696	-0.295243	0.272460
O13	O	0.920877	-0.381480	0.461781
O14	O	0.811125	-0.381498	0.352030
O15	O	1.007606	-0.295212	0.465367
O16	O	0.999234	-0.495404	0.264218
O17	O	0.916114	-0.495376	0.347341
C18	C	0.788352	-0.338369	0.312240
C19	C	0.713119	-0.338379	0.312240
C20	C	0.249483	-0.383382	0.353680
C21	C	0.320171	-0.383381	0.353665
C22	C	0.357357	-0.338401	0.312301
C23	C	0.323850	-0.293425	0.270944
C24	C	0.253163	-0.293431	0.270955
C25	C	0.608924	-0.293404	0.270897
C26	C	0.679616	-0.293401	0.270890
C27	C	0.675933	-0.383354	0.353607
C28	C	0.605245	-0.383359	0.353619
C29	C	0.571745	-0.338386	0.312259
C30	C	0.495096	-0.338389	0.312274
C31	C	0.434004	-0.338395	0.312289
C32	C	0.956632	-0.520875	0.304740
C33	C	0.953453	-0.598946	0.301539
C34	C	0.995223	-0.635556	0.343365
C35	C	0.992233	-0.708912	0.340359
C36	C	0.947477	-0.745655	0.295522
C37	C	0.905702	-0.709040	0.253694
C38	C	0.908689	-0.635686	0.256704
C39	C	0.936291	-0.967141	0.284268
C40	C	0.933309	-1.040500	0.281259
C41	C	1.019840	-1.040367	0.367925
C42	C	1.022825	-0.967011	0.370929
C43	C	0.981048	-0.930402	0.329103
C44	C	0.944421	-0.820636	0.292446
C45	C	0.984101	-0.855422	0.332183
C46	C	1.140749	-0.338401	0.312311
C47	C	1.215981	-0.338408	0.312327
C48	C	0.964247	-0.338340	0.488820
C49	C	0.964264	-0.338321	0.564053
C50	C	0.971831	-0.155181	0.319855
C51	C	0.975079	-0.077110	0.323085
C52	C	0.964209	-0.338378	0.136420
C53	C	0.964331	-0.338199	0.061196
C54	C	1.009425	-0.293399	0.601266
C55	C	1.009432	-0.293379	0.671955
C56	C	0.964282	-0.338285	0.705430
C57	C	0.919117	-0.383209	0.668212
C58	C	0.919106	-0.383225	0.597524
C59	C	0.919158	-0.383143	0.953288
C60	C	0.919173	-0.383125	1.023981
C61	C	1.009484	-0.293297	1.027719
C62	C	1.009473	-0.293313	0.957031
C63	C	0.964306	-0.338234	0.919820
C64	C	0.964297	-0.338255	0.843170
C65	C	0.964294	-0.338268	0.782078
H66	H	0.703217	-0.419975	0.387283
H67	H	1.046208	-0.256801	0.702251
C68	C	1.059139	-0.243911	0.920213
N69	N	1.096546	-0.206697	0.892482
C70	C	0.572083	-0.243922	0.225410
N71	N	0.544332	-0.206647	0.191149
H72	H	0.902276	-0.937339	0.250210
C73	C	0.869470	-0.432555	0.912365
N74	N	0.832041	-0.469774	0.881539
H75	H	0.907982	-0.850561	0.255938
H76	H	0.354132	-0.256806	0.237261
C77	C	0.216311	-0.243954	0.225465
N78	N	0.188555	-0.206688	0.191200
H79	H	1.031671	-0.605644	0.379874
C80	C	0.869427	-0.432644	0.556591
N81	N	0.832006	-0.469866	0.525760
C82	C	1.033333	-0.815002	0.381501
N83	N	1.070418	-0.784551	0.418645
C84	C	1.059162	-0.243874	1.068658
N85	N	1.096578	-0.206649	1.099493
H86	H	1.046193	-0.256834	0.574016
H87	H	1.026252	-0.738717	0.374413
C88	C	0.869497	-0.432522	1.060802
N89	N	0.832083	-0.469726	1.088536
H90	H	1.059270	-0.937096	0.407439
H91	H	1.053851	-1.070182	0.401978
H92	H	0.896860	-1.070415	0.244747
C93	C	0.720519	-0.243922	0.225380
N94	N	0.751327	-0.206657	0.191103
C95	C	0.856511	-0.749460	0.204331
N96	N	0.819475	-0.779905	0.167134
C97	C	0.862739	-0.595415	0.210691
N98	N	0.828127	-0.565083	0.176034
H99	H	0.219211	-0.420005	0.387367
C100	C	0.357020	-0.432858	0.399155
N101	N	0.384774	-0.470128	0.433418
H102	H	0.882352	-0.419769	0.695473
C103	C	0.564345	-0.432845	0.399116
N104	N	0.533540	-0.470124	0.433382
