data_functionalizedCrystal
_audit_creation_method	'MofGen! by Chris Wilmer'
_symmetry_space_group_name_H-M	'P1'
_symmetry_Int_Tables_number	1
_symmetry_cell_setting	triclinic
loop_
_symmetry_equiv_pos_as_xyz
  x,y,z
_cell_length_a	12.759401
_cell_length_b	21.295417
_cell_length_c	12.759393
_cell_angle_alpha	89.960830
_cell_angle_beta	89.981504
_cell_angle_gamma	90.030668
loop_
_atom_site_label
_atom_site_type_symbol
_atom_site_fract_x
_atom_site_fract_y
_atom_site_fract_z
Zn1	Zn	1.606140	-0.250569	-0.593926
Zn2	Zn	1.605986	-0.355853	-0.418223
Zn3	Zn	1.430442	-0.250602	-0.418265
Zn4	Zn	1.430382	-0.355805	-0.593864
O5	O	1.518237	-0.303208	-0.506069
O6	O	1.753141	-0.264542	-0.570626
O7	O	1.582660	-0.341926	-0.271207
O8	O	1.453838	-0.162509	-0.441611
O9	O	1.753027	-0.341894	-0.441538
O10	O	1.582923	-0.162484	-0.570668
O11	O	1.453689	-0.264598	-0.271238
O12	O	1.283413	-0.264551	-0.441551
O13	O	1.453736	-0.341811	-0.740893
O14	O	1.283369	-0.341843	-0.570562
O15	O	1.582865	-0.264495	-0.740939
O16	O	1.582602	-0.443936	-0.441478
O17	O	1.453587	-0.443901	-0.570521
C18	C	1.245270	-0.303196	-0.506055
C19	C	1.128493	-0.303206	-0.506074
C20	C	1.073636	-0.343516	-0.573139
C21	C	0.963912	-0.343524	-0.573151
C22	C	0.963912	-0.262910	-0.439022
C23	C	1.073635	-0.262899	-0.439017
C24	C	1.128495	-0.383823	-0.640196
C25	C	1.073637	-0.424137	-0.707266
C26	C	0.963913	-0.424145	-0.707277
C27	C	0.909047	-0.383839	-0.640219
C28	C	1.518100	-0.466759	-0.506011
C29	C	1.518137	-0.536727	-0.506021
C30	C	1.585375	-0.569592	-0.438898
C31	C	1.585424	-0.635334	-0.438921
C32	C	1.518217	-0.668210	-0.506058
C33	C	1.450974	-0.635338	-0.573195
C34	C	1.450934	-0.569596	-0.573177
N35	N	1.426309	-0.771475	-0.514062
N36	N	1.426350	-0.833927	-0.514073
C37	C	1.518334	-0.866284	-0.506118
N38	N	1.610278	-0.833832	-0.498130
N39	N	1.610236	-0.771375	-0.498114
C40	C	1.518253	-0.739495	-0.506085
C41	C	1.585631	-0.970434	-0.439016
C42	C	1.585682	-1.036178	-0.439047
C43	C	1.451223	-1.036180	-0.573315
C44	C	1.451181	-0.970438	-0.573289
C45	C	1.518384	-0.937569	-0.506134
C46	C	1.792271	-0.303220	-0.506084
C47	C	1.909047	-0.303225	-0.506091
C48	C	1.518311	-0.303144	-0.780103
C49	C	1.518342	-0.303117	-0.896880
C50	C	1.518404	-0.139017	-0.506151
C51	C	1.518475	-0.069049	-0.506185
C52	C	1.585589	-0.262855	-0.951767
C53	C	1.585614	-0.262832	-1.061491
C54	C	1.451143	-0.343339	-1.061431
C55	C	1.451113	-0.343358	-0.951709
C56	C	1.652818	-0.222613	-0.896938
C57	C	1.720071	-0.182348	-0.951825
C58	C	1.720096	-0.182325	-1.061549
C59	C	1.652868	-0.222568	-1.116386
C60	C	1.518225	-0.303225	-0.233102
C61	C	1.518397	-0.303075	-0.116326
H62	H	1.640098	-0.542832	-0.384219
H63	H	1.396180	-0.542838	-0.627838
O64	O	0.910663	-0.223675	-0.373992
C65	C	0.877171	-0.116570	-0.323275
C66	C	0.937522	-0.160929	-0.397009
H67	H	0.898881	-0.065831	-0.341843
H68	H	0.789315	-0.123450	-0.334803
H69	H	0.898694	-0.127596	-0.238531
H70	H	0.916087	-0.149929	-0.481781
H71	H	1.025364	-0.154040	-0.385390
H72	H	1.774848	-0.149535	-1.106236
H73	H	1.652807	-0.222629	-0.807595
O74	O	1.126973	-0.223677	-0.374015
C75	C	1.250947	-0.138692	-0.360134
C76	C	1.190592	-0.183064	-0.433867
H77	H	1.302414	-0.105854	-0.408493
H78	H	1.192935	-0.109845	-0.312222
H79	H	1.302231	-0.167562	-0.305085
H80	H	1.139306	-0.154243	-0.488979
H81	H	1.248660	-0.211913	-0.481705
O82	O	1.385700	-0.382365	-1.114650
C83	C	1.206972	-0.412937	-1.148154
C84	C	1.280962	-0.368688	-1.087839
H85	H	1.122277	-0.401904	-1.126483
H86	H	1.218457	-0.406006	-1.236016
H87	H	1.225420	-0.463696	-1.126560
H88	H	1.262560	-0.317913	-1.109346
H89	H	1.269464	-0.375674	-0.999992
O90	O	1.785222	-0.143224	-0.898448
C91	C	1.799409	-0.058232	-0.774675
C92	C	1.725510	-0.102513	-0.835035
H93	H	1.751161	-0.025297	-0.723407
H94	H	1.854289	-0.087109	-0.723222
H95	H	1.847495	-0.029479	-0.832777
H96	H	1.677356	-0.131275	-0.777008
H97	H	1.670700	-0.073600	-0.886504
O98	O	0.910739	-0.463271	-0.772574
C99	C	0.877175	-0.493938	-0.951195
C100	C	0.937475	-0.449595	-0.877367
H101	H	0.898751	-0.482889	-1.035936
H102	H	0.898728	-0.544692	-0.932666
H103	H	0.789335	-0.487034	-0.939632
H104	H	1.025329	-0.456444	-0.888888
H105	H	0.915834	-0.398858	-0.895913
H106	H	1.640181	-0.662097	-0.384261
H107	H	1.396255	-0.662109	-0.627859
H108	H	0.819702	-0.383844	-0.640243
O109	O	1.650969	-0.938433	-0.373938
C110	C	1.792819	-0.864169	-0.359905
C111	C	1.718874	-0.900356	-0.433722
H112	H	1.847753	-0.833384	-0.408211
H113	H	1.744653	-0.833404	-0.304930
H114	H	1.840843	-0.898967	-0.311917
H115	H	1.670834	-0.865602	-0.481779
H116	H	1.767100	-0.931129	-0.488628
H117	H	1.640442	-1.062935	-0.384389
O118	O	1.385974	-1.068205	-0.638437
C119	C	1.326502	-1.169484	-0.698029
C120	C	1.400427	-1.133291	-0.624200
H121	H	1.338177	-1.222112	-0.686560
H122	H	1.241762	-1.156663	-0.679506
H123	H	1.344890	-1.156464	-0.782744
H124	H	1.382133	-1.146291	-0.539461
H125	H	1.485145	-1.146115	-0.642814
O126	O	1.653058	-0.222487	-1.222973
C127	C	1.726837	-0.178259	-1.380462
C128	C	1.726739	-0.178293	-1.259758
H129	H	1.786386	-0.142522	-1.410240
H130	H	1.748658	-0.226984	-1.410276
H131	H	1.645472	-0.165215	-1.410231
H132	H	1.808079	-0.191309	-1.229900
H133	H	1.704859	-0.129561	-1.230016
O134	O	1.126814	-0.463374	-0.772355
C135	C	1.160380	-0.570486	-0.822979
C136	C	1.100078	-0.526122	-0.749213
H137	H	1.138803	-0.621228	-0.804280
H138	H	1.138828	-0.559545	-0.907748
H139	H	1.248219	-0.563526	-0.811470
H140	H	1.012225	-0.533058	-0.760628
H141	H	1.121717	-0.537075	-0.664471
O142	O	1.385906	-0.938580	-0.638630
C143	C	1.334830	-0.918372	-0.817293
C144	C	1.408805	-0.954500	-0.743407
H145	H	1.353332	-0.931220	-0.902022
H146	H	1.250116	-0.931367	-0.798857
H147	H	1.346325	-0.865741	-0.805695
H148	H	1.397403	-1.007139	-0.754965
H149	H	1.493492	-0.941453	-0.761862
O150	O	1.385925	-0.382566	-0.898421
C151	C	1.334815	-0.489651	-0.864797
C152	C	1.408715	-0.445318	-0.925199
H153	H	1.353199	-0.540395	-0.886442
H154	H	1.346363	-0.482802	-0.776948
H155	H	1.250113	-0.478569	-0.886339
H156	H	1.493445	-0.456373	-0.903745
H157	H	1.397076	-0.452176	-1.013033
H158	H	1.217838	-0.383822	-0.640192
