data_functionalizedCrystal
_audit_creation_method	'MofGen! by Chris Wilmer'
_symmetry_space_group_name_H-M	'P1'
_symmetry_Int_Tables_number	1
_symmetry_cell_setting	triclinic
loop_
_symmetry_equiv_pos_as_xyz
  x,y,z
_cell_length_a	8.559649
_cell_length_b	8.597304
_cell_length_c	16.176319
_cell_angle_alpha	82.293375
_cell_angle_beta	89.992630
_cell_angle_gamma	77.624695
loop_
_atom_site_label
_atom_site_type_symbol
_atom_site_fract_x
_atom_site_fract_y
_atom_site_fract_z
O1	O	2.119304	-0.053140	-0.064949
O2	O	1.655364	0.027761	-0.070714
O3	O	1.896462	-0.242258	-0.051478
O4	O	1.878206	0.216879	-0.084184
O5	O	1.896428	-0.242269	0.086016
O6	O	1.655330	0.027750	0.066780
O7	O	2.119270	-0.053151	0.072545
Cu8	Cu	1.887297	-0.012702	0.082217
Cu9	Cu	1.887337	-0.012688	-0.080386
O10	O	1.878172	0.216868	0.053310
C11	C	1.595913	0.033886	-0.002404
C12	C	1.418819	0.052136	-0.003706
C13	C	1.894483	-0.300499	0.021415
C14	C	1.888618	-0.474020	0.033770
C15	C	2.178721	-0.059276	0.004234
C16	C	2.355815	-0.077525	0.005530
C17	C	1.880151	0.275109	-0.019586
C18	C	1.886016	0.448630	-0.031946
N19	N	1.887280	-0.012713	0.196583
N20	N	1.887366	-0.012690	-0.194751
C21	C	1.994072	-0.132238	0.248362
C22	C	1.994080	-0.132241	0.334909
C23	C	1.887303	-0.012711	0.369675
C24	C	1.780500	0.106820	0.317890
C25	C	1.780486	0.106815	0.231345
C26	C	1.780555	0.106843	0.666917
C27	C	1.780581	0.106842	0.753468
C28	C	1.994149	-0.132212	0.770481
C29	C	1.994135	-0.132218	0.683936
C30	C	1.887327	-0.012692	0.632158
C31	C	1.887317	-0.012693	0.538314
C32	C	1.887319	-0.012702	0.463517
H33	H	1.337267	0.177114	-0.012613
H34	H	1.886340	-0.540549	0.099495
N35	N	1.665398	0.235755	0.790972
H36	H	1.685469	0.344744	0.768139
H37	H	1.551981	0.231126	0.776239
N38	N	1.889034	-0.463265	-0.119002
H39	H	1.886465	-0.539531	-0.161101
H40	H	1.792719	-0.370999	-0.128797
N41	N	2.109249	-0.261153	0.210867
H42	H	2.176899	-0.336872	0.256805
H43	H	2.047112	-0.323088	0.179381
H44	H	2.081036	-0.229567	0.377068
H45	H	1.693592	0.204167	0.624766
H46	H	2.081087	-0.229546	0.655632
H47	H	1.693553	0.204140	0.346202
N48	N	2.109352	-0.261137	0.826327
H49	H	2.093162	-0.243007	0.886429
H50	H	2.089204	-0.370062	0.818965
H51	H	1.693523	0.204142	0.189186
H52	H	1.437359	-0.202495	0.014428
