data_functionalizedCrystal
_audit_creation_method	'MofGen! by Chris Wilmer'
_symmetry_space_group_name_H-M	'P1'
_symmetry_Int_Tables_number	1
_symmetry_cell_setting	triclinic
loop_
_symmetry_equiv_pos_as_xyz
  x,y,z
_cell_length_a	17.077404
_cell_length_b	12.827892
_cell_length_c	17.077396
_cell_angle_alpha	89.974288
_cell_angle_beta	89.982756
_cell_angle_gamma	90.015617
loop_
_atom_site_label
_atom_site_type_symbol
_atom_site_fract_x
_atom_site_fract_y
_atom_site_fract_z
Zn1	Zn	1.200078	-0.416018	-0.443862
Zn2	Zn	1.700078	0.083982	0.056138
Zn3	Zn	1.200007	-0.590783	-0.312605
Zn4	Zn	1.700007	-0.090783	0.187395
Zn5	Zn	1.068815	-0.416057	-0.312610
Zn6	Zn	1.568815	0.083943	0.187390
Zn7	Zn	1.068795	-0.590719	-0.443828
Zn8	Zn	1.568795	-0.090719	0.056172
O9	O	1.134424	-0.503394	-0.378226
O10	O	1.634424	-0.003394	0.121774
O11	O	1.309916	-0.439212	-0.426463
O12	O	1.809916	0.060788	0.073537
O13	O	1.182583	-0.567649	-0.202758
O14	O	1.682583	-0.067649	0.297242
O15	O	1.086265	-0.269816	-0.330038
O16	O	1.586265	0.230184	0.169962
O17	O	1.309864	-0.567611	-0.330028
O18	O	1.809864	-0.067611	0.169972
O19	O	1.182704	-0.269787	-0.426468
O20	O	1.682704	0.230213	0.073532
O21	O	1.086197	-0.439279	-0.202763
O22	O	1.586197	0.060721	0.297237
O23	O	0.958965	-0.439216	-0.330005
O24	O	1.458965	0.060784	0.169995
O25	O	1.086231	-0.567501	-0.553680
O26	O	1.586231	-0.067501	-0.053680
O27	O	0.958951	-0.567539	-0.426410
O28	O	1.458951	-0.067539	0.073590
O29	O	1.182684	-0.439149	-0.553705
O30	O	1.682684	0.060851	-0.053705
O31	O	1.182564	-0.737011	-0.329995
O32	O	1.682564	-0.237011	0.170005
O33	O	1.086163	-0.736963	-0.426404
O34	O	1.586163	-0.236963	0.073596
C35	C	0.930476	-0.503375	-0.378205
C36	C	1.430476	-0.003375	0.121795
C37	C	0.843226	-0.503392	-0.378214
C38	C	1.343226	-0.003392	0.121786
C39	C	0.802249	-0.570311	-0.428332
C40	C	1.302249	-0.070311	0.071668
C41	C	0.720269	-0.570313	-0.428344
C42	C	1.220269	-0.070313	0.071656
C43	C	0.679267	-0.503401	-0.378235
C44	C	1.179267	-0.003401	0.121765
C45	C	0.720250	-0.436476	-0.328115
C46	C	1.220250	0.063524	0.171885
C47	C	0.802229	-0.436469	-0.328107
C48	C	1.302229	0.063531	0.171893
C49	C	0.549380	-0.436496	-0.328134
C50	C	1.049380	0.063504	0.171866
C51	C	0.467395	-0.436504	-0.328140
C52	C	0.967395	0.063496	0.171860
C53	C	0.467420	-0.570341	-0.428371
C54	C	0.967420	-0.070341	0.071629
C55	C	0.549398	-0.570334	-0.428363
C56	C	1.049398	-0.070334	0.071637
C57	C	0.590376	-0.503409	-0.378242
C58	C	1.090376	-0.003409	0.121758
C59	C	1.134375	-0.774904	-0.378213
C60	C	1.634375	-0.274904	0.121787
C61	C	1.134426	-0.891057	-0.378233
C62	C	1.634426	-0.391057	0.121767
C63	C	1.182185	-0.942831	-0.330579
C64	C	1.682185	-0.442831	0.169421
C65	C	1.182238	-1.062881	-0.330599
C66	C	1.682238	-0.562881	0.169401
C67	C	1.339168	-0.503414	-0.378249
C68	C	1.839168	-0.003414	0.121751
C69	C	1.426418	-0.503422	-0.378258
C70	C	1.926418	-0.003422	0.121742
C71	C	1.134463	-0.503313	-0.582971
C72	C	1.634463	-0.003313	-0.082971
C73	C	1.134480	-0.503279	-0.670221
C74	C	1.634480	-0.003279	-0.170221
C75	C	1.134495	-0.230824	-0.378257
C76	C	1.634495	0.269176	0.121743
C77	C	1.134525	-0.114671	-0.378271
C78	C	1.634525	0.385329	0.121729
C79	C	1.084307	-0.436428	-0.711212
C80	C	1.584307	0.063572	-0.211212
C81	C	1.084320	-0.436405	-0.793193
C82	C	1.584320	0.063595	-0.293193
C83	C	1.134510	-0.503227	-0.834180
C84	C	1.634510	-0.003227	-0.334180
C85	C	1.184686	-0.570085	-0.793183
C86	C	1.684686	-0.070085	-0.293183
C87	C	1.184668	-0.570113	-0.711204
C88	C	1.684668	-0.070113	-0.211204
C89	C	1.184720	-0.570019	-0.964053
C90	C	1.684720	-0.070019	-0.464053
C91	C	1.184738	-0.569990	-1.046037
C92	C	1.684738	-0.069990	-0.546037
C93	C	1.084371	-0.436311	-1.046042
C94	C	1.584371	0.063689	-0.546042
C95	C	1.084354	-0.436339	-0.964063
C96	C	1.584354	0.063661	-0.464063
C97	C	1.134530	-0.503196	-0.923071
C98	C	1.634530	-0.003196	-0.423071
C99	C	1.134430	-0.503400	-0.174279
C100	C	1.634430	-0.003400	0.325721
C101	C	1.134565	-0.503140	-0.087029
C102	C	1.634565	-0.003140	0.412971
H103	H	0.434052	-0.624830	-0.469184
H104	H	0.934052	-0.124830	0.030816
H105	H	1.043488	-0.381922	-0.930693
H106	H	1.543488	0.118078	-0.430693
Cl107	Cl	0.853743	-0.352336	-0.265101
Cl108	Cl	1.353743	0.147664	0.234899
H109	H	1.225530	-0.624542	-0.677829
H110	H	1.725530	-0.124542	-0.177829
H111	H	1.043516	-0.381873	-1.079421
H112	H	1.543516	0.118127	-0.579421
Cl113	Cl	0.600893	-0.352361	-0.265123
Cl114	Cl	1.100893	0.147639	0.234877
Cl115	Cl	1.071386	-1.045942	-0.441261
Cl116	Cl	1.571386	-0.545942	0.058739
Cl117	Cl	1.245260	-0.874056	-0.267569
Cl118	Cl	1.745260	-0.374056	0.232431
Cl119	Cl	0.668705	-0.352350	-0.265124
Cl120	Cl	1.168705	0.147650	0.234876
H121	H	1.093580	-0.935609	-0.419049
H122	H	1.593580	-0.435609	0.080951
H123	H	1.043440	-0.382008	-0.677846
H124	H	1.543440	0.117992	-0.177846
H125	H	1.043461	-0.381972	-0.826565
H126	H	1.543461	0.118028	-0.326565
H127	H	1.225586	-0.624452	-0.930680
H128	H	1.725586	-0.124452	-0.430680
Cl129	Cl	0.853786	-0.654439	-0.491327
Cl130	Cl	1.353786	-0.154439	0.008673
H131	H	0.686908	-0.624806	-0.469154
H132	H	1.186908	-0.124806	0.030846
Cl133	Cl	1.247778	-0.654097	-0.844710
Cl134	Cl	1.747778	-0.154097	-0.344710
Cl135	Cl	1.247841	-0.653990	-1.097563
Cl136	Cl	1.747841	-0.153990	-0.597563
Cl137	Cl	1.245366	-1.131617	-0.267603
Cl138	Cl	1.745366	-0.631617	0.232397
Cl139	Cl	0.600943	-0.654460	-0.491354
Cl140	Cl	1.100943	-0.154460	0.008646
H141	H	0.434014	-0.382006	-0.287346
H142	H	0.934014	0.117994	0.212654
