data_functionalizedCrystal
_audit_creation_method	'MofGen! by Chris Wilmer'
_symmetry_space_group_name_H-M	'P1'
_symmetry_Int_Tables_number	1
_symmetry_cell_setting	triclinic
loop_
_symmetry_equiv_pos_as_xyz
  x,y,z
_cell_length_a	16.109301
_cell_length_b	23.532407
_cell_length_c	14.586319
_cell_angle_alpha	89.991566
_cell_angle_beta	89.999213
_cell_angle_gamma	83.155079
loop_
_atom_site_label
_atom_site_type_symbol
_atom_site_fract_x
_atom_site_fract_y
_atom_site_fract_z
O1	O	1.102555	0.073202	-0.076192
O2	O	1.602555	0.573202	0.423808
O3	O	0.860422	0.082312	-0.076208
O4	O	1.360422	0.582312	0.423792
O5	O	0.988790	-0.005148	-0.076183
O6	O	1.488790	0.494852	0.423817
O7	O	0.974187	0.160662	-0.076217
O8	O	1.474187	0.660662	0.423783
O9	O	0.988781	-0.005149	0.076298
O10	O	1.488781	0.494851	0.576298
O11	O	0.860413	0.082311	0.076273
O12	O	1.360413	0.582311	0.576273
O13	O	1.102546	0.073201	0.076289
O14	O	1.602546	0.573201	0.576289
Cu15	Cu	0.981479	0.077756	0.090204
Cu16	Cu	1.481479	0.577756	0.590204
Cu17	Cu	0.981489	0.077757	-0.090123
Cu18	Cu	1.481489	0.577757	0.409877
O19	O	0.974178	0.160660	0.076264
O20	O	1.474178	0.660660	0.576264
C21	C	0.829445	0.081942	0.000031
C22	C	1.329445	0.581942	0.500031
C23	C	0.737159	0.080836	0.000026
C24	C	1.237159	0.580836	0.500026
C25	C	0.514498	0.130160	0.000026
C26	C	1.014498	0.630160	0.500026
C27	C	0.427786	0.129116	0.000032
C28	C	0.927786	0.629116	0.500032
C29	C	0.448476	0.025348	0.000050
C30	C	0.948476	0.525348	0.500050
C31	C	0.535187	0.026393	0.000050
C32	C	1.035187	0.526393	0.500050
C33	C	0.568195	0.078801	0.000034
C34	C	1.068195	0.578801	0.500034
C35	C	0.394773	0.076712	0.000039
C36	C	0.894773	0.576712	0.500039
C37	C	0.300755	0.075580	0.000046
C38	C	0.800755	0.575580	0.500046
C39	C	0.662218	0.079933	0.000029
C40	C	1.162218	0.579933	0.500029
C41	C	0.988414	-0.026366	0.000060
C42	C	1.488414	0.473634	0.500060
C43	C	0.987296	-0.089587	0.000067
C44	C	1.487296	0.410413	0.500067
C45	C	1.056249	-0.488436	0.000021
C46	C	1.556249	0.011564	0.500021
C47	C	1.055210	-0.547840	0.000014
C48	C	1.555210	-0.047840	0.500014
O49	O	1.119130	-0.584349	-0.000015
O50	O	1.619130	-0.084349	0.499985
N51	N	0.978895	-0.570748	0.000010
N52	N	1.478895	-0.070748	0.500010
C53	C	0.903614	-0.534248	0.000003
C54	C	1.403614	-0.034248	0.500003
O55	O	0.838607	-0.559187	-0.000002
O56	O	1.338607	-0.059187	0.499998
C57	C	0.904654	-0.474845	0.000004
C58	C	1.404654	0.025155	0.500004
C59	C	0.980973	-0.451941	0.000018
C60	C	1.480973	0.048059	0.500018
C61	C	1.132562	-0.465531	0.000034
C62	C	1.632562	0.034469	0.500034
C63	C	1.133601	-0.406131	0.000043
C64	C	1.633601	0.093869	0.500043
C65	C	1.058325	-0.369636	0.000039
C66	C	1.558325	0.130364	0.500039
C67	C	0.982012	-0.392541	0.000026
C68	C	1.482012	0.107459	0.500026
C69	C	0.829373	-0.438346	-0.000009
C70	C	1.329373	0.061654	0.499991
C71	C	0.830419	-0.378940	-0.000009
C72	C	1.330419	0.121060	0.499991
C73	C	0.906739	-0.356036	0.000004
C74	C	1.406739	0.143964	0.500004
C75	C	0.907774	-0.296645	0.000031
C76	C	1.407774	0.203355	0.500031
N77	N	0.984089	-0.273738	0.000035
N78	N	1.484089	0.226262	0.500035
C79	C	1.059365	-0.310233	0.000039
C80	C	1.559365	0.189767	0.500039
C81	C	0.901437	-0.658998	0.000001
C82	C	1.401437	-0.158998	0.500001
C83	C	0.900396	-0.718400	0.000007
C84	C	1.400396	-0.218400	0.500007
C85	C	1.051993	-0.731988	0.000016
C86	C	1.551993	-0.231988	0.500016
C87	C	1.053032	-0.672585	0.000017
C88	C	1.553032	-0.172585	0.500017
C89	C	0.977752	-0.636091	0.000005
C90	C	1.477752	-0.136091	0.500005
C91	C	1.061539	-0.185488	0.000058
C92	C	1.561539	0.314512	0.500058
C93	C	1.062571	-0.126082	0.000071
C94	C	1.562571	0.373918	0.500071
C95	C	0.910975	-0.112499	0.000057
C96	C	1.410975	0.387501	0.500057
C97	C	0.909943	-0.171900	0.000049
C98	C	1.409943	0.328100	0.500049
C99	C	0.985232	-0.208394	0.000047
C100	C	1.485232	0.291606	0.500047
O101	O	0.843888	-0.260102	0.000057
O102	O	1.343888	0.239898	0.500057
O103	O	1.124361	-0.285285	0.000032
O104	O	1.624361	0.214715	0.500032
C105	C	1.133523	0.073570	0.000048
C106	C	1.633523	0.573570	0.500048
C107	C	1.225809	0.074677	0.000047
C108	C	1.725809	0.574677	0.500047
C109	C	0.974554	0.181878	0.000019
C110	C	1.474554	0.681878	0.500019
C111	C	0.975672	0.245100	0.000006
C112	C	1.475672	0.745100	0.500006
N113	N	0.981477	0.077754	0.217035
N114	N	1.481477	0.577754	0.717035
N115	N	0.981497	0.077754	-0.216954
N116	N	1.481497	0.577754	0.283046
C117	C	1.038338	0.039040	0.452053
C118	C	1.538338	0.539040	0.952053
C119	C	1.038340	0.039039	0.548034
C120	C	1.538340	0.539039	1.048034
C121	C	0.924631	0.116470	0.548021
C122	C	1.424631	0.616470	1.048021
C123	C	0.924625	0.116468	0.452042
C124	C	1.424625	0.616468	0.952042
C125	C	0.981483	0.077754	0.404060
C126	C	1.481483	0.577754	0.904060
C127	C	0.981491	0.077754	0.596021
C128	C	1.481491	0.577754	1.096021
C129	C	0.981494	0.077753	0.700088
C130	C	1.481494	0.577753	1.200088
C131	C	0.981480	0.077754	0.299986
C132	C	1.481480	0.577754	0.799986
H133	H	0.384069	0.170939	0.000028
H134	H	0.884069	0.670939	0.500028
Br135	Br	1.115498	-0.013506	0.613166
Br136	Br	1.615498	0.486494	1.113166
H137	H	0.578910	-0.015433	0.000059
H138	H	1.078910	0.484567	0.500059
H139	H	1.124722	-0.107437	0.000084
H140	H	1.624722	0.392563	0.500084
Br141	Br	0.847471	0.169010	0.613143
Br142	Br	1.347471	0.669010	1.113143
H143	H	0.878324	0.147994	0.412964
H144	H	1.378324	0.647994	0.912964
Br145	Br	1.154154	-0.781529	0.000018
Br146	Br	1.654154	-0.281529	0.500018
Br147	Br	0.403674	-0.045773	0.000069
Br148	Br	0.903674	0.454227	0.500069
H149	H	0.541371	0.172834	0.000019
H150	H	1.041371	0.672834	0.500019
H151	H	1.122847	-0.215195	0.000053
H152	H	1.622847	0.284805	0.500053
H153	H	1.195748	-0.387488	0.000050
H154	H	1.695748	0.112512	0.500050
H155	H	1.193864	-0.495240	0.000034
H156	H	1.693864	0.004760	0.500034
Br157	Br	1.156613	-0.641507	0.000037
Br158	Br	1.656613	-0.141507	0.500037
H159	H	0.838249	-0.737043	0.000012
H160	H	1.338249	-0.237043	0.500012
H161	H	0.840130	-0.629287	-0.000001
H162	H	1.340130	-0.129287	0.499999
H163	H	0.767225	-0.456984	-0.000026
H164	H	1.267225	0.043016	0.499974
Br165	Br	0.728246	-0.329414	-0.000029
Br166	Br	1.228246	0.170586	0.499971
Br167	Br	0.806366	-0.202986	0.000052
Br168	Br	1.306366	0.297014	0.500052
Br169	Br	0.808821	-0.062959	0.000052
Br170	Br	1.308821	0.437041	0.500052
H171	H	1.084634	0.007516	0.412989
H172	H	1.584634	0.507516	0.912989
