data_functionalizedCrystal
_audit_creation_method	'MofGen! by Chris Wilmer'
_symmetry_space_group_name_H-M	'P1'
_symmetry_Int_Tables_number	1
_symmetry_cell_setting	triclinic
loop_
_symmetry_equiv_pos_as_xyz
  x,y,z
_cell_length_a	13.897449
_cell_length_b	18.050589
_cell_length_c	13.897441
_cell_angle_alpha	89.973098
_cell_angle_beta	89.978743
_cell_angle_gamma	90.029048
loop_
_atom_site_label
_atom_site_type_symbol
_atom_site_fract_x
_atom_site_fract_y
_atom_site_fract_z
Zn1	Zn	1.474612	-0.295626	-0.545468
Zn2	Zn	1.474482	-0.419829	-0.384177
Zn3	Zn	1.313307	-0.295659	-0.384179
Zn4	Zn	1.313253	-0.419781	-0.545422
O5	O	1.393913	-0.357724	-0.464811
O6	O	1.609576	-0.312109	-0.524091
O7	O	1.453070	-0.403391	-0.249195
O8	O	1.334781	-0.191730	-0.405594
O9	O	1.609481	-0.403359	-0.405591
O10	O	1.453291	-0.191706	-0.524093
O11	O	1.334655	-0.312164	-0.249197
O12	O	1.178318	-0.312117	-0.405550
O13	O	1.334689	-0.403278	-0.680410
O14	O	1.178279	-0.403309	-0.524014
O15	O	1.453239	-0.312062	-0.680444
O16	O	1.453018	-0.523747	-0.405546
O17	O	1.334564	-0.523712	-0.524013
C18	C	1.143299	-0.357712	-0.464778
C19	C	1.036085	-0.357725	-0.464786
C20	C	0.949015	-0.357728	-0.464802
C21	C	0.839783	-0.357733	-0.464832
C22	C	1.393797	-0.550676	-0.464795
C23	C	1.393835	-0.633222	-0.464821
C24	C	1.329483	-0.832680	-0.529220
C25	C	1.305970	-0.882125	-0.441200
C26	C	1.393930	-0.784352	-0.464833
C27	C	1.417491	-0.881989	-0.552863
C28	C	1.394020	-0.930337	-0.464853
C29	C	1.370370	-0.832709	-0.376767
C30	C	1.481933	-0.832569	-0.488489
C31	C	1.458453	-0.881992	-0.400409
C32	C	1.393876	-0.700254	-0.464823
C33	C	1.394074	-1.014434	-0.464854
C34	C	1.645506	-0.357736	-0.464846
C35	C	1.752720	-0.357741	-0.464860
C36	C	1.393972	-0.357661	-0.716405
C37	C	1.393998	-0.357635	-0.823619
C38	C	1.394057	-0.164018	-0.464849
C39	C	1.394118	-0.081472	-0.464864
C40	C	1.394017	-0.357614	-0.910688
C41	C	1.394045	-0.357580	-1.019921
C42	C	1.393910	-0.357732	-0.214197
C43	C	1.394072	-0.357550	-0.106984
H44	H	1.274902	-0.811028	-0.583593
H45	H	1.512992	-0.903507	-0.345905
O46	O	1.443850	-0.910661	-0.651462
H47	H	1.390200	-0.890911	-0.704754
O48	O	1.207446	-0.910959	-0.414690
H49	H	1.154037	-0.891215	-0.468229
O50	O	1.343899	-0.804165	-0.278136
H51	H	1.344031	-0.742677	-0.278913
H52	H	1.556295	-0.810788	-0.508521
