data_functionalizedCrystal
_audit_creation_method	'MofGen! by Chris Wilmer'
_symmetry_space_group_name_H-M	'P1'
_symmetry_Int_Tables_number	1
_symmetry_cell_setting	triclinic
loop_
_symmetry_equiv_pos_as_xyz
  x,y,z
_cell_length_a	10.654541
_cell_length_b	15.944551
_cell_length_c	9.130307
_cell_angle_alpha	89.995755
_cell_angle_beta	89.999822
_cell_angle_gamma	83.991333
loop_
_atom_site_label
_atom_site_type_symbol
_atom_site_fract_x
_atom_site_fract_y
_atom_site_fract_z
O1	O	1.666312	0.117965	-0.121758
O2	O	1.300688	0.129208	-0.121771
O3	O	1.493485	0.001369	-0.121751
O4	O	1.473516	0.245804	-0.121778
O5	O	1.493478	0.001368	0.121848
O6	O	1.300682	0.129206	0.121828
O7	O	1.666306	0.117964	0.121841
Cu8	Cu	1.483493	0.123585	0.144077
Cu9	Cu	1.483501	0.123587	-0.144007
O10	O	1.473509	0.245802	0.121821
C11	C	1.253897	0.128382	0.000027
C12	C	1.114486	0.125914	0.000022
C13	C	1.084537	0.278779	-0.000013
C14	C	1.004069	0.354048	-0.000036
C15	C	0.873081	0.351724	-0.000038
C16	C	0.822560	0.274122	-0.000011
C17	C	0.903028	0.198852	0.000012
C18	C	1.034017	0.201185	0.000009
C19	C	0.932976	0.045989	0.000058
C20	C	1.063965	0.048311	0.000049
C21	C	0.882455	-0.031613	0.000085
C22	C	0.962924	-0.106885	0.000098
C23	C	1.093919	-0.104557	0.000097
C24	C	1.144433	-0.026958	0.000072
C25	C	1.492652	-0.029930	0.000049
C26	C	1.490167	-0.123190	0.000049
C27	C	1.364722	-0.338772	0.000025
C28	C	1.422972	-0.399453	0.120136
C29	C	1.485671	-0.293942	0.000038
C30	C	1.423006	-0.399435	-0.120034
C31	C	1.481319	-0.458880	0.000021
C32	C	1.543954	-0.353395	0.120248
C33	C	1.543971	-0.353371	-0.120029
C34	C	1.602309	-0.414034	0.000111
C35	C	1.488175	-0.198925	0.000049
C36	C	1.478825	-0.553896	0.000020
C37	C	1.713097	0.118790	0.000040
C38	C	1.852508	0.121258	0.000035
C39	C	1.474342	0.277102	0.000018
C40	C	1.476827	0.370362	0.000008
N41	N	1.483497	0.123584	0.346700
N42	N	1.483507	0.123582	-0.346630
C43	C	1.654288	0.010416	0.346708
C44	C	1.739692	-0.046165	0.423378
C45	C	1.739704	-0.046166	0.576712
C46	C	1.654301	0.010420	0.653378
C47	C	1.568898	0.067001	0.576707
C48	C	1.568897	0.066997	0.423370
C49	C	1.398103	0.180163	0.576699
C50	C	1.398094	0.180169	0.423366
C51	C	1.312700	0.236748	0.653366
C52	C	1.227301	0.293335	0.576695
C53	C	1.227292	0.293334	0.423352
C54	C	1.312691	0.236750	0.346695
H55	H	0.807563	0.413015	-0.000046
C56	C	1.058467	0.405194	0.438761
C57	C	1.133415	0.355533	0.339081
H58	H	1.000517	0.443597	0.386736
H59	H	1.013308	0.369943	0.498567
H60	H	1.110750	0.435734	0.498565
H61	H	1.081132	0.324989	0.279284
H62	H	1.178577	0.390789	0.279250
C63	C	1.159771	-0.234144	-0.125094
C64	C	1.182370	-0.187296	0.000117
H65	H	1.214381	-0.285222	-0.125084
H66	H	1.074539	-0.246632	-0.125074
H67	H	1.175090	-0.202354	-0.210043
H68	H	1.167042	-0.219084	0.085066
H69	H	1.267622	-0.174811	0.000110
C70	C	1.191569	0.425498	-0.000066
C71	C	1.059604	0.439346	-0.000066
H72	H	1.225847	0.478158	-0.000089
H73	H	1.219178	0.394484	0.084886
H74	H	1.219177	0.394469	-0.085011
H75	H	1.031995	0.470370	0.084886
H76	H	1.031984	0.470373	-0.085027
C77	C	1.194405	0.219053	0.873030
C78	C	1.312710	0.236746	0.821912
H79	H	1.194417	0.219049	0.977084
H80	H	1.131333	0.260847	0.838346
H81	H	1.177243	0.165255	0.838344
H82	H	1.329869	0.290547	0.856590
H83	H	1.375801	0.194949	0.856611
H84	H	1.809224	-0.092238	0.360943
C85	C	1.229525	-0.388659	0.256990
C86	C	1.353914	-0.427007	0.257209
H87	H	1.186887	-0.405673	0.341606
H88	H	1.229937	-0.329120	0.257529
H89	H	1.187385	-0.405192	0.171692
H90	H	1.396057	-0.410470	0.342502
H91	H	1.353508	-0.486560	0.256683
C92	C	1.772595	0.028112	0.127056
C93	C	1.654285	0.010420	0.178161
H94	H	1.772594	0.028108	0.023002
H95	H	1.789755	0.081903	0.161736
H96	H	1.835670	-0.013688	0.161755
H97	H	1.591211	0.052224	0.143471
H98	H	1.637111	-0.043378	0.143466
C99	C	1.628990	-0.068891	0.873031
C100	C	1.654310	0.010412	0.821924
H101	H	1.629002	-0.068894	0.977085
H102	H	1.548736	-0.080878	0.838352
H103	H	1.692075	-0.110680	0.838332
H104	H	1.591219	0.052201	0.856614
H105	H	1.734575	0.022409	0.856618
C106	C	1.908527	-0.158033	0.561334
C107	C	1.833573	-0.108364	0.660997
H108	H	1.966479	-0.196429	0.613372
H109	H	1.856257	-0.188574	0.501539
H110	H	1.953696	-0.122781	0.501518
H111	H	1.788398	-0.143616	0.720807
H112	H	1.885850	-0.077821	0.720818
H113	H	1.702790	-0.446611	0.000183
C114	C	0.775425	-0.178322	0.000129
C115	C	0.907389	-0.192177	0.000124
H116	H	0.741140	-0.230980	0.000134
H117	H	0.747823	-0.147301	0.085068
H118	H	0.747816	-0.147299	-0.084830
H119	H	0.934998	-0.223195	0.085089
H120	H	0.935003	-0.223211	-0.084824
H121	H	1.191193	0.280679	-0.000044
C122	C	1.340231	-0.065240	-0.125142
C123	C	1.288416	-0.024397	0.000069
H124	H	1.429119	-0.063651	-0.125143
H125	H	1.321668	-0.122221	-0.125110
H126	H	1.305059	-0.037538	-0.210091
H127	H	1.323581	-0.052103	0.085018
H128	H	1.306989	0.032594	0.000051
C129	C	1.614591	-0.238323	0.256286
C130	C	1.612945	-0.326018	0.257489
H131	H	1.657173	-0.221422	0.341017
H132	H	1.657269	-0.222187	0.171113
H133	H	1.530441	-0.211888	0.255935
H134	H	1.697095	-0.352453	0.257828
H135	H	1.570270	-0.342162	0.342683
H136	H	1.157766	0.339399	0.639126
H137	H	0.715901	0.272236	0.000006
C138	C	1.416082	-0.402564	-0.382816
C139	C	1.353936	-0.426954	-0.257116
H140	H	1.373437	-0.419556	-0.467438
H141	H	1.416484	-0.343023	-0.383320
H142	H	1.500467	-0.428585	-0.382948
H143	H	1.269553	-0.400928	-0.256979
H144	H	1.353520	-0.486506	-0.256613
H145	H	1.264329	-0.306045	0.000141
H146	H	0.775797	-0.033501	0.000092
C147	C	1.615542	-0.238170	-0.254900
C148	C	1.612977	-0.325785	-0.257106
H149	H	1.658143	-0.221140	-0.339531
H150	H	1.531622	-0.211368	-0.254050
H151	H	1.658621	-0.222588	-0.169633
H152	H	1.569890	-0.341367	-0.342368
H153	H	1.696912	-0.352597	-0.257971
H154	H	1.312696	0.236747	0.221843
