data_functionalizedCrystal
_audit_creation_method	'MofGen! by Chris Wilmer'
_symmetry_space_group_name_H-M	'P1'
_symmetry_Int_Tables_number	1
_symmetry_cell_setting	triclinic
loop_
_symmetry_equiv_pos_as_xyz
  x,y,z
_cell_length_a	19.077236
_cell_length_b	19.077432
_cell_length_c	12.759393
_cell_angle_alpha	87.666736
_cell_angle_beta	87.676977
_cell_angle_gamma	89.927472
loop_
_atom_site_label
_atom_site_type_symbol
_atom_site_fract_x
_atom_site_fract_y
_atom_site_fract_z
Zn1	Zn	1.085526	-0.236633	-0.645076
Zn2	Zn	1.585526	0.263367	-0.145076
Zn3	Zn	1.090152	-0.354162	-0.462619
Zn4	Zn	1.590152	0.145838	0.037381
Zn5	Zn	0.968011	-0.241381	-0.462061
Zn6	Zn	1.468011	0.258619	0.037939
Zn7	Zn	0.972697	-0.358817	-0.630916
Zn8	Zn	1.472697	0.141183	-0.130916
O9	O	1.029097	-0.297748	-0.550168
O10	O	1.529097	0.202252	-0.050168
O11	O	1.184475	-0.248288	-0.627032
O12	O	1.684475	0.251712	-0.127032
O13	O	1.073925	-0.339240	-0.315520
O14	O	1.573925	0.160760	0.184480
O15	O	0.979703	-0.142417	-0.492031
O16	O	1.479703	0.357583	0.007969
O17	O	1.187874	-0.334636	-0.492982
O18	O	1.687874	0.165364	0.007018
O19	O	1.066040	-0.138929	-0.626491
O20	O	1.566040	0.361071	-0.126491
O21	O	0.984189	-0.256381	-0.315110
O22	O	1.484189	0.243619	0.184890
O23	O	0.870297	-0.260894	-0.478300
O24	O	1.370297	0.239106	0.021700
O25	O	0.987689	-0.342570	-0.779819
O26	O	1.487689	0.157430	-0.279819
O27	O	0.873740	-0.347174	-0.602357
O28	O	1.373740	0.152826	-0.102357
O29	O	1.070584	-0.252802	-0.790222
O30	O	1.570584	0.247198	-0.290222
O31	O	1.078469	-0.453113	-0.479251
O32	O	1.578469	0.046887	0.020749
O33	O	0.992175	-0.456533	-0.602898
O34	O	1.492175	0.043467	-0.102898
C35	C	1.036352	-0.480319	-0.539623
C36	C	1.536352	0.019681	-0.039623
C37	C	1.039520	-0.558421	-0.535151
C38	C	1.539520	-0.058421	-0.035151
C39	C	0.846522	-0.305055	-0.538732
C40	C	1.346522	0.194945	-0.038732
C41	C	0.768416	-0.308198	-0.533864
C42	C	1.268416	0.191802	-0.033864
C43	C	0.996049	-0.596921	-0.597368
C44	C	1.496049	-0.096921	-0.097368
C45	C	0.999029	-0.670306	-0.593162
C46	C	1.499029	-0.170306	-0.093162
C47	C	1.045484	-0.705190	-0.526743
C48	C	1.545484	-0.205190	-0.026743
C49	C	1.088956	-0.666685	-0.464518
C50	C	1.588956	-0.166685	0.035482
C51	C	1.085972	-0.593301	-0.468720
C52	C	1.585972	-0.093301	0.031280
C53	C	1.059226	-0.924470	-0.507276
C54	C	1.559226	-0.424470	-0.007276
C55	C	1.062208	-0.997858	-0.503082
C56	C	1.562208	-0.497858	-0.003082
C57	C	0.972279	-1.001475	-0.631725
C58	C	1.472279	-0.501475	-0.131725
C59	C	0.969302	-0.928090	-0.635925
C60	C	1.469302	-0.428090	-0.135925
C61	C	1.012772	-0.889591	-0.573696
C62	C	1.512772	-0.389591	-0.073696
N63	N	1.048532	-0.780201	-0.522445
N64	N	1.548532	-0.280201	-0.022445
N65	N	1.009720	-0.814581	-0.577990
N66	N	1.509720	-0.314581	-0.077990
C67	C	0.729955	-0.264789	-0.601468
C68	C	1.229955	0.235211	-0.101468
C69	C	0.656566	-0.267738	-0.596885
C70	C	1.156566	0.232262	-0.096885
C71	C	0.621640	-0.314101	-0.524702
C72	C	1.121640	0.185899	-0.024702
C73	C	0.660105	-0.357512	-0.457091
C74	C	1.160105	0.142488	0.042909
C75	C	0.733493	-0.354558	-0.461669
C76	C	1.233493	0.145442	0.038331
C77	C	0.402344	-0.327745	-0.503509
C78	C	0.902344	0.172255	-0.003509
C79	C	0.328952	-0.330697	-0.498937
C80	C	0.828952	0.169303	0.001063
C81	C	0.325418	-0.240922	-0.638730
C82	C	0.825418	0.259078	-0.138730
C83	C	0.398807	-0.237975	-0.643307
C84	C	0.898807	0.262025	-0.143307
C85	C	0.437266	-0.281383	-0.575692
C86	C	0.937266	0.218617	-0.075692
N87	N	0.546625	-0.317119	-0.520018
N88	N	1.046625	0.182881	-0.020018
N89	N	0.512280	-0.278362	-0.580372
N90	N	1.012280	0.221638	-0.080372
C91	C	1.212385	-0.290413	-0.561649
C92	C	1.712385	0.209587	-0.061649
C93	C	1.290491	-0.287288	-0.566541
C94	C	1.790491	0.212712	-0.066541
C95	C	1.029143	-0.297675	-0.824208
C96	C	1.529143	0.202325	-0.324208
C97	C	1.029163	-0.297644	-0.940988
C98	C	1.529163	0.202356	-0.440988
C99	C	1.021832	-0.114463	-0.560778
C100	C	1.521832	0.385537	-0.060778
C101	C	1.018737	-0.036358	-0.565300
C102	C	1.518737	0.463642	-0.065300
C103	C	1.072332	-0.250897	-1.001270
C104	C	1.572332	0.249103	-0.501270
C105	C	1.072348	-0.250871	-1.110996
C106	C	1.572348	0.249129	-0.610996
C107	C	0.986023	-0.344345	-1.100150
C108	C	1.486023	0.155655	-0.600150
C109	C	0.986004	-0.344367	-0.990425
C110	C	1.486004	0.155633	-0.490425
C111	C	1.122173	-0.196933	-1.007533
C112	C	1.622173	0.303067	-0.507533
C113	C	1.122189	-0.196907	-1.117259
C114	C	1.622189	0.303093	-0.617259
C115	C	1.029089	-0.297768	-0.277199
C116	C	1.529089	0.202232	0.222801
C117	C	1.029197	-0.297596	-0.160439
C118	C	1.529197	0.202404	0.339561
H119	H	0.958224	-0.568524	-0.651459
H120	H	1.458224	-0.068524	-0.151459
H121	H	0.950884	-0.382384	-1.140415
H122	H	1.450884	0.117616	-0.640415
Cl123	Cl	0.608219	-0.213166	-0.681880
Cl124	Cl	1.108219	0.286834	-0.181880
Cl125	Cl	1.203171	-0.223850	-0.958232
Cl126	Cl	1.703171	0.276150	-0.458232
Cl127	Cl	1.088835	-0.118327	-1.172547
Cl128	Cl	1.588835	0.381673	-0.672547
H129	H	0.631662	-0.395258	-0.398313
H130	H	1.131662	0.104742	0.101687
H131	H	0.950849	-0.382430	-0.941348
H132	H	1.450849	0.117570	-0.441348
H133	H	1.177196	-0.209301	-1.149603
H134	H	1.677196	0.290699	-0.649603
H135	H	0.433649	-0.363092	-0.448453
H136	H	0.933649	0.136908	0.051547
Cl137	Cl	1.096335	-0.113819	-0.965018
Cl138	Cl	1.596335	0.386181	-0.465018
H139	H	0.963624	-0.701650	-0.643817
H140	H	1.463624	-0.201650	-0.143817
Cl141	Cl	0.910902	-0.884241	-0.719431
Cl142	Cl	1.410902	-0.384241	-0.219431
H143	H	0.936887	-1.032828	-0.682387
H144	H	1.436887	-0.532828	-0.182387
H145	H	1.100041	-1.026258	-0.448996
H146	H	1.600041	-0.526258	0.051004
H147	H	1.094622	-0.893130	-0.456609
H148	H	1.594622	-0.393130	0.043391
Cl149	Cl	0.781843	-0.409133	-0.376679
Cl150	Cl	1.281843	0.090867	0.123321
Cl151	Cl	0.277065	-0.186353	-0.723724
Cl152	Cl	0.777065	0.313647	-0.223724
H153	H	1.121370	-0.561955	-0.418054
H154	H	1.621370	-0.061955	0.081946
Cl155	Cl	1.147357	-0.710539	-0.381020
Cl156	Cl	1.647357	-0.210539	0.118980
Cl157	Cl	0.773856	-0.206504	-0.692222
Cl158	Cl	1.273856	0.293496	-0.192222
H159	H	0.427239	-0.200224	-0.702090
H160	H	0.927239	0.299776	-0.202090
Cl161	Cl	0.285045	-0.389002	-0.408209
Cl162	Cl	0.785045	0.110998	0.091791
