data_functionalizedCrystal
_audit_creation_method	'MofGen! by Chris Wilmer'
_symmetry_space_group_name_H-M	'P1'
_symmetry_Int_Tables_number	1
_symmetry_cell_setting	triclinic
loop_
_symmetry_equiv_pos_as_xyz
  x,y,z
_cell_length_a	26.809956
_cell_length_b	14.971486
_cell_length_c	14.971486
_cell_angle_alpha	83.614129
_cell_angle_beta	90.004140
_cell_angle_gamma	89.996118
loop_
_atom_site_label
_atom_site_type_symbol
_atom_site_fract_x
_atom_site_fract_y
_atom_site_fract_z
O1	O	0.041422	-1.186952	-0.116550
O2	O	0.041436	-0.926552	-0.130509
O3	O	0.041425	-1.063731	0.006671
O4	O	0.041433	-1.049772	-0.253730
O5	O	-0.041534	-1.063705	0.006650
O6	O	-0.041523	-0.926526	-0.130530
O7	O	-0.041537	-1.186926	-0.116571
Zn8	Zn	-0.054702	-1.056722	-0.123554
Zn9	Zn	0.054601	-1.056756	-0.123526
O10	O	-0.041526	-1.049746	-0.253750
C11	C	-0.000042	-0.893214	-0.129895
C12	C	-0.000037	-0.793917	-0.128024
C13	C	-0.000054	-1.063094	0.039985
C14	C	-0.000054	-1.061223	0.139282
N15	N	-0.129298	-1.056705	-0.123572
C16	C	-0.473928	-1.117491	-0.062798
C17	C	-0.682806	-1.117512	-0.062785
O18	O	-0.709814	-1.169158	-0.011118
N19	N	-0.708925	-1.056761	-0.123506
C20	C	-0.682821	-0.995995	-0.184232
O21	O	-0.709829	-0.944317	-0.235873
C22	C	-0.473944	-0.995971	-0.184241
C23	C	-0.447828	-1.056732	-0.123521
C24	C	-0.447812	-1.178247	-0.002083
C25	C	-0.395596	-1.178244	-0.002090
C26	C	-0.369496	-1.117486	-0.062813
C27	C	-0.395612	-1.056730	-0.123528
C28	C	-0.447841	-0.935202	-0.244962
C29	C	-0.395618	-0.935200	-0.244957
C30	C	-0.369502	-0.995961	-0.184237
C31	C	-0.317295	-0.995968	-0.184258
N32	N	-0.291176	-1.056720	-0.123536
C33	C	-0.317277	-1.117479	-0.062814
C34	C	-0.792484	-0.996014	-0.184225
C35	C	-0.844703	-0.996021	-0.184224
C36	C	-0.844685	-1.117537	-0.062775
C37	C	-0.792465	-1.117533	-0.062781
C38	C	-0.766365	-1.056765	-0.123503
C39	C	-0.207619	-1.117469	-0.062834
C40	C	-0.155398	-1.117464	-0.062849
C41	C	-0.155421	-0.995945	-0.184295
C42	C	-0.207637	-0.995953	-0.184283
C43	C	-0.233735	-1.056719	-0.123545
O44	O	-0.290255	-0.944342	-0.235891
O45	O	-0.290259	-1.169136	-0.011167
C46	C	-0.526145	-1.117494	-0.062791
C47	C	-0.552261	-1.056738	-0.123506
C48	C	-0.526160	-0.995979	-0.184229
C49	C	-0.604479	-1.056745	-0.123506
C50	C	-0.630580	-1.117503	-0.062783
C51	C	-0.604461	-1.178255	-0.002061
C52	C	-0.552245	-1.178252	-0.002068
C53	C	-0.552279	-0.935227	-0.244951
C54	C	-0.604495	-0.935236	-0.244940
C55	C	-0.630595	-0.995994	-0.184217
N56	N	0.129197	-1.056780	-0.123501
C57	C	-0.000058	-1.220263	-0.117185
C58	C	-0.000060	-1.319561	-0.119056
C59	C	-0.000035	-0.736691	-0.208614
C60	C	-0.000042	-0.643392	-0.206850
C61	C	-0.000048	-0.607320	-0.124497
C62	C	-0.000051	-0.664552	-0.043902
C63	C	-0.000047	-0.757850	-0.045666
C64	C	-0.000058	-0.470090	-0.040231
C65	C	-0.000061	-0.376786	-0.038466
C66	C	-0.000053	-0.355632	-0.201415
C67	C	-0.000049	-0.448930	-0.203179
C68	C	-0.000052	-0.506156	-0.122584
C69	C	-0.000046	-1.050383	-0.287065
C70	C	-0.000043	-1.052254	-0.386362
C71	C	-0.000058	-1.141812	0.196507
C72	C	-0.000053	-1.140049	0.289807
C73	C	-0.000047	-1.057696	0.325879
C74	C	-0.000041	-0.977101	0.268646
C75	C	-0.000042	-0.978865	0.175349
C76	C	-0.000039	-0.973430	0.463109
C77	C	-0.000038	-0.971665	0.556413
C78	C	-0.000049	-1.134614	0.577567
C79	C	-0.000051	-1.136378	0.484269
C80	C	-0.000046	-1.055782	0.427043
H81	H	-0.134136	-1.166946	-0.013404
H82	H	-0.000054	-0.309033	-0.267039
H83	H	-0.000067	-0.347419	0.028593
F84	F	-0.000029	-0.889454	0.307040
H85	H	-0.228901	-0.946484	-0.233735
F86	F	-0.475626	-0.870530	-0.309587
H87	H	-0.000040	-0.478296	-0.270239
H88	H	-0.374371	-0.885712	-0.294403
H89	H	-0.469059	-1.227724	0.047369
H90	H	-0.000063	-0.635175	0.023152
F91	F	-0.235386	-1.182143	0.001810
H92	H	-0.000033	-0.907800	0.416517
H93	H	-0.000061	-0.516682	0.025399
F94	F	-0.524507	-0.870557	-0.309583
H95	H	-0.771237	-0.946528	-0.233674
H96	H	-0.000039	-0.913240	0.128756
H97	H	-0.000049	-0.804443	0.019958
F98	F	-0.000069	-1.229465	0.158125
H99	H	-0.374336	-1.227719	0.047356
F100	F	-0.000056	-1.224028	0.445880
F101	F	-0.000032	-0.884016	0.594802
H102	H	-0.000058	-1.205673	0.336396
H103	H	-0.771204	-1.167010	-0.013337
F104	F	-0.000053	-1.220391	0.638472
H105	H	-0.000041	-0.596802	-0.272475
H106	H	-0.865944	-1.167010	-0.013333
F107	F	-0.000026	-0.775073	-0.296267
H108	H	-0.625755	-0.885758	-0.294393
F109	F	-0.872492	-0.931361	-0.248861
H110	H	-0.134162	-0.946478	-0.233737
H111	H	-0.530985	-1.227730	0.047376
H112	H	-0.625721	-1.227731	0.047379
