data_functionalizedCrystal
_audit_creation_method	'MofGen! by Chris Wilmer'
_symmetry_space_group_name_H-M	'P1'
_symmetry_Int_Tables_number	1
_symmetry_cell_setting	triclinic
loop_
_symmetry_equiv_pos_as_xyz
  x,y,z
_cell_length_a	19.077236
_cell_length_b	16.625546
_cell_length_c	19.076919
_cell_angle_alpha	92.269917
_cell_angle_beta	89.887323
_cell_angle_gamma	92.315185
loop_
_atom_site_label
_atom_site_type_symbol
_atom_site_fract_x
_atom_site_fract_y
_atom_site_fract_z
Zn1	Zn	1.058301	-0.292690	-0.440534
Zn2	Zn	1.062945	-0.421906	-0.323024
Zn3	Zn	0.945516	-0.292268	-0.318314
Zn4	Zn	0.940764	-0.432663	-0.435762
O5	O	1.001881	-0.359882	-0.379409
O6	O	1.157250	-0.305506	-0.428915
O7	O	1.051300	-0.400030	-0.224069
O8	O	0.960522	-0.179490	-0.334553
O9	O	1.160662	-0.400440	-0.342581
O10	O	1.043385	-0.179801	-0.424348
O11	O	0.965025	-0.304786	-0.220609
O12	O	0.846552	-0.315216	-0.329926
O13	O	0.952423	-0.418774	-0.534726
O14	O	0.843061	-0.418364	-0.416214
O15	O	1.038777	-0.315937	-0.538232
O16	O	1.046692	-0.536166	-0.337953
O17	O	0.956927	-0.544069	-0.420781
C18	C	0.819310	-0.367912	-0.372042
C19	C	0.741204	-0.371368	-0.368907
C20	C	0.702731	-0.323649	-0.412452
C21	C	0.629343	-0.326892	-0.409500
C22	C	0.594429	-0.377858	-0.363006
C23	C	0.632907	-0.425579	-0.319456
C24	C	0.706294	-0.422331	-0.322405
C25	C	0.375136	-0.392858	-0.349356
C26	C	0.301744	-0.396104	-0.346412
C27	C	0.298185	-0.297416	-0.436456
C28	C	0.371573	-0.294176	-0.439403
C29	C	0.410045	-0.341894	-0.395851
N30	N	0.519414	-0.381176	-0.359989
N31	N	0.485059	-0.338571	-0.398864
C32	C	1.001816	-0.569374	-0.379377
C33	C	1.001851	-0.658994	-0.379389
C34	C	1.001971	-0.987168	-0.379467
C35	C	1.001935	-0.895860	-0.379447
C36	C	1.001911	-0.823084	-0.379428
C37	C	1.001876	-0.731770	-0.379409
C38	C	1.185166	-0.351821	-0.386805
C39	C	1.263271	-0.348385	-0.389957
C40	C	0.994552	-0.368603	-0.562688
C41	C	0.991429	-0.372319	-0.640791
C42	C	1.001965	-0.149571	-0.379457
C43	C	1.002001	-0.059949	-0.379478
C44	C	1.034919	-0.320525	-0.679310
C45	C	1.031975	-0.324014	-0.752695
C46	C	0.985545	-0.379302	-0.787560
C47	C	0.942051	-0.431097	-0.749036
C48	C	0.944991	-0.427604	-0.675651
C49	C	0.971928	-0.395488	-1.006839
C50	C	0.968992	-0.398979	-1.080229
C51	C	1.058916	-0.291895	-1.083883
C52	C	1.061855	-0.288409	-1.010497
C53	C	1.018358	-0.340202	-0.971979
N54	N	0.982537	-0.382871	-0.862572
N55	N	1.021363	-0.336628	-0.896969
C56	C	1.009223	-0.351135	-0.196844
C57	C	1.012482	-0.347186	-0.118748
H58	H	0.604474	-0.467072	-0.281596
H59	H	1.072729	-0.275507	-0.650928
O60	O	1.111939	-0.228781	-0.972896
H61	H	1.099350	-0.166696	-0.986502
H62	H	0.936519	-0.437673	-0.975487
O63	O	0.747795	-0.473799	-0.275440
H64	H	0.711189	-0.509790	-0.242618
O65	O	1.105809	-0.236011	-1.125425
H66	H	1.095957	-0.247715	-1.182310
H67	H	0.904244	-0.476111	-0.777428
H68	H	0.931181	-0.444003	-1.108613
H69	H	0.273319	-0.437611	-0.308551
H70	H	0.909569	-0.469772	-0.644290
O71	O	0.256687	-0.245948	-0.483422
H72	H	0.293295	-0.209967	-0.516249
H73	H	0.731153	-0.282149	-0.450314
H74	H	0.406451	-0.431714	-0.313893
H75	H	0.399995	-0.252677	-0.477266
O76	O	0.587845	-0.275424	-0.456465
H77	H	0.624452	-0.239446	-0.489296
O78	O	1.078886	-0.268157	-0.794244
H79	H	1.111673	-0.229134	-0.757672
