data_functionalizedCrystal
_audit_creation_method	'MofGen! by Chris Wilmer'
_symmetry_space_group_name_H-M	'P1'
_symmetry_Int_Tables_number	1
_symmetry_cell_setting	triclinic
loop_
_symmetry_equiv_pos_as_xyz
  x,y,z
_cell_length_a	17.699104
_cell_length_b	13.262508
_cell_length_c	16.176319
_cell_angle_alpha	105.911538
_cell_angle_beta	89.991696
_cell_angle_gamma	83.885886
loop_
_atom_site_label
_atom_site_type_symbol
_atom_site_fract_x
_atom_site_fract_y
_atom_site_fract_z
O1	O	1.004660	0.132831	-0.038895
O2	O	0.784361	0.150076	-0.035015
O3	O	0.900056	-0.011347	-0.071308
O4	O	0.888965	0.294253	-0.002601
O5	O	0.900040	-0.011357	0.066182
O6	O	0.784345	0.150065	0.102476
O7	O	1.004644	0.132820	0.098596
Cu8	Cu	0.894493	0.141442	0.113090
Cu9	Cu	0.894512	0.141454	-0.049509
O10	O	0.888949	0.294243	0.134890
C11	C	0.756153	0.149449	0.033591
C12	C	0.672128	0.147584	0.033173
C13	C	0.147632	0.231818	0.052102
C14	C	0.226584	0.233564	0.052492
C15	C	0.274779	0.138803	0.031188
C16	C	0.244020	0.042289	0.009483
C17	C	0.165069	0.040545	0.009087
C18	C	0.562417	0.049324	0.011078
C19	C	0.641372	0.051077	0.011478
C20	C	0.623931	0.242344	0.054483
C21	C	0.544981	0.240599	0.054087
C22	C	0.514228	0.144086	0.032378
C23	C	0.428620	0.142194	0.031954
C24	C	0.360386	0.140694	0.031618
C25	C	0.899428	-0.050453	-0.011356
C26	C	0.897571	-0.166962	-0.037555
C27	C	0.892296	-0.495417	0.188387
C28	C	0.894035	-0.385950	0.213004
C29	C	0.894919	-0.331198	0.150366
C30	C	0.894064	-0.385923	0.063107
C31	C	0.892318	-0.495400	0.038488
C32	C	0.894942	-0.331181	0.000467
C33	C	0.894086	-0.385906	-0.086792
C34	C	0.892341	-0.495372	-0.111407
C35	C	0.891457	-0.550124	-0.048769
C36	C	0.896687	-0.221704	0.025086
C37	C	0.896709	-0.221687	-0.124812
C38	C	0.894970	-0.331154	-0.149429
C39	C	1.032852	0.133447	0.029989
C40	C	1.116877	0.135312	0.030402
C41	C	0.889577	0.333349	0.074936
C42	C	0.891435	0.449858	0.101130
N43	N	0.894485	0.141433	0.227453
N44	N	0.894526	0.141455	-0.163874
C45	C	0.945731	0.069984	0.254653
C46	C	0.945735	0.069983	0.341200
C47	C	0.894496	0.141436	0.400547
C48	C	0.843245	0.212889	0.373342
C49	C	0.843238	0.212884	0.286795
C50	C	0.843271	0.212908	0.722374
C51	C	0.843283	0.212910	0.808926
C52	C	0.945768	0.070007	0.776779
C53	C	0.945761	0.070003	0.690233
C54	C	0.894507	0.141451	0.663034
C55	C	0.894503	0.141450	0.569190
C56	C	0.894504	0.141443	0.494391
H57	H	0.251620	0.312149	0.070156
H58	H	0.897424	-0.177107	-0.175817
O59	O	0.894148	-0.384159	-0.234228
C60	C	0.894257	-0.372580	-0.380307
C61	C	0.895222	-0.312428	-0.284307
H62	H	0.895108	-0.314609	-0.420823
H63	H	0.946347	-0.433551	-0.397840
H64	H	0.840540	-0.414112	-0.393325
H65	H	0.948903	-0.270833	-0.271220
H66	H	0.843095	-0.251516	-0.266822
H67	H	0.987486	0.011822	0.641915
H68	H	0.896334	-0.242065	0.170415
H69	H	0.987499	0.011827	0.798932
O70	O	0.894913	-0.332964	0.297795
C71	C	0.894689	-0.344537	0.443875
C72	C	0.893701	-0.404676	0.347874
H73	H	0.893693	-0.402487	0.484392
H74	H	0.948424	-0.303060	0.456997
H75	H	0.842619	-0.283520	0.461309
H76	H	0.945734	-0.465744	0.330373
H77	H	0.839931	-0.446082	0.334803
H78	H	0.987458	0.011803	0.206338
O79	O	0.995596	0.000550	0.367487
C80	C	1.097239	-0.141210	0.326465
C81	C	1.040818	-0.062619	0.296583
H82	H	1.133804	-0.192317	0.269151
H83	H	1.135235	-0.095994	0.377108
H84	H	1.064403	-0.193552	0.355255
H85	H	1.073591	-0.010258	0.267752
H86	H	1.002822	-0.107900	0.245977
H87	H	0.505743	0.317764	0.071440
O88	O	0.653680	0.336192	0.075619
C89	C	0.628045	0.525725	0.118187
C90	C	0.594257	0.419522	0.094285
H91	H	0.580018	0.593125	0.133267
H92	H	0.664537	0.531392	0.177016
H93	H	0.664604	0.531276	0.061908
H94	H	0.557663	0.413899	0.150509
H95	H	0.557808	0.413900	0.035429
O96	O	0.688083	-0.041077	-0.009285
C97	C	0.697055	-0.230980	-0.051950
C98	C	0.644070	-0.126704	-0.028476
H99	H	0.661492	-0.300236	-0.067455
H100	H	0.734450	-0.235000	-0.110406
H101	H	0.734459	-0.234896	0.004699
H102	H	0.606619	-0.122718	-0.085071
H103	H	0.606727	-0.122727	0.030007
O104	O	0.793462	0.282416	0.696112
C105	C	0.691780	0.424122	0.737131
C106	C	0.748163	0.345473	0.766995
H107	H	0.655131	0.475109	0.794420
H108	H	0.724572	0.476574	0.708412
H109	H	0.653861	0.378848	0.686428
H110	H	0.786096	0.390661	0.817724
H111	H	0.715325	0.293022	0.795662
H112	H	0.537388	-0.029262	-0.006597
O113	O	0.135281	-0.053267	-0.012116
C114	C	0.126001	-0.217244	-0.120248
C115	C	0.159800	-0.111049	-0.096333
H116	H	0.145798	-0.263982	-0.188344
H117	H	0.145833	-0.264143	-0.073291
H118	H	0.061297	-0.202188	-0.116828
H119	H	0.224505	-0.126009	-0.099760
H120	H	0.139908	-0.064183	-0.143292
H121	H	0.283267	-0.034867	-0.007869
O122	O	0.897415	-0.168644	0.109873
C123	C	0.832408	-0.123068	0.248214
C124	C	0.831497	-0.183227	0.152210
H125	H	0.779111	-0.134818	0.282468
H126	H	0.884924	-0.154342	0.278204
H127	H	0.833841	-0.035434	0.255028
H128	H	0.830036	-0.270869	0.145319
H129	H	0.778987	-0.151866	0.122264
O130	O	0.793432	0.282393	0.260522
C131	C	0.691748	0.424097	0.301527
C132	C	0.748129	0.345453	0.331400
H133	H	0.655095	0.475085	0.358812
H134	H	0.724541	0.476547	0.272809
H135	H	0.653832	0.378819	0.250822
H136	H	0.786058	0.390645	0.382130
H137	H	0.715288	0.293003	0.360066
H138	H	0.891570	-0.540006	0.239377
O139	O	0.793440	0.282154	0.431049
C140	C	0.690132	0.304666	0.533814
C141	C	0.746504	0.226105	0.468502
H142	H	0.652159	0.259381	0.564100
H143	H	0.722932	0.357034	0.586147
H144	H	0.653536	0.355753	0.499496
H145	H	0.783114	0.174948	0.502745
H146	H	0.713658	0.173810	0.416173
O147	O	0.891555	-0.548380	-0.196207
C148	C	0.891748	-0.536804	-0.342287
C149	C	0.892650	-0.476648	-0.246283
H150	H	0.892617	-0.478832	-0.382800
H151	H	0.943854	-0.597754	-0.359781
H152	H	0.838046	-0.578363	-0.355350
H153	H	0.946317	-0.435025	-0.233150
H154	H	0.840508	-0.415758	-0.228837
H155	H	0.108396	0.308984	0.069457
H156	H	0.801556	0.271098	0.857247
H157	H	0.890045	-0.639262	-0.068808
