data_functionalizedCrystal
_audit_creation_method	'MofGen! by Chris Wilmer'
_symmetry_space_group_name_H-M	'P1'
_symmetry_Int_Tables_number	1
_symmetry_cell_setting	triclinic
loop_
_symmetry_equiv_pos_as_xyz
  x,y,z
_cell_length_a	17.640280
_cell_length_b	19.077241
_cell_length_c	19.076919
_cell_angle_alpha	90.113904
_cell_angle_beta	81.491119
_cell_angle_gamma	99.396604
loop_
_atom_site_label
_atom_site_type_symbol
_atom_site_fract_x
_atom_site_fract_y
_atom_site_fract_z
Zn1	Zn	-0.282357	-1.111131	-0.391927
Zn2	Zn	0.050976	-0.777798	-0.058594
Zn3	Zn	0.384310	-0.444465	0.274740
Zn4	Zn	-0.407003	-1.139098	-0.252949
Zn5	Zn	-0.073669	-0.805764	0.080384
Zn6	Zn	0.259664	-0.472431	0.413717
Zn7	Zn	-0.281947	-0.998270	-0.269775
Zn8	Zn	0.051386	-0.664937	0.063558
Zn9	Zn	0.384719	-0.331604	0.396892
Zn10	Zn	-0.417377	-1.018858	-0.363898
Zn11	Zn	-0.084044	-0.685525	-0.030564
Zn12	Zn	0.249290	-0.352192	0.302769
O13	O	-0.347171	-1.066839	-0.319637
O14	O	-0.013838	-0.733506	0.013696
O15	O	0.319496	-0.400173	0.347029
O16	O	-0.294721	-1.212394	-0.378180
O17	O	0.038612	-0.879061	-0.044847
O18	O	0.371945	-0.545728	0.288487
O19	O	-0.385901	-1.123504	-0.157628
O20	O	-0.052567	-0.790171	0.175705
O21	O	0.280766	-0.456838	0.509039
O22	O	-0.173159	-0.992921	-0.304751
O23	O	0.160174	-0.659588	0.028582
O24	O	0.493508	-0.326254	0.361916
O25	O	-0.386298	-1.232941	-0.276074
O26	O	-0.052965	-0.899608	0.057260
O27	O	0.280369	-0.566274	0.390593
O28	O	-0.173460	-1.075840	-0.394495
O29	O	0.159873	-0.742506	-0.061162
O30	O	0.493206	-0.409173	0.272171
O31	O	-0.294023	-1.020039	-0.169990
O32	O	0.039310	-0.686706	0.163343
O33	O	0.372644	-0.353372	0.496677
O34	O	-0.304082	-0.903448	-0.277572
O35	O	0.029251	-0.570115	0.055761
O36	O	0.362584	-0.236781	0.389095
O37	O	-0.403979	-1.028011	-0.465169
O38	O	-0.070646	-0.694678	-0.131836
O39	O	0.262687	-0.361344	0.201498
O40	O	-0.403582	-0.918574	-0.346723
O41	O	-0.070249	-0.585241	-0.013390
O42	O	0.263085	-0.251907	0.319943
O43	O	-0.304781	-1.095803	-0.485762
O44	O	0.028552	-0.762470	-0.152429
O45	O	0.361886	-0.429137	0.180905
O46	O	-0.517221	-1.143468	-0.248895
O47	O	-0.183888	-0.810135	0.084439
O48	O	0.149445	-0.476801	0.417772
O49	O	-0.524843	-1.055129	-0.330408
O50	O	-0.191510	-0.721795	0.002925
O51	O	0.141824	-0.388462	0.336259
C52	C	-0.354914	-0.885717	-0.310932
C53	C	-0.021581	-0.552383	0.022401
C54	C	0.311753	-0.219050	0.355734
C55	C	-0.358246	-0.808235	-0.307222
C56	C	-0.024913	-0.474901	0.026112
C57	C	0.308421	-0.141568	0.359445
C58	C	-0.312215	-0.761149	-0.358694
C59	C	0.021119	-0.427816	-0.025361
C60	C	0.354452	-0.094482	0.307973
C61	C	-0.315341	-0.688346	-0.355202
C62	C	0.017992	-0.355013	-0.021869
C63	C	0.351325	-0.021679	0.311465
C64	C	-0.364504	-0.662630	-0.300240
C65	C	-0.031171	-0.329297	0.033093
C66	C	0.302162	0.004036	0.366427
C67	C	-0.410538	-0.709722	-0.248762
C68	C	-0.077204	-0.376388	0.084571
C69	C	0.256129	-0.043055	0.417904
C70	C	-0.407406	-0.782523	-0.252252
C71	C	-0.074073	-0.449189	0.081081
C72	C	0.259261	-0.115856	0.414415
C73	C	-0.378970	-0.446044	-0.284094
C74	C	-0.045636	-0.112711	0.049239
C75	C	0.287697	0.220622	0.382573
C76	C	-0.382099	-0.373238	-0.280609
C77	C	-0.048766	-0.039904	0.052724
C78	C	0.284567	0.293429	0.386057
C79	C	-0.286902	-0.351867	-0.387049
C80	C	0.046432	-0.018533	-0.053715
C81	C	0.379765	0.314800	0.279618
C82	C	-0.283778	-0.424671	-0.390536
C83	C	0.049555	-0.091337	-0.057203
C84	C	0.382889	0.241996	0.276131
C85	C	-0.329808	-0.471755	-0.339056
C86	C	0.003525	-0.138422	-0.005723
C87	C	0.336858	0.194912	0.327610
N88	N	-0.367703	-0.588214	-0.296671
N89	N	-0.034370	-0.254881	0.036663
N90	N	0.298963	0.078452	0.369996
N91	N	-0.326605	-0.546169	-0.342624
N92	N	0.006729	-0.212836	-0.009290
N93	N	0.340062	0.120498	0.324043
C94	C	-0.549254	-1.104586	-0.284800
C95	C	-0.215920	-0.771252	0.048533
C96	C	0.117413	-0.437919	0.381866
C97	C	-0.635704	-1.120797	-0.269923
C98	C	-0.302371	-0.787463	0.063410
C99	C	0.030963	-0.454130	0.396744
C100	C	-0.940003	-0.943964	-0.432924
C101	C	-0.606670	-0.610631	-0.099591
C102	C	-0.273336	-0.277297	0.233743
C103	C	-1.021235	-0.959199	-0.418923
C104	C	-0.687902	-0.625865	-0.085589
C105	C	-0.354568	-0.292532	0.247744
C106	C	-1.013235	-1.051239	-0.334136
C107	C	-0.679901	-0.717905	-0.000802
C108	C	-0.346568	-0.384572	0.332531
C109	C	-0.932000	-1.036014	-0.348132
C110	C	-0.598667	-0.702681	-0.014799
C111	C	-0.265334	-0.369347	0.318534
C112	C	-0.895391	-0.982375	-0.397527
C113	C	-0.562058	-0.649042	-0.064193
C114	C	-0.228724	-0.315709	0.269140
C115	C	-0.887388	-1.074425	-0.312735
C116	C	-0.554055	-0.741092	0.020598
C117	C	-0.220722	-0.407759	0.353932
C118	C	-0.806161	-1.059199	-0.326728
C119	C	-0.472828	-0.725866	0.006605
C120	C	-0.139494	-0.392532	0.339938
C121	C	-0.769546	-1.005561	-0.376119
C122	C	-0.436212	-0.672228	-0.042785
C123	C	-0.102879	-0.338895	0.290548
C124	C	-0.814164	-0.967149	-0.411520
C125	C	-0.480830	-0.633816	-0.078187
C126	C	-0.147497	-0.300482	0.255147
C127	C	-0.923999	-1.128060	-0.263337
C128	C	-0.590666	-0.794727	0.069996
C129	C	-0.257332	-0.461394	0.403329
C130	C	-0.879387	-1.166472	-0.227940
C131	C	-0.546054	-0.833138	0.105393
C132	C	-0.212721	-0.499805	0.438727
C133	C	-0.798158	-1.151249	-0.241937
C134	C	-0.464825	-0.817916	0.091397
C135	C	-0.131492	-0.484583	0.424730
C136	C	-0.761543	-1.097612	-0.291327
C137	C	-0.428210	-0.764278	0.042006
C138	C	-0.094876	-0.430945	0.375339
C139	C	-0.753540	-1.189662	-0.206536
C140	C	-0.420207	-0.856328	0.126798
C141	C	-0.086874	-0.522995	0.460131
C142	C	-0.672313	-1.174435	-0.220529
C143	C	-0.338980	-0.841102	0.112805
C144	C	-0.005647	-0.507769	0.446138
C145	C	-0.680316	-1.082385	-0.305320
C146	C	-0.346983	-0.749052	0.028013
C147	C	-0.013649	-0.415719	0.361346
C148	C	-0.144299	-1.028964	-0.354627
C149	C	0.189034	-0.695631	-0.021293
C150	C	0.522368	-0.362298	0.312040
C151	C	-0.057847	-1.012824	-0.369537
C152	C	0.275486	-0.679491	-0.036204
C153	C	0.608820	-0.346157	0.297130
C154	C	-0.355583	-1.061084	-0.501467
C155	C	-0.022250	-0.727751	-0.168134
C156	C	0.311084	-0.394417	0.165199
C157	C	-0.359168	-1.058631	-0.578952
C158	C	-0.025835	-0.725298	-0.245619
C159	C	0.307499	-0.391965	0.087714
C160	C	-0.339394	-0.248669	-0.328372
C161	C	-0.006060	0.084665	0.004962
C162	C	0.327273	0.417998	0.338295
C163	C	-0.336068	-0.326152	-0.332082
C164	C	-0.002735	0.007181	0.001252
C165	C	0.330599	0.340515	0.334585
C166	C	-0.309207	-1.092773	-0.626077
C167	C	0.024126	-0.759440	-0.292744
C168	C	0.357460	-0.426107	0.040589
C169	C	-0.312573	-1.090460	-0.698883
C170	C	0.020761	-0.757126	-0.365550
C171	C	0.354094	-0.423793	-0.032216
C172	C	-0.365904	-1.054008	-0.724562
C173	C	-0.032570	-0.720675	-0.391228
C174	C	0.300763	-0.387342	-0.057895
C175	C	-0.415867	-1.019862	-0.677431
C176	C	-0.082533	-0.686529	-0.344098
C177	C	0.250800	-0.353196	-0.010764
C178	C	-0.412497	-1.022172	-0.604627
C179	C	-0.079163	-0.688839	-0.271294
C180	C	0.254170	-0.355505	0.062039
C181	C	-0.381517	-1.043312	-0.941151
C182	C	-0.048184	-0.709979	-0.607818
C183	C	0.285150	-0.376645	-0.274485
C184	C	-0.384885	-1.041007	-1.013961
C185	C	-0.051552	-0.707673	-0.680627
C186	C	0.281782	-0.374340	-0.347294
C187	C	-0.281590	-1.111603	-1.035408
C188	C	0.051744	-0.778270	-0.702075
C189	C	0.385077	-0.444937	-0.368741
C190	C	-0.278227	-1.113913	-0.962601
C191	C	0.055106	-0.780580	-0.629268
C192	C	0.388439	-0.447247	-0.295935
C193	C	-0.328188	-1.079764	-0.915478
C194	C	0.005146	-0.746431	-0.582144
C195	C	0.338479	-0.413098	-0.248811
N196	N	-0.369347	-1.051645	-0.798980
N197	N	-0.036013	-0.718311	-0.465647
N198	N	0.297320	-0.384978	-0.132314
N199	N	-0.324740	-1.082124	-0.841061
N200	N	0.008593	-0.748791	-0.507728
N201	N	0.341927	-0.415457	-0.174394
C202	C	-0.338734	-1.072602	-0.138526
C203	C	-0.005400	-0.739269	0.194807
C204	C	0.327933	-0.405935	0.528140
C205	C	-0.334924	-1.075149	-0.061086
C206	C	-0.001591	-0.741815	0.272248
C207	C	0.331743	-0.408482	0.605581
H208	H	-0.444889	-0.820860	-0.210337
H209	H	-0.111556	-0.487527	0.122996
H210	H	0.221777	-0.154193	0.456329
Br211	Br	-0.659308	-0.985066	-0.395297
Br212	Br	-0.325975	-0.651732	-0.061964
Br213	Br	0.007358	-0.318399	0.271370
H214	H	-0.784355	-0.923476	-0.451747
H215	H	-0.451022	-0.590142	-0.118414
H216	H	-0.117689	-0.256809	0.214919
Br217	Br	-0.244800	-1.136836	-0.762832
Br218	Br	0.088533	-0.803503	-0.429499
Br219	Br	0.421866	-0.470170	-0.096165
H220	H	-0.234802	-1.143598	-0.941700
H221	H	0.098532	-0.810265	-0.608366
H222	H	0.431865	-0.476932	-0.275033
H223	H	-0.650507	-1.038712	-0.345548
H224	H	-0.317174	-0.705379	-0.012214
H225	H	0.016159	-0.372045	0.321119
Br226	Br	-0.890311	-0.871176	-0.499969
Br227	Br	-0.556978	-0.537843	-0.166636
Br228	Br	-0.223644	-0.204509	0.166697
Br229	Br	-1.081779	-0.907052	-0.466956
Br230	Br	-0.748446	-0.573719	-0.133623
Br231	Br	-0.415112	-0.240386	0.199710
Br232	Br	-1.062926	-1.124032	-0.267103
Br233	Br	-0.729592	-0.790699	0.066230
Br234	Br	-0.396259	-0.457365	0.399563
H235	H	-0.428315	-1.011322	-1.034865
H236	H	-0.094982	-0.677988	-0.701531
H237	H	0.238351	-0.344655	-0.368198
H238	H	-0.990140	-1.140457	-0.251948
H239	H	-0.656807	-0.807124	0.081386
H240	H	-0.323473	-0.473791	0.414719
H241	H	-0.909206	-1.210142	-0.187721
H242	H	-0.575872	-0.876809	0.145612
H243	H	-0.242539	-0.543476	0.478946
H244	H	-0.240914	-1.139405	-1.073784
H245	H	0.092419	-0.806071	-0.740450
H246	H	0.425753	-0.472738	-0.407117
Br247	Br	-0.803234	-1.262448	-0.139496
Br248	Br	-0.469901	-0.929114	0.193837
Br249	Br	-0.136567	-0.595781	0.527170
H250	H	-0.422209	-1.015518	-0.902790
H251	H	-0.088876	-0.682184	-0.569456
H252	H	0.244458	-0.348851	-0.236123
H253	H	-0.635989	-1.205713	-0.191704
H254	H	-0.302656	-0.872380	0.141630
H255	H	0.030677	-0.539047	0.474963
Br256	Br	-0.217062	-0.459566	-0.465136
Br257	Br	0.116271	-0.126233	-0.131802
Br258	Br	0.449604	0.207101	0.201531
H259	H	-0.422137	-0.352304	-0.235851
H260	H	-0.088804	-0.018971	0.097482
H261	H	0.244529	0.314363	0.430815
Br262	Br	-0.236832	-1.142252	-0.591235
Br263	Br	0.096502	-0.808919	-0.257902
Br264	Br	0.429835	-0.475585	0.075432
H265	H	-0.459287	-0.990180	-0.698345
H266	H	-0.125954	-0.656846	-0.365011
H267	H	0.207380	-0.323513	-0.031678
H268	H	-0.453173	-0.994361	-0.566259
H269	H	-0.119839	-0.661028	-0.232926
H270	H	0.213494	-0.327695	0.100408
H271	H	-0.416452	-0.484372	-0.242176
H272	H	-0.083118	-0.151039	0.091157
H273	H	0.250215	0.182294	0.424491
Br274	Br	-0.224435	-0.287964	-0.456910
Br275	Br	0.108898	0.045370	-0.123576
Br276	Br	0.442231	0.378703	0.209757
Br277	Br	-0.252868	-0.624446	-0.425061
Br278	Br	0.080466	-0.291112	-0.091728
Br279	Br	0.413799	0.042221	0.241605
Br280	Br	-0.245496	-0.796042	-0.433293
Br281	Br	0.087837	-0.462708	-0.099960
Br282	Br	0.421171	-0.129375	0.233373
Br283	Br	-0.477253	-0.674822	-0.174165
Br284	Br	-0.143920	-0.341489	0.159168
Br285	Br	0.189414	-0.008155	0.492501
