data_functionalizedCrystal
_audit_creation_method	'MofGen! by Chris Wilmer'
_symmetry_space_group_name_H-M	'P1'
_symmetry_Int_Tables_number	1
_symmetry_cell_setting	triclinic
loop_
_symmetry_equiv_pos_as_xyz
  x,y,z
_cell_length_a	12.759395
_cell_length_b	18.215406
_cell_length_c	18.215399
_cell_angle_alpha	89.981825
_cell_angle_beta	90.019732
_cell_angle_gamma	90.003052
loop_
_atom_site_label
_atom_site_type_symbol
_atom_site_fract_x
_atom_site_fract_y
_atom_site_fract_z
Zn1	Zn	-1.606352	-0.293026	-0.416164
Zn2	Zn	-1.106352	0.206974	0.083836
Zn3	Zn	-1.606302	-0.416097	-0.293119
Zn4	Zn	-1.106302	0.083903	0.206881
Zn5	Zn	-1.430660	-0.293045	-0.293111
Zn6	Zn	-0.930660	0.206955	0.206889
Zn7	Zn	-1.430692	-0.416052	-0.416144
Zn8	Zn	-0.930692	0.083948	0.083856
O9	O	-1.518502	-0.354555	-0.354634
O10	O	-1.018502	0.145445	0.145366
O11	O	-1.753367	-0.309363	-0.399853
O12	O	-1.253367	0.190637	0.100147
O13	O	-1.582968	-0.399801	-0.190133
O14	O	-1.082968	0.100199	0.309867
O15	O	-1.453974	-0.190059	-0.309440
O16	O	-0.953974	0.309941	0.190560
O17	O	-1.753330	-0.399783	-0.309452
O18	O	-1.253330	0.100217	0.190548
O19	O	-1.583054	-0.190044	-0.399846
O20	O	-1.083054	0.309956	0.100154
O21	O	-1.453925	-0.309396	-0.190128
O22	O	-0.953925	0.190604	0.309872
O23	O	-1.283643	-0.309351	-0.309421
O24	O	-0.783643	0.190649	0.190579
O25	O	-1.454028	-0.399705	-0.519131
O26	O	-0.954028	0.100295	-0.019131
O27	O	-1.283667	-0.399724	-0.399812
O28	O	-0.783667	0.100276	0.100188
O29	O	-1.583085	-0.309318	-0.519146
O30	O	-1.083085	0.190682	-0.019146
O31	O	-1.582999	-0.519075	-0.309433
O32	O	-1.082999	-0.019075	0.190567
O33	O	-1.453979	-0.519042	-0.399819
O34	O	-0.953979	-0.019042	0.100181
C35	C	-1.245534	-0.354535	-0.354614
C36	C	-0.745534	0.145465	0.145386
C37	C	-1.128757	-0.354544	-0.354622
C38	C	-0.628757	0.145456	0.145378
C39	C	-0.909361	-0.260552	-0.448928
C40	C	-0.409361	0.239448	0.051072
C41	C	-0.964247	-0.213545	-0.496064
C42	C	-0.464247	0.286455	0.003936
C43	C	-1.073968	-0.213536	-0.496054
C44	C	-0.573968	0.286464	0.003946
C45	C	-1.128807	-0.260540	-0.448904
C46	C	-0.628807	0.239460	0.051096
C47	C	-1.073921	-0.307547	-0.401768
C48	C	-0.573921	0.192453	0.098232
C49	C	-0.964197	-0.307549	-0.401782
C50	C	-0.464197	0.192451	0.098218
C51	C	-1.073872	-0.401551	-0.307486
C52	C	-0.573872	0.098449	0.192514
C53	C	-0.964150	-0.401558	-0.307492
C54	C	-0.464150	0.098442	0.192508
C55	C	-1.128710	-0.448556	-0.260337
C56	C	-0.628710	0.051444	0.239663
C57	C	-1.073825	-0.495560	-0.213196
C58	C	-0.573825	0.004440	0.286804
C59	C	-0.964097	-0.495567	-0.213208
C60	C	-0.464097	0.004433	0.286792
C61	C	-0.909265	-0.448565	-0.260356
C62	C	-0.409265	0.051435	0.239644
C63	C	-0.792535	-0.354568	-0.354650
C64	C	-0.292535	0.145432	0.145350
C65	C	-0.909312	-0.354554	-0.354641
C66	C	-0.409312	0.145446	0.145359
C67	C	-1.518515	-0.545761	-0.354640
C68	C	-1.018515	-0.045761	0.145360
C69	C	-1.518617	-0.627560	-0.354668
C70	C	-1.018617	-0.127560	0.145332
C71	C	-1.518566	-0.354504	-0.546587
C72	C	-1.018566	0.145496	-0.046587
C73	C	-1.518593	-0.354483	-0.628386
C74	C	-1.018593	0.145517	-0.128386
C75	C	-1.518516	-0.162602	-0.354645
C76	C	-1.018516	0.337398	0.145355
C77	C	-1.518523	-0.080803	-0.354649
C78	C	-1.018523	0.419197	0.145351
C79	C	-1.451391	0.107409	-0.401717
C80	C	-0.951391	0.607409	0.098283
C81	C	-1.451409	0.184268	-0.401721
C82	C	-0.951409	0.684268	0.098279
C83	C	-1.585756	0.184222	-0.307598
C84	C	-1.085756	0.684222	0.192402
C85	C	-1.585743	0.107365	-0.307597
C86	C	-1.085743	0.607365	0.192403
C87	C	-1.518555	0.068960	-0.354655
C88	C	-1.018555	0.568960	0.145345
C89	C	-1.518585	0.222676	-0.354661
C90	C	-1.018585	0.722676	0.145339
C91	C	-1.518605	0.306010	-0.354666
C92	C	-1.018605	0.806010	0.145334
C93	C	-1.518537	-0.014379	-0.354652
C94	C	-1.018537	0.485621	0.145348
C95	C	-1.585817	-0.307375	-0.816589
C96	C	-1.085817	0.192625	-0.316589
C97	C	-1.585829	-0.307353	-0.893448
C98	C	-1.085829	0.192647	-0.393448
C99	C	-1.451443	-0.401477	-0.893421
C100	C	-0.951443	0.098523	-0.393421
C101	C	-1.451426	-0.401494	-0.816564
C102	C	-0.951426	0.098506	-0.316564
C103	C	-1.518619	-0.354444	-0.778150
C104	C	-1.018619	0.145556	-0.278150
C105	C	-1.518648	-0.354405	-0.931866
C106	C	-1.018648	0.145595	-0.431866
C107	C	-1.518662	-0.354383	-1.015200
C108	C	-1.018662	0.145617	-0.515200
C109	C	-1.518605	-0.354466	-0.694811
C110	C	-1.018605	0.145534	-0.194811
C111	C	-1.518498	-0.354553	-0.163428
C112	C	-1.018498	0.145447	0.336572
C113	C	-1.518674	-0.354367	-0.081630
C114	C	-1.018674	0.145633	0.418370
H115	H	-0.919585	-0.175276	-0.534454
H116	H	-0.419585	0.324724	-0.034454
C117	C	-1.285832	-0.429708	-0.190340
C118	C	-0.785832	0.070292	0.309660
C119	C	-1.249318	-0.448555	-0.260323
C120	C	-0.749318	0.051445	0.239677
H121	H	-1.360291	-0.429714	-0.190331
H122	H	-0.860291	0.070286	0.309669
H123	H	-1.261002	-0.382205	-0.177702
H124	H	-0.761002	0.117795	0.322298
H125	H	-1.260979	-0.464434	-0.155528
H126	H	-0.760979	0.035566	0.344472
H127	H	-1.274165	-0.413826	-0.295135
H128	H	-0.774165	0.086174	0.204865
H129	H	-1.274159	-0.496065	-0.272971
H130	H	-0.774159	0.003935	0.227029
H131	H	-1.396739	-0.439785	-0.924707
H132	H	-0.896739	0.060215	-0.424707
C133	C	-1.197357	-0.114553	-0.506426
C134	C	-0.697357	0.385447	-0.006426
C135	C	-1.134306	-0.161867	-0.547866
C136	C	-0.634306	0.338133	-0.047866
H137	H	-1.234611	-0.082660	-0.538414
H138	H	-0.734611	0.417340	-0.038414
H139	H	-1.154523	-0.086363	-0.474422
H140	H	-0.654523	0.413637	0.025578
H141	H	-1.245711	-0.142552	-0.478345
H142	H	-0.745711	0.357448	0.021655
H143	H	-1.085947	-0.133868	-0.575942
H144	H	-0.585947	0.366132	-0.075942
H145	H	-1.177144	-0.190060	-0.579882
H146	H	-0.677144	0.309940	-0.079882
H147	H	-1.396698	-0.439823	-0.785266
H148	H	-0.896698	0.060177	-0.285266
H149	H	-0.819924	-0.448557	-0.260361
H150	H	-0.319924	0.051443	0.239639
H151	H	-1.640547	-0.269023	-0.924742
H152	H	-1.140547	0.230977	-0.424742
H153	H	-1.640527	-0.269061	-0.785315
H154	H	-1.140527	0.230939	-0.285315
C155	C	-0.752208	-0.330593	-0.467580
C156	C	-0.252208	0.169407	0.032420
C157	C	-0.788753	-0.260559	-0.448933
C158	C	-0.288753	0.239441	0.051067
H159	H	-0.677749	-0.330596	-0.467578
H160	H	-0.177749	0.169404	0.032422
H161	H	-0.777055	-0.343370	-0.515045
H162	H	-0.277055	0.156630	-0.015045
H163	H	-0.777022	-0.365307	-0.432753
H164	H	-0.277022	0.134693	0.067247
H165	H	-0.763946	-0.225845	-0.483763
H166	H	-0.263946	0.274155	0.016237
H167	H	-0.763895	-0.247773	-0.401460
H168	H	-0.263895	0.252227	0.098540
C169	C	-1.286024	-0.279383	-0.518877
C170	C	-0.786024	0.220617	-0.018877
C171	C	-1.249415	-0.260533	-0.448901
C172	C	-0.749415	0.239467	0.051099
H173	H	-1.360483	-0.279375	-0.518875
H174	H	-0.860483	0.220625	-0.018875
H175	H	-1.261221	-0.326889	-0.531516
H176	H	-0.761221	0.173111	-0.031516
H177	H	-1.261209	-0.244661	-0.553696
H178	H	-0.761209	0.255339	-0.053696
H179	H	-1.274224	-0.295258	-0.414083
H180	H	-0.774224	0.204742	0.085917
H181	H	-1.274229	-0.213020	-0.436253
H182	H	-0.774229	0.286980	0.063747
C183	C	-1.197228	-0.594530	-0.202806
C184	C	-0.697228	-0.094530	0.297194
C185	C	-1.134107	-0.547222	-0.161376
C186	C	-0.634107	-0.047222	0.338624
H187	H	-1.234451	-0.626420	-0.170812
H188	H	-0.734451	-0.126420	0.329188
H189	H	-1.154445	-0.622724	-0.234816
H190	H	-0.654445	-0.122724	0.265184
H191	H	-1.245609	-0.566526	-0.230879
H192	H	-0.745609	-0.066526	0.269121
H193	H	-1.085721	-0.575225	-0.133307
H194	H	-0.585721	-0.075225	0.366693
H195	H	-1.176893	-0.519025	-0.129353
H196	H	-0.676893	-0.019025	0.370647
H197	H	-0.919415	-0.533849	-0.174827
H198	H	-0.419415	-0.033849	0.325173
C199	C	-1.391711	-0.010388	-0.443508
C200	C	-0.891711	0.489612	0.056492
C201	C	-1.377546	0.065192	-0.453447
C202	C	-0.877546	0.565192	0.046553
H203	H	-1.346118	-0.036447	-0.475444
H204	H	-0.846118	0.463553	0.024556
H205	H	-1.462296	-0.022985	-0.454282
H206	H	-0.962296	0.477015	0.045718
H207	H	-1.376309	-0.022990	-0.394059
H208	H	-0.876309	0.477010	0.105941
H209	H	-1.392956	0.077795	-0.502895
H210	H	-0.892956	0.577795	-0.002895
H211	H	-1.306946	0.077795	-0.442678
H212	H	-0.806946	0.577795	0.057322
C213	C	-1.718548	0.176457	-0.214559
C214	C	-1.218548	0.676457	0.285441
C215	C	-1.659597	0.226439	-0.255865
C216	C	-1.159597	0.726439	0.244135
H217	H	-1.764136	0.202520	-0.182622
H218	H	-1.264136	0.702520	0.317378
H219	H	-1.672756	0.146476	-0.186411
H220	H	-1.172756	0.646476	0.313589
H221	H	-1.758746	0.146487	-0.246632
H222	H	-1.258746	0.646487	0.253368
H223	H	-1.619393	0.256406	-0.223792
H224	H	-1.119393	0.756406	0.276208
H225	H	-1.705395	0.256432	-0.284015
H226	H	-1.205395	0.756432	0.215985
C227	C	-1.318602	0.176587	-0.494750
C228	C	-0.818602	0.676587	0.005250
C229	C	-1.377575	0.226530	-0.453449
C230	C	-0.877575	0.726530	0.046551
H231	H	-1.273015	0.202680	-0.526682
H232	H	-0.773015	0.702680	-0.026682
H233	H	-1.364380	0.146614	-0.522901
H234	H	-0.864380	0.646614	-0.022901
H235	H	-1.278401	0.146605	-0.462672
H236	H	-0.778401	0.646605	0.037328
H237	H	-1.417781	0.256509	-0.485527
H238	H	-0.917781	0.756509	0.014473
H239	H	-1.331791	0.256516	-0.425296
H240	H	-0.831791	0.756516	0.074704
C241	C	-1.727116	0.020971	-0.297441
C242	C	-1.227116	0.520971	0.202559
C243	C	-1.659645	0.065123	-0.255890
C244	C	-1.159645	0.565123	0.244110
H245	H	-1.772762	-0.005096	-0.265528
H246	H	-1.272762	0.494904	0.234472
H247	H	-1.687105	-0.012918	-0.325438
H248	H	-1.187105	0.487082	0.174562
H249	H	-1.767251	0.050986	-0.329527
H250	H	-1.267251	0.550986	0.170473
H251	H	-1.619504	0.035107	-0.223807
H252	H	-1.119504	0.535107	0.276193
H253	H	-1.699659	0.099016	-0.227880
H254	H	-1.199659	0.599016	0.272120
