data_functionalizedCrystal
_audit_creation_method	'MofGen! by Chris Wilmer'
_symmetry_space_group_name_H-M	'P1'
_symmetry_Int_Tables_number	1
_symmetry_cell_setting	triclinic
loop_
_symmetry_equiv_pos_as_xyz
  x,y,z
_cell_length_a	17.038272
_cell_length_b	15.538191
_cell_length_c	14.185569
_cell_angle_alpha	97.872928
_cell_angle_beta	75.870769
_cell_angle_gamma	69.191825
loop_
_atom_site_label
_atom_site_type_symbol
_atom_site_fract_x
_atom_site_fract_y
_atom_site_fract_z
O1	O	-0.957420	-0.219473	-0.083285
O2	O	-0.730681	-0.216304	-0.083315
O3	O	-0.888186	-0.084296	-0.083299
O4	O	-0.799915	-0.351481	-0.083301
O5	O	-0.934712	-0.045304	0.083541
O6	O	-0.777208	-0.177312	0.083525
O7	O	-1.003946	-0.180481	0.083554
Cu8	Cu	-0.894825	-0.175336	0.098773
Cu9	Cu	-0.839802	-0.221449	-0.098533
O10	O	-0.846442	-0.312489	0.083538
C11	C	-0.725634	-0.193920	0.000101
C12	C	-0.641282	-0.185305	0.000090
C13	C	-0.920684	-0.030445	0.000119
C14	C	-0.948191	0.071923	0.000112
C15	C	-1.008993	-0.202865	0.000136
C16	C	-1.093343	-0.211482	0.000141
C17	C	-0.568731	-0.264429	0.000090
C18	C	-0.489482	-0.256322	0.000104
C19	C	-0.482784	-0.169093	0.000110
C20	C	-0.555344	-0.089963	0.000113
C21	C	-0.634593	-0.098069	0.000106
C22	C	-0.245152	-0.140457	0.000137
C23	C	-0.165894	-0.132359	0.000141
C24	C	-0.100038	-0.298718	0.000134
C25	C	-0.179290	-0.306817	0.000121
C26	C	-0.251844	-0.227686	0.000129
C27	C	-0.401779	-0.160806	0.000121
C28	C	-0.332850	-0.235972	0.000125
C29	C	-0.813943	-0.366341	0.000119
C30	C	-0.786434	-0.468710	0.000119
N31	N	-0.933532	-0.142903	0.237548
C32	C	-0.674892	0.381612	0.000098
C33	C	-0.700762	0.477806	0.000104
C34	C	-0.846269	0.488592	0.000122
C35	C	-0.820410	0.392396	0.000112
C36	C	-0.734721	0.338913	0.000101
C37	C	-0.880240	0.349698	0.000115
C38	C	-0.854384	0.253511	0.000109
C39	C	-0.768699	0.200023	0.000101
C40	C	-0.708865	0.242727	0.000096
C41	C	-0.965931	0.403184	0.000133
C42	C	-1.025760	0.360486	0.000135
C43	C	-0.999903	0.264296	0.000123
C44	C	-0.914218	0.210808	0.000115
C45	C	-1.059736	0.221592	0.000129
C46	C	-1.033881	0.125405	0.000123
C47	C	-0.888362	0.114621	0.000110
N48	N	-0.801104	-0.253875	-0.237308
C49	C	-0.687396	-0.349124	0.605173
C50	C	-0.716719	-0.324563	0.710198
C51	C	-0.856197	-0.207717	0.710173
C52	C	-0.826884	-0.232266	0.605146
C53	C	-0.742483	-0.302970	0.552655
C54	C	-0.881971	-0.186112	0.552628
C55	C	-0.852662	-0.210662	0.447610
C56	C	-0.768266	-0.281365	0.395111
C57	C	-0.713174	-0.327520	0.447637
C58	C	-0.966374	-0.115412	0.605121
C59	C	-1.021461	-0.069259	0.552603
C60	C	-0.992150	-0.093804	0.447583
C61	C	-0.907754	-0.164507	0.395084
C62	C	-1.047242	-0.047649	0.395057
C63	C	-1.017932	-0.072199	0.290040
C64	C	-0.878444	-0.189057	0.290067
H65	H	-0.574175	-0.335460	0.000084
N66	N	-0.787406	-0.265309	0.233444
H67	H	-0.782747	-0.327123	0.251718
H68	H	-0.777258	-0.273773	0.158966
N69	N	-0.993819	0.506930	0.000144
H70	H	-0.954239	0.513532	-0.061708
H71	H	-1.057193	0.534270	0.000197
H72	H	-0.430411	-0.320754	0.000103
N73	N	-0.616451	0.185023	0.000103
H74	H	-0.585233	0.130416	-0.061740
H75	H	-0.582530	0.226725	0.000143
H76	H	-1.082600	0.090640	0.000127
N77	N	-0.636226	0.523860	0.000092
H78	H	-0.660957	0.577978	0.061942
H79	H	-0.578041	0.475318	0.000046
H80	H	-1.095530	0.404045	0.000148
H81	H	-0.744405	-0.301356	0.309599
H82	H	-0.916039	0.532152	0.000135
N83	N	-0.622136	-0.403771	0.391010
H84	H	-0.591680	-0.429283	0.440213
H85	H	-0.627676	-0.457043	0.347434
H86	H	-0.924919	-0.150151	0.752924
H87	H	-0.338308	-0.306993	0.000125
N88	N	-0.795947	0.056935	0.000127
H89	H	-0.788653	-0.010474	0.000135
H90	H	-0.751429	0.056928	-0.061718
H91	H	-1.129507	0.265154	0.000148
N92	N	-0.997988	-0.088938	0.718390
H93	H	-0.956932	-0.065418	0.743698
H94	H	-1.059826	-0.037177	0.743594
H95	H	-1.115965	0.009913	0.437809
H96	H	-0.040958	-0.363142	0.000129
H97	H	-0.605113	0.338061	0.000082
H98	H	-0.671853	-0.362154	0.752953
H99	H	-1.090183	-0.011693	0.595353
H100	H	-0.693667	-0.033638	0.000106
N101	N	-0.596358	-0.425374	0.548546
H102	H	-0.565902	-0.450887	0.597749
H103	H	-0.601898	-0.478647	0.504970
N104	N	-1.077345	-0.022427	0.233386
H105	H	-1.135258	0.026090	0.282573
H106	H	-1.047481	0.010470	0.189814
H107	H	-0.160448	-0.061323	0.000145
N108	N	-0.186507	-0.400904	0.000095
H109	H	-0.128519	-0.449802	0.000092
H110	H	-0.235210	-0.393450	0.061935
H111	H	-0.747650	0.121703	0.000103
N112	N	-0.323402	-0.055111	0.000153
H113	H	-0.307129	0.001375	0.000156
H114	H	-0.340470	-0.069295	-0.061695
N115	N	-0.548130	0.004125	0.000136
H116	H	-0.486917	-0.002745	0.000140
H117	H	-0.559109	0.024584	-0.061710
H118	H	-0.396324	-0.089777	0.000155
