data_functionalizedCrystal
_audit_creation_method	'MofGen! by Chris Wilmer'
_symmetry_space_group_name_H-M	'P1'
_symmetry_Int_Tables_number	1
_symmetry_cell_setting	triclinic
loop_
_symmetry_equiv_pos_as_xyz
  x,y,z
_cell_length_a	29.999520
_cell_length_b	29.998686
_cell_length_c	29.995014
_cell_angle_alpha	60.005185
_cell_angle_beta	60.010401
_cell_angle_gamma	59.993433
loop_
_atom_site_label
_atom_site_type_symbol
_atom_site_fract_x
_atom_site_fract_y
_atom_site_fract_z
O1	O	0.061772	-0.651300	0.544623
O2	O	0.561772	-0.151300	1.044623
O3	O	0.023267	-0.507084	0.438819
O4	O	0.523267	-0.007084	0.938819
O5	O	0.114589	-0.598332	0.438743
O6	O	0.614589	-0.098332	0.938743
O7	O	-0.029550	-0.560051	0.544699
O8	O	0.470450	-0.060051	1.044699
O9	O	0.144886	-0.568039	0.468961
O10	O	0.644886	-0.068039	0.968961
O11	O	0.053564	-0.476791	0.469038
O12	O	0.553564	0.023209	0.969038
O13	O	0.092069	-0.621007	0.574841
O14	O	0.592069	-0.121007	1.074841
Zn15	Zn	0.077627	-0.544089	0.526737
Zn16	Zn	0.577627	-0.044089	1.026737
Zn17	Zn	0.037709	-0.584002	0.486923
Zn18	Zn	0.537709	-0.084002	0.986923
O19	O	0.000748	-0.529758	0.574918
O20	O	0.500748	-0.029758	1.074918
N21	N	0.104871	-0.516854	0.553912
N22	N	0.604871	-0.016854	1.053912
N23	N	0.010470	-0.611242	0.459748
N24	N	0.510470	-0.111242	0.959748
C25	C	0.143162	-0.478782	0.827124
C26	C	0.643162	0.021218	1.327124
C27	C	0.378203	-0.478734	0.591892
C28	C	0.878203	0.021266	1.091892
C29	C	0.143005	-0.478752	0.591997
C30	C	0.643005	0.021248	1.091997
C31	C	0.142986	-0.243586	0.592008
C32	C	0.642986	0.256414	1.092008
C33	C	0.180857	-0.357087	0.629814
C34	C	0.680857	0.142913	1.129814
C35	C	0.180866	-0.440920	0.629807
C36	C	0.680866	0.059080	1.129807
C37	C	0.201840	-0.419964	0.650755
C38	C	0.701840	0.080036	1.150755
C39	C	0.293272	-0.404201	0.602606
C40	C	0.793272	0.095799	1.102606
C41	C	0.350426	-0.423248	0.583534
C42	C	0.850426	0.076752	1.083534
C43	C	0.350451	-0.515727	0.618798
C44	C	0.850451	-0.015727	1.118798
C45	C	0.293297	-0.496678	0.637872
C46	C	0.793297	0.003322	1.137872
C47	C	0.194628	-0.328499	0.573626
C48	C	0.694628	0.171501	1.073626
C49	C	0.175551	-0.271340	0.554591
C50	C	0.675551	0.228660	1.054591
C51	C	0.128936	-0.271362	0.647935
C52	C	0.628936	0.228638	1.147935
C53	C	0.148014	-0.328521	0.666970
C54	C	0.648014	0.171479	1.166970
C55	C	0.124672	-0.427119	0.643641
C56	C	0.624672	0.072881	1.143641
C57	C	0.105611	-0.446170	0.624592
C58	C	0.605611	0.053830	1.124592
C59	C	0.198934	-0.492820	0.577889
C60	C	0.698934	0.007180	1.077889
C61	C	0.217998	-0.473770	0.596931
C62	C	0.717998	0.026230	1.096931
C63	C	0.124740	-0.427136	0.742229
C64	C	0.624740	0.072864	1.242229
C65	C	0.105728	-0.446202	0.799386
C66	C	0.605728	0.053798	1.299386
C67	C	0.199085	-0.492863	0.799337
C68	C	0.699085	0.007137	1.299337
C69	C	0.218096	-0.473798	0.742178
C70	C	0.718096	0.026202	1.242178
C71	C	0.180923	-0.440933	0.713626
C72	C	0.680923	0.059067	1.213626
C73	C	0.264710	-0.440915	0.629773
C74	C	0.764710	0.059085	1.129773
C75	C	0.121509	-0.499370	0.889991
C76	C	0.621509	0.000630	1.389991
C77	C	0.441068	-0.498953	0.570621
C78	C	0.941068	0.001047	1.070621
C79	C	0.121297	-0.499349	0.571429
C80	C	0.621297	0.000651	1.071429
C81	C	0.121653	-0.180715	0.571802
C82	C	0.621653	0.319285	1.071802
C83	C	-0.111071	-0.648912	0.421584
C84	C	0.388929	-0.148912	0.921584
C85	C	-0.027286	-0.649018	0.421777
C86	C	0.472714	-0.149018	0.921777
C87	C	-0.048200	-0.669944	0.400740
C88	C	0.451800	-0.169944	0.900740
C89	C	-0.064036	-0.761340	0.448814
C90	C	0.435964	-0.261340	0.948814
C91	C	-0.045033	-0.818500	0.467893
C92	C	0.454967	-0.318500	0.967893
C93	C	0.047447	-0.818609	0.432797
C94	C	0.547447	-0.318609	0.932797
C95	C	0.028444	-0.761451	0.413717
C96	C	0.528444	-0.261451	0.913717
C97	C	-0.139731	-0.662677	0.477755
C98	C	0.360269	-0.162677	0.977755
C99	C	-0.196885	-0.643554	0.496701
C100	C	0.303115	-0.143554	0.996701
C101	C	-0.196717	-0.596907	0.403303
C102	C	0.303283	-0.096907	0.903303
C103	C	-0.139562	-0.616030	0.384357
C104	C	0.360438	-0.116030	0.884357
C105	C	-0.041053	-0.592827	0.407952
C106	C	0.458947	-0.092827	0.907952
C107	C	-0.022041	-0.573809	0.427083
C108	C	0.477959	-0.073809	0.927083
C109	C	0.024504	-0.667167	0.473848
C110	C	0.524504	-0.167167	0.973848
C111	C	0.005492	-0.686188	0.454725
C112	C	0.505492	-0.186188	0.954725
C113	C	-0.040886	-0.592836	0.309259
C114	C	0.459114	-0.092836	0.809259
C115	C	-0.021740	-0.573821	0.252102
C116	C	0.478260	-0.073821	0.752102
C117	C	0.024886	-0.667185	0.252163
C118	C	0.524886	-0.167185	0.752163
C119	C	0.005743	-0.686199	0.309322
C120	C	0.505743	-0.186199	0.809322
C121	C	-0.027145	-0.649023	0.337868
C122	C	0.472855	-0.149023	0.837868
C123	C	-0.027299	-0.732818	0.421728
C124	C	0.472701	-0.232818	0.921728
N125	N	0.492511	-0.516826	0.553742
N126	N	0.992511	-0.016826	1.053742
O127	O	0.679283	-0.525926	0.419277
O128	O	1.179283	-0.025926	0.919277
O129	O	0.679465	-0.632059	0.563349
O130	O	1.179465	-0.132059	1.063349
O131	O	0.679393	-0.631817	0.471975
O132	O	1.179393	-0.131817	0.971975
O133	O	0.679355	-0.526168	0.510650
O134	O	1.179355	-0.026168	1.010650
O135	O	0.588593	-0.601610	0.502313
O136	O	1.088593	-0.101610	1.002313
O137	O	0.588665	-0.601852	0.593686
O138	O	1.088665	-0.101852	1.093686
O139	O	0.588483	-0.495720	0.449614
O140	O	1.088483	0.004280	0.949614
Zn141	Zn	0.574158	-0.543990	0.526467
Zn142	Zn	1.074158	-0.043990	1.026467
Zn143	Zn	0.693790	-0.583788	0.486496
Zn144	Zn	1.193790	-0.083788	0.986496
O145	O	0.588555	-0.495962	0.540987
O146	O	1.088555	0.004038	1.040987
N147	N	0.775436	-0.610952	0.459215
N148	N	1.275436	-0.110952	0.959215
N149	N	0.104844	-0.129269	0.553931
N150	N	0.604844	0.370731	1.053931
O151	O	-0.029548	0.057600	0.544709
O152	O	0.470452	0.557600	1.044709
O153	O	0.114530	0.057617	0.438578
O154	O	0.614530	0.557617	0.938578
O155	O	0.023130	0.057594	0.438850
O156	O	0.523130	0.557594	0.938850
O157	O	0.061852	0.057623	0.544437
O158	O	0.561852	0.557623	1.044437
O159	O	0.053431	-0.033213	0.469115
O160	O	0.553431	0.466787	0.969115
O161	O	0.144831	-0.033190	0.468843
O162	O	0.644831	0.466810	0.968843
O163	O	0.000753	-0.033207	0.574974
O164	O	0.500753	0.466793	1.074974
Zn165	Zn	0.077603	-0.047616	0.526714
Zn166	Zn	0.577603	0.452384	1.026714
Zn167	Zn	0.037680	0.072026	0.486838
Zn168	Zn	0.537680	0.572026	0.986838
O169	O	0.092153	-0.033184	0.574702
O170	O	0.592153	0.466816	1.074702
N171	N	0.010432	0.153679	0.459622
N172	N	0.510432	0.653679	0.959622
N173	N	0.105130	-0.516904	0.941437
N174	N	0.605130	-0.016904	1.441437
O175	O	0.095923	-0.651280	1.128292
O176	O	0.595923	-0.151280	1.628292
O177	O	-0.010184	-0.507155	1.128318
O178	O	0.489816	-0.007155	1.628318
O179	O	-0.009938	-0.598539	1.128284
O180	O	0.490062	-0.098539	1.628284
O181	O	0.095677	-0.559897	1.128326
O182	O	0.595677	-0.059897	1.628326
O183	O	0.020315	-0.568257	1.037481
O184	O	0.520315	-0.068257	1.537481
O185	O	0.020068	-0.476874	1.037515
O186	O	0.520068	0.023126	1.537515
O187	O	0.126176	-0.620999	1.037489
O188	O	0.626176	-0.120999	1.537489
Zn189	Zn	0.077925	-0.544128	1.023085
Zn190	Zn	0.577925	-0.044128	1.523085
Zn191	Zn	0.038066	-0.584026	1.142722
Zn192	Zn	0.538066	-0.084026	1.642722
O193	O	0.125929	-0.529616	1.037523
O194	O	0.625929	-0.029616	1.537523
N195	N	0.010860	-0.611256	1.224371
N196	N	0.510860	-0.111256	1.724371
C197	C	0.034807	-0.473765	0.439352
C198	C	0.534807	0.026235	0.939352
C199	C	0.147897	-0.586765	0.439257
C200	C	0.647897	-0.086765	0.939257
C201	C	0.080529	-0.654326	0.574308
C202	C	0.580529	-0.154326	1.074308
C203	C	-0.032561	-0.541326	0.574403
C204	C	0.467439	-0.041326	1.074403
C205	C	0.634087	-0.631571	0.596668
C206	C	1.134087	-0.131571	1.096668
C207	C	0.633999	-0.631272	0.483513
C208	C	1.133999	-0.131272	0.983513
C209	C	0.633858	-0.496206	0.416295
C210	C	1.133858	0.003794	0.916295
C211	C	0.633949	-0.496507	0.529449
C212	C	1.133949	0.003493	1.029449
C213	C	0.147793	0.012327	0.439058
C214	C	0.647793	0.512327	0.939058
C215	C	0.034644	0.012187	0.439432
C216	C	0.534644	0.512187	0.939432
C217	C	-0.032548	0.012195	0.574457
C218	C	0.467452	0.512195	1.074457
C219	C	0.080639	0.012222	0.574120
C220	C	0.580639	0.512222	1.074120
C221	C	-0.009670	-0.473857	1.082920
C222	C	0.490330	0.026143	1.582920
C223	C	-0.009359	-0.587018	1.082860
C224	C	0.490641	-0.087018	1.582860
C225	C	0.125662	-0.654297	1.082887
C226	C	0.625662	-0.154297	1.582887
C227	C	0.125358	-0.541129	1.082927
C228	C	0.625358	-0.041129	1.582927
H229	H	0.059977	-0.434960	0.822668
H230	H	0.559977	0.065040	1.322668
H231	H	-0.073925	0.012190	0.607776
H232	H	0.426075	0.512190	1.107776
H233	H	0.088756	-0.695753	0.607538
H234	H	0.588756	-0.195753	1.107538
O235	O	0.634126	-0.671376	0.646007
O236	O	1.134126	-0.171376	1.146007
C237	C	0.634172	-0.718386	0.645979
C238	C	1.134172	-0.218386	1.145979
H239	H	0.616948	-0.706288	0.613666
H240	H	1.116948	-0.206288	1.113666
H241	H	0.607856	-0.738841	0.687841
H242	H	1.107856	-0.238841	1.187841
H243	H	0.677747	-0.748040	0.636411
H244	H	1.177747	-0.248040	1.136411
O245	O	-0.081973	-0.531654	0.614084
O246	O	0.418027	-0.031654	1.114084
C247	C	-0.106174	-0.569156	0.628793
C248	C	0.393826	-0.069156	1.128793
H249	H	-0.088115	-0.585087	0.593769
H250	H	0.411885	-0.085087	1.093769
H251	H	-0.152109	-0.547966	0.637765
H252	H	0.347891	-0.047966	1.137765
H253	H	-0.097869	-0.604741	0.666738
H254	H	0.402131	-0.104741	1.166738
H255	H	-0.116227	-0.604815	0.338615
H256	H	0.383773	-0.104815	0.838615
H257	H	0.633941	-0.463320	0.537725
H258	H	1.133941	0.036680	1.037725
O259	O	0.165475	-0.703638	1.082855
O260	O	0.665475	-0.203638	1.582855
C261	C	0.212459	-0.703638	1.082882
C262	C	0.712459	-0.203638	1.582882
H263	H	0.211808	-0.659841	1.065704
H264	H	0.711808	-0.159841	1.565704
H265	H	0.250460	-0.727913	1.056515
H266	H	0.750460	-0.227913	1.556515
H267	H	0.213104	-0.723158	1.126447
H268	H	0.713104	-0.223158	1.626447
H269	H	0.088930	0.012231	0.607291
H270	H	0.588930	0.512231	1.107291
O271	O	0.633991	-0.670800	0.473562
O272	O	1.133991	-0.170800	0.973562
C273	C	0.633950	-0.650914	0.419899
C274	C	1.133950	-0.150914	0.919899
H275	H	0.616719	-0.604408	0.405552
H276	H	1.116719	-0.104408	0.905552
H277	H	0.607596	-0.667558	0.419126
H278	H	1.107596	-0.167558	0.919126
H279	H	0.677500	-0.664696	0.391626
H280	H	1.177500	-0.164696	0.891626
O281	O	-0.049363	-0.424455	1.082952
O282	O	0.450637	0.075545	1.582952
C283	C	-0.029707	-0.390477	1.082955
C284	C	0.470293	0.109523	1.582955
H285	H	0.005343	-0.416735	1.100148
H286	H	0.505343	0.083265	1.600148
H287	H	-0.064017	-0.364320	1.109324
H288	H	0.435983	0.135680	1.609324
H289	H	-0.014554	-0.362903	1.039397
H290	H	0.485446	0.137097	1.539397
O291	O	0.633812	-0.456519	0.366898
O292	O	1.133812	0.043481	0.866898
C293	C	0.633781	-0.476171	0.332928
C294	C	1.133781	0.023829	0.832928
H295	H	0.651017	-0.522679	0.347690
H296	H	1.151017	-0.022679	0.847690
H297	H	0.660094	-0.459404	0.289183
H298	H	1.160094	0.040596	0.789183
H299	H	0.590208	-0.462323	0.334442
H300	H	1.090208	0.037677	0.834442
H301	H	-0.042525	-0.595273	1.082811
H302	H	0.457475	-0.095273	1.582811
O303	O	0.024746	0.012271	0.399812
O304	O	0.524746	0.512271	0.899812
C305	C	0.030796	0.059291	0.353761
C306	C	0.530796	0.559291	0.853761
H307	H	0.024889	0.092172	0.366814
H308	H	0.524889	0.592172	0.866814
H309	H	-0.001027	0.075064	0.334413
H310	H	0.498973	0.575064	0.834413
H311	H	0.073417	0.048660	0.322819
H312	H	0.573417	0.548660	0.822819
O313	O	0.164959	-0.531211	1.082837
O314	O	0.664959	-0.031211	1.582837
C315	C	0.177476	-0.486988	1.035824
C316	C	0.677476	0.013012	1.535824
H317	H	0.165478	-0.482684	1.002951
H318	H	0.665478	0.017316	1.502951
H319	H	0.223155	-0.494681	1.020039
H320	H	0.723155	0.005319	1.520039
H321	H	0.153919	-0.447841	1.046467
H322	H	0.653919	0.052159	1.546467
O323	O	0.088553	-0.395236	0.714578
O324	O	0.588553	0.104764	1.214578
C325	C	0.034887	-0.387132	0.752081
C326	C	0.534887	0.112868	1.252081
H327	H	0.035019	-0.421597	0.792816
H328	H	0.535019	0.078403	1.292816
H329	H	0.007734	-0.386832	0.735583
H330	H	0.507734	0.113168	1.235583
H331	H	0.018512	-0.346417	0.758168
H332	H	0.518512	0.153583	1.258168
O333	O	0.064061	-0.733659	0.387374
O334	O	0.564061	-0.233659	0.887374
C335	C	0.035335	-0.677069	0.372261
C336	C	0.535335	-0.177069	0.872261
H337	H	-0.004776	-0.669218	0.369719
H338	H	0.495224	-0.169218	0.869719
H339	H	0.061053	-0.655386	0.330777
H340	H	0.561053	-0.155386	0.830777
H341	H	0.026500	-0.660842	0.404064
H342	H	0.526500	-0.160842	0.904064
O343	O	0.235271	-0.524793	0.826984
O344	O	0.735271	-0.024793	1.326984
C345	C	0.288935	-0.532864	0.789479
C346	C	0.788935	-0.032864	1.289479
H347	H	0.288804	-0.526475	0.748744
H348	H	0.788804	-0.026475	1.248744
H349	H	0.316096	-0.576212	0.805972
H350	H	0.816096	-0.076212	1.305972
H351	H	0.305301	-0.502435	0.783392
H352	H	0.805301	-0.002435	1.283392
O353	O	0.272663	-0.487107	0.714335
O354	O	0.772663	0.012893	1.214335
C355	C	0.286454	-0.439079	0.681284
C356	C	0.786454	0.060921	1.181284
H357	H	0.248775	-0.403164	0.672742
H358	H	0.748775	0.096836	1.172742
H359	H	0.319581	-0.444184	0.641081
H360	H	0.819581	0.055816	1.141081
H361	H	0.302160	-0.431051	0.703301
H362	H	0.802160	0.068949	1.203301
H363	H	0.189085	0.012584	0.405656
H364	H	0.689085	0.512584	0.905656
O365	O	0.088580	-0.395129	0.675492
O366	O	0.588580	0.104871	1.175492
C367	C	0.055499	-0.347195	0.646657
C368	C	0.555499	0.152805	1.146657
H369	H	0.077544	-0.339238	0.600926
H370	H	0.577544	0.160762	1.100926
H371	H	0.046858	-0.311194	0.656889
H372	H	0.546858	0.188806	1.156889
H373	H	0.015345	-0.352391	0.658839
H374	H	0.515345	0.147609	1.158839
H375	H	0.189295	-0.594927	0.405983
H376	H	0.689295	-0.094927	0.905983
O377	O	0.188994	-0.243650	0.499989
O378	O	0.688994	0.256350	0.999989
C379	C	0.222061	-0.281121	0.471276
C380	C	0.722061	0.218879	0.971276
H381	H	0.242866	-0.321868	0.498520
H382	H	0.742866	0.178132	0.998520
H383	H	0.254377	-0.264595	0.433124
H384	H	0.754377	0.235405	0.933124
H385	H	0.195681	-0.287200	0.458966
H386	H	0.695681	0.212800	0.958966
H387	H	0.059853	-0.434921	0.635844
H388	H	0.559853	0.065079	1.135844
H389	H	0.263756	-0.485001	0.585661
H390	H	0.763756	0.014999	1.085661
O391	O	0.235079	-0.524709	0.545943
O392	O	0.735079	-0.024709	1.045943
C393	C	0.288763	-0.532815	0.537836
C394	C	0.788763	-0.032815	1.037836
H395	H	0.288660	-0.498356	0.544225
H396	H	0.788660	0.001644	1.044225
H397	H	0.315877	-0.533105	0.494481
H398	H	0.815877	-0.033105	0.994481
H399	H	0.305163	-0.573536	0.568245
H400	H	0.805163	-0.073536	1.068245
O401	O	0.265635	-0.532414	0.664229
O402	O	0.765635	-0.032414	1.164229
C403	C	0.303126	-0.585718	0.667294
C404	C	0.803126	-0.085718	1.167294
H405	H	0.343853	-0.583540	0.633524
H406	H	0.843853	-0.083540	1.133524
H407	H	0.286606	-0.609178	0.662126
H408	H	0.786606	-0.109178	1.162126
H409	H	0.309234	-0.607540	0.708707
H410	H	0.809234	-0.107540	1.208707
H411	H	0.373728	-0.561133	0.625383
H412	H	0.873728	-0.061133	1.125383
H413	H	0.270000	-0.358795	0.596010
H414	H	0.770000	0.141205	1.096010
O415	O	0.378089	-0.387508	0.557132
O416	O	0.878089	0.112492	1.057132
C417	C	0.340600	-0.334206	0.554085
C418	C	0.840600	0.165794	1.054085
H419	H	0.299852	-0.331982	0.557845
H420	H	0.799852	0.168018	1.057845
H421	H	0.357092	-0.303998	0.513233
H422	H	0.857092	0.196002	1.013233
H423	H	0.334542	-0.323538	0.588712
H424	H	0.834542	0.176462	1.088712
H425	H	0.221368	-0.351757	0.543370
H426	H	0.721368	0.148243	1.043370
H427	H	0.102202	-0.248101	0.678192
H428	H	0.602202	0.251899	1.178192
O429	O	0.101579	-0.846450	0.425116
O430	O	0.601579	-0.346450	0.925116
C431	C	0.109258	-0.879519	0.476177
C432	C	0.609258	-0.379519	0.976177
H433	H	0.073042	-0.862256	0.509095
H434	H	0.573042	-0.362256	1.009095
H435	H	0.148330	-0.880214	0.474661
H436	H	0.648330	-0.380214	0.974661
H437	H	0.112612	-0.922825	0.486065
H438	H	0.612612	-0.422825	0.986065
H439	H	0.026581	-0.432337	0.406123
H440	H	0.526581	0.067663	0.906123
O441	O	0.134607	-0.356210	0.721572
O442	O	0.634607	0.143790	1.221572
C443	C	0.101515	-0.318739	0.750285
C444	C	0.601515	0.181261	1.250285
H445	H	0.108787	-0.277989	0.723029
H446	H	0.608787	0.222011	1.223029
H447	H	0.112252	-0.335261	0.788420
H448	H	0.612252	0.164739	1.288420
H449	H	0.056747	-0.312669	0.762625
H450	H	0.556747	0.187331	1.262625
O451	O	-0.035193	-0.519231	0.224342
O452	O	0.464807	-0.019231	0.724342
C453	C	-0.092432	-0.495439	0.238218
C454	C	0.407568	0.004561	0.738218
H455	H	-0.110869	-0.527953	0.253885
H456	H	0.389131	-0.027953	0.753885
H457	H	-0.103305	-0.461744	0.200589
H458	H	0.396695	0.038256	0.700589
H459	H	-0.109405	-0.477383	0.271398
H460	H	0.390595	0.022617	0.771398
O461	O	0.056838	-0.703372	0.224522
O462	O	0.556838	-0.203372	0.724522
C463	C	0.064844	-0.757041	0.262033
C464	C	0.564844	-0.257041	0.762033
H465	H	0.058394	-0.756926	0.302798
H466	H	0.558394	-0.256926	0.802798
H467	H	0.108191	-0.784227	0.245592
H468	H	0.608191	-0.284227	0.745592
H469	H	0.034422	-0.773368	0.268041
H470	H	0.534422	-0.273368	0.768041
O471	O	-0.072746	-0.556704	0.336970
O472	O	0.427254	-0.056704	0.836970
C473	C	-0.043874	-0.523701	0.323061
C474	C	0.456126	-0.023701	0.823061
H475	H	0.001851	-0.545820	0.307419
H476	H	0.501851	-0.045820	0.807419
H477	H	-0.054146	-0.515056	0.360666
H478	H	0.445854	-0.015056	0.860666
H479	H	-0.055981	-0.483542	0.289852
H480	H	0.444019	0.016458	0.789852
H481	H	0.016937	-0.731954	0.332612
H482	H	0.516937	-0.231954	0.832612
H483	H	-0.033252	-0.528055	0.415829
H484	H	0.466748	-0.028055	0.915829
O485	O	-0.072974	-0.556696	0.376033
O486	O	0.427026	-0.056696	0.876033
C487	C	-0.120922	-0.523596	0.404828
C488	C	0.379078	-0.023596	0.904828
H489	H	-0.128944	-0.545650	0.450568
H490	H	0.371056	-0.045650	0.950568
H491	H	-0.156887	-0.514910	0.394515
H492	H	0.343113	-0.014910	0.894515
H493	H	-0.115705	-0.483462	0.392686
H494	H	0.384295	0.016538	0.892686
H495	H	0.016700	-0.731943	0.465981
H496	H	0.516700	-0.231943	0.965981
O497	O	0.056403	-0.703329	0.505786
O498	O	0.556403	-0.203329	1.005786
C499	C	0.104363	-0.736414	0.476985
C500	C	0.604363	-0.236414	0.976985
H501	H	0.096757	-0.736964	0.443663
H502	H	0.596757	-0.236964	0.943663
H503	H	0.116357	-0.779758	0.506343
H504	H	0.616357	-0.279758	1.006343
H505	H	0.138756	-0.719274	0.457658
H506	H	0.638756	-0.219274	0.957658
O507	O	-0.080805	-0.846122	0.494279
O508	O	0.419195	-0.346122	0.994279
C509	C	-0.134083	-0.808593	0.497282
C510	C	0.365917	-0.308593	0.997282
H511	H	-0.136266	-0.767844	0.493477
H512	H	0.363734	-0.267844	0.993477
H513	H	-0.164313	-0.825040	0.538137
H514	H	0.335687	-0.325040	1.038137
H515	H	-0.144752	-0.802549	0.462661
H516	H	0.355248	-0.302549	0.962661
H517	H	-0.116534	-0.689457	0.508068
H518	H	0.383466	-0.189457	1.008068
O519	O	-0.224644	-0.656999	0.551287
O520	O	0.275356	-0.156999	1.051287
C521	C	-0.187241	-0.690113	0.580081
C522	C	0.312759	-0.190113	1.080081
H523	H	-0.146475	-0.710931	0.552875
H524	H	0.353525	-0.210931	1.052875
H525	H	-0.203816	-0.722422	0.618200
H526	H	0.296184	-0.222422	1.118200
H527	H	-0.181187	-0.663765	0.592453
H528	H	0.318813	-0.163765	1.092453
O529	O	-0.224312	-0.564958	0.367069
O530	O	0.275688	-0.064958	0.867069
C531	C	-0.186760	-0.556930	0.313426
C532	C	0.313240	-0.056930	0.813426
H533	H	-0.146039	-0.563364	0.313612
H534	H	0.353961	-0.063364	0.813612
H535	H	-0.203210	-0.513580	0.286246
H536	H	0.296790	-0.013580	0.786246
H537	H	-0.180667	-0.587355	0.297042
H538	H	0.319333	-0.087355	0.797042
O539	O	-0.118159	-0.733461	0.456491
O540	O	0.381841	-0.233461	0.956491
C541	C	-0.125828	-0.700417	0.405424
C542	C	0.374172	-0.200417	0.905424
H543	H	-0.086496	-0.691915	0.373641
H544	H	0.413504	-0.191915	0.873641
H545	H	-0.160124	-0.660193	0.408663
H546	H	0.339876	-0.160193	0.908663
H547	H	-0.137067	-0.722422	0.392672
H548	H	0.362933	-0.222422	0.892672
