data_functionalizedCrystal
_audit_creation_method	'MofGen! by Chris Wilmer'
_symmetry_space_group_name_H-M	'P1'
_symmetry_Int_Tables_number	1
_symmetry_cell_setting	triclinic
loop_
_symmetry_equiv_pos_as_xyz
  x,y,z
_cell_length_a	17.077404
_cell_length_b	11.169416
_cell_length_c	17.077396
_cell_angle_alpha	90.022666
_cell_angle_beta	90.019501
_cell_angle_gamma	90.010565
loop_
_atom_site_label
_atom_site_type_symbol
_atom_site_fract_x
_atom_site_fract_y
_atom_site_fract_z
Zn1	Zn	1.200123	-0.477800	0.443874
Zn2	Zn	1.200059	-0.678512	0.312622
Zn3	Zn	1.068855	-0.477842	0.312622
Zn4	Zn	1.068852	-0.678440	0.443845
O5	O	1.134472	-0.578149	0.378241
O6	O	1.309961	-0.504437	0.426475
O7	O	1.182629	-0.651940	0.202775
O8	O	1.086296	-0.309887	0.330046
O9	O	1.309914	-0.651899	0.330045
O10	O	1.182738	-0.309856	0.426476
O11	O	1.086234	-0.504509	0.202775
O12	O	0.959008	-0.504440	0.330017
O13	O	1.086291	-0.651778	0.553696
O14	O	0.959005	-0.651818	0.426426
O15	O	1.182735	-0.504368	0.553718
O16	O	1.182626	-0.846452	0.330016
O17	O	1.086228	-0.846400	0.426426
C18	C	0.930524	-0.578127	0.378219
C19	C	0.843274	-0.578146	0.378229
C20	C	0.802304	-0.655002	0.428348
C21	C	0.720323	-0.655005	0.428361
C22	C	0.679315	-0.578157	0.378249
C23	C	0.720292	-0.501292	0.328127
C24	C	0.802271	-0.501285	0.328119
C25	C	0.549422	-0.501316	0.328146
C26	C	0.467437	-0.501325	0.328153
C27	C	0.467474	-0.655036	0.428388
C28	C	0.549453	-0.655029	0.428380
C29	C	0.590424	-0.578165	0.378257
C30	C	1.134441	-0.889973	0.378235
C31	C	1.134500	-1.023373	0.378259
C32	C	1.339216	-0.578171	0.378263
C33	C	1.426466	-0.578181	0.378273
C34	C	1.134520	-0.578060	0.582985
C35	C	1.134540	-0.578022	0.670235
C36	C	1.134525	-0.265106	0.378264
C37	C	1.134547	-0.131706	0.378274
C38	C	1.134470	-0.578150	0.174293
C39	C	1.134602	-0.577850	0.087044
C40	C	1.184760	-0.501260	0.711238
C41	C	1.184770	-0.501220	0.793218
C42	C	1.134562	-0.577949	0.834195
C43	C	1.084336	-0.654715	0.793186
C44	C	1.084323	-0.654748	0.711207
C45	C	1.084368	-0.654643	0.964057
C46	C	1.084381	-0.654612	1.046041
C47	C	1.184814	-0.501115	1.046067
C48	C	1.184801	-0.501148	0.964088
C49	C	1.134576	-0.577916	0.923086
H50	H	0.582840	-0.717612	0.469181
H51	H	1.225666	-0.438715	0.826599
O52	O	1.035645	-0.729300	1.085766
C53	C	0.997522	-0.933425	1.110886
C54	C	1.052752	-0.848981	1.065832
H55	H	1.011344	-1.030206	1.094798
H56	H	0.934214	-0.912434	1.094749
H57	H	1.006155	-0.920144	1.176516
H58	H	1.044189	-0.862216	1.000192
H59	H	1.116039	-0.869993	1.082033
H60	H	0.434112	-0.717618	0.469202
O61	O	1.233614	-0.426892	0.671400
C62	C	1.339548	-0.410777	0.578826
C63	C	1.284286	-0.495142	0.623904
H64	H	1.380519	-0.465921	0.540402
H65	H	1.375499	-0.355922	0.622180
H66	H	1.303492	-0.348012	0.540481
H67	H	1.320280	-0.557979	0.662251
H68	H	1.248332	-0.549913	0.580508
O69	O	1.233642	-0.426775	0.924239
C70	C	1.339548	-0.410641	0.831634
C71	C	1.284309	-0.495016	0.876733
H72	H	1.380515	-0.465779	0.793202
H73	H	1.375504	-0.355769	0.874975
H74	H	1.303473	-0.347892	0.793295
H75	H	1.320322	-0.557837	0.915073
H76	H	1.248350	-0.549803	0.833350
H77	H	0.686968	-0.717590	0.469173
H78	H	1.043421	-0.717244	0.677824
O79	O	1.233520	-0.426563	1.086014
C80	C	1.278067	-0.358501	1.212319
C81	C	1.222860	-0.442968	1.167174
H82	H	1.269480	-0.371753	1.277945
H83	H	1.264289	-0.261709	1.196256
H84	H	1.341351	-0.379570	1.196171
H85	H	1.159557	-0.422008	1.183298
H86	H	1.236705	-0.539735	1.183241
O87	O	0.842014	-0.729692	0.477102
C88	C	0.833389	-0.882194	0.576494
C89	C	0.788323	-0.797652	0.521330
H90	H	0.789999	-0.937180	0.612255
H91	H	0.871770	-0.827225	0.617648
H92	H	0.871770	-0.944827	0.540373
H93	H	0.749899	-0.735003	0.557388
H94	H	0.749991	-0.852696	0.480174
H95	H	0.835628	-0.438694	0.287311
H96	H	0.434050	-0.438734	0.287357
H97	H	0.686896	-0.438716	0.287329
H98	H	0.582778	-0.438715	0.287338
O99	O	1.035695	-0.729276	0.924133
C100	C	1.025122	-0.891391	0.831588
C101	C	1.080321	-0.806925	0.876743
H102	H	1.061181	-0.954208	0.793275
H103	H	0.984094	-0.836370	0.793148
H104	H	0.989220	-0.946185	0.874962
H105	H	1.116274	-0.752113	0.833425
H106	H	1.121297	-0.862015	0.915195
O107	O	1.035451	-0.729124	0.832952
C108	C	0.901923	-0.787410	0.857969
C109	C	0.957194	-0.703043	0.812903
H110	H	0.838641	-0.766371	0.841764
H111	H	0.910490	-0.774203	0.923615
H112	H	0.915729	-0.884185	0.841851
H113	H	0.943421	-0.606236	0.828956
H114	H	0.948616	-0.716354	0.747268
