data_functionalizedCrystal
_audit_creation_method	'MofGen! by Chris Wilmer'
_symmetry_space_group_name_H-M	'P1'
_symmetry_Int_Tables_number	1
_symmetry_cell_setting	triclinic
loop_
_symmetry_equiv_pos_as_xyz
  x,y,z
_cell_length_a	10.489741
_cell_length_b	10.654550
_cell_length_c	9.565339
_cell_angle_alpha	89.999688
_cell_angle_beta	89.994586
_cell_angle_gamma	84.512038
loop_
_atom_site_label
_atom_site_type_symbol
_atom_site_fract_x
_atom_site_fract_y
_atom_site_fract_z
O1	O	-1.693955	-0.177186	-0.116170
O2	O	-1.322752	-0.193819	-0.116191
O3	O	-1.516888	-0.002767	-0.116175
O4	O	-1.499819	-0.368238	-0.116186
O5	O	-1.516897	-0.002773	0.116345
O6	O	-1.322760	-0.193824	0.116329
O7	O	-1.693964	-0.177192	0.116350
Zn8	Zn	-1.508363	-0.185509	0.153257
Zn9	Zn	-1.508352	-0.185502	-0.153098
O10	O	-1.499827	-0.368243	0.116334
C11	C	-1.275225	-0.192565	0.000066
C12	C	-1.133597	-0.188807	0.000058
C13	C	-1.515639	0.044029	0.000084
C14	C	-1.511889	0.183474	0.000079
C15	C	-1.741491	-0.178445	0.000090
C16	C	-1.883118	-0.182204	0.000089
C17	C	-1.065516	-0.067246	0.000075
C18	C	-0.973357	-0.124668	-0.114568
C19	C	-0.973399	-0.124702	0.114678
C20	C	-1.043304	-0.246278	-0.114680
C21	C	-1.043356	-0.246296	0.114670
C22	C	-0.951224	-0.303805	-0.000002
C23	C	-1.501076	-0.415039	0.000073
C24	C	-1.504826	-0.554484	0.000069
N25	N	-1.508380	-0.185513	0.362337
C26	C	-1.626194	0.262906	0.000089
C27	C	-1.622663	0.393928	0.000079
C28	C	-1.390513	0.366074	0.000054
C29	C	-1.394045	0.235054	0.000054
C30	C	-1.760224	0.278989	0.000110
C31	C	-1.756693	0.410011	0.000100
N32	N	-1.508345	-0.185487	-0.362177
C33	C	-1.598191	-0.097164	0.453510
C34	C	-1.482708	-0.071728	0.546674
C35	C	-1.623818	-0.210868	0.546728
C36	C	-1.392839	-0.160020	0.453449
C37	C	-1.534025	-0.299210	0.453495
C38	C	-1.418459	-0.273821	0.546617
H39	H	-1.115254	0.032684	-0.000065
H40	H	-1.300967	0.170383	0.000025
H41	H	-1.721456	-0.232324	0.587700
N42	N	-1.081910	-0.310731	-0.236430
N43	N	-0.999918	-0.353802	-0.323129
H44	H	-1.027184	-0.399317	-0.409118
N45	N	-0.934552	-0.060156	0.236257
N46	N	-0.876819	0.036544	0.223522
H47	H	-0.849385	0.082139	0.309381
H48	H	-0.901752	-0.403841	-0.000067
N49	N	-0.934439	-0.060161	-0.236151
N50	N	-0.859283	-0.116271	-0.321966
H51	H	-0.831799	-0.070709	-0.407830
N52	N	-1.270155	0.418785	0.000021
N53	N	-1.267015	0.535768	0.000010
H54	H	-1.182009	0.572995	-0.000014
H55	H	-1.295176	-0.138455	0.412649
H56	H	-1.807197	0.451745	0.097411
H57	H	-1.074380	-0.297691	0.211595
N58	N	-1.693362	-0.003392	0.402187
N59	N	-1.709255	0.011017	0.273469
H60	H	-1.776464	0.077246	0.237217
H61	H	-1.342410	-0.348528	0.587240
N62	N	-1.561320	-0.419808	0.402120
N63	N	-1.665175	-0.461867	0.431964
H64	H	-1.684466	-0.547040	0.395680
N65	N	-1.455473	0.048910	0.598009
N66	N	-1.528086	0.145088	0.568170
H67	H	-1.508859	0.230293	0.604418
H68	H	-1.812644	0.249608	-0.097189
N69	N	-1.813765	0.234274	0.126067
N70	N	-1.850909	0.310353	0.220391
H71	H	-1.888720	0.278774	0.309352
N72	N	-1.807489	0.467240	-0.125851
N73	N	-1.848486	0.400534	-0.220163
H74	H	-1.884355	0.440951	-0.309118
