data_functionalizedCrystal
_audit_creation_method	'MofGen! by Chris Wilmer'
_symmetry_space_group_name_H-M	'P1'
_symmetry_Int_Tables_number	1
_symmetry_cell_setting	triclinic
loop_
_symmetry_equiv_pos_as_xyz
  x,y,z
_cell_length_a	19.805407
_cell_length_b	12.827892
_cell_length_c	19.805399
_cell_angle_alpha	89.977471
_cell_angle_beta	89.980427
_cell_angle_gamma	90.015392
loop_
_atom_site_label
_atom_site_type_symbol
_atom_site_fract_x
_atom_site_fract_y
_atom_site_fract_z
Zn1	Zn	1.034788	-0.416057	-0.382743
Zn2	Zn	1.534788	0.083943	0.117257
Zn3	Zn	1.034724	-0.590812	-0.269565
Zn4	Zn	1.534724	-0.090812	0.230435
Zn5	Zn	0.921602	-0.416086	-0.269568
Zn6	Zn	1.421602	0.083914	0.230432
Zn7	Zn	0.921587	-0.590757	-0.382712
Zn8	Zn	1.421587	-0.090757	0.117288
O9	O	0.978175	-0.503428	-0.326147
O10	O	1.478175	-0.003428	0.173853
O11	O	1.129496	-0.439250	-0.367742
O12	O	1.629496	0.060750	0.132258
O13	O	1.019698	-0.567670	-0.174849
O14	O	1.519698	-0.067670	0.325151
O15	O	0.936649	-0.269846	-0.284595
O16	O	1.436649	0.230154	0.215405
O17	O	1.129449	-0.567642	-0.284590
O18	O	1.629449	-0.067642	0.215410
O19	O	1.019806	-0.269825	-0.367745
O20	O	1.519806	0.230175	0.132255
O21	O	0.936588	-0.439299	-0.174851
O22	O	1.436588	0.060701	0.325149
O23	O	0.826884	-0.439245	-0.284565
O24	O	1.326884	0.060755	0.215435
O25	O	0.936624	-0.567547	-0.477433
O26	O	1.436624	-0.067547	0.022567
O27	O	0.826873	-0.567575	-0.367691
O28	O	1.326873	-0.067575	0.132309
O29	O	1.019792	-0.439196	-0.477456
O30	O	1.519792	0.060804	0.022544
O31	O	1.019684	-0.737041	-0.284560
O32	O	1.519684	-0.237041	0.215440
O33	O	0.936563	-0.737000	-0.367688
O34	O	1.436563	-0.237000	0.132312
C35	C	0.802319	-0.503408	-0.326125
C36	C	1.302319	-0.003408	0.173875
C37	C	0.727087	-0.503425	-0.326132
C38	C	1.227087	-0.003425	0.173868
C39	C	0.691755	-0.570347	-0.369346
C40	C	1.191755	-0.070347	0.130654
C41	C	0.621067	-0.570349	-0.369355
C42	C	1.121067	-0.070349	0.130645
C43	C	0.585712	-0.503433	-0.326147
C44	C	1.085712	-0.003433	0.173853
C45	C	0.621049	-0.436504	-0.282931
C46	C	1.121049	0.063496	0.217069
C47	C	0.691736	-0.436497	-0.282926
C48	C	1.191736	0.063503	0.217074
C49	C	0.335975	-0.436527	-0.282954
C50	C	0.835975	0.063473	0.217046
C51	C	0.265283	-0.436540	-0.282961
C52	C	0.765283	0.063460	0.217039
C53	C	0.265306	-0.570378	-0.369383
C54	C	0.765306	-0.070378	0.130617
C55	C	0.335993	-0.570372	-0.369378
C56	C	0.835993	-0.070372	0.130622
C57	C	0.371324	-0.503439	-0.326165
C58	C	0.871324	-0.003439	0.173835
C59	C	0.447973	-0.503436	-0.326156
C60	C	0.947973	-0.003436	0.173844
C61	C	0.509065	-0.503440	-0.326152
C62	C	1.009065	-0.003440	0.173848
C63	C	0.978133	-0.774938	-0.326135
C64	C	1.478133	-0.274938	0.173865
C65	C	0.978177	-0.891091	-0.326153
C66	C	1.478177	-0.391091	0.173847
C67	C	1.019357	-0.942862	-0.285064
C68	C	1.519357	-0.442862	0.214936
C69	C	1.019403	-1.062912	-0.285081
C70	C	1.519403	-0.562912	0.214919
C71	C	1.154718	-0.503449	-0.326169
C72	C	1.654718	-0.003449	0.173831
C73	C	1.229950	-0.503458	-0.326179
C74	C	1.729950	-0.003458	0.173821
C75	C	0.978213	-0.503362	-0.502690
C76	C	1.478213	-0.003362	-0.002690
C77	C	0.978229	-0.503334	-0.577922
C78	C	1.478229	-0.003334	-0.077922
C79	C	0.978236	-0.230858	-0.326174
C80	C	1.478236	0.269142	0.173826
C81	C	0.978262	-0.114705	-0.326185
C82	C	1.478262	0.385295	0.173815
C83	C	1.021536	-0.436499	-0.613279
C84	C	1.521536	0.063501	-0.113279
C85	C	1.021543	-0.436468	-0.683968
C86	C	1.521543	0.063532	-0.183968
C87	C	0.978246	-0.503280	-0.719298
C88	C	1.478246	-0.003280	-0.219298
C89	C	0.934935	-0.570118	-0.683935
C90	C	1.434935	-0.070118	-0.183935
C91	C	0.934925	-0.570143	-0.613248
C92	C	1.434925	-0.070143	-0.113248
C93	C	0.934973	-0.570021	-0.969009
C94	C	1.434973	-0.070021	-0.469009
C95	C	0.934988	-0.569994	-1.039701
C96	C	1.434988	-0.069994	-0.539701
C97	C	1.021591	-0.436347	-1.039728
C98	C	1.521591	0.063653	-0.539728
C99	C	1.021581	-0.436371	-0.969041
C100	C	1.521581	0.063629	-0.469041
C101	C	0.978268	-0.503205	-0.933685
C102	C	1.478268	-0.003205	-0.433685
C103	C	0.978260	-0.503236	-0.857037
C104	C	1.478260	-0.003236	-0.357037
C105	C	0.978257	-0.503255	-0.795945
C106	C	1.478257	-0.003255	-0.295945
C107	C	0.978176	-0.503418	-0.150291
C108	C	1.478176	-0.003418	0.349709
C109	C	0.978291	-0.503152	-0.075060
C110	C	1.478291	-0.003152	0.424940
H111	H	0.236499	-0.382043	-0.247776
H112	H	0.736499	0.117957	0.252224
C113	C	0.930630	-1.054568	-0.373713
C114	C	1.430630	-0.554568	0.126287
N115	N	0.894754	-1.009266	-0.409512
N116	N	1.394754	-0.509266	0.090488
C117	C	0.582205	-0.643988	-0.416881
C118	C	1.082205	-0.143988	0.083119
N119	N	0.552934	-0.699464	-0.452675
N120	N	1.052934	-0.199464	0.047325
C121	C	0.887286	-0.643669	-0.574356
C122	C	1.387286	-0.143669	-0.074356
N123	N	0.851401	-0.699050	-0.545062
N124	N	1.351401	-0.199050	-0.045062
H125	H	0.942958	-0.935645	-0.361346
H126	H	1.442958	-0.435645	0.138654
C127	C	0.374880	-0.643985	-0.416909
C128	C	0.874880	-0.143985	0.083091
N129	N	0.404169	-0.699430	-0.452712
N130	N	0.904169	-0.199430	0.047288
H131	H	0.899680	-0.624514	-0.712707
H132	H	1.399680	-0.124514	-0.212707
C133	C	1.069229	-0.362814	-1.078626
C134	C	1.569229	0.137186	-0.578626
N135	N	1.105108	-0.307430	-1.107923
N136	N	1.605108	0.192570	-0.607923
C137	C	1.066940	-0.882676	-0.237521
C138	C	1.566940	-0.382676	0.262479
N139	N	1.102780	-0.837345	-0.201709
N140	N	1.602780	-0.337345	0.298291
C141	C	0.730639	-0.643961	-0.416879
C142	C	1.230639	-0.143961	0.083121
N143	N	0.759925	-0.699407	-0.452684
N144	N	1.259925	-0.199407	0.047316
C145	C	1.067032	-1.123055	-0.237554
C146	C	1.567032	-0.623055	0.262446
N147	N	1.102908	-1.168358	-0.201755
N148	N	1.602908	-0.668358	0.298245
H149	H	1.056840	-0.381970	-0.940279
H150	H	1.556840	0.118030	-0.440279
H151	H	1.056795	-0.382096	-0.584519
H152	H	1.556795	0.117904	-0.084519
H153	H	1.056809	-0.382046	-0.712753
H154	H	1.556809	0.117954	-0.212753
C155	C	0.887325	-0.643538	-0.930126
C156	C	1.387325	-0.143538	-0.430126
N157	N	0.851433	-0.698912	-0.900838
N158	N	1.351433	-0.198912	-0.400838
H159	H	0.236531	-0.624874	-0.404572
H160	H	0.736531	-0.124874	0.095428
C161	C	0.887352	-0.643488	-1.078562
C162	C	1.387352	-0.143488	-0.578562
N163	N	0.851473	-0.698840	-1.107833
N164	N	1.351473	-0.198840	-0.607833
H165	H	0.592257	-0.382015	-0.247753
H166	H	1.092257	0.117985	0.252247
C167	C	0.374830	-0.362905	-0.235414
C168	C	0.874830	0.137095	0.264586
N169	N	0.404098	-0.307451	-0.199603
N170	N	0.904098	0.192549	0.300397
H171	H	0.720502	-0.381997	-0.247740
H172	H	1.220502	0.118003	0.252260
