data_functionalizedCrystal
_audit_creation_method	'MofGen! by Chris Wilmer'
_symmetry_space_group_name_H-M	'P1'
_symmetry_Int_Tables_number	1
_symmetry_cell_setting	triclinic
loop_
_symmetry_equiv_pos_as_xyz
  x,y,z
_cell_length_a	27.440280
_cell_length_b	20.875641
_cell_length_c	20.875641
_cell_angle_alpha	60.089808
_cell_angle_beta	90.005468
_cell_angle_gamma	62.438438
loop_
_atom_site_label
_atom_site_type_symbol
_atom_site_fract_x
_atom_site_fract_y
_atom_site_fract_z
Zr1	Zr	0.491807	0.694277	-0.105690
O2	O	0.420386	0.820527	-0.208966
O3	O	0.511029	0.563019	-0.070755
O4	O	0.518206	0.687041	-0.204226
O5	O	0.410587	0.703959	0.026064
O6	O	0.598408	0.687030	-0.204213
O7	O	0.413209	0.696505	-0.075495
O8	O	0.585569	0.465177	0.034542
O9	O	0.423426	0.925812	-0.212691
O10	O	0.582309	0.618854	-0.059803
O11	O	0.520499	0.624425	0.015979
O12	O	0.528949	0.770445	-0.141166
O13	O	0.467139	0.776016	-0.065383
Zr14	Zr	0.615538	0.706147	0.056306
Zr15	Zr	0.619720	0.694259	-0.105669
Zr16	Zr	0.487625	0.706165	0.056285
Zr17	Zr	0.496655	0.862194	-0.111632
Zr18	Zr	0.610690	0.538230	0.062247
O19	O	0.596316	0.837405	0.021371
O20	O	0.602262	0.820502	-0.208936
O21	O	0.414440	0.837431	0.021341
O22	O	0.686959	0.579896	0.159581
O23	O	0.692905	0.562993	-0.070725
O24	O	0.505083	0.579922	0.159552
O25	O	0.696758	0.696465	-0.075448
O26	O	0.589139	0.713382	0.154842
O27	O	0.508937	0.713394	0.154829
O28	O	0.694137	0.703919	0.026111
O29	O	0.525099	0.925798	-0.212675
O30	O	0.582246	0.474626	0.163290
O31	O	0.683920	0.474612	0.163307
O32	O	0.687243	0.465162	0.034559
O33	O	0.420102	0.935262	-0.083943
O34	O	0.521776	0.935247	-0.083926
O35	O	0.578396	0.629979	0.091781
O36	O	0.640207	0.624408	0.015999
O37	O	0.586846	0.775999	-0.065364
O38	O	0.525036	0.781570	0.010419
C39	C	0.547608	0.490173	-0.017260
C40	C	0.545550	0.418888	-0.014737
C41	C	0.393673	0.700235	-0.024718
C42	C	0.339370	0.700242	-0.024727
C43	C	0.576846	0.382490	-0.053110
C44	C	0.574914	0.315506	-0.050733
C45	C	0.541681	0.284925	-0.009987
C46	C	0.510385	0.321326	0.028391
C47	C	0.512321	0.388305	0.026017
C48	C	0.532434	0.084915	0.001357
C49	C	0.530499	0.017934	0.003726
C50	C	0.595029	0.012117	-0.075397
C51	C	0.596960	0.079101	-0.077770
C52	C	0.565665	0.115493	-0.039389
N53	N	0.539704	0.216459	-0.007558
N54	N	0.567646	0.183954	-0.041814
C55	C	0.030523	0.621069	0.017800
C56	C	-0.020495	0.621065	0.017807
O57	O	-0.023196	0.553770	0.053949
N58	N	-0.073866	0.700193	-0.024665
C59	C	-0.076216	0.779331	-0.067139
O60	O	-0.126297	0.846636	-0.103263
C61	C	-0.025198	0.779335	-0.067141
C62	C	0.028171	0.700201	-0.024673
C63	C	0.083891	0.541942	0.060265
C64	C	0.134906	0.541947	0.060256
C65	C	0.132554	0.621079	0.017783
C66	C	0.079186	0.700206	-0.024682
C67	C	-0.027550	0.858473	-0.109611
C68	C	0.023474	0.858470	-0.109609
C69	C	0.076844	0.779336	-0.067141
C70	C	0.127849	0.779343	-0.067163
N71	N	0.181220	0.700215	-0.024692
C72	C	0.183572	0.621083	0.017781
C73	C	-0.183356	0.779317	-0.067131
C74	C	-0.234373	0.779314	-0.067134
C75	C	-0.178648	0.621047	0.017813
C76	C	-0.127630	0.621051	0.017811
C77	C	-0.129985	0.700189	-0.024660
C78	C	0.290705	0.621099	0.017760
C79	C	0.341722	0.621110	0.017746
C80	C	0.285994	0.779377	-0.067198
C81	C	0.234981	0.779366	-0.067187
C82	C	0.237340	0.700220	-0.024702
O83	O	0.130594	0.846604	-0.103284
O84	O	0.233654	0.553790	0.053907
C85	C	0.713672	0.700189	-0.024666
C86	C	0.767975	0.700181	-0.024657
C87	C	0.558903	0.685342	-0.227297
C88	C	0.560678	0.680295	-0.296060
C89	C	0.559737	0.910250	-0.032124
C90	C	0.561795	0.981536	-0.034647
C91	C	0.533659	0.757051	-0.370835
C92	C	0.535335	0.752304	-0.435442
C93	C	0.564026	0.670800	-0.425272
C94	C	0.591048	0.594038	-0.350489
C95	C	0.589376	0.598786	-0.285884
C96	C	0.572017	0.648115	-0.613936
C97	C	0.573686	0.643373	-0.678549
C98	C	0.517973	0.801639	-0.763498
C99	C	0.516301	0.806380	-0.698888
C100	C	0.543325	0.729618	-0.624111
N101	N	0.565737	0.665946	-0.491309
N102	N	0.541617	0.734473	-0.558075
C103	C	0.548442	0.715082	0.177913
C104	C	0.546667	0.720129	0.246676
C105	C	0.707608	0.490151	-0.017234
C106	C	0.759852	0.418858	-0.014702
C107	C	0.542378	0.505043	0.185345
C108	C	0.538545	0.438805	0.256630
C109	C	0.702378	0.505021	0.185372
C110	C	0.752847	0.438775	0.256665
C111	C	0.404967	0.895403	-0.234756
C112	C	0.354498	0.961649	-0.306050
C113	C	0.399737	0.910273	-0.032151
C114	C	0.347493	0.981566	-0.034682
C115	C	0.564967	0.895380	-0.234730
C116	C	0.568800	0.961619	-0.306014
C117	C	0.754165	0.382478	-0.053088
C118	C	0.803250	0.315499	-0.050725
C119	C	0.858021	0.284897	-0.009971
C120	C	0.863708	0.321283	0.028415
C121	C	0.814623	0.388265	0.026048
C122	C	0.566966	0.410599	0.329681
C123	C	0.563362	0.348370	0.396667
C124	C	0.531340	0.314345	0.390600
C125	C	0.502915	0.342558	0.317541
C126	C	0.506516	0.404789	0.250557
C127	C	0.808818	0.404757	0.250588
C128	C	0.856244	0.342520	0.317570
C129	C	0.847699	0.314298	0.390628
C130	C	0.791722	0.348323	0.396703
C131	C	0.744297	0.410563	0.329723
C132	C	0.298528	0.995676	-0.299973
C133	C	0.251102	1.057933	-0.366955
C134	C	0.259647	1.086158	-0.440013
C135	C	0.315624	1.052129	-0.446089
C136	C	0.363049	0.989878	-0.379107
C137	C	0.353180	1.017952	0.003697
C138	C	0.304096	1.084949	0.001315
C139	C	0.249325	1.115553	-0.039441
C140	C	0.243639	1.079164	-0.077824
C141	C	0.292723	1.012173	-0.075447
C142	C	0.600828	0.995625	-0.299923
C143	C	0.604441	1.057854	-0.366896
C144	C	0.576023	1.086081	-0.439960
C145	C	0.543994	1.052069	-0.446050
C146	C	0.540385	0.989836	-0.379078
H147	H	0.603904	0.407388	-0.086294
C148	C	0.609334	0.275472	-0.092949
C149	C	0.655999	0.177277	-0.046942
C150	C	0.690420	0.137242	-0.089161
C151	C	0.678176	0.195402	-0.177386
C152	C	0.631508	0.293602	-0.223398
C153	C	0.597087	0.333637	-0.181179
H154	H	0.665066	0.134219	0.018372
H155	H	0.724967	0.064548	-0.055099
H156	H	0.703656	0.165766	-0.208639
H157	H	0.622441	0.336661	-0.288712
H158	H	0.562540	0.406332	-0.215241
C159	C	0.413425	0.984302	0.048527
C160	C	0.419669	1.024346	0.090731
C161	C	0.479912	0.990705	0.135559
C162	C	0.533911	0.917020	0.138183
C163	C	0.527668	0.876972	0.095978
C164	C	0.467425	0.910613	0.051150
H165	H	0.379695	1.078895	0.088790
H166	H	0.484533	1.020352	0.166802
H167	H	0.578506	0.892117	0.171368
H168	H	0.567643	0.822422	0.097920
H169	H	0.462804	0.880966	0.019907
H170	H	0.528413	0.263673	0.445149
H171	H	0.476843	0.314845	0.312613
C172	C	0.505148	0.952441	-0.385786
C173	C	0.501168	0.883988	-0.312130
C174	C	0.465930	0.846595	-0.318845
C175	C	0.434671	0.877655	-0.399218
C176	C	0.438649	0.946111	-0.472880
C177	C	0.473887	0.983504	-0.466165
H178	H	0.524309	0.860993	-0.252628
H179	H	0.462985	0.795919	-0.264315
H180	H	0.408585	0.849975	-0.404189
H181	H	0.415508	0.969107	-0.532382
H182	H	0.476832	1.034180	-0.520695
H183	H	0.578966	1.136756	-0.494487
H184	H	0.322575	1.075118	-0.505581
C185	C	0.632096	0.964576	-0.219557
C186	C	0.667330	1.001984	-0.212873
C187	C	0.698605	0.970935	-0.132510
C188	C	0.694646	0.902479	-0.058831
C189	C	0.659411	0.865067	-0.065513
C190	C	0.628136	0.896116	-0.145876
H191	H	0.670262	1.052663	-0.267416
H192	H	0.724689	0.998630	-0.127563
H193	H	0.717798	0.879494	0.000658
H194	H	0.656479	0.814388	-0.010970
H195	H	0.602052	0.868421	-0.150822
H196	H	0.520858	1.075062	-0.505548
H197	H	0.624020	0.103998	-0.110949
H198	H	0.815787	0.427725	0.191107
H199	H	0.620508	-0.017521	-0.106643
C200	C	0.189532	1.095349	-0.360260
C201	C	0.137360	1.163826	-0.433928
C202	C	0.075792	1.201239	-0.427230
C203	C	0.066398	1.170174	-0.346865
C204	C	0.118572	1.101693	-0.273191
C205	C	0.180139	1.064280	-0.279889
H206	H	0.144313	1.186826	-0.493424
H207	H	0.037170	1.251934	-0.481769
H208	H	0.020822	1.197870	-0.341907
H209	H	0.111619	1.078694	-0.213695
H210	H	0.218762	1.013586	-0.225350
H211	H	0.897984	0.230354	-0.008049
H212	H	0.199038	1.104093	-0.111007
C213	C	0.619095	0.514353	-0.203628
C214	C	0.617259	0.519572	-0.132563
C215	C	0.646982	0.435136	-0.050306
C216	C	0.678540	0.345482	-0.039115
C217	C	0.680377	0.340260	-0.110182
C218	C	0.650654	0.424695	-0.192439
H219	H	0.593897	0.585942	-0.140845
H220	H	0.645622	0.439002	0.002303
H221	H	0.700542	0.282978	0.021777
H222	H	0.703739	0.273889	-0.101900
H223	H	0.652014	0.420829	-0.245048
C224	C	0.310360	1.124959	0.043549
C225	C	0.345031	1.169457	0.021282
C226	C	0.351297	1.209463	0.063517
C227	C	0.322892	1.204971	0.128019
C228	C	0.288219	1.160471	0.150290
C229	C	0.281953	1.120465	0.108055
H230	H	0.366061	1.172784	-0.026470
H231	H	0.376965	1.242405	0.047030
H232	H	0.327530	1.234586	0.159284
H233	H	0.267189	1.157145	0.198041
H234	H	0.256285	1.087524	0.124541
H235	H	0.908309	0.296357	0.061596
H236	H	0.503435	-0.006961	0.036906
H237	H	0.586512	0.325407	0.456147
H238	H	-0.277825	0.843752	-0.101725
H239	H	0.085816	0.477500	0.094855
H240	H	0.288083	0.982549	-0.106698
C241	C	0.475255	0.435805	0.170202
C242	C	0.440036	0.398369	0.163539
C243	C	0.408772	0.429382	0.083186
C244	C	0.412726	0.497831	0.009496
C245	C	0.447946	0.535272	0.016157
C246	C	0.479211	0.504259	0.096510
H247	H	0.437107	0.347695	0.218091
H248	H	0.382699	0.401665	0.078255
H249	H	0.389582	0.520789	-0.049987
H250	H	0.450875	0.585946	-0.038395
H251	H	0.505283	0.531975	0.101441
C252	C	0.639668	1.095266	-0.360184
C253	C	0.704598	1.033832	-0.316346
C254	C	0.739824	1.071241	-0.309632
C255	C	0.710121	1.170085	-0.346756
C256	C	0.645187	1.231525	-0.390597
C257	C	0.609961	1.194115	-0.397311
H258	H	0.726590	0.960656	-0.288862
H259	H	0.787893	1.025759	-0.277178
H260	H	0.736197	1.197778	-0.341786
H261	H	0.623195	1.304701	-0.418081
H262	H	0.561892	1.239598	-0.429766
H263	H	0.506954	0.114535	0.032613
C264	C	0.473828	0.287689	0.073211
C265	C	0.502742	0.191094	0.140981
C266	C	0.466183	0.157460	0.185800
C267	C	0.400711	0.220421	0.162849
C268	C	0.371794	0.317023	0.095076
C269	C	0.408353	0.350656	0.050257
H270	H	0.551211	0.144481	0.157973
H271	H	0.487590	0.085949	0.235970
H272	H	0.373648	0.195523	0.196027
H273	H	0.323325	0.363636	0.078084
H274	H	0.386946	0.422167	0.000087
H275	H	0.698725	0.438252	0.334682
C276	C	0.195336	1.189238	-0.042045
C277	C	0.201599	1.229251	0.000181
C278	C	0.147611	1.302933	-0.002417
C279	C	0.087361	1.336602	-0.047241
C280	C	0.081096	1.296589	-0.089470
C281	C	0.135083	1.222907	-0.086872
H282	H	0.246202	1.204327	0.033365
H283	H	0.152250	1.332553	0.028844
H284	H	0.047397	1.391146	-0.049164
H285	H	0.036493	1.321513	-0.122654
H286	H	0.130444	1.193287	-0.118133
H287	H	0.408621	0.962174	-0.384064
H288	H	0.486835	0.417942	0.057262
C289	C	0.601737	0.563682	-0.531687
C290	C	0.566157	0.545191	-0.475599
C291	C	0.595877	0.460755	-0.393342
C292	C	0.661177	0.394810	-0.367174
C293	C	0.696761	0.413299	-0.423263
C294	C	0.667041	0.497735	-0.505519
H295	H	0.517815	0.594009	-0.494969
H296	H	0.569535	0.447069	-0.351821
H297	H	0.683177	0.332305	-0.306283
H298	H	0.745103	0.364480	-0.403893
H299	H	0.693382	0.511421	-0.547040
H300	H	0.513335	0.814807	-0.496325
H301	H	0.385178	0.556667	0.052331
C302	C	0.293304	0.534039	0.064487
C303	C	0.267267	0.508359	0.022872
C304	C	0.269865	0.421301	0.069593
C305	C	0.298501	0.359923	0.157929
C306	C	0.324541	0.385602	0.199549
C307	C	0.321943	0.472660	0.152828
H308	H	0.246067	0.553796	-0.042523
H309	H	0.250589	0.402292	0.038783
H310	H	0.300425	0.295477	0.192515
H311	H	0.345741	0.340165	0.264945
H312	H	0.341219	0.491669	0.183638
H313	H	0.178358	0.477508	0.094835
C314	C	0.796985	0.275476	-0.092945
C315	C	0.768256	0.333646	-0.181167
C316	C	0.761989	0.293625	-0.223386
C317	C	0.784452	0.195433	-0.177382
C318	C	0.813184	0.137258	-0.089155
C319	C	0.819450	0.177279	-0.046937
H320	H	0.751626	0.406338	-0.215226
H321	H	0.740720	0.336690	-0.288698
H322	H	0.779813	0.165807	-0.208635
H323	H	0.829814	0.064565	-0.055096
H324	H	0.840719	0.134213	0.018375
C325	C	0.820884	0.428268	0.068287
C326	C	0.881133	0.394592	0.113120
C327	C	0.887399	0.434590	0.155363
C328	C	0.833416	0.508264	0.152774
C329	C	0.773163	0.541943	0.107940
C330	C	0.766897	0.501945	0.065696
H331	H	0.921099	0.340051	0.115038
H332	H	0.932003	0.409658	0.188553
H333	H	0.838055	0.537872	0.184046
H334	H	0.733198	0.596484	0.106022
H335	H	0.722293	0.526877	0.032507
H336	H	0.021550	0.922916	-0.144184
H337	H	-0.084178	0.556614	0.052399
C338	C	-0.185951	0.866376	-0.113864
C339	C	-0.157171	0.884234	-0.178850
C340	C	-0.159769	0.971292	-0.225583
C341	C	-0.191148	1.040491	-0.207329
C342	C	-0.219930	1.022634	-0.142339
C343	C	-0.217332	0.935577	-0.095607
H344	H	-0.133940	0.833007	-0.192366
H345	H	-0.138462	0.984510	-0.273692
H346	H	-0.193071	1.104936	-0.241923
H347	H	-0.243161	1.073861	-0.128824
H348	H	-0.238639	0.922359	-0.047498
H349	H	0.492940	0.872749	-0.707177
C350	C	0.176269	0.866405	-0.113915
C351	C	0.161671	0.927763	-0.202256
C352	C	0.102962	1.014801	-0.248983
C353	C	0.058849	1.040481	-0.207369
C354	C	0.073446	0.979121	-0.119024
C355	C	0.132155	0.892083	-0.072297
H356	H	0.194327	0.908754	-0.233065
H357	H	0.092157	1.060223	-0.314383
H358	H	0.015389	1.104912	-0.241960
H359	H	0.040790	0.998130	-0.088214
H360	H	0.142960	0.846661	-0.006897
H361	H	-0.070998	0.922913	-0.144192
C362	C	0.605251	0.553712	-0.667361
C363	C	0.634978	0.469276	-0.585111
C364	C	0.666540	0.379622	-0.573926
C365	C	0.668374	0.374403	-0.644991
C366	C	0.638645	0.458842	-0.727247
C367	C	0.607083	0.548497	-0.738432
H368	H	0.633622	0.473137	-0.532499
H369	H	0.688547	0.317114	-0.513034
H370	H	0.691738	0.308035	-0.636711
H371	H	0.640002	0.454982	-0.779859
H372	H	0.585076	0.611004	-0.799324
H373	H	0.510292	0.823421	-0.379125
C374	C	0.917813	0.305096	0.310873
C375	C	0.957696	0.206251	0.347999
C376	C	1.019262	0.168828	0.341300
C377	C	1.040946	0.230251	0.297475
C378	C	1.001062	0.329102	0.260347
C379	C	0.939496	0.366525	0.267046
H380	H	0.941645	0.160777	0.380443
H381	H	1.048787	0.095652	0.368785
H382	H	1.086521	0.202549	0.292516
H383	H	1.017113	0.374577	0.227902
H384	H	0.909972	0.439701	0.239560
C385	C	0.899870	0.245828	0.464304
C386	C	0.961436	0.208408	0.457610
C387	C	1.013609	0.139935	0.531283
C388	C	1.004217	0.108881	0.611650
C389	C	0.942649	0.146301	0.618347
C390	C	0.890476	0.214774	0.544674
H391	H	0.968390	0.231396	0.398115
H392	H	1.059186	0.112235	0.526325
H393	H	1.042839	0.058194	0.666187
H394	H	0.935695	0.123314	0.677842
H395	H	0.844899	0.242475	0.549632
C396	C	0.782331	0.317258	0.477074
C397	C	0.807662	0.330502	0.532059
C398	C	0.798274	0.299426	0.612432
C399	C	0.763554	0.255106	0.637820
C400	C	0.738220	0.241859	0.582833
C401	C	0.747609	0.272935	0.502460
H402	H	0.833366	0.363313	0.513267
H403	H	0.817027	0.309232	0.653137
H404	H	0.756604	0.232101	0.697317
H405	H	0.712517	0.209048	0.601625
H406	H	0.728855	0.263129	0.461755
H407	H	0.593042	0.438295	0.334635
H408	H	0.221026	1.136847	-0.494548
H409	H	-0.176741	0.556613	0.052395
H410	H	0.495972	0.864134	-0.824386
H411	H	0.284089	0.843804	-0.101781
H412	H	0.614412	0.527676	-0.342213
H413	H	0.709573	0.407393	-0.086284
H414	H	0.291558	0.972698	-0.240491
