data_functionalizedCrystal
_audit_creation_method	'MofGen! by Chris Wilmer'
_symmetry_space_group_name_H-M	'P1'
_symmetry_Int_Tables_number	1
_symmetry_cell_setting	triclinic
loop_
_symmetry_equiv_pos_as_xyz
  x,y,z
_cell_length_a	11.792241
_cell_length_b	10.868271
_cell_length_c	11.792241
_cell_angle_alpha	89.994719
_cell_angle_beta	95.806584
_cell_angle_gamma	90.000107
loop_
_atom_site_label
_atom_site_type_symbol
_atom_site_fract_x
_atom_site_fract_y
_atom_site_fract_z
O1	O	1.506908	0.102203	-0.155568
O2	O	2.006908	0.602203	0.344432
O3	O	1.176567	0.102232	-0.171601
O4	O	1.676567	0.602232	0.328399
O5	O	1.349754	0.102208	0.001586
O6	O	1.849754	0.602208	0.501586
O7	O	1.333721	0.102227	-0.328755
O8	O	1.833721	0.602227	0.171245
O9	O	1.349740	-0.102436	0.001592
O10	O	1.849740	0.397564	0.501592
O11	O	1.176553	-0.102413	-0.171595
O12	O	1.676553	0.397587	0.328405
O13	O	1.506894	-0.102441	-0.155562
O14	O	2.006894	0.397559	0.344438
Zn15	Zn	1.341721	-0.134919	-0.163577
Zn16	Zn	1.841721	0.365081	0.336423
Zn17	Zn	1.341740	0.134709	-0.163586
Zn18	Zn	1.841740	0.634709	0.336414
O19	O	1.333707	-0.102418	-0.328749
O20	O	1.833707	0.397582	0.171251
C21	C	1.134269	-0.000087	-0.170591
C22	C	1.634269	0.499913	0.329409
C23	C	1.008255	-0.000076	-0.167576
C24	C	1.508255	0.499924	0.332424
C25	C	0.777543	-0.000112	-0.162034
C26	C	1.277543	0.499888	0.337966
C27	C	0.905928	-0.000092	-0.165113
C28	C	1.405928	0.499908	0.334887
N29	N	1.341717	-0.318933	-0.163570
N30	N	1.841717	0.181067	0.336430
C31	C	1.341734	-0.569939	-0.163584
C32	C	1.841734	-0.069939	0.336416
C33	C	1.341721	-0.430261	-0.163580
C34	C	1.841721	0.069739	0.336420
C35	C	1.549192	-0.000120	-0.156572
C36	C	2.049192	0.499880	0.343428
C37	C	1.675206	-0.000123	-0.159587
C38	C	2.175206	0.499877	0.340413
C39	C	1.348740	-0.000114	0.043880
C40	C	1.848740	0.499886	0.543880
C41	C	1.345726	-0.000112	0.169894
C42	C	1.845726	0.499888	0.669894
N43	N	1.341754	0.318723	-0.163584
N44	N	1.841754	0.818723	0.336416
C45	C	1.334721	-0.000093	-0.371043
C46	C	1.834721	0.499907	0.128957
C47	C	1.337736	-0.000087	-0.497057
C48	C	1.837736	0.499913	0.002943
C49	C	1.340183	-0.000091	0.400606
C50	C	1.840183	0.499909	0.900606
C51	C	1.343262	-0.000102	0.272221
C52	C	1.843262	0.499898	0.772221
