data_functionalizedCrystal
_audit_creation_method	'MofGen! by Chris Wilmer'
_symmetry_space_group_name_H-M	'P1'
_symmetry_Int_Tables_number	1
_symmetry_cell_setting	triclinic
loop_
_symmetry_equiv_pos_as_xyz
  x,y,z
_cell_length_a	19.805407
_cell_length_b	19.805405
_cell_length_c	17.077396
_cell_angle_alpha	89.971037
_cell_angle_beta	89.981228
_cell_angle_gamma	90.024042
loop_
_atom_site_label
_atom_site_type_symbol
_atom_site_fract_x
_atom_site_fract_y
_atom_site_fract_z
Zn1	Zn	1.034741	-0.269512	-0.443825
Zn2	Zn	1.534741	0.230488	0.056175
Zn3	Zn	1.034653	-0.382705	-0.312558
Zn4	Zn	1.534653	0.117295	0.187442
Zn5	Zn	0.921553	-0.269530	-0.312574
Zn6	Zn	1.421553	0.230470	0.187426
Zn7	Zn	0.921518	-0.382659	-0.443783
Zn8	Zn	1.421518	0.117341	0.056217
O9	O	0.978116	-0.326101	-0.378185
O10	O	1.478116	0.173899	0.121815
O11	O	1.129446	-0.284539	-0.426422
O12	O	1.629446	0.215461	0.073578
O13	O	1.019628	-0.367719	-0.202713
O14	O	1.519628	0.132281	0.297287
O15	O	0.936619	-0.174811	-0.330010
O16	O	1.436619	0.325189	0.169990
O17	O	1.129381	-0.367701	-0.329981
O18	O	1.629381	0.132299	0.170019
O19	O	1.019778	-0.174797	-0.426439
O20	O	1.519778	0.325203	0.073561
O21	O	0.936534	-0.284569	-0.202725
O22	O	1.436534	0.215431	0.297275
O23	O	0.826832	-0.284525	-0.329969
O24	O	1.326832	0.215475	0.170031
O25	O	0.936559	-0.367623	-0.553635
O26	O	1.436559	0.132377	-0.053635
O27	O	0.826806	-0.367640	-0.426367
O28	O	1.326806	0.132360	0.073633
O29	O	1.019743	-0.284494	-0.553666
O30	O	1.519743	0.215506	-0.053666
O31	O	1.019594	-0.477415	-0.329940
O32	O	1.519594	0.022585	0.170060
O33	O	0.936474	-0.477381	-0.426351
O34	O	1.436474	0.022619	0.073649
C35	C	0.802260	-0.326080	-0.378166
C36	C	1.302260	0.173920	0.121834
C37	C	0.727028	-0.326087	-0.378176
C38	C	1.227028	0.173913	0.121824
C39	C	0.691718	-0.282861	-0.428470
C40	C	1.191718	0.217139	0.071530
C41	C	0.621030	-0.282865	-0.428473
C42	C	1.121030	0.217135	0.071527
C43	C	0.585653	-0.326098	-0.378186
C44	C	1.085653	0.173902	0.121814
C45	C	0.620968	-0.369326	-0.327887
C46	C	1.120968	0.130674	0.172113
C47	C	0.691655	-0.369319	-0.327880
C48	C	1.191655	0.130681	0.172120
C49	C	0.335894	-0.369357	-0.327911
C50	C	0.835894	0.130643	0.172089
C51	C	0.265202	-0.369362	-0.327923
C52	C	0.765202	0.130638	0.172077
C53	C	0.265269	-0.282903	-0.428503
C54	C	0.765269	0.217097	0.071497
C55	C	0.335957	-0.282895	-0.428497
C56	C	0.835957	0.217105	0.071503
C57	C	0.371265	-0.326120	-0.378195
C58	C	0.871265	0.173880	0.121805
C59	C	0.447914	-0.326115	-0.378192
C60	C	0.947914	0.173885	0.121808
C61	C	0.509006	-0.326107	-0.378193
C62	C	1.009006	0.173893	0.121807
C63	C	0.978039	-0.501957	-0.378157
C64	C	1.478039	-0.001957	0.121843
C65	C	0.978068	-0.577189	-0.378171
C66	C	1.478068	-0.077189	0.121829
C67	C	1.021343	-0.612468	-0.428421
C68	C	1.521343	-0.112468	0.071579
C69	C	1.021367	-0.683157	-0.428435
C70	C	1.521367	-0.183157	0.071565
C71	C	0.978120	-0.718565	-0.378195
C72	C	1.478120	-0.218565	0.121805
C73	C	0.934840	-0.683281	-0.327943
C74	C	1.434840	-0.183281	0.172057
C75	C	0.934813	-0.612594	-0.327933
C76	C	1.434813	-0.112594	0.172067
C77	C	0.934949	-0.968354	-0.327983
C78	C	1.434949	-0.468354	0.172017
C79	C	0.934981	-1.039046	-0.327996
C80	C	1.434981	-0.539046	0.172004
C81	C	1.021503	-1.038917	-0.428486
C82	C	1.521503	-0.538917	0.071514
C83	C	1.021476	-0.968230	-0.428475
C84	C	1.521476	-0.468230	0.071525
C85	C	0.978194	-0.932952	-0.378227
C86	C	1.478194	-0.432952	0.121773
C87	C	0.978167	-0.856304	-0.378212
C88	C	1.478167	-0.356304	0.121788
C89	C	0.978150	-0.795212	-0.378205
C90	C	1.478150	-0.295212	0.121795
C91	C	1.154659	-0.326123	-0.378205
C92	C	1.654659	0.173877	0.121795
C93	C	1.229891	-0.326132	-0.378213
C94	C	1.729891	0.173868	0.121787
C95	C	0.978157	-0.326051	-0.582929
C96	C	1.478157	0.173949	-0.082929
C97	C	0.978175	-0.326030	-0.670179
C98	C	1.478175	0.173970	-0.170179
C99	C	0.978212	-0.149558	-0.378231
C100	C	1.478212	0.350442	0.121769
C101	C	0.978253	-0.074326	-0.378250
C102	C	1.478253	0.425674	0.121750
C103	C	1.021490	-0.282741	-0.711187
C104	C	1.521490	0.217259	-0.211187
C105	C	1.021498	-0.282719	-0.793167
C106	C	1.521498	0.217281	-0.293167
C107	C	0.978194	-0.325989	-0.834139
C108	C	1.478194	0.174011	-0.334139
C109	C	0.934874	-0.369280	-0.793125
C110	C	1.434874	0.130720	-0.293125
C111	C	0.934863	-0.369298	-0.711146
C112	C	1.434863	0.130702	-0.211146
C113	C	0.934901	-0.369239	-0.963996
C114	C	1.434901	0.130761	-0.463996
C115	C	0.934913	-0.369221	-1.045980
C116	C	1.434913	0.130779	-0.545980
C117	C	1.021537	-0.282660	-1.046016
C118	C	1.521537	0.217340	-0.546016
C119	C	1.021526	-0.282678	-0.964037
C120	C	1.521526	0.217322	-0.464037
C121	C	0.978206	-0.325970	-0.923030
C122	C	1.478206	0.174030	-0.423030
C123	C	0.978114	-0.326102	-0.174237
C124	C	1.478114	0.173898	0.325763
C125	C	0.978228	-0.325933	-0.086988
C126	C	1.478228	0.174067	0.413012
H127	H	0.592158	-0.404524	-0.286939
H128	H	1.092158	0.095476	0.213061
H129	H	0.720517	-0.247657	-0.469421
H130	H	1.220517	0.252343	0.030579
Cl131	Cl	0.880464	-0.423611	-1.097487
Cl132	Cl	1.380464	0.076389	-0.597487
H133	H	1.056611	-0.711878	-0.469348
H134	H	1.556611	-0.211878	0.030652
Cl135	Cl	0.576643	-0.228523	-0.491704
Cl136	Cl	1.076643	0.271477	0.008296
Cl137	Cl	1.075937	-0.228345	-0.659688
Cl138	Cl	1.575937	0.271655	-0.159688
H139	H	0.236513	-0.247704	-0.469458
H140	H	0.736513	0.252296	0.030542
H141	H	1.056695	-0.939403	-0.469383
H142	H	1.556695	-0.439403	0.030617
H143	H	0.899612	-0.404508	-0.826491
H144	H	1.399612	0.095492	-0.326491
H145	H	0.236400	-0.404570	-0.286970
H146	H	0.736400	0.095430	0.213030
Cl147	Cl	0.380273	-0.423683	-0.264658
Cl148	Cl	0.880273	0.076317	0.235342
H149	H	1.056808	-0.247409	-1.079409
H150	H	1.556808	0.252591	-0.579409
H151	H	1.056563	-0.583644	-0.469328
H152	H	1.556563	-0.083644	0.030672
H153	H	1.056743	-1.067649	-0.469403
H154	H	1.556743	-0.567649	0.030597
Cl155	Cl	0.380427	-0.228545	-0.491721
Cl156	Cl	0.880427	0.271455	0.008279
H157	H	0.899584	-0.404541	-0.677759
H158	H	1.399584	0.095459	-0.177759
Cl159	Cl	1.075970	-0.228285	-0.912531
Cl160	Cl	1.575970	0.271715	-0.412531
H161	H	0.720403	-0.404517	-0.286926
H162	H	1.220403	0.095483	0.213074
H163	H	0.899761	-1.067873	-0.287083
H164	H	1.399761	-0.567873	0.212917
H165	H	0.899709	-0.939636	-0.287067
H166	H	1.399709	-0.439636	0.212933
Cl167	Cl	0.880440	-0.423663	-0.912445
Cl168	Cl	1.380440	0.076337	-0.412445
H169	H	1.056772	-0.247470	-0.826552
H170	H	1.556772	0.252530	-0.326552
H171	H	0.899625	-0.712116	-0.287040
H172	H	1.399625	-0.212116	0.212960
H173	H	0.899573	-0.583870	-0.287015
H174	H	1.399573	-0.083870	0.212985
