data_functionalizedCrystal
_audit_creation_method	'MofGen! by Chris Wilmer'
_symmetry_space_group_name_H-M	'P1'
_symmetry_Int_Tables_number	1
_symmetry_cell_setting	triclinic
loop_
_symmetry_equiv_pos_as_xyz
  x,y,z
_cell_length_a	27.732048
_cell_length_b	8.597187
_cell_length_c	26.210047
_cell_angle_alpha	97.710968
_cell_angle_beta	90.000479
_cell_angle_gamma	83.996516
loop_
_atom_site_label
_atom_site_type_symbol
_atom_site_fract_x
_atom_site_fract_y
_atom_site_fract_z
O1	O	0.072121	2.080769	0.133905
O2	O	0.077657	1.623686	0.113813
O3	O	0.004592	1.866423	0.124473
O4	O	0.145186	1.838031	0.123245
O5	O	0.004603	1.866377	0.039613
O6	O	0.077668	1.623639	0.028953
O7	O	0.072132	2.080722	0.049045
Cu8	Cu	0.074901	1.852176	0.031251
Cu9	Cu	0.074888	1.852232	0.131608
O10	O	0.145197	1.837985	0.038385
C11	C	0.077068	1.565204	0.068814
C12	C	0.075292	1.391014	0.061156
C13	C	-0.013414	1.865804	0.082016
C14	C	-0.067081	1.864010	0.081933
C15	C	-0.404968	1.996153	0.087767
C16	C	-0.606675	1.989495	0.087482
O17	O	-0.637082	2.110331	0.092816
N18	N	-0.626809	1.845562	0.081155
C19	C	-0.596514	1.703283	0.074902
O20	O	-0.618267	1.580706	0.069519
C21	C	-0.394808	1.709943	0.075191
C22	C	-0.374677	1.853886	0.081513
C23	C	-0.384836	2.140084	0.094090
C24	C	-0.334413	2.141747	0.094158
C25	C	-0.304121	1.999480	0.087904
C26	C	-0.324253	1.855549	0.081582
C27	C	-0.364514	1.567666	0.068942
C28	C	-0.314084	1.569344	0.069016
C29	C	-0.293953	1.713286	0.075338
C30	C	-0.243538	1.714944	0.075397
N31	N	-0.223403	1.858877	0.081724
C32	C	-0.253695	2.001145	0.087978
C33	C	-0.702412	1.699796	0.074749
C34	C	-0.752838	1.698131	0.074676
C35	C	-0.762996	1.984344	0.087257
C36	C	-0.712569	1.986007	0.087327
C37	C	-0.682278	1.843730	0.081076
C38	C	-0.147801	2.004627	0.088121
C39	C	-0.097373	2.006277	0.088187
C40	C	-0.087220	1.720066	0.075608
C41	C	-0.137644	1.718414	0.075540
C42	C	-0.167934	1.860708	0.081798
O43	O	-0.213102	1.594173	0.070071
O44	O	-0.231932	2.123704	0.093371
C45	C	-0.455392	1.994490	0.087699
C46	C	-0.475524	1.850559	0.081376
C47	C	-0.445232	1.708292	0.075122
C48	C	-0.525950	1.848894	0.081303
C49	C	-0.556242	1.991162	0.087557
C50	C	-0.536107	2.135095	0.093884
C51	C	-0.485684	2.136758	0.093953
C52	C	-0.465367	1.564358	0.068795
C53	C	-0.515791	1.562707	0.068727
C54	C	-0.546082	1.704975	0.074981
C55	C	0.163203	1.838604	0.080844
C56	C	0.216870	1.840399	0.080930
C57	C	0.072721	2.139205	0.094046
C58	C	0.074496	2.313394	0.101706
N59	N	0.074910	1.852149	-0.039335
C60	C	0.042542	1.959705	-0.387125
C61	C	0.042535	1.959740	-0.600782
O62	O	0.015016	2.051127	-0.624391
N63	N	0.074877	1.852240	-0.632224
C64	C	0.107221	1.744718	-0.610250
O65	O	0.134726	1.653273	-0.641896
C66	C	0.107225	1.744677	-0.396594
C67	C	0.074884	1.852194	-0.365154
C68	C	0.010204	2.067212	-0.355685
C69	C	0.010207	2.067208	-0.302274
C70	C	0.042549	1.959697	-0.280303
C71	C	0.074888	1.852190	-0.311742
C72	C	0.139565	1.637148	-0.374620
C73	C	0.139563	1.637145	-0.321203
C74	C	0.107222	1.744662	-0.289763
C75	C	0.107234	1.744675	-0.236360
N76	N	0.074892	1.852174	-0.204918
C77	C	0.042550	1.959685	-0.226889
C78	C	0.107217	1.744749	-0.722422
C79	C	0.107217	1.744761	-0.775835
C80	C	0.042531	1.959781	-0.766364
C81	C	0.042534	1.959775	-0.712949
C82	C	0.074875	1.852248	-0.690979
C83	C	0.042560	1.959669	-0.114722
C84	C	0.042568	1.959660	-0.061306
C85	C	0.107252	1.744635	-0.070782
C86	C	0.107246	1.744649	-0.124193
C87	C	0.074896	1.852172	-0.146161
O88	O	0.134734	1.653324	-0.212717
O89	O	0.015041	2.051093	-0.195235
C90	C	0.042538	1.959709	-0.440536
C91	C	0.074876	1.852202	-0.471976
C92	C	0.107219	1.744691	-0.450005
C93	C	0.074876	1.852214	-0.525390
C94	C	0.042534	1.959725	-0.547361
C95	C	0.010192	2.067224	-0.515919
C96	C	0.010196	2.067220	-0.462508
C97	C	0.139560	1.637192	-0.481447
C98	C	0.139554	1.637206	-0.534858
C99	C	0.107212	1.744717	-0.556829
N100	N	0.074875	1.852272	0.202193
H101	H	-0.080985	2.123498	0.093334
F102	F	0.074414	1.303694	0.008125
H103	H	0.165899	1.549579	-0.303318
H104	H	0.075174	1.380208	0.142280
F105	F	-0.464265	2.289963	0.100685
F106	F	-0.180032	2.156072	0.094782
F107	F	-0.537210	1.409492	0.061994
H108	H	-0.318027	2.258960	0.099309
H109	H	-0.787668	2.100183	0.092349
H110	H	0.016233	2.047218	-0.035708
H111	H	-0.560780	2.250934	0.098974
F112	F	-0.417068	2.291519	0.100747
H113	H	-0.696182	2.103218	0.092475
F114	F	-0.774258	1.544928	0.067938
H115	H	-0.016135	2.154760	-0.373569
H116	H	-0.677753	1.583930	0.069659
F117	F	-0.385928	1.414460	0.062215
H118	H	-0.289423	1.453481	0.063927
H119	H	-0.154035	1.601204	0.070377
F120	F	0.008130	2.074108	-0.138094
H121	H	-0.062547	1.604235	0.070515
F122	F	-0.433134	1.412928	0.062140
F123	F	-0.024216	2.181633	-0.268818
F124	F	0.008112	2.074207	-0.679493
H125	H	0.016197	2.047323	-0.784262
H126	H	0.133557	1.657227	-0.801430
H127	H	0.133555	1.657185	-0.704538
H128	H	0.133586	1.657105	-0.052884
F129	F	0.173986	1.522713	-0.408072
F130	F	0.141672	1.630232	-0.157652
H131	H	-0.016139	2.154770	-0.436913
H132	H	-0.016140	2.154769	-0.533817
H133	H	0.165894	1.549656	-0.560453
F134	F	0.173985	1.522759	-0.458070
