data_functionalizedCrystal
_audit_creation_method	'MofGen! by Chris Wilmer'
_symmetry_space_group_name_H-M	'P1'
_symmetry_Int_Tables_number	1
_symmetry_cell_setting	triclinic
loop_
_symmetry_equiv_pos_as_xyz
  x,y,z
_cell_length_a	16.109318
_cell_length_b	19.188924
_cell_length_c	15.186229
_cell_angle_alpha	89.994194
_cell_angle_beta	90.000224
_cell_angle_gamma	83.305264
loop_
_atom_site_label
_atom_site_type_symbol
_atom_site_fract_x
_atom_site_fract_y
_atom_site_fract_z
O1	O	1.102821	0.089802	-0.073159
O2	O	1.436155	0.423135	0.260174
O3	O	1.769488	0.756468	0.593507
O4	O	0.860724	0.100958	-0.073178
O5	O	1.194057	0.434291	0.260156
O6	O	1.527391	0.767624	0.593489
O7	O	0.988762	-0.006260	-0.073158
O8	O	1.322095	0.327074	0.260176
O9	O	1.655429	0.660407	0.593509
O10	O	0.974783	0.197019	-0.073179
O11	O	1.308117	0.530352	0.260154
O12	O	1.641450	0.863686	0.593487
O13	O	0.988754	-0.006261	0.073300
O14	O	1.322087	0.327072	0.406633
O15	O	1.655420	0.660406	0.739966
O16	O	0.860716	0.100956	0.073280
O17	O	1.194049	0.434290	0.406613
O18	O	1.527382	0.767623	0.739946
O19	O	1.102813	0.089800	0.073298
O20	O	1.436146	0.423134	0.406631
O21	O	1.769480	0.756467	0.739965
Zn22	Zn	0.981763	0.095378	0.096542
Zn23	Zn	1.315096	0.428711	0.429875
Zn24	Zn	1.648430	0.762045	0.763209
Zn25	Zn	0.981774	0.095380	-0.096422
Zn26	Zn	1.315107	0.428713	0.236912
Zn27	Zn	1.648441	0.762047	0.570245
O28	O	0.974775	0.197018	0.073278
O29	O	1.308108	0.530351	0.406611
O30	O	1.641442	0.863684	0.739944
C31	C	0.829747	0.100503	0.000049
C32	C	1.163080	0.433836	0.333382
C33	C	1.496413	0.767170	0.666715
C34	C	0.737457	0.099142	0.000042
C35	C	1.070790	0.432475	0.333375
C36	C	1.404123	0.765808	0.666709
C37	C	0.438402	0.094746	-0.079776
C38	C	0.771736	0.428080	0.253558
C39	C	1.105069	0.761413	0.586891
C40	C	0.525119	0.096021	-0.079781
C41	C	0.858453	0.429354	0.253552
C42	C	1.191786	0.762687	0.586885
C43	C	0.525129	0.096009	0.079894
C44	C	0.858462	0.429343	0.413228
C45	C	1.191796	0.762676	0.746561
C46	C	0.438414	0.094730	0.079899
C47	C	0.771748	0.428063	0.413232
C48	C	1.105081	0.761397	0.746566
C49	C	0.395053	0.094102	0.000061
C50	C	0.728386	0.427436	0.333395
C51	C	1.061719	0.760769	0.666728
C52	C	0.568484	0.096656	0.000051
C53	C	0.901818	0.429989	0.333384
C54	C	1.235151	0.763322	0.666718
C55	C	0.662507	0.098037	0.000046
C56	C	0.995840	0.431371	0.333379
C57	C	1.329173	0.764704	0.666712
C58	C	0.301024	0.092719	0.000066
C59	C	0.634358	0.426052	0.333400
C60	C	0.967691	0.759386	0.666733
C61	C	0.988306	-0.032272	0.000072
C62	C	1.321640	0.301061	0.333405
C63	C	1.654973	0.634394	0.666738
C64	C	0.986950	-0.109780	0.000074
C65	C	1.320283	0.223553	0.333407
C66	C	1.653617	0.556886	0.666741
C67	C	0.986322	-0.146180	-0.079760
C68	C	1.319655	0.187153	0.253573
C69	C	1.652989	0.520487	0.586907
C70	C	0.985036	-0.219006	-0.079767
C71	C	1.318369	0.114327	0.253566
C72	C	1.651703	0.447661	0.586900
C73	C	0.984395	-0.255431	0.000065
C74	C	1.317728	0.077902	0.333398
C75	C	1.651062	0.411236	0.666732
C76	C	0.985019	-0.219022	0.079910
C77	C	1.318352	0.114311	0.413243
C78	C	1.651685	0.447644	0.746576
C79	C	0.986296	-0.146197	0.079914
C80	C	1.319630	0.187136	0.413247
C81	C	1.652963	0.520470	0.746581
N82	N	1.029698	-0.374987	0.059485
N83	N	1.363031	-0.041653	0.392819
N84	N	1.696364	0.291680	0.726152
N85	N	1.028486	-0.444168	0.059476
N86	N	1.361819	-0.110835	0.392809
N87	N	1.695153	0.222499	0.726142
C88	C	0.980544	-0.474849	0.000056
C89	C	1.313877	-0.141516	0.333390
C90	C	1.647211	0.191817	0.666723
N91	N	0.933870	-0.433737	-0.059367
N92	N	1.267204	-0.100404	0.273967
N93	N	1.600537	0.232929	0.607300
N94	N	0.935086	-0.364550	-0.059359
N95	N	1.268419	-0.031217	0.273974
N96	N	1.601753	0.302116	0.607307
C97	C	0.983009	-0.334398	0.000069
C98	C	1.316343	-0.001065	0.333402
C99	C	1.649676	0.332269	0.666736
C100	C	0.978520	-0.590215	-0.079791
C101	C	1.311854	-0.256882	0.253543
C102	C	1.645187	0.076452	0.586876
C103	C	0.977229	-0.663041	-0.079794
C104	C	1.310562	-0.329708	0.253539
C105	C	1.643896	0.003625	0.586872
C106	C	0.977220	-0.663057	0.079885
C107	C	1.310554	-0.329724	0.413218
C108	C	1.643887	0.003609	0.746551
C109	C	0.978503	-0.590231	0.079886
C110	C	1.311836	-0.256898	0.413219
C111	C	1.645170	0.076435	0.746552
C112	C	0.979157	-0.553815	0.000046
C113	C	1.312490	-0.220482	0.333379
C114	C	1.645824	0.112852	0.666712
C115	C	1.133790	0.090255	0.000070
C116	C	1.467124	0.423588	0.333403
C117	C	1.800457	0.756922	0.666736
C118	C	1.226080	0.091616	0.000070
C119	C	1.559414	0.424950	0.333404
C120	C	1.892747	0.758283	0.666737
C121	C	0.975231	0.223030	0.000046
C122	C	1.308564	0.556364	0.333380
C123	C	1.641898	0.889697	0.666713
C124	C	0.976587	0.300538	0.000038
C125	C	1.309920	0.633872	0.333372
C126	C	1.643254	0.967205	0.666705
N127	N	0.981761	0.095376	0.228235
N128	N	1.315095	0.428710	0.561568
N129	N	1.648428	0.762043	0.894901
N130	N	0.981782	0.095376	-0.228114
N131	N	1.315116	0.428710	0.105219
N132	N	1.648449	0.762043	0.438552
C133	C	1.038476	0.047916	0.453966
C134	C	1.371809	0.381250	0.787300
C135	C	1.705142	0.714583	1.120633
C136	C	1.038478	0.047915	0.546156
C137	C	1.371812	0.381248	0.879489
C138	C	1.705145	0.714581	1.212823
C139	C	0.925062	0.142838	0.546147
C140	C	1.258395	0.476172	0.879481
C141	C	1.591729	0.809505	1.212814
C142	C	0.925056	0.142836	0.453959
C143	C	1.258389	0.476169	0.787293
C144	C	1.591723	0.809503	1.120626
C145	C	0.981768	0.095376	0.407871
C146	C	1.315101	0.428709	0.741205
C147	C	1.648434	0.762043	1.074538
C148	C	0.981776	0.095377	0.592249
C149	C	1.315109	0.428710	0.925582
C150	C	1.648443	0.762043	1.258916
C151	C	0.981779	0.095375	0.692205
C152	C	1.315112	0.428708	1.025538
C153	C	1.648445	0.762042	1.358872
C154	C	0.981764	0.095376	0.307909
C155	C	1.315098	0.428710	0.641242
C156	C	1.648431	0.762043	0.974575
H157	H	0.986852	-0.116534	-0.144772
H158	H	1.320185	0.216799	0.188561
H159	H	1.653519	0.550133	0.521894
Cl160	Cl	0.984246	-0.264775	-0.180138
Cl161	Cl	1.317579	0.068558	0.153196
Cl162	Cl	1.650912	0.401892	0.486529
Cl163	Cl	0.987085	-0.100435	0.180286
Cl164	Cl	1.320418	0.232898	0.513619
Cl165	Cl	1.653752	0.566232	0.846952
H166	H	0.979048	-0.560563	-0.144801
H167	H	1.312381	-0.227229	0.188532
H168	H	1.645715	0.106104	0.521865
H169	H	0.878890	0.181480	0.583681
H170	H	1.212223	0.514814	0.917015
H171	H	1.545556	0.848147	1.250348
H172	H	0.560411	0.096544	-0.144793
H173	H	0.893744	0.429878	0.188541
H174	H	1.227078	0.763211	0.521874
H175	H	1.084654	0.009268	0.583684
H176	H	1.417988	0.342601	0.917018
H177	H	1.751321	0.675935	1.250351
Cl178	Cl	1.109767	-0.011750	0.396031
Cl179	Cl	1.443100	0.321583	0.729364
Cl180	Cl	1.776434	0.654916	1.062697
Cl181	Cl	0.853756	0.202501	0.396005
Cl182	Cl	1.187089	0.535834	0.729339
Cl183	Cl	1.520423	0.869167	1.062672
H184	H	0.403118	0.094205	0.144916
H185	H	0.736451	0.427538	0.478249
H186	H	1.069785	0.760872	0.811583
Cl187	Cl	0.984206	-0.264812	0.180270
Cl188	Cl	1.317540	0.068521	0.513603
Cl189	Cl	1.650873	0.401855	0.846936
H190	H	0.976692	-0.692713	0.144885
H191	H	1.310025	-0.359380	0.478219
H192	H	1.643359	-0.026047	0.811552
H193	H	0.403100	0.094234	-0.144785
H194	H	0.736433	0.427567	0.188548
H195	H	1.069767	0.760901	0.521882
H196	H	0.560444	0.096522	0.144895
H197	H	0.893778	0.429855	0.478229
H198	H	1.227111	0.763189	0.811562
H199	H	0.976713	-0.692676	-0.144807
H200	H	1.310047	-0.359343	0.188526
H201	H	1.643380	-0.026010	0.521859
Cl202	Cl	0.979292	-0.544469	0.180255
Cl203	Cl	1.312626	-0.211136	0.513588
Cl204	Cl	1.645959	0.122197	0.846921
