data_functionalizedCrystal
_audit_creation_method	'MofGen! by Chris Wilmer'
_symmetry_space_group_name_H-M	'P1'
_symmetry_Int_Tables_number	1
_symmetry_cell_setting	triclinic
loop_
_symmetry_equiv_pos_as_xyz
  x,y,z
_cell_length_a	13.262402
_cell_length_b	17.038272
_cell_length_c	11.804917
_cell_angle_alpha	102.701361
_cell_angle_beta	62.661261
_cell_angle_gamma	87.647233
loop_
_atom_site_label
_atom_site_type_symbol
_atom_site_fract_x
_atom_site_fract_y
_atom_site_fract_z
O1	O	1.477986	0.045120	-0.379673
O2	O	1.977986	0.545120	0.120327
O3	O	1.152336	0.073305	-0.274198
O4	O	1.652336	0.573305	0.225802
O5	O	1.313227	-0.054511	-0.326319
O6	O	1.813227	0.445489	0.173681
O7	O	1.317094	0.172936	-0.327553
O8	O	1.817094	0.672936	0.172447
O9	O	1.355564	-0.088114	-0.538072
O10	O	1.855564	0.411886	-0.038072
O11	O	1.194673	0.039702	-0.485951
O12	O	1.694673	0.539702	0.014049
O13	O	1.520323	0.011517	-0.591426
O14	O	2.020323	0.511517	-0.091426
Cu15	Cu	1.361363	0.022541	-0.558023
Cu16	Cu	1.861363	0.522541	-0.058023
Cu17	Cu	1.311295	0.062281	-0.307601
Cu18	Cu	1.811295	0.562281	0.192399
O19	O	1.359431	0.139333	-0.539305
O20	O	1.859431	0.639333	-0.039305
C21	C	1.131631	0.058013	-0.366512
C22	C	1.631631	0.558013	0.133488
C23	C	1.006862	0.062501	-0.326101
C24	C	1.506862	0.562501	0.173899
C25	C	0.925166	0.082926	-0.191686
C26	C	1.425166	0.582926	0.308314
C27	C	0.807938	0.087150	-0.153719
C28	C	1.307938	0.587150	0.346281
C29	C	0.772396	0.070944	-0.250164
C30	C	1.272396	0.570944	0.249836
C31	C	0.854094	0.050512	-0.384582
C32	C	1.354094	0.550512	0.115418
C33	C	0.971332	0.046294	-0.422553
C34	C	1.471332	0.546294	0.077447
C35	C	0.818563	0.034311	-0.481031
C36	C	1.318563	0.534311	0.018969
C37	C	0.900260	0.013880	-0.615449
C38	C	1.400260	0.513880	-0.115449
C39	C	1.017486	0.009662	-0.653413
C40	C	1.517486	0.509662	-0.153413
C41	C	1.053028	0.025869	-0.556968
C42	C	1.553028	0.525869	-0.056968
C43	C	0.701324	0.038530	-0.443061
C44	C	1.201324	0.538530	0.056939
C45	C	0.747491	0.001898	-0.673928
C46	C	1.247491	0.501898	-0.173928
C47	C	0.864718	-0.002327	-0.711894
C48	C	1.364718	0.497673	-0.211894
C49	C	1.330875	-0.100271	-0.431055
C50	C	1.830875	0.399729	0.068945
C51	C	1.320371	-0.186558	-0.427653
C52	C	1.820371	0.313442	0.072347
C53	C	1.416809	-0.241317	-0.458889
C54	C	1.916809	0.258683	0.041111
C55	C	1.406930	-0.322390	-0.455678
C56	C	1.906930	0.177610	0.044322
C57	C	1.300615	-0.348704	-0.421240
C58	C	1.800615	0.151296	0.078760
C59	C	1.204169	-0.293939	-0.389997
C60	C	1.704169	0.206061	0.110003
C61	C	1.214047	-0.212866	-0.393199
C62	C	1.714047	0.287134	0.106801
C63	C	1.265717	-0.592779	-0.409920
C64	C	1.765717	-0.092779	0.090080
C65	C	1.255847	-0.673860	-0.406724
C66	C	1.755847	-0.173860	0.093276
C67	C	1.458609	-0.702304	-0.472404
C68	C	1.958609	-0.202304	0.027596
C69	C	1.468479	-0.621230	-0.475610
C70	C	1.968479	-0.121230	0.024390
C71	C	1.372032	-0.566470	-0.444361
C72	C	1.872032	-0.066470	0.055639
C73	C	1.290516	-0.431574	-0.417961
C74	C	1.790516	0.068426	0.082039
C75	C	1.382130	-0.483601	-0.447631
C76	C	1.882130	0.016399	0.052369
C77	C	1.541027	0.026810	-0.499109
C78	C	2.041027	0.526810	0.000891
C79	C	1.665794	0.022323	-0.539512
C80	C	2.165794	0.522323	-0.039512
C81	C	1.341783	0.185094	-0.434567
C82	C	1.841783	0.685094	0.065433
C83	C	1.352285	0.271382	-0.437961
C84	C	1.852285	0.771382	0.062039
N85	N	1.396587	-0.005411	-0.734159
N86	N	1.896587	0.494589	-0.234159
C87	C	1.481174	-0.072571	-0.823871
C88	C	1.981174	0.427429	-0.323871
C89	C	1.507821	-0.093743	-0.957154
C90	C	2.007821	0.406257	-0.457154
C91	C	1.449888	-0.047752	-1.000739
C92	C	1.949888	0.452248	-0.500739
C93	C	1.365304	0.019413	-0.911028
C94	C	1.865304	0.519413	-0.411028
C95	C	1.338649	0.040583	-0.777731
C96	C	1.838649	0.540583	-0.277731
C97	C	1.307363	0.065402	-0.954599
C98	C	1.807363	0.565402	-0.454599
C99	C	1.222779	0.132568	-0.864888
C100	C	1.722779	0.632568	-0.364888
C101	C	1.196129	0.153734	-0.731605
C102	C	1.696129	0.653734	-0.231605
C103	C	1.254061	0.107744	-0.688019
C104	C	1.754061	0.607744	-0.188019
C105	C	1.334018	0.044232	-1.087896
C106	C	1.834018	0.544232	-0.587896
C107	C	1.191492	0.157387	-1.041756
C108	C	1.691492	0.657387	-0.541756
C109	C	1.164846	0.178558	-0.908474
C110	C	1.664846	0.678558	-0.408474
N111	N	1.276080	0.090226	-0.131468
N112	N	1.776080	0.590226	0.368532
H113	H	1.148483	0.022425	-0.587874
H114	H	1.648483	0.522425	-0.087874
H115	H	0.741428	0.103786	-0.044276
H116	H	1.241428	0.603786	0.455724
Cl117	Cl	1.156864	-0.464662	-0.374661
Cl118	Cl	1.656864	0.035338	0.125339
H119	H	0.954116	0.096125	-0.113175
H120	H	1.454116	0.596125	0.386825
H121	H	1.402886	-0.010454	-1.160927
H122	H	1.902886	0.489546	-0.660927
H123	H	0.676943	0.074384	-0.219243
H124	H	1.176943	0.574384	0.280757
Cl125	Cl	1.550472	-0.208246	-0.502199
Cl126	Cl	2.050472	0.291754	-0.002199
Cl127	Cl	1.220566	0.134364	-0.520458
Cl128	Cl	1.720566	0.634364	-0.020458
H129	H	1.084002	-0.006967	-0.762865
H130	H	1.584002	0.493033	-0.262865
H131	H	1.095975	0.233246	-0.835415
H132	H	1.595975	0.733246	-0.335415
H133	H	1.537130	-0.746897	-0.497842
H134	H	2.037130	-0.246897	0.002158
Cl135	Cl	1.070512	-0.327018	-0.346687
Cl136	Cl	1.570512	0.172982	0.153313
Cl137	Cl	0.967434	-0.028007	-0.880872
Cl138	Cl	1.467434	0.471993	-0.380872
Cl139	Cl	1.553986	-0.130387	-0.769072
Cl140	Cl	2.053986	0.369613	-0.269072
Cl141	Cl	1.483390	-0.074367	-1.168298
Cl142	Cl	1.983390	0.425633	-0.668298
H143	H	1.127247	0.208419	-0.658558
H144	H	1.627247	0.708419	-0.158558
H145	H	0.634817	0.055166	-0.333616
H146	H	1.134817	0.555166	0.166384
Cl147	Cl	1.122185	-0.706940	-0.363434
Cl148	Cl	1.622185	-0.206940	0.136566
H149	H	1.135517	-0.168282	-0.367762
H150	H	1.635517	0.331718	0.132238
Cl151	Cl	1.602130	-0.588148	-0.518865
Cl152	Cl	2.102130	-0.088148	-0.018865
H153	H	0.718554	-0.011297	-0.752462
H154	H	1.218554	0.488703	-0.252462
H155	H	1.485461	-0.366972	-0.481117
H156	H	1.985461	0.133028	0.018883
Cl157	Cl	1.144467	-0.523949	-0.370631
Cl158	Cl	1.644467	-0.023949	0.129369
Cl159	Cl	1.515778	-0.450516	-0.490917
Cl160	Cl	2.015778	0.049484	0.009083
Cl161	Cl	1.614148	-0.178174	-1.069928
Cl162	Cl	2.114148	0.321826	-0.569928
H163	H	1.144316	0.194835	-1.077240
H164	H	1.644316	0.694835	-0.577240
