data_functionalizedCrystal
_audit_creation_method	'MofGen! by Chris Wilmer'
_symmetry_space_group_name_H-M	'P1'
_symmetry_Int_Tables_number	1
_symmetry_cell_setting	triclinic
loop_
_symmetry_equiv_pos_as_xyz
  x,y,z
_cell_length_a	17.699077
_cell_length_b	14.044190
_cell_length_c	16.176319
_cell_angle_alpha	90.008093
_cell_angle_beta	90.005422
_cell_angle_gamma	88.236177
loop_
_atom_site_label
_atom_site_type_symbol
_atom_site_fract_x
_atom_site_fract_y
_atom_site_fract_z
O1	O	1.012348	0.119819	0.068745
O2	O	1.345682	0.453152	0.402078
O3	O	1.679015	0.786486	0.735411
O4	O	0.793046	0.135418	0.068750
O5	O	1.126379	0.468751	0.402083
O6	O	1.459712	0.802084	0.735417
O7	O	0.899402	-0.010359	0.068731
O8	O	1.232736	0.322974	0.402065
O9	O	1.566069	0.656308	0.735398
O10	O	0.905991	0.265595	0.068764
O11	O	1.239325	0.598929	0.402097
O12	O	1.572658	0.932262	0.735430
O13	O	0.899389	-0.010359	-0.068762
O14	O	1.232722	0.322974	0.264571
O15	O	1.566055	0.656307	0.597905
O16	O	0.793032	0.135417	-0.068743
O17	O	1.126365	0.468751	0.264590
O18	O	1.459699	0.802084	0.597924
O19	O	1.012335	0.119819	-0.068748
O20	O	1.345668	0.453152	0.264585
O21	O	1.679001	0.786485	0.597918
Cu22	Cu	0.902682	0.127618	-0.081300
Cu23	Cu	1.236015	0.460951	0.252033
Cu24	Cu	1.569349	0.794284	0.585367
Cu25	Cu	0.902698	0.127618	0.081302
Cu26	Cu	1.236032	0.460952	0.414635
Cu27	Cu	1.569365	0.794285	0.747968
O28	O	0.905978	0.265595	-0.068730
O29	O	1.239311	0.598928	0.264604
O30	O	1.572644	0.932262	0.597937
C31	C	0.764803	0.134859	0.000004
C32	C	1.098137	0.468193	0.333337
C33	C	1.431470	0.801526	0.666671
C34	C	0.680669	0.133185	0.000005
C35	C	1.014003	0.466519	0.333339
C36	C	1.347336	0.799852	0.666672
C37	C	0.641140	0.132397	-0.074943
C38	C	0.974473	0.465730	0.258390
C39	C	1.307807	0.799063	0.591723
C40	C	0.562088	0.130809	-0.074944
C41	C	0.895421	0.464142	0.258389
C42	C	1.228755	0.797475	0.591722
C43	C	0.522566	0.130016	0.000004
C44	C	0.855900	0.463350	0.333337
C45	C	1.189233	0.796683	0.666671
C46	C	0.562101	0.130803	0.074958
C47	C	0.895435	0.464136	0.408292
C48	C	1.228768	0.797469	0.741625
C49	C	0.641152	0.132384	0.074958
C50	C	0.974485	0.465717	0.408292
C51	C	1.307819	0.799050	0.741625
C52	C	0.243298	0.124425	0.074959
C53	C	0.576631	0.457758	0.408292
C54	C	0.909965	0.791091	0.741626
C55	C	0.164241	0.122846	0.074953
C56	C	0.497575	0.456180	0.408286
C57	C	0.830908	0.789513	0.741620
C58	C	0.164234	0.122850	-0.074944
C59	C	0.497567	0.456183	0.258390
C60	C	0.830900	0.789516	0.591723
C61	C	0.243285	0.124431	-0.074944
C62	C	0.576618	0.457764	0.258390
C63	C	0.909951	0.791097	0.591723
C64	C	0.282813	0.125212	0.000010
C65	C	0.616146	0.458545	0.333344
C66	C	0.949479	0.791878	0.666677
C67	C	0.368530	0.126932	0.000010
C68	C	0.701863	0.460265	0.333344
C69	C	1.035197	0.793599	0.666677
C70	C	0.436850	0.128303	0.000005
C71	C	0.770184	0.461636	0.333338
C72	C	1.103517	0.794970	0.666671
C73	C	0.896513	-0.045667	-0.000018
C74	C	1.229846	0.287666	0.333316
C75	C	1.563180	0.621000	0.666649
C76	C	0.887915	-0.150873	-0.000025
C77	C	1.221248	0.182461	0.333309
C78	C	1.554582	0.515794	0.666642
C79	C	0.933175	-0.401265	0.000007
C80	C	1.266509	-0.067931	0.333340
C81	C	1.599842	0.265402	0.666673
C82	C	0.872208	-0.343494	0.000002
C83	C	1.205541	-0.010160	0.333336
C84	C	1.538875	0.323173	0.666669
C85	C	0.880950	-0.236310	-0.000013
C86	C	1.214283	0.097024	0.333321
C87	C	1.547616	0.430357	0.666654
C88	C	0.924435	-0.508459	0.000022
C89	C	1.257769	-0.175125	0.333355
C90	C	1.591102	0.158208	0.666688
C91	C	1.040577	0.120377	-0.000000
C92	C	1.373910	0.453710	0.333333
C93	C	1.707244	0.787043	0.666666
C94	C	1.124711	0.122051	0.000004
C95	C	1.458044	0.455384	0.333337
C96	C	1.791377	0.788717	0.666670
C97	C	0.908867	0.300903	0.000021
C98	C	1.242200	0.634236	0.333355
C99	C	1.575534	0.967570	0.666688
C100	C	0.917465	0.406109	0.000034
C101	C	1.250798	0.739442	0.333367
C102	C	1.584132	1.072775	0.666700
N103	N	0.902676	0.127617	-0.195665
N104	N	1.236009	0.460950	0.137668
N105	N	1.569343	0.794284	0.471001
C106	C	0.952452	0.185027	-0.238920
C107	C	1.285786	0.518360	0.094414
C108	C	1.619119	0.851693	0.427747
C109	C	0.952460	0.185023	-0.325467
C110	C	1.285794	0.518356	0.007866
C111	C	1.619127	0.851690	0.341200
C112	C	0.902688	0.127614	-0.368758
C113	C	1.236021	0.460947	-0.035424
C114	C	1.569354	0.794281	0.297909
C115	C	0.852909	0.070198	-0.325497
C116	C	1.186242	0.403531	0.007836
C117	C	1.519576	0.736865	0.341170
C118	C	0.852905	0.070197	-0.238952
C119	C	1.186239	0.403530	0.094382
C120	C	1.519572	0.736864	0.427715
C121	C	0.852923	0.070199	-0.674525
C122	C	1.186256	0.403532	-0.341192
C123	C	1.519590	0.736866	-0.007859
C124	C	0.852929	0.070206	-0.761077
C125	C	1.186262	0.403540	-0.427744
C126	C	1.519596	0.736873	-0.094410
C127	C	0.952478	0.185025	-0.761041
C128	C	1.285811	0.518358	-0.427707
C129	C	1.619145	0.851692	-0.094374
C130	C	0.952474	0.185024	-0.674495
C131	C	1.285808	0.518357	-0.341162
C132	C	1.619141	0.851691	-0.007828
C133	C	0.902699	0.127605	-0.631242
C134	C	1.236032	0.460938	-0.297909
C135	C	1.569366	0.794271	0.035425
C136	C	0.902692	0.127608	-0.537398
C137	C	1.236025	0.460941	-0.204065
C138	C	1.569359	0.794274	0.129269
C139	C	0.902690	0.127615	-0.462600
C140	C	1.236024	0.460949	-0.129267
C141	C	1.569357	0.794282	0.204066
N142	N	0.902710	0.127612	0.195667
N143	N	1.236043	0.460945	0.529000
N144	N	1.569376	0.794278	0.862334
H145	H	0.132065	0.122200	0.135989
H146	H	0.465398	0.455534	0.469322
H147	H	0.798732	0.788867	0.802655
H148	H	0.813447	-0.374532	0.000008
H149	H	1.146781	-0.041199	0.333342
H150	H	1.480114	0.292135	0.666675
H151	H	0.991932	-0.370228	-0.000003
H152	H	1.325265	-0.036895	0.333330
H153	H	1.658598	0.296439	0.666663
H154	H	0.992979	0.231781	-0.203679
H155	H	1.326312	0.565115	0.129655
H156	H	1.659646	0.898448	0.462988
C157	C	1.007191	0.248216	-0.373043
C158	C	1.340524	0.581549	-0.039710
C159	C	1.673858	0.914883	0.293624
N160	N	1.048407	0.295829	-0.408877
N161	N	1.381740	0.629162	-0.075543
N162	N	1.715074	0.962495	0.257790
C163	C	1.007230	0.248175	-0.626880
C164	C	1.340564	0.581509	-0.293547
C165	C	1.673897	0.914842	0.039787
N166	N	1.048477	0.295738	-0.591017
N167	N	1.381810	0.629072	-0.257684
N168	N	1.715143	0.962405	0.075649
C169	C	1.007239	0.248180	-0.808627
C170	C	1.340572	0.581513	-0.475293
C171	C	1.673906	0.914846	-0.141960
N172	N	1.048483	0.295747	-0.844467
N173	N	1.381817	0.629081	-0.511134
N174	N	1.715150	0.962414	-0.177801
H175	H	0.812372	0.023448	-0.203735
H176	H	1.145705	0.356782	0.129599
H177	H	1.479039	0.690115	0.462932
C178	C	0.798175	0.007045	-0.808695
C179	C	1.131509	0.340378	-0.475362
C180	C	1.464842	0.673712	-0.142029
N181	N	0.756937	-0.040526	-0.844561
N182	N	1.090271	0.292807	-0.511228
N183	N	1.423604	0.626141	-0.177895
C184	C	0.798162	0.007044	-0.626958
C185	C	1.131496	0.340377	-0.293625
C186	C	1.464829	0.673711	0.039708
N187	N	0.756912	-0.040525	-0.591128
N188	N	1.090245	0.292809	-0.257794
N189	N	1.423578	0.626142	0.075539
C190	C	0.518609	0.129963	-0.157394
C191	C	0.851942	0.463296	0.175940
C192	C	1.185275	0.796629	0.509273
N193	N	0.485860	0.129333	-0.219498
N194	N	0.819193	0.462666	0.113835
N195	N	1.152527	0.795999	0.447168
C196	C	0.684607	0.133267	-0.157394
C197	C	1.017940	0.466601	0.175940
C198	C	1.351273	0.799934	0.509273
N199	N	0.717344	0.133919	-0.219498
N200	N	1.050677	0.467252	0.113835
N201	N	1.384010	0.800585	0.447168
H202	H	0.812387	0.023450	-0.360751
H203	H	1.145720	0.356783	-0.027418
H204	H	1.479053	0.690117	0.305915
H205	H	0.275459	0.125080	-0.135974
H206	H	0.608792	0.458414	0.197359
H207	H	0.942126	0.791747	0.530692
H208	H	0.529917	0.130151	0.135983
H209	H	0.863250	0.463484	0.469316
H210	H	1.196583	0.796818	0.802649
C211	C	0.684634	0.133254	0.157408
C212	C	1.017967	0.466587	0.490741
C213	C	1.351300	0.799920	0.824074
N214	N	0.717383	0.133906	0.219511
N215	N	1.050717	0.467240	0.552845
N216	N	1.384050	0.800573	0.886178
H217	H	0.275472	0.125058	0.135991
H218	H	0.608806	0.458391	0.469324
H219	H	0.942139	0.791724	0.802658
C220	C	0.120746	0.121979	-0.157395
C221	C	0.454079	0.455313	0.175938
C222	C	0.787413	0.788646	0.509271
N223	N	0.087992	0.121325	-0.219496
N224	N	0.421326	0.454659	0.113837
N225	N	0.754659	0.787992	0.447171
