data_functionalizedCrystal
_audit_creation_method	'MofGen! by Chris Wilmer'
_symmetry_space_group_name_H-M	'P1'
_symmetry_Int_Tables_number	1
_symmetry_cell_setting	triclinic
loop_
_symmetry_equiv_pos_as_xyz
  x,y,z
_cell_length_a	19.077105
_cell_length_b	17.640280
_cell_length_c	19.076919
_cell_angle_alpha	81.491119
_cell_angle_beta	90.076224
_cell_angle_gamma	76.093206
loop_
_atom_site_label
_atom_site_type_symbol
_atom_site_fract_x
_atom_site_fract_y
_atom_site_fract_z
Zn1	Zn	1.129876	-0.382634	-0.374495
Zn2	Zn	1.629876	0.117366	0.125505
Zn3	Zn	1.158314	-0.509803	-0.235079
Zn4	Zn	1.658314	-0.009803	0.264921
Zn5	Zn	1.015111	-0.372039	-0.254114
Zn6	Zn	1.515111	0.127961	0.245886
Zn7	Zn	1.036046	-0.509326	-0.347913
Zn8	Zn	1.536046	-0.009326	0.152087
O9	O	1.084837	-0.443450	-0.302900
O10	O	1.584837	0.056550	0.197100
O11	O	1.232847	-0.404137	-0.359159
O12	O	1.732847	0.095863	0.140841
O13	O	1.142458	-0.487294	-0.140002
O14	O	1.642458	0.012706	0.359998
O15	O	1.009672	-0.262768	-0.289173
O16	O	1.509672	0.237232	0.210827
O17	O	1.253740	-0.497568	-0.256731
O18	O	1.753740	0.002432	0.243269
O19	O	1.093989	-0.270552	-0.377617
O20	O	1.593989	0.229448	0.122383
O21	O	1.037247	-0.386079	-0.153987
O22	O	1.537247	0.113921	0.346013
O23	O	0.918689	-0.385616	-0.263398
O24	O	1.418689	0.114384	0.236602
O25	O	1.045353	-0.496755	-0.449041
O26	O	1.545353	0.003245	0.050959
O27	O	0.934070	-0.486481	-0.332312
O28	O	1.434070	0.013519	0.167688
O29	O	1.114289	-0.403674	-0.468571
O30	O	1.614289	0.096326	0.031429
O31	O	1.162758	-0.620416	-0.230956
O32	O	1.662758	-0.120416	0.269044
O33	O	1.072929	-0.620066	-0.313855
O34	O	1.572929	-0.120066	0.186145
C35	C	0.900659	-0.434848	-0.297037
C36	C	1.400659	0.065152	0.202963
C37	C	0.821869	-0.431187	-0.294542
C38	C	1.321869	0.068813	0.205458
C39	C	0.792897	-0.482056	-0.329166
C40	C	1.292897	0.017944	0.170834
C41	C	0.718864	-0.478606	-0.326827
C42	C	1.218864	0.021394	0.173173
C43	C	0.673806	-0.424291	-0.289859
C44	C	1.173806	0.075709	0.210141
C45	C	0.702782	-0.373417	-0.255233
C46	C	1.202782	0.126583	0.244767
C47	C	0.776813	-0.376864	-0.257577
C48	C	1.276813	0.123136	0.242423
C49	C	0.451534	-0.408341	-0.279014
C50	C	0.951534	0.091659	0.220986
C51	C	0.377499	-0.404900	-0.276671
C52	C	0.877499	0.095100	0.223329
C53	C	0.393586	-0.510088	-0.348266
C54	C	0.893586	-0.010088	0.151734
C55	C	0.467618	-0.513532	-0.350603
C56	C	0.967618	-0.013532	0.149397
C57	C	0.496587	-0.462656	-0.315981
C58	C	0.996587	0.037344	0.184019
N59	N	0.598132	-0.420765	-0.287465
N60	N	1.098132	0.079235	0.212535
N61	N	0.572258	-0.466178	-0.318379
N62	N	1.072258	0.033822	0.181621
C63	C	1.123220	-0.648940	-0.267471
C64	C	1.623220	-0.148940	0.232529
C65	C	1.139704	-0.736853	-0.252340
C66	C	1.639704	-0.236853	0.247660
C67	C	0.959888	-1.025193	-0.418115
C68	C	1.459888	-0.525193	0.081885
C69	C	0.975380	-1.107800	-0.403874
C70	C	1.475380	-0.607800	0.096126
C71	C	1.068973	-1.108106	-0.317643
C72	C	1.568973	-0.608106	0.182357
C73	C	1.053491	-1.025498	-0.331879
C74	C	1.553491	-0.525498	0.168121
C75	C	0.998948	-0.984048	-0.382115
C76	C	1.498948	-0.484048	0.117885
C77	C	1.092551	-0.984353	-0.295879
C78	C	1.592551	-0.484353	0.204121
C79	C	1.077068	-0.901751	-0.310111
C80	C	1.577068	-0.401751	0.189889
C81	C	1.022525	-0.860295	-0.360343
C82	C	1.522525	-0.360295	0.139657
C83	C	0.983465	-0.901447	-0.396347
C84	C	1.483465	-0.401447	0.103653
C85	C	1.147091	-1.025804	-0.245640
C86	C	1.647091	-0.525804	0.254360
C87	C	1.186150	-0.984658	-0.209640
C88	C	1.686150	-0.484658	0.290360
C89	C	1.170671	-0.902056	-0.223875
C90	C	1.670671	-0.402056	0.276125
C91	C	1.116128	-0.860600	-0.274107
C92	C	1.616128	-0.360600	0.225893
C93	C	1.209731	-0.860904	-0.187872
C94	C	1.709731	-0.360904	0.312128
C95	C	1.194248	-0.778303	-0.202104
C96	C	1.694248	-0.278303	0.297896
C97	C	1.100645	-0.777998	-0.288339
C98	C	1.600645	-0.277998	0.211661
C99	C	1.269734	-0.452087	-0.308787
C100	C	1.769734	0.047913	0.191213
C101	C	1.348526	-0.455768	-0.311295
C102	C	1.848526	0.044232	0.188705
C103	C	1.078984	-0.451343	-0.484821
C104	C	1.578984	0.048657	0.015179
C105	C	1.076490	-0.454707	-0.562344
C106	C	1.576490	0.045293	-0.062344
C107	C	1.046323	-0.237160	-0.338484
C108	C	1.546323	0.262840	0.161516
C109	C	1.029910	-0.149252	-0.353647
C110	C	1.529910	0.350748	0.146353
C111	C	1.111208	-0.407827	-0.608934
C112	C	1.611208	0.092173	-0.108934
C113	C	1.108856	-0.410984	-0.681775
C114	C	1.608856	0.089016	-0.181775
C115	C	1.071789	-0.461025	-0.708026
C116	C	1.571789	0.038975	-0.208026
C117	C	1.037067	-0.507907	-0.661431
C118	C	1.537067	-0.007907	-0.161431
C119	C	1.039416	-0.504745	-0.588591
C120	C	1.539416	-0.004745	-0.088591
C121	C	1.060912	-0.475673	-0.924783
C122	C	1.560912	0.024327	-0.424783
C123	C	1.058568	-0.478833	-0.997629
C124	C	1.558568	0.021167	-0.497629
C125	C	1.130356	-0.381909	-1.017969
C126	C	1.630356	0.118091	-0.517969
C127	C	1.132705	-0.378755	-0.945126
C128	C	1.632705	0.121245	-0.445126
C129	C	1.097980	-0.425634	-0.898538
C130	C	1.597980	0.074366	-0.398538
N131	N	1.069386	-0.464255	-0.782482
N132	N	1.569386	0.035745	-0.282482
N133	N	1.100379	-0.422399	-0.824084
N134	N	1.600379	0.077601	-0.324084
C135	C	1.090696	-0.435533	-0.121699
C136	C	1.590696	0.064467	0.378301
C137	C	1.093286	-0.431953	-0.044218
C138	C	1.593286	0.068047	0.455782
H139	H	0.340811	-0.360661	-0.246573
H140	H	0.840811	0.139339	0.253427
H141	H	1.011136	-0.542911	-0.550659
H142	H	1.511136	-0.042911	-0.050659
H143	H	1.141394	-0.367081	-0.587566
H144	H	1.641394	0.132919	-0.087566
O145	O	1.007481	-0.780062	-0.374299
O146	O	1.507481	-0.280062	0.125701
C147	C	1.001298	-0.665248	-0.462182
C148	C	1.501298	-0.165248	0.037818
C149	C	1.018342	-0.756115	-0.446478
C150	C	1.518342	-0.256115	0.053522
H151	H	1.010087	-0.645859	-0.520534
H152	H	1.510087	-0.145859	-0.020534
H153	H	0.942676	-0.639642	-0.449826
H154	H	1.442676	-0.139642	0.050174
H155	H	1.038566	-0.642971	-0.427792
H156	H	1.538566	-0.142971	0.072208
H157	H	0.981121	-0.778460	-0.480858
H158	H	1.481121	-0.278460	0.019142
H159	H	1.076981	-0.781666	-0.458814
H160	H	1.576981	-0.281666	0.041186
H161	H	0.800399	-0.335437	-0.229387
H162	H	1.300399	0.164563	0.270613
H163	H	0.475112	-0.366919	-0.250816
H164	H	0.975112	0.133081	0.249184
H165	H	0.666089	-0.329190	-0.225136
H166	H	1.166089	0.170810	0.274864
O167	O	1.022615	-0.527549	-1.023039
O168	O	1.522615	-0.027549	-0.523039
C169	C	1.012620	-0.661441	-1.021070
C170	C	1.512620	-0.161441	-0.521070
C171	C	1.053383	-0.606363	-0.992220
C172	C	1.553383	-0.106363	-0.492220
H173	H	1.037490	-0.725175	-0.996177
H174	H	1.537490	-0.225175	-0.496177
H175	H	0.953327	-0.644319	-1.007304
H176	H	1.453327	-0.144319	-0.507304
H177	H	1.016894	-0.655602	-1.081136
H178	H	1.516894	-0.155602	-0.581136
H179	H	1.049167	-0.612173	-0.932152
H180	H	1.549167	-0.112173	-0.432152
H181	H	1.112658	-0.623499	-1.006041
H182	H	1.612658	-0.123499	-0.506041
H183	H	0.829580	-0.526287	-0.359267
H184	H	1.329580	-0.026287	0.140733
O185	O	1.047616	-0.737639	-0.337061
O186	O	1.547616	-0.237639	0.162939
C187	C	0.934116	-0.640436	-0.359375
C188	C	1.434116	-0.140436	0.140625
C189	C	0.994124	-0.686072	-0.304132
C190	C	1.494124	-0.186072	0.195868
H191	H	0.890845	-0.598746	-0.332769
H192	H	1.390845	-0.098746	0.167231
H193	H	0.958157	-0.604773	-0.403569
H194	H	1.458157	-0.104773	0.096431
H195	H	0.908898	-0.684053	-0.382678
H196	H	1.408898	-0.184053	0.117322
H197	H	1.019365	-0.642511	-0.280774
H198	H	1.519365	-0.142511	0.219226
H199	H	0.970043	-0.721747	-0.259980
H200	H	1.470043	-0.221747	0.240020
O201	O	0.906951	-0.984802	-0.466918
O202	O	1.406951	-0.484802	0.033082
C203	C	0.841592	-0.857407	-0.527027
C204	C	1.341592	-0.357407	-0.027027
C205	C	0.901570	-0.903053	-0.471757
C206	C	1.401570	-0.403053	0.028243
H207	H	0.837212	-0.791304	-0.530946
H208	H	1.337212	-0.291304	-0.030946
H209	H	0.855215	-0.876582	-0.580904
H210	H	1.355215	-0.376582	-0.080904
H211	H	0.787907	-0.870548	-0.510109
H212	H	1.287907	-0.370548	-0.010109
H213	H	0.955278	-0.889935	-0.488608
H214	H	1.455278	-0.389935	0.011392
H215	H	0.887885	-0.883872	-0.417893
H216	H	1.387885	-0.383872	0.082107
O217	O	0.930436	-0.861087	-0.445069
O218	O	1.430436	-0.361087	0.054931
C219	C	0.816936	-0.763884	-0.467382
C220	C	1.316936	-0.263884	0.032618
C221	C	0.876944	-0.809520	-0.412139
C222	C	1.376944	-0.309520	0.087861
H223	H	0.773665	-0.722194	-0.440777
H224	H	1.273665	-0.222194	0.059223
H225	H	0.840977	-0.728221	-0.511577
H226	H	1.340977	-0.228221	-0.011577
H227	H	0.791718	-0.807501	-0.490685
H228	H	1.291718	-0.307501	0.009315
H229	H	0.902185	-0.765959	-0.388781
H230	H	1.402185	-0.265959	0.111219
H231	H	0.852863	-0.845195	-0.367987
H232	H	1.352863	-0.345195	0.132013
O233	O	0.690794	-0.527998	-0.360560
O234	O	1.190794	-0.027998	0.139440
C235	C	0.671543	-0.570688	-0.471769
C236	C	1.171543	-0.070688	0.028231
C237	C	0.703375	-0.514715	-0.433653
C238	C	1.203375	-0.014715	0.066347
H239	H	0.681689	-0.559957	-0.530873
H240	H	1.181689	-0.059957	-0.030873
H241	H	0.698422	-0.634594	-0.448942
H242	H	1.198422	-0.134594	0.051058
H243	H	0.610898	-0.558913	-0.463711
H244	H	1.110898	-0.058913	0.036289
H245	H	0.764016	-0.526418	-0.441697
H246	H	1.264016	-0.026418	0.058303
H247	H	0.676440	-0.450827	-0.456487
H248	H	1.176440	0.049173	0.043513
H249	H	0.943577	-1.141299	-0.433202
H250	H	1.443577	-0.641299	0.066798
O251	O	1.121944	-1.148497	-0.268881
O252	O	1.621944	-0.648497	0.231119
C253	C	1.187230	-1.275879	-0.208683
C254	C	1.687230	-0.775879	0.291317
C255	C	1.127237	-1.230239	-0.263940
C256	C	1.627237	-0.730239	0.236060
H257	H	1.191519	-1.341974	-0.204659
H258	H	1.691519	-0.841974	0.295341
H259	H	1.240962	-1.262854	-0.225586
H260	H	1.740962	-0.762854	0.274414
H261	H	1.173586	-1.256585	-0.154854
H262	H	1.673586	-0.756585	0.345146
H263	H	1.140812	-1.249506	-0.317787
H264	H	1.640812	-0.749506	0.182213
H265	H	1.073522	-1.243266	-0.246977
H266	H	1.573522	-0.743266	0.253023
O267	O	1.239121	-1.025049	-0.160878
O268	O	1.739121	-0.525049	0.339122
C269	C	1.304407	-1.152431	-0.100680
C270	C	1.804407	-0.652431	0.399320
C271	C	1.244414	-1.106791	-0.155936
C272	C	1.744414	-0.606791	0.344064
H273	H	1.308696	-1.218526	-0.096656
H274	H	1.808696	-0.718526	0.403344
H275	H	1.358139	-1.139406	-0.117583
H276	H	1.858139	-0.639406	0.382417
H277	H	1.290763	-1.133137	-0.046851
H278	H	1.790763	-0.633137	0.453149
H279	H	1.257989	-1.126058	-0.209784
H280	H	1.757989	-0.626058	0.290216
H281	H	1.190699	-1.119818	-0.138973
H282	H	1.690699	-0.619818	0.361027
O283	O	1.262701	-0.901297	-0.139110
O284	O	1.762701	-0.401297	0.360890
C285	C	1.327984	-1.028681	-0.078913
C286	C	1.827984	-0.528681	0.421087
C287	C	1.267992	-0.983038	-0.134169
C288	C	1.767992	-0.483038	0.365831
H289	H	1.332270	-1.094775	-0.074890
H290	H	1.832270	-0.594775	0.425110
H291	H	1.381717	-1.015658	-0.095816
H292	H	1.881717	-0.515658	0.404184
H293	H	1.314341	-1.009387	-0.025084
H294	H	1.814341	-0.509387	0.474916
H295	H	1.281566	-1.002305	-0.188017
H296	H	1.781566	-0.502305	0.311983
H297	H	1.214276	-0.996063	-0.117206
H298	H	1.714276	-0.496063	0.382794
H299	H	0.504301	-0.557763	-0.380705
H300	H	1.004301	-0.057763	0.119295
O301	O	1.232277	-0.738453	-0.167093
O302	O	1.732277	-0.238453	0.332907
C303	C	1.326716	-0.747462	-0.080020
C304	C	1.826716	-0.247462	0.419980
C305	C	1.283719	-0.792691	-0.119636
C306	C	1.783719	-0.292691	0.380364
H307	H	1.368306	-0.791293	-0.041632
H308	H	1.868306	-0.291293	0.458368
H309	H	1.355519	-0.711888	-0.119884
H310	H	1.855519	-0.211888	0.380116
H311	H	1.288112	-0.705708	-0.049180
H312	H	1.788112	-0.205708	0.450820
H313	H	1.322274	-0.834486	-0.150477
H314	H	1.822274	-0.334486	0.349523
H315	H	1.254906	-0.828214	-0.079738
H316	H	1.754906	-0.328214	0.420262
H317	H	1.159697	-1.093063	-0.234056
H318	H	1.659697	-0.593063	0.265944
H319	H	1.137129	-0.372812	-0.719706
H320	H	1.637129	0.127188	-0.219706
H321	H	1.162891	-0.338009	-0.923758
H322	H	1.662891	0.161991	-0.423758
O323	O	0.365320	-0.559420	-0.381888
O324	O	0.865320	-0.059420	0.118112
C325	C	0.258409	-0.600762	-0.409978
C326	C	0.758409	-0.100762	0.090022
C327	C	0.290321	-0.544835	-0.371879
C328	C	0.790321	-0.044835	0.128121
H329	H	0.197771	-0.589001	-0.401887
H330	H	0.697771	-0.089001	0.098113
H331	H	0.268538	-0.590086	-0.469090
H332	H	0.768538	-0.090086	0.030910
H333	H	0.285310	-0.664651	-0.387119
H334	H	0.785310	-0.164651	0.112881
H335	H	0.263440	-0.480926	-0.394679
H336	H	0.763440	0.019074	0.105321
H337	H	0.280201	-0.555580	-0.312770
H338	H	0.780201	-0.055580	0.187230
H339	H	1.158626	-0.343742	-1.055908
H340	H	1.658626	0.156258	-0.555908
O341	O	1.001176	-0.556606	-0.686949
O342	O	1.501176	-0.056606	-0.186949
C343	C	1.008914	-0.666480	-0.750500
C344	C	1.508914	-0.166480	-0.250500
C345	C	1.049651	-0.611393	-0.721626
C346	C	1.549651	-0.111393	-0.221626
H347	H	1.048086	-0.710778	-0.778555
H348	H	1.548086	-0.210778	-0.278555
H349	H	0.984524	-0.699502	-0.704710
H350	H	1.484524	-0.199502	-0.204710
H351	H	0.963955	-0.629898	-0.789656
H352	H	1.463955	-0.129898	-0.289656
H353	H	1.094642	-0.647916	-0.682481
H354	H	1.594642	-0.147916	-0.182481
H355	H	1.073990	-0.578367	-0.767453
H356	H	1.573990	-0.078367	-0.267453
O357	O	1.027290	-0.521255	-0.879460
O358	O	1.527290	-0.021255	-0.379460
C359	C	1.040326	-0.624067	-0.778536
C360	C	1.540326	-0.124067	-0.278536
C361	C	1.078496	-0.572480	-0.829805
C362	C	1.578496	-0.072480	-0.329805
H363	H	1.081711	-0.665506	-0.738386
H364	H	1.581711	-0.165506	-0.238386
H365	H	0.997594	-0.584589	-0.749465
H366	H	1.497594	-0.084589	-0.249465
H367	H	1.013414	-0.660333	-0.809841
H368	H	1.513414	-0.160333	-0.309841
H369	H	1.105450	-0.536206	-0.798554
H370	H	1.605450	-0.036206	-0.298554
H371	H	1.121189	-0.612001	-0.858878
H372	H	1.621189	-0.112001	-0.358878
