data_functionalizedCrystal
_audit_creation_method	'MofGen! by Chris Wilmer'
_symmetry_space_group_name_H-M	'P1'
_symmetry_Int_Tables_number	1
_symmetry_cell_setting	triclinic
loop_
_symmetry_equiv_pos_as_xyz
  x,y,z
_cell_length_a	14.519731
_cell_length_b	14.044190
_cell_length_c	13.596369
_cell_angle_alpha	89.989293
_cell_angle_beta	89.994584
_cell_angle_gamma	88.440315
loop_
_atom_site_label
_atom_site_type_symbol
_atom_site_fract_x
_atom_site_fract_y
_atom_site_fract_z
O1	O	1.233891	0.124370	-0.081805
O2	O	1.567224	0.457703	0.251528
O3	O	1.900558	0.791036	0.584862
O4	O	0.966596	0.138983	-0.081808
O5	O	1.299929	0.472317	0.251525
O6	O	1.633262	0.805650	0.584859
O7	O	1.096228	-0.006315	-0.081787
O8	O	1.429561	0.327018	0.251546
O9	O	1.762895	0.660351	0.584879
O10	O	1.104259	0.269668	-0.081826
O11	O	1.437592	0.603002	0.251508
O12	O	1.770925	0.936335	0.584841
O13	O	1.096213	-0.006323	0.081796
O14	O	1.429546	0.327010	0.415129
O15	O	1.762880	0.660344	0.748462
O16	O	0.966581	0.138976	0.081775
O17	O	1.299914	0.472309	0.415108
O18	O	1.633248	0.805642	0.748442
O19	O	1.233876	0.124362	0.081778
O20	O	1.567210	0.457695	0.415111
O21	O	1.900543	0.791029	0.748445
Zn22	Zn	1.100226	0.131668	0.107749
Zn23	Zn	1.433560	0.465001	0.441082
Zn24	Zn	1.766893	0.798334	0.774415
Zn25	Zn	1.100246	0.131678	-0.107779
Zn26	Zn	1.433579	0.465011	0.225555
Zn27	Zn	1.766912	0.798344	0.558888
O28	O	1.104244	0.269661	0.081757
O29	O	1.437577	0.602994	0.415090
O30	O	1.770911	0.936327	0.748424
C31	C	0.932174	0.138295	-0.000017
C32	C	1.265507	0.471628	0.333317
C33	C	1.598840	0.804961	0.666650
C34	C	0.829628	0.136243	-0.000017
C35	C	1.162961	0.469576	0.333317
C36	C	1.496295	0.802910	0.666650
C37	C	0.746349	0.134576	-0.000021
C38	C	1.079683	0.467909	0.333313
C39	C	1.413016	0.801242	0.666646
C40	C	0.641872	0.132492	-0.000021
C41	C	0.975206	0.465826	0.333313
C42	C	1.308539	0.799159	0.666646
C43	C	0.558600	0.130839	-0.000020
C44	C	0.891933	0.464172	0.333313
C45	C	1.225267	0.797506	0.666646
C46	C	0.454117	0.128756	-0.000022
C47	C	0.787450	0.462089	0.333311
C48	C	1.120783	0.795423	0.666644
C49	C	1.092707	-0.041640	0.000007
C50	C	1.426041	0.291693	0.333340
C51	C	1.759374	0.625027	0.666674
C52	C	1.082228	-0.146884	0.000016
C53	C	1.415561	0.186449	0.333349
C54	C	1.748894	0.519782	0.666682
C55	C	1.137393	-0.397073	-0.000022
C56	C	1.470726	-0.063740	0.333311
C57	C	1.804059	0.269594	0.666644
C58	C	1.063083	-0.339576	-0.000016
C59	C	1.396417	-0.006243	0.333317
C60	C	1.729750	0.327091	0.666650
C61	C	1.073738	-0.232353	0.000001
C62	C	1.407071	0.100981	0.333335
C63	C	1.740404	0.434314	0.666668
C64	C	1.126740	-0.504306	-0.000040
C65	C	1.460073	-0.170973	0.333293
C66	C	1.793406	0.162360	0.666627
C67	C	1.268298	0.125051	-0.000016
C68	C	1.601632	0.458384	0.333318
C69	C	1.934965	0.791717	0.666651
C70	C	1.370844	0.127102	-0.000022
C71	C	1.704177	0.460436	0.333311
C72	C	2.037511	0.793769	0.666645
C73	C	1.107765	0.304985	-0.000039
C74	C	1.441098	0.638319	0.333294
C75	C	1.774431	0.971652	0.666627
C76	C	1.118244	0.410230	-0.000054
C77	C	1.451578	0.743563	0.333279
C78	C	1.784911	1.076897	0.666612
N79	N	1.100220	0.131660	0.254841
N80	N	1.433553	0.464993	0.588174
N81	N	1.766886	0.798327	0.921507
N82	N	1.100259	0.131678	-0.254871
N83	N	1.433592	0.465011	0.078463
N84	N	1.766926	0.798344	0.411796
C85	C	1.100245	0.131679	0.656132
C86	C	1.433578	0.465012	0.989465
C87	C	1.766911	0.798345	1.322798
C88	C	1.100235	0.131677	0.544480
C89	C	1.433568	0.465010	0.877813
C90	C	1.766902	0.798343	1.211147
C91	C	1.100233	0.131670	0.455490
C92	C	1.433566	0.465003	0.788823
C93	C	1.766899	0.798337	1.122156
C94	C	1.100222	0.131667	0.343831
C95	C	1.433556	0.465000	0.677164
C96	C	1.766889	0.798333	1.010498
H97	H	1.209007	-0.365772	-0.000011
H98	H	1.542341	-0.032439	0.333322
H99	H	1.875674	0.300894	0.666655
C100	C	0.966325	-0.381851	-0.000010
C101	C	1.299658	-0.048518	0.333323
C102	C	1.632991	0.284816	0.666656
C103	C	0.936807	-0.446838	0.084935
C104	C	1.270140	-0.113505	0.418268
C105	C	1.603473	0.219829	0.751601
C106	C	0.840051	-0.489116	0.084949
C107	C	1.173385	-0.155783	0.418282
C108	C	1.506718	0.177551	0.751616
C109	C	0.772814	-0.466408	0.000018
C110	C	1.106147	-0.133074	0.333352
C111	C	1.439481	0.200259	0.666685
C112	C	0.802330	-0.401417	-0.084933
C113	C	1.135664	-0.068084	0.248400
C114	C	1.468997	0.265249	0.581734
C115	C	0.899086	-0.359139	-0.084947
C116	C	1.232419	-0.025806	0.248386
C117	C	1.565752	0.307527	0.581719
H118	H	0.986581	-0.463651	0.147811
H119	H	1.319915	-0.130318	0.481145
H120	H	1.653248	0.203016	0.814478
H121	H	0.818202	-0.537226	0.147836
H122	H	1.151535	-0.203893	0.481169
H123	H	1.484868	0.129440	0.814503
H124	H	0.701190	-0.497704	0.000029
H125	H	1.034523	-0.164371	0.333362
H126	H	1.367856	0.168962	0.666695
H127	H	0.752556	-0.384604	-0.147810
H128	H	1.085889	-0.051271	0.185524
H129	H	1.419222	0.282062	0.518857
H130	H	0.920935	-0.311029	-0.147834
H131	H	1.254269	0.022304	0.185499
H132	H	1.587602	0.355637	0.518832
