data_functionalizedCrystal
_audit_creation_method	'MofGen! by Chris Wilmer'
_symmetry_space_group_name_H-M	'P1'
_symmetry_Int_Tables_number	1
_symmetry_cell_setting	triclinic
loop_
_symmetry_equiv_pos_as_xyz
  x,y,z
_cell_length_a	14.044191
_cell_length_b	15.995292
_cell_length_c	12.503572
_cell_angle_alpha	93.525692
_cell_angle_beta	86.162165
_cell_angle_gamma	88.330196
loop_
_atom_site_label
_atom_site_type_symbol
_atom_site_fract_x
_atom_site_fract_y
_atom_site_fract_z
O1	O	1.263124	0.197461	-0.089254
O2	O	0.987157	0.190170	-0.089268
O3	O	1.132713	0.072490	-0.089262
O4	O	1.117568	0.315140	-0.089260
O5	O	1.121766	0.081356	0.089379
O6	O	0.976210	0.199036	0.089373
O7	O	1.252177	0.206327	0.089387
Cu8	Cu	1.113194	0.203491	0.105692
Cu9	Cu	1.126140	0.193006	-0.105573
O10	O	1.106621	0.324007	0.089382
C11	C	0.946370	0.191413	0.000051
C12	C	0.841146	0.181900	0.000045
C13	C	0.590847	0.231979	0.000056
C14	C	0.648493	0.164521	0.000054
C15	C	0.755695	0.174193	0.000049
C16	C	0.483635	0.222309	0.000061
C17	C	1.126623	0.045681	0.000056
C18	C	1.124776	-0.047410	0.000047
C19	C	1.117982	-0.385656	0.000057
C20	C	1.223016	-0.354474	0.000461
C21	C	1.225037	-0.257669	0.000055
C22	C	1.121353	-0.217848	0.000053
C23	C	1.075080	-0.255936	-0.101960
C24	C	1.073820	-0.352825	-0.102041
C25	C	1.059226	-0.342760	0.101108
C26	C	1.063037	-0.245910	0.102452
C27	C	1.123253	-0.123010	0.000047
C28	C	1.116079	-0.480494	0.000056
C29	C	1.292964	0.205083	0.000066
C30	C	1.398188	0.214597	0.000065
C31	C	1.112711	0.350815	0.000061
C32	C	1.114559	0.443906	0.000062
N33	N	1.104096	0.210866	0.254284
N34	N	1.135246	0.185625	-0.254164
C35	C	1.090711	0.221721	0.473398
C36	C	1.148627	0.174772	0.526728
C37	C	1.141180	0.180812	0.648651
C38	C	1.098157	0.215682	0.351464
H39	H	1.259027	-0.375815	0.073619
O40	O	0.956740	-0.368909	0.102023
H41	H	0.909094	-0.312584	0.099393
O42	O	1.221714	0.115518	0.465920
H43	H	1.294339	0.132681	0.487430
O44	O	1.017640	0.280980	0.534208
H45	H	1.031133	0.346088	0.512691
O46	O	0.607231	0.078394	0.000042
H47	H	0.528284	0.084211	0.000034
H48	H	0.622006	0.296990	0.000054
H49	H	0.986980	-0.218289	0.108611
H50	H	1.261692	-0.231942	0.073180
H51	H	1.267743	-0.384093	-0.072282
H52	H	1.270904	-0.239809	-0.073195
H53	H	1.114869	-0.380709	-0.178296
H54	H	0.997073	-0.373360	-0.106665
H55	H	0.999014	-0.229957	-0.105754
H56	H	1.116206	-0.236919	-0.177875
H57	H	1.096658	-0.220742	0.177920
O58	O	1.096543	-0.371837	0.203535
H59	H	1.157391	-0.417192	0.183558
