data_functionalizedCrystal
_audit_creation_method	'MofGen! by Chris Wilmer'
_symmetry_space_group_name_H-M	'P1'
_symmetry_Int_Tables_number	1
_symmetry_cell_setting	triclinic
loop_
_symmetry_equiv_pos_as_xyz
  x,y,z
_cell_length_a	23.532407
_cell_length_b	16.109301
_cell_length_c	14.586319
_cell_angle_alpha	89.994786
_cell_angle_beta	89.999179
_cell_angle_gamma	83.155114
loop_
_atom_site_label
_atom_site_type_symbol
_atom_site_fract_x
_atom_site_fract_y
_atom_site_fract_z
O1	O	0.755631	0.100925	-0.076185
O2	O	1.255631	0.600925	0.423815
O3	O	0.589822	0.115528	-0.076200
O4	O	1.089822	0.615528	0.423800
O5	O	0.677281	-0.012840	-0.076183
O6	O	1.177281	0.487160	0.423817
O7	O	0.668171	0.229293	-0.076203
O8	O	1.168171	0.729293	0.423797
O9	O	0.677275	-0.012842	0.076298
O10	O	1.177275	0.487158	0.576298
O11	O	0.589816	0.115526	0.076280
O12	O	1.089816	0.615526	0.576280
O13	O	0.755625	0.100923	0.076295
O14	O	1.255625	0.600923	0.576295
Cu15	Cu	0.672720	0.108225	0.090211
Cu16	Cu	1.172720	0.608225	0.590211
Cu17	Cu	0.672727	0.108227	-0.090116
Cu18	Cu	1.172727	0.608227	0.409884
O19	O	0.668165	0.229292	0.076278
O20	O	1.168165	0.729292	0.576278
C21	C	0.676909	-0.043813	0.000058
C22	C	1.176909	0.456187	0.500058
C23	C	0.675803	-0.136100	0.000059
C24	C	1.175803	0.363900	0.500059
C25	C	0.568601	0.115155	0.000038
C26	C	1.068601	0.615155	0.500038
C27	C	0.505380	0.114037	0.000033
C28	C	1.005380	0.614037	0.500033
C29	C	0.725127	-0.358760	0.000049
C30	C	1.225127	0.141240	0.500049
C31	C	0.724083	-0.445472	0.000041
C32	C	1.224083	0.054528	0.500041
C33	C	0.620315	-0.424782	0.000035
C34	C	1.120315	0.075218	0.500035
C35	C	0.621360	-0.338071	0.000036
C36	C	1.121360	0.161929	0.500036
C37	C	0.673768	-0.305063	0.000048
C38	C	1.173768	0.194937	0.500048
C39	C	0.671679	-0.478486	0.000039
C40	C	1.171679	0.021514	0.500039
C41	C	0.670547	-0.572503	0.000031
C42	C	1.170547	-0.072503	0.500031
C43	C	0.674900	-0.211040	0.000054
C44	C	1.174900	0.288960	0.500054
C45	C	0.238915	0.033461	0.000064
C46	C	0.738915	0.533461	0.500064
C47	C	0.298319	0.034500	0.000064
C48	C	0.798319	0.534500	0.500064
O49	O	0.334828	-0.029421	0.000101
O50	O	0.834828	0.470579	0.500101
N51	N	0.321227	0.110814	0.000052
N52	N	0.821227	0.610814	0.500052
C53	C	0.284727	0.186096	0.000049
C54	C	0.784727	0.686096	0.500049
O55	O	0.309667	0.251103	0.000039
O56	O	0.809667	0.751103	0.500039
C57	C	0.225324	0.185056	0.000056
C58	C	0.725324	0.685056	0.500056
C59	C	0.202420	0.108736	0.000059
C60	C	0.702420	0.608736	0.500059
C61	C	0.216010	-0.042853	0.000068
C62	C	0.716010	0.457147	0.500068
C63	C	0.156610	-0.043891	0.000067
C64	C	0.656610	0.456109	0.500067
C65	C	0.120115	0.031384	0.000062
C66	C	0.620115	0.531384	0.500062
C67	C	0.143020	0.107698	0.000057
C68	C	0.643020	0.607698	0.500057
C69	C	0.188826	0.260337	0.000060
C70	C	0.688826	0.760337	0.500060
C71	C	0.129419	0.259291	0.000067
C72	C	0.629419	0.759291	0.500067
C73	C	0.106515	0.182971	0.000070
C74	C	0.606515	0.682971	0.500070
C75	C	0.047125	0.181935	0.000051
C76	C	0.547125	0.681935	0.500051
N77	N	0.024217	0.105620	0.000063
N78	N	0.524217	0.605620	0.500063
C79	C	0.060712	0.030345	0.000068
C80	C	0.560712	0.530345	0.500068
C81	C	0.409478	0.188273	0.000036
C82	C	0.909478	0.688273	0.500036
C83	C	0.468880	0.189313	0.000023
C84	C	0.968880	0.689313	0.500023
C85	C	0.482468	0.037717	0.000039
C86	C	0.982468	0.537717	0.500039
C87	C	0.423065	0.036677	0.000046
C88	C	0.923065	0.536677	0.500046
C89	C	0.386570	0.111958	0.000048
C90	C	0.886570	0.611958	0.500048
C91	C	-0.064032	0.028170	0.000065
C92	C	0.435968	0.528170	0.500065
C93	C	-0.123438	0.027139	0.000060
C94	C	0.376562	0.527139	0.500060
C95	C	-0.137021	0.178735	0.000048
C96	C	0.362979	0.678735	0.500048
C97	C	-0.077620	0.179767	0.000048
C98	C	0.422380	0.679767	0.500048
C99	C	-0.041127	0.104478	0.000060
C100	C	0.458873	0.604478	0.500060
O101	O	0.010582	0.245822	0.000017
O102	O	0.510582	0.745822	0.500017
O103	O	0.035765	-0.034651	0.000090
O104	O	0.535765	0.465349	0.500090
C105	C	0.776845	0.101296	0.000055
C106	C	1.276845	0.601296	0.500055
C107	C	0.840067	0.102414	0.000054
C108	C	1.340067	0.602414	0.500054
C109	C	0.668537	0.260265	0.000035
C110	C	1.168537	0.760265	0.500035
C111	C	0.669644	0.352551	0.000028
C112	C	1.169644	0.852551	0.500028
N113	N	0.672719	0.108223	0.217042
N114	N	1.172719	0.608223	0.717042
N115	N	0.672732	0.108222	-0.216947
N116	N	1.172732	0.608222	0.283053
C117	C	0.711459	0.051400	0.452056
C118	C	1.211459	0.551400	0.952056
C119	C	0.711460	0.051398	0.548038
C120	C	1.211460	0.551398	1.048038
C121	C	0.633988	0.165048	0.548032
C122	C	1.133988	0.665048	1.048032
C123	C	0.633984	0.165045	0.452052
C124	C	1.133984	0.665045	0.952052
C125	C	0.672723	0.108222	0.404067
C126	C	1.172723	0.608222	0.904067
C127	C	0.672728	0.108223	0.596028
C128	C	1.172728	0.608223	1.096028
C129	C	0.672730	0.108221	0.700095
C130	C	1.172730	0.608221	1.200095
C131	C	0.672721	0.108223	0.299993
C132	C	1.172721	0.608223	0.799993
H133	H	0.765906	-0.489189	0.000040
H134	H	1.265906	0.010811	0.500040
H135	H	0.602438	0.211317	0.412977
H136	H	1.102438	0.711317	0.912977
H137	H	0.602449	0.211313	0.587111
H138	H	1.102449	0.711313	1.087111
N139	N	0.566790	-0.458515	0.000022
N140	N	1.066790	0.041485	0.500022
N141	N	0.565863	-0.535936	0.000021
N142	N	1.065863	-0.035936	0.500021
H143	H	0.528060	-0.559760	0.000013
H144	H	1.028060	-0.059760	0.500013
H145	H	-0.142083	-0.035013	0.000060
H146	H	0.357917	0.464987	0.500060
N147	N	0.568894	-0.283215	0.000055
N148	N	1.068894	0.216785	0.500055
N149	N	0.557901	-0.232528	0.064331
N150	N	1.057901	0.267472	0.564331
H151	H	0.520848	-0.193785	0.064343
H152	H	1.020848	0.306215	0.564343
N153	N	-0.026769	-0.048742	0.000083
N154	N	0.473231	0.451258	0.500083
N155	N	-0.047238	-0.116868	0.000089
N156	N	0.452762	0.383132	0.500089
H157	H	-0.020921	-0.171188	0.000099
H158	H	0.479079	0.328812	0.500099
H159	H	0.767801	-0.331888	0.000056
H160	H	1.267801	0.168112	0.500056
N161	N	0.751017	-0.006658	0.597062
N162	N	1.251017	0.493342	1.097062
N163	N	0.732952	-0.058134	0.650614
N164	N	1.232952	0.441866	1.150614
H165	H	0.760887	-0.099145	0.685236
H166	H	1.260887	0.400855	1.185236
H167	H	0.137968	-0.106038	0.000073
H168	H	0.637968	0.393962	0.500073
H169	H	0.512193	-0.023577	0.000044
H170	H	1.012193	0.476423	0.500044
N171	N	0.253276	-0.119760	0.000080
N172	N	0.753276	0.380240	0.500080
N173	N	0.232805	-0.187884	0.000087
N174	N	0.732805	0.312116	0.500087
H175	H	0.259120	-0.242206	0.000090
H176	H	0.759120	0.257794	0.500090
H177	H	0.487523	0.251460	0.000007
H178	H	0.987523	0.751460	0.500007
N179	N	0.399681	-0.041288	0.000048
N180	N	0.899681	0.458712	0.500048
N181	N	0.432279	-0.108489	0.000047
N182	N	0.932279	0.391511	0.500047
H183	H	0.415768	-0.163556	0.000049
H184	H	0.915768	0.336444	0.500049
H185	H	0.743001	0.005130	0.412989
H186	H	1.243001	0.505130	0.912989
N187	N	0.372210	0.265184	0.000034
N188	N	0.872210	0.765184	0.500034
N189	N	0.392676	0.333311	0.000024
N190	N	0.892676	0.833311	0.500024
H191	H	0.366359	0.387630	0.000024
H192	H	0.866359	0.887630	0.500024
H193	H	0.207463	0.322484	0.000053
H194	H	0.707463	0.822484	0.500053
H195	H	0.099708	0.320595	0.000073
H196	H	0.599708	0.820595	0.500073
H197	H	-0.058971	0.241913	0.000044
H198	H	0.441029	0.741913	0.500044
H199	H	-0.166746	0.240022	0.000039
H200	H	0.333254	0.740022	0.500039
