data_functionalizedCrystal
_audit_creation_method	'MofGen! by Chris Wilmer'
_symmetry_space_group_name_H-M	'P1'
_symmetry_Int_Tables_number	1
_symmetry_cell_setting	triclinic
loop_
_symmetry_equiv_pos_as_xyz
  x,y,z
_cell_length_a	17.038275
_cell_length_b	18.266242
_cell_length_c	17.019294
_cell_angle_alpha	93.885319
_cell_angle_beta	92.755467
_cell_angle_gamma	89.997581
loop_
_atom_site_label
_atom_site_type_symbol
_atom_site_fract_x
_atom_site_fract_y
_atom_site_fract_z
O1	O	-1.037226	0.071572	0.171291
O2	O	-0.537226	0.571572	0.671291
O3	O	-0.809598	0.071425	0.168570
O4	O	-0.309598	0.571425	0.668570
O5	O	-0.929761	0.064282	0.055524
O6	O	-0.429761	0.564282	0.555524
O7	O	-0.917062	0.078715	0.284337
O8	O	-0.417062	0.578715	0.784337
O9	O	-0.929741	-0.057480	0.055516
O10	O	-0.429741	0.442520	0.555516
O11	O	-0.809577	-0.050337	0.168563
O12	O	-0.309577	0.449663	0.668563
O13	O	-1.037206	-0.050190	0.171283
O14	O	-0.537206	0.449810	0.671283
Zn15	Zn	-0.923388	-0.069596	0.169922
Zn16	Zn	-0.423388	0.430404	0.669922
Zn17	Zn	-0.923415	0.090831	0.169932
Zn18	Zn	-0.423415	0.590831	0.669932
O19	O	-0.917042	-0.043047	0.284330
O20	O	-0.417042	0.456953	0.784330
C21	C	-0.780461	0.010391	0.166093
C22	C	-0.280461	0.510391	0.666093
C23	C	-0.693675	0.009935	0.158712
C24	C	-0.193675	0.509935	0.658712
N25	N	-0.923376	-0.179084	0.169915
N26	N	-0.423376	0.320916	0.669915
C27	C	-0.643503	0.014210	0.226473
C28	C	-0.143503	0.514210	0.726473
C29	C	-0.561958	0.013763	0.219533
C30	C	-0.061958	0.513763	0.719533
C31	C	-0.530587	0.009047	0.144833
C32	C	-0.030587	0.509047	0.644833
C33	C	-0.580765	0.004770	0.077067
C34	C	-0.080765	0.504770	0.577067
C35	C	-0.662308	0.005212	0.084007
C36	C	-0.162308	0.505212	0.584007
C37	C	-0.284850	0.007484	0.120314
C38	C	0.215150	0.507484	0.620314
C39	C	-0.203301	0.007045	0.113379
C40	C	0.296699	0.507045	0.613379
C41	C	-0.184499	0.016037	0.255846
C42	C	0.315501	0.516037	0.755846
C43	C	-0.266045	0.016482	0.262779
C44	C	0.233955	0.516482	0.762779
C45	C	-0.316216	0.012201	0.195014
C46	C	0.183784	0.512201	0.695014
C47	C	-0.447236	0.008593	0.137737
C48	C	0.052764	0.508593	0.637737
C49	C	-0.399566	0.012651	0.202110
C50	C	0.100434	0.512651	0.702110
C51	C	-0.976602	-0.220554	0.119885
C52	C	-0.476602	0.279446	0.619885
C53	C	-0.976606	-0.297199	0.119882
C54	C	-0.476606	0.202801	0.619882
C55	C	-0.923393	-0.332370	0.169922
C56	C	-0.423393	0.167630	0.669922
C57	C	-0.870157	-0.290890	0.219955
C58	C	-0.370157	0.209110	0.719955
C59	C	-0.870148	-0.214247	0.219951
C60	C	-0.370148	0.285753	0.719951
N61	N	-0.913365	-0.448341	0.239050
N62	N	-0.413365	0.051659	0.739050
N63	N	-0.913378	-0.521149	0.239051
N64	N	-0.413378	-0.021149	0.739051
C65	C	-0.923415	-0.563292	0.169935
C66	C	-0.423415	-0.063292	0.669935
N67	N	-0.933454	-0.529876	0.100817
N68	N	-0.433454	-0.029876	0.600817
N69	N	-0.933445	-0.457061	0.100816
N70	N	-0.433445	0.042939	0.600816
C71	C	-0.923396	-0.415476	0.169931
C72	C	-0.423396	0.084524	0.669931
C73	C	-0.976649	-0.687869	0.119898
C74	C	-0.476649	-0.187869	0.619898
C75	C	-0.976649	-0.764516	0.119893
C76	C	-0.476649	-0.264516	0.619893
C77	C	-0.870203	-0.758206	0.219973
C78	C	-0.370203	-0.258206	0.719973
C79	C	-0.870200	-0.681561	0.219971
C80	C	-0.370200	-0.181561	0.719971
C81	C	-0.923427	-0.646397	0.169934
C82	C	-0.423427	-0.146397	0.669934
C83	C	-0.066342	0.010849	0.173760
C84	C	0.433658	0.510849	0.673760
C85	C	-0.153129	0.011320	0.181139
C86	C	0.346871	0.511320	0.681139
C87	C	-0.929269	0.001547	0.026098
C88	C	-0.429269	0.501547	0.526098
C89	C	-0.927824	-0.003978	-0.061569
C90	C	-0.427824	0.496022	0.438431
N91	N	-0.923434	0.200318	0.169933
N92	N	-0.423434	0.700318	0.669933
C93	C	-0.927158	0.059799	-0.102747
C94	C	-0.427158	0.559799	0.397253
C95	C	-0.925795	0.054605	-0.185120
C96	C	-0.425795	0.554605	0.314880
C97	C	-0.925104	-0.014365	-0.226313
C98	C	-0.425104	0.485635	0.273687
C99	C	-0.925768	-0.078147	-0.185130
C100	C	-0.425768	0.421853	0.314870
C101	C	-0.927125	-0.072953	-0.102758
C102	C	-0.427125	0.427047	0.397242
C103	C	-0.921000	-0.033368	-0.475022
C104	C	-0.421000	0.466632	0.024978
C105	C	-0.919645	-0.038557	-0.557400
C106	C	-0.419645	0.461443	-0.057400
C107	C	-0.919671	0.094195	-0.557384
C108	C	-0.419671	0.594195	-0.057384
C109	C	-0.921033	0.099383	-0.475011
C110	C	-0.421033	0.599383	0.024989
C111	C	-0.921693	0.035602	-0.433834
C112	C	-0.421693	0.535602	0.066166
C113	C	-0.923713	-0.019675	-0.310512
C114	C	-0.423713	0.480325	0.189488
C115	C	-0.923078	0.040913	-0.349637
C116	C	-0.423078	0.540913	0.150363
C117	C	-0.917534	0.019690	0.313755
C118	C	-0.417534	0.519690	0.813755
C119	C	-0.918979	0.025219	0.401423
C120	C	-0.418979	0.525219	0.901423
H121	H	-0.669039	0.018050	0.287302
H122	H	-0.169039	0.518050	0.787302
H123	H	-0.921553	-0.085304	-0.441507
H124	H	-0.421553	0.414696	0.058493
H125	H	-0.325690	0.003998	0.065134
H126	H	0.174310	0.503998	0.565134
Cl127	Cl	-0.121423	0.021415	0.341030
Cl128	Cl	0.378577	0.521415	0.841030
H129	H	-0.177762	0.003206	0.052546
H130	H	0.322238	0.503206	0.552546
Cl131	Cl	-0.803231	-0.162110	0.282852
Cl132	Cl	-0.303231	0.337890	0.782852
Cl133	Cl	-0.803257	-0.335104	0.282860
Cl134	Cl	-0.303257	0.164896	0.782860
Cl135	Cl	-0.725382	-0.000165	-0.001181
Cl136	Cl	-0.225382	0.499835	0.498819
Cl137	Cl	-0.541327	-0.001163	-0.016843
Cl138	Cl	-0.041327	0.498837	0.483157
Cl139	Cl	-0.924959	0.134786	-0.236882
Cl140	Cl	-0.424959	0.634786	0.263118
Cl141	Cl	-0.918781	-0.125270	-0.609186
Cl142	Cl	-0.418781	0.374730	-0.109186
Cl143	Cl	-0.924889	-0.164853	-0.236916
Cl144	Cl	-0.424889	0.335147	0.263084
Cl145	Cl	-0.407790	0.002668	0.043831
Cl146	Cl	0.092210	0.502668	0.543831
H147	H	-0.291581	0.020331	0.323608
H148	H	0.208419	0.520331	0.823608
Cl149	Cl	-0.918840	0.174372	-0.609153
Cl150	Cl	-0.418840	0.674372	-0.109153
H151	H	-0.923153	-0.075832	-0.344061
H152	H	-0.423153	0.424168	0.155939
Cl153	Cl	-0.927961	-0.153133	-0.050992
Cl154	Cl	-0.427961	0.346867	0.449008
Cl155	Cl	-0.803288	-0.629422	0.282873
Cl156	Cl	-0.303288	-0.129422	0.782873
H157	H	-0.521111	0.017244	0.274711
H158	H	-0.021111	0.517244	0.774711
Cl159	Cl	-1.043559	-0.643663	0.056990
Cl160	Cl	-0.543559	-0.143663	0.556990
Cl161	Cl	-0.439005	0.018577	0.296015
Cl162	Cl	0.060995	0.518577	0.796015
Cl163	Cl	-1.043510	-0.176349	0.056979
Cl164	Cl	-0.543510	0.323651	0.556979
H165	H	-1.019951	-0.330970	0.079140
H166	H	-0.519951	0.169030	0.579140
Cl167	Cl	-0.803300	-0.802416	0.282875
Cl168	Cl	-0.303300	-0.302416	0.782875
Cl169	Cl	-1.043562	-0.816654	0.056988
Cl170	Cl	-0.543562	-0.316654	0.556988
Cl171	Cl	-0.928032	0.146509	-0.050969
Cl172	Cl	-0.428032	0.646509	0.449031
H173	H	-0.921597	0.155547	-0.441476
H174	H	-0.421597	0.655547	0.058524
H175	H	-0.923635	0.097068	-0.316093
H176	H	-0.423635	0.597068	0.183907
