data_functionalizedCrystal
_audit_creation_method	'MofGen! by Chris Wilmer'
_symmetry_space_group_name_H-M	'P1'
_symmetry_Int_Tables_number	1
_symmetry_cell_setting	triclinic
loop_
_symmetry_equiv_pos_as_xyz
  x,y,z
_cell_length_a	29.839134
_cell_length_b	29.839131
_cell_length_c	21.295411
_cell_angle_alpha	90.020364
_cell_angle_beta	90.036602
_cell_angle_gamma	90.034165
loop_
_atom_site_label
_atom_site_type_symbol
_atom_site_fract_x
_atom_site_fract_y
_atom_site_fract_z
Zn1	Zn	0.686774	-0.178991	0.356119
Zn2	Zn	1.020107	0.154342	0.689453
Zn3	Zn	1.353441	0.487675	1.022786
Zn4	Zn	0.686690	-0.254107	0.250847
Zn5	Zn	1.020023	0.079226	0.584180
Zn6	Zn	1.353357	0.412560	0.917514
Zn7	Zn	0.611641	-0.178982	0.250842
Zn8	Zn	0.944974	0.154351	0.584175
Zn9	Zn	1.278307	0.487684	0.917509
Zn10	Zn	0.611605	-0.254086	0.356057
Zn11	Zn	0.944938	0.079248	0.689390
Zn12	Zn	1.278271	0.412581	1.022723
O13	O	0.649177	-0.216542	0.303466
O14	O	0.982511	0.116792	0.636799
O15	O	1.315844	0.450125	0.970133
O16	O	0.749630	-0.188968	0.342183
O17	O	1.082963	0.144365	0.675516
O18	O	1.416297	0.477698	1.008849
O19	O	0.676715	-0.244147	0.162757
O20	O	1.010048	0.089187	0.496090
O21	O	1.343381	0.422520	0.829424
O22	O	0.621658	-0.116116	0.264832
O23	O	0.954991	0.217217	0.598165
O24	O	1.288324	0.550550	0.931498
O25	O	0.749568	-0.244155	0.264840
O26	O	1.082902	0.089178	0.598173
O27	O	1.416235	0.422511	0.931506
O28	O	0.676858	-0.116123	0.342178
O29	O	1.010191	0.217210	0.675512
O30	O	1.343524	0.550544	1.008845
O31	O	0.621576	-0.188953	0.162753
O32	O	0.954910	0.144381	0.496087
O33	O	1.288243	0.477714	0.829420
O34	O	0.548769	-0.188932	0.264771
O35	O	0.882102	0.144401	0.598104
O36	O	1.215436	0.477735	0.931437
O37	O	0.621596	-0.244119	0.444154
O38	O	0.954929	0.089214	0.777488
O39	O	1.288263	0.422548	1.110821
O40	O	0.548742	-0.244110	0.342071
O41	O	0.882076	0.089223	0.675405
O42	O	1.215409	0.422556	1.008738
O43	O	0.676823	-0.188948	0.444200
O44	O	1.010156	0.144386	0.777534
O45	O	1.343489	0.477719	1.110867
O46	O	0.676680	-0.316971	0.264779
O47	O	1.010013	0.016362	0.598112
O48	O	1.343346	0.349695	0.931446
O49	O	0.621515	-0.316956	0.342076
O50	O	0.954848	0.016378	0.675409
O51	O	1.288181	0.349711	1.008743
C52	C	0.532455	-0.216518	0.303414
C53	C	0.865788	0.116815	0.636747
C54	C	1.199122	0.450148	0.970081
C55	C	0.482520	-0.216519	0.303407
C56	C	0.815854	0.116814	0.636740
C57	C	1.149187	0.450148	0.970073
C58	C	0.125935	-0.187768	0.263298
C59	C	0.459268	0.145565	0.596631
C60	C	0.792601	0.478899	0.929965
C61	C	0.313608	-0.187755	0.263260
C62	C	0.646941	0.145578	0.596593
C63	C	0.980274	0.478911	0.929926
O64	O	0.337873	-0.163272	0.229099
O65	O	0.671207	0.170062	0.562433
O66	O	1.004540	0.503395	0.895766
N67	N	0.337075	-0.216526	0.303438
N68	N	0.670409	0.116807	0.636772
N69	N	1.003742	0.450140	0.970105
C70	C	0.313622	-0.245301	0.343632
C71	C	0.646955	0.088033	0.676966
C72	C	0.980288	0.421366	1.010299
O73	O	0.337889	-0.269769	0.377811
O74	O	0.671222	0.063565	0.711144
O75	O	1.004555	0.396898	1.044477
C76	C	0.125950	-0.245311	0.343673
C77	C	0.459283	0.088023	0.677007
C78	C	0.792616	0.421356	1.010340
C79	C	0.102484	-0.216541	0.303488
C80	C	0.435818	0.116792	0.636821
C81	C	0.769151	0.450126	0.970154
C82	C	0.102469	-0.159000	0.223116
C83	C	0.435803	0.174333	0.556449
C84	C	0.769136	0.507667	0.889783
C85	C	0.055554	-0.159005	0.223123
C86	C	0.388887	0.174328	0.556457
C87	C	0.722221	0.507661	0.889790
C88	C	0.032104	-0.187778	0.263313
C89	C	0.365437	0.145555	0.596646
C90	C	0.698770	0.478888	0.929980
C91	C	0.055569	-0.216546	0.303495
C92	C	0.388902	0.116787	0.636828
C93	C	0.722236	0.450121	0.970162
C94	C	0.102497	-0.274082	0.383870
C95	C	0.435830	0.059251	0.717203
C96	C	0.769164	0.392584	1.050537
C97	C	0.055576	-0.274081	0.383878
C98	C	0.388909	0.059252	0.717211
C99	C	0.722243	0.392585	1.050545
C100	C	0.032111	-0.245312	0.343692
C101	C	0.365444	0.088022	0.677025
C102	C	0.698777	0.421355	1.010359
C103	C	-0.014797	-0.245324	0.343692
C104	C	0.318537	0.088009	0.677026
C105	C	0.651870	0.421342	1.010359
N106	N	-0.038264	-0.216553	0.303514
N107	N	0.295069	0.116780	0.636847
N108	N	0.628402	0.450114	0.970180
C109	C	-0.014814	-0.187780	0.263324
C110	C	0.318519	0.145553	0.596657
C111	C	0.651853	0.478887	0.929991
C112	C	0.412152	-0.245294	0.343607
C113	C	0.745486	0.088039	0.676941
C114	C	1.078819	0.421373	1.010274
C115	C	0.459070	-0.245292	0.343596
C116	C	0.792404	0.088041	0.676930
C117	C	1.125737	0.421375	1.010263
C118	C	0.459053	-0.187746	0.263224
C119	C	0.792386	0.145587	0.596558
C120	C	1.125720	0.478921	0.929891
C121	C	0.412134	-0.187750	0.263232
C122	C	0.745468	0.145583	0.596566
C123	C	1.078801	0.478916	0.929899
C124	C	0.388685	-0.216523	0.303429
C125	C	0.722018	0.116811	0.636762
C126	C	1.055351	0.450144	0.970095
C127	C	-0.113340	-0.187793	0.263342
C128	C	0.219993	0.145540	0.596676
C129	C	0.553327	0.478873	0.930009
C130	C	-0.160260	-0.187803	0.263352
C131	C	0.173074	0.145531	0.596685
C132	C	0.506407	0.478864	0.930018
C133	C	-0.160238	-0.245347	0.343726
C134	C	0.173095	0.087987	0.677059
C135	C	0.506429	0.421320	1.010392
C136	C	-0.113323	-0.245340	0.343714
C137	C	0.220011	0.087994	0.677048
C138	C	0.553344	0.421327	1.010381
C139	C	-0.089875	-0.216559	0.303521
C140	C	0.243459	0.116774	0.636854
C141	C	0.576792	0.450107	0.970187
O142	O	-0.039091	-0.269791	0.377840
O143	O	0.294242	0.063542	0.711173
O144	O	0.627575	0.396875	1.044506
O145	O	-0.039089	-0.163309	0.229161
O146	O	0.294244	0.170025	0.562494
O147	O	0.627578	0.503358	0.895827
C148	C	0.172850	-0.187763	0.263290
C149	C	0.506183	0.145571	0.596624
C150	C	0.839517	0.478904	0.929957
C151	C	0.196315	-0.216530	0.303472
C152	C	0.529649	0.116803	0.636806
C153	C	0.862982	0.450136	0.970139
C154	C	0.172865	-0.245303	0.343662
C155	C	0.506198	0.088030	0.676995
C156	C	0.839532	0.421363	1.010329
C157	C	0.243233	-0.216529	0.303462
C158	C	0.576566	0.116805	0.636795
C159	C	0.909900	0.450138	0.970128
C160	C	0.266683	-0.187756	0.263272
C161	C	0.600017	0.145578	0.596605
C162	C	0.933350	0.478911	0.929939
C163	C	0.243216	-0.158985	0.223093
C164	C	0.576549	0.174349	0.556427
C165	C	0.909882	0.507682	0.889760
C166	C	0.196300	-0.158990	0.223101
C167	C	0.529634	0.174344	0.556434
C168	C	0.862967	0.507677	0.889768
C169	C	0.196333	-0.274075	0.383841
C170	C	0.529666	0.059259	0.717174
C171	C	0.862999	0.392592	1.050507
C172	C	0.243248	-0.274067	0.383829
C173	C	0.576582	0.059266	0.717163
C174	C	0.909915	0.392599	1.050496
C175	C	0.266698	-0.245294	0.343640
C176	C	0.600032	0.088039	0.676973
C177	C	0.933365	0.421372	1.010307
C178	C	0.649096	-0.333264	0.303435
C179	C	0.982430	0.000069	0.636768
C180	C	1.315763	0.333403	0.970102
C181	C	0.649103	-0.383199	0.303443
C182	C	0.982436	-0.049865	0.636776
C183	C	1.315769	0.283468	0.970109
C184	C	0.677954	-0.692837	0.263276
C185	C	1.011287	-0.359504	0.596610
C186	C	1.344621	-0.026171	0.929943
C187	C	0.678010	-0.880511	0.263301
C188	C	1.011343	-0.547177	0.596634
C189	C	1.344676	-0.213844	0.929968
O190	O	0.702476	-0.904772	0.229126
O191	O	1.035809	-0.571438	0.562459
O192	O	1.369142	-0.238105	0.895793
N193	N	0.649271	-0.903984	0.303514
N194	N	0.982604	-0.570650	0.636847
N195	N	1.315937	-0.237317	0.970180
C196	C	0.620518	-0.880536	0.343726
C197	C	0.953851	-0.547202	0.677059
C198	C	1.287184	-0.213869	1.010393
O199	O	0.596078	-0.904807	0.377935
O200	O	0.929411	-0.571474	0.711268
O201	O	1.262745	-0.238140	1.044601
C202	C	0.620465	-0.692863	0.343704
C203	C	0.953798	-0.359530	0.677038
C204	C	1.287132	-0.026197	1.010371
C205	C	0.649203	-0.669393	0.303484
C206	C	0.982536	-0.336059	0.636818
C207	C	1.315869	-0.002726	0.970151
C208	C	0.706690	-0.669367	0.223060
C209	C	1.040023	-0.336033	0.556394
C210	C	1.373356	-0.002700	0.889727
C211	C	0.706674	-0.622451	0.223052
C212	C	1.040007	-0.289118	0.556385
C213	C	1.373340	0.044215	0.889719
C214	C	0.677922	-0.599007	0.263260
C215	C	1.011256	-0.265673	0.596594
C216	C	1.344589	0.067660	0.929927
C217	C	0.649187	-0.622477	0.303476
C218	C	0.982520	-0.289144	0.636810
C219	C	1.315853	0.044189	0.970143
C220	C	0.591715	-0.669416	0.383920
C221	C	0.925048	-0.336083	0.717253
C222	C	1.258381	-0.002750	1.050586
C223	C	0.591705	-0.622495	0.383912
C224	C	0.925038	-0.289162	0.717245
C225	C	1.258372	0.044171	1.050578
C226	C	0.620443	-0.599025	0.343692
C227	C	0.953776	-0.265691	0.677025
C228	C	1.287109	0.067642	1.010358
C229	C	0.620419	-0.552117	0.343676
C230	C	0.953753	-0.218784	0.677010
C231	C	1.287086	0.114550	1.010343
N232	N	0.649158	-0.528644	0.303463
N233	N	0.982492	-0.195311	0.636797
N234	N	1.315825	0.138023	0.970130
C235	C	0.677910	-0.552089	0.263255
C236	C	1.011243	-0.218755	0.596589
C237	C	1.344576	0.114578	0.929922
C238	C	0.620547	-0.979066	0.343734
C239	C	0.953880	-0.645733	0.677067
C240	C	1.287214	-0.312400	1.010400
C241	C	0.620560	-1.025984	0.343739
C242	C	0.953893	-0.692651	0.677072
C243	C	1.287226	-0.359317	1.010405
C244	C	0.678052	-1.025956	0.263314
C245	C	1.011385	-0.692622	0.596647
C246	C	1.344719	-0.359289	0.929981
C247	C	0.678037	-0.979037	0.263307
C248	C	1.011370	-0.645704	0.596640
C249	C	1.344703	-0.312370	0.929973
C250	C	0.649286	-0.955593	0.303521
C251	C	0.982619	-0.622260	0.636854
C252	C	1.315953	-0.288926	0.970188
C253	C	0.677874	-0.453563	0.263241
C254	C	1.011207	-0.120230	0.596574
C255	C	1.344541	0.213104	0.929908
C256	C	0.677854	-0.406643	0.263235
C257	C	1.011188	-0.073310	0.596568
C258	C	1.344521	0.260023	0.929901
C259	C	0.620364	-0.406676	0.343661
C260	C	0.953697	-0.073342	0.676995
C261	C	1.287030	0.259991	1.010328
C262	C	0.620382	-0.453591	0.343666
C263	C	0.953715	-0.120258	0.676999
C264	C	1.287048	0.213075	1.010332
C265	C	0.649140	-0.477034	0.303453
C266	C	0.982474	-0.143700	0.636787
C267	C	1.315807	0.189633	0.970120
O268	O	0.595970	-0.527827	0.377838
O269	O	0.929303	-0.194494	0.711171
O270	O	1.262636	0.138840	1.044505
O271	O	0.702353	-0.527809	0.229062
O272	O	1.035686	-0.194476	0.562395
O273	O	1.369019	0.138858	0.895728
C274	C	0.677970	-0.739753	0.263285
C275	C	1.011303	-0.406420	0.596618
C276	C	1.344637	-0.073086	0.929951
C277	C	0.649234	-0.763224	0.303501
C278	C	0.982568	-0.429890	0.636834
C279	C	1.315901	-0.096557	0.970167
C280	C	0.620483	-0.739779	0.343709
C281	C	0.953816	-0.406446	0.677042
C282	C	1.287149	-0.073112	1.010375
C283	C	0.649247	-0.810141	0.303505
C284	C	0.982580	-0.476808	0.636839
C285	C	1.315914	-0.143475	0.970172
C286	C	0.677998	-0.833586	0.263297
C287	C	1.011332	-0.500253	0.596631
C288	C	1.344665	-0.166920	0.929964
C289	C	0.706737	-0.810113	0.223085
C290	C	1.040071	-0.476780	0.556418
C291	C	1.373404	-0.143446	0.889751
C292	C	0.706721	-0.763198	0.223077
C293	C	1.040055	-0.429864	0.556410
C294	C	1.373388	-0.096531	0.889743
C295	C	0.591744	-0.763252	0.383922
C296	C	0.925077	-0.429919	0.717255
C297	C	1.258411	-0.096585	1.050588
C298	C	0.591762	-0.810167	0.383926
C299	C	0.925095	-0.476834	0.717259
C300	C	1.258428	-0.143501	1.050593
C301	C	0.620513	-0.833612	0.343718
C302	C	0.953847	-0.500279	0.677051
C303	C	1.287180	-0.166946	1.010385
C304	C	0.766356	-0.216565	0.303519
C305	C	1.099689	0.116768	0.636852
C306	C	1.433022	0.450101	0.970185
C307	C	0.816290	-0.216575	0.303541
C308	C	1.149624	0.116758	0.636875
C309	C	1.482957	0.450091	0.970208
C310	C	0.649215	-0.216532	0.467656
C311	C	0.982548	0.116801	0.800990
C312	C	1.315881	0.450135	1.134323
C313	C	0.649231	-0.216528	0.537625
C314	C	0.982564	0.116805	0.870958
C315	C	1.315897	0.450139	1.204291
C316	C	0.649271	-0.099363	0.303511
C317	C	0.982604	0.233970	0.636845
C318	C	1.315938	0.567303	0.970178
C319	C	0.649311	-0.049429	0.303531
C320	C	0.982644	0.283905	0.636864
C321	C	1.315978	0.617238	0.970197
C322	C	0.649166	-0.216519	0.139915
C323	C	0.982499	0.116815	0.473248
C324	C	1.315833	0.450148	0.806581
C325	C	0.649237	-0.216396	0.069947
C326	C	0.982571	0.116937	0.403280
C327	C	1.315904	0.450271	0.736614
C328	C	0.677986	-0.187799	0.570516
C329	C	1.011319	0.145534	0.903850
C330	C	1.344653	0.478868	1.237183
C331	C	0.677985	-0.187780	0.636259
C332	C	1.011319	0.145554	0.969592
C333	C	1.344652	0.478887	1.302925
C334	C	0.649234	-0.216497	0.669107
C335	C	0.982567	0.116836	1.002441
C336	C	1.315901	0.450170	1.335774
C337	C	0.620473	-0.245228	0.636208
C338	C	0.953807	0.088105	0.969541
C339	C	1.287140	0.421439	1.302874
C340	C	0.620471	-0.245244	0.570466
C341	C	0.953805	0.088090	0.903800
C342	C	1.287138	0.421423	1.237133
N343	N	0.645761	-0.255797	0.772323
N344	N	0.979094	0.077536	1.105656
N345	N	1.312427	0.410870	1.438989
N346	N	0.645765	-0.255781	0.834774
N347	N	0.979098	0.077552	1.168108
N348	N	1.312431	0.410886	1.501441
C349	C	0.649237	-0.216452	0.867182
C350	C	0.982570	0.116882	1.200515
C351	C	1.315904	0.450215	1.533849
N352	N	0.652713	-0.177138	0.834779
N353	N	0.986047	0.156196	1.168112
N354	N	1.319380	0.489529	1.501446
N355	N	0.652711	-0.177154	0.772322
N356	N	0.986045	0.156179	1.105655
N357	N	1.319378	0.489512	1.438989
C358	C	0.649233	-0.216483	0.740393
C359	C	0.982566	0.116850	1.073726
C360	C	1.315899	0.450183	1.407059
C361	C	0.677993	-0.187699	0.971359
C362	C	1.011326	0.145634	1.304693
C363	C	1.344660	0.478968	1.638026
C364	C	0.677989	-0.187679	1.037103
C365	C	1.011323	0.145655	1.370436
C366	C	1.344656	0.478988	1.703770
C367	C	0.620480	-0.245131	1.037051
C368	C	0.953813	0.088202	1.370384
C369	C	1.287146	0.421535	1.703717
C370	C	0.620481	-0.245148	0.971308
C371	C	0.953814	0.088186	1.304641
C372	C	1.287148	0.421519	1.637975
C373	C	0.649240	-0.216432	0.938466
C374	C	0.982574	0.116901	1.271800
C375	C	1.315907	0.450235	1.605133
H376	H	0.036453	-0.135578	0.190400
H377	H	0.369786	0.197756	0.523733
H378	H	0.703119	0.531089	0.857067
F379	F	0.737266	-0.597478	0.180251
F380	F	1.070599	-0.264145	0.513585
F381	F	1.403932	0.069189	0.846918
H382	H	0.730147	-0.829210	0.190344
H383	H	1.063480	-0.495877	0.523677
H384	H	1.396813	-0.162543	0.857011
H385	H	-0.094216	-0.268770	0.376432
H386	H	0.239117	0.064564	0.709765
H387	H	0.572450	0.397897	1.043099
H388	H	0.177199	-0.135562	0.190378
H389	H	0.510532	0.197771	0.523711
H390	H	0.843866	0.531105	0.857045
H391	H	0.568293	-0.603409	0.416661
H392	H	0.901626	-0.270076	0.749995
H393	H	1.234960	0.063257	1.083328
H394	H	0.596953	-0.387580	0.376396
H395	H	0.930286	-0.054246	0.709730
H396	H	1.263620	0.279087	1.043063
F397	F	0.561132	-0.694385	0.426733
F398	F	0.894465	-0.361052	0.760067
F399	F	1.227798	-0.027719	1.093400
H400	H	0.596982	-0.472702	0.376418
H401	H	0.930316	-0.139369	0.709751
H402	H	1.263649	0.193965	1.043085
F403	F	0.708592	-0.157235	0.535567
F404	F	1.041926	0.176098	0.868901
F405	F	1.375259	0.509431	1.202234
F406	F	0.589865	-0.275822	0.535460
F407	F	0.923198	0.057511	0.868793
F408	F	1.256531	0.390844	1.202126
F409	F	0.708442	-0.381667	0.220425
F410	F	1.041775	-0.048333	0.553758
F411	F	1.375108	0.285000	0.887092
H412	H	0.262317	-0.135558	0.190367
H413	H	0.595650	0.197775	0.523701
H414	H	0.928984	0.531109	0.857034
H415	H	0.701405	-0.164282	1.063882
H416	H	1.034738	0.169052	1.397216
H417	H	1.368071	0.502385	1.730549
F418	F	0.561172	-0.835142	0.426735
F419	F	0.894505	-0.501808	0.760068
F420	F	1.227838	-0.168475	1.093402
F421	F	0.708584	-0.157194	0.671272
F422	F	1.041918	0.176140	1.004605
F423	F	1.375251	0.509473	1.337938
H424	H	0.597062	-0.268609	0.662957
H425	H	0.930396	0.064725	0.996290
H426	H	1.263729	0.398058	1.329624
H427	H	0.730122	-0.744091	0.190326
H428	H	1.063456	-0.410758	0.523659
H429	H	1.396789	-0.077425	0.856993
H430	H	0.701438	-0.959930	0.230556
H431	H	1.034771	-0.626597	0.563890
H432	H	1.368104	-0.293263	0.897223
F433	F	0.589877	-0.275692	1.072006
F434	F	0.923210	0.057642	1.405339
F435	F	1.256543	0.390975	1.738673
F436	F	0.708482	-0.478506	0.220443
F437	F	1.041815	-0.145172	0.553776
F438	F	1.375149	0.188161	0.887109
H439	H	0.568331	-0.744167	0.416665
H440	H	0.901665	-0.410834	0.749998
H441	H	1.234998	-0.077500	1.083331
F442	F	0.708599	-0.157136	0.936404
F443	F	1.041932	0.176197	1.269738
F444	F	1.375265	0.509531	1.603071
F445	F	-0.185230	-0.157181	0.220578
F446	F	0.148103	0.176152	0.553911
F447	F	0.481436	0.509486	0.887244
F448	F	0.268216	-0.304693	0.426601
F449	F	0.601550	0.028640	0.759934
F450	F	0.934883	0.361974	1.093267
H451	H	0.597068	-0.268545	0.944527
H452	H	0.930401	0.064789	1.277861
H453	H	1.263735	0.398122	1.611194
H454	H	-0.094254	-0.164356	0.230616
H455	H	0.239079	0.168978	0.563949
H456	H	0.572412	0.502311	0.897282
F457	F	0.484018	-0.157124	0.220451
F458	F	0.817352	0.176210	0.553784
F459	F	1.150685	0.509543	0.887117
H460	H	0.121558	-0.135567	0.190389
H461	H	0.454891	0.197766	0.523722
H462	H	0.788224	0.531100	0.857055
H463	H	-0.179340	-0.268775	0.376445
H464	H	0.153994	0.064559	0.709778
H465	H	0.487327	0.397892	1.043112
H466	H	0.393032	-0.164322	0.230512
H467	H	0.726365	0.169011	0.563845
H468	H	1.059699	0.502345	0.897179
H469	H	0.478172	-0.268724	0.376313
H470	H	0.811505	0.064609	0.709646
H471	H	1.144838	0.397943	1.042980
H472	H	0.121594	-0.297510	0.416593
H473	H	0.454928	0.035823	0.749927
H474	H	0.788261	0.369157	1.083260
F475	F	0.387201	-0.275921	0.386391
F476	F	0.720535	0.057413	0.719724
F477	F	1.053868	0.390746	1.053058
H478	H	0.701463	-1.045052	0.230575
H479	H	1.034796	-0.711719	0.563909
H480	H	1.368129	-0.378386	0.897242
F481	F	0.737294	-0.694311	0.180263
F482	F	1.070628	-0.360978	0.513596
F483	F	1.403961	-0.027645	0.846929
F484	F	0.030622	-0.304705	0.426663
F485	F	0.363955	0.028628	0.759996
F486	F	0.697289	0.361962	1.093330
F487	F	0.589968	-1.050958	0.386539
F488	F	0.923301	-0.717625	0.719872
F489	F	1.256635	-0.384292	1.053206
F490	F	0.589944	-0.954121	0.386538
F491	F	0.923277	-0.620788	0.719871
F492	F	1.256610	-0.287454	1.053205
F493	F	0.171381	-0.304701	0.426618
F494	F	0.504715	0.028633	0.759952
F495	F	0.838048	0.361966	1.093285
