data_functionalizedCrystal
_audit_creation_method	'MofGen! by Chris Wilmer'
_symmetry_space_group_name_H-M	'P1'
_symmetry_Int_Tables_number	1
_symmetry_cell_setting	triclinic
loop_
_symmetry_equiv_pos_as_xyz
  x,y,z
_cell_length_a	29.839134
_cell_length_b	29.839131
_cell_length_c	18.101389
_cell_angle_alpha	89.978713
_cell_angle_beta	89.971270
_cell_angle_gamma	90.036281
loop_
_atom_site_label
_atom_site_type_symbol
_atom_site_fract_x
_atom_site_fract_y
_atom_site_fract_z
Zn1	Zn	0.686750	-0.178962	-0.418911
Zn2	Zn	0.936750	0.071038	-0.168911
Zn3	Zn	1.186750	0.321038	0.081089
Zn4	Zn	1.436750	0.571038	0.331089
Zn5	Zn	0.686673	-0.254079	-0.295063
Zn6	Zn	0.936673	-0.004079	-0.045063
Zn7	Zn	1.186673	0.245921	0.204937
Zn8	Zn	1.436673	0.495921	0.454937
Zn9	Zn	0.611623	-0.178957	-0.295063
Zn10	Zn	0.861623	0.071043	-0.045063
Zn11	Zn	1.111623	0.321043	0.204937
Zn12	Zn	1.361623	0.571043	0.454937
Zn13	Zn	0.611580	-0.254059	-0.418842
Zn14	Zn	0.861580	-0.004059	-0.168842
Zn15	Zn	1.111580	0.245941	0.081158
Zn16	Zn	1.361580	0.495941	0.331158
O17	O	0.649156	-0.216514	-0.356970
O18	O	0.899156	0.033486	-0.106970
O19	O	1.149156	0.283486	0.143030
O20	O	1.399156	0.533486	0.393030
O21	O	0.749606	-0.188937	-0.402511
O22	O	0.999606	0.061063	-0.152511
O23	O	1.249606	0.311063	0.097489
O24	O	1.499606	0.561063	0.347489
O25	O	0.676703	-0.244120	-0.191430
O26	O	0.926703	0.005880	0.058570
O27	O	1.176703	0.255880	0.308570
O28	O	1.426703	0.505880	0.558570
O29	O	0.621639	-0.116090	-0.311520
O30	O	0.871639	0.133910	-0.061520
O31	O	1.121639	0.383910	0.188480
O32	O	1.371639	0.633910	0.438480
O33	O	0.749550	-0.244125	-0.311521
O34	O	0.999550	0.005875	-0.061521
O35	O	1.249550	0.255875	0.188479
O36	O	1.499550	0.505875	0.438479
O37	O	0.676834	-0.116094	-0.402511
O38	O	0.926834	0.133906	-0.152511
O39	O	1.176834	0.383906	0.097489
O40	O	1.426834	0.633906	0.347489
O41	O	0.621565	-0.188928	-0.191430
O42	O	0.871565	0.061072	0.058570
O43	O	1.121565	0.311072	0.308570
O44	O	1.371565	0.561072	0.558570
O45	O	0.548751	-0.188909	-0.311453
O46	O	0.798751	0.061091	-0.061453
O47	O	1.048751	0.311091	0.188547
O48	O	1.298751	0.561091	0.438547
O49	O	0.621565	-0.244091	-0.522484
O50	O	0.871565	0.005909	-0.272484
O51	O	1.121565	0.255909	-0.022484
O52	O	1.371565	0.505909	0.227516
O53	O	0.548719	-0.244086	-0.402394
O54	O	0.798719	0.005914	-0.152394
O55	O	1.048719	0.255914	0.097606
O56	O	1.298719	0.505914	0.347606
O57	O	0.676792	-0.188918	-0.522535
O58	O	0.926792	0.061082	-0.272535
O59	O	1.176792	0.311082	-0.022535
O60	O	1.426792	0.561082	0.227465
O61	O	0.676661	-0.316943	-0.311454
O62	O	0.926661	-0.066943	-0.061454
O63	O	1.176661	0.183057	0.188546
O64	O	1.426661	0.433057	0.438546
O65	O	0.621491	-0.316929	-0.402394
O66	O	0.871491	-0.066929	-0.152394
O67	O	1.121491	0.183071	0.097606
O68	O	1.371491	0.433071	0.347606
C69	C	0.532434	-0.216495	-0.356916
C70	C	0.782434	0.033505	-0.106916
C71	C	1.032434	0.283505	0.143084
C72	C	1.282434	0.533505	0.393084
C73	C	0.482500	-0.216498	-0.356911
C74	C	0.732500	0.033502	-0.106911
C75	C	0.982500	0.283502	0.143089
C76	C	1.232500	0.533502	0.393089
C77	C	0.172849	-0.245287	-0.404264
C78	C	0.422849	0.004713	-0.154264
C79	C	0.672849	0.254713	0.095736
C80	C	0.922849	0.504713	0.345736
C81	C	-0.014824	-0.245300	-0.404297
C82	C	0.235176	0.004700	-0.154297
C83	C	0.485176	0.254700	0.095703
C84	C	0.735176	0.504700	0.345703
O85	O	-0.039095	-0.269757	-0.444527
O86	O	0.210905	-0.019757	-0.194527
O87	O	0.460905	0.230243	0.055473
O88	O	0.710905	0.480243	0.305473
N89	N	-0.038286	-0.216531	-0.357025
N90	N	0.211714	0.033469	-0.107025
N91	N	0.461714	0.283469	0.142975
N92	N	0.711714	0.533469	0.392975
C93	C	-0.014826	-0.187754	-0.309746
C94	C	0.235174	0.062246	-0.059746
C95	C	0.485174	0.312246	0.190254
C96	C	0.735174	0.562246	0.440254
O97	O	-0.039088	-0.163281	-0.269544
O98	O	0.210912	0.086719	-0.019544
O99	O	0.460912	0.336719	0.230456
O100	O	0.710912	0.586719	0.480456
C101	C	0.172846	-0.187739	-0.309717
C102	C	0.422846	0.062261	-0.059717
C103	C	0.672846	0.312261	0.190283
C104	C	0.922846	0.562261	0.440283
C105	C	0.196305	-0.216514	-0.356986
C106	C	0.446305	0.033486	-0.106986
C107	C	0.696305	0.283486	0.143014
C108	C	0.946305	0.533486	0.393014
C109	C	0.196308	-0.274059	-0.451531
C110	C	0.446308	-0.024059	-0.201531
C111	C	0.696308	0.225941	0.048469
C112	C	0.946308	0.475941	0.298469
C113	C	0.243224	-0.274058	-0.451519
C114	C	0.493224	-0.024058	-0.201519
C115	C	0.743224	0.225942	0.048481
C116	C	0.993224	0.475942	0.298481
C117	C	0.266680	-0.245284	-0.404241
C118	C	0.516680	0.004716	-0.154241
C119	C	0.766680	0.254716	0.095759
C120	C	1.016680	0.504716	0.345759
C121	C	0.243221	-0.216512	-0.356975
C122	C	0.493221	0.033488	-0.106975
C123	C	0.743221	0.283488	0.143025
C124	C	0.993221	0.533488	0.393025
C125	C	0.196305	-0.158961	-0.262441
C126	C	0.446305	0.091039	-0.012441
C127	C	0.696305	0.341039	0.237559
C128	C	0.946305	0.591039	0.487559
C129	C	0.243226	-0.158959	-0.262440
C130	C	0.493226	0.091041	-0.012440
C131	C	0.743226	0.341041	0.237560
C132	C	0.993226	0.591041	0.487560
C133	C	0.266685	-0.187733	-0.309709
C134	C	0.516685	0.062267	-0.059709
C135	C	0.766685	0.312267	0.190291
C136	C	1.016685	0.562267	0.440291
C137	C	0.313593	-0.187737	-0.309685
C138	C	0.563593	0.062263	-0.059685
C139	C	0.813593	0.312263	0.190315
C140	C	1.063593	0.562263	0.440315
N141	N	0.337054	-0.216506	-0.356957
N142	N	0.587054	0.033494	-0.106957
N143	N	0.837054	0.283494	0.143043
N144	N	1.087054	0.533494	0.393043
C145	C	0.313598	-0.245280	-0.404235
C146	C	0.563598	0.004720	-0.154235
C147	C	0.813598	0.254720	0.095765
C148	C	1.063598	0.504720	0.345765
C149	C	-0.113357	-0.187764	-0.309763
C150	C	0.136643	0.062236	-0.059763
C151	C	0.386643	0.312236	0.190237
C152	C	0.636643	0.562236	0.440237
C153	C	-0.160274	-0.187768	-0.309769
C154	C	0.089726	0.062232	-0.059769
C155	C	0.339726	0.312232	0.190231
C156	C	0.589726	0.562232	0.440231
C157	C	-0.160269	-0.245314	-0.404322
C158	C	0.089731	0.004686	-0.154322
C159	C	0.339731	0.254686	0.095678
C160	C	0.589731	0.504686	0.345678
C161	C	-0.113351	-0.245312	-0.404311
C162	C	0.136649	0.004688	-0.154311
C163	C	0.386649	0.254688	0.095689
C164	C	0.636649	0.504688	0.345689
C165	C	-0.089895	-0.216534	-0.357035
C166	C	0.160105	0.033466	-0.107035
C167	C	0.410105	0.283466	0.142965
C168	C	0.660105	0.533466	0.392965
C169	C	0.412124	-0.245274	-0.404207
C170	C	0.662124	0.004726	-0.154207
C171	C	0.912124	0.254726	0.095793
C172	C	1.162124	0.504726	0.345793
C173	C	0.459043	-0.245271	-0.404189
C174	C	0.709043	0.004729	-0.154189
C175	C	0.959043	0.254729	0.095811
C176	C	1.209043	0.504729	0.345811
C177	C	0.459034	-0.187724	-0.309639
C178	C	0.709034	0.062276	-0.059639
C179	C	0.959034	0.312276	0.190361
C180	C	1.209034	0.562276	0.440361
C181	C	0.412118	-0.187729	-0.309654
C182	C	0.662118	0.062271	-0.059654
C183	C	0.912118	0.312271	0.190346
C184	C	1.162118	0.562271	0.440346
C185	C	0.388664	-0.216505	-0.356944
C186	C	0.638664	0.033495	-0.106944
C187	C	0.888664	0.283495	0.143056
C188	C	1.138664	0.533495	0.393056
O189	O	0.337892	-0.163289	-0.269483
O190	O	0.587892	0.086711	-0.019483
O191	O	0.837892	0.336711	0.230517
O192	O	1.087892	0.586711	0.480517
O193	O	0.337868	-0.269742	-0.444442
O194	O	0.587868	-0.019742	-0.194442
O195	O	0.837868	0.230258	0.055558
O196	O	1.087868	0.480258	0.305558
C197	C	0.125934	-0.245289	-0.404276
C198	C	0.375934	0.004711	-0.154276
C199	C	0.625934	0.254711	0.095724
C200	C	0.875934	0.504711	0.345724
C201	C	0.102474	-0.216517	-0.357010
C202	C	0.352474	0.033483	-0.107010
C203	C	0.602474	0.283483	0.142990
C204	C	0.852474	0.533483	0.392990
C205	C	0.125931	-0.187744	-0.309732
C206	C	0.375931	0.062256	-0.059732
C207	C	0.625931	0.312256	0.190268
C208	C	0.875931	0.562256	0.440268
C209	C	0.055557	-0.216521	-0.357016
C210	C	0.305557	0.033479	-0.107016
C211	C	0.555557	0.283479	0.142984
C212	C	0.805557	0.533479	0.392984
C213	C	0.032100	-0.245295	-0.404294
C214	C	0.282100	0.004705	-0.154294
C215	C	0.532100	0.254705	0.095706
C216	C	0.782100	0.504705	0.345706
C217	C	0.055562	-0.274064	-0.451565
C218	C	0.305562	-0.024064	-0.201565
C219	C	0.555562	0.225936	0.048435
C220	C	0.805562	0.475936	0.298435
C221	C	0.102477	-0.274063	-0.451554
C222	C	0.352477	-0.024063	-0.201554
C223	C	0.602477	0.225937	0.048446
C224	C	0.852477	0.475937	0.298446
C225	C	0.102469	-0.158974	-0.262460
C226	C	0.352469	0.091026	-0.012460
C227	C	0.602469	0.341026	0.237540
C228	C	0.852469	0.591026	0.487540
C229	C	0.055554	-0.158979	-0.262475
C230	C	0.305554	0.091021	-0.012475
C231	C	0.555554	0.341021	0.237525
C232	C	0.805554	0.591021	0.487525
C233	C	0.032097	-0.187752	-0.309753
C234	C	0.282097	0.062248	-0.059753
C235	C	0.532097	0.312248	0.190247
C236	C	0.782097	0.562248	0.440247
C237	C	0.649075	-0.333237	-0.356933
C238	C	0.899075	-0.083237	-0.106933
C239	C	1.149075	0.166763	0.143067
C240	C	1.399075	0.416763	0.393067
C241	C	0.649082	-0.383171	-0.356942
C242	C	0.899082	-0.133171	-0.106942
C243	C	1.149082	0.116829	0.143058
C244	C	1.399082	0.366829	0.393058
C245	C	0.677936	-0.692809	-0.309687
C246	C	0.927936	-0.442809	-0.059687
C247	C	1.177936	-0.192809	0.190313
C248	C	1.427936	0.057191	0.440313
C249	C	0.677991	-0.880482	-0.309715
C250	C	0.927991	-0.630482	-0.059715
C251	C	1.177991	-0.380482	0.190285
C252	C	1.427991	-0.130482	0.440285
O253	O	0.702460	-0.904743	-0.269509
O254	O	0.952460	-0.654743	-0.019509
O255	O	1.202460	-0.404743	0.230491
O256	O	1.452460	-0.154743	0.480491
N257	N	0.649250	-0.903956	-0.357026
N258	N	0.899250	-0.653956	-0.107026
N259	N	1.149250	-0.403956	0.142974
N260	N	1.399250	-0.153956	0.392974
C261	C	0.620494	-0.880509	-0.404336
C262	C	0.870494	-0.630509	-0.154336
C263	C	1.120494	-0.380509	0.095664
C264	C	1.370494	-0.130509	0.345664
O265	O	0.596052	-0.904781	-0.444582
O266	O	0.846052	-0.654781	-0.194582
O267	O	1.096052	-0.404781	0.055418
O268	O	1.346052	-0.154781	0.305418
C269	C	0.620441	-0.692837	-0.404310
C270	C	0.870441	-0.442837	-0.154310
C271	C	1.120441	-0.192837	0.095690
C272	C	1.370441	0.057163	0.345690
C273	C	0.649182	-0.669365	-0.356991
C274	C	0.899182	-0.419365	-0.106991
C275	C	1.149182	-0.169365	0.143009
C276	C	1.399182	0.080635	0.393009
C277	C	0.706674	-0.669338	-0.262372
C278	C	0.956674	-0.419338	-0.012372
C279	C	1.206674	-0.169338	0.237628
C280	C	1.456674	0.080662	0.487628
C281	C	0.706658	-0.622423	-0.262363
C282	C	0.956658	-0.372423	-0.012363
C283	C	1.206658	-0.122423	0.237637
C284	C	1.456658	0.127577	0.487637
C285	C	0.677904	-0.598979	-0.309667
C286	C	0.927904	-0.348979	-0.059667
C287	C	1.177904	-0.098979	0.190333
C288	C	1.427904	0.151021	0.440333
C289	C	0.649166	-0.622450	-0.356982
C290	C	0.899166	-0.372450	-0.106982
C291	C	1.149166	-0.122450	0.143018
C292	C	1.399166	0.127550	0.393018
C293	C	0.591688	-0.669390	-0.451623
C294	C	0.841688	-0.419390	-0.201623
C295	C	1.091688	-0.169390	0.048377
C296	C	1.341688	0.080610	0.298377
C297	C	0.591678	-0.622469	-0.451614
C298	C	0.841678	-0.372469	-0.201614
C299	C	1.091678	-0.122469	0.048386
C300	C	1.341678	0.127531	0.298386
C301	C	0.620419	-0.598998	-0.404295
C302	C	0.870419	-0.348998	-0.154295
C303	C	1.120419	-0.098998	0.095705
C304	C	1.370419	0.151002	0.345705
C305	C	0.620396	-0.552090	-0.404277
C306	C	0.870396	-0.302090	-0.154277
C307	C	1.120396	-0.052090	0.095723
C308	C	1.370396	0.197910	0.345723
N309	N	0.649137	-0.528617	-0.356967
N310	N	0.899137	-0.278617	-0.106967
N311	N	1.149137	-0.028617	0.143033
N312	N	1.399137	0.221383	0.393033
C313	C	0.677892	-0.552061	-0.309662
C314	C	0.927892	-0.302061	-0.059662
C315	C	1.177892	-0.052061	0.190338
C316	C	1.427892	0.197939	0.440338
C317	C	0.620523	-0.979039	-0.404345
C318	C	0.870523	-0.729039	-0.154345
C319	C	1.120523	-0.479039	0.095655
C320	C	1.370523	-0.229039	0.345655
C321	C	0.620536	-1.025957	-0.404350
C322	C	0.870536	-0.775957	-0.154350
C323	C	1.120536	-0.525957	0.095650
C324	C	1.370536	-0.275957	0.345650
C325	C	0.678034	-1.025928	-0.309731
C326	C	0.928034	-0.775928	-0.059731
C327	C	1.178034	-0.525928	0.190269
C328	C	1.428034	-0.275928	0.440269
C329	C	0.678019	-0.979009	-0.309722
C330	C	0.928019	-0.729009	-0.059722
C331	C	1.178019	-0.479009	0.190278
C332	C	1.428019	-0.229009	0.440278
C333	C	0.649265	-0.955566	-0.357034
C334	C	0.899265	-0.705566	-0.107034
C335	C	1.149265	-0.455566	0.142966
C336	C	1.399265	-0.205566	0.392966
C337	C	0.677856	-0.453535	-0.309645
C338	C	0.927856	-0.203535	-0.059645
C339	C	1.177856	0.046465	0.190355
C340	C	1.427856	0.296465	0.440355
C341	C	0.677836	-0.406615	-0.309637
C342	C	0.927836	-0.156615	-0.059637
C343	C	1.177836	0.093385	0.190363
C344	C	1.427836	0.343385	0.440363
C345	C	0.620340	-0.406649	-0.404259
C346	C	0.870340	-0.156649	-0.154259
C347	C	1.120340	0.093351	0.095741
C348	C	1.370340	0.343351	0.345741
C349	C	0.620358	-0.453564	-0.404264
C350	C	0.870358	-0.203564	-0.154264
C351	C	1.120358	0.046436	0.095736
C352	C	1.370358	0.296436	0.345736
C353	C	0.649119	-0.477006	-0.356955
C354	C	0.899119	-0.227006	-0.106955
C355	C	1.149119	0.022994	0.143045
C356	C	1.399119	0.272994	0.393045
O357	O	0.595943	-0.527801	-0.444468
O358	O	0.845943	-0.277801	-0.194468
O359	O	1.095943	-0.027801	0.055532
O360	O	1.345943	0.222199	0.305532
O361	O	0.702337	-0.527781	-0.269433
O362	O	0.952337	-0.277781	-0.019433
O363	O	1.202337	-0.027781	0.230567
O364	O	1.452337	0.222219	0.480567
C365	C	0.677952	-0.739725	-0.309696
C366	C	0.927952	-0.489725	-0.059696
C367	C	1.177952	-0.239725	0.190304
C368	C	1.427952	0.010275	0.440304
C369	C	0.649213	-0.763196	-0.357010
C370	C	0.899213	-0.513196	-0.107010
C371	C	1.149213	-0.263196	0.142990
C372	C	1.399213	-0.013196	0.392990
C373	C	0.620459	-0.739752	-0.404315
C374	C	0.870459	-0.489752	-0.154315
C375	C	1.120459	-0.239752	0.095685
C376	C	1.370459	0.010248	0.345685
C377	C	0.649226	-0.810114	-0.357016
C378	C	0.899226	-0.560114	-0.107016
C379	C	1.149226	-0.310114	0.142984
C380	C	1.399226	-0.060114	0.392984
C381	C	0.677980	-0.833558	-0.309711
C382	C	0.927980	-0.583558	-0.059711
C383	C	1.177980	-0.333558	0.190289
C384	C	1.427980	-0.083558	0.440289
C385	C	0.706722	-0.810084	-0.262401
C386	C	0.956722	-0.560084	-0.012401
C387	C	1.206722	-0.310084	0.237599
C388	C	1.456722	-0.060084	0.487599
C389	C	0.706706	-0.763169	-0.262391
C390	C	0.956706	-0.513169	-0.012391
C391	C	1.206706	-0.263169	0.237609
C392	C	1.456706	-0.013169	0.487609
C393	C	0.591717	-0.763226	-0.451625
C394	C	0.841717	-0.513226	-0.201625
C395	C	1.091717	-0.263226	0.048375
C396	C	1.341717	-0.013226	0.298375
C397	C	0.591735	-0.810141	-0.451631
C398	C	0.841735	-0.560141	-0.201631
C399	C	1.091735	-0.310141	0.048369
C400	C	1.341735	-0.060141	0.298369
C401	C	0.620490	-0.833585	-0.404326
C402	C	0.870490	-0.583585	-0.154326
C403	C	1.120490	-0.333585	0.095674
C404	C	1.370490	-0.083585	0.345674
C405	C	0.766335	-0.216534	-0.357024
C406	C	1.016335	0.033466	-0.107024
C407	C	1.266335	0.283466	0.142976
C408	C	1.516335	0.533466	0.392976
C409	C	0.816269	-0.216542	-0.357047
C410	C	1.066269	0.033458	-0.107047
C411	C	1.316269	0.283458	0.142953
C412	C	1.566269	0.533458	0.392953
C413	C	0.649182	-0.216503	-0.550132
C414	C	0.899182	0.033497	-0.300132
C415	C	1.149182	0.283497	-0.050132
C416	C	1.399182	0.533497	0.199868
C417	C	0.649194	-0.216498	-0.632446
C418	C	0.899194	0.033502	-0.382446
C419	C	1.149194	0.283502	-0.132446
C420	C	1.399194	0.533502	0.117554
C421	C	0.649250	-0.099336	-0.357023
C422	C	0.899250	0.150664	-0.107023
C423	C	1.149250	0.400664	0.142977
C424	C	1.399250	0.650664	0.392977
C425	C	0.649290	-0.049401	-0.357045
C426	C	0.899290	0.200599	-0.107045
C427	C	1.149290	0.450599	0.142955
C428	C	1.399290	0.700599	0.392955
C429	C	0.649220	-0.216414	-0.931537
C430	C	0.899220	0.033586	-0.681537
C431	C	1.149220	0.283586	-0.431537
C432	C	1.399220	0.533586	-0.181537
C433	C	0.614353	-0.251017	-0.900180
C434	C	0.864353	-0.001017	-0.650180
C435	C	1.114353	0.248983	-0.400180
C436	C	1.364353	0.498983	-0.150180
C437	C	0.614447	-0.251177	-0.814562
C438	C	0.864447	-0.001177	-0.564562
C439	C	1.114447	0.248823	-0.314562
C440	C	1.364447	0.498823	-0.064562
C441	C	0.649206	-0.216456	-0.783154
C442	C	0.899206	0.033544	-0.533154
C443	C	1.149206	0.283544	-0.283154
C444	C	1.399206	0.533544	-0.033154
C445	C	0.696537	-0.229311	-0.814265
C446	C	0.946537	0.020689	-0.564265
C447	C	1.196537	0.270689	-0.314265
C448	C	1.446537	0.520689	-0.064265
C449	C	0.696342	-0.229538	-0.899910
C450	C	0.946342	0.020462	-0.649910
C451	C	1.196342	0.270462	-0.399910
C452	C	1.446342	0.520462	-0.149910
C453	C	0.637168	-0.168878	-0.899964
C454	C	0.887168	0.081122	-0.649964
C455	C	1.137168	0.331122	-0.399964
C456	C	1.387168	0.581122	-0.149964
C457	C	0.636114	-0.169153	-0.814313
C458	C	0.886114	0.080847	-0.564313
C459	C	1.136114	0.330847	-0.314313
C460	C	1.386114	0.580847	-0.064313
C461	C	0.649202	-0.216478	-0.699295
C462	C	0.899202	0.033522	-0.449295
C463	C	1.149202	0.283522	-0.199295
C464	C	1.399202	0.533522	0.050705
C465	C	0.649228	-0.216392	-1.015397
C466	C	0.899228	0.033608	-0.765397
C467	C	1.149228	0.283608	-0.515397
C468	C	1.399228	0.533608	-0.265397
C469	C	0.649156	-0.216493	-0.164559
C470	C	0.899156	0.033507	0.085441
C471	C	1.149156	0.283507	0.335441
C472	C	1.399156	0.533507	0.585441
C473	C	0.649233	-0.216371	-0.082246
C474	C	0.899233	0.033629	0.167754
C475	C	1.149233	0.283629	0.417754
C476	C	1.399233	0.533629	0.667754
H477	H	0.036457	-0.135548	-0.223975
H478	H	0.286457	0.114452	0.026025
H479	H	0.536457	0.364452	0.276025
H480	H	0.786457	0.614452	0.526025
F481	F	0.670361	-0.135180	-0.926471
F482	F	0.920361	0.114820	-0.676471
F483	F	1.170361	0.364820	-0.426471
F484	F	1.420361	0.614820	-0.176471
H485	H	0.622403	-0.286412	-0.794077
H486	H	0.872403	-0.036412	-0.544077
H487	H	1.122403	0.213588	-0.294077
H488	H	1.372403	0.463588	-0.044077
F489	F	0.568572	-0.240660	-0.787063
F490	F	0.818572	0.009340	-0.537063
F491	F	1.068572	0.259340	-0.287063
F492	F	1.318572	0.509340	-0.037063
F493	F	0.127438	-0.304689	-0.501865
F494	F	0.377438	-0.054689	-0.251865
F495	F	0.627438	0.195311	-0.001865
F496	F	0.877438	0.445311	0.248135
H497	H	-0.094263	-0.164329	-0.271261
H498	H	0.155737	0.085671	-0.021261
H499	H	0.405737	0.335671	0.228739
H500	H	0.655737	0.585671	0.478739
H501	H	0.568303	-0.744141	-0.490148
H502	H	0.818303	-0.494141	-0.240148
H503	H	1.068303	-0.244141	0.009852
H504	H	1.318303	0.005859	0.259852
F505	F	0.737253	-0.597449	-0.212008
F506	F	0.987253	-0.347449	0.037992
F507	F	1.237253	-0.097449	0.287992
F508	F	1.487253	0.152551	0.537992
F509	F	0.484007	-0.275899	-0.454500
F510	F	0.734007	-0.025899	-0.204500
F511	F	0.984007	0.224101	0.045500
F512	F	1.234007	0.474101	0.295500
F513	F	0.568338	-0.240608	-0.927075
F514	F	0.818338	0.009392	-0.677075
F515	F	1.068338	0.259392	-0.427075
F516	F	1.318338	0.509392	-0.177075
H517	H	0.622230	-0.286037	-0.921704
H518	H	0.872230	-0.036037	-0.671704
H519	H	1.122230	0.213963	-0.421704
H520	H	1.372230	0.463963	-0.171704
H521	H	-0.094253	-0.268742	-0.442804
H522	H	0.155747	-0.018742	-0.192804
H523	H	0.405747	0.231258	0.057196
H524	H	0.655747	0.481258	0.307196
H525	H	-0.179375	-0.268743	-0.442817
H526	H	0.070625	-0.018743	-0.192817
H527	H	0.320625	0.231257	0.057183
H528	H	0.570625	0.481257	0.307183
H529	H	0.478141	-0.164299	-0.271144
H530	H	0.728141	0.085701	-0.021144
H531	H	0.978141	0.335701	0.228856
H532	H	1.228141	0.585701	0.478856
H533	H	0.121563	-0.135543	-0.223960
H534	H	0.371563	0.114457	0.026040
H535	H	0.621563	0.364457	0.276040
H536	H	0.871563	0.614457	0.526040
F537	F	0.708427	-0.381638	-0.259272
F538	F	0.958427	-0.131638	-0.009272
F539	F	1.208427	0.118362	0.240728
F540	F	1.458427	0.368362	0.490728
H541	H	0.036455	-0.297494	-0.490059
H542	H	0.286455	-0.047494	-0.240059
H543	H	0.536455	0.202506	0.009941
H544	H	0.786455	0.452506	0.259941
F545	F	0.708635	-1.050887	-0.259383
F546	F	0.958635	-0.800887	-0.009383
F547	F	1.208635	-0.550887	0.240617
F548	F	1.458635	-0.300887	0.490617
F549	F	0.709698	-0.274957	-0.926030
F550	F	0.959698	-0.024957	-0.676030
F551	F	1.209698	0.225043	-0.426030
F552	F	1.459698	0.475043	-0.176030
H553	H	0.568264	-0.603384	-0.490144
H554	H	0.818264	-0.353384	-0.240144
H555	H	1.068264	-0.103384	0.009856
H556	H	1.318264	0.146616	0.259856
F557	F	0.708467	-0.478477	-0.259292
F558	F	0.958467	-0.228477	-0.009292
F559	F	1.208467	0.021523	0.240708
F560	F	1.458467	0.271523	0.490708
F561	F	0.737282	-0.694282	-0.212021
F562	F	0.987282	-0.444282	0.037979
F563	F	1.237282	-0.194282	0.287979
F564	F	1.487282	0.055718	0.537979
F565	F	0.589761	-0.478545	-0.454612
F566	F	0.839761	-0.228545	-0.204612
F567	F	1.089761	0.021455	0.045388
F568	F	1.339761	0.271455	0.295388
F569	F	0.589941	-1.050932	-0.454705
F570	F	0.839941	-0.800932	-0.204705
F571	F	1.089941	-0.550932	0.045295
F572	F	1.339941	-0.300932	0.295295
H573	H	0.723201	-0.205429	-0.920656
H574	H	0.973201	0.044571	-0.670656
H575	H	1.223201	0.294571	-0.420656
H576	H	1.473201	0.544571	-0.170656
F577	F	0.708608	-0.954033	-0.259360
F578	F	0.958608	-0.704033	-0.009360
F579	F	1.208608	-0.454033	0.240640
F580	F	1.458608	-0.204033	0.490640
F581	F	0.589917	-0.954095	-0.454703
F582	F	0.839917	-0.704095	-0.204703
F583	F	1.089917	-0.454095	0.045297
F584	F	1.339917	-0.204095	0.295297
H585	H	0.723212	-0.204899	-0.793924
H586	H	0.973212	0.045101	-0.543924
H587	H	1.223212	0.295101	-0.293924
H588	H	1.473212	0.545101	-0.043924
F589	F	0.387169	-0.275902	-0.454538
F590	F	0.637169	-0.025902	-0.204538
F591	F	0.887169	0.224098	0.045462
F592	F	1.137169	0.474098	0.295462
F593	F	0.592840	-0.153571	-0.928171
F594	F	0.842840	0.096429	-0.678171
F595	F	1.092840	0.346429	-0.428171
F596	F	1.342840	0.596429	-0.178171
H597	H	0.601283	-0.159459	-0.793977
H598	H	0.851283	0.090541	-0.543977
H599	H	1.101283	0.340541	-0.293977
H600	H	1.351283	0.590541	-0.043977
H601	H	0.706932	-0.263690	-0.792821
H602	H	0.956932	-0.013690	-0.542821
H603	H	1.206932	0.236310	-0.292821
H604	H	1.456932	0.486310	-0.042821
H605	H	0.393017	-0.164299	-0.271162
H606	H	0.643017	0.085701	-0.021162
H607	H	0.893017	0.335701	0.228838
H608	H	1.143017	0.585701	0.478838
H609	H	-0.179371	-0.164342	-0.271270
H610	H	0.070629	0.085658	-0.021270
H611	H	0.320629	0.335658	0.228730
H612	H	0.570629	0.585658	0.478730
H613	H	0.262320	-0.297488	-0.490012
H614	H	0.512320	-0.047488	-0.240012
H615	H	0.762320	0.202512	0.009988
H616	H	1.012320	0.452512	0.259988
F617	F	0.171351	-0.304686	-0.501855
F618	F	0.421351	-0.054686	-0.251855
F619	F	0.671351	0.195314	-0.001855
F620	F	0.921351	0.445314	0.248145
H621	H	0.262321	-0.135521	-0.223945
H622	H	0.512321	0.114479	0.026055
H623	H	0.762321	0.364479	0.276055
H624	H	1.012321	0.614479	0.526055
F625	F	0.171348	-0.128332	-0.212133
F626	F	0.421348	0.121668	0.037867
F627	F	0.671348	0.371668	0.287867
F628	F	0.921348	0.621668	0.537867
H629	H	0.659657	-0.142003	-0.792934
H630	H	0.909657	0.107997	-0.542934
H631	H	1.159657	0.357997	-0.292934
H632	H	1.409657	0.607997	-0.042934
H633	H	0.568283	-0.688492	-0.490152
H634	H	0.818283	-0.438492	-0.240152
H635	H	1.068283	-0.188492	0.009848
H636	H	1.318283	0.061508	0.259848
H637	H	0.596927	-0.387553	-0.442772
H638	H	0.846927	-0.137553	-0.192772
H639	H	1.096927	0.112447	0.057228
H640	H	1.346927	0.362447	0.307228
H641	H	0.568327	-0.829248	-0.490162
H642	H	0.818327	-0.579248	-0.240162
H643	H	1.068327	-0.329248	0.009838
H644	H	1.318327	-0.079248	0.259838
F645	F	0.737297	-0.738195	-0.212030
F646	F	0.987297	-0.488195	0.037970
F647	F	1.237297	-0.238195	0.287970
F648	F	1.487297	0.011805	0.537970
H649	H	0.730133	-0.829181	-0.223882
H650	H	0.980133	-0.579181	0.026118
H651	H	1.230133	-0.329181	0.276118
H652	H	1.480133	-0.079181	0.526118
