data_functionalizedCrystal
_audit_creation_method	'MofGen! by Chris Wilmer'
_symmetry_space_group_name_H-M	'P1'
_symmetry_Int_Tables_number	1
_symmetry_cell_setting	triclinic
loop_
_symmetry_equiv_pos_as_xyz
  x,y,z
_cell_length_a	15.297475
_cell_length_b	12.594516
_cell_length_c	15.296720
_cell_angle_alpha	99.649603
_cell_angle_beta	91.617114
_cell_angle_gamma	80.315126
loop_
_atom_site_label
_atom_site_type_symbol
_atom_site_fract_x
_atom_site_fract_y
_atom_site_fract_z
Zn1	Zn	1.253520	-0.828411	-0.726651
Zn2	Zn	1.278805	-0.981681	-0.580176
Zn3	Zn	1.132389	-0.768614	-0.554888
Zn4	Zn	1.107029	-0.971218	-0.701304
O5	O	1.192936	-0.887481	-0.640755
O6	O	1.379456	-0.878146	-0.728412
O7	O	1.280577	-0.932770	-0.454246
O8	O	1.148489	-0.627612	-0.577697
O9	O	1.398033	-0.990753	-0.620797
O10	O	1.237483	-0.671544	-0.703891
O11	O	1.173006	-0.776231	-0.435666
O12	O	1.006443	-0.766086	-0.553119
O13	O	1.105267	-0.972920	-0.827242
O14	O	0.987811	-0.914938	-0.660691
O15	O	1.212893	-0.868001	-0.845864
O16	O	1.255987	-1.129227	-0.596219
O17	O	1.129784	-1.121540	-0.685212
C18	C	0.965343	-0.832888	-0.601411
C19	C	0.867974	-0.809563	-0.584600
C20	C	0.554863	-1.054200	-0.760906
C21	C	0.646346	-1.076123	-0.776698
C22	C	0.701757	-1.009485	-0.728675
C23	C	0.665677	-0.920920	-0.664857
C24	C	0.574185	-0.899000	-0.649058
C25	C	0.721080	-0.854285	-0.616828
C26	C	0.684999	-0.765720	-0.553010
C27	C	0.593516	-0.743803	-0.537214
C28	C	0.538105	-0.810441	-0.585237
C29	C	0.812571	-0.876205	-0.632626
C30	C	0.831894	-0.721004	-0.520779
C31	C	0.740410	-0.699081	-0.504987
C32	C	1.192898	-1.164009	-0.640732
C33	C	1.192957	-1.282334	-0.640766
C34	C	1.261655	-1.355756	-0.592437
C35	C	1.269218	-1.445079	-0.676082
C36	C	1.185495	-1.403844	-0.557192
C37	C	1.200553	-1.370115	-0.724459
C38	C	1.116802	-1.328856	-0.605509
C39	C	1.124325	-1.418150	-0.689203
C40	C	1.421417	-0.942287	-0.680253
C41	C	1.518783	-0.965642	-0.697084
C42	C	1.153430	-0.925964	-0.869224
C43	C	1.136596	-0.942363	-0.966585
C44	C	1.192994	-0.609881	-0.640800
C45	C	1.193019	-0.491585	-0.640820
C46	C	1.313289	-0.770095	-1.279811
C47	C	1.329112	-0.754690	-1.188337
C48	C	1.280984	-0.801606	-1.132895
C49	C	1.217031	-0.863931	-1.168935
C50	C	1.201212	-0.879344	-1.260418
C51	C	1.168907	-0.910856	-1.113502
C52	C	1.104954	-0.973181	-1.149542
C53	C	1.089137	-0.988590	-1.241017
C54	C	1.137265	-0.941674	-1.296459
C55	C	1.184726	-0.895443	-1.022018
C56	C	1.072649	-1.004692	-1.002626
C57	C	1.056826	-1.020097	-1.094100
C58	C	1.232338	-0.849083	-0.413182
C59	C	1.249342	-0.832424	-0.315852
H60	H	0.711020	-0.626971	-0.453025
Cl61	Cl	1.373792	-0.711134	-1.349513
H62	H	1.333645	-1.495383	-0.705929
H63	H	1.179157	-1.419281	-0.486491
H64	H	0.463611	-0.792595	-0.572384
H65	H	1.236796	-0.844697	-0.992684
Cl66	Cl	1.351347	-1.313280	-0.529406
H67	H	1.293871	-0.789060	-1.058413
H68	H	1.124385	-0.954213	-1.370946
H69	H	0.509741	-1.108453	-0.799993
Cl70	Cl	1.034655	-1.460367	-0.752423
H71	H	1.037069	-1.039350	-1.270359
Cl72	Cl	1.210469	-1.346529	-0.833667
H73	H	1.381184	-0.703948	-1.159000
H74	H	1.004755	-1.070842	-1.123457
Cl75	Cl	1.012146	-1.063684	-0.932934
H76	H	0.776247	-1.027340	-0.741537
Cl77	Cl	0.857919	-0.987539	-0.712853
Cl78	Cl	0.691699	-1.187458	-0.856921
Cl79	Cl	0.548161	-0.632471	-0.456979
H80	H	1.052398	-1.278530	-0.575641
Cl81	Cl	0.901548	-0.637230	-0.460400
