data_functionalizedCrystal
_audit_creation_method	'MofGen! by Chris Wilmer'
_symmetry_space_group_name_H-M	'P1'
_symmetry_Int_Tables_number	1
_symmetry_cell_setting	triclinic
loop_
_symmetry_equiv_pos_as_xyz
  x,y,z
_cell_length_a	12.759401
_cell_length_b	16.120484
_cell_length_c	12.759393
_cell_angle_alpha	92.863354
_cell_angle_beta	89.980718
_cell_angle_gamma	92.926992
loop_
_atom_site_label
_atom_site_type_symbol
_atom_site_fract_x
_atom_site_fract_y
_atom_site_fract_z
Zn1	Zn	1.584967	-0.331827	-0.615182
Zn2	Zn	1.575920	-0.471264	-0.448395
Zn3	Zn	1.409268	-0.331873	-0.439520
Zn4	Zn	1.400319	-0.471204	-0.624028
O5	O	1.492618	-0.401542	-0.531782
O6	O	1.730788	-0.350330	-0.593070
O7	O	1.553773	-0.452818	-0.300199
O8	O	1.440106	-0.215202	-0.455406
O9	O	1.724141	-0.452773	-0.470532
O10	O	1.569192	-0.215168	-0.584464
O11	O	1.431334	-0.350408	-0.293679
O12	O	1.261060	-0.350350	-0.463984
O13	O	1.424853	-0.452672	-0.769873
O14	O	1.254485	-0.452716	-0.599541
O15	O	1.560514	-0.350272	-0.763374
O16	O	1.545095	-0.587922	-0.479109
O17	O	1.416081	-0.587878	-0.608146
C18	C	1.219652	-0.401532	-0.531760
C19	C	1.102874	-0.401548	-0.531777
C20	C	1.478664	-0.618150	-0.545574
C21	C	1.472790	-0.710815	-0.551509
C22	C	1.044611	-0.454931	-0.602261
C23	C	0.934887	-0.454934	-0.602282
C24	C	0.941699	-0.348169	-0.461326
C25	C	1.051421	-0.348162	-0.461311
C26	C	0.783068	-0.484848	-0.728050
C27	C	0.724801	-0.538244	-0.798526
C28	C	0.755180	-0.619605	-0.819663
C29	C	0.843824	-0.647587	-0.770309
C30	C	0.902086	-0.594195	-0.699826
C31	C	0.871709	-0.512822	-0.678709
C32	C	1.203241	-0.318257	-0.335542
C33	C	1.261504	-0.264868	-0.265053
C34	C	1.231128	-0.183506	-0.243905
C35	C	1.142480	-0.155528	-0.293240
C36	C	1.084216	-0.208916	-0.363729
C37	C	1.114601	-0.290277	-0.384878
C38	C	1.462072	-0.880476	-0.562367
C39	C	1.523353	-0.921768	-0.501213
C40	C	1.517390	-1.016173	-0.507255
C41	C	1.468034	-0.786063	-0.556327
C42	C	1.766651	-0.401553	-0.531804
C43	C	1.883427	-0.401558	-0.531813
C44	C	1.492694	-0.401460	-0.805810
C45	C	1.492727	-0.401425	-0.922584
C46	C	1.506656	-0.184089	-0.517959
C47	C	1.512638	-0.091423	-0.512068
C48	C	1.429030	-0.348061	-1.083779
C49	C	1.428999	-0.348089	-0.974057
C50	C	1.556498	-0.454731	-0.980840
C51	C	1.556533	-0.454698	-1.090560
C52	C	1.397761	-0.249809	-0.817858
C53	C	1.333981	-0.196513	-0.759607
C54	C	1.232305	-0.183698	-0.794400
C55	C	1.194388	-0.224190	-0.887443
C56	C	1.258162	-0.277492	-0.945689
C57	C	1.359854	-0.290292	-0.910896
C58	C	1.587760	-0.552978	-1.246761
C59	C	1.651530	-0.606285	-1.305009
C60	C	1.753207	-0.619110	-1.270218
C61	C	1.791119	-0.578632	-1.177173
C62	C	1.727349	-0.525325	-1.118925
C63	C	1.625673	-0.512500	-1.153723
C64	C	1.492607	-0.401564	-0.258816
C65	C	1.492793	-0.401364	-0.142027
H66	H	1.086500	-0.498399	-0.659642
N67	N	1.612823	-0.647649	-1.400051
N68	N	1.606825	-0.725325	-1.408762
H69	H	1.579493	-0.754539	-1.475887
N70	N	0.889138	-0.293633	-0.389358
N71	N	0.831349	-0.240546	-0.423063
H72	H	0.794229	-0.202029	-0.372234
N73	N	1.390633	-0.925080	-0.633716
N74	N	1.320700	-0.973765	-0.599728
H75	H	1.270244	-1.005277	-0.650113
N76	N	0.874852	-0.730702	-0.791871
N77	N	0.879090	-0.779619	-0.719181
H78	H	0.901006	-0.838322	-0.734408
H79	H	1.580296	-0.886217	-0.444319
N80	N	1.363917	-0.293579	-1.136336
N81	N	1.306991	-0.245991	-1.084310
H82	H	1.261004	-0.207510	-1.121425
H83	H	1.480558	-0.260231	-0.789527
N84	N	0.634266	-0.509672	-0.848963
N85	N	0.582255	-0.557353	-0.911888
H86	H	0.518314	-0.537180	-0.947510
N87	N	1.090522	-0.211088	-0.922967
N88	N	1.065370	-0.139586	-0.942779
H89	H	0.992013	-0.130329	-0.967870
N90	N	1.483902	-0.539878	-1.282322
N91	N	1.450064	-0.576028	-1.365395
H92	H	1.376714	-0.566779	-1.390514
N93	N	1.352081	-0.293446	-0.214697
N94	N	1.439969	-0.257565	-0.227617
H95	H	1.503945	-0.277748	-0.192067
H96	H	1.227291	-0.310460	-1.021442
H97	H	0.758333	-0.418595	-0.710857
N98	N	1.167165	-0.129260	-0.734884
N99	N	1.201024	-0.093119	-0.651813
H100	H	1.155024	-0.054670	-0.609776
N101	N	1.372724	-0.155161	-0.664570
N102	N	1.463517	-0.166600	-0.633519
H103	H	1.490875	-0.137398	-0.566397
N104	N	1.766088	-0.483985	-1.023880
N105	N	1.856873	-0.495442	-0.992821
H106	H	1.884233	-0.466246	-0.925696
H107	H	1.608391	-0.498154	-0.938922
H108	H	1.873912	-0.589076	-1.148844
H109	H	1.117734	-0.089281	-0.276005
N110	N	1.290645	-0.128985	-0.171886
N111	N	1.369783	-0.153973	-0.127828
H112	H	1.411815	-0.115467	-0.076966
N113	N	1.234284	-0.401369	-0.357130
N114	N	1.313424	-0.426343	-0.313060
H115	H	1.335347	-0.485042	-0.328298
N116	N	0.695670	-0.674162	-0.891642
N117	N	0.654127	-0.740677	-0.861430
H118	H	0.612096	-0.779206	-0.912267
H119	H	0.974257	-0.616977	-0.659643
N120	N	1.818328	-0.673575	-1.329721
N121	N	1.784467	-0.709724	-1.412787
H122	H	1.830459	-0.748189	-1.454808
N123	N	0.993677	-0.180321	-0.414132
N124	N	0.966567	-0.107670	-0.395253
H125	H	0.902629	-0.087472	-0.430856
