data_functionalizedCrystal
_audit_creation_method	'MofGen! by Chris Wilmer'
_symmetry_space_group_name_H-M	'P1'
_symmetry_Int_Tables_number	1
_symmetry_cell_setting	triclinic
loop_
_symmetry_equiv_pos_as_xyz
  x,y,z
_cell_length_a	31.640172
_cell_length_b	31.640172
_cell_length_c	31.640172
_cell_angle_alpha	90.008361
_cell_angle_beta	60.004780
_cell_angle_gamma	59.996622
loop_
_atom_site_label
_atom_site_type_symbol
_atom_site_fract_x
_atom_site_fract_y
_atom_site_fract_z
Zr1	Zr	0.462542	-0.055408	0.407238
O2	O	0.550726	-0.122906	0.339751
O3	O	0.374370	-0.034717	0.427918
O4	O	0.462548	-0.122895	0.427918
O5	O	0.462539	0.034829	0.339761
O6	O	0.462539	-0.122886	0.497475
O7	O	0.462548	-0.034728	0.339751
O8	O	0.304805	0.034848	0.497475
O9	O	0.620273	-0.122905	0.339760
O10	O	0.410625	-0.025885	0.488657
O11	O	0.410625	0.026018	0.436755
O12	O	0.514443	-0.077800	0.436755
O13	O	0.514443	-0.025898	0.384852
Zr14	Zr	0.462514	0.055542	0.518189
Zr15	Zr	0.462528	-0.055393	0.518173
Zr16	Zr	0.462528	0.055527	0.407253
Zr17	Zr	0.573462	-0.055407	0.407253
Zr18	Zr	0.351594	0.055541	0.518173
O19	O	0.550686	0.034851	0.497509
O20	O	0.550706	-0.122885	0.497487
O21	O	0.550706	0.034830	0.339773
O22	O	0.374330	0.123040	0.585676
O23	O	0.374350	-0.034696	0.585654
O24	O	0.374350	0.123019	0.427940
O25	O	0.462517	-0.034695	0.585666
O26	O	0.462508	0.123029	0.497509
O27	O	0.462517	0.123020	0.427952
O28	O	0.462508	0.034862	0.585675
O29	O	0.620262	-0.122893	0.427939
O30	O	0.304794	0.123027	0.497487
O31	O	0.304783	0.123039	0.585666
O32	O	0.304794	0.034860	0.585654
O33	O	0.620262	-0.034726	0.339773
O34	O	0.620251	-0.034715	0.427952
O35	O	0.410612	0.077934	0.488672
O36	O	0.410612	0.026031	0.540574
O37	O	0.514430	-0.025884	0.488672
O38	O	0.514430	0.026019	0.436769
C39	C	0.323784	0.000065	0.462694
C40	C	0.276695	0.000065	0.462688
C41	C	0.462545	0.000048	0.323950
C42	C	0.462551	0.000042	0.276855
C43	C	0.462510	0.138830	0.462732
C44	C	0.462504	0.185925	0.462739
C45	C	-0.015347	-0.027021	0.489816
C46	C	-0.192343	-0.027021	0.489827
O47	O	-0.215247	-0.050043	0.512887
N48	N	-0.214472	0.000071	0.462734
C49	C	-0.192352	0.027167	0.435639
O50	O	-0.215240	0.050215	0.412599
C51	C	-0.015360	0.027170	0.435631
C52	C	0.006771	0.000072	0.462722
C53	C	0.006784	-0.054116	0.516905
C54	C	0.051032	-0.054118	0.516900
C55	C	0.073150	-0.027025	0.489806
C56	C	0.051020	0.000070	0.462717
C57	C	0.006756	0.054269	0.408540
C58	C	0.051006	0.054268	0.408541
C59	C	0.073137	0.027170	0.435632
C60	C	0.117386	0.027161	0.435617
N61	N	0.139515	0.000069	0.462711
C62	C	0.117397	-0.027024	0.489805
C63	C	-0.285274	0.027163	0.435644
C64	C	-0.329521	0.027162	0.435645
C65	C	-0.329510	-0.027025	0.489834
C66	C	-0.285259	-0.027027	0.489829
C67	C	-0.263145	0.000072	0.462737
C68	C	0.210323	-0.027027	0.489791
C69	C	0.254577	-0.027028	0.489782
C70	C	0.254559	0.027161	0.435595
C71	C	0.210311	0.027161	0.435602
C72	C	0.188193	0.000066	0.462704
O73	O	0.140313	0.050176	0.412574
O74	O	0.140283	-0.050059	0.512850
C75	C	-0.059595	-0.027019	0.489821
C76	C	-0.081726	0.000076	0.462732
C77	C	-0.059608	0.027169	0.435638
C78	C	-0.125973	0.000075	0.462733
C79	C	-0.148091	-0.027018	0.489828
C80	C	-0.125962	-0.054110	0.516921
C81	C	-0.081713	-0.054112	0.516916
C82	C	-0.081737	0.054261	0.408545
C83	C	-0.125985	0.054260	0.408552
C84	C	-0.148103	0.027167	0.435646
C85	C	0.601272	0.000068	0.462732
C86	C	0.648361	0.000069	0.462739
C87	C	0.462545	-0.138696	0.462694
C88	C	0.462551	-0.185791	0.462687
C89	C	0.516725	0.450832	0.435610
C90	C	0.516736	0.627817	0.435599
O91	O	0.562824	0.627656	0.412539
N92	N	0.462544	0.677046	0.462693
C93	C	0.408346	0.682028	0.489788
O94	O	0.362253	0.727961	0.512828
C95	C	0.408336	0.505043	0.489795
C96	C	0.462532	0.455815	0.462704
C97	C	0.570916	0.401606	0.408521
C98	C	0.570913	0.357362	0.408526
C99	C	0.516719	0.362345	0.435621
C100	C	0.462528	0.411572	0.462710
C101	C	0.354139	0.510026	0.516887
C102	C	0.354141	0.465774	0.516885
C103	C	0.408337	0.416546	0.489795
C104	C	0.408331	0.372311	0.489809
N105	N	0.462523	0.323082	0.462716
C106	C	0.516717	0.318099	0.435622
C107	C	0.408355	0.774945	0.489783
C108	C	0.408357	0.819192	0.489782
C109	C	0.516747	0.764977	0.435592
C110	C	0.516744	0.720731	0.435597
C111	C	0.462547	0.725716	0.462689
C112	C	0.516706	0.225187	0.435635
C113	C	0.516698	0.180942	0.435645
C114	C	0.408309	0.235160	0.489832
C115	C	0.408316	0.279401	0.489825
C116	C	0.462520	0.274411	0.462723
O117	O	0.362267	0.372433	0.512853
O118	O	0.562803	0.272162	0.412576
C119	C	0.516729	0.495075	0.435605
C120	C	0.462538	0.544302	0.462694
C121	C	0.408344	0.549285	0.489788
C122	C	0.462540	0.588548	0.462693
C123	C	0.516734	0.583565	0.435599
C124	C	0.570926	0.534336	0.408505
C125	C	0.570922	0.490092	0.408511
C126	C	0.354152	0.598514	0.516881
C127	C	0.354160	0.642755	0.516874
C128	C	0.408354	0.637772	0.489780
C129	C	0.408330	0.027177	0.011941
C130	C	0.408320	0.027187	-0.165044
O131	O	0.362231	0.050253	-0.164888
N132	N	0.462511	0.000087	-0.214266
C133	C	0.516709	-0.027015	-0.219241
O134	O	0.562802	-0.050060	-0.265169
C135	C	0.516719	-0.027022	-0.042257
C136	C	0.462524	0.000076	0.006965
C137	C	0.354140	0.054272	0.061161
C138	C	0.354143	0.054267	0.105404
C139	C	0.408337	0.027166	0.100428
C140	C	0.462527	0.000071	0.051209
C141	C	0.570917	-0.054120	-0.047232
C142	C	0.570914	-0.054118	-0.002981
C143	C	0.516719	-0.027021	0.046241
C144	C	0.516724	-0.027035	0.090476
N145	N	0.462533	0.000065	0.139698
C146	C	0.408339	0.027165	0.144674
C147	C	0.516701	-0.027010	-0.312159
C148	C	0.516698	-0.027009	-0.356405
C149	C	0.408308	0.027193	-0.302204
C150	C	0.408311	0.027189	-0.257957
C151	C	0.462509	0.000090	-0.262936
C152	C	0.408349	0.027152	0.237586
C153	C	0.408357	0.027143	0.281831
C154	C	0.516747	-0.027057	0.227627
C155	C	0.516739	-0.027050	0.183386
C156	C	0.462536	0.000058	0.188369
O157	O	0.562789	-0.050084	0.090359
O158	O	0.362253	0.050217	0.190606
C159	C	0.408327	0.027182	-0.032302
C160	C	0.462518	0.000086	-0.081522
C161	C	0.516712	-0.027015	-0.086498
C162	C	0.462516	0.000087	-0.125768
C163	C	0.408322	0.027188	-0.120791
C164	C	0.354130	0.054288	-0.071569
C165	C	0.354133	0.054283	-0.027326
C166	C	0.570903	-0.054115	-0.135720
C167	C	0.570896	-0.054108	-0.179961
C168	C	0.516702	-0.027007	-0.174985
C169	C	0.462510	0.000085	0.601477
C170	C	0.462504	0.000092	0.648572
C171	C	0.323766	0.000084	0.601457
C172	C	0.276672	0.000090	0.648546
C173	C	0.323766	0.138829	0.462713
C174	C	0.276672	0.185923	0.462713
C175	C	0.323749	0.138847	0.601477
C176	C	0.276648	0.185948	0.648572
C177	C	0.601307	-0.138713	0.323950
C178	C	0.648408	-0.185814	0.276855
C179	C	0.601290	0.000050	0.323969
C180	C	0.648384	0.000044	0.276880
C181	C	0.601290	-0.138695	0.462713
C182	C	0.648384	-0.185789	0.462713
C183	C	0.254562	-0.027012	0.643559
C184	C	0.210318	-0.027017	0.687800
C185	C	0.188181	0.000083	0.737026
C186	C	0.210295	0.027186	0.742012
C187	C	0.254541	0.027187	0.697772
C188	C	0.254549	0.235144	0.489814
C189	C	0.210305	0.279398	0.489812
C190	C	0.188181	0.274431	0.462712
C191	C	0.210309	0.225205	0.435609
C192	C	0.254555	0.180952	0.435608
C193	C	0.254529	0.180974	0.697785
C194	C	0.210280	0.225226	0.742040
C195	C	0.188147	0.274451	0.737081
C196	C	0.210270	0.279424	0.687862
C197	C	0.254522	0.235172	0.643608
C198	C	0.670532	-0.180840	0.227641
C199	C	0.714795	-0.225092	0.183386
C200	C	0.736931	-0.274317	0.188346
C201	C	0.714804	-0.279290	0.237564
C202	C	0.670545	-0.235039	0.281818
C203	C	0.670498	0.027141	0.281867
C204	C	0.714754	0.027134	0.237627
C205	C	0.736893	0.000032	0.188400
C206	C	0.714777	-0.027068	0.183414
C207	C	0.670525	-0.027064	0.227654
C208	C	0.670493	-0.180806	0.489817
C209	C	0.714738	-0.225052	0.489828
C210	C	0.736875	-0.274281	0.462730
C211	C	0.714761	-0.279264	0.435624
C212	C	0.670515	-0.235018	0.435618
H213	H	0.272596	-0.049096	0.511842
Br214	Br	0.744742	-0.218277	0.526614
Br215	Br	0.180284	0.346198	0.526598
Br216	Br	0.640499	-0.114040	0.220896
Br217	Br	0.640521	-0.241798	0.348607
H218	H	0.772904	-0.310304	0.462739
H219	H	0.560874	0.760927	0.413531
Br220	Br	0.180263	0.218465	0.808830
H221	H	0.732792	-0.319352	0.413562
Br222	Br	0.590262	-0.063792	-0.318926
Br223	Br	0.284532	0.241932	0.576820
Br224	Br	0.284571	0.114154	0.398828
Br225	Br	0.590297	0.653924	0.398830
H226	H	0.615048	-0.076185	-0.087304
Br227	Br	0.334794	0.781722	0.526555
H228	H	-0.063735	0.076325	0.386483
Br229	Br	0.180243	0.063964	0.808824
Br230	Br	0.640464	0.063925	0.348669
H231	H	0.732833	-0.319374	0.241596
H232	H	0.560829	-0.049081	-0.396480
Br233	Br	0.640516	-0.063840	0.220877
Br234	Br	0.128090	0.334502	0.797146
H235	H	0.772969	-0.310346	0.152307
Br236	Br	0.796951	0.000032	0.128365
Br237	Br	0.640460	-0.114000	0.526597
Br238	Br	-0.255271	0.063945	0.398873
H239	H	0.192289	0.221168	0.413545
H240	H	0.272578	0.049218	0.413534
Br241	Br	0.640519	-0.241791	0.398824
Br242	Br	0.284561	0.241899	0.526598
H243	H	0.615050	-0.076180	-0.007041
Br244	Br	0.744813	-0.218332	0.116596
H245	H	0.192243	0.319509	0.683832
Br246	Br	0.744758	0.063918	0.244405
Br247	Br	0.180310	-0.063797	0.526575
H248	H	0.069047	-0.076182	0.538961
H249	H	0.732809	-0.049134	0.143328
H250	H	-0.063698	-0.076177	0.538975
Br251	Br	0.128132	0.334495	0.462719
H252	H	-0.011222	-0.076178	0.538971
H253	H	0.364223	0.049211	0.321910
Br254	Br	0.590292	-0.063827	0.220883
H255	H	-0.267243	-0.049092	0.511889
Br256	Br	0.334759	0.063965	-0.191160
H257	H	0.560869	-0.049122	0.143306
Br258	Br	0.284538	0.063975	0.704549
Br259	Br	-0.359535	-0.063794	0.526604
Br260	Br	0.284560	0.114174	0.704531
H261	H	0.310002	0.076349	0.012750
H262	H	-0.347530	0.049221	0.413578
Br263	Br	0.334764	0.241912	0.526600
H264	H	-0.011256	0.076335	0.386480
H265	H	0.615052	0.530285	0.386446
Br266	Br	0.081013	0.091048	0.371772
H267	H	0.192298	0.049219	0.413536
H268	H	-0.143997	0.076325	0.386487
Br269	Br	0.590254	0.114132	0.398878
Br270	Br	0.590269	0.218408	0.398856
Br271	Br	0.644468	0.290557	0.371754
Br272	Br	0.644475	0.394829	0.371739
Br273	Br	-0.155985	-0.090881	0.553688
Br274	Br	0.280583	0.472545	0.553654
Br275	Br	0.280584	0.576827	0.553640
Br276	Br	0.334766	0.346213	0.526615
Br277	Br	0.280602	0.709563	0.553643
Br278	Br	0.334804	0.885998	0.526556
H279	H	0.310020	0.602579	0.538945
Br280	Br	0.280588	0.091048	0.172201
Br281	Br	0.280580	0.091060	0.067928
Br282	Br	0.334760	0.063972	-0.295459
Br283	Br	0.334787	0.063942	0.244357
H284	H	0.615054	0.450012	0.386450
H285	H	0.310004	0.076351	-0.067524
Br286	Br	0.644454	-0.090889	-0.246760
H287	H	0.615035	-0.076185	-0.139780
Br288	Br	0.284597	-0.063797	0.576757
H289	H	0.192319	-0.049087	0.683730
H290	H	0.152152	0.000078	0.773045
