data_functionalizedCrystal
_audit_creation_method	'MofGen! by Chris Wilmer'
_symmetry_space_group_name_H-M	'P1'
_symmetry_Int_Tables_number	1
_symmetry_cell_setting	triclinic
loop_
_symmetry_equiv_pos_as_xyz
  x,y,z
_cell_length_a	11.792241
_cell_length_b	10.654550
_cell_length_c	9.130313
_cell_angle_alpha	89.997153
_cell_angle_beta	90.000475
_cell_angle_gamma	84.339173
loop_
_atom_site_label
_atom_site_type_symbol
_atom_site_fract_x
_atom_site_fract_y
_atom_site_fract_z
O1	O	-1.507305	-0.172132	0.121657
O2	O	-1.177005	-0.189873	0.121691
O3	O	-1.349750	0.001758	0.121664
O4	O	-1.334561	-0.363763	0.121684
O5	O	-1.349737	0.001758	-0.121935
O6	O	-1.176992	-0.189873	-0.121908
O7	O	-1.507292	-0.172132	-0.121942
Cu8	Cu	-1.342141	-0.181003	-0.144168
Cu9	Cu	-1.342157	-0.181002	0.143916
O10	O	-1.334548	-0.363763	-0.121915
C11	C	-1.134705	-0.188758	-0.000104
C12	C	-1.008684	-0.185423	-0.000092
C13	C	-1.549592	-0.173247	-0.000144
C14	C	-1.675614	-0.176582	-0.000147
C15	C	-1.348628	0.048553	-0.000135
C16	C	-1.345291	0.187987	-0.000132
C17	C	-0.777958	-0.179290	-0.000134
C18	C	-0.906351	-0.182697	-0.000111
C19	C	-1.335670	-0.410558	-0.000113
C20	C	-1.339006	-0.549992	-0.000106
N21	N	-1.342138	-0.181002	-0.346790
C22	C	-1.447000	0.267760	-0.000142
C23	C	-1.443859	0.398772	-0.000124
C24	C	-1.237290	0.370225	-0.000092
C25	C	-1.240433	0.239215	-0.000100
C26	C	-1.411574	-0.257688	-0.423440
C27	C	-1.411593	-0.257680	-0.576777
C28	C	-1.272729	-0.104299	-0.576801
C29	C	-1.272718	-0.104300	-0.423467
N30	N	-1.342168	-0.180993	0.346539
H31	H	-1.532383	0.226055	-0.000166
H32	H	-1.526681	0.463719	-0.000129
H33	H	-1.216208	-0.041853	-0.639249
O34	O	-1.135532	0.420199	-0.000139
C35	C	-1.039140	0.609373	-0.000038
C36	C	-1.154459	0.552949	-0.000012
H37	H	-1.054402	0.716709	0.000096
H38	H	-0.988802	0.576672	-0.102002
H39	H	-0.988834	0.576495	0.101889
H40	H	-1.204858	0.585801	-0.101870
H41	H	-1.204711	0.585645	0.102020
O42	O	-1.479071	-0.332293	-0.651007
C43	C	-1.616850	-0.484375	-0.634791
C44	C	-1.540461	-0.399957	-0.550545
H45	H	-1.666521	-0.539083	-0.553604
H46	H	-1.561627	-0.553400	-0.706544
H47	H	-1.679015	-0.423058	-0.706610
H48	H	-1.478284	-0.461174	-0.478647
H49	H	-1.595755	-0.330925	-0.478884
O50	O	-1.141520	0.161894	-0.000156
C51	C	-0.936299	0.147393	-0.000031
C52	C	-1.048224	0.235102	-0.000010
H53	H	-0.860841	0.206546	0.000118
H54	H	-0.932521	0.085372	-0.102002
H55	H	-0.932684	0.085313	0.101890
H56	H	-1.051914	0.297260	-0.101862
H57	H	-1.051956	0.297037	0.102027
H58	H	-1.216174	-0.041847	-0.361057
H59	H	-1.468101	-0.320143	-0.361014
