data_functionalizedCrystal
_audit_creation_method	'MofGen! by Chris Wilmer'
_symmetry_space_group_name_H-M	'P1'
_symmetry_Int_Tables_number	1
_symmetry_cell_setting	triclinic
loop_
_symmetry_equiv_pos_as_xyz
  x,y,z
_cell_length_a	16.625548
_cell_length_b	16.625539
_cell_length_c	16.625546
_cell_angle_alpha	90.028532
_cell_angle_beta	89.976464
_cell_angle_gamma	89.982945
loop_
_atom_site_label
_atom_site_type_symbol
_atom_site_fract_x
_atom_site_fract_y
_atom_site_fract_z
Zn1	Zn	1.232652	-0.455898	0.320992
Zn2	Zn	1.732652	0.044102	0.820992
Zn3	Zn	1.232564	-0.321060	0.455831
Zn4	Zn	1.732564	0.178940	0.955831
Zn5	Zn	1.097823	-0.321078	0.321018
Zn6	Zn	1.597823	0.178922	0.821018
Zn7	Zn	1.097785	-0.455850	0.455789
Zn8	Zn	1.597785	0.044150	0.955789
O9	O	1.165206	-0.388471	0.388408
O10	O	1.665206	0.111529	0.888408
O11	O	1.345473	-0.438024	0.338885
O12	O	1.845473	0.061976	0.838885
O13	O	1.214669	-0.208230	0.437976
O14	O	1.714669	0.291770	0.937976
O15	O	1.115761	-0.338990	0.208182
O16	O	1.615761	0.161010	0.708182
O17	O	1.345408	-0.338959	0.437951
O18	O	1.845408	0.161041	0.937951
O19	O	1.214820	-0.438041	0.208163
O20	O	1.714820	0.061959	0.708163
O21	O	1.115675	-0.208243	0.338930
O22	O	1.615675	0.291757	0.838930
O23	O	0.984985	-0.338944	0.338889
O24	O	1.484985	0.161056	0.838889
O25	O	1.115696	-0.568689	0.437879
O26	O	1.615696	-0.068689	0.937879
O27	O	0.984957	-0.437960	0.437905
O28	O	1.484957	0.062040	0.937905
O29	O	1.214783	-0.568724	0.338845
O30	O	1.714783	-0.068724	0.838845
O31	O	1.214632	-0.338912	0.568658
O32	O	1.714632	0.161088	1.068658
O33	O	1.115611	-0.437942	0.568627
O34	O	1.615611	0.062058	1.068627
C35	C	0.955715	-0.388449	0.388396
C36	C	1.455715	0.111551	0.888396
C37	C	0.866094	-0.388458	0.388410
C38	C	1.366094	0.111542	0.888410
C39	C	0.537918	-0.388493	0.388416
C40	C	1.037918	0.111507	0.888416
C41	C	0.629227	-0.388481	0.388412
C42	C	1.129227	0.111519	0.888412
C43	C	0.702003	-0.388475	0.388414
C44	C	1.202003	0.111525	0.888414
C45	C	0.793318	-0.388464	0.388409
C46	C	1.293318	0.111536	0.888409
C47	C	1.165245	-0.598780	0.388354
C48	C	1.665245	-0.098780	0.888354
C49	C	1.165262	-0.688402	0.388332
C50	C	1.665262	-0.188402	0.888332
C51	C	1.165275	-0.761184	0.388314
C52	C	1.665275	-0.261184	0.888314
C53	C	1.165294	-0.852493	0.388284
C54	C	1.665294	-0.352493	0.888284
C55	C	1.165313	-0.925269	0.388255
C56	C	1.665313	-0.425269	0.888255
C57	C	1.165333	-1.016583	0.388226
C58	C	1.665333	-0.516583	0.888226
C59	C	1.375515	-0.388494	0.388420
C60	C	1.875515	0.111506	0.888420
C61	C	1.465136	-0.388504	0.388425
C62	C	1.965136	0.111496	0.888425
C63	C	1.165130	-0.388438	0.597898
C64	C	1.665130	0.111562	1.097898
C65	C	1.165171	-0.388450	0.687519
C66	C	1.665171	0.111550	1.187519
C67	C	1.165213	-0.178981	0.388402
C68	C	1.665213	0.321019	0.888402
C69	C	1.165352	-0.089360	0.388198
C70	C	1.665352	0.410640	0.888198
C71	C	1.165305	-0.388523	0.178099
C72	C	1.665305	0.111477	0.678099
C73	C	1.165347	-0.388545	0.088477
C74	C	1.665347	0.111455	0.588477
C75	C	1.165311	-0.388534	1.015695
C76	C	1.665311	0.111466	1.515695
C77	C	1.165270	-0.388513	0.924387
C78	C	1.665270	0.111487	1.424387
C79	C	1.165240	-0.388492	0.851610
C80	C	1.665240	0.111508	1.351610
C81	C	1.165200	-0.388471	0.760296
C82	C	1.665200	0.111529	1.260296
