data_functionalizedCrystal
_audit_creation_method	'MofGen! by Chris Wilmer'
_symmetry_space_group_name_H-M	'P1'
_symmetry_Int_Tables_number	1
_symmetry_cell_setting	triclinic
loop_
_symmetry_equiv_pos_as_xyz
  x,y,z
_cell_length_a	10.540539
_cell_length_b	10.540510
_cell_length_c	7.088929
_cell_angle_alpha	83.716686
_cell_angle_beta	96.268640
_cell_angle_gamma	84.519401
loop_
_atom_site_label
_atom_site_type_symbol
_atom_site_fract_x
_atom_site_fract_y
_atom_site_fract_z
O1	O	1.672962	0.191826	-0.158887
O2	O	1.303545	0.208684	-0.158909
O3	O	1.496701	0.015546	-0.158897
O4	O	1.479805	0.384964	-0.158899
O5	O	1.522514	-0.010324	0.159080
O6	O	1.329358	0.182814	0.159068
O7	O	1.698774	0.165956	0.159090
Cu8	Cu	1.516423	0.172023	0.188113
Cu9	Cu	1.485896	0.202617	-0.187932
O10	O	1.505618	0.359094	0.159078
C11	C	1.269148	0.194485	0.000076
C12	C	1.128200	0.190704	0.000067
C13	C	0.944849	0.045725	0.000810
C14	C	1.091407	0.049618	0.000074
C15	C	1.051780	0.273373	-0.181506
C16	C	0.905225	0.268569	-0.181639
C17	C	0.934091	0.242020	0.179960
C18	C	1.081266	0.243126	0.182340
C19	C	1.508348	-0.044692	0.000088
C20	C	1.504580	-0.185641	0.000076
C21	C	1.638824	-0.403156	0.000812
C22	C	1.642783	-0.256502	0.000086
C23	C	1.419094	-0.215626	-0.181505
C24	C	1.416043	-0.362376	-0.181647
C25	C	1.442519	-0.391603	0.179952
C26	C	1.449268	-0.245457	0.182342
C27	C	1.733171	0.180156	0.000100
C28	C	1.874118	0.183938	0.000097
C29	C	1.493971	0.419333	0.000089
C30	C	1.497738	0.560283	0.000088
N31	N	1.537903	0.150504	0.452602
N32	N	1.464426	0.224126	-0.452421
H33	H	0.926840	-0.020606	0.131027
F34	F	0.891629	-0.013058	-0.168432
H35	H	1.614068	0.074215	0.534263
F36	F	1.148939	0.163906	0.357916
H37	H	0.886952	0.343825	0.181186
H38	H	1.144593	-0.014394	0.130234
F39	F	0.853954	0.217410	-0.359043
F40	F	1.132093	-0.006530	-0.170617
F41	F	0.841634	0.402066	-0.192413
H42	H	1.338854	-0.413852	0.181169
H43	H	1.073573	0.377532	-0.188263
H44	H	1.388276	0.300420	0.465928
F45	F	1.723022	-0.471840	0.171023
H46	H	1.083404	0.237202	-0.316637
H47	H	0.913722	0.185164	0.317592
H48	H	1.312007	-0.384701	-0.189880
F49	F	1.114072	0.376410	0.196668
F50	F	1.728922	-0.231983	0.170241
F51	F	1.514145	-0.461789	0.359845
F52	F	1.695060	-0.446250	-0.168424
H53	H	1.687875	-0.217489	-0.130296
H54	H	1.511651	-0.227774	0.316674
H55	H	1.453373	-0.391549	-0.317376
H56	H	1.316803	-0.167688	-0.188263
H57	H	1.457255	-0.173776	-0.316631
F58	F	1.318547	-0.182492	0.196669
