data_functionalizedCrystal
_audit_creation_method	'MofGen! by Chris Wilmer'
_symmetry_space_group_name_H-M	'P1'
_symmetry_Int_Tables_number	1
_symmetry_cell_setting	triclinic
loop_
_symmetry_equiv_pos_as_xyz
  x,y,z
_cell_length_a	10.654550
_cell_length_b	14.519709
_cell_length_c	9.730223
_cell_angle_alpha	90.006224
_cell_angle_beta	90.004202
_cell_angle_gamma	84.082524
loop_
_atom_site_label
_atom_site_type_symbol
_atom_site_fract_x
_atom_site_fract_y
_atom_site_fract_z
O1	O	1.666589	0.129533	0.114406
O2	O	1.300991	0.141874	0.114384
O3	O	1.493483	0.001516	0.114384
O4	O	1.474097	0.269892	0.114407
O5	O	1.493481	0.001509	-0.114196
O6	O	1.300989	0.141867	-0.114195
O7	O	1.666586	0.129526	-0.114174
Zn8	Zn	1.483787	0.135696	-0.150477
Zn9	Zn	1.483790	0.135705	0.150687
O10	O	1.474094	0.269885	-0.114173
C11	C	1.254201	0.140965	0.000092
C12	C	1.114784	0.138254	0.000083
C13	C	1.034504	0.220895	0.000110
C14	C	0.903507	0.218342	0.000134
C15	C	0.933085	0.050500	0.000108
C16	C	1.064078	0.053054	0.000075
C17	C	1.085209	0.306095	0.000118
C18	C	1.004928	0.388743	0.000147
C19	C	0.873931	0.386190	0.000170
C20	C	0.823217	0.300989	0.000165
C21	C	1.492579	-0.032852	0.000093
C22	C	1.489871	-0.135247	0.000092
C23	C	1.479904	-0.510195	0.000127
C24	C	1.482672	-0.405873	0.000117
C25	C	1.484887	-0.322725	0.000109
C26	C	1.487656	-0.218396	0.000101
C27	C	1.713377	0.130436	0.000122
C28	C	1.852794	0.133147	0.000140
C29	C	1.474999	0.304253	0.000120
C30	C	1.477707	0.406648	0.000130
N31	N	1.483793	0.135705	0.356224
N32	N	1.483794	0.135689	-0.356013
C33	C	1.569187	0.073676	0.428149
C34	C	1.569191	0.073670	0.572032
C35	C	1.398397	0.197724	0.572051
C36	C	1.398400	0.197734	0.428171
C37	C	1.654580	0.011647	0.356202
C38	C	1.739979	-0.050388	0.428128
C39	C	1.739983	-0.050394	0.572011
C40	C	1.654588	0.011635	0.643968
H41	H	1.046228	0.458110	0.000140
H42	H	1.191871	0.308183	0.000105
H43	H	1.129445	-0.014240	0.000056
O44	O	1.315272	0.257888	0.358350
C45	C	1.096944	0.310178	0.314359
C46	C	1.190946	0.241985	0.393495
H47	H	0.996407	0.297358	0.342766
H48	H	1.111513	0.299526	0.199151
H49	H	1.113335	0.384188	0.342648
H50	H	1.174613	0.167949	0.365321
H51	H	1.176355	0.252718	0.508683
O52	O	0.883615	-0.032179	0.000176
C53	C	0.694917	-0.110495	0.000147
C54	C	0.750770	-0.016797	0.000095
H55	H	0.587505	-0.098092	0.000053
H56	H	0.727901	-0.151388	0.095820
H57	H	0.728010	-0.151380	-0.095501
H58	H	0.717703	0.024162	0.095679
H59	H	0.717792	0.024025	-0.095641
H60	H	1.809527	-0.100898	0.630572
H61	H	0.716549	0.298917	0.000163
O62	O	1.822810	-0.110603	0.358023
C63	C	1.898554	-0.165536	0.136360
C64	C	1.804658	-0.097308	0.215577
H65	H	1.883929	-0.154798	0.021179
H66	H	1.882221	-0.239574	0.164528
H67	H	1.999096	-0.152702	0.164742
H68	H	1.704079	-0.110057	0.187238
H69	H	1.821100	-0.023293	0.187403
H70	H	1.654582	0.011644	0.239046
O71	O	1.315567	0.258098	0.641885
C72	C	1.241881	0.417882	0.685896
C73	C	1.335780	0.349614	0.606752
H74	H	1.258173	0.491888	0.657498
H75	H	1.256544	0.407299	0.801102
H76	H	1.141339	0.404990	0.657606
H77	H	1.436360	0.362465	0.634926
H78	H	1.321007	0.360213	0.491564
H79	H	1.654607	0.011631	0.761127
H80	H	0.808569	0.453485	0.000180
