data_functionalizedCrystal
_audit_creation_method	'MofGen! by Chris Wilmer'
_symmetry_space_group_name_H-M	'P1'
_symmetry_Int_Tables_number	1
_symmetry_cell_setting	triclinic
loop_
_symmetry_equiv_pos_as_xyz
  x,y,z
_cell_length_a	14.044191
_cell_length_b	14.044190
_cell_length_c	9.130307
_cell_angle_alpha	89.991681
_cell_angle_beta	90.000850
_cell_angle_gamma	93.191777
loop_
_atom_site_label
_atom_site_type_symbol
_atom_site_fract_x
_atom_site_fract_y
_atom_site_fract_z
O1	O	1.277174	0.230199	-0.121759
O2	O	1.777174	0.730199	0.378241
O3	O	1.000502	0.221886	-0.121776
O4	O	1.500502	0.721886	0.378224
O5	O	1.134682	0.087706	-0.121739
O6	O	1.634682	0.587706	0.378261
O7	O	1.142994	0.364379	-0.121796
O8	O	1.642994	0.864379	0.378204
O9	O	1.134677	0.087704	0.121860
O10	O	1.634677	0.587704	0.621860
O11	O	1.000497	0.221884	0.121823
O12	O	1.500497	0.721884	0.621823
O13	O	1.277169	0.230197	0.121840
O14	O	1.777169	0.730197	0.621840
Cu15	Cu	1.138833	0.226040	0.144074
Cu16	Cu	1.638833	0.726040	0.644074
Cu17	Cu	1.138838	0.226043	-0.144010
Cu18	Cu	1.638838	0.726043	0.355990
O19	O	1.142989	0.364377	0.121803
O20	O	1.642989	0.864377	0.621803
C21	C	0.964877	0.218249	0.000021
C22	C	1.464877	0.718249	0.500021
C23	C	0.858734	0.207401	0.000016
C24	C	1.358734	0.707401	0.500016
C25	C	0.613277	0.264502	0.000019
C26	C	1.113277	0.764502	0.500019
C27	C	0.664400	0.187585	0.000032
C28	C	1.164400	0.687585	0.500032
C29	C	0.772537	0.198614	0.000023
C30	C	1.272537	0.698614	0.500023
C31	C	0.505130	0.253475	0.000028
C32	C	1.005130	0.753475	0.500028
C33	C	1.131043	0.052083	0.000064
C34	C	1.631043	0.552083	0.500064
C35	C	1.120195	-0.054060	0.000076
C36	C	1.620195	0.445940	0.500076
C37	C	1.177296	-0.299517	0.000023
C38	C	1.677296	0.200483	0.500023
C39	C	1.100379	-0.248394	0.000028
C40	C	1.600379	0.251606	0.500028
C41	C	1.111408	-0.140257	0.000055
C42	C	1.611408	0.359743	0.500055
C43	C	1.166269	-0.407664	-0.000004
C44	C	1.666269	0.092336	0.499996
C45	C	1.312794	0.233834	0.000039
C46	C	1.812794	0.733834	0.500039
C47	C	1.418937	0.244682	0.000035
C48	C	1.918937	0.744682	0.500035
C49	C	1.146628	0.400000	-0.000004
C50	C	1.646628	0.900000	0.499996
C51	C	1.157476	0.506143	-0.000026
C52	C	1.657476	1.006143	0.499974
N53	N	1.138835	0.226039	0.346697
N54	N	1.638835	0.726039	0.846697
N55	N	1.138842	0.226037	-0.346633
N56	N	1.638842	0.726037	0.153367
C57	C	1.257708	0.107264	0.346720
C58	C	1.757708	0.607264	0.846720
C59	C	1.317150	0.047880	0.423398
C60	C	1.817150	0.547880	0.923398
C61	C	1.317160	0.047880	0.576731
C62	C	1.817160	0.547880	1.076731
C63	C	1.257718	0.107269	0.653390
C64	C	1.757718	0.607269	1.153390
C65	C	1.198276	0.166653	0.576712
C66	C	1.698276	0.666653	1.076712
C67	C	1.198275	0.166649	0.423375
C68	C	1.698275	0.666649	0.923375
C69	C	1.079400	0.285421	0.576689
C70	C	1.579400	0.785421	1.076689
C71	C	1.079394	0.285427	0.423355
C72	C	1.579394	0.785427	0.923355
C73	C	1.019958	0.344810	0.653347
C74	C	1.519958	0.844810	1.153347
C75	C	0.960519	0.404200	0.576669
C76	C	1.460519	0.904200	1.076669
C77	C	0.960513	0.404198	0.423326
C78	C	1.460513	0.904198	0.923326
C79	C	1.019951	0.344812	0.346677
C80	C	1.519951	0.844812	0.846677
H81	H	0.626955	0.113453	-0.000056
H82	H	1.126955	0.613453	0.499944
H83	H	0.650720	0.338629	-0.000001
H84	H	1.150720	0.838629	0.499999
H85	H	1.026247	-0.285839	0.000015
H86	H	1.526247	0.214161	0.500015
H87	H	1.251423	-0.262074	0.000042
H88	H	1.751423	0.237926	0.500042
H89	H	0.912104	0.452552	0.360903
H90	H	1.412104	0.952552	0.860903
H91	H	1.257714	0.107267	0.221867
H92	H	1.757714	0.607267	0.721867
H93	H	0.912121	0.452546	0.639094
H94	H	1.412121	0.952546	1.139094
H95	H	1.365545	-0.000475	0.360969
H96	H	1.865545	0.499525	0.860969
H97	H	1.365559	-0.000479	0.639163
H98	H	1.865559	0.499521	1.139163
H99	H	1.257721	0.107257	0.778242
H100	H	1.757721	0.607257	1.278242
H101	H	1.019964	0.344803	0.778200
H102	H	1.519964	0.844803	1.278200
H103	H	1.019955	0.344808	0.221825
H104	H	1.519955	0.844808	0.721825
