data_functionalizedCrystal
_audit_creation_method	'MofGen! by Chris Wilmer'
_symmetry_space_group_name_H-M	'P1'
_symmetry_Int_Tables_number	1
_symmetry_cell_setting	triclinic
loop_
_symmetry_equiv_pos_as_xyz
  x,y,z
_cell_length_a	14.908571
_cell_length_b	12.594516
_cell_length_c	14.908308
_cell_angle_alpha	93.271498
_cell_angle_beta	90.175053
_cell_angle_gamma	86.712497
loop_
_atom_site_label
_atom_site_type_symbol
_atom_site_fract_x
_atom_site_fract_y
_atom_site_fract_z
Zn1	Zn	1.345329	-0.555460	-0.587618
Zn2	Zn	1.353920	-0.723816	-0.437269
Zn3	Zn	1.203643	-0.535016	-0.428614
Zn4	Zn	1.194948	-0.722551	-0.578920
O5	O	1.274460	-0.634211	-0.508105
O6	O	1.472295	-0.586878	-0.574935
O7	O	1.341220	-0.690745	-0.310295
O8	O	1.222482	-0.388787	-0.449724
O9	O	1.478607	-0.710568	-0.464475
O10	O	1.326578	-0.403807	-0.566543
O11	O	1.230812	-0.552034	-0.303937
O12	O	1.076663	-0.550808	-0.441291
O13	O	1.207662	-0.708413	-0.705899
O14	O	1.070275	-0.688589	-0.551720
O15	O	1.318147	-0.585652	-0.712289
O16	O	1.332788	-0.872590	-0.456041
O17	O	1.215992	-0.871661	-0.560112
C18	C	1.040844	-0.617344	-0.494623
C19	C	0.940900	-0.610155	-0.488877
C20	C	0.746501	-0.740319	-0.592914
C21	C	0.652595	-0.733568	-0.587518
C22	C	0.659180	-0.589898	-0.472693
C23	C	0.753086	-0.596649	-0.478089
C24	C	0.796743	-0.671863	-0.538201
C25	C	0.890651	-0.678619	-0.543592
C26	C	0.897235	-0.534943	-0.428772
C27	C	0.803329	-0.528192	-0.423376
C28	C	1.274402	-0.910747	-0.508093
C29	C	1.274457	-1.029058	-0.508123
C30	C	1.210928	-1.097842	-0.564684
C31	C	1.193759	-1.161862	-0.481377
C32	C	1.291708	-1.175844	-0.591449
C33	C	1.257247	-1.091515	-0.424769
C34	C	1.355231	-1.105496	-0.534899
C35	C	1.338096	-1.169483	-0.451537
C36	C	1.508989	-0.651145	-0.521641
C37	C	1.608931	-0.658361	-0.527409
C38	C	1.260976	-0.649172	-0.742631
C39	C	1.255230	-0.655547	-0.842572
C40	C	1.274542	-0.356598	-0.508138
C41	C	1.274577	-0.238296	-0.508153
C42	C	1.359477	-0.539672	-1.037028
C43	C	1.354081	-0.545658	-1.130932
C44	C	1.239037	-0.673502	-1.124285
C45	C	1.244433	-0.667515	-1.030381
C46	C	1.304656	-0.600599	-0.986756
C47	C	1.310057	-0.594618	-0.892851
C48	C	1.195009	-0.722455	-0.886206
C49	C	1.189612	-0.728442	-0.980110
C50	C	1.287944	-0.619235	-0.274494
C51	C	1.293864	-0.612572	-0.174564
H52	H	0.767770	-0.466952	-0.374438
Cl53	Cl	1.314161	-1.232686	-0.700225
H54	H	1.125505	-1.186887	-0.458752
H55	H	1.190006	-0.727981	-1.159821
H56	H	1.140579	-0.782921	-1.015642
H57	H	1.359094	-0.540133	-0.857333
Cl58	Cl	0.589435	-0.819629	-0.656305
Cl59	Cl	1.435193	-0.455564	-0.982182
H60	H	1.391875	-1.200727	-0.403659
H61	H	0.938152	-0.479203	-0.384219
Cl62	Cl	1.423001	-0.469059	-1.194128
H63	H	1.150372	-0.772070	-0.845265
Cl64	Cl	1.460582	-1.066861	-0.569889
H65	H	0.926195	-0.739864	-0.592536
H66	H	0.623618	-0.528655	-0.423759
Cl67	Cl	0.801387	-0.834882	-0.668470
H68	H	1.157117	-1.066391	-0.612437
Cl69	Cl	1.234673	-1.034871	-0.315952
