data_functionalizedCrystal
_audit_creation_method	'MofGen! by Chris Wilmer'
_symmetry_space_group_name_H-M	'P1'
_symmetry_Int_Tables_number	1
_symmetry_cell_setting	triclinic
loop_
_symmetry_equiv_pos_as_xyz
  x,y,z
_cell_length_a	19.288864
_cell_length_b	9.730223
_cell_length_c	10.654550
_cell_angle_alpha	89.995747
_cell_angle_beta	83.810588
_cell_angle_gamma	89.982865
loop_
_atom_site_label
_atom_site_type_symbol
_atom_site_fract_x
_atom_site_fract_y
_atom_site_fract_z
O1	O	0.922373	-0.114731	0.156654
O2	O	0.720251	-0.114637	0.177787
O3	O	0.825959	-0.114677	-0.015618
O4	O	0.816665	-0.114690	0.350059
O5	O	0.825952	0.113903	-0.015623
O6	O	0.720244	0.113943	0.177782
O7	O	0.922366	0.113849	0.156649
Zn8	Zn	0.821304	0.150188	0.167215
Zn9	Zn	0.821313	-0.150976	0.167222
O10	O	0.816658	0.113890	0.350054
C11	C	0.694366	-0.000335	0.177105
C12	C	0.617249	-0.000299	0.175063
N13	N	0.821303	0.355725	0.167209
N14	N	0.821319	-0.356512	0.167217
C15	C	0.573296	-0.000324	0.288545
C16	C	0.500836	-0.000339	0.286627
C17	C	0.472333	-0.000357	0.171222
C18	C	0.516296	-0.000323	0.057725
C19	C	0.588754	-0.000294	0.059646
C20	C	0.363480	-0.080481	0.080502
C21	C	0.291023	-0.080519	0.078586
C22	C	0.248849	-0.000439	0.165292
C23	C	0.279140	0.079659	0.253936
C24	C	0.351598	0.079688	0.255857
C25	C	0.393766	-0.000387	0.169126
C26	C	0.126326	-0.000480	0.276702
C27	C	0.053865	-0.000486	0.274779
C28	C	0.069327	-0.000484	0.045875
C29	C	0.141786	-0.000463	0.047800
C30	C	0.170281	-0.000468	0.163217
C31	C	0.948250	-0.000456	0.157332
C32	C	1.025367	-0.000501	0.159373
C33	C	0.825273	-0.000388	-0.062404
C34	C	0.823231	-0.000389	-0.201803
C35	C	0.868126	0.427633	0.081605
C36	C	0.868133	0.571515	0.081606
C37	C	0.774491	0.571570	0.252825
C38	C	0.774481	0.427689	0.252818
C39	C	0.885471	-0.000418	-0.282621
C40	C	0.883548	-0.000434	-0.413601
C41	C	0.757141	-0.000385	-0.382932
C42	C	0.759065	-0.000379	-0.251955
C43	C	0.817344	-0.000403	0.396840
C44	C	0.819385	-0.000411	0.536240
H45	H	0.465043	-0.000356	0.379040
O46	O	0.006458	-0.000504	0.397189
H47	H	-0.048715	-0.000503	0.376467
O48	O	0.485560	-0.000334	-0.066752
H49	H	0.452948	-0.093519	-0.073113
H50	H	0.376257	0.144912	0.328030
O51	O	0.918616	0.350006	-0.010738
H52	H	0.951171	0.424187	-0.070273
H53	H	0.736370	0.630178	0.322528
O54	O	0.636168	-0.000273	-0.062755
H55	H	0.604179	-0.000291	-0.143330
H56	H	0.704899	-0.000375	-0.423782
O57	O	0.691932	-0.000332	-0.164771
H58	H	0.646990	-0.000301	-0.221646
O59	O	0.918644	0.649079	-0.010708
H60	H	0.951204	0.574860	-0.070224
O61	O	0.038597	-0.000502	-0.078605
H62	H	-0.019173	-0.000534	-0.060878
O63	O	0.950678	-0.000463	-0.500770
H64	H	0.952816	0.092691	-0.561196
O65	O	0.258353	-0.166887	-0.017029
H66	H	0.299852	-0.222538	-0.077021
O67	O	0.954677	-0.000459	-0.228530
H68	H	0.984618	0.092681	-0.261041
O69	O	0.604032	-0.000290	0.413024
H70	H	0.561290	-0.000289	0.491613
O71	O	0.723976	0.350108	0.345145
H72	H	0.733294	0.377676	0.443010
O73	O	0.233665	0.166049	0.347460
H74	H	0.178193	0.152592	0.331225
H75	H	0.177574	-0.000450	-0.044609
O76	O	0.157069	-0.000457	0.401178
H77	H	0.114329	-0.000450	0.479770
H78	H	0.397812	-0.145699	0.009892
