data_functionalizedCrystal
_audit_creation_method	'MofGen! by Chris Wilmer'
_symmetry_space_group_name_H-M	'P1'
_symmetry_Int_Tables_number	1
_symmetry_cell_setting	triclinic
loop_
_symmetry_equiv_pos_as_xyz
  x,y,z
_cell_length_a	16.956984
_cell_length_b	10.654545
_cell_length_c	15.455313
_cell_angle_alpha	92.693355
_cell_angle_beta	87.518126
_cell_angle_gamma	80.269423
loop_
_atom_site_label
_atom_site_type_symbol
_atom_site_fract_x
_atom_site_fract_y
_atom_site_fract_z
O1	O	1.061790	0.046149	-0.072134
O2	O	0.829876	0.090215	-0.072133
O3	O	0.951165	-0.115184	-0.072133
O4	O	0.940501	0.251548	-0.072134
O5	O	0.944229	-0.103483	0.072129
O6	O	0.822940	0.101915	0.072129
O7	O	1.054854	0.057850	0.072129
Cu8	Cu	0.938264	0.080951	0.085301
Cu9	Cu	0.946466	0.067114	-0.085306
O10	O	0.933565	0.263248	0.072128
C11	C	0.796712	0.098322	-0.000002
C12	C	0.708229	0.105030	-0.000002
C13	C	0.675524	-0.007136	-0.000000
C14	C	0.592384	-0.000826	-0.000006
C15	C	0.541950	0.117653	-0.000008
C16	C	0.574660	0.229827	-0.000013
C17	C	0.657799	0.223515	-0.000013
C18	C	0.292351	0.148896	-0.000015
C19	C	0.209206	0.155200	-0.000012
C20	C	0.226936	-0.075454	-0.000007
C21	C	0.310075	-0.081755	-0.000002
C22	C	0.342779	0.030419	-0.000011
N23	N	0.456967	0.124106	-0.000012
N24	N	0.427760	0.023964	-0.000013
C25	C	0.946914	-0.156040	-0.000003
C26	C	0.944571	-0.295208	-0.000008
C27	C	0.952142	-0.307973	-0.157287
C28	C	0.954830	-0.379737	-0.235926
C29	C	0.952629	-0.510497	-0.235928
C30	C	0.947737	-0.569495	-0.157281
C31	C	0.945049	-0.497732	-0.078642
C32	C	0.947253	-0.366970	-0.078649
C33	C	0.937472	-0.484964	0.078635
C34	C	0.939679	-0.354206	0.078638
C35	C	0.932580	-0.543963	0.157282
C36	C	0.929897	-0.472200	0.235923
C37	C	0.932100	-0.341433	0.235921
C38	C	0.936991	-0.282442	0.157277
C39	C	1.088018	0.049743	-0.000004
C40	C	1.176501	0.043034	-0.000010
C41	C	0.937817	0.304104	-0.000003
C42	C	0.940160	0.443272	-0.000004
N43	N	0.932500	0.090681	0.205297
N44	N	0.952236	0.057373	-0.205301
C45	C	0.984046	0.003449	0.250691
C46	C	0.979695	0.010819	0.341499
C47	C	0.923801	0.105428	0.386911
C48	C	0.872249	0.192664	0.341510
C49	C	0.876597	0.185288	0.250704
C50	C	0.905033	0.137233	0.658492
C51	C	0.900690	0.144605	0.749305
C52	C	1.008135	-0.037243	0.749287
C53	C	1.012481	-0.044606	0.658479
C54	C	0.960927	0.042626	0.613086
N55	N	0.919353	0.112965	0.479731
N56	N	0.965371	0.035082	0.520268
H57	H	0.351134	-0.178233	0.000004
Cl58	Cl	0.333452	0.289916	-0.000025
Cl59	Cl	0.145804	0.304157	-0.000006
Cl60	Cl	0.929805	-0.708345	0.157281
Cl61	Cl	0.830418	0.263555	0.806388
H62	H	0.565760	-0.092164	-0.000006
Cl63	Cl	0.928715	-0.251225	0.334788
H64	H	0.716582	-0.103614	0.000005
Cl65	Cl	0.185818	-0.216464	-0.000001
Cl66	Cl	0.801978	0.311597	0.398597
Cl67	Cl	0.511258	0.378772	-0.000024
H68	H	0.958812	-0.331686	-0.299959
Cl69	Cl	0.840227	0.246898	0.601433
H70	H	1.021667	-0.060213	0.378458
Cl71	Cl	0.944953	-0.733876	-0.157285
H72	H	0.938788	-0.175973	0.157268
Cl73	Cl	0.698914	0.364530	-0.000019
Cl74	Cl	0.923739	-0.546372	0.334781
Cl75	Cl	0.956001	-0.600716	-0.334789
H76	H	1.029564	-0.073586	0.213722
H77	H	0.953944	-0.201505	-0.157294
H78	H	1.057995	-0.121644	0.621507
H79	H	0.834622	0.256320	0.213745
Cl80	Cl	1.072939	-0.146904	0.806356
