data_functionalizedCrystal
_audit_creation_method	'MofGen! by Chris Wilmer'
_symmetry_space_group_name_H-M	'P1'
_symmetry_Int_Tables_number	1
_symmetry_cell_setting	triclinic
loop_
_symmetry_equiv_pos_as_xyz
  x,y,z
_cell_length_a	17.640280
_cell_length_b	16.959455
_cell_length_c	16.959447
_cell_angle_alpha	90.017850
_cell_angle_beta	78.772658
_cell_angle_gamma	101.204785
loop_
_atom_site_label
_atom_site_type_symbol
_atom_site_fract_x
_atom_site_fract_y
_atom_site_fract_z
Zn1	Zn	-0.314766	-1.272086	-0.383369
Zn2	Zn	0.185234	-0.772086	0.116631
Zn3	Zn	-0.446955	-1.298745	-0.224498
Zn4	Zn	0.053045	-0.798745	0.275502
Zn5	Zn	-0.314786	-1.139912	-0.251200
Zn6	Zn	0.185214	-0.639912	0.248800
Zn7	Zn	-0.446890	-1.166609	-0.356647
Zn8	Zn	0.053110	-0.666609	0.143353
O9	O	-0.380849	-1.219338	-0.303928
O10	O	0.119151	-0.719338	0.196072
O11	O	-0.332320	-1.386237	-0.362302
O12	O	0.167680	-0.886237	0.137698
O13	O	-0.429457	-1.277660	-0.117422
O14	O	0.070543	-0.777660	0.382578
O15	O	-0.204176	-1.135115	-0.291090
O16	O	0.295824	-0.635115	0.208910
O17	O	-0.429438	-1.405824	-0.245580
O18	O	0.070562	-0.905824	0.254420
O19	O	-0.204161	-1.232222	-0.388194
O20	O	0.295839	-0.732222	0.111806
O21	O	-0.332354	-1.160966	-0.137040
O22	O	0.167646	-0.660966	0.362960
O23	O	-0.332291	-1.032839	-0.265180
O24	O	0.167709	-0.532839	0.234820
O25	O	-0.429328	-1.180616	-0.470810
O26	O	0.070672	-0.680616	0.029190
O27	O	-0.429348	-1.052453	-0.342652
O28	O	0.070652	-0.552453	0.157348
O29	O	-0.332257	-1.258109	-0.490442
O30	O	0.167743	-0.758109	0.009558
O31	O	-0.557554	-1.303547	-0.219670
O32	O	-0.057554	-0.803547	0.280330
O33	O	-0.557506	-1.206467	-0.316760
O34	O	-0.057506	-0.706467	0.183240
C35	C	-0.380815	-1.013965	-0.303914
C36	C	0.119185	-0.513965	0.196086
C37	C	-0.380820	-0.926109	-0.303923
C38	C	0.119180	-0.426109	0.196077
C39	C	-0.330245	-0.544388	-0.263697
C40	C	0.169755	-0.044388	0.236303
C41	C	-0.431468	-0.564894	-0.344181
C42	C	0.068532	-0.064894	0.155819
C43	C	-0.431460	-0.647438	-0.344179
C44	C	0.068540	-0.147438	0.155821
C45	C	-0.380844	-0.678461	-0.303935
C46	C	0.119156	-0.178461	0.196065
C47	C	-0.330237	-0.626940	-0.263692
C48	C	0.169763	-0.126940	0.236308
C49	C	-0.482071	-0.698966	-0.384414
C50	C	0.017929	-0.198966	0.115586
C51	C	-0.482066	-0.781516	-0.384413
C52	C	0.017934	-0.281516	0.115587
C53	C	-0.431446	-0.812540	-0.344173
C54	C	0.068554	-0.312540	0.155827
C55	C	-0.380836	-0.761013	-0.303930
C56	C	0.119164	-0.261013	0.196070
C57	C	-0.330221	-0.792037	-0.263685
C58	C	0.169779	-0.292037	0.236315
C59	C	-0.279607	-0.740511	-0.223446
C60	C	0.220393	-0.240511	0.276554
C61	C	-0.279617	-0.657964	-0.223452
C62	C	0.220383	-0.157964	0.276548
C63	C	-0.431435	-0.895086	-0.344167
C64	C	0.068565	-0.395086	0.155833
C65	C	-0.330213	-0.874588	-0.263680
C66	C	0.169787	-0.374588	0.236320
C67	C	-0.586209	-1.260819	-0.262435
C68	C	-0.086209	-0.760819	0.237565
C69	C	-0.674063	-1.278637	-0.244710
C70	C	-0.174063	-0.778637	0.255290
C71	C	-0.963018	-1.084301	-0.438869
C72	C	-0.463018	-0.584301	0.061131
C73	C	-1.045570	-1.101045	-0.422188
C74	C	-0.545570	-0.601045	0.077812
C75	C	-1.045554	-1.202197	-0.321191
C76	C	-0.545554	-0.702197	0.178809
C77	C	-0.963000	-1.185464	-0.337866
C78	C	-0.463000	-0.685464	0.162134
C79	C	-0.921739	-1.126515	-0.396705
C80	C	-0.421739	-0.626515	0.103295
C81	C	-0.921721	-1.227678	-0.295702
C82	C	-0.421721	-0.727678	0.204298
C83	C	-0.839174	-1.210943	-0.312372
C84	C	-0.339174	-0.710943	0.187628
C85	C	-0.797907	-1.151995	-0.371207
C86	C	-0.297907	-0.651995	0.128793
C87	C	-0.839192	-1.109780	-0.413375
C88	C	-0.339192	-0.609780	0.086625
C89	C	-0.962984	-1.286623	-0.236859
C90	C	-0.462984	-0.786623	0.263141
C91	C	-0.921704	-1.328837	-0.194695
C92	C	-0.421704	-0.828837	0.305305
C93	C	-0.839156	-1.312107	-0.211369
C94	C	-0.339156	-0.812107	0.288631
C95	C	-0.797889	-1.253158	-0.270204
C96	C	-0.297889	-0.753158	0.229796
C97	C	-0.797871	-1.354321	-0.169201
C98	C	-0.297871	-0.854321	0.330799
C99	C	-0.715325	-1.337586	-0.185871
C100	C	-0.215325	-0.837586	0.314129
C101	C	-0.715343	-1.236423	-0.286874
C102	C	-0.215343	-0.736423	0.213126
C103	C	-0.174687	-1.177717	-0.345601
C104	C	0.325313	-0.677717	0.154399
C105	C	-0.086833	-1.159980	-0.363360
C106	C	0.413167	-0.659980	0.136640
C107	C	-0.380784	-1.219367	-0.510110
C108	C	0.119216	-0.719367	-0.010110
C109	C	-0.380756	-1.219379	-0.597972
C110	C	0.119244	-0.719379	-0.097972
C111	C	-0.380874	-0.425511	-0.303941
C112	C	0.119126	0.074489	0.196059
C113	C	-0.380861	-0.513365	-0.303942
C114	C	0.119139	-0.013365	0.196058
C115	C	-0.330115	-1.158675	-0.979685
C116	C	0.169885	-0.658675	-0.479685
C117	C	-0.431230	-1.280189	-0.959245
C118	C	0.068770	-0.780189	-0.459245
C119	C	-0.431248	-1.280180	-0.876695
C120	C	0.068752	-0.780180	-0.376695
C121	C	-0.380700	-1.219416	-0.845637
C122	C	0.119300	-0.719416	-0.345637
C123	C	-0.330133	-1.158662	-0.897128
C124	C	0.169867	-0.658662	-0.397128
C125	C	-0.481820	-1.340928	-0.825196
C126	C	0.018180	-0.840928	-0.325196
C127	C	-0.481841	-1.340920	-0.742641
C128	C	0.018159	-0.840920	-0.242641
C129	C	-0.431288	-1.280158	-0.711582
C130	C	0.068712	-0.780158	-0.211582
C131	C	-0.380719	-1.219402	-0.763079
C132	C	0.119281	-0.719402	-0.263079
C133	C	-0.330170	-1.158639	-0.732021
C134	C	0.169830	-0.658639	-0.232021
C135	C	-0.279596	-1.097885	-0.783518
C136	C	0.220404	-0.597885	-0.283518
C137	C	-0.279580	-1.097900	-0.866069
C138	C	0.220420	-0.597900	-0.366069
C139	C	-0.431304	-1.280143	-0.629031
C140	C	0.068696	-0.780143	-0.129031
C141	C	-0.330189	-1.158625	-0.649464
C142	C	0.169811	-0.658625	-0.149464
C143	C	-0.380858	-1.219343	-0.098561
C144	C	0.119142	-0.719343	0.401439
C145	C	-0.380663	-1.219439	-0.010744
C146	C	0.119337	-0.719439	0.489256
H147	H	-0.238411	-0.616005	-0.190691
H148	H	0.261589	-0.116005	0.309309
H149	H	-1.079160	-1.250192	-0.273282
H150	H	-0.579160	-0.750192	0.226718
H151	H	-0.831479	-1.402312	-0.121289
H152	H	-0.331479	-0.902312	0.378711
H153	H	-0.955311	-1.376832	-0.146786
H154	H	-0.455311	-0.876832	0.353214
H155	H	-0.238407	-1.048437	-0.908004
H156	H	0.261593	-0.548437	-0.408004
C157	C	-0.274571	-0.487711	-0.219437
C158	C	0.225429	0.012289	0.280563
N159	N	-0.232638	-0.445020	-0.186100
N160	N	0.267362	0.054980	0.313900
H161	H	-0.681715	-1.371961	-0.151536
H162	H	-0.181715	-0.871961	0.348464
C163	C	-0.274580	-1.091779	-0.615307
C164	C	0.225420	-0.591779	-0.115307
N165	N	-0.232697	-1.041429	-0.589581
N166	N	0.267303	-0.541429	-0.089581
H167	H	-0.288990	-0.899840	-0.230914
H168	H	0.211010	-0.399840	0.269086
H169	H	-0.681746	-1.188426	-0.334793
H170	H	-0.181746	-0.688426	0.165207
H171	H	-0.522982	-1.390391	-0.850489
H172	H	-0.022982	-0.890391	-0.350489
H173	H	-0.238399	-0.765781	-0.190675
H174	H	0.261601	-0.265781	0.309325
C175	C	-0.223992	-1.031050	-0.749343
C176	C	0.276008	-0.531050	-0.249343
N177	N	-0.182109	-0.980713	-0.723600
N178	N	0.317891	-0.480713	-0.223600
C179	C	-0.537447	-1.407770	-0.686008
C180	C	-0.037447	-0.907770	-0.186008
N181	N	-0.579320	-1.458130	-0.643353
N182	N	-0.079320	-0.958130	-0.143353
C183	C	-0.793800	-1.044921	-0.478091
C184	C	-0.293800	-0.544921	0.021909
N185	N	-0.759610	-0.996066	-0.526826
N186	N	-0.259610	-0.496066	-0.026826
H187	H	-0.472681	-0.539630	-0.376940
H188	H	0.027319	-0.039630	0.123060
C189	C	-0.537747	-0.664835	-0.428676
C190	C	-0.037747	-0.164835	0.071324
N191	N	-0.579682	-0.639124	-0.462018
N192	N	-0.079682	-0.139124	0.037982
C193	C	-0.486935	-1.346965	-0.572388
C194	C	0.013065	-0.846965	-0.072388
N195	N	-0.528838	-1.397300	-0.529726
N196	N	-0.028838	-0.897300	-0.029726
H197	H	-0.523279	-0.823461	-0.417178
H198	H	-0.023279	-0.323461	0.082822
H199	H	-0.472647	-0.937035	-0.376926
H200	H	0.027353	-0.437035	0.123074
H201	H	-0.288937	-1.109213	-1.021618
H202	H	0.211063	-0.609213	-0.521618
H203	H	-0.472390	-1.329656	-0.984536
H204	H	0.027610	-0.829656	-0.484536
H205	H	-0.929421	-1.036304	-0.486787
H206	H	-0.429421	-0.536304	0.013213
C207	C	-0.707103	-1.133586	-0.389545
C208	C	-0.207103	-0.633586	0.110455
N209	N	-0.638709	-1.119722	-0.403358
N210	N	-0.138709	-0.619722	0.096642
H211	H	-1.079177	-1.066675	-0.456537
H212	H	-0.579177	-0.566675	0.043463
H213	H	-1.030198	-1.300249	-0.223290
H214	H	-0.530198	-0.800249	0.276710
