data_functionalizedCrystal
_audit_creation_method	'MofGen! by Chris Wilmer'
_symmetry_space_group_name_H-M	'P1'
_symmetry_Int_Tables_number	1
_symmetry_cell_setting	triclinic
loop_
_symmetry_equiv_pos_as_xyz
  x,y,z
_cell_length_a	29.917948
_cell_length_b	29.917021
_cell_length_c	29.913391
_cell_angle_alpha	60.005297
_cell_angle_beta	60.010472
_cell_angle_gamma	59.993667
loop_
_atom_site_label
_atom_site_type_symbol
_atom_site_fract_x
_atom_site_fract_y
_atom_site_fract_z
O1	O	0.061938	-0.653075	0.546110
O2	O	0.561938	-0.153075	1.046110
O3	O	0.023328	-0.508466	0.440017
O4	O	0.523328	-0.008466	0.940017
O5	O	0.114898	-0.599963	0.439941
O6	O	0.614898	-0.099963	0.939941
O7	O	-0.029633	-0.561578	0.546186
O8	O	0.470367	-0.061578	1.046186
O9	O	0.145278	-0.569587	0.470242
O10	O	0.645278	-0.069587	0.970242
O11	O	0.053708	-0.478090	0.470318
O12	O	0.553708	0.021910	0.970318
O13	O	0.092318	-0.622699	0.576411
O14	O	0.592318	-0.122699	1.076411
Zn15	Zn	0.077836	-0.545572	0.528175
Zn16	Zn	0.577836	-0.045572	1.028175
Zn17	Zn	0.037809	-0.585593	0.488253
Zn18	Zn	0.537809	-0.085593	0.988253
O19	O	0.000747	-0.531202	0.576487
O20	O	0.500747	-0.031202	1.076487
N21	N	0.105154	-0.518262	0.555424
N22	N	0.605154	-0.018262	1.055424
N23	N	0.010496	-0.612908	0.461004
N24	N	0.510496	-0.112908	0.961004
C25	C	0.164136	-0.309209	0.614352
C26	C	0.664136	0.190791	1.114352
C27	C	0.164251	-0.459335	0.764424
C28	C	0.664251	0.040665	1.264424
C29	C	0.164150	-0.459313	0.614341
C30	C	0.664150	0.040687	1.114341
C31	C	0.314282	-0.459305	0.614278
C32	C	0.814282	0.040695	1.114278
C33	C	0.180666	-0.358742	0.630849
C34	C	0.680666	0.141258	1.130849
C35	C	0.180732	-0.442815	0.714891
C36	C	0.680732	0.057185	1.214891
C37	C	0.264747	-0.442797	0.630809
C38	C	0.764747	0.057203	1.130809
C39	C	0.180676	-0.442802	0.630843
C40	C	0.680676	0.057198	1.130843
C41	C	0.143097	-0.246161	0.593354
C42	C	0.643097	0.253839	1.093354
C43	C	0.143120	-0.480326	0.593337
C44	C	0.643120	0.019674	1.093337
C45	C	0.201706	-0.421790	0.651848
C46	C	0.701706	0.078210	1.151848
C47	C	0.405963	-0.443499	0.565998
C48	C	0.905963	0.056501	1.065998
C49	C	0.463273	-0.462598	0.546874
C50	C	0.963273	0.037402	1.046874
C51	C	0.463297	-0.555329	0.582235
C52	C	0.963297	-0.055329	1.082235
C53	C	0.405988	-0.536228	0.601360
C54	C	0.905988	-0.036228	1.101360
C55	C	0.156905	-0.217495	0.537012
C56	C	0.656905	0.282505	1.037012
C57	C	0.137776	-0.160180	0.517926
C58	C	0.637776	0.339820	1.017926
C59	C	0.091035	-0.160201	0.611524
C60	C	0.591035	0.339799	1.111524
C61	C	0.110164	-0.217516	0.630611
C62	C	0.610164	0.282484	1.130611
C63	C	0.086772	-0.466488	0.607209
C64	C	0.586772	0.033512	1.107209
C65	C	0.067659	-0.485590	0.588108
C66	C	0.567659	0.014410	1.088108
C67	C	0.161236	-0.532368	0.541277
C68	C	0.661236	-0.032368	1.041277
C69	C	0.180352	-0.513266	0.560371
C70	C	0.680352	-0.013266	1.060371
C71	C	0.086942	-0.466529	0.856152
C72	C	0.586942	0.033471	1.356152
C73	C	0.067877	-0.485647	0.913465
C74	C	0.567877	0.014353	1.413465
C75	C	0.161489	-0.532436	0.913415
C76	C	0.661489	-0.032436	1.413415
C77	C	0.180552	-0.513318	0.856101
C78	C	0.680552	-0.013318	1.356101
C79	C	0.143277	-0.480363	0.827471
C80	C	0.643277	0.019637	1.327471
C81	C	0.377323	-0.480313	0.593239
C82	C	0.877323	0.019687	1.093239
C83	C	-0.111377	-0.650681	0.422736
C84	C	0.388623	-0.150681	0.922736
C85	C	-0.027364	-0.650787	0.422929
C86	C	0.472636	-0.150787	0.922929
C87	C	-0.048335	-0.671770	0.401835
C88	C	0.451665	-0.171770	0.901835
C89	C	-0.064214	-0.763416	0.450041
C90	C	0.435786	-0.263416	0.950041
C91	C	-0.045160	-0.820731	0.469172
C92	C	0.454840	-0.320731	0.969172
C93	C	0.047573	-0.820841	0.433980
C94	C	0.547573	-0.320841	0.933980
C95	C	0.028517	-0.763527	0.414847
C96	C	0.528517	-0.263527	0.914847
C97	C	-0.140115	-0.664483	0.479060
C98	C	0.359885	-0.164483	0.979060
C99	C	-0.197425	-0.645309	0.498058
C100	C	0.302575	-0.145309	0.998058
C101	C	-0.197256	-0.598535	0.404405
C102	C	0.302744	-0.098535	0.904405
C103	C	-0.139946	-0.617709	0.385407
C104	C	0.360054	-0.117709	0.885407
C105	C	-0.041168	-0.594444	0.409067
C106	C	0.458832	-0.094444	0.909067
C107	C	-0.022104	-0.575374	0.428250
C108	C	0.477896	-0.075374	0.928250
C109	C	0.024568	-0.668986	0.475143
C110	C	0.524568	-0.168986	0.975143
C111	C	0.005504	-0.688059	0.455967
C112	C	0.505504	-0.188059	0.955967
C113	C	-0.041000	-0.594453	0.310105
C114	C	0.459000	-0.094453	0.810105
C115	C	-0.021803	-0.575386	0.252792
C116	C	0.478197	-0.075386	0.752792
C117	C	0.024951	-0.669004	0.252854
C118	C	0.524951	-0.169004	0.752854
C119	C	0.005755	-0.688070	0.310168
C120	C	0.505755	-0.188070	0.810168
C121	C	-0.027222	-0.650793	0.338792
C122	C	0.472778	-0.150793	0.838792
C123	C	-0.027377	-0.734817	0.422881
C124	C	0.472623	-0.234817	0.922881
N125	N	0.491125	-0.518235	0.555255
N126	N	0.991125	-0.018235	1.055255
O127	O	0.678406	-0.527360	0.420422
O128	O	1.178406	-0.027360	0.920422
O129	O	0.678588	-0.633782	0.564887
O130	O	1.178588	-0.133782	1.064887
O131	O	0.678516	-0.633539	0.473265
O132	O	1.178516	-0.133539	0.973265
O133	O	0.678478	-0.527602	0.512044
O134	O	1.178478	-0.027602	1.012044
O135	O	0.587469	-0.603251	0.503685
O136	O	1.087469	-0.103251	1.003685
O137	O	0.587541	-0.603493	0.595307
O138	O	1.087541	-0.103493	1.095307
O139	O	0.587359	-0.497071	0.450842
O140	O	1.087359	0.002929	0.950842
Zn141	Zn	0.572994	-0.545473	0.527905
Zn142	Zn	1.072994	-0.045473	1.027905
Zn143	Zn	0.692953	-0.585380	0.487825
Zn144	Zn	1.192953	-0.085380	0.987825
O145	O	0.587431	-0.497313	0.542465
O146	O	1.087431	0.002687	1.042465
N147	N	0.774821	-0.612618	0.460470
N148	N	1.274821	-0.112618	0.960470
N149	N	0.105125	-0.132348	0.555445
N150	N	0.605125	0.367652	1.055445
O151	O	-0.029633	0.055031	0.546198
O152	O	0.470367	0.555031	1.046198
O153	O	0.114837	0.055047	0.439777
O154	O	0.614837	0.555047	0.939777
O155	O	0.023189	0.055024	0.440050
O156	O	0.523189	0.555024	0.940050
O157	O	0.062016	0.055054	0.545925
O158	O	0.562016	0.555054	1.045925
O159	O	0.053572	-0.036031	0.470398
O160	O	0.553572	0.463969	0.970398
O161	O	0.145220	-0.036008	0.470125
O162	O	0.645220	0.463992	0.970125
O163	O	0.000750	-0.036024	0.576546
O164	O	0.500750	0.463976	1.076546
Zn165	Zn	0.077809	-0.050473	0.528154
Zn166	Zn	0.577809	0.449527	1.028154
Zn167	Zn	0.037778	0.069496	0.488169
Zn168	Zn	0.537778	0.569496	0.988169
O169	O	0.092399	-0.036001	0.576273
O170	O	0.592399	0.463999	1.076273
N171	N	0.010456	0.151371	0.460879
N172	N	0.510456	0.651371	0.960879
N173	N	0.105414	-0.518315	0.941279
N174	N	0.605414	-0.018315	1.441279
O175	O	0.096182	-0.653057	1.128644
O176	O	0.596182	-0.153057	1.628644
O177	O	-0.010215	-0.508539	1.128670
O178	O	0.489785	-0.008539	1.628670
O179	O	-0.009968	-0.600172	1.128636
O180	O	0.490032	-0.100172	1.628636
O181	O	0.095935	-0.561424	1.128678
O182	O	0.595935	-0.061424	1.628678
O183	O	0.020367	-0.569808	1.037586
O184	O	0.520367	-0.069808	1.537586
O185	O	0.020121	-0.478175	1.037620
O186	O	0.520121	0.021825	1.537620
O187	O	0.126517	-0.622693	1.037594
O188	O	0.626517	-0.122693	1.537594
Zn189	Zn	0.078135	-0.545613	1.023151
Zn190	Zn	0.578135	-0.045613	1.523151
Zn191	Zn	0.038167	-0.585619	1.143113
Zn192	Zn	0.538167	-0.085619	1.643113
O193	O	0.126270	-0.531061	1.037628
O194	O	0.626270	-0.031061	1.537628
N195	N	0.010887	-0.612923	1.224985
N196	N	0.510887	-0.112923	1.724985
C197	C	0.034899	-0.475056	0.440551
C198	C	0.534899	0.024944	0.940551
C199	C	0.148298	-0.588365	0.440456
C200	C	0.648298	-0.088365	0.940456
C201	C	0.080746	-0.656109	0.575876
C202	C	0.580746	-0.156109	1.075876
C203	C	-0.032653	-0.542801	0.575971
C204	C	0.467347	-0.042801	1.075971
C205	C	0.633086	-0.633292	0.598298
C206	C	1.133086	-0.133292	1.098298
C207	C	0.632998	-0.632993	0.484834
C208	C	1.132998	-0.132993	0.984834
C209	C	0.632857	-0.497559	0.417433
C210	C	1.132857	0.002441	0.917433
C211	C	0.632949	-0.497860	0.530895
C212	C	1.132949	0.002140	1.030895
C213	C	0.148191	0.009634	0.440259
C214	C	0.648191	0.509634	0.940259
C215	C	0.034733	0.009493	0.440634
C216	C	0.534733	0.509493	0.940634
C217	C	-0.032641	0.009502	0.576027
C218	C	0.467359	0.509502	1.076027
C219	C	0.080854	0.009529	0.575690
C220	C	0.580854	0.509529	1.075690
C221	C	-0.009699	-0.475150	1.083148
C222	C	0.490301	0.024850	1.583148
C223	C	-0.009388	-0.588620	1.083088
C224	C	0.490612	-0.088620	1.583088
C225	C	0.126001	-0.656082	1.083116
C226	C	0.626001	-0.156082	1.583116
C227	C	0.125697	-0.542605	1.083155
C228	C	0.625697	-0.042605	1.583155
H229	H	0.022003	-0.474373	0.936811
H230	H	0.522003	0.025627	1.436811
C231	C	0.091820	0.009564	0.620106
C232	C	0.591820	0.509564	1.120106
C233	C	0.045123	0.009573	0.666998
C234	C	0.545123	0.509573	1.166998
C235	C	0.055201	0.009612	0.707922
C236	C	0.555201	0.509612	1.207922
H237	H	0.121668	-0.022176	0.628686
H238	H	0.621668	0.477824	1.128686
H239	H	0.100477	0.041334	0.607479
H240	H	0.600477	0.541334	1.107479
H241	H	0.036473	-0.022194	0.679622
H242	H	0.536473	0.477806	1.179622
H243	H	0.015269	0.041310	0.658436
H244	H	0.515269	0.541310	1.158436
H245	H	0.063859	0.041382	0.695296
H246	H	0.563859	0.541382	1.195296
H247	H	0.085050	-0.022128	0.716497
H248	H	0.585050	0.477872	1.216497
H249	H	0.023518	0.009623	0.739741
H250	H	0.523518	0.509623	1.239741
H251	H	0.191560	-0.559196	0.514439
H252	H	0.691560	-0.059196	1.014439
H253	H	0.159407	-0.697586	1.083101
H254	H	0.659407	-0.197586	1.583101
C255	C	0.203650	-0.599166	0.395944
C256	C	0.703650	-0.099166	0.895944
C257	C	0.227706	-0.561801	0.381334
C258	C	0.727706	-0.061801	0.881334
C259	C	0.278693	-0.571730	0.340326
C260	C	0.778693	-0.071730	0.840326
H261	H	0.226684	-0.635379	0.409161
H262	H	0.726684	-0.135379	0.909161
H263	H	0.198882	-0.595024	0.364814
H264	H	0.698882	-0.095024	0.864814
H265	H	0.232477	-0.565948	0.412458
H266	H	0.732477	-0.065948	0.912458
H267	H	0.204688	-0.525585	0.368108
H268	H	0.704688	-0.025585	0.868108
H269	H	0.273925	-0.567588	0.309196
H270	H	0.773925	-0.067588	0.809196
H271	H	0.301722	-0.607943	0.353547
H272	H	0.801722	-0.107943	0.853547
H273	H	0.295019	-0.546377	0.330405
H274	H	0.795019	-0.046377	0.830405
H275	H	-0.074131	0.009496	0.609437
H276	H	0.425869	0.509496	1.109437
C277	C	0.632903	-0.677312	0.473781
C278	C	1.132903	-0.177312	0.973781
C279	C	0.586030	-0.658567	0.461040
C280	C	1.086030	-0.158567	0.961040
C281	C	0.585919	-0.699382	0.450862
C282	C	1.085919	-0.199382	0.950862
H283	H	0.664599	-0.685840	0.443890
H284	H	1.164599	-0.185840	0.943890
H285	H	0.632918	-0.709186	0.505418
H286	H	1.132918	-0.209186	1.005418
H287	H	0.586020	-0.626703	0.429407
H288	H	1.086020	-0.126703	0.929407
H289	H	0.554326	-0.650043	0.490925
H290	H	1.054326	-0.150043	0.990925
H291	H	0.585934	-0.731255	0.482499
H292	H	1.085934	-0.231255	0.982499
H293	H	0.617617	-0.707907	0.420972
H294	H	1.117617	-0.207907	0.920972
H295	H	0.554114	-0.686671	0.442222
H296	H	1.054114	-0.186671	0.942222
C297	C	-0.053792	-0.599657	1.083133
C298	C	0.446208	-0.099657	1.583133
C299	C	-0.099621	-0.593617	1.129967
C300	C	0.400379	-0.093617	1.629967
C301	C	-0.140534	-0.603788	1.130032
C302	C	0.359466	-0.103788	1.630032
H303	H	-0.063812	-0.574403	1.051408
H304	H	0.436188	-0.074403	1.551408
H305	H	-0.040438	-0.635915	1.083142
H306	H	0.459562	-0.135915	1.583142
H307	H	-0.112974	-0.557365	1.129953
H308	H	0.387026	-0.057365	1.629953
H309	H	-0.089619	-0.618870	1.161700
H310	H	0.410381	-0.118870	1.661700
H311	H	-0.127180	-0.640046	1.130041
H312	H	0.372820	-0.140046	1.630041
H313	H	-0.150549	-0.578532	1.098304
H314	H	0.349451	-0.078532	1.598304
H315	H	-0.171632	-0.599696	1.161810
H316	H	0.328368	-0.099696	1.661810
H317	H	0.026418	0.009490	0.407371
H318	H	0.526418	0.509490	0.907371
C319	C	-0.054181	-0.419782	1.083185
C320	C	0.445819	0.080218	1.583185
C321	C	-0.034570	-0.385999	1.083215
C322	C	0.465430	0.114001	1.583215
C323	C	-0.075533	-0.334992	1.083257
C324	C	0.424467	0.165008	1.583257
H325	H	-0.064161	-0.403328	1.051440
H326	H	0.435839	0.096672	1.551440
H327	H	-0.085291	-0.424553	1.114946
H328	H	0.414709	0.075447	1.614946
H329	H	-0.003469	-0.381226	1.051457
H330	H	0.496531	0.118774	1.551457
H331	H	-0.024593	-0.402435	1.114958
H332	H	0.475407	0.097565	1.614958
H333	H	-0.106643	-0.339763	1.115018
H334	H	0.393357	0.160237	1.615018
H335	H	-0.085510	-0.318543	1.051511
H336	H	0.414490	0.181457	1.551511
H337	H	-0.062234	-0.312066	1.083282
H338	H	0.437766	0.187934	1.583282
H339	H	0.158967	-0.534314	1.083161
H340	H	0.658967	-0.034314	1.583161
H341	H	0.191844	-0.559260	0.936723
H342	H	0.691844	-0.059260	1.436723
C343	C	0.046382	-0.430775	0.825169
C344	C	0.546382	0.069225	1.325169
C345	C	-0.007035	-0.422762	0.862556
C346	C	0.492965	0.077238	1.362556
C347	C	-0.044411	-0.389838	0.834034
C348	C	0.455589	0.110162	1.334034
H349	H	0.051799	-0.396390	0.802813
H350	H	0.551799	0.103610	1.302813
H351	H	0.051841	-0.448269	0.802823
H352	H	0.551841	0.051731	1.302823
H353	H	-0.012491	-0.405267	0.884893
H354	H	0.487509	0.094733	1.384893
H355	H	-0.012469	-0.457138	0.884913
H356	H	0.487531	0.042862	1.384913
H357	H	-0.038953	-0.407332	0.811688
H358	H	0.461047	0.092668	1.311688
H359	H	-0.038989	-0.355455	0.811679
H360	H	0.461011	0.144545	1.311679
H361	H	-0.080658	-0.384401	0.859397
H362	H	0.419342	0.115599	1.359397
C363	C	0.632905	-0.453544	0.542070
C364	C	1.132905	0.046456	1.042070
C365	C	0.632948	-0.473395	0.595512
C366	C	1.132948	0.026605	1.095512
C367	C	0.632900	-0.432584	0.605828
C368	C	1.132900	0.067416	1.105828
H369	H	0.664622	-0.443520	0.516848
H370	H	1.164622	0.056480	1.016848
H371	H	0.601117	-0.422420	0.538048
H372	H	1.101117	0.077580	1.038048
H373	H	0.664732	-0.504509	0.599529
H374	H	1.164732	-0.004509	1.099529
H375	H	0.601233	-0.483415	0.620745
H376	H	1.101233	0.016585	1.120745
H377	H	0.601112	-0.401460	0.601805
H378	H	1.101112	0.098540	1.101805
H379	H	0.664617	-0.422563	0.580602
H380	H	1.164617	0.077437	1.080602
H381	H	0.632924	-0.446045	0.642090
H382	H	1.132924	0.053955	1.142090
C383	C	0.203375	0.009940	0.395538
C384	C	0.703375	0.509940	0.895538
C385	C	0.203257	0.010016	0.348753
C386	C	0.703257	0.510016	0.848753
C387	C	0.254087	0.010285	0.307549
C388	C	0.754087	0.510285	0.807549
H389	H	0.209934	0.041755	0.386943
H390	H	0.709934	0.541755	0.886943
H391	H	0.231377	-0.021754	0.407917
H392	H	0.731377	0.478246	0.907917
H393	H	0.175262	0.041707	0.336375
H394	H	0.675262	0.541707	0.836375
H395	H	0.196707	-0.021797	0.357329
H396	H	0.696707	0.478203	0.857329
H397	H	0.282089	-0.021409	0.319929
H398	H	0.782089	0.478591	0.819929
H399	H	0.260642	0.042100	0.298960
H400	H	0.760642	0.542100	0.798960
H401	H	0.254015	0.010331	0.275803
H402	H	0.754015	0.510331	0.775803
C403	C	0.241742	-0.528376	0.825061
C404	C	0.741742	-0.028376	1.325061
C405	C	0.270302	-0.561312	0.862404
C406	C	0.770302	-0.061312	1.362404
C407	C	0.326669	-0.575186	0.833832
C408	C	0.826669	-0.075186	1.333832
H409	H	0.251203	-0.547846	0.802698
H410	H	0.751203	-0.047846	1.302698
H411	H	0.251144	-0.495972	0.802718
H412	H	0.751144	0.004028	1.302718
H413	H	0.260903	-0.593710	0.884738
H414	H	0.760903	-0.093710	1.384738
H415	H	0.260856	-0.541853	0.884768
H416	H	0.760856	-0.041853	1.384768
H417	H	0.336071	-0.542782	0.811488
H418	H	0.836071	-0.042782	1.311488
H419	H	0.336125	-0.594654	0.811470
H420	H	0.836125	-0.094654	1.311470
H421	H	0.346054	-0.597530	0.859164
H422	H	0.846054	-0.097530	1.359164
H423	H	0.088995	-0.697649	0.609197
H424	H	0.588995	-0.197649	1.109197
C425	C	0.632755	-0.452925	0.362158
C426	C	1.132755	0.047075	0.862158
C427	C	0.632710	-0.406142	0.362237
C428	C	1.132710	0.093858	0.862237
C429	C	0.632608	-0.365012	0.311331
C430	C	1.132608	0.134988	0.811331
H431	H	0.664483	-0.465380	0.334238
H432	H	1.164483	0.034620	0.834238
H433	H	0.600978	-0.444298	0.355499
H434	H	1.100978	0.055702	0.855499
H435	H	0.664484	-0.414769	0.368890
H436	H	1.164484	0.085231	0.868890
H437	H	0.600985	-0.393671	0.390147
H438	H	1.100985	0.106329	0.890147
H439	H	0.600832	-0.356385	0.304671
H440	H	1.100832	0.143615	0.804671
H441	H	0.664337	-0.377472	0.283414
H442	H	1.164337	0.122528	0.783414
H443	H	0.632573	-0.333264	0.311379
H444	H	1.132573	0.166736	0.811379
C445	C	0.046261	-0.430704	0.642966
C446	C	0.546261	0.069296	1.142966
C447	C	-0.007176	-0.422659	0.651007
C448	C	0.492824	0.077341	1.151007
C449	C	-0.044509	-0.389692	0.683939
C450	C	0.455491	0.110308	1.183939
H451	H	0.051717	-0.448164	0.677340
H452	H	0.551717	0.051836	1.177340
H453	H	0.051724	-0.396330	0.625468
H454	H	0.551724	0.103670	1.125468
H455	H	-0.012637	-0.457027	0.668506
H456	H	0.487363	0.042973	1.168506
H457	H	-0.012650	-0.405194	0.616643
H458	H	0.487350	0.094806	1.116643
H459	H	-0.039046	-0.355318	0.666441
H460	H	0.460954	0.144682	1.166441
H461	H	-0.039048	-0.407155	0.718311
H462	H	0.460952	0.092845	1.218311
H463	H	-0.080771	-0.384225	0.689395
H464	H	0.419229	0.115775	1.189395
H465	H	0.226235	-0.524529	0.549071
H466	H	0.726235	-0.024529	1.049071
C467	C	0.006496	-0.470684	0.603190
C468	C	0.506496	0.029316	1.103190
C469	C	-0.007174	-0.518544	0.631814
C470	C	0.492826	-0.018544	1.131814
C471	C	-0.063509	-0.504835	0.645710
C472	C	0.436491	-0.004835	1.145710
H473	H	-0.013009	-0.448356	0.625586
H474	H	0.486991	0.051644	1.125586
H475	H	-0.002940	-0.451254	0.570799
H476	H	0.497060	0.048746	1.070799
H477	H	0.002256	-0.537965	0.664201
H478	H	0.502256	-0.037965	1.164201
H479	H	0.012317	-0.540878	0.609429
H480	H	0.512317	-0.040878	1.109429
H481	H	-0.072944	-0.485405	0.613318
H482	H	0.427056	0.014595	1.113318
H483	H	-0.083009	-0.482506	0.668104
H484	H	0.416991	0.017494	1.168104
H485	H	-0.072790	-0.537305	0.665128
H486	H	0.427210	-0.037305	1.165128
H487	H	0.486634	-0.600858	0.588843
H488	H	0.986634	-0.100858	1.088843
C489	C	0.374994	-0.576284	0.630900
C490	C	0.874994	-0.076284	1.130900
C491	C	0.412369	-0.629336	0.633901
C492	C	0.912369	-0.129336	1.133901
C493	C	0.383838	-0.666251	0.661103
C494	C	0.883838	-0.166251	1.161103
H495	H	0.352654	-0.574897	0.666830
H496	H	0.852654	-0.074897	1.166830
H497	H	0.352632	-0.566726	0.611380
H498	H	0.852632	-0.066726	1.111380
H499	H	0.434722	-0.638891	0.653422
H500	H	0.934722	-0.138891	1.153422
H501	H	0.434711	-0.630740	0.597980
H502	H	0.934711	-0.130740	1.097980
H503	H	0.361476	-0.656693	0.641582
H504	H	0.861476	-0.156693	1.141582
H505	H	0.361499	-0.664859	0.697030
H506	H	0.861499	-0.164859	1.197030
H507	H	0.409193	-0.702250	0.663137
H508	H	0.909193	-0.202250	1.163137
C509	C	0.633180	-0.677783	0.653647
C510	C	1.133180	-0.177783	1.153647
C511	C	0.633206	-0.658163	0.687433
C512	C	1.133206	-0.158163	1.187433
C513	C	0.633300	-0.699135	0.738422
C514	C	1.133300	-0.199135	1.238422
H515	H	0.601456	-0.687783	0.670110
H516	H	1.101456	-0.187783	1.170110
H517	H	0.664960	-0.708885	0.648851
H518	H	1.164960	-0.208885	1.148851
H519	H	0.601429	-0.627072	0.692230
H520	H	1.101429	-0.127072	1.192230
H521	H	0.664928	-0.648167	0.670987
H522	H	1.164928	-0.148167	1.170987
H523	H	0.665080	-0.730237	0.733626
H524	H	1.165080	-0.230237	1.233626
H525	H	0.601575	-0.709132	0.754880
H526	H	1.101575	-0.209132	1.254880
H527	H	0.633322	-0.685831	0.761350
H528	H	1.133322	-0.185831	1.261350
H529	H	0.382624	-0.397967	0.559385
H530	H	0.882624	0.102033	1.059385
C531	C	0.494344	-0.422588	0.517198
C532	C	0.994344	0.077412	1.017198
C533	C	0.480379	-0.383985	0.470292
C534	C	0.980379	0.116015	0.970292
C535	C	0.508996	-0.347125	0.442933
C536	C	1.008996	0.152875	0.942933
H537	H	0.484992	-0.404411	0.540712
H538	H	0.984992	0.095589	1.040712
H539	H	0.532586	-0.441950	0.506934
H540	H	1.032586	0.058050	1.006934
H541	H	0.442145	-0.364625	0.480556
H542	H	0.942145	0.135375	0.980556
H543	H	0.489733	-0.402146	0.446764
H544	H	0.989733	0.097854	0.946764
H545	H	0.547239	-0.366486	0.432670
H546	H	1.047239	0.133514	0.932670
H547	H	0.499642	-0.328951	0.466452
H548	H	0.999642	0.171049	0.966452
H549	H	0.499529	-0.320931	0.411102
H550	H	0.999529	0.179069	0.911102
C551	C	0.192564	-0.248564	0.496535
C552	C	0.692564	0.251436	0.996535
C553	C	0.163749	-0.234633	0.463688
C554	C	0.663749	0.265367	0.963688
C555	C	0.196578	-0.263250	0.426400
C556	C	0.696578	0.236750	0.926400
H557	H	0.224968	-0.239186	0.474109
H558	H	0.724968	0.260814	0.974109
H559	H	0.201969	-0.286810	0.515951
H560	H	0.701969	0.213190	1.015951
H561	H	0.154352	-0.196395	0.444272
H562	H	0.654352	0.303605	0.944272
H563	H	0.131347	-0.244012	0.486098
H564	H	0.631347	0.255988	0.986098
H565	H	0.205982	-0.301496	0.445816
H566	H	0.705982	0.198504	0.945816
H567	H	0.228980	-0.253870	0.403978
H568	H	0.728980	0.246130	0.903978
H569	H	0.177029	-0.253806	0.404112
H570	H	0.677029	0.246194	0.904112
C571	C	0.055268	-0.129197	0.652061
C572	C	0.555268	0.370803	1.152061
C573	C	0.047266	-0.166571	0.705490
C574	C	0.547266	0.333429	1.205490
C575	C	0.014314	-0.138032	0.742847
C576	C	0.514314	0.361968	1.242847
H577	H	0.072720	-0.106831	0.646617
H578	H	0.572720	0.393169	1.146617
H579	H	0.020884	-0.106855	0.646608
H580	H	0.520884	0.393145	1.146608
H581	H	0.081644	-0.188902	0.710940
H582	H	0.581644	0.311098	1.210940
H583	H	0.029808	-0.188937	0.710951
H584	H	0.529808	0.311063	1.210951
H585	H	-0.020070	-0.115690	0.737394
H586	H	0.479930	0.384310	1.237394
H587	H	0.031769	-0.115667	0.737398
H588	H	0.531769	0.384333	1.237398
H589	H	0.008876	-0.163385	0.779102
H590	H	0.508876	0.336615	1.279102
C591	C	0.152655	-0.129021	0.456759
C592	C	0.652655	0.370979	0.956759
C593	C	0.104786	-0.096133	0.443082
C594	C	0.604786	0.403867	0.943082
C595	C	0.118471	-0.067430	0.386739
C596	C	0.618471	0.432570	0.886739
H597	H	0.172071	-0.106613	0.447291
H598	H	0.672071	0.393387	0.947291
H599	H	0.174988	-0.154272	0.437282
H600	H	0.674988	0.345728	0.937282
H601	H	0.082463	-0.070885	0.462553
H602	H	0.582463	0.429115	0.962553
H603	H	0.085364	-0.118528	0.452536
H604	H	0.585364	0.381472	0.952536
H605	H	0.140803	-0.092680	0.367263
H606	H	0.640803	0.407320	0.867263
H607	H	0.137887	-0.045024	0.377277
H608	H	0.637887	0.454976	0.877277
H609	H	0.085995	-0.045116	0.377452
H610	H	0.585995	0.454884	0.877452
H611	H	-0.067926	-0.564092	0.382165
H612	H	0.432074	-0.064092	0.882165
C613	C	0.095303	-0.248690	0.691772
C614	C	0.595303	0.251310	1.191772
C615	C	0.143184	-0.281580	0.705425
C616	C	0.643184	0.218420	1.205425
C617	C	0.129522	-0.310304	0.761763
C618	C	0.629522	0.189696	1.261763
H619	H	0.072981	-0.223468	0.711273
H620	H	0.572981	0.276532	1.211273
H621	H	0.075884	-0.271096	0.701225
H622	H	0.575884	0.228904	1.201225
H623	H	0.162595	-0.259176	0.695978
H624	H	0.662595	0.240824	1.195978
H625	H	0.165512	-0.306812	0.685938
H626	H	0.665512	0.193188	1.185938
H627	H	0.110103	-0.332710	0.771216
H628	H	0.610103	0.167290	1.271216
H629	H	0.107200	-0.285078	0.781260
H630	H	0.607200	0.214922	1.281260
H631	H	0.162007	-0.332627	0.771033
H632	H	0.662007	0.167373	1.271033
C633	C	-0.036884	-0.514205	0.221681
C634	C	0.463116	-0.014205	0.721681
C635	C	-0.093883	-0.490568	0.235511
C636	C	0.406117	0.009432	0.735511
C637	C	-0.107795	-0.434212	0.206857
C638	C	0.392205	0.065788	0.706857
H639	H	-0.023781	-0.498055	0.231097
H640	H	0.476219	0.001945	0.731097
H641	H	-0.020765	-0.508160	0.183443
H642	H	0.479235	-0.008160	0.683443
H643	H	-0.109995	-0.496609	0.273741
H644	H	0.390005	0.003391	0.773741
H645	H	-0.106998	-0.506702	0.226093
H646	H	0.393002	-0.006702	0.726093
H647	H	-0.091676	-0.428167	0.168618
H648	H	0.408324	0.071833	0.668618
H649	H	-0.094690	-0.418068	0.216275
H650	H	0.405310	0.081932	0.716275
H651	H	-0.146470	-0.418168	0.216232
H652	H	0.353530	0.081832	0.716232
C653	C	0.060670	-0.709541	0.221851
C654	C	0.560670	-0.209541	0.721851
C655	C	0.031875	-0.742375	0.235738
C656	C	0.531875	-0.242375	0.735738
C657	C	0.064765	-0.779730	0.207196
C658	C	0.564765	-0.279730	0.707196
H659	H	0.070148	-0.690191	0.183601
H660	H	0.570148	-0.190191	0.683601
H661	H	0.093035	-0.731965	0.231330
H662	H	0.593035	-0.231965	0.731330
H663	H	-0.000480	-0.719953	0.226256
H664	H	0.499520	-0.219953	0.726256
H665	H	0.022398	-0.761737	0.273983
H666	H	0.522398	-0.261737	0.773983
H667	H	0.097131	-0.802155	0.216674
H668	H	0.597131	-0.302155	0.716674
H669	H	0.074241	-0.760376	0.168947
H670	H	0.574241	-0.260376	0.668947
H671	H	0.045235	-0.802016	0.216617
H672	H	0.545235	-0.302016	0.716617
C673	C	-0.037109	-0.514179	0.413105
C674	C	0.462891	-0.014179	0.913105
C675	C	-0.069952	-0.485618	0.380046
C676	C	0.430048	0.014382	0.880046
C677	C	-0.083772	-0.429246	0.366072
C678	C	0.416228	0.070754	0.866072
H679	H	-0.056625	-0.504670	0.445450
H680	H	0.443375	-0.004670	0.945450
H681	H	-0.004684	-0.504820	0.393695
H682	H	0.495316	-0.004820	0.893695
H683	H	-0.102372	-0.494973	0.399456
H684	H	0.397628	0.005027	0.899456
H685	H	-0.050447	-0.495110	0.347694
H686	H	0.449553	0.004890	0.847694
H687	H	-0.051348	-0.419888	0.346662
H688	H	0.448652	0.080112	0.846662
H689	H	-0.103286	-0.419743	0.398419
H690	H	0.396714	0.080257	0.898419
H691	H	-0.106054	-0.409861	0.343636
H692	H	0.393946	0.090139	0.843636
H693	H	-0.067855	-0.564093	0.333408
H694	H	0.432145	-0.064093	0.833408
H695	H	0.026652	-0.433515	0.407232
H696	H	0.526652	0.066485	0.907232
H697	H	0.016979	-0.733950	0.333522
H698	H	0.516979	-0.233950	0.833522
H699	H	-0.074166	-0.534620	0.609333
H700	H	0.425834	-0.034620	1.109333
H701	H	0.016742	-0.733938	0.467255
H702	H	0.516742	-0.233938	0.967255
C703	C	0.060320	-0.709516	0.510934
C704	C	0.560320	-0.209516	1.010934
C705	C	0.108046	-0.742452	0.482222
C706	C	0.608046	-0.242452	0.982222
C707	C	0.140991	-0.779801	0.515179
C708	C	0.640991	-0.279801	1.015179
H709	H	0.069761	-0.690162	0.520390
H710	H	0.569761	-0.190162	1.020390
H711	H	0.040853	-0.731873	0.543310
H712	H	0.540853	-0.231873	1.043310
H713	H	0.127510	-0.720098	0.449856
H714	H	0.627510	-0.220098	0.949856
H715	H	0.098622	-0.761819	0.472766
H716	H	0.598622	-0.261819	0.972766
H717	H	0.121523	-0.802158	0.547555
H718	H	0.621523	-0.302158	1.047555
H719	H	0.150427	-0.760442	0.524634
H720	H	0.650427	-0.260442	1.024634
H721	H	0.173374	-0.802155	0.495705
H722	H	0.673374	-0.302155	0.995705
C723	C	0.068587	-0.732544	0.385294
C724	C	0.568587	-0.232544	0.885294
C725	C	0.107260	-0.746541	0.338426
C726	C	0.607260	-0.246541	0.838426
C727	C	0.144184	-0.718016	0.311190
C728	C	0.644184	-0.218016	0.811190
H729	H	0.049307	-0.694289	0.374993
H730	H	0.549307	-0.194289	0.874993
H731	H	0.086688	-0.741965	0.408912
H732	H	0.586688	-0.241965	0.908912
H733	H	0.089160	-0.737116	0.314812
H734	H	0.589160	-0.237116	0.814812
H735	H	0.126553	-0.784791	0.348711
H736	H	0.626553	-0.284791	0.848711
H737	H	0.162286	-0.727437	0.334808
H738	H	0.662286	-0.227437	0.834808
H739	H	0.124900	-0.679763	0.300893
H740	H	0.624900	-0.179763	0.800893
H741	H	0.170432	-0.727512	0.279390
H742	H	0.670432	-0.227512	0.779390
C743	C	-0.085255	-0.851685	0.498749
C744	C	0.414745	-0.351685	0.998749
C745	C	-0.138291	-0.814274	0.501736
C746	C	0.361709	-0.314274	1.001736
C747	C	-0.175247	-0.842770	0.529019
C748	C	0.324753	-0.342770	1.029019
H749	H	-0.075764	-0.874081	0.479301
H750	H	0.424236	-0.374081	0.979301
H751	H	-0.083846	-0.873992	0.534685
H752	H	0.416154	-0.373992	1.034685
H753	H	-0.139698	-0.791977	0.465806
H754	H	0.360302	-0.291977	0.965806
H755	H	-0.147799	-0.791876	0.521188
H756	H	0.352201	-0.291876	1.021188
H757	H	-0.173838	-0.865076	0.564956
H758	H	0.326162	-0.365076	1.064956
H759	H	-0.165751	-0.865165	0.509568
H760	H	0.334249	-0.365165	1.009568
H761	H	-0.211237	-0.817390	0.531054
H762	H	0.288763	-0.317390	1.031054
C763	C	-0.124871	-0.732168	0.458639
C764	C	0.375129	-0.232168	0.958639
C765	C	-0.132450	-0.699261	0.407764
C766	C	0.367550	-0.199261	0.907764
C767	C	-0.188319	-0.670458	0.415660
C768	C	0.311681	-0.170458	0.915660
H769	H	-0.144147	-0.757342	0.477525
H770	H	0.355853	-0.257342	0.977525
H771	H	-0.138349	-0.709767	0.479614
H772	H	0.361651	-0.209767	0.979614
H773	H	-0.118979	-0.721661	0.386798
H774	H	0.381021	-0.221661	0.886798
H775	H	-0.113187	-0.674077	0.388871
H776	H	0.386813	-0.174077	0.888871
H777	H	-0.201797	-0.648056	0.436634
H778	H	0.298203	-0.148056	0.936634
H779	H	-0.207591	-0.695636	0.434546
H780	H	0.292409	-0.195636	0.934546
H781	H	-0.193468	-0.648124	0.381143
H782	H	0.306532	-0.148124	0.881143
C783	C	0.108239	-0.852045	0.425377
C784	C	0.608239	-0.352045	0.925377
C785	C	0.115833	-0.884934	0.476247
C786	C	0.615833	-0.384934	0.976247
C787	C	0.171710	-0.913680	0.468342
C788	C	0.671710	-0.413680	0.968342
H789	H	0.121764	-0.874457	0.404404
H790	H	0.621764	-0.374457	0.904404
H791	H	0.127466	-0.826820	0.406486
H792	H	0.627466	-0.326820	0.906486
H793	H	0.096613	-0.910157	0.495129
H794	H	0.596613	-0.410157	0.995129
H795	H	0.102320	-0.862536	0.497227
H796	H	0.602320	-0.362536	0.997227
H797	H	0.190937	-0.888454	0.449451
H798	H	0.690937	-0.388454	0.949451
H799	H	0.185231	-0.936088	0.447368
H800	H	0.685231	-0.436088	0.947368
H801	H	0.176871	-0.935994	0.502856
H802	H	0.676871	-0.435994	1.002856
H803	H	-0.116855	-0.691337	0.509456
H804	H	0.383145	-0.191337	1.009456
H805	H	-0.220824	-0.656545	0.543924
H806	H	0.279176	-0.156545	1.043924
H807	H	-0.220518	-0.571693	0.374008
H808	H	0.279482	-0.071693	0.874008
H809	H	-0.116547	-0.606465	0.339541
H810	H	0.383453	-0.106465	0.839541
