data_functionalizedCrystal
_audit_creation_method	'MofGen! by Chris Wilmer'
_symmetry_space_group_name_H-M	'P1'
_symmetry_Int_Tables_number	1
_symmetry_cell_setting	triclinic
loop_
_symmetry_equiv_pos_as_xyz
  x,y,z
_cell_length_a	14.853567
_cell_length_b	14.519709
_cell_length_c	13.930277
_cell_angle_alpha	89.994503
_cell_angle_beta	89.995755
_cell_angle_gamma	83.657538
loop_
_atom_site_label
_atom_site_type_symbol
_atom_site_fract_x
_atom_site_fract_y
_atom_site_fract_z
O1	O	1.196415	0.120405	-0.079767
O2	O	0.933961	0.134748	-0.079783
O3	O	1.072147	-0.006665	-0.079766
O4	O	1.058230	0.261817	-0.079784
O5	O	1.072128	-0.006668	0.079896
O6	O	0.933942	0.134745	0.079878
O7	O	1.196396	0.120402	0.079895
Zn8	Zn	1.065166	0.127573	0.105236
Zn9	Zn	1.065191	0.127577	-0.105125
O10	O	1.058210	0.261814	0.079878
C11	C	0.900363	0.134096	0.000045
C12	C	0.800278	0.132149	0.000039
C13	C	0.387709	0.039914	0.000067
C14	C	0.366493	0.207916	0.000055
C15	C	0.460527	0.209747	0.000052
C16	C	0.518157	0.126660	0.000055
C17	C	0.481752	0.041743	0.000061
C18	C	0.496939	0.294663	0.000035
C19	C	0.590979	0.296498	0.000031
C20	C	0.648610	0.213410	0.000041
C21	C	0.612200	0.128489	0.000049
C22	C	0.669830	0.045403	0.000052
C23	C	0.633422	-0.039520	0.000066
C24	C	0.539383	-0.041345	0.000071
C25	C	0.742649	0.215235	0.000036
C26	C	0.763873	0.047231	0.000046
C27	C	1.071488	-0.041026	0.000065
C28	C	1.069545	-0.143407	0.000065
C29	C	1.062390	-0.518299	0.000040
C30	C	1.064377	-0.413992	0.000047
C31	C	1.065967	-0.330856	0.000054
C32	C	1.067955	-0.226543	0.000059
C33	C	1.229994	0.121053	0.000064
C34	C	1.330079	0.123001	0.000064
C35	C	1.058869	0.296175	0.000044
C36	C	1.060812	0.398556	0.000038
N37	N	1.065155	0.127569	0.248803
N38	N	1.065209	0.127573	-0.248691
C39	C	1.004000	0.190170	0.701064
C40	C	1.126407	0.064977	0.701049
C41	C	1.126396	0.064974	0.600553
C42	C	1.065188	0.127571	0.550308
C43	C	1.003989	0.190171	0.600559
C44	C	1.187599	0.002381	0.550295
C45	C	1.187592	0.002376	0.449793
C46	C	1.126378	0.064970	0.399546
C47	C	1.065177	0.127571	0.449803
C48	C	1.003968	0.190168	0.399558
C49	C	0.942762	0.252767	0.449814
C50	C	0.942776	0.252764	0.550312
C51	C	1.126364	0.064972	0.299047
C52	C	1.003957	0.190169	0.299053
H53	H	0.954110	0.241140	0.258150
C54	C	0.923391	0.378238	0.336779
C55	C	0.875484	0.321573	0.394575
H56	H	0.881857	0.420710	0.302671
H57	H	0.960956	0.411484	0.375980
H58	H	0.959841	0.340947	0.292477
H59	H	0.839039	0.358864	0.438882
H60	H	0.837903	0.288325	0.355371
H61	H	0.319566	0.275561	0.000044
C62	C	0.378863	0.390054	-0.082033
C63	C	0.433588	0.385984	0.000033
H64	H	0.339746	0.446431	-0.082027
H65	H	0.415986	0.387286	-0.137705
H66	H	0.343733	0.339210	-0.082013
H67	H	0.468724	0.436824	0.000009
H68	H	0.396461	0.388760	0.055720
C69	C	0.753518	0.358990	-0.082061
C70	C	0.782669	0.308572	0.000020
H71	H	0.778221	0.416618	-0.082065
H72	H	0.773297	0.324774	-0.137723
H73	H	0.689264	0.369785	-0.082051
H74	H	0.846923	0.297771	0.000007
H75	H	0.762895	0.342796	0.055697
C76	C	0.888456	0.308361	0.704375
C77	C	0.875511	0.321576	0.605554
H78	H	0.846935	0.350848	0.738480
H79	H	0.878565	0.246801	0.720851
H80	H	0.948644	0.318487	0.720815
H81	H	0.815324	0.311443	0.589113
H82	H	0.885394	0.383150	0.589072
H83	H	0.620614	0.365646	0.000019
H84	H	0.509731	-0.110484	0.000105
C85	C	1.145772	-0.060489	0.814081
C86	C	1.193681	-0.003828	0.756280
H87	H	1.187305	-0.102972	0.848177
H88	H	1.109336	-0.023202	0.858383
H89	H	1.108194	-0.093731	0.774875
H90	H	1.231254	0.029419	0.795486
H91	H	1.230132	-0.041119	0.711972
H92	H	0.358060	-0.029228	0.000082
H93	H	0.954164	0.241134	0.741984
H94	H	1.237438	-0.048579	0.591208
H95	H	1.237428	-0.048595	0.408882
H96	H	1.176201	0.014010	0.258134
C97	C	0.881936	-0.048178	-0.082033
C98	C	0.827220	-0.044101	0.000048
H99	H	0.921047	-0.104560	-0.082026
H100	H	0.844807	-0.045405	-0.137695
H101	H	0.917075	0.002660	-0.082032
H102	H	0.792076	-0.094935	0.000044
H103	H	0.864353	-0.046883	0.055725
C104	C	0.751491	-0.134914	-0.082015
C105	C	0.696777	-0.130846	0.000067
H106	H	0.790610	-0.191290	-0.082010
H107	H	0.714361	-0.132146	-0.137676
H108	H	0.786621	-0.084069	-0.082016
H109	H	0.661642	-0.181686	0.000064
H110	H	0.733912	-0.133622	0.055743
