data_functionalizedCrystal
_audit_creation_method	'MofGen! by Chris Wilmer'
_symmetry_space_group_name_H-M	'P1'
_symmetry_Int_Tables_number	1
_symmetry_cell_setting	triclinic
loop_
_symmetry_equiv_pos_as_xyz
  x,y,z
_cell_length_a	21.395364
_cell_length_b	12.759394
_cell_length_c	21.395355
_cell_angle_alpha	90.014577
_cell_angle_beta	90.024552
_cell_angle_gamma	90.029788
loop_
_atom_site_label
_atom_site_type_symbol
_atom_site_fract_x
_atom_site_fract_y
_atom_site_fract_z
Zn1	Zn	0.957928	-0.417969	0.354279
Zn2	Zn	0.957860	-0.593634	0.249508
Zn3	Zn	0.853143	-0.418015	0.249515
Zn4	Zn	0.853141	-0.593652	0.354249
O5	O	0.905518	-0.505818	0.301888
O6	O	1.045597	-0.441244	0.340390
O7	O	0.943941	-0.570349	0.161831
O8	O	0.867073	-0.270988	0.263428
O9	O	1.045547	-0.570304	0.263416
O10	O	0.944058	-0.270954	0.340397
O11	O	0.867006	-0.441323	0.161837
O12	O	0.765465	-0.441341	0.263399
O13	O	0.867070	-0.570336	0.441930
O14	O	0.765464	-0.570381	0.340346
O15	O	0.944056	-0.441262	0.441953
O16	O	0.943939	-0.740657	0.263387
O17	O	0.867003	-0.740671	0.340339
C18	C	0.742731	-0.505869	0.301870
C19	C	0.673089	-0.505916	0.301877
C20	C	0.640425	-0.438824	0.342020
C21	C	0.574989	-0.438796	0.342022
C22	C	0.542221	-0.505879	0.301889
C23	C	0.574893	-0.572975	0.261739
C24	C	0.640328	-0.572994	0.261733
C25	C	0.438512	-0.600493	0.296855
C26	C	0.373079	-0.600477	0.296865
C27	C	0.340400	-0.505821	0.301903
C28	C	0.373162	-0.411179	0.306943
C29	C	0.438596	-0.411198	0.306938
C30	C	0.471269	-0.505866	0.301890
C31	C	0.236783	-0.438693	0.342050
C32	C	0.171347	-0.438664	0.342048
C33	C	0.171252	-0.572852	0.261768
C34	C	0.236687	-0.572872	0.261766
C35	C	0.269449	-0.505794	0.301911
C36	C	0.905481	-0.778785	0.301873
C37	C	0.905522	-0.895562	0.301887
C38	C	0.985696	-0.895494	0.221817
C39	C	1.025799	-0.950321	0.181789
C40	C	1.025835	-1.060043	0.181806
C41	C	0.985766	-1.114940	0.221857
C42	C	0.945663	-1.060113	0.261884
C43	C	0.945629	-0.950389	0.261862
C44	C	0.865493	-1.060180	0.341957
C45	C	0.865452	-0.950459	0.341937
C46	C	0.825424	-1.115078	0.382007
C47	C	0.785316	-1.060251	0.422033
C48	C	0.785281	-0.950522	0.422013
C49	C	0.825349	-0.895632	0.381965
C50	C	1.068941	-0.505767	0.301906
C51	C	1.138583	-0.505745	0.301913
C52	C	0.905570	-0.505796	0.465311
C53	C	0.905592	-0.505787	0.534952
C54	C	0.905573	-0.231784	0.301917
C55	C	0.905596	-0.115007	0.301929
C56	C	0.905502	-0.505763	0.139100
C57	C	0.905602	-0.505476	0.069459
C58	C	0.945677	-0.438576	0.567678
C59	C	0.945677	-0.438530	0.633113
C60	C	0.905597	-0.505716	0.665821
C61	C	0.865504	-0.572932	0.633087
C62	C	0.865502	-0.572968	0.567653
C63	C	0.900637	-0.600317	0.769490
C64	C	0.900644	-0.600283	0.834923
C65	C	0.905601	-0.505605	0.867642
C66	C	0.910565	-0.410958	0.834919
C67	C	0.910562	-0.410993	0.769485
C68	C	0.905595	-0.505684	0.736773
C69	C	0.945687	-0.438338	0.971320
C70	C	0.945682	-0.438291	1.036756
C71	C	0.865513	-0.572702	1.036729
C72	C	0.865515	-0.572740	0.971294
C73	C	0.905606	-0.505559	0.938593
H74	H	0.263283	-0.627510	0.229080
H75	H	0.144752	-0.384023	0.374736
O76	O	0.825214	-0.789049	0.381890
C77	C	0.765156	-0.752509	0.365761
H78	H	0.739282	-0.815809	0.338438
H79	H	0.769631	-0.679125	0.335707
H80	H	0.737991	-0.733043	0.410094
H81	H	0.144573	-0.627471	0.229090
O82	O	1.064661	-0.896831	0.142905
C83	C	1.056042	-0.788231	0.151480
H84	H	1.007677	-0.773312	0.171959
H85	H	1.060297	-0.746567	0.104545
H86	H	1.093184	-0.756997	0.184871
H87	H	0.978317	-0.383793	0.659764
O88	O	1.064811	-1.113144	0.142865
C89	C	1.100183	-1.041170	0.107525
H90	H	1.074499	-0.963001	0.105319
H91	H	1.106895	-1.072910	0.058172
H92	H	1.147755	-1.029400	0.130507
H93	H	0.548209	-0.627593	0.229061
H94	H	0.346410	-0.677540	0.292764
O95	O	0.826483	-0.638086	0.664828
C96	C	0.764041	-0.615170	0.648805
H97	H	0.760893	-0.531248	0.630814
H98	H	0.733089	-0.624208	0.691827
H99	H	0.747649	-0.671522	0.610819
H100	H	0.465114	-0.677579	0.292752
O101	O	0.985691	-1.221523	0.221878
C102	C	0.925667	-1.258314	0.205729
H103	H	0.889549	-1.195141	0.216386
H104	H	0.914545	-1.331709	0.233999
H105	H	0.924369	-1.277845	0.153746
O106	O	0.671964	-0.638274	0.222720
C107	C	0.629014	-0.697457	0.187282
H108	H	0.582380	-0.701143	0.212942
H109	H	0.647882	-0.780224	0.180513
H110	H	0.622051	-0.658863	0.139736
H111	H	0.985662	-0.806153	0.221791
H112	H	0.752698	-1.104957	0.454641
H113	H	0.978322	-0.383871	0.541057
O114	O	0.984649	-0.373139	1.068620
C115	C	1.025111	-0.432920	1.106483
H116	H	1.002997	-0.512540	1.116279
H117	H	1.033512	-0.390095	1.152498
H118	H	1.071543	-0.444463	1.081291
H119	H	0.825459	-1.204419	0.382021
O120	O	0.915355	-0.318963	0.737795
C121	C	0.919748	-0.235386	0.780697
H122	H	0.898693	-0.260236	0.827336
H123	H	0.893148	-0.164793	0.761776
H124	H	0.970953	-0.213545	0.787672
H125	H	0.914603	-0.333862	0.861557
O126	O	0.672151	-0.373557	0.381029
C127	C	0.629284	-0.314350	0.416470
H128	H	0.582627	-0.310644	0.390816
H129	H	0.648224	-0.231592	0.423235
H130	H	0.622336	-0.352937	0.464018
O131	O	0.543180	-0.373772	0.381052
C132	C	0.505341	-0.433695	0.421465
H133	H	0.495500	-0.513253	0.399279
H134	H	0.459346	-0.390918	0.429912
H135	H	0.530577	-0.445366	0.467882
H136	H	0.978328	-0.383630	0.944694
H137	H	0.832873	-0.627395	1.063359
H138	H	0.263459	-0.384068	0.374734
H139	H	0.752627	-0.905888	0.454611
O140	O	0.826498	-0.638117	0.535833
C141	C	0.786053	-0.578340	0.497949
H142	H	0.782198	-0.495582	0.517660
H143	H	0.737827	-0.616356	0.497187
H144	H	0.805427	-0.574746	0.448366
H145	H	0.832877	-0.627477	0.944648
O146	O	0.895790	-0.692307	0.866610
C147	C	0.891420	-0.775881	0.823703
H148	H	0.873267	-0.745280	0.777051
H149	H	0.857884	-0.837667	0.842599
H150	H	0.939573	-0.812275	0.816762
H151	H	0.465268	-0.334137	0.311040
H152	H	0.346556	-0.334101	0.311046
O153	O	0.895892	-0.692260	0.737665
C154	C	0.949222	-0.705879	0.699841
H155	H	0.971419	-0.626336	0.690008
H156	H	0.935042	-0.744244	0.653842
H157	H	0.984328	-0.758068	0.725087
