data_functionalizedCrystal
_audit_creation_method	'MofGen! by Chris Wilmer'
_symmetry_space_group_name_H-M	'P1'
_symmetry_Int_Tables_number	1
_symmetry_cell_setting	triclinic
loop_
_symmetry_equiv_pos_as_xyz
  x,y,z
_cell_length_a	13.339070
_cell_length_b	14.519709
_cell_length_c	12.376457
_cell_angle_alpha	101.296542
_cell_angle_beta	75.589755
_cell_angle_gamma	99.654719
loop_
_atom_site_label
_atom_site_type_symbol
_atom_site_fract_x
_atom_site_fract_y
_atom_site_fract_z
O1	O	1.362507	0.449827	-0.094056
O2	O	1.862507	0.949827	0.405944
O3	O	1.067869	0.389115	-0.094048
O4	O	1.567869	0.889115	0.405952
O5	O	1.222998	0.287221	-0.094042
O6	O	1.722998	0.787221	0.405958
O7	O	1.207378	0.551721	-0.094062
O8	O	1.707378	1.051721	0.405938
O9	O	1.184229	0.312650	0.093969
O10	O	1.684229	0.812650	0.593969
O11	O	1.029100	0.414544	0.093963
O12	O	1.529100	0.914544	0.593963
O13	O	1.323739	0.475256	0.093955
O14	O	1.823739	0.975256	0.593955
Zn15	Zn	1.170264	0.448937	0.123810
Zn16	Zn	1.670264	0.948937	0.623810
Zn17	Zn	1.221343	0.415434	-0.123903
Zn18	Zn	1.721343	0.915434	0.376097
O19	O	1.168610	0.577150	0.093949
O20	O	1.668610	1.077150	0.593949
C21	C	1.010777	0.391574	-0.000041
C22	C	1.510777	0.891574	0.499959
C23	C	0.898419	0.361005	-0.000038
C24	C	1.398419	0.861005	0.499962
C25	C	0.534063	0.598692	-0.000074
C26	C	1.034063	1.098692	0.499926
C27	C	0.639629	0.627415	-0.000081
C28	C	1.139629	1.127415	0.499919
C29	C	0.704332	0.560815	-0.000070
C30	C	1.204332	1.060815	0.499930
C31	C	0.663458	0.465487	-0.000053
C32	C	1.163458	0.965487	0.499947
C33	C	0.557883	0.436759	-0.000055
C34	C	1.057883	0.936759	0.499945
C35	C	0.728152	0.398883	-0.000050
C36	C	1.228152	0.898883	0.499950
C37	C	0.687278	0.303554	-0.000033
C38	C	1.187278	0.803554	0.499967
C39	C	0.581713	0.274832	-0.000035
C40	C	1.081713	0.774832	0.499965
C41	C	0.517011	0.341432	-0.000046
C42	C	1.017011	0.841432	0.499954
C43	C	0.833726	0.427610	-0.000048
C44	C	1.333726	0.927610	0.499952
C45	C	0.857547	0.265678	-0.000029
C46	C	1.357547	0.765678	0.499971
C47	C	0.751980	0.236954	-0.000022
C48	C	1.251980	0.736954	0.499978
C49	C	1.202885	0.265390	-0.000036
C50	C	1.702885	0.765390	0.499964
C51	C	1.200703	0.162454	-0.000036
C52	C	1.700703	0.662454	0.499964
C53	C	1.192677	-0.214489	-0.000065
C54	C	1.692677	0.285511	0.499935
C55	C	1.194906	-0.109612	-0.000056
C56	C	1.694906	0.390388	0.499944
C57	C	1.196690	-0.026021	-0.000049
C58	C	1.696690	0.473979	0.499951
C59	C	1.198919	0.078862	-0.000043
C60	C	1.698919	0.578862	0.499957
C61	C	1.380832	0.472796	-0.000054
C62	C	1.880832	0.972796	0.499946
C63	C	1.493191	0.503364	-0.000065
C64	C	1.993191	1.003364	0.499935
C65	C	1.188723	0.598980	-0.000059
C66	C	1.688723	1.098980	0.499941
C67	C	1.190906	0.701915	-0.000067
C68	C	1.690906	1.201915	0.499933
N69	N	1.135411	0.471804	0.292866
N70	N	1.635411	0.971804	0.792866
N71	N	1.256204	0.392562	-0.292960
N72	N	1.756204	0.892562	0.207040
C73	C	1.337109	0.339463	0.647859
C74	C	1.837109	0.839463	1.147859
C75	C	1.361497	0.323457	0.529520
C76	C	1.861497	0.823457	1.029520
C77	C	1.304977	0.360542	0.470351
C78	C	1.804977	0.860542	0.970351
C79	C	1.224066	0.413636	0.529532
C80	C	1.724066	0.913636	1.029532
C81	C	1.199681	0.429650	0.647883
C82	C	1.699681	0.929650	1.147883
C83	C	1.167550	0.450729	0.470375
C84	C	1.667550	0.950729	0.970375
C85	C	1.086639	0.503824	0.529556
C86	C	1.586639	1.003824	1.029556
C87	C	1.062257	0.519834	0.647895
C88	C	1.562257	1.019834	1.147895
C89	C	1.118777	0.482749	0.707064
C90	C	1.618777	0.982749	1.207064
C91	C	1.191935	0.434715	0.352024
C92	C	1.691935	0.934715	0.852024
C93	C	1.054507	0.524903	0.352048
C94	C	1.554507	1.024903	0.852048
C95	C	1.030119	0.540909	0.470387
C96	C	1.530119	1.040909	0.970387
H97	H	0.548441	0.197207	-0.000034
H98	H	1.048441	0.697207	0.499966
O99	O	0.975008	0.577114	0.711748
O100	O	1.475008	1.077114	1.211748
H101	H	1.006610	0.640170	0.765635
H102	H	1.506610	1.140170	1.265635
O103	O	0.877799	0.530424	-0.000060
O104	O	1.377799	1.030424	0.499940
H105	H	0.962078	0.539215	-0.000065
H106	H	1.462078	1.039215	0.499935
O107	O	1.448751	0.266184	0.465697
O108	O	1.948751	0.766184	0.965697
H109	H	1.522986	0.301238	0.488401
H110	H	2.022986	0.801238	0.988401
H111	H	0.718688	0.159335	-0.000018
H112	H	1.218688	0.659335	0.499982
O113	O	1.331262	0.343266	0.342714
O114	O	1.831262	0.843266	0.842714
H115	H	1.397009	0.300106	0.311501
H116	H	1.897009	0.800106	0.811501
H117	H	1.008485	0.555103	0.303873
H118	H	1.508485	1.055103	0.803873
H119	H	1.098918	0.495777	0.803425
H120	H	1.598918	0.995777	1.303425
H121	H	0.964240	0.584140	0.518587
H122	H	1.464240	1.084140	1.018587
H123	H	0.672903	0.705030	-0.000103
H124	H	1.172903	1.205030	0.499897
H125	H	0.790288	0.584207	-0.000078
H126	H	1.290288	1.084207	0.499922
H127	H	0.910229	0.211445	-0.000025
H128	H	1.410229	0.711445	0.499975
O129	O	0.464281	0.670520	-0.000077
O130	O	0.964281	1.170520	0.499923
H131	H	0.384006	0.634528	-0.000066
H132	H	0.884006	1.134528	0.499934
H133	H	0.431049	0.318049	-0.000040
H134	H	0.931049	0.818049	0.499960
H135	H	1.257813	0.391486	0.303849
H136	H	1.757813	0.891486	0.803849
H137	H	1.383125	0.309279	0.696043
H138	H	1.883125	0.809279	1.196043
