data_functionalizedCrystal
_audit_creation_method	'MofGen! by Chris Wilmer'
_symmetry_space_group_name_H-M	'P1'
_symmetry_Int_Tables_number	1
_symmetry_cell_setting	triclinic
loop_
_symmetry_equiv_pos_as_xyz
  x,y,z
_cell_length_a	27.732048
_cell_length_b	19.288865
_cell_length_c	26.210047
_cell_angle_alpha	89.975066
_cell_angle_beta	90.015477
_cell_angle_gamma	97.110548
loop_
_atom_site_label
_atom_site_type_symbol
_atom_site_fract_x
_atom_site_fract_y
_atom_site_fract_z
O1	O	0.641187	-0.082661	0.042369
O2	O	0.500432	-0.095228	0.042385
O3	O	0.574877	0.012211	0.042367
O4	O	0.566742	-0.190101	0.042388
O5	O	0.574849	0.012240	-0.042492
O6	O	0.500404	-0.095199	-0.042473
O7	O	0.641160	-0.082632	-0.042489
Cu8	Cu	0.570780	-0.088912	-0.050229
Cu9	Cu	0.570812	-0.088948	0.050125
O10	O	0.566715	-0.190071	-0.042470
C11	C	0.482410	-0.094950	-0.000042
C12	C	0.428753	-0.094155	-0.000036
C13	C	0.090115	-0.152644	-0.000052
C14	C	-0.111554	-0.149697	-0.000057
O15	O	-0.142648	-0.203181	-0.000073
N16	N	-0.130870	-0.085990	-0.000063
C17	C	-0.099766	-0.023015	-0.000071
O18	O	-0.120823	0.031239	-0.000081
C19	C	0.101902	-0.025963	-0.000069
C20	C	0.121215	-0.089674	-0.000058
C21	C	0.109428	-0.216350	-0.000042
C22	C	0.159843	-0.217086	-0.000038
C23	C	0.190943	-0.154116	-0.000044
C24	C	0.171629	-0.090410	-0.000054
C25	C	0.133005	0.037011	-0.000081
C26	C	0.183425	0.036268	-0.000082
C27	C	0.202738	-0.027443	-0.000071
C28	C	0.253144	-0.028177	-0.000057
N29	N	0.272460	-0.091884	-0.000051
C30	C	0.241360	-0.154853	-0.000045
C31	C	-0.205644	-0.021472	-0.000070
C32	C	-0.256061	-0.020735	-0.000070
C33	C	-0.267846	-0.147417	-0.000057
C34	C	-0.217428	-0.148153	-0.000054
C35	C	-0.186328	-0.085179	-0.000064
C36	C	0.347234	-0.156395	-0.000036
C37	C	0.397653	-0.157125	-0.000030
C38	C	0.409433	-0.030444	-0.000045
C39	C	0.359018	-0.029713	-0.000049
C40	C	0.327919	-0.092694	-0.000046
O41	O	0.284266	0.025278	-0.000046
O42	O	0.262426	-0.209100	-0.000046
C43	C	0.039701	-0.151908	-0.000056
C44	C	0.020387	-0.088202	-0.000066
C45	C	0.051487	-0.025232	-0.000073
C46	C	-0.030030	-0.087465	-0.000066
C47	C	-0.061130	-0.150435	-0.000059
C48	C	-0.041814	-0.214142	-0.000054
C49	C	0.008600	-0.214878	-0.000050
C50	C	0.032171	0.038475	-0.000079
C51	C	-0.018244	0.039206	-0.000082
C52	C	-0.049344	-0.023764	-0.000076
C53	C	0.574601	0.038100	-0.000064
C54	C	0.573816	0.115199	-0.000068
C55	C	0.659181	-0.082910	-0.000061
C56	C	0.712839	-0.083705	-0.000063
C57	C	0.566990	-0.215961	-0.000039
C58	C	0.567776	-0.293059	-0.000031
N59	N	0.570761	-0.088887	-0.120813
C60	C	0.617496	0.160168	-0.000076
C61	C	0.616758	0.232610	-0.000068
C62	C	0.572337	0.260081	-0.000062
C63	C	0.528650	0.215102	-0.000052
C64	C	0.529390	0.142661	-0.000055
C65	C	0.537407	0.368161	-0.029782
C66	C	0.536669	0.440601	-0.029782
C67	C	0.570054	0.483512	-0.000051
C68	C	0.604186	0.453977	0.029675
C69	C	0.604925	0.381536	0.029672
C70	C	0.571530	0.338630	-0.000059
C71	C	0.612938	0.607032	-0.000049
C72	C	0.612198	0.679475	-0.000037
C73	C	0.524089	0.661966	-0.000027
C74	C	0.524830	0.589524	-0.000033
C75	C	0.569256	0.562062	-0.000046
C76	C	0.541581	-0.047078	-0.526792
C77	C	0.541560	-0.047060	-0.313133
O78	O	0.516721	-0.011456	-0.285524
N79	N	0.570779	-0.088897	-0.286397
C80	C	0.600008	-0.130737	-0.313079
O81	O	0.624863	-0.166316	-0.285435
C82	C	0.600031	-0.130750	-0.526736
C83	C	0.570807	-0.088916	-0.553470
C84	C	0.512360	-0.005246	-0.553525
C85	C	0.512363	-0.005254	-0.606937
C86	C	0.541589	-0.047093	-0.633615
C87	C	0.570810	-0.088924	-0.606881
C88	C	0.629262	-0.172587	-0.553417
C89	C	0.629266	-0.172585	-0.606835
C90	C	0.600042	-0.130751	-0.633568
C91	C	0.600039	-0.130771	-0.686970
N92	N	0.570821	-0.088934	-0.713707
C93	C	0.541595	-0.047095	-0.687029
C94	C	0.599992	-0.130728	-0.200905
C95	C	0.599986	-0.130726	-0.147491
C96	C	0.541539	-0.047048	-0.147549
C97	C	0.541543	-0.047054	-0.200964
C98	C	0.570774	-0.088892	-0.227641
C99	C	0.541605	-0.047115	-0.799197
C100	C	0.541610	-0.047128	-0.852613
C101	C	0.600058	-0.130803	-0.852550
C102	C	0.600052	-0.130793	-0.799138
C103	C	0.570824	-0.088943	-0.772463
O104	O	0.624870	-0.166350	-0.714613
O105	O	0.516751	-0.011510	-0.714681
C106	C	0.541578	-0.047070	-0.473380
C107	C	0.570799	-0.088901	-0.446647
C108	C	0.600025	-0.130740	-0.473325
C109	C	0.570793	-0.088899	-0.393233
C110	C	0.541568	-0.047060	-0.366555
C111	C	0.512349	-0.005223	-0.393291
C112	C	0.512352	-0.005231	-0.446702
C113	C	0.629244	-0.172577	-0.446588
C114	C	0.629237	-0.172566	-0.393177
C115	C	0.600012	-0.130727	-0.366499
N116	N	0.570835	-0.088967	0.120709
H117	H	0.208745	0.087551	-0.000091
H118	H	0.653044	-0.206646	-0.468304
H119	H	0.631371	0.488914	0.053885
H120	H	0.488555	0.028835	-0.468464
H121	H	0.653071	-0.206654	-0.628552
H122	H	0.652330	0.269231	-0.000072
O123	O	-0.301396	-0.215335	-0.000059
H124	H	-0.324646	-0.218045	0.034524
H125	H	0.493818	0.106047	-0.000049
O126	O	0.477714	0.541020	-0.000030
H127	H	0.485691	0.486032	-0.000029
H128	H	-0.033963	0.091091	-0.000087
H129	H	0.343293	0.022166	-0.000050
O130	O	0.065713	0.106395	-0.000085
H131	H	0.043806	0.150813	-0.000087
H132	H	0.321918	-0.207680	-0.000035
O133	O	0.442981	0.037473	-0.000059
H134	H	0.481282	0.026251	-0.000063
H135	H	0.175562	-0.268966	-0.000029
O136	O	0.480739	0.244732	-0.000050
H137	H	0.459769	0.226618	0.034541
H138	H	0.024320	-0.266758	-0.000042
H139	H	0.508876	0.464642	-0.053983
O140	O	0.418484	-0.225844	-0.000026
H141	H	0.388385	-0.269505	-0.000030
H142	H	0.510219	0.333227	-0.053996
O143	O	0.480838	0.039898	-0.524766
H144	H	0.504088	0.077472	-0.500442
H145	H	0.517809	-0.013062	-0.874377
O146	O	0.510077	-0.001985	-0.770428
H147	H	0.489756	0.027092	-0.797999
H148	H	0.653672	0.137813	-0.000085
O149	O	0.631570	-0.175914	-0.770299
H150	H	0.651894	-0.205005	-0.797826
H151	H	0.517746	-0.012989	-0.222727
O152	O	0.480867	0.039902	-0.635768
H153	H	0.460558	0.069009	-0.608236
H154	H	0.084111	-0.267630	-0.000038
H155	H	0.632715	0.357491	0.053876
H156	H	0.517741	-0.012983	-0.125819
H157	H	-0.067145	-0.265414	-0.000046
O158	O	0.660851	0.577403	-0.000053
H159	H	0.691103	0.620847	-0.000047
H160	H	0.623778	-0.164800	-0.125729
H161	H	0.653061	-0.206651	-0.531660
O162	O	-0.196598	-0.216868	-0.000052
H163	H	-0.226699	-0.260527	-0.000052
O164	O	-0.276890	0.047981	-0.000080
H165	H	-0.246790	0.091640	-0.000091
O166	O	0.631580	-0.175929	-0.881327
H167	H	0.670243	-0.160427	-0.871062
O168	O	0.631517	-0.175861	-0.229676
H169	H	0.651827	-0.204954	-0.202106
H170	H	0.653034	-0.206639	-0.371415
O171	O	-0.172102	0.046454	-0.000079
H172	H	-0.194010	0.090871	-0.000079
O173	O	0.480848	0.039923	-0.364499
H174	H	0.454801	0.006383	-0.340146
O175	O	0.112182	0.105728	-0.000103
H176	H	0.142285	0.149383	-0.000117
H177	H	0.647770	0.716089	-0.000041
O178	O	0.476174	0.691582	-0.000023
H179	H	0.482998	0.749510	-0.000025
