data_functionalizedCrystal
_audit_creation_method	'MofGen! by Chris Wilmer'
_symmetry_space_group_name_H-M	'P1'
_symmetry_Int_Tables_number	1
_symmetry_cell_setting	triclinic
loop_
_symmetry_equiv_pos_as_xyz
  x,y,z
_cell_length_a	6.817900
_cell_length_b	11.168129
_cell_length_c	11.168136
_cell_angle_alpha	92.020277
_cell_angle_beta	108.508683
_cell_angle_gamma	108.508637
loop_
_atom_site_label
_atom_site_type_symbol
_atom_site_fract_x
_atom_site_fract_y
_atom_site_fract_z
V1	V	-4.109883	-0.174724	-0.393710
O2	O	-4.069466	0.008377	-0.386204
O3	O	-4.086171	-0.346429	-0.391028
O4	O	-4.086173	-0.172045	-0.565416
O5	O	-4.069464	-0.167215	-0.210610
V6	V	-4.587112	-0.152822	-0.371809
O7	O	-4.384946	-0.222767	-0.441753
O8	O	-4.762246	-0.104778	-0.323766
O9	O	-4.387617	0.018883	-0.374490
O10	O	-4.744926	-0.335922	-0.379315
O11	O	-4.744928	-0.160331	-0.554909
O12	O	-4.387615	-0.155501	-0.200103
C13	C	-3.936379	-0.388287	-0.384820
C14	C	-3.998444	-0.528658	-0.383772
C15	C	-4.147070	-0.753455	-0.492112
C16	C	-4.082924	-0.608374	-0.493198
C17	C	-3.936380	-0.165841	-0.607267
C18	C	-3.998442	-0.164786	-0.747637
C19	C	-4.200950	-0.170305	-0.816330
C20	C	-4.265098	-0.169216	-0.961410
C21	C	-4.200752	0.060735	-0.380695
C22	C	-4.117927	0.201105	-0.381751
C23	C	-4.200750	-0.161709	-0.158245
C24	C	-4.117926	-0.162757	-0.017873
H25	H	-4.107758	-0.569230	-0.587683
H26	H	-4.438583	-0.173947	-1.020461
H27	H	-3.944444	-0.158040	-0.958832
O28	O	-4.351422	-0.177080	-0.758535
C29	C	-4.534399	-0.290560	-0.811705
H30	H	-4.543584	-0.324685	-0.911402
H31	H	-4.691881	-0.271586	-0.818107
H32	H	-4.515697	-0.367170	-0.748601
H33	H	-4.219521	-0.821959	-0.585792
O34	O	-3.969201	-0.575406	-0.271083
C35	C	-4.174204	-0.656774	-0.269697
H36	H	-4.312663	-0.631446	-0.339759
H37	H	-4.180734	-0.644491	-0.169423
H38	H	-4.194988	-0.760179	-0.298785
O39	O	-3.848053	-0.157958	-0.805508
C40	C	-3.665023	-0.044512	-0.752288
H41	H	-3.716826	0.028321	-0.707721
H42	H	-3.601062	-0.004126	-0.830426
H43	H	-3.529181	-0.065992	-0.675686
O44	O	-4.031266	-0.717300	-0.269893
C45	C	-3.834255	-0.732323	-0.193283
H46	H	-3.835261	-0.831196	-0.223327
H47	H	-3.820817	-0.721575	-0.088802
H48	H	-3.687382	-0.656346	-0.205767
