data_functionalizedCrystal
_audit_creation_method	'MofGen! by Chris Wilmer'
_symmetry_space_group_name_H-M	'P1'
_symmetry_Int_Tables_number	1
_symmetry_cell_setting	triclinic
loop_
_symmetry_equiv_pos_as_xyz
  x,y,z
_cell_length_a	12.594516
_cell_length_b	14.908571
_cell_length_c	12.594517
_cell_angle_alpha	86.706378
_cell_angle_beta	90.000118
_cell_angle_gamma	86.723137
loop_
_atom_site_label
_atom_site_type_symbol
_atom_site_fract_x
_atom_site_fract_y
_atom_site_fract_z
Zn1	Zn	0.518057	-1.378992	0.695582
Zn2	Zn	0.695979	-1.378920	0.517604
Zn3	Zn	0.507732	-1.228177	0.507362
Zn4	Zn	0.685700	-1.228084	0.685283
O5	O	0.601867	-1.303543	0.601458
O6	O	0.550281	-1.505224	0.680569
O7	O	0.670989	-1.358933	0.367300
O8	O	0.360161	-1.248251	0.532353
O9	O	0.681000	-1.505172	0.549809
O10	O	0.367746	-1.359054	0.670638
O11	O	0.532685	-1.248182	0.359775
O12	O	0.522717	-1.101922	0.522368
O13	O	0.663480	-1.248093	0.835595
O14	O	0.653469	-1.101854	0.653086
O15	O	0.540314	-1.358965	0.843161
O16	O	0.843557	-1.358843	0.539823
O17	O	0.836004	-1.248024	0.663017
C18	C	0.878401	-1.303440	0.601439
C19	C	0.996709	-1.303479	0.601472
C20	C	0.585858	-1.069155	0.585498
C21	C	0.579035	-0.968883	0.578696
C22	C	0.601902	-1.303527	0.879077
C23	C	0.601917	-1.303520	0.997382
C24	C	1.061892	-1.243188	0.668425
C25	C	1.131214	-1.221223	0.569809
C26	C	1.138189	-1.325493	0.700106
C27	C	1.064470	-1.281471	0.502801
C28	C	1.071442	-1.385779	0.633167
C29	C	1.140734	-1.363845	0.534486
C30	C	1.324252	-1.303631	0.601498
C31	C	1.205942	-1.303567	0.601504
C32	C	0.617939	-1.538847	0.617480
C33	C	0.624788	-1.639119	0.624308
C34	C	0.702577	-0.780438	0.701848
C35	C	0.696169	-0.686223	0.695460
C36	C	0.559808	-0.686236	0.559540
C37	C	0.566215	-0.780451	0.565927
C38	C	0.637603	-0.827549	0.637083
C39	C	0.644016	-0.921765	0.643464
C40	C	0.507649	-0.921777	0.507549
C41	C	0.501242	-0.827562	0.501162
C42	C	0.668879	-1.243215	1.133284
C43	C	0.570281	-1.221194	1.060983
C44	C	0.700502	-1.325501	1.068109
C45	C	0.503223	-1.281448	1.135863
C46	C	0.633511	-1.385793	1.142999
C47	C	0.534848	-1.363803	1.070732
C48	C	0.601864	-1.303541	1.324917
C49	C	0.601875	-1.303512	1.206609
H50	H	1.027402	-1.192125	0.724953
H51	H	1.157678	-1.151666	0.543026
C52	C	1.187070	-1.432771	0.457927
H53	H	1.161650	-1.417017	0.387925
H54	H	1.165660	-1.491027	0.479830
H55	H	1.262495	-1.432774	0.458781
H56	H	1.032263	-1.262807	0.419372
C57	C	0.767639	-0.634400	0.766698
H58	H	0.753595	-0.571543	0.752711
H59	H	0.840177	-0.649820	0.752055
H60	H	0.753219	-0.649855	0.839289
H61	H	0.543535	-1.151614	1.025142
C62	C	1.035727	-1.479737	0.669388
H63	H	1.060967	-1.495265	0.739504
H64	H	1.063913	-1.522724	0.622537
H65	H	0.960267	-1.479188	0.668491
H66	H	1.170519	-1.344076	0.783508
H67	H	0.501680	-0.647873	0.501615
C68	C	0.745292	-1.174280	1.170576
H69	H	0.722652	-1.115848	1.142352
H70	H	0.815126	-1.189322	1.146337
H71	H	0.745219	-1.175130	1.246057
C72	C	0.422728	-0.775750	0.422892
H73	H	0.428221	-0.712892	0.428357
H74	H	0.352288	-0.791210	0.439623
H75	H	0.439254	-0.791177	0.352396
C76	C	0.722534	-0.973571	0.721734
H77	H	0.760303	-0.932017	0.759399
H78	H	0.771345	-1.010309	0.683441
H79	H	0.684383	-1.010339	0.770672
C80	C	0.781101	-0.832248	0.780109
H81	H	0.818878	-0.790695	0.817770
H82	H	0.829905	-0.868985	0.741807
H83	H	0.742956	-0.869016	0.829051
C84	C	0.669673	-1.479760	1.191456
H85	H	0.614439	-1.502869	1.234509
H86	H	0.731423	-1.475428	1.233746
H87	H	0.685459	-1.518962	1.136002
C88	C	0.813152	-1.350630	1.027843
H89	H	0.860649	-1.307727	1.049167
H90	H	0.812248	-1.350995	0.952451
H91	H	0.836066	-1.408668	1.057095
C92	C	0.436172	-0.973600	0.436308
H93	H	0.450206	-1.036457	0.450305
H94	H	0.450579	-0.958143	0.363720
H95	H	0.363630	-0.958182	0.450964
H96	H	0.419804	-1.262774	1.165541
C97	C	0.458237	-1.432687	1.033699
H98	H	0.388244	-1.416921	1.056982
H99	H	0.480093	-1.490959	1.062982
H100	H	0.459096	-1.432659	0.958272
