data_functionalizedCrystal
_audit_creation_method	'MofGen! by Chris Wilmer'
_symmetry_space_group_name_H-M	'P1'
_symmetry_Int_Tables_number	1
_symmetry_cell_setting	triclinic
loop_
_symmetry_equiv_pos_as_xyz
  x,y,z
_cell_length_a	8.559649
_cell_length_b	10.654550
_cell_length_c	9.730223
_cell_angle_alpha	90.000043
_cell_angle_beta	89.997407
_cell_angle_gamma	102.868203
loop_
_atom_site_label
_atom_site_type_symbol
_atom_site_fract_x
_atom_site_fract_y
_atom_site_fract_z
O1	O	0.224185	-1.644681	-0.114181
O2	O	0.245543	-1.276996	-0.114206
O3	O	0.002621	-1.493232	-0.114190
O4	O	0.467107	-1.428445	-0.114197
O5	O	0.002614	-1.493220	0.114390
O6	O	0.245537	-1.276985	0.114374
O7	O	0.224178	-1.644669	0.114398
Zn8	Zn	0.234856	-1.460825	0.150678
Zn9	Zn	0.234865	-1.460841	-0.150486
O10	O	0.467100	-1.428434	0.114383
C11	C	-0.056858	-1.498136	0.000097
C12	C	-0.234076	-1.512750	0.000091
C13	C	0.243972	-1.230355	0.000081
C14	C	0.239280	-1.091396	0.000071
C15	C	0.225750	-1.691311	0.000109
C16	C	0.230442	-1.830270	0.000109
C17	C	0.526579	-1.423530	0.000092
C18	C	0.703797	-1.408915	0.000089
N19	N	0.234849	-1.460824	0.356214
C20	C	0.382309	-0.997136	0.000073
C21	C	0.377890	-0.866571	0.000097
C22	C	0.087402	-0.924541	0.000112
C23	C	0.091822	-1.055103	0.000097
N24	N	0.234860	-1.460853	-0.356022
C25	C	0.127329	-1.556598	0.428147
C26	C	0.127330	-1.556610	0.572030
C27	C	0.342385	-1.365070	0.572035
C28	C	0.342375	-1.365053	0.428154
H29	H	-0.316473	-1.612835	0.000109
N30	N	0.458346	-1.261738	0.350569
H31	H	0.571809	-1.265248	0.375588
H32	H	0.441881	-1.276312	0.248530
H33	H	0.502378	-1.026680	0.000062
H34	H	0.494359	-0.789827	0.000101
N35	N	0.011376	-1.659918	0.649617
H36	H	0.073050	-1.709562	0.709299
H37	H	-0.059842	-1.618728	0.709248
H38	H	-0.032654	-0.894975	0.000141
N39	N	-0.187097	-1.276339	0.000069
H40	H	-0.208229	-1.227927	0.084803
H41	H	-0.071761	-1.284437	0.000010
H42	H	-0.024657	-1.131856	0.000100
H43	H	0.039773	-1.634578	0.369577
N44	N	0.458355	-1.261779	0.649627
H45	H	0.442051	-1.276322	0.751691
H46	H	0.571759	-1.265336	0.624462
