data_functionalizedCrystal
_audit_creation_method	'MofGen! by Chris Wilmer'
_symmetry_space_group_name_H-M	'P1'
_symmetry_Int_Tables_number	1
_symmetry_cell_setting	triclinic
loop_
_symmetry_equiv_pos_as_xyz
  x,y,z
_cell_length_a	16.120530
_cell_length_b	21.295417
_cell_length_c	16.120297
_cell_angle_alpha	87.131911
_cell_angle_beta	89.871860
_cell_angle_gamma	87.125028
loop_
_atom_site_label
_atom_site_type_symbol
_atom_site_fract_x
_atom_site_fract_y
_atom_site_fract_z
Zn1	Zn	1.247396	-0.318916	0.534531
Zn2	Zn	1.254333	-0.419126	0.395463
Zn3	Zn	1.115388	-0.308279	0.388451
Zn4	Zn	1.108290	-0.418546	0.527433
O5	O	1.181352	-0.366216	0.461470
O6	O	1.364682	-0.336903	0.521989
O7	O	1.241776	-0.400212	0.278168
O8	O	1.132967	-0.221604	0.407864
O9	O	1.369779	-0.410527	0.419817
O10	O	1.229953	-0.229419	0.515189
O11	O	1.139693	-0.318774	0.273016
O12	O	0.998081	-0.318211	0.400981
O13	O	1.120869	-0.409539	0.644739
O14	O	0.992866	-0.399224	0.503091
O15	O	1.223070	-0.336341	0.649955
O16	O	1.234893	-0.507134	0.412933
O17	O	1.127595	-0.506708	0.509891
C18	C	0.965301	-0.357501	0.450505
C19	C	0.872872	-0.353789	0.445834
C20	C	0.703644	-0.346996	0.437314
C21	C	0.659897	-0.385485	0.485686
C22	C	0.565733	-0.381706	0.480945
C23	C	0.797817	-0.350775	0.442053
C24	C	1.181248	-0.529762	0.461422
C25	C	1.181278	-0.599732	0.461433
C26	C	1.231746	-0.636611	0.517354
C27	C	1.231775	-0.702355	0.517376
C28	C	1.181344	-0.731218	0.461463
C29	C	1.130866	-0.694331	0.405538
C30	C	1.130833	-0.628588	0.405523
N31	N	1.178754	-0.831581	0.388371
N32	N	1.178790	-0.894035	0.388388
C33	C	1.181440	-0.929298	0.461505
N34	N	1.184068	-0.899749	0.534608
N35	N	1.184036	-0.837290	0.534591
C36	C	1.181374	-0.802505	0.461473
C37	C	1.231941	-1.037465	0.517455
C38	C	1.231963	-1.103210	0.517478
C39	C	1.131059	-1.095184	0.405633
C40	C	1.131032	-1.029440	0.405617
C41	C	1.181478	-1.000585	0.461527
C42	C	1.398246	-0.374966	0.472477
C43	C	1.490674	-0.378695	0.477168
C44	C	1.170404	-0.374062	0.678363
C45	C	1.165738	-0.377405	0.770790
C46	C	1.181478	-0.202034	0.461536
C47	C	1.181531	-0.132069	0.461565
C48	C	1.192305	-0.358358	0.245422
C49	C	1.197132	-0.354844	0.153004
C50	C	1.157190	-0.383494	0.940014
C51	C	1.205678	-0.348757	0.983785
C52	C	1.200922	-0.352145	1.077947
C53	C	1.161945	-0.380107	0.845843
H54	H	0.670378	-0.311209	0.392343
N55	N	1.286344	-1.006336	0.577755
H56	H	1.318316	-1.039678	0.613190
H57	H	1.250510	-0.979092	0.614482
H58	H	1.250762	-0.316474	0.950541
H59	H	1.272820	-0.613119	0.562881
H60	H	1.273060	-1.133237	0.563019
N61	N	1.076658	-1.126305	0.345331
H62	H	1.084334	-1.173550	0.353826
H63	H	1.092639	-1.113201	0.286609
H64	H	0.693165	-0.421275	0.530661
N65	N	1.286210	-0.742143	0.577692
H66	H	1.318161	-0.713887	0.613108
H67	H	1.326436	-0.769731	0.545826
N68	N	1.076473	-0.725456	0.345230
H69	H	1.084155	-0.772701	0.353722
H70	H	1.092458	-0.712348	0.286511
N71	N	1.076399	-0.588806	0.345205
H72	H	1.044453	-0.617064	0.309787
H73	H	1.112210	-0.561495	0.308463
N74	N	1.076605	-0.989659	0.345296
H75	H	1.044663	-1.017917	0.309876
H76	H	1.112417	-0.962346	0.308556
N77	N	1.097460	-0.426245	0.984040
H78	H	1.102485	-0.422629	1.046039
H79	H	1.111108	-0.471193	0.969567
