data_functionalizedCrystal
_audit_creation_method	'MofGen! by Chris Wilmer'
_symmetry_space_group_name_H-M	'P1'
_symmetry_Int_Tables_number	1
_symmetry_cell_setting	triclinic
loop_
_symmetry_equiv_pos_as_xyz
  x,y,z
_cell_length_a	10.967916
_cell_length_b	10.908937
_cell_length_c	9.483335
_cell_angle_alpha	83.005894
_cell_angle_beta	68.691223
_cell_angle_gamma	107.314748
loop_
_atom_site_label
_atom_site_type_symbol
_atom_site_fract_x
_atom_site_fract_y
_atom_site_fract_z
O1	O	-1.676776	0.130626	0.299171
O2	O	-1.291047	0.163708	0.202538
O3	O	-1.535044	-0.041440	0.263668
O4	O	-1.432780	0.335774	0.238040
O5	O	-1.584669	-0.083194	0.517877
O6	O	-1.340672	0.121953	0.456746
O7	O	-1.726401	0.088872	0.553379
Cu8	Cu	-1.538068	0.101600	0.528274
Cu9	Cu	-1.479380	0.150979	0.227643
O10	O	-1.482405	0.294020	0.492248
C11	C	-1.267253	0.143579	0.317465
C12	C	-1.122425	0.145792	0.281183
C13	C	-1.083563	0.125149	0.396694
C14	C	-0.933877	0.127436	0.359198
C15	C	-1.569413	-0.110471	0.393165
C16	C	-1.597872	-0.253954	0.400288
C17	C	-1.523424	-0.447856	0.381633
C18	C	-1.494007	-0.299557	0.374267
C19	C	-0.750195	0.109002	0.438450
C20	C	-0.895021	0.106790	0.474726
C21	C	-1.448035	0.363051	0.362749
C22	C	-1.419574	0.506536	0.355615
N23	N	-1.579355	0.066868	0.739724
N24	N	-1.438106	0.185700	0.016196
C25	C	-1.525918	0.111834	0.965967
C26	C	-1.491530	0.140746	0.789946
H27	H	-1.044880	0.165155	0.154530
H28	H	-1.708570	-0.324692	0.428024
N29	N	-1.311868	0.291908	0.906685
N30	N	-1.318749	0.385418	0.823446
H31	H	-1.229592	0.460433	0.746106
N32	N	-1.365286	0.246959	0.680439
N33	N	-1.372166	0.340469	0.597199
H34	H	-1.283009	0.415484	0.519859
N35	N	-1.280699	-0.404745	0.320805
N36	N	-1.183045	-0.447547	0.296330
H37	H	-1.084959	-0.384892	0.271741
N38	N	-1.662282	-0.536610	0.416434
N39	N	-1.685984	-0.656953	0.422375
H40	H	-1.784056	-0.719636	0.446955
H41	H	-1.626560	0.027193	1.053275
N42	N	-1.705588	-0.039358	0.849229
N43	N	-1.698679	-0.132864	0.932444
H44	H	-1.787824	-0.207897	1.009775
N45	N	-1.180855	0.100839	0.555578
N46	N	-1.302316	0.099009	0.585813
H47	H	-1.371029	0.081838	0.698029
N48	N	-1.355148	-0.210812	0.339497
N49	N	-1.331449	-0.090471	0.333569
H50	H	-1.233382	-0.027792	0.309015
H51	H	-0.856335	0.146800	0.232536
N52	N	-0.992276	0.082514	0.633625
N53	N	-0.963526	0.159004	0.714688
H54	H	-1.032211	0.141860	0.826910
