data_functionalizedCrystal
_audit_creation_method	'MofGen! by Chris Wilmer'
_symmetry_space_group_name_H-M	'P1'
_symmetry_Int_Tables_number	1
_symmetry_cell_setting	triclinic
loop_
_symmetry_equiv_pos_as_xyz
  x,y,z
_cell_length_a	15.995343
_cell_length_b	15.538191
_cell_length_c	14.185569
_cell_angle_alpha	82.127072
_cell_angle_beta	103.158392
_cell_angle_gamma	65.380639
loop_
_atom_site_label
_atom_site_type_symbol
_atom_site_fract_x
_atom_site_fract_y
_atom_site_fract_z
O1	O	1.048645	0.142720	-0.083312
O2	O	0.800302	0.157728	-0.083335
O3	O	0.972814	0.013093	-0.083324
O4	O	0.876133	0.287355	-0.083323
O5	O	1.023774	-0.029629	0.083514
O6	O	0.851262	0.115006	0.083503
O7	O	1.099605	0.099998	0.083526
Cu8	Cu	0.980087	0.103601	0.098748
Cu9	Cu	0.919821	0.154125	-0.098557
O10	O	0.927093	0.244633	0.083515
C11	C	1.008409	-0.043363	0.000093
C12	C	1.038537	-0.147936	0.000086
C13	C	0.794775	0.135749	0.000081
C14	C	0.702385	0.133896	0.000072
C15	C	0.739197	-0.435716	0.000079
C16	C	0.767532	-0.533983	0.000084
C17	C	0.926904	-0.556435	0.000099
C18	C	0.898581	-0.458166	0.000089
C19	C	0.804727	-0.397814	0.000080
C20	C	0.964111	-0.420264	0.000090
C21	C	0.935792	-0.322004	0.000085
C22	C	0.841943	-0.261647	0.000080
C23	C	0.776408	-0.299554	0.000076
C24	C	1.057967	-0.480620	0.000106
C25	C	1.123497	-0.442718	0.000107
C26	C	1.095176	-0.344455	0.000095
C27	C	1.001327	-0.284097	0.000089
C28	C	1.160711	-0.306548	0.000099
C29	C	1.132391	-0.208288	0.000094
C30	C	0.973007	-0.185838	0.000085
C31	C	0.533226	0.130524	0.000085
C32	C	0.541611	0.026122	0.000085
C33	C	0.445647	0.024060	0.000469
C34	C	0.366678	0.127204	0.000097
C35	C	0.408859	0.155351	0.095181
C36	C	0.505297	0.156570	0.095254
C37	C	0.446790	0.206683	-0.094478
C38	C	0.351086	0.203148	-0.095722
C39	C	0.272551	0.125332	0.000107
C40	C	0.627354	0.132397	0.000082
C41	C	1.105132	0.121978	0.000108
C42	C	1.197520	0.123832	0.000111
C43	C	0.891498	0.301090	0.000096
C44	C	0.861368	0.405664	0.000097
N45	N	1.022481	0.068065	0.237522
N46	N	0.877435	0.189653	-0.237331
C47	C	0.752893	0.294017	0.605154
C48	C	0.785010	0.267105	0.710178
C49	C	0.937778	0.139079	0.710149
C50	C	0.905672	0.165977	0.605123
C51	C	0.813229	0.243447	0.552634
C52	C	0.966008	0.115407	0.552603
C53	C	0.933906	0.142307	0.447586
C54	C	0.841468	0.219776	0.395090
C55	C	0.781127	0.270347	0.447617
C56	C	1.058453	0.037941	0.605094
C57	C	1.118789	-0.012628	0.552574
C58	C	1.086685	0.014266	0.447555
C59	C	0.994247	0.091736	0.395059
C60	C	1.147026	-0.036305	0.395028
C61	C	1.114924	-0.009405	0.290011
C62	C	0.962145	0.118635	0.290042
H63	H	0.818888	-0.181640	0.000082
C64	C	1.181283	-0.065033	0.232231
H65	H	1.148925	-0.037911	0.162169
H66	H	1.196558	-0.132316	0.249438
H67	H	1.239303	-0.059172	0.249427
C68	C	0.495232	0.258590	0.100734
H69	H	0.432279	0.299104	0.102914
H70	H	0.504742	0.287425	0.043234
H71	H	0.542460	0.252175	0.159456
C72	C	1.030135	-0.622825	0.000103
H73	H	1.037616	-0.686772	0.000099
H74	H	1.076013	-0.626228	0.058280
H75	H	1.040456	-0.596435	-0.058087
H76	H	0.714167	-0.564841	0.000098
H77	H	0.561093	0.003113	-0.068090
H78	H	0.896580	-0.136693	0.000070
H79	H	1.237130	-0.355703	0.000116
H80	H	0.705847	0.333424	0.404879
H81	H	0.418302	0.000417	-0.067676
C82	C	1.248707	-0.121514	0.452774
H83	H	1.259183	-0.130292	0.522840
H84	H	1.296201	-0.106840	0.435549
H85	H	1.253461	-0.179987	0.435567
H86	H	0.293434	0.279884	-0.101758
C87	C	0.433798	0.310811	-0.095729
H88	H	0.480795	0.307933	-0.038935
H89	H	0.370680	0.351038	-0.093785
H90	H	0.441931	0.337689	-0.155231
H91	H	1.194059	-0.075704	0.595323
C92	C	0.651206	0.379232	0.547409
H93	H	0.619866	0.405503	0.593727
H94	H	0.614142	0.355815	0.506444
H95	H	0.656883	0.428962	0.506443
H96	H	0.662770	-0.386571	0.000065
C97	C	0.673166	-0.233159	0.000057
H98	H	0.638191	-0.269802	0.000058
H99	H	0.641042	-0.179465	-0.058125
H100	H	0.676578	-0.209260	0.058243
H101	H	1.199915	-0.491870	0.000118
C102	C	1.204471	-0.166592	0.000094
H103	H	1.264419	-0.216605	0.000091
H104	H	1.214506	-0.143623	0.058273
H105	H	1.178960	-0.113830	-0.058094
H106	H	0.603489	-0.031120	0.068168
C107	C	0.468744	0.187128	-0.191873
H108	H	0.415681	0.233884	-0.248023
H109	H	0.478545	0.122985	-0.194566
H110	H	0.525553	0.192461	-0.193117
H111	H	0.354961	0.230355	0.098450
H112	H	1.081019	-0.560626	0.000100
H113	H	0.564795	0.102371	0.166601
C114	C	0.465813	-0.054918	0.093071
H115	H	0.407167	-0.056462	0.093614
H116	H	0.491299	-0.039889	0.152237
H117	H	0.511408	-0.117143	0.090480
C118	C	0.425822	0.082124	0.191138
H119	H	0.407268	0.034353	0.173459
H120	H	0.388149	0.116189	0.229523
H121	H	0.492526	0.050634	0.229622
C122	C	0.312674	0.175851	-0.190754
H123	H	0.306157	0.118417	-0.172124
H124	H	0.356849	0.163992	-0.228088
H125	H	0.251297	0.228303	-0.230669
H126	H	0.886865	0.181713	0.247304
C127	C	0.806150	0.249372	0.279574
H128	H	0.742457	0.302757	0.255837
H129	H	0.805730	0.195245	0.255810
H130	H	0.848469	0.268393	0.255808
H131	H	0.735869	0.308294	0.752935
H132	H	1.013048	0.076004	0.752898
H133	H	1.084588	0.016046	0.690605
