data_functionalizedCrystal
_audit_creation_method	'MofGen! by Chris Wilmer'
_symmetry_space_group_name_H-M	'P1'
_symmetry_Int_Tables_number	1
_symmetry_cell_setting	triclinic
loop_
_symmetry_equiv_pos_as_xyz
  x,y,z
_cell_length_a	21.395362
_cell_length_b	10.686285
_cell_length_c	21.395356
_cell_angle_alpha	85.612989
_cell_angle_beta	89.964230
_cell_angle_gamma	85.645931
loop_
_atom_site_label
_atom_site_type_symbol
_atom_site_fract_x
_atom_site_fract_y
_atom_site_fract_z
Zn1	Zn	0.977030	-0.501856	-0.335535
Zn2	Zn	0.985028	-0.712853	-0.222748
Zn3	Zn	0.872263	-0.501941	-0.230733
Zn4	Zn	0.880295	-0.712853	-0.327453
O5	O	0.928654	-0.607376	-0.279117
O6	O	1.065767	-0.529810	-0.320614
O7	O	0.970056	-0.684911	-0.136128
O8	O	0.879452	-0.325359	-0.251360
O9	O	1.071644	-0.684828	-0.237750
O10	O	0.956423	-0.325296	-0.328357
O11	O	0.887207	-0.529954	-0.141995
O12	O	0.785652	-0.529954	-0.243523
O13	O	0.893141	-0.684828	-0.416204
O14	O	0.791553	-0.684910	-0.314582
O15	O	0.964212	-0.529809	-0.422142
O16	O	0.977844	-0.889423	-0.229913
O17	O	0.900897	-0.889423	-0.306840
C18	C	0.765869	-0.607442	-0.279042
C19	C	0.696230	-0.607501	-0.279024
C20	C	0.666610	-0.688294	-0.315960
C21	C	0.601173	-0.688263	-0.315990
C22	C	0.565360	-0.607453	-0.279070
C23	C	0.594987	-0.526644	-0.242131
C24	C	0.660422	-0.526669	-0.242108
C25	C	0.461254	-0.597302	-0.223050
C26	C	0.395821	-0.597286	-0.223072
C27	C	0.363536	-0.607370	-0.279143
C28	C	0.396694	-0.617496	-0.335192
C29	C	0.462129	-0.617520	-0.335169
C30	C	0.494406	-0.607417	-0.279092
C31	C	0.262962	-0.688134	-0.316114
C32	C	0.197524	-0.688094	-0.316144
C33	C	0.191339	-0.526482	-0.242280
C34	C	0.256776	-0.526515	-0.242256
C35	C	0.292584	-0.607348	-0.279171
C36	C	0.941127	-0.935206	-0.266647
C37	C	0.946520	-1.075453	-0.261333
C38	C	1.092075	-0.607309	-0.279193
C39	C	1.161715	-0.607281	-0.279226
C40	C	0.928680	-0.607309	-0.442543
C41	C	0.928691	-0.607281	-0.512186
C42	C	0.916149	-0.278265	-0.291651
C43	C	0.910821	-0.138017	-0.296992
C44	C	0.971891	-0.687702	-1.010938
C45	C	0.971881	-0.687742	-0.945501
C46	C	0.928743	-0.607081	-0.915832
C47	C	0.885602	-0.526396	-0.951604
C48	C	0.885609	-0.526368	-1.017040
C49	C	0.919466	-0.493448	-0.816488
C50	C	0.919463	-0.493474	-0.751054
C51	C	0.928719	-0.607170	-0.714008
C52	C	0.937990	-0.720843	-0.742403
C53	C	0.937997	-0.720814	-0.807838
C54	C	0.928731	-0.607104	-0.844879
C55	C	0.971844	-0.687899	-0.607289
C56	C	0.971830	-0.687942	-0.541850
C57	C	0.885554	-0.526584	-0.547955
C58	C	0.885565	-0.526554	-0.613392
C59	C	0.928713	-0.607209	-0.643055
C60	C	0.928660	-0.607351	-0.116331
C61	C	0.928757	-0.607023	-0.046702
H62	H	0.292118	-0.753946	-0.346176
Cl63	Cl	1.000076	-1.158409	-0.207908
H64	H	0.945528	-0.813425	-0.712240
H65	H	0.489123	-0.625762	-0.380806
Cl66	Cl	1.026128	-0.789112	-1.048224
Cl67	Cl	0.831376	-0.424941	-1.062003
H68	H	0.280893	-0.460731	-0.212175
H69	H	1.006976	-0.753577	-0.631441
Cl70	Cl	0.697660	-0.425092	-0.195669
H71	H	0.876131	-1.084289	-0.331587
Cl72	Cl	0.563929	-0.789839	-0.362428
H73	H	0.911970	-0.400849	-0.846648
H74	H	0.173409	-0.753883	-0.346227
H75	H	1.007014	-0.753426	-0.916377
H76	H	0.850478	-0.460723	-0.927443
Cl77	Cl	0.949646	-0.863710	-0.843533
Cl78	Cl	0.354143	-0.584556	-0.152612
H79	H	0.487535	-0.589085	-0.177388
H80	H	1.006952	-0.753652	-0.512731
H81	H	0.162180	-0.460679	-0.212223
H82	H	0.850429	-0.460911	-0.523799
Cl83	Cl	0.549965	-0.425048	-0.195722
H84	H	0.911918	-0.400915	-0.727941
Cl85	Cl	0.711622	-0.789906	-0.362372
Cl86	Cl	0.356114	-0.630166	-0.405686
H87	H	0.850443	-0.460851	-0.642512
