data_functionalizedCrystal
_audit_creation_method	'MofGen! by Chris Wilmer'
_symmetry_space_group_name_H-M	'P1'
_symmetry_Int_Tables_number	1
_symmetry_cell_setting	triclinic
loop_
_symmetry_equiv_pos_as_xyz
  x,y,z
_cell_length_a	8.497374
_cell_length_b	8.497374
_cell_length_c	25.639242
_cell_angle_alpha	90.012733
_cell_angle_beta	90.003377
_cell_angle_gamma	90.004389
loop_
_atom_site_label
_atom_site_type_symbol
_atom_site_fract_x
_atom_site_fract_y
_atom_site_fract_z
Zn1	Zn	0.628504	0.892552	0.799313
Zn2	Zn	0.892254	0.628818	0.799308
Zn3	Zn	0.628461	0.628731	0.711904
Zn4	Zn	0.892216	0.892501	0.711892
O5	O	0.760359	0.760651	0.755604
O6	O	0.663526	0.857626	0.872478
O7	O	0.857259	0.408044	0.787717
O8	O	0.407705	0.663713	0.723506
O9	O	0.857301	0.663861	0.872474
O10	O	0.407736	0.857541	0.787725
O11	O	0.663452	0.407980	0.723501
O12	O	0.663415	0.663663	0.638737
O13	O	0.857236	1.113270	0.723485
O14	O	0.857194	0.857453	0.638728
O15	O	0.663488	1.113308	0.787713
O16	O	1.113011	0.663811	0.787705
O17	O	1.112983	0.857538	0.723481
C18	C	0.760297	0.760544	0.619762
C19	C	0.760308	0.760535	0.561648
C20	C	1.170239	0.760673	0.755598
C21	C	1.348883	0.760648	0.755612
C22	C	0.760384	1.350771	0.755607
C23	C	0.760377	1.172127	0.755602
C24	C	0.861428	0.861462	0.201289
C25	C	0.861438	0.861487	0.146685
O26	O	0.947337	0.947207	0.118452
N27	N	0.760402	0.760754	0.119365
C28	C	0.659339	0.660000	0.146653
O29	O	0.573400	0.574322	0.118401
C30	C	0.659323	0.659985	0.201256
C31	C	0.760376	0.760713	0.228573
C32	C	0.962473	0.962183	0.228606
C33	C	0.962465	0.962156	0.283206
C34	C	0.861412	0.861407	0.310490
C35	C	0.760368	0.760686	0.283173
C36	C	0.558253	0.559240	0.228543
C37	C	0.558244	0.559234	0.283150
C38	C	0.659298	0.659963	0.310466
C39	C	0.659308	0.659909	0.365058
N40	N	0.760344	0.760642	0.392377
C41	C	0.861396	0.861391	0.365093
C42	C	0.659379	0.660043	0.031982
C43	C	0.659403	0.660050	-0.022620
C44	C	0.861500	0.861538	-0.022585
C45	C	0.861483	0.861523	0.032019
C46	C	0.760415	0.760776	0.059302
C47	C	0.861373	0.861325	0.479758
C48	C	0.861360	0.861284	0.534364
C49	C	0.659258	0.659802	0.534323
C50	C	0.659275	0.659836	0.479723
C51	C	0.760338	0.760611	0.452442
O52	O	0.573449	0.574237	0.393325
O53	O	0.947306	0.947070	0.393351
C54	C	0.760422	0.760759	0.891977
C55	C	0.760450	0.760805	0.950091
H56	H	0.943656	0.943311	0.556603
C57	C	0.972653	0.972377	-0.052603
C58	C	1.096401	0.903849	-0.090147
C59	C	1.207549	1.014679	-0.120167
C60	C	1.194949	1.194037	-0.112641
C61	C	1.071195	1.262575	-0.075095
C62	C	0.960048	1.151745	-0.045076
H63	H	1.105734	0.771069	-0.095719
H64	H	1.299160	0.963942	-0.147961
H65	H	1.277227	1.276081	-0.134863
H66	H	1.061863	1.395355	-0.069523
H67	H	0.868437	1.202482	-0.017282
H68	H	0.577130	0.578011	-0.044857
C69	C	1.073649	1.073010	0.198599
C70	C	1.005532	1.197001	0.161071
C71	C	1.116728	1.307824	0.131068
C72	C	1.296041	1.294656	0.138594
C73	C	1.364168	1.170661	0.176124
C74	C	1.252972	1.059838	0.206126
H75	H	0.872785	1.206753	0.155498
H76	H	1.066295	1.399614	0.103286
H77	H	1.378355	1.376694	0.116384
H78	H	1.496914	1.160909	0.181696
H79	H	1.303405	0.968048	0.233908
C80	C	0.447066	0.448408	0.313161
C81	C	0.267748	0.461564	0.305645
C82	C	0.156573	0.350740	0.335656
C83	C	0.224716	0.226759	0.373182
C84	C	0.404043	0.213598	0.380700
C85	C	0.515218	0.324423	0.350690
H86	H	0.217296	0.553346	0.277864
H87	H	0.023823	0.360483	0.330090
H88	H	0.142418	0.144720	0.395398
H89	H	0.454495	0.121816	0.408481
H90	H	0.647968	0.314680	0.356255
C91	C	0.548099	0.548994	0.564345
C92	C	0.424363	0.617563	0.601886
C93	C	0.313194	0.506767	0.631910
C94	C	0.325760	0.327403	0.624394
C95	C	0.449501	0.258825	0.586852
C96	C	0.560671	0.369620	0.556827
H97	H	0.415057	0.750347	0.607451
H98	H	0.221593	0.557534	0.659702
H99	H	0.243466	0.245386	0.646620
H100	H	0.458808	0.126041	0.581287
H101	H	0.652272	0.318853	0.529036
H102	H	0.577079	0.577992	0.054193
H103	H	0.943664	0.943389	0.457552
H104	H	1.044750	1.044183	0.305443
H105	H	0.475968	0.477212	0.206311
H106	H	0.943768	0.943547	0.054256
H107	H	0.576993	0.577812	0.457480
