data_functionalizedCrystal
_audit_creation_method	'MofGen! by Chris Wilmer'
_symmetry_space_group_name_H-M	'P1'
_symmetry_Int_Tables_number	1
_symmetry_cell_setting	triclinic
loop_
_symmetry_equiv_pos_as_xyz
  x,y,z
_cell_length_a	27.732046
_cell_length_b	26.809956
_cell_length_c	27.732066
_cell_angle_alpha	90.008081
_cell_angle_beta	82.646039
_cell_angle_gamma	89.997320
loop_
_atom_site_label
_atom_site_type_symbol
_atom_site_fract_x
_atom_site_fract_y
_atom_site_fract_z
O1	O	-0.640935	0.041405	-0.057506
O2	O	-0.500142	0.041421	-0.066252
O3	O	-0.574907	0.041414	0.008517
O4	O	-0.566171	0.041412	-0.132275
O5	O	-0.574893	-0.041545	0.008506
O6	O	-0.500128	-0.041538	-0.066263
O7	O	-0.640921	-0.041554	-0.057517
Zn8	Zn	-0.570522	-0.054718	-0.061892
Zn9	Zn	-0.570541	0.054584	-0.061877
O10	O	-0.566157	-0.041547	-0.132286
C11	C	-0.482128	-0.000057	-0.066074
C12	C	-0.428473	-0.000050	-0.065522
N13	N	-0.570513	-0.129314	-0.061902
C14	C	-0.089661	-0.000069	-0.106227
C15	C	0.111999	-0.000071	-0.104177
O16	O	0.143253	-0.000093	-0.141398
N17	N	0.131126	-0.000070	-0.059843
C18	C	0.099834	-0.000071	-0.016017
O19	O	0.120730	-0.000074	0.021739
C20	C	-0.101825	-0.000072	-0.018068
C21	C	-0.120948	-0.000069	-0.062405
C22	C	-0.108785	-0.000066	-0.150561
C23	C	-0.159197	-0.000063	-0.151073
C24	C	-0.190485	-0.000063	-0.107251
C25	C	-0.171360	-0.000065	-0.062917
C26	C	-0.133116	-0.000076	0.025757
C27	C	-0.183533	-0.000078	0.025241
C28	C	-0.202657	-0.000075	-0.019097
C29	C	-0.253060	-0.000061	-0.019607
N30	N	-0.272187	-0.000063	-0.063942
C31	C	-0.240899	-0.000064	-0.107764
C32	C	0.205708	-0.000069	-0.014944
C33	C	0.256123	-0.000068	-0.014431
C34	C	0.268285	-0.000070	-0.102592
C35	C	0.217869	-0.000067	-0.103104
C36	C	0.186582	-0.000071	-0.059279
C37	C	-0.346768	-0.000056	-0.108836
C38	C	-0.397186	-0.000051	-0.109344
C39	C	-0.409343	-0.000052	-0.021184
C40	C	-0.358930	-0.000055	-0.020675
C41	C	-0.327644	-0.000059	-0.064505
O42	O	-0.284342	-0.000045	0.017593
O43	O	-0.261804	-0.000071	-0.145515
C44	C	-0.039249	-0.000072	-0.105715
C45	C	-0.020124	-0.000075	-0.061381
C46	C	-0.051412	-0.000075	-0.017559
C47	C	0.030290	-0.000074	-0.060869
C48	C	0.061578	-0.000075	-0.104691
C49	C	0.042451	-0.000076	-0.149025
C50	C	-0.007961	-0.000073	-0.149537
C51	C	-0.032286	-0.000073	0.026775
C52	C	0.018127	-0.000076	0.027284
C53	C	0.049415	-0.000076	-0.016538
C54	C	-0.603643	-0.473943	-0.028777
C55	C	-0.603654	-0.682821	-0.028770
O56	O	-0.631802	-0.709827	-0.000609
N57	N	-0.570544	-0.708941	-0.061866
C58	C	-0.537426	-0.682839	-0.094965
O59	O	-0.509261	-0.709848	-0.123112
C60	C	-0.537413	-0.473962	-0.094970
C61	C	-0.570528	-0.447844	-0.061874
C62	C	-0.636755	-0.447825	0.004316
C63	C	-0.636754	-0.395609	0.004312
C64	C	-0.603640	-0.369510	-0.028785
C65	C	-0.570527	-0.395628	-0.061878
C66	C	-0.504293	-0.447861	-0.128066
C67	C	-0.504292	-0.395638	-0.128063
C68	C	-0.537408	-0.369520	-0.094968
C69	C	-0.537411	-0.317313	-0.094979
N70	N	-0.570522	-0.291193	-0.061883
C71	C	-0.603636	-0.317291	-0.028786
C72	C	-0.537436	-0.792502	-0.094961
C73	C	-0.537440	-0.844721	-0.094960
C74	C	-0.603667	-0.844699	-0.028765
C75	C	-0.603665	-0.792479	-0.028768
C76	C	-0.570546	-0.766382	-0.061864
C77	C	-0.603630	-0.207634	-0.028797
C78	C	-0.603627	-0.155413	-0.028805
C79	C	-0.537398	-0.155439	-0.094999
C80	C	-0.537403	-0.207655	-0.094993
C81	C	-0.570521	-0.233751	-0.061888
O82	O	-0.509274	-0.290274	-0.123122
O83	O	-0.631790	-0.290273	-0.000636
C84	C	-0.603644	-0.526159	-0.028774
C85	C	-0.570531	-0.552277	-0.061867
C86	C	-0.537417	-0.526178	-0.094963
C87	C	-0.570535	-0.604496	-0.061866
C88	C	-0.603649	-0.630595	-0.028769
C89	C	-0.636760	-0.604474	0.004327
C90	C	-0.636758	-0.552258	0.004323
C91	C	-0.504307	-0.552299	-0.128060
C92	C	-0.504311	-0.604515	-0.128054
C93	C	-0.537426	-0.630614	-0.094957
C94	C	0.341065	-0.000073	-0.057696
C95	C	0.287411	-0.000068	-0.058253
C96	C	-0.574715	-0.000064	0.026518
C97	C	-0.574159	-0.000060	0.080173
N98	N	-0.570554	0.129180	-0.061863
C99	C	-0.526189	-0.000055	0.457245
C100	C	-0.528237	-0.000053	0.255585
O101	O	-0.491016	-0.000029	0.224332
N102	N	-0.572571	-0.000058	0.236457
C103	C	-0.616397	-0.000060	0.267749
O104	O	-0.654153	-0.000059	0.246853
C105	C	-0.614349	-0.000058	0.469408
C106	C	-0.570012	-0.000058	0.488532
C107	C	-0.481856	-0.000054	0.476370
C108	C	-0.481344	-0.000057	0.526782
C109	C	-0.525167	-0.000061	0.558069
C110	C	-0.569500	-0.000061	0.538944
C111	C	-0.658174	-0.000056	0.500698
C112	C	-0.657658	-0.000054	0.551116
C113	C	-0.613321	-0.000055	0.570240
C114	C	-0.612811	-0.000068	0.620644
N115	N	-0.568477	-0.000063	0.639771
C116	C	-0.524654	-0.000059	0.608483
C117	C	-0.617469	-0.000062	0.161874
C118	C	-0.617981	-0.000063	0.111460
C119	C	-0.529821	-0.000056	0.099299
C120	C	-0.529309	-0.000058	0.149715
C121	C	-0.573135	-0.000057	0.181002
C122	C	-0.523584	-0.000066	0.714353
C123	C	-0.523076	-0.000072	0.764770
C124	C	-0.611236	-0.000077	0.776926
C125	C	-0.611744	-0.000074	0.726514
C126	C	-0.567914	-0.000067	0.695228
O127	O	-0.650012	-0.000086	0.651925
O128	O	-0.486904	-0.000049	0.629389
C129	C	-0.526701	-0.000052	0.406833
C130	C	-0.571034	-0.000052	0.387708
C131	C	-0.614857	-0.000055	0.418995
C132	C	-0.571547	-0.000053	0.337293
C133	C	-0.527724	-0.000050	0.306006
C134	C	-0.483390	-0.000045	0.325133
C135	C	-0.482878	-0.000048	0.375545
C136	C	-0.659191	-0.000060	0.399868
C137	C	-0.659699	-0.000058	0.349456
C138	C	-0.615877	-0.000054	0.318168
C139	C	-0.566347	-0.000070	0.849712
C140	C	-0.566899	-0.000075	0.796057
H141	H	-0.412753	-0.000048	-0.145450
H142	H	-0.477327	-0.469118	-0.155015
H143	H	-0.510439	-0.134181	-0.121948
H144	H	-0.057756	-0.000074	0.062461
H145	H	-0.445240	-0.000053	0.542347
H146	H	-0.694878	-0.000062	0.425338
H147	H	0.033692	-0.000074	0.063391
H148	H	-0.209005	-0.000081	0.060929
H149	H	-0.663724	-0.625732	0.031275
H150	H	-0.446168	-0.000050	0.450900
H151	H	-0.654085	-0.000071	0.095894
H152	H	-0.647847	-0.000081	0.710942
H153	H	-0.630631	-0.865958	-0.001816
H154	H	-0.494139	-0.000055	0.073816
H155	H	-0.447708	-0.000045	0.299650
H156	H	-0.487893	-0.000061	0.688885
H157	H	-0.477321	-0.374392	-0.155014
H158	H	-0.630631	-0.771218	-0.001818
H159	H	-0.653159	-0.000062	0.187345
H160	H	-0.695806	-0.000061	0.333890
H161	H	0.180238	-0.000072	0.020746
H162	H	-0.694278	-0.000056	0.485137
H163	H	-0.510442	-0.228920	-0.121947
H164	H	-0.083315	-0.000069	-0.186248
H165	H	-0.321300	-0.000061	-0.144526
H166	H	-0.693347	-0.000051	0.576588
H167	H	-0.646915	-0.000082	0.802409
H168	H	-0.493206	-0.000060	0.165282
H169	H	-0.446774	-0.000049	0.391111
H170	H	-0.343359	-0.000050	0.015428
H171	H	-0.174762	-0.000060	-0.187177
H172	H	0.202302	-0.000067	-0.139207
H173	H	-0.477341	-0.531053	-0.155011
H174	H	0.293768	-0.000070	-0.138273
H175	H	0.271689	-0.000063	0.021673
H176	H	-0.434826	-0.000049	0.014495
H177	H	-0.117554	-0.000079	0.061861
H178	H	-0.023526	-0.000071	-0.185641
H179	H	-0.663721	-0.469070	0.031269
H180	H	0.067935	-0.000075	-0.184707
H181	H	-0.477345	-0.625776	-0.155008
H182	H	-0.630598	-0.228875	-0.001839
H183	H	-0.630596	-0.134149	-0.001855
H184	H	-0.663724	-0.530997	0.031273
H185	H	-0.663718	-0.374347	0.031262
H186	H	-0.510479	-0.865982	-0.121915
H187	H	-0.510466	-0.771257	-0.121913
H188	H	-0.486970	-0.000074	0.780338
