data_functionalizedCrystal
_audit_creation_method	'MofGen! by Chris Wilmer'
_symmetry_space_group_name_H-M	'P1'
_symmetry_Int_Tables_number	1
_symmetry_cell_setting	triclinic
loop_
_symmetry_equiv_pos_as_xyz
  x,y,z
_cell_length_a	14.044220
_cell_length_b	14.044191
_cell_length_c	14.750779
_cell_angle_alpha	103.818400
_cell_angle_beta	103.815653
_cell_angle_gamma	86.809673
loop_
_atom_site_label
_atom_site_type_symbol
_atom_site_fract_x
_atom_site_fract_y
_atom_site_fract_z
O1	O	-0.249149	1.258212	-0.079776
O2	O	0.250851	1.758212	0.420224
O3	O	-0.240839	0.981536	-0.079788
O4	O	0.259161	1.481536	0.420212
O5	O	-0.106657	1.115722	-0.079778
O6	O	0.393343	1.615722	0.420222
O7	O	-0.383330	1.124026	-0.079786
O8	O	0.116670	1.624026	0.420214
O9	O	-0.068730	1.153655	0.079875
O10	O	0.431270	1.653655	0.579875
O11	O	-0.202912	1.019469	0.079865
O12	O	0.297088	1.519469	0.579865
O13	O	-0.211221	1.296145	0.079878
O14	O	0.288779	1.796145	0.579878
Zn15	Zn	-0.201045	1.163830	0.105220
Zn16	Zn	0.298955	1.663830	0.605220
Zn17	Zn	-0.251015	1.113851	-0.105130
Zn18	Zn	0.248985	1.613851	0.394870
O19	O	-0.345403	1.161959	0.079867
O20	O	0.154597	1.661959	0.579867
C21	C	-0.218239	0.964880	0.000037
C22	C	0.281761	1.464880	0.500037
C23	C	-0.207393	0.858736	0.000032
C24	C	0.292607	1.358736	0.500032
C25	C	-0.264491	0.613280	0.000040
C26	C	0.235509	1.113280	0.500040
C27	C	-0.187575	0.664405	0.000041
C28	C	0.312425	1.164405	0.500041
C29	C	-0.198604	0.772541	0.000036
C30	C	0.301396	1.272541	0.500036
C31	C	-0.253464	0.505134	0.000045
C32	C	0.246536	1.005134	0.500045
C33	C	-0.399989	1.146628	0.000040
C34	C	0.100011	1.646628	0.500040
C35	C	-0.506133	1.157472	0.000037
C36	C	-0.006133	1.657472	0.500037
C37	C	-0.700470	1.177299	0.000042
C38	C	-0.200470	1.677299	0.500042
C39	C	-0.751598	1.100384	0.000039
C40	C	-0.251598	1.600384	0.500039
C41	C	-0.859734	1.111416	0.000042
C42	C	-0.359734	1.611416	0.500042
C43	C	-0.592324	1.166268	0.000039
C44	C	-0.092324	1.666268	0.500039
C45	C	-0.052072	1.131053	0.000048
C46	C	0.447928	1.631053	0.500048
C47	C	0.054071	1.120207	0.000044
C48	C	0.554071	1.620207	0.500044
C49	C	-0.233822	1.312800	0.000050
C50	C	0.266178	1.812800	0.500050
C51	C	-0.244669	1.418943	0.000049
C52	C	0.255331	1.918943	0.500049
N53	N	-0.166941	1.197945	0.248778
N54	N	0.333059	1.697945	0.748778
N55	N	-0.285112	1.079742	-0.248689
N56	N	0.214888	1.579742	0.251311
C57	C	-0.380316	0.984458	0.600580
C58	C	0.119684	1.484458	1.100580
C59	C	-0.356426	1.008371	0.701081
C60	C	0.143574	1.508371	1.201081
C61	C	-0.237658	1.127224	0.701053
C62	C	0.262342	1.627224	1.201053
C63	C	-0.261535	1.103317	0.600550
C64	C	0.238465	1.603317	1.100550
C65	C	-0.332866	1.031934	0.550321
C66	C	0.167134	1.531934	1.050321
C67	C	-0.214084	1.150792	0.550291
C68	C	0.285916	1.650792	1.050291
C69	C	-0.237964	1.126891	0.449797
C70	C	0.262036	1.626891	0.949797
C71	C	-0.309294	1.055513	0.399561
C72	C	0.190706	1.555513	0.899561
C73	C	-0.356745	1.008032	0.449827
C74	C	0.143255	1.508032	0.949827
C75	C	-0.142759	1.222180	0.600521
C76	C	0.357241	1.722180	1.100521
C77	C	-0.095308	1.269656	0.550262
C78	C	0.404692	1.769656	1.050262
C79	C	-0.119182	1.245749	0.449766
C80	C	0.380818	1.745749	0.949766
C81	C	-0.190512	1.174371	0.399531
C82	C	0.309488	1.674371	0.899531
C83	C	-0.071731	1.293230	0.399501
C84	C	0.428269	1.793230	0.899501
C85	C	-0.095610	1.269328	0.299006
C86	C	0.404390	1.769328	0.799006
C87	C	-0.214392	1.150469	0.299037
C88	C	0.285608	1.650469	0.799037
H89	H	-0.338619	0.650720	0.000035
H90	H	0.161381	1.150720	0.500035
H91	H	-0.414822	0.949897	0.408929
H92	H	0.085178	1.449897	0.908929
H93	H	-0.328738	1.036056	0.317732
H94	H	0.171262	1.536056	0.817732
Br95	Br	-0.689199	0.976821	0.000040
Br96	Br	-0.189199	1.476821	0.500040
Br97	Br	-0.064013	0.602004	0.000047
Br98	Br	0.435987	1.102004	0.500047
Br99	Br	-0.031217	1.333768	0.230795
Br100	Br	0.468783	1.833768	0.730795
H101	H	-0.737907	1.251429	0.000049
H102	H	-0.237907	1.751429	0.500049
H103	H	-0.272469	1.092335	0.258139
H104	H	0.227531	1.592335	0.758139
H105	H	-0.438394	0.926323	0.559682
H106	H	0.061606	1.426323	1.059682
H107	H	-0.395073	0.969705	0.741997
H108	H	0.104927	1.469705	1.241997
Br109	Br	-0.140859	1.224103	0.769225
Br110	Br	0.359141	1.724103	1.269225
Br111	Br	0.001491	1.366535	0.618435
Br112	Br	0.501491	1.866535	1.118435
H113	H	-0.013660	1.351358	0.440410
H114	H	0.486340	1.851358	0.940410
H115	H	-0.123322	1.241641	0.682350
H116	H	0.376678	1.741641	1.182350
