data_functionalizedCrystal
_audit_creation_method	'MofGen! by Chris Wilmer'
_symmetry_space_group_name_H-M	'P1'
_symmetry_Int_Tables_number	1
_symmetry_cell_setting	triclinic
loop_
_symmetry_equiv_pos_as_xyz
  x,y,z
_cell_length_a	16.704494
_cell_length_b	23.196402
_cell_length_c	23.196401
_cell_angle_alpha	59.999265
_cell_angle_beta	90.005634
_cell_angle_gamma	56.632774
loop_
_atom_site_label
_atom_site_type_symbol
_atom_site_fract_x
_atom_site_fract_y
_atom_site_fract_z
Zr1	Zr	0.815209	0.570735	-0.045492
O2	O	0.680070	0.701008	-0.142542
O3	O	0.856633	0.447402	-0.015744
O4	O	0.856605	0.567690	-0.136020
O5	O	0.680124	0.580702	0.072613
O6	O	0.995863	0.557393	-0.130871
O7	O	0.680098	0.580720	-0.022266
O8	O	0.995913	0.342220	0.084280
O9	O	0.680074	0.795875	-0.142538
O10	O	0.978230	0.487876	0.000790
O11	O	0.874323	0.495546	0.067755
O12	O	0.874290	0.637170	-0.073854
O13	O	0.770383	0.644841	-0.006889
Zr14	Zr	1.037350	0.554284	0.114042
Zr15	Zr	1.037309	0.554313	-0.037280
Zr16	Zr	0.815250	0.570706	0.105830
Zr17	Zr	0.815215	0.722037	-0.045485
Zr18	Zr	1.037344	0.402982	0.114036
O19	O	0.995926	0.677617	0.084295
O20	O	0.995868	0.677658	-0.130866
O21	O	0.680129	0.700967	0.072619
O22	O	1.172489	0.424011	0.211093
O23	O	1.172430	0.424052	-0.004068
O24	O	0.856691	0.447360	0.199416
O25	O	1.172435	0.544317	-0.004063
O26	O	0.995954	0.557329	0.204571
O27	O	0.856696	0.567625	0.199422
O28	O	1.172461	0.544299	0.090817
O29	O	0.856614	0.782822	-0.136011
O30	O	0.995945	0.342197	0.204561
O31	O	1.172485	0.329144	0.211088
O32	O	1.172452	0.329167	0.090807
O33	O	0.680107	0.795852	-0.022257
O34	O	0.856647	0.782799	-0.015730
O35	O	0.978269	0.487849	0.142405
O36	O	1.082176	0.480178	0.075440
O37	O	0.978236	0.629472	0.000796
O38	O	0.874329	0.637143	0.067761
C39	C	0.926272	0.373254	0.034267
C40	C	0.926269	0.309022	0.034264
C41	C	0.980501	0.274848	-0.000694
C42	C	0.980511	0.214486	-0.000688
C43	C	0.926269	0.188314	0.034266
C44	C	0.872035	0.222492	0.069232
C45	C	0.872035	0.282846	0.069231
C46	C	0.835400	0.133004	0.025631
C47	C	0.835397	0.072655	0.025627
C48	C	0.926270	0.002159	0.034273
C49	C	1.017146	-0.007973	0.042909
C50	C	1.017146	0.052381	0.042908
C51	C	0.926264	0.122870	0.034271
C52	C	0.980518	-0.097467	-0.000680
C53	C	0.980530	-0.157834	-0.000669
C54	C	0.872045	-0.149821	0.069246
C55	C	0.872042	-0.089462	0.069240
C56	C	0.926276	-0.063286	0.034273
C57	C	0.648467	0.583051	0.024003
C58	C	0.554179	0.590022	0.020517
C59	C	0.485525	0.447245	0.091912
C60	C	0.396937	0.453792	0.088638
C61	C	0.288413	0.609660	0.010701
C62	C	0.377002	0.603114	0.013974
C63	C	0.475557	0.521904	0.054581
C64	C	0.564146	0.515358	0.057850
C65	C	0.455621	0.671226	-0.020083
C66	C	0.367033	0.677772	-0.023357
C67	C	1.204093	0.541968	0.044547
C68	C	1.298380	0.534996	0.048033
C69	C	0.926228	0.562546	-0.155006
C70	C	0.926211	0.562558	-0.219246
C71	C	0.926287	0.751765	0.034284
C72	C	0.926290	0.815997	0.034287
C73	C	1.002931	0.556887	-0.246573
C74	C	1.002954	0.556869	-0.306918
C75	C	0.926241	0.562539	-0.339944
C76	C	0.849513	0.568206	-0.312608
C77	C	0.849498	0.568216	-0.252259
C78	C	0.832618	0.616956	-0.462785
C79	C	0.832632	0.616952	-0.523136
C80	C	0.926286	0.562507	-0.526079
C81	C	1.019933	0.508076	-0.468669
C82	C	1.019918	0.508085	-0.408320
C83	C	0.926249	0.562529	-0.405383
C84	C	1.003038	0.556814	-0.618838
C85	C	1.003062	0.556791	-0.679183
C86	C	0.849613	0.568138	-0.684876
C87	C	0.849597	0.568152	-0.624528
C88	C	0.926309	0.562494	-0.591515
C89	C	0.926331	0.562473	0.223556
C90	C	0.926348	0.562461	0.287797
C91	C	1.204085	0.352712	0.044539
C92	C	1.298370	0.281509	0.048022
C93	C	0.926323	0.373217	0.223548
C94	C	0.926338	0.308973	0.287785
C95	C	1.204136	0.352676	0.233820
C96	C	1.298438	0.281460	0.301543
C97	C	0.648423	0.772343	-0.165269
C98	C	0.554121	0.843558	-0.232993
C99	C	0.648474	0.772306	0.024012
C100	C	0.554190	0.843509	0.020529
C101	C	0.926236	0.751801	-0.154997
C102	C	0.926221	0.816045	-0.219235
C103	C	1.288388	0.252089	0.010685
C104	C	1.376970	0.185195	0.013943
C105	C	1.475532	0.147718	0.054543
C106	C	1.485512	0.177144	0.091882
C107	C	1.396931	0.244041	0.088619
C108	C	0.980604	0.274785	0.356925
C109	C	0.980614	0.214430	0.417288
C110	C	0.926364	0.188259	0.408511
C111	C	0.872091	0.222453	0.339364
C112	C	0.872076	0.282812	0.279002
C113	C	1.396971	0.244012	0.298392
C114	C	1.485587	0.177105	0.362020
C115	C	1.475667	0.147644	0.428799
C116	C	1.377123	0.185099	0.431948
C117	C	1.288510	0.252009	0.368321
C118	C	0.455588	0.881014	-0.229842
C119	C	0.366972	0.947939	-0.293470
C120	C	0.376892	0.977404	-0.360248
C121	C	0.475436	0.939945	-0.363397
C122	C	0.564049	0.873025	-0.299770
C123	C	0.564171	0.872935	0.057859
C124	C	0.475589	0.939846	0.054584
C125	C	0.377027	0.977325	0.013982
C126	C	0.367047	0.947897	-0.023353
C127	C	0.455628	0.880992	-0.020082
C128	C	0.980482	0.842196	-0.210434
C129	C	0.980488	0.902551	-0.270786
C130	C	0.926227	0.936758	-0.339937
C131	C	0.871965	0.910601	-0.348736
C132	C	0.871965	0.850243	-0.288385
H133	H	1.091141	0.044127	0.049942
N134	N	0.444855	0.849257	-0.060348
H135	H	0.368973	0.883156	-0.086562
H136	H	0.479244	0.786126	-0.025143
H137	H	1.369062	0.161101	0.486327
H138	H	1.024667	0.814354	-0.154133
H139	H	1.024781	0.296087	0.364085
H140	H	0.304907	1.031803	0.011324
H141	H	0.787022	0.572834	-0.230010
H142	H	1.208283	0.282491	0.370896
N143	N	0.444868	0.751755	-0.060355
H144	H	0.405735	0.786969	-0.042421
H145	H	0.405749	0.786894	-0.113495
H146	H	0.827787	0.938462	-0.405047
N147	N	0.766877	0.574243	-0.720483
H148	H	0.726561	0.627487	-0.772155
H149	H	0.718343	0.577803	-0.693956
N150	N	0.670440	0.427769	0.101642
H151	H	0.678752	0.394835	0.153654
H152	H	0.724989	0.435017	0.097994
N153	N	0.737380	0.209042	0.016301
H154	H	0.749591	0.207445	0.059903
H155	H	0.679859	0.206263	0.010803
H156	H	1.065432	0.552250	-0.329172
H157	H	1.208142	0.282603	-0.022385
H158	H	1.096167	0.463764	-0.361577
N159	N	0.813532	-0.052595	0.106938
H160	H	0.758932	0.012030	0.071021
H161	H	0.863363	-0.066842	0.145974
H162	H	0.926385	0.139111	0.457668
H163	H	0.483735	0.963795	0.084991
N164	N	0.813418	0.822057	-0.297886
H165	H	0.821641	0.778631	-0.249166
H166	H	0.841890	0.794965	-0.323529
N167	N	0.260698	0.988316	-0.290061
H168	H	0.206059	1.035183	-0.340498
H169	H	0.252507	1.013896	-0.263659
H170	H	0.304730	1.031895	-0.412052
N171	N	0.260736	0.765359	-0.067145
H172	H	0.206126	0.758179	-0.063554
H173	H	0.252515	0.798251	-0.119137
H174	H	1.024673	0.923841	-0.263607
N175	N	1.571242	0.075464	0.497426
H176	H	1.571307	0.096448	0.526488
H177	H	1.635115	0.056237	0.485236
H178	H	0.756381	0.661277	-0.569878
H179	H	1.565817	0.146616	0.359443
H180	H	0.827922	0.201136	0.332228
N181	N	1.085670	0.550781	-0.210964
H182	H	1.134277	0.547184	-0.237435
H183	H	1.125907	0.497537	-0.159295
N184	N	0.591825	0.359661	0.135696
H185	H	0.584698	0.313357	0.158846
H186	H	0.630958	0.353541	0.174300
H187	H	1.096195	0.463741	-0.471061
H188	H	0.827873	0.201178	0.097692
N189	N	0.486127	0.971728	-0.435425
H190	H	0.415035	1.019802	-0.475248
H191	H	0.525287	0.922746	-0.439576
H192	H	0.926235	0.985905	-0.389073
N193	N	0.260737	0.988313	-0.067130
H194	H	0.221544	1.051801	-0.105768
H195	H	0.221683	0.980627	-0.034608
N196	N	1.038994	0.303080	-0.038406
H197	H	1.073352	0.272268	-0.060551
H198	H	1.093544	0.288540	-0.002455
H199	H	1.024674	0.186657	-0.029156
H200	H	1.091147	-0.065379	0.049958
H201	H	0.827890	0.310640	0.222708
H202	H	1.024812	0.186595	0.473585
H203	H	0.405062	0.392997	0.119038
H204	H	1.024682	-0.076157	-0.029150
N205	N	0.444873	0.849240	-0.157822
H206	H	0.369000	0.883132	-0.165492
H207	H	0.479281	0.857188	-0.129893
H208	H	1.024698	-0.185663	-0.029132
H209	H	0.827881	-0.171130	0.097706
H210	H	1.065505	0.552204	-0.591956
H211	H	0.761400	0.080914	0.018591
H212	H	0.644277	0.842529	-0.302344
N213	N	1.085800	0.550695	-0.708670
H214	H	1.134383	0.547124	-0.678602
H215	H	1.052220	0.603452	-0.760090
H216	H	0.827871	0.310671	0.097698
H217	H	0.644418	0.842424	0.090927
H218	H	1.405068	0.267989	0.244024
H219	H	0.208158	0.675777	-0.022349
N220	N	0.766848	0.574268	-0.595049
H221	H	0.718253	0.577857	-0.625125
H222	H	0.726600	0.627517	-0.596638
H223	H	0.756346	0.661285	-0.460394
H224	H	0.787053	0.572821	-0.339500
H225	H	1.368824	0.161246	-0.016463
N226	N	1.571064	0.075566	0.058056
H227	H	1.571094	0.025486	0.079086
H228	H	1.634972	0.056353	0.089428
N229	N	1.591821	0.136719	0.135670
H230	H	1.646413	0.089875	0.132069
H231	H	1.600049	0.111097	0.187663
H232	H	1.405073	0.267985	0.119028
