data_functionalizedCrystal
_audit_creation_method	'MofGen! by Chris Wilmer'
_symmetry_space_group_name_H-M	'P1'
_symmetry_Int_Tables_number	1
_symmetry_cell_setting	triclinic
loop_
_symmetry_equiv_pos_as_xyz
  x,y,z
_cell_length_a	12.645331
_cell_length_b	16.994747
_cell_length_c	12.645323
_cell_angle_alpha	90.006372
_cell_angle_beta	90.022676
_cell_angle_gamma	90.010038
loop_
_atom_site_label
_atom_site_type_symbol
_atom_site_fract_x
_atom_site_fract_y
_atom_site_fract_z
Zn1	Zn	1.620780	-0.314043	0.599583
Zn2	Zn	1.620682	-0.445958	0.422380
Zn3	Zn	1.443495	-0.314070	0.422327
Zn4	Zn	1.443497	-0.445907	0.599595
O5	O	1.532114	-0.379995	0.510971
O6	O	1.769114	-0.331552	0.576093
O7	O	1.597136	-0.428496	0.274026
O8	O	1.467052	-0.203685	0.445813
O9	O	1.769043	-0.428470	0.445903
O10	O	1.597303	-0.203666	0.576042
O11	O	1.466957	-0.331598	0.273987
O12	O	1.295148	-0.331548	0.445825
O13	O	1.467056	-0.428382	0.747941
O14	O	1.295149	-0.428408	0.576063
O15	O	1.597305	-0.331503	0.747932
O16	O	1.597138	-0.556333	0.445915
O17	O	1.466961	-0.556295	0.576115
C18	C	1.256684	-0.379976	0.510941
C19	C	1.138854	-0.379987	0.510953
C20	C	1.532052	-0.584934	0.511019
C21	C	1.532060	-0.674257	0.511016
Zn22	Zn	1.443525	-0.945156	0.422297
Zn23	Zn	1.620827	-0.945108	0.599536
Zn24	Zn	1.443533	-0.813299	0.599577
Zn25	Zn	1.620702	-0.813214	0.422345
O26	O	1.532147	-0.879194	0.510939
O27	O	1.467094	-1.055531	0.445771
O28	O	1.597365	-0.927639	0.747889
O29	O	1.295185	-0.830846	0.576058
O30	O	1.597357	-1.055496	0.575987
O31	O	1.295179	-0.927721	0.445811
O32	O	1.467108	-0.830800	0.747919
O33	O	1.466986	-0.702907	0.576105
O34	O	1.597143	-0.830700	0.273992
O35	O	1.597151	-0.702844	0.445893
O36	O	1.466972	-0.927638	0.273956
O37	O	1.769158	-0.927556	0.576034
O38	O	1.769066	-0.830654	0.445853
C39	C	0.971253	-0.318772	0.429471
C40	C	1.093813	-0.318930	0.429113
C41	C	1.094346	-0.463080	0.480474
C42	C	0.971748	-0.462746	0.479918
C43	C	0.971701	-0.358899	0.623227
C44	C	1.094307	-0.357043	0.622603
C45	C	1.808619	-0.380014	0.511003
C46	C	1.926449	-0.380022	0.511016
C47	C	1.532192	-0.379934	0.787477
C48	C	1.532225	-0.379908	0.905307
C49	C	1.532180	-0.174254	0.510917
C50	C	1.532213	-0.084932	0.510895
C51	C	1.532097	-0.379998	0.235541
C52	C	1.532269	-0.379802	0.117712
C53	C	1.450032	-0.440567	1.072877
C54	C	1.450248	-0.440868	0.950317
C55	C	1.643928	-0.402468	0.949836
C56	C	1.643477	-0.402849	1.072435
C57	C	1.503771	-0.296348	1.072468
C58	C	1.501279	-0.296849	0.949862
C59	C	1.807577	-0.879092	0.510947
C60	C	1.925407	-0.879072	0.510981
C61	C	1.532043	-0.879165	0.234434
C62	C	1.531998	-0.879153	0.116603
C63	C	1.255642	-0.879299	0.510934
C64	C	1.137812	-0.879343	0.510932
C65	C	1.532175	-0.879268	0.786369
C66	C	1.531924	-0.879431	0.904198
C67	C	2.092957	-0.818263	0.428924
C68	C	1.970397	-0.818025	0.429121
C69	C	1.969907	-0.856576	0.622732
C70	C	2.092505	-0.856133	0.622301
C71	C	2.092617	-0.962524	0.482403
C72	C	1.970011	-0.962084	0.479892
C73	C	1.613524	-0.817954	-0.050938
C74	C	1.613912	-0.818134	0.071622
C75	C	1.562351	-0.962256	0.072094
C76	C	1.562878	-0.961900	-0.050504
C77	C	1.419713	-0.857974	-0.050607
C78	C	1.420369	-0.856139	0.072000
H79	H	1.123904	-0.257313	0.448212
O80	O	1.676486	-0.482429	0.909224
H81	H	1.689020	-0.522809	0.977061
H82	H	1.367416	-0.426750	0.920209
O83	O	1.727405	-0.346786	1.111737
H84	H	1.768140	-0.319528	1.043175
H85	H	1.940928	-0.979048	0.397653
O86	O	1.132589	-0.337394	0.318952
H87	H	1.102857	-0.396122	0.294606
H88	H	2.121617	-1.007827	0.542229
O89	O	1.134937	-0.487221	0.372976
H90	H	1.186796	-0.440177	0.341085
H91	H	1.594893	-0.756513	0.101716
O92	O	1.487551	-1.024358	-0.089816
H93	H	1.424902	-0.996473	-0.138562
O94	O	1.475032	-0.522839	0.911506
H95	H	1.486944	-0.562415	0.980305
H96	H	0.941780	-0.256969	0.448366
O97	O	1.392391	-0.274308	0.911307
H98	H	1.371103	-0.215544	0.943143
H99	H	1.397479	-0.794983	0.101093
O100	O	1.134917	-0.411838	0.707373
H101	H	1.179690	-0.377510	0.767163
H102	H	2.123536	-0.983011	0.402335
O103	O	1.397743	-0.269108	1.113365
H104	H	1.364173	-0.314753	1.166402
O105	O	1.727279	-0.345706	0.911223
H106	H	1.788046	-0.378337	0.865552
H107	H	1.358887	-0.902548	-0.079621
O108	O	1.486071	-1.024289	0.110683
H109	H	1.509266	-1.082426	0.078111
H110	H	1.939377	-1.009811	0.535315
H111	H	1.594707	-0.756136	-0.080406
H112	H	1.696160	-0.831796	-0.081752
H113	H	1.667632	-0.463855	1.101072
O114	O	0.930430	-0.337066	0.319961
H115	H	0.878366	-0.389593	0.323358
H116	H	1.392052	-0.798427	-0.081533
O117	O	1.132843	-0.276048	0.653063
H118	H	1.183518	-0.252227	0.588960
O119	O	0.930777	-0.280037	0.659960
H120	H	0.877722	-0.255015	0.598640
O121	O	1.583107	-0.236375	1.110867
H122	H	1.541640	-0.190127	1.156908
H123	H	1.940765	-0.899498	0.685566
O124	O	1.724039	-0.836693	0.110479
H125	H	1.777224	-0.845584	0.041703
H126	H	1.556799	-0.249182	0.919220
H127	H	1.940310	-0.832096	0.346260
H128	H	2.121106	-0.795131	0.646569
H129	H	0.942729	-0.403511	0.683985
H130	H	1.644878	-0.979853	-0.079106
O131	O	2.132014	-0.836667	0.318846
H132	H	2.183818	-0.889347	0.321494
H133	H	2.123770	-0.756781	0.447668
O134	O	1.339979	-0.422045	1.111890
H135	H	1.338610	-0.424743	1.199578
O136	O	1.929264	-0.776654	0.655419
H137	H	1.877384	-0.752827	0.592260
O138	O	1.474663	-0.522004	1.113774
H139	H	1.545229	-0.519390	1.165886
O140	O	1.669825	-0.986463	0.112738
H141	H	1.701794	-0.939445	0.164625
O142	O	1.931540	-0.736124	0.454232
H143	H	2.000315	-0.696534	0.466294
O144	O	1.132996	-0.525151	0.556672
H145	H	1.064191	-0.553269	0.595924
O146	O	2.131824	-0.912242	0.706134
H147	H	2.063269	-0.939567	0.746809
O148	O	1.335559	-0.910935	0.112507
H149	H	1.332788	-0.907892	0.200143
O150	O	0.933796	-0.486459	0.371256
H151	H	0.963416	-0.546316	0.352422
O152	O	0.932470	-0.525238	0.555157
H153	H	0.961927	-0.512437	0.636047
