data_functionalizedCrystal
_audit_creation_method	'MofGen! by Chris Wilmer'
_symmetry_space_group_name_H-M	'P1'
_symmetry_Int_Tables_number	1
_symmetry_cell_setting	triclinic
loop_
_symmetry_equiv_pos_as_xyz
  x,y,z
_cell_length_a	16.974867
_cell_length_b	17.666332
_cell_length_c	16.974813
_cell_angle_alpha	93.661038
_cell_angle_beta	96.372291
_cell_angle_gamma	93.641793
loop_
_atom_site_label
_atom_site_type_symbol
_atom_site_fract_x
_atom_site_fract_y
_atom_site_fract_z
O1	O	-1.049027	0.004929	0.100741
O2	O	-0.818810	0.019804	0.113585
O3	O	-0.940335	0.004919	-0.007948
O4	O	-0.927501	0.019815	0.222274
O5	O	-0.940314	-0.120977	-0.007954
O6	O	-0.818789	-0.106092	0.113579
O7	O	-1.049005	-0.120967	0.100734
Cu8	Cu	-0.933895	-0.125024	0.107156
Cu9	Cu	-0.933920	0.023862	0.107164
O10	O	-0.927480	-0.106081	0.222267
C11	C	-0.789342	-0.041371	0.113095
C12	C	-0.701568	-0.036089	0.111634
C13	C	-0.207500	0.001059	0.103383
C14	C	-0.289973	-0.003914	0.104756
C15	C	-0.331189	-0.075027	0.105445
C16	C	-0.289929	-0.141171	0.104753
C17	C	-0.207459	-0.136198	0.103374
C18	C	-0.577838	-0.097260	0.109563
C19	C	-0.660314	-0.102228	0.110944
C20	C	-0.660352	0.035029	0.110946
C21	C	-0.577879	0.039997	0.109572
C22	C	-0.536627	-0.026148	0.108876
N23	N	-0.415489	-0.080112	0.106851
N24	N	-0.452330	-0.021063	0.107464
N25	N	-0.933883	-0.229743	0.107150
C26	C	-0.987712	-0.275944	0.053361
C27	C	-0.987717	-0.355192	0.053358
C28	C	-0.933900	-0.388236	0.107156
C29	C	-0.880061	-0.342025	0.160949
C30	C	-0.880052	-0.262779	0.160946
N31	N	-0.923759	-0.507746	0.177132
N32	N	-0.923772	-0.583027	0.177133
C33	C	-0.933921	-0.627001	0.107167
N34	N	-0.944072	-0.592851	0.037199
N35	N	-0.944063	-0.517563	0.037199
C36	C	-0.933903	-0.474165	0.107165
C37	C	-0.987757	-0.759132	0.053370
C38	C	-0.987757	-0.838381	0.053365
C39	C	-0.880105	-0.825213	0.160963
C40	C	-0.880102	-0.745965	0.160961
C41	C	-0.933932	-0.712929	0.107165
C42	C	-0.078473	-0.059793	0.101227
C43	C	-0.166246	-0.065081	0.102694
C44	C	-0.939836	-0.059803	-0.037409
C45	C	-0.938371	-0.065088	-0.125184
N46	N	-0.933938	0.128580	0.107163
C47	C	-0.937696	0.001054	-0.166413
C48	C	-0.936315	-0.003914	-0.248887
C49	C	-0.935614	-0.075025	-0.290131
C50	C	-0.936286	-0.141172	-0.248896
C51	C	-0.937662	-0.136203	-0.166423
C52	C	-0.931492	-0.097245	-0.536788
C53	C	-0.930119	-0.102210	-0.619267
C54	C	-0.930146	0.035049	-0.619253
C55	C	-0.931527	0.040012	-0.536779
C56	C	-0.932195	-0.026135	-0.495550
N57	N	-0.934204	-0.080105	-0.374432
N58	N	-0.933599	-0.021054	-0.411249
C59	C	-0.927979	-0.041358	0.251729
C60	C	-0.929444	-0.036068	0.339504
H61	H	-0.323494	-0.199073	0.105309
H62	H	-0.544327	0.097904	0.109010
H63	H	-0.693869	-0.160139	0.111510
O64	O	-0.929406	0.106389	-0.663722
H65	H	-0.930125	0.156671	-0.621186
H66	H	-0.323559	0.049943	0.105313
H67	H	-1.031542	-0.249049	0.009556
H68	H	-0.836283	-0.852117	0.204764
H69	H	-1.031552	-0.392815	0.009555
O70	O	-0.822018	-0.377659	0.218981
H71	H	-0.831073	-0.440526	0.209953
O72	O	-0.821998	-0.212941	0.218969
H73	H	-0.784577	-0.249228	0.256382
O74	O	-1.045829	-0.888211	-0.004648
H75	H	-1.035841	-0.876170	-0.066287
O76	O	-0.929369	-0.178919	-0.663744
H77	H	-0.982617	-0.188198	-0.708413
O78	O	-0.162956	-0.207532	0.102637
H79	H	-0.205468	-0.257817	0.103356
O80	O	-0.935544	-0.217871	-0.293384
H81	H	-0.881060	-0.219689	-0.323865
H82	H	-0.693949	0.088880	0.111512
H83	H	-0.544262	-0.151121	0.108984
H84	H	-0.173948	0.058967	0.102828
O85	O	-1.045803	-0.723490	-0.004658
H86	H	-1.083227	-0.768934	-0.042073
O87	O	-0.822052	-0.696126	0.218985
H88	H	-0.784634	-0.732415	0.256400
O89	O	-0.938393	-0.207545	-0.121955
H90	H	-0.939460	-0.192143	-0.057677
O91	O	-0.938446	0.077754	-0.121929
H92	H	-0.937735	0.122912	-0.164456
H93	H	-0.935769	0.049946	-0.282453
H94	H	-0.932098	0.097918	-0.503204
O95	O	-0.932233	-0.168587	-0.492327
H96	H	-0.931529	-0.218868	-0.534866
