data_functionalizedCrystal
_audit_creation_method	'MofGen! by Chris Wilmer'
_symmetry_space_group_name_H-M	'P1'
_symmetry_Int_Tables_number	1
_symmetry_cell_setting	triclinic
loop_
_symmetry_equiv_pos_as_xyz
  x,y,z
_cell_length_a	12.645331
_cell_length_b	12.645330
_cell_length_c	16.625539
_cell_angle_alpha	89.973614
_cell_angle_beta	89.986159
_cell_angle_gamma	90.011881
loop_
_atom_site_label
_atom_site_type_symbol
_atom_site_fract_x
_atom_site_fract_y
_atom_site_fract_z
Zn1	Zn	1.620748	-0.422059	-0.455775
Zn2	Zn	1.620652	-0.599345	-0.320947
Zn3	Zn	1.443469	-0.422094	-0.320972
Zn4	Zn	1.443460	-0.599279	-0.455753
O5	O	1.532082	-0.510694	-0.388362
O6	O	1.769083	-0.445590	-0.437889
O7	O	1.597111	-0.575875	-0.208118
O8	O	1.467030	-0.273742	-0.338873
O9	O	1.769012	-0.575841	-0.338832
O10	O	1.597276	-0.273716	-0.437913
O11	O	1.466936	-0.445649	-0.208136
O12	O	1.295121	-0.445584	-0.338852
O13	O	1.467015	-0.575728	-0.568588
O14	O	1.295114	-0.575761	-0.437875
O15	O	1.597268	-0.445525	-0.568605
O16	O	1.597103	-0.747684	-0.338810
O17	O	1.466921	-0.747635	-0.437851
C18	C	1.256653	-0.510670	-0.388364
C19	C	1.138823	-0.510685	-0.388384
C20	C	0.971290	-0.593029	-0.450354
C21	C	1.093850	-0.592763	-0.450614
C22	C	1.094334	-0.399031	-0.411601
C23	C	0.971736	-0.399533	-0.412038
C24	C	0.971583	-0.539098	-0.302999
C25	C	1.094189	-0.541539	-0.303460
C26	C	1.532029	-0.786124	-0.388343
C27	C	1.532104	-0.903954	-0.388361
C28	C	1.613869	-1.071505	-0.325928
C29	C	1.614136	-0.948944	-0.326081
C30	C	1.562400	-0.948338	-0.473351
C31	C	1.563049	-1.070936	-0.473020
C32	C	1.420009	-1.071280	-0.366642
C33	C	1.420547	-0.948675	-0.364736
C34	C	1.808588	-0.510719	-0.388360
C35	C	1.926418	-0.510730	-0.388359
C36	C	1.532151	-0.510615	-0.598671
C37	C	1.532181	-0.510582	-0.688292
C38	C	1.532165	-0.234189	-0.388399
C39	C	1.532200	-0.116359	-0.388414
C40	C	1.532230	-0.510463	-1.016468
C41	C	1.532213	-0.510499	-0.925159
C42	C	1.532206	-0.510523	-0.852383
C43	C	1.532188	-0.510558	-0.761068
C44	C	1.532075	-0.510696	-0.178871
C45	C	1.532251	-0.510431	-0.089250
H46	H	0.943156	-0.375472	-0.474440
N47	N	1.664120	-0.909749	-0.496885
N48	N	1.702658	-0.936216	-0.563125
H49	H	1.774502	-0.908966	-0.579743
N50	N	0.935155	-0.463913	-0.245048
N51	N	0.881284	-0.493968	-0.186278
H52	H	0.855550	-0.440865	-0.145357
H53	H	0.941807	-0.676101	-0.435964
N54	N	0.932817	-0.639491	-0.276509
N55	N	0.960347	-0.675364	-0.209647
H56	H	0.932970	-0.746271	-0.190946
H57	H	1.356414	-0.918061	-0.406912
N58	N	0.932657	-0.569773	-0.529236
N59	N	0.872219	-0.492851	-0.539993
H60	H	0.844932	-0.476422	-0.595703
N61	N	1.132587	-0.471777	-0.242414
N62	N	1.113371	-0.374964	-0.246489
H63	H	1.140490	-0.325684	-0.203379
N64	N	1.130657	-0.644611	-0.281469
N65	N	1.065613	-0.716983	-0.268158
H66	H	1.091375	-0.789776	-0.252623
N67	N	1.130646	-0.569186	-0.529959
N68	N	1.106151	-0.483558	-0.562594
H69	H	1.132133	-0.466900	-0.618636
H70	H	1.697231	-0.919538	-0.340481
H71	H	1.696519	-1.102236	-0.340167
N72	N	1.490076	-0.911773	-0.533339
N73	N	1.501740	-0.939140	-0.605029
H74	H	1.450662	-0.913314	-0.647396
H75	H	1.392458	-1.102287	-0.305748
H76	H	1.595180	-0.918940	-0.263062
H77	H	0.942051	-0.336017	-0.368954
H78	H	1.645054	-1.099450	-0.491463
N79	N	1.491693	-1.108180	-0.533424
N80	N	1.479468	-1.205286	-0.543945
H81	H	1.429081	-1.231588	-0.586610
N82	N	1.132843	-0.368301	-0.489045
N83	N	1.069268	-0.350215	-0.544941
H84	H	1.096463	-0.328517	-0.599638
N85	N	1.391901	-0.912300	-0.286271
N86	N	1.453358	-0.853654	-0.247847
H87	H	1.433132	-0.827959	-0.192430
H88	H	1.359159	-1.100287	-0.412154
H89	H	1.123463	-0.336046	-0.367858
N90	N	1.131577	-0.696636	-0.432361
N91	N	1.067361	-0.769835	-0.419343
H92	H	1.093999	-0.843202	-0.406455
H93	H	1.595151	-1.101056	-0.262725
