data_functionalizedCrystal
_audit_creation_method	'MofGen! by Chris Wilmer'
_symmetry_space_group_name_H-M	'P1'
_symmetry_Int_Tables_number	1
_symmetry_cell_setting	triclinic
loop_
_symmetry_equiv_pos_as_xyz
  x,y,z
_cell_length_a	20.299480
_cell_length_b	20.298645
_cell_length_c	20.294903
_cell_angle_alpha	60.007695
_cell_angle_beta	60.015306
_cell_angle_gamma	59.991039
loop_
_atom_site_label
_atom_site_type_symbol
_atom_site_fract_x
_atom_site_fract_y
_atom_site_fract_z
O1	O	0.091305	-0.962534	0.804873
O2	O	0.034397	-0.749399	0.648508
O3	O	0.169355	-0.884263	0.648401
O4	O	-0.043654	-0.827670	0.804979
O5	O	0.214132	-0.839502	0.693072
O6	O	0.079173	-0.704639	0.693178
O7	O	0.136081	-0.917774	0.849544
Zn8	Zn	0.114736	-0.804099	0.778453
Zn9	Zn	0.055742	-0.863073	0.719598
O10	O	0.001122	-0.782910	0.849650
N11	N	0.155000	-0.763857	0.818624
N12	N	0.015485	-0.903322	0.679427
C13	C	0.179343	-0.615641	0.842971
C14	C	0.179443	-0.739552	0.966834
C15	C	0.303264	-0.739536	0.842917
C16	C	0.179356	-0.739528	0.842952
C17	C	0.210353	-0.708565	0.873918
C18	C	-0.132622	-0.927446	0.654695
C19	C	-0.008595	-0.927622	0.530981
C20	C	-0.008820	-1.051459	0.654914
C21	C	-0.008800	-0.927618	0.654995
C22	C	-0.039709	-0.958538	0.623897
N23	N	0.376268	-0.763873	0.818558
O24	O	0.652281	-0.777347	0.619856
O25	O	0.652556	-0.934198	0.832777
O26	O	0.652445	-0.933836	0.697731
O27	O	0.652392	-0.777709	0.754902
O28	O	0.518259	-0.889182	0.742556
O29	O	0.518369	-0.889544	0.877602
O30	O	0.518095	-0.732693	0.664680
Zn31	Zn	0.496927	-0.804029	0.778258
Zn32	Zn	0.673724	-0.862862	0.719200
O33	O	0.518205	-0.733055	0.799726
N34	N	0.794383	-0.903019	0.678891
N35	N	0.154981	-0.542636	0.818657
O36	O	-0.043628	-0.266455	0.805024
O37	O	0.169291	-0.266451	0.648191
O38	O	0.034217	-0.266468	0.648577
O39	O	0.091446	-0.266438	0.804638
O40	O	0.078998	-0.400670	0.693303
O41	O	0.214071	-0.400653	0.692918
O42	O	0.001152	-0.400657	0.849750
Zn43	Zn	0.114722	-0.421963	0.778435
Zn44	Zn	0.055722	-0.245145	0.719506
O45	O	0.136226	-0.400640	0.849364
N46	N	0.015453	-0.124472	0.679286
N47	N	0.155155	-0.763898	1.039838
O48	O	0.141555	-0.962488	1.315987
O49	O	-0.015254	-0.749480	1.316022
O50	O	-0.014890	-0.884527	1.315962
O51	O	0.141192	-0.827441	1.316047
O52	O	0.029815	-0.839777	1.181768
O53	O	0.029452	-0.704730	1.181828
O54	O	0.186261	-0.917739	1.181793
Zn55	Zn	0.114954	-0.804130	1.160504
Zn56	Zn	0.056053	-0.863089	1.337311
O57	O	0.185897	-0.782692	1.181853
N58	N	0.015850	-0.903330	1.457977
C59	C	0.051451	-0.700162	0.649301
C60	C	0.218580	-0.867175	0.649169
C61	C	0.119026	-0.967011	0.848750
C62	C	-0.048103	-0.799998	0.848882
C63	C	0.585495	-0.933471	0.882014
C64	C	0.585361	-0.933023	0.714775
C65	C	0.585151	-0.733419	0.615444
C66	C	0.585291	-0.733869	0.782682
C67	C	0.218449	-0.333386	0.648902
C68	C	0.051232	-0.333573	0.649435
C69	C	-0.048061	-0.333556	0.848984
C70	C	0.119212	-0.333537	0.848507
C71	C	-0.014496	-0.700269	1.248929
C72	C	-0.014037	-0.867500	1.248828
C73	C	0.185503	-0.966949	1.248886
C74	C	0.185054	-0.799709	1.248957
H75	H	0.039295	-0.638935	0.600193
H76	H	-0.109209	-0.333558	0.898221
C77	C	0.135719	-0.333584	0.913800
C78	C	0.214497	-0.333606	0.884542
C79	C	0.229737	-0.333667	0.944672
H80	H	0.098574	-0.286802	0.928550
H81	H	0.129776	-0.380407	0.959686
H82	H	0.220433	-0.286788	0.838671
H83	H	0.251659	-0.380384	0.869798
H84	H	0.223795	-0.380489	0.990557
H85	H	0.192588	-0.286884	0.959418
H86	H	0.283192	-0.333688	0.924831
H87	H	-0.063051	-0.879692	1.248749
H88	H	-0.063726	-0.639093	1.248939
H89	H	0.585279	-0.684826	0.794916
C90	C	0.251035	-1.048584	1.248910
C91	C	0.222119	-1.098381	1.248894
C92	C	0.282462	-1.173591	1.248925
H93	H	0.296914	-1.041632	1.202133
H94	H	0.265696	-1.072782	1.295732
H95	H	0.207470	-1.074189	1.202076
H96	H	0.176249	-1.105356	1.295667
H97	H	0.297122	-1.197789	1.295747
H98	H	0.328337	-1.166631	1.202147
H99	H	0.262848	-1.207391	1.248922
H100	H	0.279759	-0.879241	0.599998
H101	H	0.131184	-1.028235	0.897860
C102	C	0.585261	-0.998457	0.698621
C103	C	0.516288	-1.020023	0.753621
C104	C	0.516173	-1.080305	0.738771
H105	H	0.585163	-0.978821	0.645237
H106	H	0.632066	-1.044365	0.704637
H107	H	0.469495	-0.974124	0.747598
H108	H	0.516371	-1.039672	0.807010
H109	H	0.562979	-1.126214	0.744788
H110	H	0.516078	-1.060664	0.685386
H111	H	0.469381	-1.094951	0.776091
C112	C	0.299850	-0.332842	0.583169
C113	C	0.349618	-0.332659	0.612012
C114	C	0.424607	-0.332147	0.551478
H115	H	0.324283	-0.379525	0.568248
H116	H	0.292524	-0.285922	0.537462
H117	H	0.356946	-0.379574	0.657704
H118	H	0.325211	-0.285979	0.626927
H119	H	0.417281	-0.285227	0.505772
H120	H	0.449032	-0.378831	0.536562
H121	H	0.458381	-0.332015	0.571037
H122	H	0.038975	-0.333574	0.600406
C123	C	0.250353	-0.783262	1.248936
C124	C	0.221104	-0.704476	1.248937
C125	C	0.281238	-0.689294	1.248907
H126	H	0.265103	-0.820420	1.295718
H127	H	0.296233	-0.789237	1.202119
H128	H	0.175238	-0.698510	1.295749
H129	H	0.206359	-0.667303	1.202158
H130	H	0.327118	-0.695268	1.202090
H131	H	0.295984	-0.726456	1.295690
H132	H	0.261403	-0.635835	1.248900
C133	C	-0.129640	-0.784091	0.914538
C134	C	-0.129632	-0.853048	0.983530
C135	C	-0.204732	-0.838428	1.044024
H136	H	-0.139529	-0.740142	0.927265
H137	H	-0.170701	-0.771360	0.896047
H138	H	-0.088582	-0.865768	1.002018
H139	H	-0.119756	-0.897006	0.970829
H140	H	-0.245794	-0.825697	1.025534
H141	H	-0.214615	-0.794477	1.056745
H142	H	-0.204739	-0.885214	1.090840
C143	C	0.585763	-0.999158	0.963511
C144	C	0.654834	-1.017691	0.977772
C145	C	0.655114	-1.078205	1.052834
H146	H	0.539041	-0.980762	1.004664
H147	H	0.585836	-1.046040	0.963595
H148	H	0.654754	-0.970818	0.977695
H149	H	0.701567	-1.036100	0.936639
H150	H	0.655187	-1.125087	1.052918
H151	H	0.608390	-1.059803	1.093980
H152	H	0.701981	-1.090793	1.062517
C153	C	0.585075	-0.667867	0.533847
C154	C	0.585069	-0.696792	0.484034
C155	C	0.585007	-0.636431	0.408859
H156	H	0.538266	-0.621999	0.540843
H157	H	0.631859	-0.653179	0.509638
H158	H	0.538289	-0.711468	0.508238
H159	H	0.631874	-0.742652	0.477015
H160	H	0.631792	-0.621744	0.384650
H161	H	0.538197	-0.590567	0.415863
H162	H	0.585010	-0.656050	0.375049
