data_functionalizedCrystal
_audit_creation_method	'MofGen! by Chris Wilmer'
_symmetry_space_group_name_H-M	'P1'
_symmetry_Int_Tables_number	1
_symmetry_cell_setting	triclinic
loop_
_symmetry_equiv_pos_as_xyz
  x,y,z
_cell_length_a	17.077404
_cell_length_b	12.827891
_cell_length_c	12.827893
_cell_angle_alpha	89.994485
_cell_angle_beta	90.007807
_cell_angle_gamma	89.972752
loop_
_atom_site_label
_atom_site_type_symbol
_atom_site_fract_x
_atom_site_fract_y
_atom_site_fract_z
Zn1	Zn	1.199916	0.416264	0.590968
Zn2	Zn	1.199840	0.590972	0.416233
Zn3	Zn	1.068679	0.416241	0.416230
Zn4	Zn	1.068601	0.590958	0.590922
O5	O	1.134259	0.503609	0.503588
O6	O	1.309752	0.439455	0.567810
O7	O	1.182442	0.567790	0.269997
O8	O	1.086151	0.270008	0.439427
O9	O	1.309697	0.567813	0.439433
O10	O	1.182571	0.270025	0.567806
O11	O	1.086078	0.439415	0.269994
O12	O	0.958821	0.439402	0.439382
O13	O	1.086020	0.567788	0.737164
O14	O	0.958765	0.567766	0.567728
O15	O	1.182496	0.439441	0.737198
O16	O	1.182367	0.737207	0.439388
O17	O	1.085946	0.737196	0.567731
C18	C	0.930311	0.503580	0.503550
C19	C	0.843061	0.503593	0.503559
C20	C	0.467273	0.436922	0.570579
C21	C	0.549253	0.436914	0.570567
C22	C	0.590212	0.503631	0.503614
C23	C	0.549187	0.570367	0.436676
C24	C	0.467208	0.570379	0.436694
C25	C	0.720057	0.570335	0.436643
C26	C	0.802041	0.570322	0.436623
C27	C	0.802102	0.436871	0.570516
C28	C	0.720123	0.436883	0.570533
C29	C	0.679103	0.503617	0.503594
C30	C	1.134161	0.775119	0.503578
C31	C	1.134191	0.891272	0.503609
C32	C	1.086570	1.063176	0.440084
C33	C	1.086538	0.943125	0.440051
C34	C	1.339003	0.503638	0.503627
C35	C	1.426253	0.503650	0.503643
C36	C	1.134333	1.231039	0.503630
C37	C	1.134251	1.114885	0.503669
C38	C	1.134258	0.503615	0.776158
C39	C	1.134257	0.503618	0.892311
C40	C	1.181934	0.567138	1.064142
C41	C	1.181935	0.567137	0.944091
C42	C	1.134254	0.503625	1.232078
C43	C	1.134255	0.503622	1.115925
H44	H	0.686661	0.624682	0.382138
C45	C	0.422086	0.643778	0.363063
H46	H	0.458219	0.683504	0.323179
H47	H	0.390102	0.689378	0.402967
H48	H	0.390107	0.603728	0.317602
C49	C	1.031388	0.883064	0.366506
H50	H	1.001499	0.931170	0.326631
H51	H	0.997180	0.840505	0.406462
H52	H	1.061467	0.840472	0.321033
C53	C	0.422221	0.363534	0.644225
H54	H	0.367522	0.373089	0.634644
H55	H	0.435668	0.378939	0.714409
H56	H	0.435674	0.293290	0.629042
C57	C	1.189346	0.951326	0.577154
H58	H	1.219243	0.903220	0.617018
H59	H	1.159275	0.993926	0.622620
H60	H	1.223558	0.993877	0.537186
C61	C	1.237079	0.640602	1.124305
H62	H	1.229848	0.630960	1.197100
H63	H	1.225577	0.710830	1.106459
H64	H	1.289843	0.625321	1.106482
C65	C	1.237080	0.640603	0.883940
H66	H	1.229842	0.630970	0.811144
H67	H	1.289841	0.625338	0.901788
H68	H	1.225565	0.710834	0.901766
C69	C	0.847217	0.363463	0.644151
H70	H	0.811082	0.323721	0.684018
H71	H	0.879196	0.403501	0.689613
H72	H	0.879200	0.317861	0.604238
H73	H	1.045770	1.107782	0.385675
H74	H	0.582648	0.382581	0.625076
H75	H	0.582542	0.624692	0.382166
H76	H	1.175045	1.070280	0.558086
C77	C	0.847095	0.643730	0.362999
H78	H	0.810926	0.683491	0.323150
H79	H	0.879082	0.603694	0.317521
H80	H	0.879065	0.689313	0.402918
C81	C	0.675069	0.363496	0.644179
H82	H	0.711239	0.323757	0.684050
H83	H	0.643091	0.317907	0.604289
H84	H	0.643090	0.403560	0.689651
C85	C	1.079108	0.430149	0.952451
H86	H	1.049200	0.390293	0.904391
H87	H	1.044918	0.470155	0.995022
H88	H	1.109191	0.384655	0.995037
H89	H	1.093434	0.449246	1.071382
