data_functionalizedCrystal
_audit_creation_method	'MofGen! by Chris Wilmer'
_symmetry_space_group_name_H-M	'P1'
_symmetry_Int_Tables_number	1
_symmetry_cell_setting	triclinic
loop_
_symmetry_equiv_pos_as_xyz
  x,y,z
_cell_length_a	13.635800
_cell_length_b	7.190339
_cell_length_c	7.076028
_cell_angle_alpha	96.846815
_cell_angle_beta	117.700652
_cell_angle_gamma	60.611724
loop_
_atom_site_label
_atom_site_type_symbol
_atom_site_fract_x
_atom_site_fract_y
_atom_site_fract_z
V1	V	-2.142688	0.291705	-0.663512
V2	V	-1.642688	0.791705	-0.163512
O3	O	-2.089350	-0.017514	-0.652433
O4	O	-1.589350	0.482486	-0.152433
O5	O	-2.160490	0.581764	-0.657482
O6	O	-1.660490	1.081764	-0.157482
O7	O	-2.155299	0.285683	-0.953573
O8	O	-1.655299	0.785683	-0.453573
O9	O	-2.094576	0.280616	-0.354292
O10	O	-1.594576	0.780616	0.145708
V11	V	-2.374290	0.254900	-0.626708
V12	V	-1.874290	0.754900	-0.126708
O13	O	-2.295604	0.372439	-0.744245
O14	O	-1.795604	0.872439	-0.244245
O15	O	-2.446473	0.174165	-0.545976
O16	O	-1.946473	0.674165	-0.045976
O17	O	-2.244886	-0.035159	-0.632738
O18	O	-1.744886	0.464841	-0.132738
O19	O	-2.486327	0.564118	-0.637787
O20	O	-1.986327	1.064118	-0.137787
O21	O	-2.481101	0.265988	-0.935928
O22	O	-1.981101	0.765988	-0.435928
O23	O	-2.250076	0.260921	-0.336647
O24	O	-1.750076	0.760921	0.163353
V25	V	-1.874283	0.254900	-0.626708
V26	V	-1.374283	0.754900	-0.126708
O27	O	-1.922395	0.265988	-0.935928
O28	O	-1.422395	0.765988	-0.435928
O29	O	-1.861672	0.260921	-0.336647
O30	O	-1.361672	0.760921	0.163353
O31	O	-1.856481	-0.035159	-0.632738
O32	O	-1.356481	0.464841	-0.132738
O33	O	-1.927621	0.564118	-0.637787
O34	O	-1.427621	1.064118	-0.137787
V35	V	-1.642681	0.291705	-0.663512
V36	V	-1.142681	0.791705	-0.163512
O37	O	-1.721367	0.174165	-0.545976
O38	O	-1.221367	0.674165	-0.045976
O39	O	-1.570498	0.372439	-0.744245
O40	O	-1.070498	0.872439	-0.244245
O41	O	-1.766895	0.285683	-0.953573
O42	O	-1.266895	0.785683	-0.453573
O43	O	-1.535871	0.280616	-0.354292
O44	O	-1.035871	0.780616	0.145708
O45	O	-1.530644	-0.017514	-0.652433
O46	O	-1.030644	0.482486	-0.152433
O47	O	-1.772086	0.581764	-0.657482
O48	O	-1.272086	1.081764	-0.157482
C49	C	-2.092026	0.652525	-0.646640
C50	C	-1.592026	1.152525	-0.146640
C51	C	-2.148513	0.894100	-0.643592
C52	C	-1.648513	1.394100	-0.143592
C53	C	-2.151644	0.271768	-0.265888
C54	C	-1.651644	0.771768	0.234112
C55	C	-2.088876	0.274826	-0.024313
C56	C	-1.588876	0.774826	0.475687
C57	C	-1.931567	0.271765	-0.265886
C58	C	-1.431567	0.771765	0.234114
C59	C	-1.879372	0.274818	-0.024311
C60	C	-1.379372	0.774818	0.475689
C61	C	-1.924951	-0.105906	-0.643594
C62	C	-1.424951	0.394094	-0.143594
C63	C	-1.868471	-0.347477	-0.646668
C64	C	-1.368471	0.152523	-0.146668
