data_functionalizedCrystal
_audit_creation_method	'MofGen! by Chris Wilmer'
_symmetry_space_group_name_H-M	'P1'
_symmetry_Int_Tables_number	1
_symmetry_cell_setting	triclinic
loop_
_symmetry_equiv_pos_as_xyz
  x,y,z
_cell_length_a	10.723024
_cell_length_b	10.540539
_cell_length_c	9.798715
_cell_angle_alpha	89.998989
_cell_angle_beta	89.996609
_cell_angle_gamma	84.496680
loop_
_atom_site_label
_atom_site_type_symbol
_atom_site_fract_x
_atom_site_fract_y
_atom_site_fract_z
O1	O	1.657276	0.178046	-0.113475
O2	O	1.294132	0.195088	-0.113479
O3	O	1.483989	0.001856	-0.113475
O4	O	1.467419	0.371278	-0.113479
O5	O	1.483974	0.001856	0.113507
O6	O	1.294118	0.195088	0.113503
O7	O	1.657262	0.178045	0.113507
Zn8	Zn	1.475687	0.186567	0.149543
Zn9	Zn	1.475706	0.186567	-0.149515
O10	O	1.467405	0.371277	0.113503
C11	C	1.247624	0.193848	0.000011
C12	C	1.109068	0.190137	0.000010
C13	C	1.034139	0.298260	0.000008
C14	C	0.890934	0.294427	0.000006
C15	C	1.482739	-0.045446	0.000013
C16	C	1.479021	-0.186392	0.000006
C17	C	1.336563	-0.369746	-0.000505
C18	C	1.340332	-0.223130	0.000006
C19	C	1.545757	-0.248085	0.129625
C20	C	1.541023	-0.394627	0.129734
C21	C	1.543860	-0.395146	-0.128387
C22	C	1.545138	-0.248165	-0.130101
C23	C	1.703769	0.179286	0.000013
C24	C	1.842325	0.182997	0.000006
C25	C	1.468654	0.418580	0.000012
C26	C	1.472372	0.559526	0.000010
N27	N	1.475684	0.186565	0.353643
N28	N	1.475720	0.186559	-0.353615
C29	C	1.555399	0.105075	0.421421
C30	C	1.555419	0.105071	0.578584
H31	H	1.076009	0.393665	0.000015
H32	H	1.647606	-0.225783	0.134445
H33	H	0.906704	0.090430	-0.000001
C34	C	0.803963	0.419475	0.000004
H35	H	0.719123	0.400494	0.000013
H36	H	0.819554	0.467540	-0.079147
H37	H	0.819542	0.467531	0.079170
C38	C	1.483239	-0.437731	-0.261110
H39	H	1.527789	-0.409418	-0.337343
H40	H	1.398558	-0.401990	-0.265095
H41	H	1.485983	-0.528071	-0.262775
C42	C	1.262845	-0.410497	0.124364
H43	H	1.314475	-0.470424	0.176813
H44	H	1.190681	-0.448336	0.094564
H45	H	1.237923	-0.337865	0.178771
C46	C	1.383516	0.280820	0.567669
H47	H	1.333523	0.331949	0.630594
H48	H	1.331068	0.234788	0.511933
H49	H	1.429083	0.333896	0.511923
C50	C	1.647616	0.010815	0.657315
H51	H	1.635528	0.023170	0.752617
H52	H	1.731101	0.025108	0.633948
H53	H	1.633080	-0.073995	0.633968
H54	H	1.640766	-0.442646	0.135615
C55	C	1.268887	-0.166669	0.125731
H56	H	1.270937	-0.076764	0.126466
H57	H	1.307258	-0.201932	0.206362
H58	H	1.184372	-0.186463	0.121917
H59	H	1.499387	-0.205461	0.226081
H60	H	1.491691	-0.422801	0.226625
H61	H	1.067199	0.094732	-0.000024
H62	H	1.287821	-0.180499	-0.092910
H63	H	1.496308	-0.207281	-0.225990
H64	H	1.281784	-0.398318	-0.093457
H65	H	1.646253	-0.223995	-0.137927
C66	C	1.647577	0.010825	0.342643
H67	H	1.635476	0.023197	0.247347
H68	H	1.633063	-0.073983	0.365999
H69	H	1.731071	0.025132	0.365973
H70	H	1.407446	0.256325	0.411966
H71	H	1.644035	-0.442423	-0.129258
