data_functionalizedCrystal
_audit_creation_method	'MofGen! by Chris Wilmer'
_symmetry_space_group_name_H-M	'P1'
_symmetry_Int_Tables_number	1
_symmetry_cell_setting	triclinic
loop_
_symmetry_equiv_pos_as_xyz
  x,y,z
_cell_length_a	6.817900
_cell_length_b	16.015009
_cell_length_c	16.015572
_cell_angle_alpha	60.346181
_cell_angle_beta	104.485554
_cell_angle_gamma	104.487874
loop_
_atom_site_label
_atom_site_type_symbol
_atom_site_fract_x
_atom_site_fract_y
_atom_site_fract_z
V1	V	-3.988169	-0.038676	-0.257230
O2	O	-3.988559	0.098579	-0.295267
O3	O	-3.928272	-0.169710	-0.214178
O4	O	-3.928265	0.004358	-0.388255
O5	O	-3.988567	-0.076695	-0.119985
V6	V	-4.474777	-0.027273	-0.245830
O7	O	-4.242659	-0.063689	-0.282235
O8	O	-4.670484	-0.002260	-0.220825
O9	O	-4.311468	0.103761	-0.288882
O10	O	-4.591784	-0.164529	-0.207793
O11	O	-4.591777	0.010745	-0.383075
O12	O	-4.311475	-0.070308	-0.114805
C13	C	-3.770849	-0.202980	-0.199466
C14	C	-3.803086	-0.309829	-0.165140
C15	C	-3.770838	0.019063	-0.421517
C16	C	-3.803067	0.053381	-0.528360
C17	C	-3.817370	-0.474343	-0.033264
C18	C	-3.787080	-0.373940	-0.065529
C19	C	-3.849401	-0.346103	-0.232526
C20	C	-3.879706	-0.446506	-0.200276
C21	C	-3.863685	-0.510618	-0.100644
C22	C	-3.926021	-0.482781	-0.267655
C23	C	-3.956313	-0.583175	-0.235407
C24	C	-3.940290	-0.647293	-0.135779
C25	C	-3.893976	-0.611012	-0.068396
C26	C	-3.942028	-0.418667	-0.367287
C27	C	-3.988343	-0.454943	-0.434666
C28	C	-4.018650	-0.555338	-0.402419
C29	C	-4.002627	-0.619456	-0.302791
C30	C	-4.064963	-0.591620	-0.469802
C31	C	-4.095255	-0.692013	-0.437554
C32	C	-4.032918	-0.719850	-0.270543
C33	C	-4.064975	-0.251227	-0.810197
C34	C	-4.095267	-0.218949	-0.910597
C35	C	-4.032931	-0.051951	-0.938409
C36	C	-4.002623	-0.084216	-0.838009
C37	C	-4.018652	-0.183855	-0.773910
C38	C	-3.956300	-0.016843	-0.801722
C39	C	-3.926006	-0.049106	-0.701331
C40	C	-3.942036	-0.148740	-0.637226
C41	C	-3.988358	-0.216117	-0.673518
C42	C	-3.940287	0.082795	-0.865823
C43	C	-3.893963	0.150167	-0.829536
C44	C	-3.863654	0.117906	-0.729143
C45	C	-3.879684	0.018271	-0.665038
C46	C	-3.817332	0.185282	-0.692850
C47	C	-3.787039	0.153020	-0.592459
C48	C	-3.849390	-0.013991	-0.564647
C49	C	-4.132233	0.137025	-0.303590
C50	C	-4.079233	0.243875	-0.337922
C51	C	-4.132244	-0.085017	-0.081537
C52	C	-4.079254	-0.119331	0.025305
H53	H	-4.019886	-0.772055	-0.189413
H54	H	-3.964924	0.109060	-0.947567
H55	H	-4.078000	-0.332363	-0.758002
H56	H	-4.132962	-0.721548	-0.492421
C57	C	-3.994585	-0.276500	-1.004180
C58	C	-4.146183	-0.293014	-0.950483
H59	H	-4.026033	-0.322221	-1.028807
H60	H	-3.865544	-0.283539	-0.963437
H61	H	-3.989394	-0.212543	-1.056724
H62	H	-4.151364	-0.356969	-0.897934
H63	H	-4.275258	-0.285983	-0.991227
C64	C	-3.602627	0.340645	-0.744295
C65	C	-3.799743	0.294804	-0.763309
H66	H	-3.591781	0.408261	-0.787789
H67	H	-3.504470	0.313714	-0.752894
H68	H	-3.577963	0.331063	-0.679308
H69	H	-3.824401	0.304380	-0.828294
H70	H	-3.897929	0.321744	-0.754718
C71	C	-3.818199	0.103401	-0.989842
C72	C	-4.015321	0.057571	-1.008866
H73	H	-3.807335	0.171018	-1.033333
H74	H	-3.720047	0.076465	-0.998438
H75	H	-3.793544	0.093816	-0.924854
H76	H	-4.039971	0.067150	-1.073851
H77	H	-4.113502	0.084516	-1.000278
C78	C	-4.052655	-0.285621	-0.371103
C79	C	-3.908762	-0.308311	-0.402747
H80	H	-4.032130	-0.217491	-0.393002
H81	H	-4.036472	-0.318601	-0.302133
H82	H	-4.186952	-0.305370	-0.396728
H83	H	-3.774465	-0.288568	-0.377115
H84	H	-3.924928	-0.275319	-0.471731
H85	H	-3.749319	0.207882	-0.562914
C86	C	-3.721381	-0.162975	-0.506784
C87	C	-3.866408	-0.123479	-0.494057
H88	H	-3.731724	-0.230554	-0.463172
H89	H	-3.587822	-0.131634	-0.494084
H90	H	-3.746268	-0.153536	-0.571726
H91	H	-3.841512	-0.132911	-0.429116
H92	H	-3.999997	-0.154830	-0.506750
C93	C	-4.161375	-0.329081	-0.570877
C94	C	-4.005961	-0.384467	-0.544180
H95	H	-4.172261	-0.285578	-0.638489
H96	H	-4.129437	-0.293109	-0.535369
H97	H	-4.287836	-0.370996	-0.556894
H98	H	-3.879496	-0.342552	-0.558156
H99	H	-4.037888	-0.420441	-0.579700
H100	H	-3.917373	-0.175007	-0.555481
C101	C	-3.720947	-0.736876	0.067821
C102	C	-3.876364	-0.681492	0.041124
H103	H	-3.710081	-0.780389	0.135430
H104	H	-3.594498	-0.694968	0.053849
H105	H	-3.752882	-0.772845	0.032301
H106	H	-3.844421	-0.645518	0.076639
H107	H	-4.002841	-0.723406	0.055106
H108	H	-3.964944	-0.729039	-0.109524
H109	H	-3.804337	-0.526547	0.047866
C110	C	-3.712955	-0.232407	-0.040798
C111	C	-3.736168	-0.334065	0.008543
H112	H	-3.681507	-0.207791	0.004931
H113	H	-3.836742	-0.212403	-0.082459
H114	H	-3.604844	-0.208083	-0.078317
H115	H	-3.844290	-0.358389	0.046056
H116	H	-3.612366	-0.354077	0.050221
C117	C	-4.237966	-0.465748	-0.606021
C118	C	-4.082562	-0.521141	-0.579315
H119	H	-4.248834	-0.422244	-0.673631
H120	H	-4.206031	-0.429779	-0.570510
H121	H	-4.364435	-0.507658	-0.592045
H122	H	-3.956089	-0.479232	-0.593284
H123	H	-4.114485	-0.557114	-0.614837
H124	H	-3.862433	-0.293890	-0.313647
H125	H	-4.001383	-0.297252	-0.621324
H126	H	-3.880926	0.231294	-0.881739
