data_functionalizedCrystal
_audit_creation_method	'MofGen! by Chris Wilmer'
_symmetry_space_group_name_H-M	'P1'
_symmetry_Int_Tables_number	1
_symmetry_cell_setting	triclinic
loop_
_symmetry_equiv_pos_as_xyz
  x,y,z
_cell_length_a	16.109301
_cell_length_b	13.596369
_cell_length_c	16.109301
_cell_angle_alpha	90.001433
_cell_angle_beta	96.538519
_cell_angle_gamma	89.996453
loop_
_atom_site_label
_atom_site_type_symbol
_atom_site_fract_x
_atom_site_fract_y
_atom_site_fract_z
O1	O	1.103135	-0.081732	-0.106861
O2	O	0.861073	-0.081748	-0.120160
O3	O	0.988753	-0.081730	0.007520
O4	O	0.975454	-0.081751	-0.234542
O5	O	0.988737	0.081853	0.007512
O6	O	0.861056	0.081835	-0.120169
O7	O	1.103118	0.081851	-0.106869
Zn8	Zn	0.982084	0.107815	-0.113520
Zn9	Zn	0.982106	-0.107713	-0.113509
O10	O	0.975437	0.081832	-0.234550
C11	C	0.830090	0.000041	-0.119626
C12	C	0.737794	0.000035	-0.118011
N13	N	0.982075	0.254907	-0.113527
C14	C	0.515522	0.000041	-0.190018
C15	C	0.428801	0.000047	-0.188494
C16	C	0.448676	0.000056	-0.037006
C17	C	0.535394	0.000057	-0.038530
C18	C	0.568815	0.000044	-0.115039
C19	C	0.395376	0.000050	-0.111990
C20	C	0.301350	0.000057	-0.110337
C21	C	0.662847	0.000039	-0.116693
C22	C	0.982079	0.343905	-0.113529
C23	C	0.982087	0.455556	-0.113524
C24	C	0.982097	0.544546	-0.113515
C25	C	0.982106	0.656205	-0.113511
C26	C	1.134101	0.000059	-0.107404
C27	C	1.226397	0.000058	-0.109019
C28	C	0.988206	0.000062	0.038491
C29	C	0.986591	0.000063	0.130786
N30	N	0.982116	0.745195	-0.113502
C31	C	0.975984	0.000038	-0.265521
C32	C	0.977600	0.000030	-0.357816
C33	C	1.058599	0.000052	0.353059
C34	C	1.057075	0.000044	0.439779
C35	C	0.905586	0.000038	0.419905
C36	C	0.907111	0.000039	0.333186
C37	C	0.983620	0.000051	0.299766
C38	C	0.980571	0.000042	0.473205
C39	C	0.978918	0.000033	0.567231
C40	C	0.985273	0.000058	0.205734
H41	H	0.542730	0.000038	-0.252317
H42	H	0.385413	0.000046	-0.249550
F43	F	0.413100	0.000065	0.044416
F44	F	0.592117	0.000067	0.041277
H45	H	0.843295	0.000030	0.447127
H46	H	1.120897	0.000060	0.325851
H47	H	0.846050	0.000036	0.289792
H48	H	1.118130	0.000043	0.483168
