data_functionalizedCrystal
_audit_creation_method	'MofGen! by Chris Wilmer'
_symmetry_space_group_name_H-M	'P1'
_symmetry_Int_Tables_number	1
_symmetry_cell_setting	triclinic
loop_
_symmetry_equiv_pos_as_xyz
  x,y,z
_cell_length_a	10.686220
_cell_length_b	13.032721
_cell_length_c	13.033109
_cell_angle_alpha	105.143326
_cell_angle_beta	86.606707
_cell_angle_gamma	100.973619
loop_
_atom_site_label
_atom_site_type_symbol
_atom_site_fract_x
_atom_site_fract_y
_atom_site_fract_z
Zn1	Zn	1.952894	-0.356836	-0.512255
Zn2	Zn	1.905190	-0.515392	-0.360667
Zn3	Zn	1.718098	-0.351431	-0.351739
Zn4	Zn	1.718055	-0.551502	-0.551817
O5	O	1.823559	-0.443790	-0.444119
O6	O	2.123145	-0.365019	-0.479327
O7	O	1.860426	-0.476268	-0.212308
O8	O	1.769227	-0.202061	-0.352738
O9	O	2.088097	-0.481509	-0.367955
O10	O	1.941730	-0.206032	-0.470669
O11	O	1.722970	-0.355806	-0.205749
O12	O	1.541513	-0.390820	-0.391100
O13	O	1.769153	-0.543053	-0.693743
O14	O	1.541481	-0.537812	-0.538097
O15	O	1.941688	-0.400033	-0.664677
O16	O	1.860384	-0.670268	-0.406317
O17	O	1.722896	-0.696798	-0.546754
C18	C	1.495712	-0.467649	-0.467923
C19	C	1.355458	-0.477885	-0.478135
C20	C	1.786496	-0.722449	-0.481818
C21	C	1.770760	-0.841657	-0.497972
C22	C	1.831845	-0.881643	-0.435731
C23	C	1.815583	-1.004849	-0.452426
C24	C	2.152687	-0.419839	-0.420224
C25	C	2.292941	-0.409632	-0.410041
C26	C	1.860737	-0.476174	-0.718438
C27	C	1.876580	-0.489974	-0.835336
C28	C	1.860805	-0.164043	-0.406295
C29	C	1.876677	-0.044831	-0.390176
C30	C	1.815633	-0.436524	-0.884208
C31	C	1.832006	-0.450786	-1.005028
C32	C	1.786609	-0.411449	-0.170852
C33	C	1.771051	-0.397329	-0.053896
H34	H	1.896187	-0.824665	-0.370088
H35	H	1.706743	-0.341009	-1.006296
C36	C	1.316568	-0.333158	-0.221996
C37	C	1.365531	-0.320174	-0.320790
H38	H	1.361395	-0.277933	-0.166897
H39	H	1.228689	-0.328526	-0.217385
H40	H	1.326436	-0.401816	-0.214701
H41	H	1.355654	-0.251519	-0.328089
H42	H	1.453431	-0.324796	-0.325404
H43	H	1.940879	-0.546293	-0.882943
H44	H	1.751248	-1.061826	-0.518080
H45	H	1.751327	-0.380211	-0.836602
C46	C	1.331835	-0.554366	-0.666183
C47	C	1.282867	-0.567350	-0.567390
H48	H	1.287023	-0.609601	-0.721283
H49	H	1.321961	-0.485722	-0.673485
H50	H	1.419728	-0.558990	-0.670785
H51	H	1.194975	-0.562718	-0.562785
H52	H	1.292729	-0.636012	-0.560086
H53	H	1.896309	-0.507110	-1.052631
H54	H	1.941023	-0.987855	-0.324529
H55	H	1.706430	-0.898637	-0.563622
