data_functionalizedCrystal
_audit_creation_method	'MofGen! by Chris Wilmer'
_symmetry_space_group_name_H-M	'P1'
_symmetry_Int_Tables_number	1
_symmetry_cell_setting	triclinic
loop_
_symmetry_equiv_pos_as_xyz
  x,y,z
_cell_length_a	15.944545
_cell_length_b	15.944493
_cell_length_c	14.421503
_cell_angle_alpha	89.989835
_cell_angle_beta	90.004847
_cell_angle_gamma	83.485608
loop_
_atom_site_label
_atom_site_type_symbol
_atom_site_fract_x
_atom_site_fract_y
_atom_site_fract_z
O1	O	1.114510	0.108298	0.077039
O2	O	0.869957	0.121660	0.077053
O3	O	0.998937	-0.007299	0.077053
O4	O	0.985530	0.237258	0.077039
O5	O	0.998916	-0.007280	-0.077170
O6	O	0.869935	0.121680	-0.077171
O7	O	1.114489	0.108317	-0.077184
Cu8	Cu	0.992210	0.115000	-0.091259
Cu9	Cu	0.992235	0.114978	0.091128
O10	O	0.985508	0.237277	-0.077185
C11	C	0.838652	0.121116	-0.000057
C12	C	0.745406	0.119456	-0.000051
C13	C	0.998378	-0.038584	-0.000054
C14	C	0.996735	-0.131833	-0.000042
C15	C	0.474791	0.034560	-0.000056
C16	C	0.525354	0.075499	-0.076101
C17	C	0.409764	0.113535	-0.000067
C18	C	0.525355	0.075502	0.075951
C19	C	0.574677	0.116440	-0.000057
C20	C	0.459098	0.154453	-0.076174
C21	C	0.459096	0.154444	0.075946
C22	C	0.509626	0.195442	-0.000117
C23	C	0.314762	0.111860	-0.000073
C24	C	0.669676	0.118122	-0.000058
C25	C	1.072656	-0.367594	-0.000064
C26	C	1.031726	-0.418171	0.075978
C27	C	0.993691	-0.302554	-0.000054
C28	C	1.031686	-0.418128	-0.076074
C29	C	0.990757	-0.467463	-0.000068
C30	C	0.952782	-0.351902	0.076051
C31	C	0.952754	-0.351856	-0.076069
C32	C	0.911766	-0.402400	-0.000009
C33	C	0.995384	-0.207554	-0.000044
C34	C	0.989058	-0.562460	-0.000071
C35	C	1.145793	0.108862	-0.000072
C36	C	1.239039	0.110522	-0.000072
C37	C	0.986067	0.268562	-0.000075
C38	C	0.987710	0.361811	-0.000081
N39	N	0.992198	0.115016	-0.219540
C40	C	0.932548	0.174620	-0.469194
C41	C	1.008444	0.190926	-0.531003
C42	C	0.992219	0.114996	-0.408702
C43	C	0.916342	0.098709	-0.530987
C44	C	0.992232	0.114978	-0.591423
C45	C	1.068154	0.131339	-0.469149
C46	C	0.976001	0.039090	-0.469129
C47	C	1.051953	0.055364	-0.530909
C48	C	0.992210	0.115008	-0.303441
C49	C	0.992249	0.114965	-0.696682
N50	N	0.992254	0.114956	0.219409
H51	H	0.554283	0.042154	-0.140387
C52	C	0.564441	0.030421	0.162801
C53	C	0.536920	0.062605	0.260033
C54	C	0.576002	0.017517	0.346877
C55	C	0.642606	-0.059754	0.336489
C56	C	0.670130	-0.091943	0.239254
C57	C	0.631048	-0.046855	0.152410
H58	H	0.487613	0.119810	0.267726
H59	H	0.555627	0.041346	0.418857
H60	H	0.671537	-0.093131	0.400776
H61	H	0.719437	-0.149148	0.231560
H62	H	0.651423	-0.070683	0.080429
H63	H	0.882137	0.225082	-0.442097
C64	C	1.164540	-0.346473	0.000029
C65	C	1.223952	-0.376369	0.080585
C66	C	1.315833	-0.355246	0.080683
C67	C	1.348301	-0.304227	0.000226
C68	C	1.288888	-0.274328	-0.080335
C69	C	1.197007	-0.295451	-0.080434
H70	H	1.199918	-0.414139	0.140150
H71	H	1.359815	-0.377380	0.140321
H72	H	1.416317	-0.288591	0.000299
H73	H	1.312922	-0.236558	-0.139900
H74	H	1.153026	-0.273318	-0.140071
H75	H	0.525104	0.263508	-0.000166
C76	C	1.076785	-0.457291	0.162822
C77	C	1.154041	-0.523912	0.152428
C78	C	1.199107	-0.563027	0.239268
C79	C	1.166916	-0.535522	0.336503
C80	C	1.089656	-0.468897	0.346901
C81	C	1.044590	-0.429781	0.260060
H82	H	1.177875	-0.544276	0.080446
H83	H	1.256301	-0.612348	0.231571
H84	H	1.200277	-0.564477	0.400787
H85	H	1.065823	-0.448532	0.418883
H86	H	0.987397	-0.380461	0.267758
H87	H	0.459152	-0.033454	-0.000126
H88	H	0.430152	0.187760	0.140234
H89	H	0.919426	-0.322886	-0.140357
C90	C	0.819811	-0.423303	0.000052
C91	C	0.801149	-0.515968	-0.000698
C92	C	0.709196	-0.536875	-0.000629
C93	C	0.635906	-0.465118	0.000189
C94	C	0.654566	-0.372448	0.000940
C95	C	0.746518	-0.351540	0.000871
H96	H	0.855404	-0.569092	-0.001304
H97	H	0.695383	-0.605477	-0.001185
H98	H	0.567837	-0.480595	0.000240
H99	H	0.600310	-0.319323	0.001546
H100	H	0.760331	-0.282939	0.001427
C101	C	1.076738	-0.457197	-0.162924
C102	C	1.044533	-0.429644	-0.260156
C103	C	1.089592	-0.468711	-0.347000
C104	C	1.166854	-0.535331	-0.336612
C105	C	1.199063	-0.562888	-0.239376
C106	C	1.154005	-0.523821	-0.152532
H107	H	0.987335	-0.380324	-0.267849
H108	H	1.065748	-0.448311	-0.418980
H109	H	1.200209	-0.564251	-0.400899
H110	H	1.256261	-0.612208	-0.231683
H111	H	1.177848	-0.544221	-0.080552
C112	C	0.907779	-0.312988	0.163002
C113	C	0.901076	-0.216986	0.179098
C114	C	0.856077	-0.178071	0.266048
C115	C	0.817781	-0.235158	0.336902
C116	C	0.824483	-0.331166	0.320809
C117	C	0.869481	-0.370081	0.233858
H118	H	0.929426	-0.174721	0.126645
H119	H	0.851116	-0.106999	0.277961
H120	H	0.784470	-0.206351	0.401268
H121	H	0.796132	-0.373431	0.373261
H122	H	0.874442	-0.441153	0.221945
H123	H	1.022174	0.255110	-0.558180
C124	C	0.420165	0.199490	-0.163121
C125	C	0.324157	0.206219	-0.179211
C126	C	0.285223	0.251254	-0.266156
C127	C	0.342297	0.289561	-0.337011
C128	C	0.438311	0.282834	-0.320923
C129	C	0.477245	0.237799	-0.233978
H130	H	0.281902	0.177861	-0.126758
H131	H	0.214147	0.256234	-0.278065
H132	H	0.313475	0.322899	-0.401372
H133	H	0.480565	0.311192	-0.373376
H134	H	0.548321	0.232819	-0.222069
H135	H	1.132342	0.145184	-0.442100
H136	H	1.102476	0.004931	-0.557837
C137	C	0.957424	-0.047589	-0.432374
C138	C	0.873474	-0.081491	-0.456722
C139	C	0.854885	-0.168170	-0.419964
C140	C	0.920248	-0.220946	-0.358859
C141	C	1.004204	-0.187044	-0.334508
C142	C	1.022792	-0.100366	-0.371265
H143	H	0.825084	-0.042422	-0.501958
H144	H	0.792735	-0.193265	-0.437991
H145	H	0.906488	-0.285110	-0.331649
H146	H	1.052594	-0.226113	-0.289271
H147	H	1.084943	-0.075270	-0.353239
H148	H	0.852168	0.084942	-0.558153
