data_functionalizedCrystal
_audit_creation_method	'MofGen! by Chris Wilmer'
_symmetry_space_group_name_H-M	'P1'
_symmetry_Int_Tables_number	1
_symmetry_cell_setting	triclinic
loop_
_symmetry_equiv_pos_as_xyz
  x,y,z
_cell_length_a	17.038272
_cell_length_b	15.995350
_cell_length_c	16.098662
_cell_angle_alpha	86.950232
_cell_angle_beta	87.129654
_cell_angle_gamma	87.301965
loop_
_atom_site_label
_atom_site_type_symbol
_atom_site_fract_x
_atom_site_fract_y
_atom_site_fract_z
O1	O	-1.040528	-0.185367	0.069144
O2	O	-0.812897	-0.182481	0.069169
O3	O	-0.932935	-0.062479	0.069155
O4	O	-0.920490	-0.305368	0.069158
O5	O	-0.926682	-0.055377	-0.069355
O6	O	-0.806644	-0.175378	-0.069341
O7	O	-1.034275	-0.178264	-0.069366
Zn8	Zn	-0.919467	-0.175694	-0.091345
Zn9	Zn	-0.927705	-0.185051	0.091148
O10	O	-0.914237	-0.298266	-0.069352
C11	C	-0.780642	-0.176304	-0.000083
C12	C	-0.693848	-0.168470	-0.000074
C13	C	-1.066530	-0.184441	-0.000112
C14	C	-1.153325	-0.192275	-0.000116
C15	C	-0.929294	-0.027697	-0.000099
C16	C	-0.927752	0.065363	-0.000094
C17	C	-0.643751	-0.240398	-0.000073
C18	C	-0.562198	-0.233032	-0.000085
C19	C	-0.530744	-0.153736	-0.000091
C20	C	-0.580847	-0.081802	-0.000094
C21	C	-0.662398	-0.089169	-0.000088
C22	C	-0.284979	-0.127709	-0.000113
C23	C	-0.203421	-0.120347	-0.000117
C24	C	-0.184778	-0.271577	-0.000110
C25	C	-0.266332	-0.278938	-0.000099
C26	C	-0.316427	-0.207004	-0.000106
C27	C	-0.447384	-0.146204	-0.000100
C28	C	-0.399785	-0.214536	-0.000103
C29	C	-0.917878	-0.333048	-0.000097
C30	C	-0.919421	-0.426109	-0.000096
N31	N	-0.913850	-0.169307	-0.215892
C32	C	-0.922212	0.403506	-0.000096
C33	C	-0.836738	0.362145	0.000224
C34	C	-0.838266	0.265361	-0.000088
C35	C	-0.924960	0.235749	-0.000094
C36	C	-0.963555	0.277879	-0.079193
C37	C	-0.961405	0.374671	-0.079259
C38	C	-0.970282	0.366827	0.078252
C39	C	-0.970308	0.269829	0.079298
C40	C	-0.926517	0.140941	-0.000096
C41	C	-0.920657	0.498314	-0.000100
C42	C	-0.887878	-0.139492	-0.740699
C43	C	-0.891802	-0.143992	-0.653512
C44	C	-0.941173	-0.200436	-0.609933
C45	C	-0.986629	-0.252378	-0.653546
C46	C	-0.982708	-0.247874	-0.740731
C47	C	-0.955386	-0.216745	-0.346690
C48	C	-0.959301	-0.221247	-0.259498
C49	C	-0.864474	-0.112859	-0.259471
C50	C	-0.860555	-0.108363	-0.346658
C51	C	-0.906014	-0.160302	-0.390263
C52	C	-0.945183	-0.205039	-0.520814
C53	C	-0.902007	-0.155694	-0.479380
N54	N	-0.933328	-0.191432	0.215694
H55	H	-0.669354	-0.304970	-0.000068
Br56	Br	-0.778372	0.227724	-0.094741
H57	H	-0.847670	-0.093533	-0.776175
H58	H	-1.019720	-0.290168	-0.776234
Br59	Br	-0.802785	-0.042373	-0.200289
H60	H	-0.854793	-0.101694	-0.618012
Br61	Br	-0.494212	-0.330654	-0.000082
H62	H	-0.927988	0.398195	-0.138383
H63	H	-1.026832	-0.298333	-0.618057
H64	H	-0.999503	-0.267217	-0.224018
Br65	Br	-0.116788	-0.369197	-0.000101
Br66	Br	-0.835009	-0.079089	-0.538525
H67	H	-0.291936	-0.343509	-0.000085
Br68	Br	-1.012185	-0.281641	-0.461664
H69	H	-0.177815	-0.055771	-0.000120
Br70	Br	-1.065742	0.421281	-0.085259
Br71	Br	-0.730387	0.008453	-0.000096
Br72	Br	-1.076040	0.236306	0.087259
H73	H	-0.805129	0.380202	0.056948
Br74	Br	-0.352955	-0.030082	-0.000125
Br75	Br	-0.910317	0.239086	-0.177298
Br76	Br	-0.538159	0.025816	-0.000110
H77	H	-0.992401	-0.259038	-0.382182
Br78	Br	-0.793541	-0.031763	-0.405795
H79	H	-0.425399	-0.279098	-0.000103
Br80	Br	-1.075376	0.412234	0.079133
H81	H	-0.800174	0.387054	-0.056177
H82	H	-0.807681	0.236392	0.056613
Br83	Br	-1.069492	0.247031	-0.084108
Br84	Br	-0.928200	0.399243	0.178178
Br85	Br	-0.923760	0.222502	0.176844
H86	H	-0.421764	-0.081640	-0.000128
