data_functionalizedCrystal
_audit_creation_method	'MofGen! by Chris Wilmer'
_symmetry_space_group_name_H-M	'P1'
_symmetry_Int_Tables_number	1
_symmetry_cell_setting	triclinic
loop_
_symmetry_equiv_pos_as_xyz
  x,y,z
_cell_length_a	21.395362
_cell_length_b	18.215405
_cell_length_c	21.395355
_cell_angle_alpha	89.980149
_cell_angle_beta	89.956060
_cell_angle_gamma	90.040762
loop_
_atom_site_label
_atom_site_type_symbol
_atom_site_fract_x
_atom_site_fract_y
_atom_site_fract_z
Zn1	Zn	0.957885	-0.292758	-0.354580
Zn2	Zn	0.957798	-0.415806	-0.249800
Zn3	Zn	0.853100	-0.292792	-0.249781
Zn4	Zn	0.853080	-0.415821	-0.354505
O5	O	0.905466	-0.354294	-0.302166
O6	O	1.045551	-0.309060	-0.340720
O7	O	0.943882	-0.399496	-0.162119
O8	O	0.867045	-0.189803	-0.263706
O9	O	1.045487	-0.399463	-0.263739
O10	O	0.944030	-0.189778	-0.340702
O11	O	0.866960	-0.309118	-0.162106
O12	O	0.765419	-0.309133	-0.263634
O13	O	0.867010	-0.399488	-0.442193
O14	O	0.765404	-0.399522	-0.340573
O15	O	0.944010	-0.309074	-0.442248
O16	O	0.943862	-0.518792	-0.263666
O17	O	0.866926	-0.518803	-0.340592
C18	C	0.742678	-0.354333	-0.302094
C19	C	0.673037	-0.354367	-0.302077
C20	C	0.640332	-0.401495	-0.342080
C21	C	0.574897	-0.401477	-0.342108
C22	C	0.542168	-0.354339	-0.302122
C23	C	0.574881	-0.307202	-0.262117
C24	C	0.640315	-0.307216	-0.262094
C25	C	0.438443	-0.348410	-0.245717
C26	C	0.373010	-0.348401	-0.245738
C27	C	0.340348	-0.354291	-0.302191
C28	C	0.373126	-0.360205	-0.358625
C29	C	0.438560	-0.360219	-0.358602
C30	C	0.471216	-0.354318	-0.302142
C31	C	0.236691	-0.401402	-0.342228
C32	C	0.171254	-0.401379	-0.342256
C33	C	0.171239	-0.307107	-0.262260
C34	C	0.236675	-0.307127	-0.262236
C35	C	0.269396	-0.354278	-0.302219
C36	C	0.905399	-0.545500	-0.302136
C37	C	0.905428	-0.627299	-0.302144
C38	C	0.945583	-0.815463	-0.262163
C39	C	0.945611	-0.892322	-0.262178
C40	C	0.865428	-0.892373	-0.342215
C41	C	0.865404	-0.815516	-0.342203
C42	C	0.905480	-0.777063	-0.302173
C43	C	0.905533	-0.930779	-0.302200
C44	C	0.905563	-1.014112	-0.302217
C45	C	0.905451	-0.693724	-0.302157
C46	C	1.068889	-0.354256	-0.302240
C47	C	1.138530	-0.354239	-0.302271
C48	C	0.905518	-0.354279	-0.465590
C49	C	0.905540	-0.354273	-0.535231
C50	C	0.905549	-0.162341	-0.302210
C51	C	0.905585	-0.080542	-0.302229
C52	C	0.945632	-0.307192	-0.567974
C53	C	0.945631	-0.307161	-0.633409
C54	C	0.905545	-0.354223	-0.666099
C55	C	0.865445	-0.401307	-0.633349
C56	C	0.865442	-0.401332	-0.567914
C57	C	0.900574	-0.420488	-0.769762
C58	C	0.900581	-0.420465	-0.835195
C59	C	0.905548	-0.354145	-0.867920
C60	C	0.910522	-0.287847	-0.835205
C61	C	0.910520	-0.287872	-0.769770
C62	C	0.905542	-0.354200	-0.737052
C63	C	0.945642	-0.307026	-0.971616
C64	C	0.945637	-0.306993	-1.037052
C65	C	0.865454	-0.401146	-1.036990
C66	C	0.865455	-0.401172	-0.971555
C67	C	0.905553	-0.354113	-0.938872
C68	C	0.905450	-0.354256	-0.139379
C69	C	0.905549	-0.354055	-0.069738
H70	H	0.346534	-0.365000	-0.404594
C71	C	0.272687	-0.453260	-0.386216
N72	N	0.299797	-0.492319	-0.419351
H73	H	0.978217	-0.784156	-0.229569
C74	C	0.272651	-0.255288	-0.218224
N75	N	0.299748	-0.216240	-0.185072
C76	C	0.821298	-0.773273	-0.386232
N77	N	0.788085	-0.741456	-0.419399
C78	C	0.821353	-0.452968	-0.935536
N79	N	0.788131	-0.491982	-0.908407
H80	H	0.832791	-0.439669	-0.541255
H81	H	0.978268	-0.923584	-0.229598
C82	C	0.538878	-0.255350	-0.218132
N83	N	0.511761	-0.216291	-0.185003
C84	C	0.989741	-0.255371	-0.669434
N85	N	1.022967	-0.216364	-0.696566
C86	C	0.474614	-0.366724	-0.420678
N87	N	0.501770	-0.371622	-0.467434
C88	C	0.336960	-0.341891	-0.183661
N89	N	0.309809	-0.336983	-0.136903
C90	C	0.135279	-0.453232	-0.386260
N91	N	0.108183	-0.492293	-0.419401
H92	H	0.832798	-0.923691	-0.374805
C93	C	0.989732	-0.255416	-0.532026
N94	N	1.022946	-0.216415	-0.504949
C95	C	0.915982	-0.214946	-0.733786
N96	N	0.920092	-0.160016	-0.706682
C97	C	0.915985	-0.214889	-0.871197
N98	N	0.920100	-0.159940	-0.898310
C99	C	0.989744	-0.255254	-0.935662
N100	N	1.022961	-0.216258	-0.908583
C101	C	0.135242	-0.255254	-0.218275
N102	N	0.108125	-0.216196	-0.185145
C103	C	0.989742	-0.255196	-1.073069
N104	N	1.022964	-0.216183	-1.100198
C105	C	0.821358	-0.452916	-1.072946
N106	N	0.788144	-0.491910	-1.100030
H107	H	0.896535	-0.474448	-0.861827
C108	C	0.474365	-0.341934	-0.183610
N109	N	0.501421	-0.337057	-0.136832
C110	C	0.895122	-0.493451	-0.733771
N111	N	0.891019	-0.548406	-0.706663
C112	C	0.821347	-0.453072	-0.669309
N113	N	0.788128	-0.492060	-0.696394
H114	H	0.666942	-0.268837	-0.229519
H115	H	0.548264	-0.439854	-0.374685
C116	C	0.676322	-0.453361	-0.386065
N117	N	0.703431	-0.492426	-0.419195
