data_functionalizedCrystal
_audit_creation_method	'MofGen! by Chris Wilmer'
_symmetry_space_group_name_H-M	'P1'
_symmetry_Int_Tables_number	1
_symmetry_cell_setting	triclinic
loop_
_symmetry_equiv_pos_as_xyz
  x,y,z
_cell_length_a	19.188930
_cell_length_b	15.944551
_cell_length_c	15.021413
_cell_angle_alpha	90.003065
_cell_angle_beta	89.978833
_cell_angle_gamma	83.321759
loop_
_atom_site_label
_atom_site_type_symbol
_atom_site_fract_x
_atom_site_fract_y
_atom_site_fract_z
O1	O	0.926420	0.104855	-0.074320
O2	O	1.426420	0.604855	0.425680
O3	O	0.723145	0.118971	-0.074259
O4	O	1.223145	0.618971	0.425741
O5	O	0.830333	-0.010383	-0.074283
O6	O	1.330333	0.489617	0.425717
O7	O	0.819231	0.234209	-0.074296
O8	O	1.319231	0.734209	0.425704
O9	O	0.830316	-0.010364	0.073781
O10	O	1.330316	0.489636	0.573781
O11	O	0.723128	0.118990	0.073805
O12	O	1.223128	0.618990	0.573805
O13	O	0.926403	0.104873	0.073744
O14	O	1.426403	0.604873	0.573744
Zn15	Zn	0.824763	0.111934	0.097283
Zn16	Zn	1.324763	0.611934	0.597283
Zn17	Zn	0.824785	0.111910	-0.097798
Zn18	Zn	1.324785	0.611910	0.402202
O19	O	0.819214	0.234227	0.073768
O20	O	1.319214	0.734227	0.573768
C21	C	0.829864	-0.041666	-0.000251
C22	C	1.329864	0.458334	0.499749
C23	C	0.828482	-0.134906	-0.000250
C24	C	1.328482	0.365094	0.499750
C25	C	0.697124	0.118524	-0.000219
C26	C	1.197124	0.618524	0.499781
C27	C	0.619616	0.117151	-0.000196
C28	C	1.119616	0.617151	0.499804
C29	C	0.758739	-0.349502	-0.000242
C30	C	1.258739	0.150498	0.499758
C31	C	0.791117	-0.410631	0.072753
C32	C	1.291117	0.089369	0.572753
C33	C	0.825983	-0.305623	-0.000256
C34	C	1.325983	0.194377	0.499744
C35	C	0.791150	-0.410633	-0.073226
C36	C	1.291150	0.089367	0.426774
C37	C	0.823563	-0.470527	-0.000266
C38	C	1.323563	0.029473	0.499734
C39	C	0.858379	-0.365524	0.072799
C40	C	1.358379	0.134476	0.572799
C41	C	0.858402	-0.365519	-0.073246
C42	C	1.358402	0.134481	0.426754
C43	C	0.890829	-0.426631	-0.000234
C44	C	1.390829	0.073369	0.499766
C45	C	0.827374	-0.210626	-0.000250
C46	C	1.327374	0.289374	0.499750
C47	C	0.822176	-0.565522	-0.000266
C48	C	1.322176	-0.065522	0.499734
C49	C	0.574889	0.193052	-0.000214
C50	C	1.074889	0.693052	0.499786
C51	C	0.502061	0.191763	-0.000224
C52	C	1.002061	0.691763	0.499776
C53	C	0.473965	0.114568	-0.000233
C54	C	0.973965	0.614568	0.499767
C55	C	0.518703	0.038658	-0.000210
C56	C	1.018703	0.538658	0.499790
C57	C	0.591528	0.039949	-0.000192
C58	C	1.091528	0.539949	0.499808
N59	N	0.365838	0.055557	-0.050659
N60	N	0.865838	0.555557	0.449341
N61	N	0.296657	0.054335	-0.050678
N62	N	0.796657	0.554335	0.449322
C63	C	0.254547	0.110673	-0.000288
C64	C	0.754547	0.610673	0.499712
N65	N	0.284230	0.168291	0.050112
N66	N	0.784230	0.668291	0.550112
N67	N	0.353418	0.169515	0.050128
N68	N	0.853418	0.669515	0.550128
C69	C	0.394999	0.113160	-0.000253
C70	C	0.894999	0.613160	0.499747
C71	C	0.130851	0.185181	-0.000315
C72	C	0.630851	0.685181	0.499685
C73	C	0.058023	0.183888	-0.000319
C74	C	0.558023	0.683888	0.499681
C75	C	0.074666	0.030781	-0.000315
C76	C	0.574666	0.530781	0.499685
C77	C	0.147492	0.032076	-0.000302
C78	C	0.647492	0.532076	0.499698
C79	C	0.175580	0.109278	-0.000306
C80	C	0.675580	0.609278	0.499694
C81	C	0.952423	0.105321	-0.000298
C82	C	1.452423	0.605321	0.499702
C83	C	1.029932	0.106693	-0.000327
C84	C	1.529932	0.606693	0.499673
C85	C	0.819684	0.265510	-0.000266
C86	C	1.319684	0.765510	0.499734
C87	C	0.821066	0.358751	-0.000273
C88	C	1.321066	0.858751	0.499727
N89	N	0.824752	0.111951	0.230420
N90	N	1.324752	0.611951	0.730420
N91	N	0.824801	0.111887	-0.230936
N92	N	1.324801	0.611887	0.269064
C93	C	0.775181	0.171736	0.470115
C94	C	1.275181	0.671736	0.970115
C95	C	0.838271	0.187807	0.529429
C96	C	1.338271	0.687807	1.029429
C97	C	0.824770	0.111929	0.412027
C98	C	1.324770	0.611929	0.912027
C99	C	0.761697	0.095877	0.529455
C100	C	1.261697	0.595877	1.029455
C101	C	0.824782	0.111911	0.587451
C102	C	1.324782	0.611911	1.087451
C103	C	0.887892	0.128038	0.470035
C104	C	1.387892	0.628038	0.970035
C105	C	0.811277	0.036076	0.470056
C106	C	1.311277	0.536076	0.970056
C107	C	0.874413	0.052114	0.529343
C108	C	1.374413	0.552114	1.029343
C109	C	0.824763	0.111942	0.310970
C110	C	1.324763	0.611942	0.810970
C111	C	0.824797	0.111898	0.688507
C112	C	1.324797	0.611898	1.188507
H113	H	0.702924	-0.315986	-0.000152
H114	H	1.202924	0.184014	0.499848
Cl115	Cl	0.710501	0.249881	0.429956
Cl116	Cl	1.210501	0.749881	0.929956
Cl117	Cl	0.445822	0.287188	-0.000244
Cl118	Cl	0.945822	0.787188	0.499756
H119	H	0.941248	0.141684	0.444045
H120	H	1.441248	0.641684	0.944045
Cl121	Cl	0.679339	0.074925	0.569753
Cl122	Cl	1.179339	0.574925	1.069753
H123	H	0.183911	-0.029731	-0.000292
H124	H	0.683911	0.470269	0.499708
H125	H	0.495822	-0.024194	-0.000230
H126	H	0.995822	0.475806	0.499770
H127	H	0.946693	-0.459999	-0.000209
H128	H	1.446693	0.040001	0.499791
H129	H	0.762669	-0.430626	0.134481
H130	H	1.262669	0.069374	0.634481
Cl131	Cl	0.855909	0.286832	0.569696
Cl132	Cl	1.355909	0.786832	1.069696
Cl133	Cl	0.647761	-0.055477	-0.000170
Cl134	Cl	1.147761	0.444523	0.499830
Cl135	Cl	0.939234	-0.025987	0.569251
Cl136	Cl	1.439234	0.474013	1.069251
Cl137	Cl	0.001792	0.279316	-0.000337
Cl138	Cl	0.501792	0.779316	0.499663
H139	H	0.153721	0.248043	-0.000305
H140	H	0.653721	0.748043	0.499695
H141	H	0.886789	-0.345632	0.134578
H142	H	1.386789	0.154368	0.634578
Cl143	Cl	0.039352	-0.066264	-0.000316
Cl144	Cl	0.539352	0.433736	0.499684
H145	H	0.799834	-0.028043	0.443955
H146	H	1.299834	0.471957	0.943955
Cl147	Cl	0.902287	-0.334612	-0.168555
Cl148	Cl	1.402287	0.165388	0.331445
H149	H	0.762707	-0.430611	-0.134942
H150	H	1.262707	0.069389	0.365058
H151	H	0.597753	0.255916	-0.000219
H152	H	1.097753	0.755916	0.499781
