data_functionalizedCrystal
_audit_creation_method	'MofGen! by Chris Wilmer'
_symmetry_space_group_name_H-M	'P1'
_symmetry_Int_Tables_number	1
_symmetry_cell_setting	triclinic
loop_
_symmetry_equiv_pos_as_xyz
  x,y,z
_cell_length_a	12.759401
_cell_length_b	19.077068
_cell_length_c	12.759393
_cell_angle_alpha	92.260861
_cell_angle_beta	89.982961
_cell_angle_gamma	92.327081
loop_
_atom_site_label
_atom_site_type_symbol
_atom_site_fract_x
_atom_site_fract_y
_atom_site_fract_z
Zn1	Zn	1.589346	-0.280153	-0.610733
Zn2	Zn	1.582146	-0.397870	-0.442092
Zn3	Zn	1.413650	-0.280191	-0.435075
Zn4	Zn	1.406541	-0.397815	-0.617730
O5	O	1.497921	-0.339007	-0.526407
O6	O	1.735411	-0.295776	-0.588371
O7	O	1.559757	-0.382298	-0.294142
O8	O	1.442945	-0.181695	-0.452511
O9	O	1.730122	-0.382261	-0.464471
O10	O	1.572028	-0.181668	-0.581566
O11	O	1.435963	-0.295840	-0.288987
O12	O	1.265687	-0.295787	-0.459296
O13	O	1.430829	-0.382168	-0.763821
O14	O	1.260464	-0.382204	-0.593492
O15	O	1.565135	-0.295723	-0.758680
O16	O	1.552863	-0.496353	-0.471256
O17	O	1.423847	-0.496313	-0.600296
C18	C	1.224954	-0.338994	-0.526392
C19	C	1.108177	-0.339006	-0.526412
C20	C	1.486831	-0.521870	-0.537320
C21	C	1.482183	-0.600100	-0.542023
C22	C	1.050618	-0.384075	-0.596181
C23	C	0.940894	-0.384084	-0.596193
C24	C	0.946296	-0.293952	-0.456658
C25	C	1.056019	-0.293940	-0.456651
C26	C	1.047499	-0.436115	-0.676738
C27	C	0.937774	-0.436124	-0.676750
C28	C	1.547223	-0.636850	-0.477104
C29	C	1.542858	-0.710355	-0.481534
C30	C	1.473446	-0.747109	-0.550879
C31	C	1.408403	-0.710353	-0.615805
C32	C	1.412774	-0.636850	-0.611379
C33	C	1.453168	-0.966941	-0.571318
C34	C	1.448799	-1.040450	-0.575736
C35	C	1.583255	-1.040447	-0.441466
C36	C	1.587616	-0.966942	-0.437042
C37	C	1.522577	-0.930193	-0.501972
N38	N	1.468980	-0.822243	-0.555406
N39	N	1.527050	-0.855060	-0.497449
C40	C	1.771953	-0.339021	-0.526423
C41	C	1.888730	-0.339026	-0.526430
C42	C	1.497992	-0.338935	-0.800437
C43	C	1.498022	-0.338904	-0.917212
C44	C	1.509083	-0.155430	-0.515476
C45	C	1.513839	-0.077200	-0.510817
C46	C	1.428157	-0.383880	-1.084475
C47	C	1.428115	-0.383900	-0.974752
C48	C	1.567967	-0.293880	-0.969399
C49	C	1.568003	-0.293857	-1.079120
C50	C	1.347417	-0.435855	-1.087564
C51	C	1.347376	-0.435875	-0.977841
C52	C	1.497914	-0.339028	-0.253441
C53	C	1.498099	-0.338860	-0.136655
H54	H	1.102879	-0.257235	-0.399845
H55	H	0.903815	-0.257260	-0.399862
H56	H	0.904693	-0.490621	-0.658076
H57	H	1.400208	-0.937026	-0.624184
H58	H	1.078181	-0.421578	-0.757275
H59	H	1.624949	-0.257192	-1.121601
H60	H	1.644137	-0.937018	-0.380577
H61	H	1.359813	-0.606928	-0.664245
H62	H	1.624880	-0.257239	-0.922541
H63	H	1.266944	-0.421247	-1.116473
H64	H	1.078393	-0.487867	-0.650548
H65	H	1.373428	-0.487628	-1.124674
H66	H	1.271252	-0.416357	-0.942653
H67	H	0.904948	-0.416667	-0.752938
H68	H	1.636208	-1.070375	-0.388605
H69	H	1.603741	-0.606930	-0.420632
H70	H	1.392288	-1.070373	-0.632223
H71	H	1.351891	-0.740284	-0.672271
H72	H	1.595820	-0.740274	-0.428669
H73	H	1.365903	-0.490383	-0.951301
