data_functionalizedCrystal
_audit_creation_method	'MofGen! by Chris Wilmer'
_symmetry_space_group_name_H-M	'P1'
_symmetry_Int_Tables_number	1
_symmetry_cell_setting	triclinic
loop_
_symmetry_equiv_pos_as_xyz
  x,y,z
_cell_length_a	12.827893
_cell_length_b	13.897448
_cell_length_c	12.827885
_cell_angle_alpha	89.967724
_cell_angle_beta	89.980538
_cell_angle_gamma	90.017663
loop_
_atom_site_label
_atom_site_type_symbol
_atom_site_fract_x
_atom_site_fract_y
_atom_site_fract_z
Zn1	Zn	1.597655	-0.383969	-0.590831
Zn2	Zn	1.597541	-0.545295	-0.416083
Zn3	Zn	1.422896	-0.384016	-0.416104
Zn4	Zn	1.422875	-0.545224	-0.590783
O5	O	1.510242	-0.464626	-0.503450
O6	O	1.743876	-0.405380	-0.567661
O7	O	1.574336	-0.523951	-0.269850
O8	O	1.446134	-0.249028	-0.439311
O9	O	1.743792	-0.523905	-0.439275
O10	O	1.574529	-0.248994	-0.567681
O11	O	1.446024	-0.405460	-0.269865
O12	O	1.276657	-0.405390	-0.439265
O13	O	1.446098	-0.523783	-0.737026
O14	O	1.276641	-0.523829	-0.567601
O15	O	1.574509	-0.405310	-0.737060
O16	O	1.574315	-0.680267	-0.439229
O17	O	1.445988	-0.680215	-0.567580
C18	C	1.238732	-0.464607	-0.503430
C19	C	1.122579	-0.464623	-0.503447
C20	C	1.070814	-0.523321	-0.566853
C21	C	0.950763	-0.523338	-0.566872
C22	C	1.510165	-0.715240	-0.503420
C23	C	1.510228	-0.822454	-0.503442
C24	C	1.510338	-1.018749	-0.503508
C25	C	1.510274	-0.909517	-0.503474
C26	C	1.782812	-0.464645	-0.503471
C27	C	1.898965	-0.464654	-0.503480
C28	C	1.510314	-0.464533	-0.776021
C29	C	1.510344	-0.464494	-0.892174
C30	C	1.510347	-0.213033	-0.503504
C31	C	1.510391	-0.105819	-0.503526
C32	C	1.573874	-0.523061	-1.063995
C33	C	1.573844	-0.523103	-0.943945
C34	C	1.510230	-0.464649	-0.231940
C35	C	1.510402	-0.464416	-0.115788
H36	H	1.628232	-0.573242	-1.108531
H37	H	1.628189	-0.573307	-0.899405
H38	H	1.456005	-0.414279	-0.936707
N39	N	1.442215	-0.401466	-1.059911
N40	N	1.479053	-0.340079	-0.998998
H41	H	1.430895	-0.295618	-0.959534
H42	H	0.906247	-0.573595	-0.621154
N43	N	1.126720	-0.586351	-0.634927
N44	N	1.187622	-0.647713	-0.597977
H45	H	1.227107	-0.692230	-0.646055
N46	N	0.954812	-0.401603	-0.435388
N47	N	1.015769	-0.340223	-0.472322
H48	H	1.055220	-0.295693	-0.424234
N49	N	1.066707	-0.401592	-0.435346
N50	N	1.115313	-0.346409	-0.375730
H51	H	1.075856	-0.301891	-0.327630
