data_functionalizedCrystal
_audit_creation_method	'MofGen! by Chris Wilmer'
_symmetry_space_group_name_H-M	'P1'
_symmetry_Int_Tables_number	1
_symmetry_cell_setting	triclinic
loop_
_symmetry_equiv_pos_as_xyz
  x,y,z
_cell_length_a	16.120490
_cell_length_b	16.120484
_cell_length_c	16.625539
_cell_angle_alpha	92.868615
_cell_angle_beta	87.083784
_cell_angle_gamma	90.164100
loop_
_atom_site_label
_atom_site_type_symbol
_atom_site_fract_x
_atom_site_fract_y
_atom_site_fract_z
Zn1	Zn	1.254483	-0.395672	-0.536709
Zn2	Zn	1.504483	-0.145672	-0.286709
Zn3	Zn	1.754483	0.104328	-0.036709
Zn4	Zn	2.004483	0.354328	0.213291
Zn5	Zn	1.247324	-0.534732	-0.408338
Zn6	Zn	1.497324	-0.284732	-0.158338
Zn7	Zn	1.747324	-0.034732	0.091662
Zn8	Zn	1.997324	0.215268	0.341662
Zn9	Zn	1.115420	-0.388632	-0.394737
Zn10	Zn	1.365420	-0.138632	-0.144737
Zn11	Zn	1.615420	0.111368	0.105263
Zn12	Zn	1.865420	0.361368	0.355263
Zn13	Zn	1.108335	-0.527617	-0.535975
Zn14	Zn	1.358335	-0.277617	-0.285975
Zn15	Zn	1.608335	-0.027617	-0.035975
Zn16	Zn	1.858335	0.222383	0.214025
O17	O	1.181391	-0.461663	-0.468940
O18	O	1.431391	-0.211663	-0.218940
O19	O	1.681391	0.038337	0.031060
O20	O	1.931391	0.288337	0.281060
O21	O	1.369899	-0.420042	-0.525680
O22	O	1.619899	-0.170042	-0.275680
O23	O	1.869899	0.079958	-0.025680
O24	O	2.119899	0.329958	0.224320
O25	O	1.229796	-0.515383	-0.293701
O26	O	1.479796	-0.265383	-0.043701
O27	O	1.729796	-0.015383	0.206299
O28	O	1.979796	0.234617	0.456299
O29	O	1.139828	-0.273203	-0.408185
O30	O	1.389828	-0.023203	-0.158185
O31	O	1.639828	0.226797	0.091815
O32	O	1.889828	0.476797	0.341815
O33	O	1.364640	-0.522209	-0.431366
O34	O	1.614640	-0.272209	-0.181366
O35	O	1.864640	-0.022209	0.068634
O36	O	2.114640	0.227791	0.318634
O37	O	1.241997	-0.278375	-0.512492
O38	O	1.491997	-0.028375	-0.262492
O39	O	1.741997	0.221625	-0.012492
O40	O	1.991997	0.471625	0.237508
O41	O	1.132887	-0.408045	-0.283709
O42	O	1.382887	-0.158045	-0.033709
O43	O	1.632887	0.091955	0.216291
O44	O	1.882887	0.341955	0.466291
O45	O	0.998115	-0.401145	-0.407473
O46	O	1.248115	-0.151145	-0.157473
O47	O	1.498115	0.098855	0.092527
O48	O	1.748115	0.348855	0.342527
O49	O	1.127753	-0.510082	-0.648905
O50	O	1.377753	-0.260082	-0.398905
O51	O	1.627753	-0.010082	-0.148905
O52	O	1.877753	0.239918	0.101095
O53	O	0.992909	-0.503256	-0.511239
O54	O	1.242909	-0.253256	-0.261239
O55	O	1.492909	-0.003256	-0.011239
O56	O	1.742909	0.246744	0.238761
O57	O	1.235127	-0.413143	-0.649444
O58	O	1.485127	-0.163143	-0.399444
O59	O	1.735127	0.086857	-0.149444
O60	O	1.985127	0.336857	0.100556
O61	O	1.222926	-0.650151	-0.430654
O62	O	1.472926	-0.400151	-0.180654
O63	O	1.722926	-0.150151	0.069346
O64	O	1.972926	0.099849	0.319346
O65	O	1.120811	-0.644923	-0.524428
O66	O	1.370811	-0.394923	-0.274428
O67	O	1.620811	-0.144923	-0.024428
O68	O	1.870811	0.105077	0.225572
C69	C	0.965340	-0.450665	-0.457801
C70	C	1.215340	-0.200665	-0.207801
C71	C	1.465340	0.049335	0.042199
C72	C	1.715340	0.299335	0.292199
C73	C	0.872911	-0.445980	-0.453056
C74	C	1.122911	-0.195980	-0.203056
C75	C	1.372911	0.054020	0.046944
C76	C	1.622911	0.304020	0.296944
C77	C	0.659942	-0.485958	-0.493555
C78	C	0.909942	-0.235958	-0.243555
C79	C	1.159942	0.014042	0.006445
C80	C	1.409942	0.264042	0.256445
C81	C	0.703687	-0.437435	-0.444391
C82	C	0.953687	-0.187435	-0.194391
C83	C	1.203687	0.062565	0.055609
C84	C	1.453687	0.312565	0.305609
C85	C	0.797852	-0.442191	-0.449214
C86	C	1.047852	-0.192191	-0.199214
C87	C	1.297852	0.057809	0.050786
C88	C	1.547852	0.307809	0.300786
C89	C	0.565768	-0.481203	-0.488734
C90	C	0.815768	-0.231203	-0.238734
C91	C	1.065768	0.018797	0.011266
C92	C	1.315768	0.268797	0.261266
C93	C	1.170345	-0.677710	-0.478956
C94	C	1.420345	-0.427710	-0.228956
C95	C	1.670345	-0.177710	0.021044
C96	C	1.920345	0.072290	0.271044
C97	C	1.165696	-0.770140	-0.483272
C98	C	1.415696	-0.520140	-0.233272
C99	C	1.665696	-0.270140	0.016728
C100	C	1.915696	-0.020140	0.266728
C101	C	1.157213	-0.939370	-0.491168
C102	C	1.407213	-0.689370	-0.241168
C103	C	1.657213	-0.439370	0.008832
C104	C	1.907213	-0.189370	0.258832
C105	C	1.205717	-0.983124	-0.446732
C106	C	1.455717	-0.733124	-0.196732
C107	C	1.705717	-0.483124	0.053268
C108	C	1.955717	-0.233124	0.303268
C109	C	1.200997	-1.077289	-0.451126
C110	C	1.450997	-0.827289	-0.201126
C111	C	1.700997	-0.577289	0.048874
C112	C	1.950997	-0.327289	0.298874
C113	C	1.161932	-0.845196	-0.486776
C114	C	1.411932	-0.595196	-0.236776
C115	C	1.661932	-0.345196	0.013224
C116	C	1.911932	-0.095196	0.263224
C117	C	1.398285	-0.472705	-0.480123
C118	C	1.648285	-0.222705	-0.230123
C119	C	1.898285	0.027295	0.019877
C120	C	2.148285	0.277295	0.269877
C121	C	1.490713	-0.477410	-0.484888
C122	C	1.740713	-0.227410	-0.234888
C123	C	1.990713	0.022590	0.015112
C124	C	2.240713	0.272590	0.265112
C125	C	1.181448	-0.461604	-0.679249
C126	C	1.431448	-0.211604	-0.429249
C127	C	1.681448	0.038396	-0.179249
C128	C	1.931448	0.288396	0.070751
C129	C	1.181472	-0.461579	-0.768870
C130	C	1.431472	-0.211579	-0.518870
C131	C	1.681472	0.038421	-0.268870
C132	C	1.931472	0.288421	-0.018870
C133	C	1.192502	-0.244774	-0.458903
C134	C	1.442502	0.005226	-0.208903
C135	C	1.692502	0.255226	0.041097
C136	C	1.942502	0.505226	0.291097
C137	C	1.197237	-0.152349	-0.454626
C138	C	1.447237	0.097651	-0.204626
C139	C	1.697237	0.347651	0.045374
C140	C	1.947237	0.597651	0.295374
C141	C	1.181515	-0.461488	-1.097043
C142	C	1.431515	-0.211488	-0.847043
C143	C	1.681515	0.038512	-0.597043
C144	C	1.931515	0.288512	-0.347043
C145	C	1.181501	-0.461516	-1.005735
C146	C	1.431501	-0.211516	-0.755735
C147	C	1.681501	0.038484	-0.505735
C148	C	1.931501	0.288484	-0.255735
C149	C	1.181494	-0.461534	-0.932959
C150	C	1.431494	-0.211534	-0.682959
C151	C	1.681494	0.038466	-0.432959
C152	C	1.931494	0.288466	-0.182959
C153	C	1.181479	-0.461560	-0.841646
C154	C	1.431479	-0.211560	-0.591646
C155	C	1.681479	0.038440	-0.341646
C156	C	1.931479	0.288440	-0.091646
C157	C	1.181385	-0.461665	-0.259449
C158	C	1.431385	-0.211665	-0.009449
C159	C	1.681385	0.038335	0.240551
C160	C	1.931385	0.288335	0.490551
C161	C	1.181533	-0.461464	-0.169825
C162	C	1.431533	-0.211464	0.080175
C163	C	1.681533	0.038536	0.330175
C164	C	1.931533	0.288536	0.580175
H165	H	0.670419	-0.392320	-0.398680
H166	H	0.920419	-0.142320	-0.148680
H167	H	1.170419	0.107680	0.101320
H168	H	1.420419	0.357680	0.351320
H169	H	1.250788	-0.949861	-0.405388
H170	H	1.500788	-0.699861	-0.155388
H171	H	1.750788	-0.449861	0.094612
H172	H	2.000788	-0.199861	0.344612
H173	H	1.112145	-0.972630	-0.532508
H174	H	1.362145	-0.722630	-0.282508
H175	H	1.612145	-0.472630	-0.032508
H176	H	1.862145	-0.222630	0.217492
H177	H	0.693208	-0.531070	-0.539262
H178	H	0.943208	-0.281070	-0.289262
H179	H	1.193208	-0.031070	-0.039262
H180	H	1.443208	0.218930	0.210738
