data_functionalizedCrystal
_audit_creation_method	'MofGen! by Chris Wilmer'
_symmetry_space_group_name_H-M	'P1'
_symmetry_Int_Tables_number	1
_symmetry_cell_setting	triclinic
loop_
_symmetry_equiv_pos_as_xyz
  x,y,z
_cell_length_a	12.594517
_cell_length_b	21.295417
_cell_length_c	12.594509
_cell_angle_alpha	90.035198
_cell_angle_beta	90.021327
_cell_angle_gamma	90.029502
loop_
_atom_site_label
_atom_site_type_symbol
_atom_site_fract_x
_atom_site_fract_y
_atom_site_fract_z
Zn1	Zn	1.627166	-0.250594	0.601809
Zn2	Zn	2.127166	0.249406	1.101809
Zn3	Zn	1.627014	-0.355872	0.423808
Zn4	Zn	2.127014	0.144128	0.923808
Zn5	Zn	1.449170	-0.250621	0.423837
Zn6	Zn	1.949170	0.249379	0.923837
Zn7	Zn	1.449110	-0.355829	0.601738
Zn8	Zn	1.949110	0.144171	1.101738
O9	O	1.538115	-0.303229	0.512798
O10	O	2.038115	0.196771	1.012798
O11	O	1.776092	-0.264566	0.578214
O12	O	2.276092	0.235434	1.078214
O13	O	1.603385	-0.341940	0.274866
O14	O	2.103385	0.158060	0.774866
O15	O	1.472870	-0.162528	0.447487
O16	O	1.972870	0.337472	0.947487
O17	O	1.775980	-0.341914	0.447438
O18	O	2.275980	0.158086	0.947438
O19	O	1.603643	-0.162508	0.578242
O20	O	2.103643	0.337492	1.078242
O21	O	1.472723	-0.264612	0.274888
O22	O	1.972723	0.235388	0.774888
O23	O	1.300216	-0.264570	0.447419
O24	O	1.800216	0.235430	0.947419
O25	O	1.472767	-0.341839	0.750694
O26	O	1.972767	0.158161	1.250694
O27	O	1.300172	-0.341865	0.578122
O28	O	1.800172	0.158135	1.078122
O29	O	1.603585	-0.264524	0.750745
O30	O	2.103585	0.235476	1.250745
O31	O	1.603326	-0.443956	0.447370
O32	O	2.103326	0.056044	0.947370
O33	O	1.472621	-0.443924	0.578094
O34	O	1.972621	0.056076	1.078094
C35	C	1.261574	-0.303216	0.512767
C36	C	1.761574	0.196784	1.012767
C37	C	1.143269	-0.303226	0.512779
C38	C	1.643269	0.196774	1.012779
C39	C	1.074009	-0.261127	0.441825
C40	C	1.574009	0.238873	0.941825
C41	C	1.003175	-0.318547	0.415633
C42	C	1.503175	0.181453	0.915633
C43	C	1.003304	-0.245834	0.538989
C44	C	1.503304	0.254166	1.038989
C45	C	1.073993	-0.360676	0.486536
C46	C	1.573993	0.139324	0.986536
C47	C	1.074128	-0.287924	0.609937
C48	C	1.574128	0.212076	1.109937
C49	C	1.003326	-0.345384	0.583782
C50	C	1.503326	0.154616	1.083782
C51	C	1.537979	-0.466780	0.512744
C52	C	2.037979	0.033220	1.012744
C53	C	1.538019	-0.536748	0.512757
C54	C	2.038019	-0.036748	1.012757
C55	C	1.606073	-0.569548	0.580889
C56	C	2.106073	-0.069548	1.080889
C57	C	1.606111	-0.635290	0.580916
C58	C	2.106111	-0.135290	1.080916
C59	C	1.538105	-0.668231	0.512790
C60	C	2.038105	-0.168231	1.012790
C61	C	1.470037	-0.635424	0.444653
C62	C	1.970037	-0.135424	0.944653
C63	C	1.469994	-0.569683	0.444636
C64	C	1.969994	-0.069683	0.944636
N65	N	1.530063	-0.771497	0.419640
N66	N	2.030063	-0.271497	0.919640
N67	N	1.530110	-0.833949	0.419659
N68	N	2.030110	-0.333949	0.919659
C69	C	1.538229	-0.866306	0.512838
C70	C	2.038229	-0.366306	1.012838
N71	N	1.546320	-0.833852	0.606001
N72	N	2.046320	-0.333852	1.106001
N73	N	1.546278	-0.771395	0.605980
N74	N	2.046278	-0.271395	1.105980
C75	C	1.538144	-0.739516	0.512801
C76	C	2.038144	-0.239516	1.012801
C77	C	1.606328	-0.970390	0.581005
C78	C	2.106328	-0.470390	1.081005
C79	C	1.606358	-1.036134	0.581033
C80	C	2.106358	-0.536134	1.081033
C81	C	1.470290	-1.036266	0.444761
C82	C	1.970290	-0.536266	0.944761
C83	C	1.470255	-0.970524	0.444742
C84	C	1.970255	-0.470524	0.944742
C85	C	1.538279	-0.937590	0.512863
C86	C	2.038279	-0.437590	1.012863
C87	C	1.815736	-0.303242	0.512830
C88	C	2.315736	0.196758	1.012830
C89	C	1.934041	-0.303247	0.512844
C90	C	2.434041	0.196753	1.012844
C91	C	1.538186	-0.303174	0.790419
C92	C	2.038186	0.196826	1.290419
C93	C	1.538217	-0.303150	0.908725
C94	C	2.038217	0.196850	1.408725
C95	C	1.538280	-0.139038	0.512876
C96	C	2.038280	0.360962	1.012876
C97	C	1.538351	-0.069070	0.512908
C98	C	2.038351	0.430930	1.012908
C99	C	1.538105	-0.303238	0.236257
C100	C	2.038105	0.196762	0.736257
C101	C	1.538281	-0.303084	0.117952
C102	C	2.038281	0.196916	0.617952
C103	C	1.467088	-0.345178	0.977950
C104	C	1.967088	0.154822	1.477950
C105	C	1.564202	-0.360559	1.048737
C106	C	2.064202	0.139441	1.548737
C107	C	1.441178	-0.287731	1.048737
C108	C	1.941178	0.212269	1.548737
C109	C	1.635382	-0.318561	0.977954
C110	C	2.135382	0.181439	1.477954
C111	C	1.512292	-0.245707	0.977947
C112	C	2.012292	0.254293	1.477947
C113	C	1.609474	-0.261066	1.048702
C114	C	2.109474	0.238934	1.548702
H115	H	0.972196	-0.197296	0.561093
H116	H	1.472196	0.302704	1.061093
H117	H	1.669722	-0.225496	1.079572
H118	H	2.169722	0.274504	1.579572
H119	H	1.490302	-0.197170	0.946829
H120	H	1.990302	0.302830	1.446829
H121	H	1.359087	-0.274717	1.079829
H122	H	1.859087	0.225283	1.579829
C123	C	1.593869	-0.426143	1.090755
C124	C	2.093869	0.073857	1.590755
H125	H	1.543240	-0.455980	1.066536
H126	H	2.043240	0.044020	1.566536
H127	H	1.662338	-0.437363	1.065479
H128	H	2.162338	0.062637	1.565479
H129	H	1.594306	-0.425547	1.166177
H130	H	2.094306	0.074453	1.666177
C131	C	1.680886	-0.533321	0.655826
C132	C	2.180886	-0.033321	1.155826
H133	H	1.671121	-0.489469	0.646055
H134	H	2.171121	0.010531	1.146055
H135	H	1.665279	-0.544073	0.727328
H136	H	2.165279	-0.044073	1.227328
H137	H	1.752420	-0.544063	0.640309
H138	H	2.252420	-0.044063	1.140309
H139	H	1.105318	-0.274950	0.692049
H140	H	1.605318	0.225050	1.192049
H141	H	1.661520	-0.662000	0.636410
H142	H	2.161520	-0.162000	1.136410
H143	H	1.105044	-0.225561	0.381748
H144	H	1.605044	0.274439	0.881748
C145	C	1.395235	-0.671656	0.369715
C146	C	1.895235	-0.171656	0.869715
H147	H	1.405015	-0.715507	0.379475
H148	H	1.905015	-0.215507	0.879475
H149	H	1.323704	-0.660915	0.385223
H150	H	1.823704	-0.160915	0.885223
H151	H	1.410851	-0.660904	0.298209
H152	H	1.910851	-0.160904	0.798209
H153	H	1.414575	-0.542977	0.389153
H154	H	1.914575	-0.042977	0.889153
H155	H	0.972010	-0.331503	0.333496
H156	H	1.472010	0.168497	0.833496
C157	C	1.681118	-0.934160	0.655965
C158	C	2.181118	-0.434160	1.155965
H159	H	1.721637	-0.963113	0.696567
H160	H	2.221637	-0.463113	1.196567
H161	H	1.727510	-0.908502	0.615309
H162	H	2.227510	-0.408502	1.115309
H163	H	1.640330	-0.908522	0.702291
H164	H	2.140330	-0.408522	1.202291
C165	C	1.395402	-0.934440	0.369792
C166	C	1.895402	-0.434440	0.869792
H167	H	1.405109	-0.890570	0.379545
H168	H	1.905109	-0.390570	0.879545
H169	H	1.411020	-0.945237	0.298293
H170	H	1.911020	-0.445237	0.798293
H171	H	1.323882	-0.945246	0.385316
H172	H	1.823882	-0.445246	0.885316
H173	H	1.661776	-1.062838	0.636520
H174	H	2.161776	-0.562838	1.136520
C175	C	1.115757	-0.426274	0.456492
C176	C	1.615757	0.073726	0.956492
H177	H	1.191186	-0.425860	0.456616
H178	H	1.691186	0.074140	0.956616
H179	H	1.090990	-0.456208	0.506600
H180	H	1.590990	0.043792	1.006600
H181	H	1.090873	-0.437216	0.387706
H182	H	1.590873	0.062784	0.887706
C183	C	1.395479	-1.072493	0.369830
C184	C	1.895479	-0.572493	0.869830
H185	H	1.405252	-1.116345	0.379595
H186	H	1.905252	-0.616345	0.879595
H187	H	1.323951	-1.061748	0.385341
H188	H	1.823951	-0.561748	0.885341
H189	H	1.411092	-1.061746	0.298321
H190	H	1.911092	-0.561746	0.798321
H191	H	0.972486	-0.381035	0.643813
H192	H	1.472486	0.118965	1.143813
C193	C	1.385895	-0.393263	0.935974
C194	C	1.885895	0.106737	1.435974
H195	H	1.404515	-0.434035	0.960214
H196	H	1.904515	0.065965	1.460214
H197	H	1.317113	-0.382733	0.961250
H198	H	1.817113	0.117267	1.461250
H199	H	1.385986	-0.392693	0.860551
H200	H	1.885986	0.107307	1.360551
C201	C	1.746325	-0.336188	0.936136
C202	C	2.246325	0.163812	1.436136
H203	H	1.745620	-0.336116	0.860707
H204	H	2.245620	0.163884	1.360707
H205	H	1.796878	-0.306482	0.960942
H206	H	2.296878	0.193518	1.460942
H207	H	1.764916	-0.376843	0.960947
H208	H	2.264916	0.123157	1.460947
