data_functionalizedCrystal
_audit_creation_method	'MofGen! by Chris Wilmer'
_symmetry_space_group_name_H-M	'P1'
_symmetry_Int_Tables_number	1
_symmetry_cell_setting	triclinic
loop_
_symmetry_equiv_pos_as_xyz
  x,y,z
_cell_length_a	6.817900
_cell_length_b	14.712618
_cell_length_c	17.982959
_cell_angle_alpha	84.046985
_cell_angle_beta	102.451857
_cell_angle_gamma	77.863674
loop_
_atom_site_label
_atom_site_type_symbol
_atom_site_fract_x
_atom_site_fract_y
_atom_site_fract_z
V1	V	-4.006254	0.290351	-0.105904
O2	O	-3.999427	0.284424	0.004585
O3	O	-3.952844	0.288750	-0.209504
O4	O	-3.951221	0.416808	-0.104496
O5	O	-4.001060	0.155480	-0.101150
V6	V	-4.491391	0.274173	-0.092662
O7	O	-4.263973	0.325840	-0.134951
O8	O	-4.683869	0.238684	-0.063615
O9	O	-4.321595	0.275774	0.010938
O10	O	-4.615615	0.280099	-0.203150
O11	O	-4.613981	0.409044	-0.097415
O12	O	-4.323217	0.147716	-0.094069
C13	C	-3.796840	0.284268	-0.234752
C14	C	-3.834413	0.283802	-0.319448
C15	C	-4.033738	0.288236	-0.363127
C16	C	-4.069033	0.287803	-0.442708
C17	C	-3.904997	0.282930	-0.478608
C18	C	-3.705657	0.278498	-0.434924
C19	C	-3.670368	0.278938	-0.355345
C20	C	-3.847970	0.276727	-0.755857
C21	C	-3.883274	0.276285	-0.835441
C22	C	-4.246635	0.285592	-0.843219
C23	C	-4.211346	0.286032	-0.763641
C24	C	-4.012012	0.281605	-0.719964
C25	C	-3.973745	0.282076	-0.633673
C26	C	-3.943259	0.282452	-0.564896
C27	C	-4.143010	0.116901	-0.097764
C28	C	-4.085994	0.013518	-0.098226
C29	C	-3.877322	-0.365044	-0.099952
C30	C	-3.935389	-0.259717	-0.099472
C31	C	-3.981657	-0.175766	-0.099090
C32	C	-4.039726	-0.070432	-0.098608
C33	C	-3.794770	0.447618	-0.100803
C34	C	-3.831025	0.551000	-0.100338
C35	C	-4.140940	0.280253	0.036183
C36	C	-4.082605	0.280725	0.120878
H37	H	-3.572101	0.274536	-0.464161
H38	H	-3.749687	0.272322	-0.864669
H39	H	-4.231340	0.291415	-0.478268
O40	O	-3.455373	0.274155	-0.308236
H41	H	-3.456929	0.337851	-0.280047
H42	H	-4.167316	0.292195	-0.333902
O43	O	-3.632980	0.271950	-0.708757
H44	H	-3.581884	0.208223	-0.664066
H45	H	-4.344922	0.289995	-0.734414
H46	H	-4.408946	0.289198	-0.878791
