data_functionalizedCrystal
_audit_creation_method	'MofGen! by Chris Wilmer'
_symmetry_space_group_name_H-M	'P1'
_symmetry_Int_Tables_number	1
_symmetry_cell_setting	triclinic
loop_
_symmetry_equiv_pos_as_xyz
  x,y,z
_cell_length_a	13.032831
_cell_length_b	13.897448
_cell_length_c	13.897441
_cell_angle_alpha	89.970373
_cell_angle_beta	82.808717
_cell_angle_gamma	82.822399
loop_
_atom_site_label
_atom_site_type_symbol
_atom_site_fract_x
_atom_site_fract_y
_atom_site_fract_z
Zn1	Zn	1.597690	-0.571557	-0.732365
Zn2	Zn	1.847690	-0.321557	-0.482365
Zn3	Zn	2.097690	-0.071557	-0.232365
Zn4	Zn	2.347690	0.178443	0.017635
Zn5	Zn	1.597581	-0.732863	-0.571054
Zn6	Zn	1.847581	-0.482863	-0.321054
Zn7	Zn	2.097581	-0.232863	-0.071054
Zn8	Zn	2.347581	0.017137	0.178946
Zn9	Zn	1.422930	-0.551080	-0.550631
Zn10	Zn	1.672930	-0.301080	-0.300631
Zn11	Zn	1.922930	-0.051080	-0.050631
Zn12	Zn	2.172930	0.198920	0.199369
Zn13	Zn	1.422904	-0.712292	-0.711863
Zn14	Zn	1.672904	-0.462292	-0.461863
Zn15	Zn	1.922904	-0.212292	-0.211863
Zn16	Zn	2.172904	0.037708	0.038137
O17	O	1.510276	-0.641948	-0.641478
O18	O	1.760276	-0.391948	-0.391478
O19	O	2.010276	-0.141948	-0.141478
O20	O	2.260276	0.108052	0.108522
O21	O	1.743916	-0.610133	-0.728094
O22	O	1.993916	-0.360133	-0.478094
O23	O	2.243916	-0.110133	-0.228094
O24	O	2.493916	0.139867	0.021906
O25	O	1.574379	-0.708788	-0.433359
O26	O	1.824379	-0.458788	-0.183359
O27	O	2.074379	-0.208788	0.066641
O28	O	2.324379	0.041212	0.316641
O29	O	1.446169	-0.418821	-0.574771
O30	O	1.696169	-0.168821	-0.324771
O31	O	1.946169	0.081179	-0.074771
O32	O	2.196169	0.331179	0.175229
O33	O	1.743837	-0.728644	-0.609579
O34	O	1.993837	-0.478644	-0.359579
O35	O	2.243837	-0.228644	-0.109579
O36	O	2.493837	0.021356	0.140421
O37	O	1.574564	-0.433865	-0.708291
O38	O	1.824564	-0.183865	-0.458291
O39	O	2.074564	0.066135	-0.208291
O40	O	2.324564	0.316135	0.041709
O41	O	1.446064	-0.575233	-0.418354
O42	O	1.696064	-0.325233	-0.168354
O43	O	1.946064	-0.075233	0.081646
O44	O	2.196064	0.174767	0.331646
O45	O	1.276686	-0.555287	-0.554891
O46	O	1.526686	-0.305287	-0.304891
O47	O	1.776686	-0.055287	-0.054891
O48	O	2.026686	0.194713	0.195109
O49	O	1.446124	-0.693584	-0.849569
O50	O	1.696124	-0.443584	-0.599569
O51	O	1.946124	-0.193584	-0.349569
O52	O	2.196124	0.056416	-0.099569
O53	O	1.276666	-0.673728	-0.673348
O54	O	1.526666	-0.423728	-0.423348
O55	O	1.776666	-0.173728	-0.173348
O56	O	2.026666	0.076272	0.076652
O57	O	1.574538	-0.590186	-0.864631
O58	O	1.824538	-0.340186	-0.614631
O59	O	2.074538	-0.090186	-0.364631
O60	O	2.324538	0.159814	-0.114631
O61	O	1.574354	-0.865109	-0.589700
O62	O	1.824354	-0.615109	-0.339700
O63	O	2.074354	-0.365109	-0.089700
O64	O	2.324354	-0.115109	0.160300
O65	O	1.446019	-0.849996	-0.693152
O66	O	1.696019	-0.599996	-0.443152
O67	O	1.946019	-0.349996	-0.193152
O68	O	2.196019	-0.099996	0.056848
C69	C	1.238757	-0.610054	-0.609679
C70	C	1.488757	-0.360054	-0.359679
C71	C	1.738757	-0.110054	-0.109679
C72	C	1.988757	0.139946	0.140321
C73	C	1.122600	-0.596433	-0.596098
C74	C	1.372600	-0.346433	-0.346098
C75	C	1.622600	-0.096433	-0.096098
C76	C	1.872600	0.153567	0.153902
C77	C	1.510200	-0.892553	-0.641441
C78	C	1.760200	-0.642553	-0.391441
C79	C	2.010200	-0.392553	-0.141441
C80	C	2.260200	-0.142553	0.108559
C81	C	1.510263	-0.999775	-0.641469
C82	C	1.760263	-0.749775	-0.391469
C83	C	2.010263	-0.499775	-0.141469
C84	C	2.260263	-0.249775	0.108531
C85	C	1.070832	-0.649057	-0.648566
C86	C	1.320832	-0.399057	-0.398566
C87	C	1.570832	-0.149057	-0.148566
C88	C	1.820832	0.100943	0.101434
C89	C	0.950778	-0.634980	-0.634531
C90	C	1.200778	-0.384980	-0.384531
C91	C	1.450778	-0.134980	-0.134531
C92	C	1.700778	0.115020	0.115469
C93	C	1.510373	-1.196082	-0.641542
C94	C	1.760373	-0.946082	-0.391542
C95	C	2.010373	-0.696082	-0.141542
C96	C	2.260373	-0.446082	0.108458
C97	C	1.510309	-1.086843	-0.641504
C98	C	1.760309	-0.836843	-0.391504
C99	C	2.010309	-0.586843	-0.141504
C100	C	2.260309	-0.336843	0.108496
C101	C	1.782855	-0.673967	-0.673402
C102	C	2.032855	-0.423967	-0.423402
C103	C	2.282855	-0.173967	-0.173402
C104	C	2.532855	0.076033	0.076598
C105	C	1.899012	-0.687612	-0.687006
C106	C	2.149012	-0.437612	-0.437006
C107	C	2.399012	-0.187612	-0.187006
C108	C	2.649012	0.062388	0.062994
C109	C	1.510340	-0.641874	-0.893079
C110	C	1.760340	-0.391874	-0.643079
C111	C	2.010340	-0.141874	-0.393079
C112	C	2.260340	0.108126	-0.143079
C113	C	1.510367	-0.641843	-1.000296
C114	C	1.760367	-0.391843	-0.750296
C115	C	2.010367	-0.141843	-0.500296
C116	C	2.260367	0.108157	-0.250296
C117	C	1.510381	-0.390367	-0.641540
C118	C	1.760381	-0.140367	-0.391540
C119	C	2.010381	0.109633	-0.141540
C120	C	2.260381	0.359633	0.108460
C121	C	1.510426	-0.283159	-0.641566
C122	C	1.760426	-0.033159	-0.391566
C123	C	2.010426	0.216841	-0.141566
C124	C	2.260426	0.466841	0.108434
C125	C	1.510389	-0.641818	-1.087368
C126	C	1.760389	-0.391818	-0.837368
C127	C	2.010389	-0.141818	-0.587368
C128	C	2.260389	0.108182	-0.337368
C129	C	1.510419	-0.641778	-1.196604
C130	C	1.760419	-0.391778	-0.946604
C131	C	2.010419	-0.141778	-0.696604
C132	C	2.260419	0.108222	-0.446604
C133	C	1.510273	-0.641959	-0.390863
C134	C	1.760273	-0.391959	-0.140863
C135	C	2.010273	-0.141959	0.109137
C136	C	2.260273	0.108041	0.359137
C137	C	1.510448	-0.641742	-0.283671
C138	C	1.760448	-0.391742	-0.033671
C139	C	2.010448	-0.141742	0.216329
C140	C	2.260448	0.108258	0.466329
H141	H	1.115391	-0.704528	-0.703879
H142	H	1.365391	-0.454528	-0.453879
H143	H	1.615391	-0.204528	-0.203879
H144	H	1.865391	0.045472	0.046121
H145	H	0.906223	-0.579498	-0.579221
H146	H	1.156223	-0.329498	-0.329221
H147	H	1.406223	-0.079498	-0.079221
H148	H	1.656223	0.170502	0.170779
H149	H	0.943566	-0.743085	-0.742326
H150	H	1.193566	-0.493085	-0.492326
H151	H	1.443566	-0.243085	-0.242326
H152	H	1.693566	0.006915	0.007674
H153	H	1.078042	-0.540954	-0.540792
H154	H	1.328042	-0.290954	-0.290792
H155	H	1.578042	-0.040954	-0.040792
H156	H	1.828042	0.209046	0.209208
