data_functionalizedCrystal
_audit_creation_method	'MofGen! by Chris Wilmer'
_symmetry_space_group_name_H-M	'P1'
_symmetry_Int_Tables_number	1
_symmetry_cell_setting	triclinic
loop_
_symmetry_equiv_pos_as_xyz
  x,y,z
_cell_length_a	27.732048
_cell_length_b	23.532407
_cell_length_c	22.610064
_cell_angle_alpha	90.000603
_cell_angle_beta	89.997337
_cell_angle_gamma	97.254333
loop_
_atom_site_label
_atom_site_type_symbol
_atom_site_fract_x
_atom_site_fract_y
_atom_site_fract_z
O1	O	0.641035	-0.067758	-0.049114
O2	O	0.500257	-0.078062	-0.049133
O3	O	0.574891	0.010031	-0.049112
O4	O	0.566401	-0.155851	-0.049135
O5	O	0.574878	0.010018	0.049257
O6	O	0.500244	-0.078075	0.049236
O7	O	0.641022	-0.067771	0.049255
Zn8	Zn	0.570631	-0.072925	0.064864
Zn9	Zn	0.570648	-0.072908	-0.064742
O10	O	0.566388	-0.155864	0.049234
C11	C	0.482243	-0.077852	0.000049
C12	C	0.428587	-0.077201	0.000043
N13	N	0.570622	-0.072936	0.153316
C14	C	0.574668	0.031240	0.000074
C15	C	0.574018	0.094455	0.000078
C16	C	0.089846	-0.125158	0.000062
C17	C	-0.111817	-0.122741	0.000067
O18	O	-0.143005	-0.166594	0.000087
N19	N	-0.131021	-0.070506	0.000073
C20	C	-0.099806	-0.018871	0.000082
O21	O	-0.120768	0.025614	0.000093
C22	C	0.101856	-0.021288	0.000081
C23	C	0.121057	-0.073527	0.000069
C24	C	0.109048	-0.177392	0.000050
C25	C	0.159461	-0.177996	0.000046
C26	C	0.190672	-0.126365	0.000052
C27	C	0.171470	-0.074130	0.000064
C28	C	0.133071	0.030346	0.000093
C29	C	0.183489	0.029737	0.000095
C30	C	0.202690	-0.022501	0.000083
C31	C	0.253094	-0.023103	0.000066
N32	N	0.272298	-0.075338	0.000060
C33	C	0.241087	-0.126969	0.000053
C34	C	-0.205682	-0.017606	0.000082
C35	C	-0.256097	-0.017001	0.000081
C36	C	-0.268105	-0.120872	0.000067
C37	C	-0.217689	-0.121476	0.000064
C38	C	-0.186478	-0.069841	0.000075
C39	C	0.346958	-0.128233	0.000043
C40	C	0.397376	-0.128832	0.000036
C41	C	0.409379	-0.024962	0.000053
C42	C	0.358966	-0.024362	0.000057
C43	C	0.327756	-0.076003	0.000054
O44	O	0.284311	0.020727	0.000053
O45	O	0.262058	-0.171448	0.000055
C46	C	0.039433	-0.124554	0.000066
C47	C	0.020232	-0.072320	0.000078
C48	C	0.051443	-0.020689	0.000085
C49	C	-0.030184	-0.071715	0.000077
C50	C	-0.061395	-0.123346	0.000070
C51	C	-0.042191	-0.175581	0.000064
C52	C	0.008222	-0.176185	0.000059
C53	C	0.032239	0.031547	0.000091
C54	C	-0.018175	0.032146	0.000095
C55	C	-0.049386	-0.019485	0.000088
C56	C	0.659035	-0.067981	0.000071
C57	C	0.712691	-0.068632	0.000074
C58	C	0.566610	-0.177073	0.000047
C59	C	0.567260	-0.240289	0.000038
C60	C	0.614108	0.493644	0.000051
C61	C	0.613504	0.553043	0.000047
O62	O	0.650668	0.589867	0.000030
N63	N	0.569134	0.575574	0.000041
C64	C	0.525365	0.538703	0.000034
O65	O	0.487570	0.563322	0.000029
C66	C	0.525970	0.479306	0.000035
C67	C	0.570342	0.456778	0.000046
C68	C	0.658477	0.471116	0.000062
C69	C	0.659081	0.411721	0.000068
C70	C	0.615315	0.374854	0.000063
C71	C	0.570946	0.397383	0.000052
C72	C	0.482201	0.442436	0.000023
C73	C	0.482810	0.383035	0.000023
C74	C	0.527182	0.360507	0.000035
C75	C	0.527784	0.301122	0.000052
N76	N	0.572154	0.278590	0.000058
C77	C	0.615920	0.315457	0.000063
C78	C	0.524100	0.663443	0.000032
C79	C	0.523495	0.722840	0.000036
C80	C	0.611634	0.737175	0.000048
C81	C	0.612238	0.677778	0.000048
C82	C	0.568469	0.640912	0.000038
C83	C	0.617184	0.190723	0.000075
C84	C	0.617784	0.131322	0.000083
C85	C	0.529645	0.116991	0.000069
C86	C	0.529045	0.176387	0.000064
C87	C	0.572818	0.213252	0.000065
O88	O	0.490640	0.264263	0.000067
O89	O	0.653709	0.290829	0.000061
N90	N	0.570660	-0.072892	-0.153194
C91	C	0.603697	-0.033907	0.561967
C92	C	0.603700	-0.033902	0.623887
O93	O	0.631801	-0.000727	0.655913
N94	N	0.570648	-0.072896	0.654853
C95	C	0.537588	-0.111893	0.623897
O96	O	0.509474	-0.145060	0.655922
C97	C	0.537583	-0.111894	0.561978
C98	C	0.570641	-0.072901	0.531015
C99	C	0.636752	0.005083	0.531003
C100	C	0.636750	0.005078	0.469088
C101	C	0.603693	-0.033917	0.438136
C102	C	0.570639	-0.072906	0.469099
C103	C	0.504521	-0.150887	0.531023
C104	C	0.504519	-0.150885	0.469100
C105	C	0.537577	-0.111892	0.438136
C106	C	0.537580	-0.111906	0.376231
N107	N	0.570632	-0.072912	0.345265
C108	C	0.603689	-0.033918	0.376217
C109	C	0.537599	-0.111887	0.753931
C110	C	0.537605	-0.111889	0.815848
C111	C	0.603717	-0.033898	0.815834
C112	C	0.603713	-0.033899	0.753915
C113	C	0.570651	-0.072893	0.722964
C114	C	0.603683	-0.033931	0.246189
C115	C	0.603679	-0.033941	0.184268
C116	C	0.537566	-0.111931	0.184288
C117	C	0.537571	-0.111923	0.246204
C118	C	0.570631	-0.072918	0.277153
O119	O	0.509492	-0.145064	0.344165
O120	O	0.631794	-0.000752	0.344184
H121	H	0.413007	-0.171373	0.000026
H122	H	0.446068	0.460767	0.000010
H123	H	-0.033803	0.074688	0.000100
H124	H	0.648370	0.659440	0.000057
N125	N	0.637459	0.005901	0.277798
N126	N	0.667379	-0.011923	0.312344
H127	H	0.691236	0.016206	0.334668
H128	H	-0.180274	0.024444	0.000091
N129	N	-0.299986	-0.173616	0.000060
N130	N	-0.298382	-0.208461	-0.041404
H131	H	-0.320900	-0.245710	-0.041405
H132	H	0.487362	0.741176	0.000037
H133	H	0.488456	0.633430	0.000029
N134	N	0.438095	0.345386	0.000006
N135	N	0.398484	0.365513	-0.000008
H136	H	0.366904	0.338925	-0.000020
H137	H	0.117446	0.072884	0.000104
N138	N	0.704411	0.388723	0.000077
N139	N	0.743480	0.421655	0.000079
H140	H	0.775498	0.405418	0.000084
N141	N	0.503806	-0.151760	0.152656
N142	N	0.503812	-0.151752	0.097372
H143	H	0.479967	-0.179879	0.075029
H144	H	0.510692	-0.143647	0.841054
N145	N	0.670556	0.044872	0.437473
N146	N	0.700088	0.079656	0.465127
H147	H	0.723978	0.107748	0.442803
N148	N	0.339349	0.028996	0.000075
N149	N	0.312560	0.040915	0.041549
H150	H	0.298708	0.078600	0.041568
H151	H	0.057647	0.073592	0.000098
H152	H	0.630631	-0.002148	0.728708
H153	H	0.510677	-0.143646	0.728733
N154	N	-0.275717	0.036354	0.000082
N155	N	-0.302507	0.048288	-0.041379
H156	H	-0.316363	0.085971	-0.041376
H157	H	0.477603	-0.182638	0.556225
H158	H	0.492913	0.194730	0.000071
N159	N	0.670523	0.044925	0.562605
N160	N	0.700029	0.079733	0.534939
H161	H	0.723884	0.107872	0.557254
H162	H	0.477595	-0.182638	0.443902
H163	H	0.510657	-0.143679	0.271415
H164	H	0.630633	-0.002146	0.841046
N165	N	0.703191	0.508760	0.000063
N166	N	0.742799	0.488626	0.000071
H167	H	0.774382	0.515209	0.000075
H168	H	0.321553	-0.170283	0.000042
H169	H	0.208899	0.071785	0.000105
H170	H	-0.202059	-0.164013	0.000057
H171	H	0.652829	0.220731	0.000074
N172	N	0.179060	-0.231363	0.000046
N173	N	0.169398	-0.266069	0.041509
H174	H	0.183236	-0.303764	0.041512
N175	N	0.077178	-0.230142	0.000047
N176	N	0.094339	-0.276771	0.000039
H177	H	0.071834	-0.314030	0.000033
H178	H	0.434801	0.017075	0.000056
H179	H	0.023850	-0.218723	0.000050
H180	H	-0.067612	-0.217621	0.000056
H181	H	0.653919	0.112983	0.000094
H182	H	0.647270	0.767203	0.000050
N183	N	0.484943	0.079325	0.000046
N184	N	0.455381	0.081154	-0.041432
H185	H	0.423810	0.054550	-0.041455
H186	H	0.630600	-0.002189	0.159060
