data_functionalizedCrystal
_audit_creation_method	'MofGen! by Chris Wilmer'
_symmetry_space_group_name_H-M	'P1'
_symmetry_Int_Tables_number	1
_symmetry_cell_setting	triclinic
loop_
_symmetry_equiv_pos_as_xyz
  x,y,z
_cell_length_a	12.759394
_cell_length_b	19.077105
_cell_length_c	19.077174
_cell_angle_alpha	94.516248
_cell_angle_beta	92.274588
_cell_angle_gamma	92.288709
loop_
_atom_site_label
_atom_site_type_symbol
_atom_site_fract_x
_atom_site_fract_y
_atom_site_fract_z
Zn1	Zn	-0.510482	-1.093765	-0.441858
Zn2	Zn	-0.678821	-1.088969	-0.323976
Zn3	Zn	-0.495796	-0.971148	-0.319255
Zn4	Zn	-0.678752	-0.975863	-0.437093
O5	O	-0.590963	-1.032436	-0.380546
O6	O	-0.538988	-1.191779	-0.430190
O7	O	-0.648424	-1.069360	-0.224699
O8	O	-0.350726	-0.987447	-0.335538
O9	O	-0.662665	-1.188256	-0.343582
O10	O	-0.361516	-1.077533	-0.425614
O11	O	-0.513957	-0.982797	-0.221232
O12	O	-0.513890	-0.873123	-0.330917
O13	O	-0.662548	-0.995483	-0.536375
O14	O	-0.648307	-0.876587	-0.417492
O15	O	-0.538921	-1.082105	-0.539876
O16	O	-0.825829	-1.073931	-0.338962
O17	O	-0.825779	-0.990833	-0.422069
C18	C	-0.863926	-1.032393	-0.380527
C19	C	-0.980707	-1.032440	-0.380545
C20	C	-0.579498	-0.849276	-0.373176
C21	C	-0.574620	-0.770919	-0.370040
C22	C	-0.602365	-1.039855	-0.564420
C23	C	-0.607224	-1.043016	-0.642776
C24	C	-0.980715	-1.119041	-0.294076
C25	C	-1.035581	-1.162360	-0.250850
C26	C	-1.145306	-1.162402	-0.250871
C27	C	-1.200168	-1.119122	-0.294124
C28	C	-1.145302	-1.075803	-0.337349
C29	C	-1.035574	-1.075764	-0.337322
C30	C	-1.145294	-0.989207	-0.423821
C31	C	-1.035569	-0.989160	-0.423798
C32	C	-1.200156	-0.945927	-0.467074
C33	C	-1.145289	-0.902603	-0.510297
C34	C	-1.035557	-0.902562	-0.510274
C35	C	-0.980702	-0.945841	-0.467023
C36	C	-0.316935	-1.032499	-0.380581
C37	C	-0.200161	-1.032526	-0.380596
C38	C	-0.602472	-1.216312	-0.387945
C39	C	-0.607377	-1.294669	-0.391097
C40	C	-0.642409	-0.735926	-0.413571
C41	C	-0.637812	-0.662303	-0.410628
C42	C	-0.565430	-0.623673	-0.364149
C43	C	-0.497634	-0.658671	-0.320617
C44	C	-0.502227	-0.732293	-0.323564
C45	C	-0.544174	-0.403289	-0.350512
C46	C	-0.539588	-0.329662	-0.347567
C47	C	-0.679765	-0.333299	-0.437579
C48	C	-0.684356	-0.406923	-0.440519
C49	C	-0.616556	-0.441914	-0.396989
N50	N	-0.560731	-0.548417	-0.361138
N51	N	-0.621251	-0.517168	-0.400004
C52	C	-0.539498	-0.999435	-0.677782
C53	C	-0.544073	-1.002403	-0.751406
C54	C	-0.616368	-1.048956	-0.790023
C55	C	-0.684101	-1.092539	-0.755012
C56	C	-0.679531	-1.089567	-0.681389
C57	C	-0.637548	-1.062673	-1.010405
C58	C	-0.642110	-1.065643	-1.084032
C59	C	-0.502082	-0.975506	-1.080421
C60	C	-0.497515	-0.972541	-1.006798
C61	C	-0.565251	-1.016121	-0.971793
N62	N	-0.621043	-1.051992	-0.865278
N63	N	-0.560581	-1.013081	-0.896539
C64	C	-0.579531	-1.025087	-0.197389
C65	C	-0.574385	-1.022062	-0.119038
H66	H	-0.891369	-1.119002	-0.294045
H67	H	-0.742971	-1.130440	-0.786459
O68	O	-0.429121	-0.770035	-0.276603
H69	H	-0.346565	-0.756405	-0.288217
O70	O	-0.976404	-1.209040	-0.204203
H71	H	-1.032992	-1.239173	-0.174156
H72	H	-0.734963	-0.304801	-0.473019
H73	H	-0.990891	-0.867289	-0.545476
O74	O	-0.710924	-0.624488	-0.457516
H75	H	-0.760163	-0.589662	-0.424486
O76	O	-0.720464	-0.777586	-0.463715
H77	H	-0.712272	-0.834660	-0.458454
H78	H	-0.891358	-0.945807	-0.466995
O79	O	-1.204494	-1.209121	-0.204249
H80	H	-1.147917	-1.239206	-0.174166
H81	H	-0.734674	-1.125061	-0.652888
O82	O	-0.471071	-0.441014	-0.303540
H83	H	-0.388512	-0.427382	-0.315144
H84	H	-1.289513	-1.119167	-0.294143
O85	O	-0.762416	-0.448589	-0.490655
H86	H	-0.808775	-0.411887	-0.520437
O87	O	-0.419587	-0.617010	-0.270467
H88	H	-0.427797	-0.559936	-0.275718
H89	H	-0.480635	-0.298211	-0.309723
H90	H	-0.480622	-0.961530	-0.646345
O91	O	-1.318502	-0.945962	-0.467095
H92	H	-1.347439	-0.983347	-0.429764
H93	H	-0.488927	-0.966912	-0.779904
O94	O	-0.419521	-0.922343	-0.965146
H95	H	-0.373191	-0.892537	-1.001858
H96	H	-0.446936	-0.940024	-1.108930
O97	O	-0.720099	-1.115852	-1.125685
H98	H	-0.704682	-1.170615	-1.113779
O99	O	-1.204455	-0.855919	-0.556937
H100	H	-1.289971	-0.863224	-0.549687
H101	H	-0.692715	-1.098152	-0.981912
