data_functionalizedCrystal
_audit_creation_method	'MofGen! by Chris Wilmer'
_symmetry_space_group_name_H-M	'P1'
_symmetry_Int_Tables_number	1
_symmetry_cell_setting	triclinic
loop_
_symmetry_equiv_pos_as_xyz
  x,y,z
_cell_length_a	12.645330
_cell_length_b	12.645331
_cell_length_c	18.050582
_cell_angle_alpha	90.011369
_cell_angle_beta	89.981661
_cell_angle_gamma	89.981279
loop_
_atom_site_label
_atom_site_type_symbol
_atom_site_fract_x
_atom_site_fract_y
_atom_site_fract_z
Zn1	Zn	-0.422070	-1.620661	-0.419850
Zn2	Zn	-0.599338	-1.620564	-0.295671
Zn3	Zn	-0.422092	-1.443397	-0.295684
Zn4	Zn	-0.599295	-1.443358	-0.419829
O5	O	-0.510699	-1.531995	-0.357758
O6	O	-0.445594	-1.768996	-0.403381
O7	O	-0.575853	-1.597037	-0.191748
O8	O	-0.273742	-1.466968	-0.312169
O9	O	-0.575832	-1.768924	-0.312147
O10	O	-0.273726	-1.597204	-0.403393
O11	O	-0.445631	-1.466874	-0.191757
O12	O	-0.445590	-1.295044	-0.312148
O13	O	-0.575759	-1.466902	-0.523756
O14	O	-0.575780	-1.295016	-0.403357
O15	O	-0.445552	-1.597166	-0.523772
O16	O	-0.747680	-1.597000	-0.312126
O17	O	-0.747648	-1.466807	-0.403345
C18	C	-0.510684	-1.256565	-0.357752
C19	C	-0.510703	-1.138735	-0.357767
C20	C	-0.592746	-1.093871	-0.415063
C21	C	-0.593084	-0.971311	-0.414893
C22	C	-0.540530	-0.970795	-0.279406
C23	C	-0.541108	-1.093393	-0.279738
C24	C	-0.398661	-1.093586	-0.378148
C25	C	-0.399281	-0.970980	-0.379874
C26	C	-0.786129	-1.531917	-0.357748
C27	C	-0.903959	-1.531981	-0.357768
C28	C	-1.071547	-1.450415	-0.415331
C29	C	-0.948988	-1.449998	-0.415146
C30	C	-0.948541	-1.501749	-0.279503
C31	C	-1.071139	-1.501251	-0.279853
C32	C	-1.071049	-1.644279	-0.377836
C33	C	-0.948443	-1.643591	-0.379548
C34	C	-0.234194	-1.532101	-0.357785
C35	C	-0.116364	-1.532147	-0.357796
C36	C	-0.510649	-1.532041	-0.551464
C37	C	-0.510627	-1.532060	-0.634010
C38	C	-0.510718	-0.808500	-0.357764
C39	C	-0.510733	-0.926330	-0.357767
C40	C	-0.581318	-1.461289	-0.882827
C41	C	-0.484627	-1.435377	-0.833435
C42	C	-0.510471	-1.532150	-0.931130
C43	C	-0.607234	-1.557967	-0.833441
C44	C	-0.510553	-1.532103	-0.785145
C45	C	-0.413728	-1.506188	-0.882825
C46	C	-0.536401	-1.628824	-0.882836
C47	C	-0.439643	-1.602949	-0.833466
C48	C	-0.510426	-1.532174	-1.015229
C49	C	-0.510588	-1.532079	-0.701049
C50	C	-0.510673	-1.532010	-0.164806
C51	C	-0.510396	-1.532196	-0.082261
H52	H	-0.676116	-0.941955	-0.401371
H53	H	-1.100029	-1.705171	-0.335931
F54	F	-1.108642	-1.394112	-0.257663
H55	H	-0.379696	-1.662854	-0.811930
H56	H	-0.621527	-0.940068	-0.261887
H57	H	-0.689031	-1.579825	-0.811749
H58	H	-0.675298	-1.124650	-0.401705
H59	H	-0.918843	-1.468912	-0.473179
F60	F	-0.369897	-0.933001	-0.455252
F61	F	-0.659484	-1.382932	-0.911159
F62	F	-0.565068	-1.735679	-0.911223
F63	F	-1.110004	-1.474904	-0.491435
F64	F	-1.111954	-1.342440	-0.398213
F65	F	-0.568753	-1.132465	-0.491231
H66	H	-0.917928	-1.420634	-0.262219
H67	H	-0.622994	-1.121960	-0.262512
H68	H	-0.482608	-0.941659	-0.235544
H69	H	-0.334932	-0.940362	-0.341218
F70	F	-0.466369	-1.132187	-0.222009
H71	H	-0.331908	-1.484239	-0.904427
H72	H	-0.574497	-0.941248	-0.472986
F73	F	-0.363069	-1.134032	-0.451577
F74	F	-0.455994	-1.328491	-0.805072
F75	F	-0.318772	-1.131506	-0.323607
H76	H	-0.919752	-1.366868	-0.401870
H77	H	-1.100788	-1.558198	-0.235523
H78	H	-0.919374	-1.559392	-0.235464
F79	F	-1.111374	-1.680330	-0.451164
F80	F	-0.910354	-1.673394	-0.454834
H81	H	-0.917785	-1.707691	-0.340694
