data_functionalizedCrystal
_audit_creation_method	'MofGen! by Chris Wilmer'
_symmetry_space_group_name_H-M	'P1'
_symmetry_Int_Tables_number	1
_symmetry_cell_setting	triclinic
loop_
_symmetry_equiv_pos_as_xyz
  x,y,z
_cell_length_a	21.295418
_cell_length_b	21.295417
_cell_length_c	21.395355
_cell_angle_alpha	89.978549
_cell_angle_beta	89.956257
_cell_angle_gamma	90.046319
loop_
_atom_site_label
_atom_site_type_symbol
_atom_site_fract_x
_atom_site_fract_y
_atom_site_fract_z
Zn1	Zn	0.962356	-0.250416	-0.354570
Zn2	Zn	1.462356	0.249584	0.145430
Zn3	Zn	0.962258	-0.355668	-0.249787
Zn4	Zn	1.462258	0.144332	0.250213
Zn5	Zn	0.857079	-0.250446	-0.249771
Zn6	Zn	1.357079	0.249554	0.250229
Zn7	Zn	0.857048	-0.355681	-0.354492
Zn8	Zn	1.357048	0.144319	0.145508
O9	O	0.909685	-0.303053	-0.302155
O10	O	1.409685	0.196947	0.197845
O11	O	1.050432	-0.264361	-0.340709
O12	O	1.550432	0.235639	0.159291
O13	O	0.948278	-0.341717	-0.162107
O14	O	1.448278	0.158283	0.337893
O15	O	0.871098	-0.162352	-0.263699
O16	O	1.371098	0.337648	0.236301
O17	O	1.050361	-0.341689	-0.263725
O18	O	1.550361	0.158311	0.236275
O19	O	0.948444	-0.162331	-0.340694
O20	O	1.448444	0.337669	0.159306
O21	O	0.871003	-0.264410	-0.162095
O22	O	1.371003	0.235590	0.337905
O23	O	0.768986	-0.264423	-0.263624
O24	O	1.268986	0.235577	0.236376
O25	O	0.871046	-0.341710	-0.442180
O26	O	1.371046	0.158290	0.057820
O27	O	0.768963	-0.341739	-0.340561
O28	O	1.268963	0.158261	0.159439
O29	O	0.948415	-0.264373	-0.442237
O30	O	1.448415	0.235627	0.057763
O31	O	0.948248	-0.443759	-0.263650
O32	O	1.448248	0.056241	0.236350
O33	O	0.870951	-0.443768	-0.340576
O34	O	1.370951	0.056232	0.159424
C35	C	0.746134	-0.303086	-0.302083
C36	C	1.246134	0.196914	0.197917
C37	C	0.676166	-0.303115	-0.302067
C38	C	1.176166	0.196885	0.197933
C39	C	0.909603	-0.466604	-0.302120
C40	C	1.409603	0.033396	0.197880
C41	C	0.909625	-0.536572	-0.302126
C42	C	1.409625	-0.036572	0.197874
C43	C	0.643304	-0.343427	-0.342068
C44	C	1.143304	0.156573	0.157932
C45	C	0.577561	-0.343411	-0.342096
C46	C	1.077561	0.156589	0.157904
C47	C	0.544683	-0.303091	-0.302112
C48	C	1.044683	0.196909	0.197888
C49	C	0.577553	-0.262771	-0.262107
C50	C	1.077553	0.237229	0.237893
C51	C	0.643294	-0.262783	-0.262085
C52	C	1.143294	0.237217	0.237915
N53	N	0.441407	-0.298163	-0.247311
N54	N	0.941407	0.201837	0.252689
N55	N	0.378956	-0.298156	-0.247335
N56	N	0.878956	0.201844	0.252665
C57	C	0.346608	-0.303051	-0.302178
C58	C	0.846608	0.196949	0.197822
N59	N	0.379072	-0.307966	-0.356999
N60	N	0.879072	0.192034	0.143001
N61	N	0.441529	-0.307977	-0.356975
N62	N	0.941529	0.192023	0.143025
C63	C	0.473398	-0.303073	-0.302132
C64	C	0.973398	0.196927	0.197868
C65	C	0.242461	-0.343348	-0.342214
C66	C	0.742461	0.156652	0.157786
C67	C	0.176717	-0.343328	-0.342243
C68	C	0.676717	0.156672	0.157757
C69	C	0.176710	-0.262691	-0.262248
C70	C	0.676710	0.237309	0.237752
C71	C	0.242453	-0.262708	-0.262225
C72	C	0.742453	0.237292	0.237775
C73	C	0.275324	-0.303039	-0.302206
C74	C	0.775324	0.196961	0.197794
C75	C	0.949910	-0.569413	-0.262112
C76	C	1.449910	-0.069413	0.237888
C77	C	0.949939	-0.635156	-0.262126
C78	C	1.449939	-0.135156	0.237874
C79	C	0.909673	-0.668055	-0.302148
C80	C	1.409673	-0.168055	0.197852
C81	C	0.869386	-0.635206	-0.342170
C82	C	1.369386	-0.135206	0.157830
C83	C	0.869362	-0.569465	-0.342159
C84	C	1.369362	-0.069465	0.157841
N85	N	0.854606	-0.771337	-0.306900
N86	N	1.354606	-0.271337	0.193100
N87	N	0.854630	-0.833788	-0.306907
N88	N	1.354630	-0.333788	0.193093
C89	C	0.909743	-0.866130	-0.302184
C90	C	1.409743	-0.366130	0.197816
N91	N	0.964832	-0.833660	-0.297442
N92	N	1.464832	-0.333660	0.202558
N93	N	0.964807	-0.771203	-0.297432
N94	N	1.464807	-0.271203	0.202568
C95	C	0.909695	-0.739340	-0.302164
C96	C	1.409695	-0.239340	0.197836
C97	C	0.950063	-0.970256	-0.262182
C98	C	1.450063	-0.470256	0.237818
C99	C	0.950094	-1.036000	-0.262201
C100	C	1.450094	-0.536000	0.237799
C101	C	0.869535	-1.036049	-0.342242
C102	C	1.369535	-0.536049	0.157758
C103	C	0.869510	-0.970306	-0.342227
C104	C	1.369510	-0.470306	0.157773
C105	C	0.909773	-0.937414	-0.302194
C106	C	1.409773	-0.437414	0.197806
C107	C	1.073876	-0.303020	-0.302228
C108	C	1.573876	0.196980	0.197772
C109	C	1.143844	-0.303006	-0.302259
C110	C	1.643844	0.196994	0.197741
C111	C	0.909738	-0.303040	-0.465578
C112	C	1.409738	0.196960	0.034422
C113	C	0.909760	-0.303034	-0.535219
C114	C	1.409760	0.196966	-0.035219
C115	C	0.909785	-0.138862	-0.302203
C116	C	1.409785	0.361138	0.197797
C117	C	0.909828	-0.068894	-0.302224
C118	C	1.409828	0.431106	0.197776
C119	C	0.950044	-0.262763	-0.567963
C120	C	1.450044	0.237237	-0.067963
C121	C	0.950043	-0.262736	-0.633399
C122	C	1.450043	0.237264	-0.133399
C123	C	0.909765	-0.302992	-0.666088
C124	C	1.409765	0.197008	-0.166088
C125	C	0.869473	-0.343266	-0.633336
C126	C	1.369473	0.156734	-0.133336
C127	C	0.869470	-0.343287	-0.567902
C128	C	1.369470	0.156713	-0.067902
C129	C	0.904766	-0.359673	-0.769749
C130	C	1.404766	0.140327	-0.269749
C131	C	0.904773	-0.359653	-0.835182
C132	C	1.404773	0.140347	-0.335182
C133	C	0.909769	-0.302925	-0.867909
C134	C	1.409769	0.197075	-0.367909
C135	C	0.914771	-0.246216	-0.835195
C136	C	1.414771	0.253784	-0.335195
C137	C	0.914769	-0.246238	-0.769760
C138	C	1.414769	0.253762	-0.269760
C139	C	0.909763	-0.302973	-0.737040
C140	C	1.409763	0.197027	-0.237040
C141	C	0.950054	-0.262621	-0.971605
C142	C	1.450054	0.237379	-0.471605
C143	C	0.950049	-0.262593	-1.037042
C144	C	1.450049	0.237407	-0.537042
C145	C	0.869482	-0.343128	-1.036978
C146	C	1.369482	0.156872	-0.536978
C147	C	0.869484	-0.343151	-0.971542
C148	C	1.369484	0.156849	-0.471542
C149	C	0.909773	-0.302898	-0.938860
C150	C	1.409773	0.197102	-0.438860
C151	C	0.909670	-0.303020	-0.139367
C152	C	1.409670	0.196980	0.360633
C153	C	0.909769	-0.302848	-0.069726
C154	C	1.409769	0.197152	0.430274
H155	H	0.670064	-0.376267	-0.374626
H156	H	1.170064	0.123733	0.125374
H157	H	0.269226	-0.376185	-0.374773
H158	H	0.769226	0.123815	0.125227
H159	H	0.149962	-0.376153	-0.374821
H160	H	0.649962	0.123847	0.125179
H161	H	0.982746	-0.661900	-0.229541
H162	H	1.482746	-0.161900	0.270459
H163	H	0.836602	-0.661997	-0.374757
H164	H	1.336602	-0.161997	0.125243
H165	H	0.900529	-0.405856	-0.743108
H166	H	1.400529	0.094144	-0.243108
H167	H	0.900703	-0.405829	-0.861813
H168	H	1.400703	0.094171	-0.361813
H169	H	0.836557	-0.542725	-0.374745
H170	H	1.336557	-0.042725	0.125255
H171	H	0.149942	-0.229858	-0.229695
H172	H	0.649942	0.270142	0.270305
H173	H	0.918840	-0.200063	-0.743127
H174	H	1.418840	0.299937	-0.243127
H175	H	0.982846	-0.229939	-0.660064
H176	H	1.482846	0.270061	-0.160064
H177	H	0.550800	-0.376238	-0.374673
H178	H	1.050800	0.123762	0.125327
H179	H	0.550779	-0.229941	-0.229553
H180	H	1.050779	0.270059	0.270447
H181	H	0.836752	-1.062835	-0.374831
H182	H	1.336752	-0.562835	0.125169
H183	H	0.982850	-0.943474	-0.229587
H184	H	1.482850	-0.443474	0.270413
H185	H	0.982696	-0.542634	-0.229516
H186	H	1.482696	-0.042634	0.270484
H187	H	0.918841	-0.200023	-0.861839
H188	H	1.418841	0.299977	-0.361839
H189	H	0.982857	-0.229842	-0.944994
H190	H	1.482857	0.270158	-0.444994
H191	H	0.670050	-0.229955	-0.229511
H192	H	1.170050	0.270045	0.270489
H193	H	0.269209	-0.229884	-0.229648
H194	H	0.769209	0.270116	0.270352
H195	H	0.836704	-0.943566	-0.374808
H196	H	1.336704	-0.443566	0.125192
H197	H	0.982852	-0.229796	-1.063701
H198	H	1.482852	0.270204	-0.563701
H199	H	0.982902	-1.062738	-0.229618
H200	H	1.482902	-0.562738	0.270382
H201	H	0.982850	-0.229986	-0.541357
H202	H	1.482850	0.270014	-0.041357
H203	H	0.836680	-0.375898	-1.063593
H204	H	1.336680	0.124102	-0.563593
H205	H	0.836683	-0.375948	-0.944882
H206	H	1.336683	0.124052	-0.444882
H207	H	0.836676	-0.376040	-0.659956
H208	H	1.336676	0.123960	-0.159956
H209	H	0.836663	-0.376080	-0.541242
H210	H	1.336663	0.123920	-0.041242
