data_functionalizedCrystal
_audit_creation_method	'MofGen! by Chris Wilmer'
_symmetry_space_group_name_H-M	'P1'
_symmetry_Int_Tables_number	1
_symmetry_cell_setting	triclinic
loop_
_symmetry_equiv_pos_as_xyz
  x,y,z
_cell_length_a	14.519731
_cell_length_b	12.837942
_cell_length_c	11.892095
_cell_angle_alpha	85.697431
_cell_angle_beta	86.093546
_cell_angle_gamma	90.741103
loop_
_atom_site_label
_atom_site_type_symbol
_atom_site_fract_x
_atom_site_fract_y
_atom_site_fract_z
O1	O	1.240923	-0.129398	-0.094000
O2	O	0.973830	-0.145380	-0.094003
O3	O	1.101454	0.013525	-0.093994
O4	O	1.113300	-0.288303	-0.094008
O5	O	1.090811	0.000296	0.094012
O6	O	0.963188	-0.158609	0.094004
O7	O	1.230281	-0.142627	0.094007
Zn8	Zn	1.095044	-0.152718	0.123856
Zn9	Zn	1.109067	-0.135289	-0.123851
O10	O	1.102657	-0.301532	0.093999
C11	C	0.934085	-0.151245	0.000000
C12	C	0.831511	-0.149001	-0.000001
C13	C	1.092131	0.045539	0.000008
C14	C	1.080197	0.160639	0.000006
C15	C	1.270026	-0.136761	0.000001
C16	C	1.372601	-0.139005	-0.000005
C17	C	1.455903	-0.140828	-0.000007
C18	C	1.560408	-0.143106	-0.000005
C19	C	1.643703	-0.144915	-0.000003
C20	C	1.748216	-0.147193	-0.000003
C21	C	1.111980	-0.333545	-0.000007
C22	C	1.123914	-0.448645	-0.000012
N23	N	1.085481	-0.164613	0.292909
C24	C	1.223669	0.401321	-0.000016
C25	C	1.212460	0.509468	-0.000018
C26	C	1.046572	0.485085	-0.000008
C27	C	1.057781	0.376937	-0.000006
C28	C	1.146332	0.335059	-0.000008
C29	C	1.157539	0.226909	0.000002
C30	C	0.991653	0.202528	0.000004
C31	C	0.980444	0.310676	0.000002
N32	N	1.118637	-0.123386	-0.292905
C33	C	1.185177	-0.040559	0.529564
C34	C	1.178499	-0.048881	0.647905
C35	C	1.065445	-0.189572	0.647936
C36	C	1.072122	-0.181250	0.529594
C37	C	1.131991	-0.106743	0.470412
C38	C	1.138673	-0.098426	0.352069
C39	C	1.025614	-0.239112	0.352102
C40	C	1.018937	-0.247434	0.470443
H41	H	1.229642	0.192814	0.000004
Br42	Br	0.937685	-0.348543	0.550768
Br43	Br	1.219926	0.002685	0.271752
Br44	Br	1.343839	0.344478	0.000016
Br45	Br	1.317422	0.599394	-0.000036
H46	H	0.974479	0.519202	-0.000018
H47	H	1.233931	0.020101	0.481377
Br48	Br	1.250678	0.040948	0.728180
H49	H	1.016695	-0.250228	0.696137
Br50	Br	0.860275	0.367521	-0.000009
Br51	Br	0.886688	0.112594	0.000035
H52	H	0.982310	-0.293006	0.303927
