data_functionalizedCrystal
_audit_creation_method	'MofGen! by Chris Wilmer'
_symmetry_space_group_name_H-M	'P1'
_symmetry_Int_Tables_number	1
_symmetry_cell_setting	triclinic
loop_
_symmetry_equiv_pos_as_xyz
  x,y,z
_cell_length_a	10.967926
_cell_length_b	9.482900
_cell_length_c	9.065215
_cell_angle_alpha	80.525759
_cell_angle_beta	84.859195
_cell_angle_gamma	87.450100
loop_
_atom_site_label
_atom_site_type_symbol
_atom_site_fract_x
_atom_site_fract_y
_atom_site_fract_z
O1	O	1.613036	-0.283227	0.260586
O2	O	1.263858	-0.195743	0.263823
O3	O	1.445665	-0.241300	0.047863
O4	O	1.431228	-0.237670	0.476546
O5	O	1.408738	-0.473839	0.091914
O6	O	1.226930	-0.428283	0.307874
O7	O	1.576109	-0.515766	0.304637
Cu8	Cu	1.398148	-0.493257	0.310278
Cu9	Cu	1.441819	-0.218252	0.258182
O10	O	1.394301	-0.470210	0.520597
C11	C	1.200668	-0.300808	0.282284
C12	C	1.067399	-0.267418	0.271647
N13	N	1.367441	-0.686683	0.346919
C14	C	0.988854	-0.372995	0.289724
C15	C	0.851113	-0.338488	0.278730
C16	C	1.432753	-0.775248	0.268981
C17	C	1.407213	-0.936266	0.299479
C18	C	1.639299	-0.410699	0.286175
C19	C	1.772569	-0.444079	0.296811
C20	C	1.425815	-0.357221	0.014844
C21	C	1.421669	-0.356177	-0.149172
N22	N	1.472535	-0.024829	0.221530
C23	C	1.414152	-0.354286	0.553616
C24	C	1.418299	-0.355320	0.717630
H25	H	1.023583	-0.488929	0.313332
O26	O	0.805137	-0.184904	0.247453
H27	H	0.704165	-0.181901	0.243738
O28	O	1.268343	-0.744152	0.465231
H29	H	1.289585	-0.720324	0.575846
O30	O	1.021417	-0.113842	0.240370
H31	H	0.920444	-0.110839	0.236656
O32	O	0.818541	-0.597664	0.328103
H33	H	0.919511	-0.600670	0.331842
O34	O	1.531835	-0.717797	0.150639
H35	H	1.536333	-0.600339	0.145240
H36	H	1.332380	-0.979639	0.388783
H37	H	1.547359	-0.981454	0.132216
