data_functionalizedCrystal
_audit_creation_method	'MofGen! by Chris Wilmer'
_symmetry_space_group_name_H-M	'P1'
_symmetry_Int_Tables_number	1
_symmetry_cell_setting	triclinic
loop_
_symmetry_equiv_pos_as_xyz
  x,y,z
_cell_length_a	15.944499
_cell_length_b	17.019294
_cell_length_c	15.021413
_cell_angle_alpha	86.125043
_cell_angle_beta	89.990095
_cell_angle_gamma	83.435652
loop_
_atom_site_label
_atom_site_type_symbol
_atom_site_fract_x
_atom_site_fract_y
_atom_site_fract_z
O1	O	1.114429	0.101532	-0.081868
O2	O	1.447762	0.434866	0.251466
O3	O	1.781095	0.768199	0.584799
O4	O	0.869857	0.114118	-0.082822
O5	O	1.203191	0.447452	0.250511
O6	O	1.536524	0.780785	0.583844
O7	O	0.998965	-0.007007	-0.073538
O8	O	1.332299	0.326326	0.259796
O9	O	1.665632	0.659660	0.593129
O10	O	0.985321	0.222658	-0.091152
O11	O	1.318654	0.555991	0.242181
O12	O	1.651988	0.889324	0.575515
O13	O	0.998945	-0.006990	0.074525
O14	O	1.332278	0.326344	0.407858
O15	O	1.665611	0.659677	0.741192
O16	O	0.869837	0.114136	0.065241
O17	O	1.203170	0.447469	0.398574
O18	O	1.536504	0.780802	0.731907
O19	O	1.114408	0.101550	0.066195
O20	O	1.447742	0.434883	0.399529
O21	O	1.781075	0.768216	0.732862
Zn22	Zn	0.992119	0.107845	0.089226
Zn23	Zn	1.325453	0.441179	0.422560
Zn24	Zn	1.658786	0.774512	0.755893
Zn25	Zn	0.992146	0.107823	-0.105853
Zn26	Zn	1.325480	0.441156	0.227480
Zn27	Zn	1.658813	0.774489	0.560814
O28	O	0.985300	0.222675	0.056911
O29	O	1.318634	0.556008	0.390244
O30	O	1.651967	0.889342	0.723578
C31	C	0.838553	0.113612	-0.008750
C32	C	1.171886	0.446945	0.324583
C33	C	1.505220	0.780278	0.657917
C34	C	0.745307	0.112067	-0.008628
C35	C	1.078640	0.445400	0.324706
C36	C	1.411973	0.778733	0.658039
C37	C	0.453683	0.182437	-0.014038
C38	C	0.787016	0.515771	0.319295
C39	C	1.120349	0.849104	0.652629
C40	C	0.514768	0.145848	-0.084237
C41	C	0.848101	0.479182	0.249096
C42	C	1.181434	0.812515	0.582430
C43	C	0.409677	0.106454	-0.008218
C44	C	0.743010	0.439788	0.325115
C45	C	1.076344	0.773121	0.658449
C46	C	0.514733	0.145845	0.061743
C47	C	0.848067	0.479178	0.395076
C48	C	1.181400	0.812512	0.728410
C49	C	0.574582	0.109216	-0.008418
C50	C	0.907916	0.442549	0.324915
C51	C	1.241249	0.775883	0.658249
C52	C	0.469534	0.069844	-0.078475
C53	C	0.802868	0.403178	0.254858
C54	C	1.136201	0.736511	0.588191
C55	C	0.469493	0.069852	0.067569
C56	C	0.802827	0.403185	0.400903
C57	C	1.136160	0.736518	0.734236
C58	C	0.530561	0.033207	-0.002643
C59	C	0.863895	0.366541	0.330690
C60	C	1.197228	0.699874	0.664024
C61	C	0.314679	0.104866	-0.008103
C62	C	0.648012	0.438199	0.325230
C63	C	0.981346	0.771532	0.658563
C64	C	0.669579	0.110799	-0.008538
C65	C	1.002913	0.444132	0.324795
C66	C	1.336246	0.777466	0.658128
C67	C	0.998437	-0.036387	0.002746
C68	C	1.331771	0.296946	0.336079
C69	C	1.665104	0.630279	0.669412
C70	C	0.996885	-0.123957	0.009457
C71	C	1.330218	0.209377	0.342790
C72	C	1.663551	0.542710	0.676123
C73	C	0.996168	-0.165102	-0.068099
C74	C	1.329502	0.168232	0.265234
C75	C	1.662835	0.501565	0.598567
C76	C	0.994704	-0.247382	-0.061791
C77	C	1.328037	0.085952	0.271542
C78	C	1.661371	0.419285	0.604876
C79	C	0.993962	-0.288516	0.022074
C80	C	1.327295	0.044818	0.355407
C81	C	1.660629	0.378151	0.688741
C82	C	0.994676	-0.247364	0.099635
C83	C	1.328009	0.085969	0.432969
C84	C	1.661343	0.419302	0.766302
C85	C	0.996134	-0.165085	0.093326
C86	C	1.329467	0.168248	0.426660
C87	C	1.662801	0.501581	0.759993
C88	C	0.989553	-0.536945	0.045161
C89	C	1.322886	-0.203612	0.378494
C90	C	1.656220	0.129722	0.711828
C91	C	0.988097	-0.619230	0.051464
C92	C	1.321431	-0.285897	0.384798
C93	C	1.654764	0.047436	0.718131
C94	C	0.988124	-0.619242	-0.109963
C95	C	1.321457	-0.285908	0.223371
C96	C	1.654791	0.047425	0.556704
C97	C	0.989587	-0.536961	-0.116264
C98	C	1.322921	-0.203628	0.217069
C99	C	1.656254	0.129705	0.550402
C100	C	0.990296	-0.495817	-0.038703
C101	C	1.323630	-0.162483	0.294630
C102	C	1.656963	0.170850	0.627964
C103	C	0.992468	-0.372619	0.028524
C104	C	1.325801	-0.039286	0.361857
C105	C	1.659135	0.294047	0.695191
C106	C	0.991784	-0.411714	-0.045154
C107	C	1.325118	-0.078381	0.288179
C108	C	1.658451	0.254953	0.621513
C109	C	1.145713	0.102056	-0.007879
C110	C	1.479046	0.435390	0.325454
C111	C	1.812379	0.768723	0.658788
C112	C	1.238959	0.103601	-0.008007
C113	C	1.572292	0.436935	0.325326
C114	C	1.905626	0.770268	0.658660
C115	C	0.985828	0.252055	-0.019375
C116	C	1.319162	0.585389	0.313959
C117	C	1.652495	0.918722	0.647292
C118	C	0.987381	0.339624	-0.026091
C119	C	1.320714	0.672958	0.307242
C120	C	1.654048	1.006291	0.640575
N121	N	0.992107	0.107860	0.222363
N122	N	1.325440	0.441194	0.555696
N123	N	1.658774	0.774527	0.889029
N124	N	0.992165	0.107801	-0.238989
N125	N	1.325499	0.441135	0.094344
N126	N	1.658832	0.774468	0.427678
C127	C	0.932398	0.163842	0.457755
C128	C	1.265732	0.497176	0.791088
C129	C	1.599065	0.830509	1.124421
C130	C	1.008281	0.179144	0.515913
C131	C	1.341615	0.512477	0.849246
C132	C	1.674948	0.845810	1.182579
C133	C	0.992128	0.107841	0.403971
C134	C	1.325462	0.441174	0.737304
C135	C	1.658795	0.774507	1.070638
C136	C	0.916266	0.092557	0.522554
C137	C	1.249599	0.425891	0.855887
C138	C	1.582933	0.759224	1.189220
C139	C	0.992142	0.107824	0.579396
C140	C	1.325476	0.441157	0.912730
C141	C	1.658809	0.774490	1.246063
C142	C	1.068050	0.123177	0.460820
C143	C	1.401383	0.456511	0.794153
C144	C	1.734716	0.789844	1.127486
C145	C	0.975984	0.036560	0.467458
C146	C	1.309318	0.369893	0.800791
C147	C	1.642651	0.703227	1.134125
C148	C	1.051922	0.051831	0.525591
C149	C	1.385256	0.385164	0.858925
C150	C	1.718589	0.718497	1.192258
C151	C	0.992119	0.107853	0.302913
C152	C	1.325453	0.441186	0.636246
C153	C	1.658786	0.774519	0.969579
C154	C	0.992160	0.107811	0.680453
C155	C	1.325494	0.441144	1.013786
C156	C	1.658827	0.774478	1.347119
H157	H	0.996777	-0.131617	-0.136391
H158	H	1.330110	0.201716	0.196942
H159	H	1.663444	0.535050	0.530276
F160	F	0.991675	-0.416404	0.117777
F161	F	1.325008	-0.083071	0.451110
F162	F	1.658342	0.250263	0.784444
F163	F	0.993877	-0.291143	0.188891
F164	F	1.327210	0.042190	0.522225
F165	F	1.660544	0.375523	0.855558
F166	F	0.540988	0.187844	-0.168132
F167	F	0.874321	0.521177	0.165201
F168	F	1.207654	0.854511	0.498535
F169	F	0.574037	-0.049285	0.003632
F170	F	0.907371	0.284048	0.336966
F171	F	1.240704	0.617381	0.670299
H172	H	0.990147	-0.503457	0.108318
H173	H	1.323481	-0.170124	0.441651
H174	H	1.656814	0.163210	0.774984
H175	H	0.449408	0.037747	0.131754
H176	H	0.782742	0.371081	0.465087
H177	H	1.116075	0.704414	0.798420
H178	H	1.132225	0.136169	0.433847
H179	H	1.465558	0.469502	0.767181
H180	H	1.798892	0.802835	1.100514
H181	H	0.852105	0.079638	0.549632
H182	H	1.185438	0.412972	0.882966
H183	H	1.518771	0.746305	1.216299
F184	F	0.866443	0.225792	0.418998
F185	F	1.199776	0.559125	0.752331
F186	F	1.533110	0.892458	1.085664
F187	F	0.410012	0.264858	-0.020449
F188	F	0.743345	0.598191	0.312884
F189	F	1.076679	0.931524	0.646218
H190	H	0.996706	-0.131584	0.156481
H191	H	1.330039	0.201749	0.489814
H192	H	1.663372	0.535082	0.823147
F193	F	0.958090	-0.042196	0.439372
F194	F	1.291423	0.291137	0.772705
F195	F	1.624756	0.624470	1.106039
H196	H	0.449604	0.037729	-0.137802
H197	H	0.782937	0.371062	0.195532
H198	H	1.116271	0.704396	0.528865
H199	H	1.021949	0.239416	0.537376
H200	H	1.355282	0.572750	0.870710
H201	H	1.688616	0.906083	1.204043
H202	H	0.534760	0.178003	0.120994
H203	H	0.868093	0.511336	0.454328
H204	H	1.201426	0.844669	0.787661
F205	F	0.993943	-0.291168	-0.144337
F206	F	1.327276	0.042165	0.188996
F207	F	1.660609	0.375499	0.522330
F208	F	0.992576	-0.367935	-0.134406
F209	F	1.325910	-0.034601	0.198927
F210	F	1.659243	0.298732	0.532261
F211	F	1.118022	-0.010083	0.564133
F212	F	1.451356	0.323250	0.897466
F213	F	1.784689	0.656583	1.230800
H214	H	0.990192	-0.503476	-0.184556
H215	H	1.323526	-0.170142	0.148777
H216	H	1.656859	0.163191	0.482111
H217	H	0.987545	-0.652750	-0.173109
H218	H	1.320878	-0.319417	0.160225
H219	H	1.654211	0.013916	0.493558
F220	F	0.987312	-0.663007	0.140729
F221	F	1.320645	-0.329674	0.474062
F222	F	1.653979	0.003660	0.807396
