data_functionalizedCrystal
_audit_creation_method	'MofGen! by Chris Wilmer'
_symmetry_space_group_name_H-M	'P1'
_symmetry_Int_Tables_number	1
_symmetry_cell_setting	triclinic
loop_
_symmetry_equiv_pos_as_xyz
  x,y,z
_cell_length_a	27.440280
_cell_length_b	14.560432
_cell_length_c	27.440280
_cell_angle_alpha	60.007499
_cell_angle_beta	90.008003
_cell_angle_gamma	59.997824
loop_
_atom_site_label
_atom_site_type_symbol
_atom_site_fract_x
_atom_site_fract_y
_atom_site_fract_z
Zr1	Zr	0.469499	1.005157	-0.063878
O2	O	0.391679	1.196758	-0.141695
O3	O	0.493356	0.813556	-0.040025
O4	O	0.493354	1.005135	-0.141685
O5	O	0.391682	1.005197	0.040158
O6	O	0.573557	1.005117	-0.141675
O7	O	0.391681	1.005180	-0.040035
O8	O	0.573560	0.662418	0.040177
O9	O	0.391679	1.347896	-0.141694
O10	O	0.563384	0.892351	-0.029842
O11	O	0.503531	0.892378	0.029998
O12	O	0.503529	1.117937	-0.089694
O13	O	0.443675	1.117963	-0.029854
Zr14	Zr	0.597415	1.005157	0.064037
Zr15	Zr	0.597413	1.005129	-0.063862
Zr16	Zr	0.469501	1.005185	0.064021
Zr17	Zr	0.469499	1.246205	-0.063875
Zr18	Zr	0.597416	0.764110	0.064034
O19	O	0.573559	1.196758	0.040184
O20	O	0.573556	1.196718	-0.141673
O21	O	0.391682	1.196798	0.040161
O22	O	0.675236	0.813556	0.141854
O23	O	0.675233	0.813516	-0.040002
O24	O	0.493358	0.813597	0.141831
O25	O	0.675233	1.005117	-0.040000
O26	O	0.573561	1.005180	0.141844
O27	O	0.493358	1.005197	0.141834
O28	O	0.675234	1.005135	0.040194
O29	O	0.493353	1.347873	-0.141681
O30	O	0.573561	0.662441	0.141840
O31	O	0.675236	0.662418	0.141852
O32	O	0.675234	0.662396	0.040190
O33	O	0.391680	1.347918	-0.040031
O34	O	0.493355	1.347896	-0.040018
O35	O	0.563386	0.892378	0.089853
O36	O	0.623239	0.892351	0.030013
O37	O	0.563384	1.117937	-0.029839
O38	O	0.503530	1.117963	0.030001
C39	C	0.533458	0.703643	0.000076
C40	C	0.533458	0.601312	0.000074
C41	C	0.373456	1.005192	0.000059
C42	C	0.319153	1.005204	0.000053
C43	C	0.595940	0.601278	-0.062405
C44	C	0.627178	0.553190	-0.093646
C45	C	0.627176	0.457041	-0.093644
C46	C	0.595934	0.408975	-0.062398
C47	C	0.564696	0.457063	-0.031157
C48	C	0.564700	0.553217	-0.031163
C49	C	0.502219	0.457090	0.031325
C50	C	0.502216	0.553246	0.031321
C51	C	0.470977	0.409024	0.062571
C52	C	0.439735	0.457119	0.093809
C53	C	0.439737	0.553275	0.093806
C54	C	0.470978	0.601335	0.062561
C55	C	0.013699	0.887383	0.031338
C56	C	-0.037319	0.887375	0.031343
O57	O	-0.037135	0.787231	0.057932
N58	N	-0.094080	1.005127	0.000101
C59	C	-0.099821	1.122894	-0.031145
O60	O	-0.152785	1.223050	-0.057718
C61	C	-0.048803	1.122900	-0.031146
C62	C	0.007957	1.005140	0.000094
C63	C	0.070457	0.769633	0.062576
C64	C	0.121472	0.769640	0.062570
C65	C	0.115729	0.887398	0.031325
C66	C	0.058972	1.005148	0.000088
C67	C	-0.054546	1.240665	-0.062387
C68	C	-0.003521	1.240661	-0.062386
C69	C	0.053239	1.122901	-0.031146
C70	C	0.104244	1.122913	-0.031163
N71	N	0.161004	1.005161	0.000080
C72	C	0.166747	0.887404	0.031324
C73	C	-0.206960	1.122873	-0.031138
C74	C	-0.257977	1.122868	-0.031141
C75	C	-0.195471	0.887349	0.031348
C76	C	-0.144453	0.887355	0.031347
C77	C	-0.150199	1.005121	0.000104
C78	C	0.273879	0.887429	0.031308
C79	C	0.324896	0.887447	0.031297
C80	C	0.262386	1.122965	-0.031189
C81	C	0.211374	1.122948	-0.031181
C82	C	0.217124	1.005169	0.000072
O83	O	0.104106	1.223007	-0.057736
O84	O	0.219713	0.787264	0.057899
C85	C	0.693458	1.005122	0.000099
C86	C	0.747761	1.005110	0.000106
C87	C	0.533455	1.005122	-0.159903
C88	C	0.533454	1.005110	-0.214200
C89	C	0.533457	1.306671	0.000083
C90	C	0.533457	1.409002	0.000084
C91	C	0.502219	1.122932	-0.582176
C92	C	0.502220	1.122939	-0.633198
O93	O	0.475667	1.223083	-0.686156
N94	N	0.533463	1.005187	-0.627473
C95	C	0.564711	0.887420	-0.570722
O96	O	0.591286	0.787264	-0.570537
C97	C	0.564713	0.887415	-0.519701
C98	C	0.533463	1.005174	-0.525430
C99	C	0.470972	1.240682	-0.587903
C100	C	0.470969	1.240674	-0.536884
C101	C	0.502214	1.122916	-0.480138
C102	C	0.533460	1.005166	-0.474411
C103	C	0.595964	0.769649	-0.462950
C104	C	0.595963	0.769654	-0.411928
C105	C	0.564713	0.887413	-0.417658
C106	C	0.564702	0.887401	-0.366647
N107	N	0.533459	1.005153	-0.372371
C108	C	0.502215	1.122911	-0.429117
C109	C	0.564707	0.887442	-0.677872
C110	C	0.564702	0.887446	-0.728891
C111	C	0.502212	1.122965	-0.791364
C112	C	0.502213	1.122959	-0.740343
C113	C	0.533464	1.005193	-0.683596
C114	C	0.502212	1.122886	-0.321972
C115	C	0.502210	1.122867	-0.270945
C116	C	0.564702	0.887349	-0.208477
C117	C	0.564702	0.887367	-0.259498
C118	C	0.533455	1.005145	-0.316247
O119	O	0.591244	0.787308	-0.313670
O120	O	0.475651	1.223050	-0.429291
C121	C	0.533460	1.005192	0.160062
C122	C	0.533460	1.005204	0.214358
C123	C	0.693459	0.703608	0.000096
C124	C	0.747762	0.601265	0.000101
C125	C	0.533460	0.703679	0.160058
C126	C	0.533461	0.601360	0.214353
C127	C	0.693461	0.703643	0.160078
C128	C	0.747765	0.601312	0.214380
C129	C	0.373453	1.306671	-0.159919
C130	C	0.319150	1.409002	-0.214221
C131	C	0.373456	1.306706	0.000063
C132	C	0.319153	1.409049	0.000058
C133	C	0.533455	1.306636	-0.159899
C134	C	0.533454	1.408955	-0.214194
C135	C	0.742019	0.553204	-0.031145
C136	C	0.793038	0.457055	-0.031152
C137	C	0.849798	0.408962	0.000092
C138	C	0.855540	0.457033	0.031339
C139	C	0.804522	0.553187	0.031342
C140	C	0.564705	0.553310	0.271100
C141	C	0.564704	0.457183	0.322121
C142	C	0.533461	0.409102	0.316394
C143	C	0.502213	0.457162	0.259641
C144	C	0.502211	0.553293	0.208622
C145	C	0.804515	0.553243	0.208645
C146	C	0.855544	0.457105	0.259663
C147	C	0.849822	0.409032	0.316415
C148	C	0.793066	0.457111	0.322149
C149	C	0.742038	0.553254	0.271132
C150	C	0.262400	1.457083	-0.208486
C151	C	0.211371	1.553251	-0.259504
C152	C	0.217093	1.601328	-0.316256
C153	C	0.273849	1.553243	-0.321990
C154	C	0.324876	1.457084	-0.270973
C155	C	0.324895	1.457121	0.031299
C156	C	0.273877	1.553296	0.031291
C157	C	0.217116	1.601392	0.000046
C158	C	0.211375	1.553316	-0.031199
C159	C	0.262393	1.457149	-0.031195
C160	C	0.564702	1.457005	-0.208448
C161	C	0.564713	1.553132	-0.259460
C162	C	0.533471	1.601213	-0.316217
C163	C	0.502222	1.553153	-0.321961
C164	C	0.502215	1.457022	-0.270951
H165	H	0.652616	0.592331	-0.119085
H166	H	0.621412	0.673757	-0.458273
O167	O	0.162094	1.705112	0.000048
H168	H	0.121656	1.730494	-0.026929
O169	O	0.406067	0.605119	0.127518
H170	H	0.371534	0.711188	0.095989
H171	H	0.695807	0.592359	-0.056595
O172	O	0.386109	1.405279	0.064998
H173	H	0.410854	1.299220	0.099538
H174	H	0.476768	1.218792	-0.368173
H175	H	0.278563	1.592423	0.056737
H176	H	0.165153	1.592491	-0.056638
O177	O	0.810723	0.604994	0.065058
H178	H	0.788980	0.711056	0.033530
O179	O	0.595944	0.704981	-0.062407
H180	H	0.549418	0.792599	-0.081958
O181	O	0.076657	0.642613	0.096270
H182	H	0.124700	0.560749	0.117983
H183	H	0.257709	1.418012	-0.056633
H184	H	0.590143	1.417872	-0.162239
O185	O	0.598417	1.604962	-0.253257
H186	H	0.620130	1.555388	-0.205220
O187	O	0.437265	1.367688	-0.543068
H188	H	0.455325	1.424138	-0.567830
O189	O	0.533479	1.704905	-0.371233
H190	H	0.486953	1.792523	-0.398177
H191	H	0.590139	0.791474	-0.162266
H192	H	0.590147	0.592446	0.275774
O193	O	0.468519	1.605030	-0.383179
H194	H	0.473771	1.679960	-0.417679
O195	O	0.468529	0.405265	0.253481
H196	H	0.420503	0.485950	0.228712
O197	O	0.904865	0.305320	0.371436
H198	H	0.891357	0.279962	0.411866
H199	H	-0.211647	1.218778	-0.056582
H200	H	0.371113	0.791549	0.056738
O201	O	-0.083235	0.760346	0.065045
H202	H	-0.087820	0.678468	0.086771
H203	H	0.476770	0.592403	0.162418
H204	H	0.445529	1.336579	-0.634105
O205	O	0.468501	1.405214	-0.277151
H206	H	0.446774	1.454817	-0.325189
O207	O	0.595937	0.305263	-0.062392
H208	H	0.549410	0.342169	-0.081937
O209	O	0.916762	0.405158	0.065035
H210	H	0.921956	0.361357	0.113051
H211	H	0.414304	0.417971	0.119250
H212	H	0.788416	0.417956	0.368363
O213	O	0.280018	1.605099	-0.383202
H214	H	0.258262	1.586639	-0.407936
O215	O	0.470984	0.705032	0.062563
H216	H	0.497960	0.730363	0.035593
H217	H	0.652615	0.417882	-0.119080
O218	O	0.598421	0.405342	0.383327
H219	H	0.580378	0.486066	0.388508
O220	O	0.470969	0.305330	0.062570
H221	H	0.517494	0.217713	0.082112
O222	O	0.280084	0.760401	0.065008
H223	H	0.328126	0.678534	0.086720
O224	O	0.786839	0.405207	-0.064850
H225	H	0.738798	0.454790	-0.086564
O226	O	-0.009751	1.367717	-0.096135
H227	H	0.011987	1.373303	-0.130668
H228	H	0.167685	0.673748	0.088006
H229	H	0.695832	0.592380	0.275810
H230	H	-0.190803	0.791464	0.056787
H231	H	0.476767	1.218850	-0.745014
O232	O	0.533476	0.305395	0.371425
H233	H	0.560461	0.280054	0.411845
H234	H	0.165156	1.218837	-0.056627
O235	O	-0.319196	1.249878	-0.064843
H236	H	-0.324385	1.306349	-0.046789
H237	H	-0.100754	1.336558	-0.087826
O238	O	0.150163	1.605077	-0.253305
H239	H	0.125418	1.711136	-0.275036
O240	O	0.256196	1.249973	-0.064960
H241	H	0.301210	1.230183	-0.059734
H242	H	0.175538	1.679627	-0.357793
O243	O	0.468504	1.249883	-0.277125
H244	H	0.446784	1.331765	-0.325158
H245	H	0.371083	1.417937	-0.275650
O246	O	0.810694	0.605098	0.147437
H247	H	0.858732	0.555522	0.152030
O248	O	0.468520	1.249983	-0.852575
H249	H	0.473779	1.230193	-0.887087
O250	O	0.598419	0.760436	-0.722711
H251	H	0.620152	0.678558	-0.674677
O252	O	0.916747	0.405305	0.253453
H253	H	0.941477	0.423806	0.275185
O254	O	0.256221	1.405245	-0.147278
H255	H	0.208182	1.454860	-0.151871
H256	H	0.590152	0.791537	-0.631666
O257	O	0.629671	0.642651	-0.350714
H258	H	0.611623	0.586171	-0.345518
O259	O	0.598404	0.760360	-0.253325
H260	H	0.620131	0.678476	-0.205293
O261	O	0.904824	0.305243	0.000092
H262	H	0.891289	0.279900	-0.026881
