data_functionalizedCrystal
_audit_creation_method	'MofGen! by Chris Wilmer'
_symmetry_space_group_name_H-M	'P1'
_symmetry_Int_Tables_number	1
_symmetry_cell_setting	triclinic
loop_
_symmetry_equiv_pos_as_xyz
  x,y,z
_cell_length_a	19.288864
_cell_length_b	19.288865
_cell_length_c	17.766277
_cell_angle_alpha	90.011603
_cell_angle_beta	90.023209
_cell_angle_gamma	83.136245
loop_
_atom_site_label
_atom_site_type_symbol
_atom_site_fract_x
_atom_site_fract_y
_atom_site_fract_z
O1	O	-0.921353	-0.086649	-0.062844
O2	O	-0.671353	0.163351	0.187156
O3	O	-0.421353	0.413351	0.437156
O4	O	-0.171353	0.663351	0.687156
O5	O	-0.719092	-0.098337	-0.062794
O6	O	-0.469092	0.151663	0.187206
O7	O	-0.219092	0.401663	0.437206
O8	O	0.030908	0.651663	0.687206
O9	O	-0.826067	0.008637	-0.062806
O10	O	-0.576067	0.258637	0.187194
O11	O	-0.326067	0.508637	0.437194
O12	O	-0.076067	0.758637	0.687194
O13	O	-0.814378	-0.193623	-0.062832
O14	O	-0.564378	0.056377	0.187168
O15	O	-0.314378	0.306377	0.437168
O16	O	-0.064378	0.556377	0.687168
O17	O	-0.826048	0.008643	0.062383
O18	O	-0.576048	0.258643	0.312383
O19	O	-0.326048	0.508643	0.562383
O20	O	-0.076048	0.758643	0.812383
O21	O	-0.719074	-0.098332	0.062395
O22	O	-0.469074	0.151668	0.312395
O23	O	-0.219074	0.401668	0.562395
O24	O	0.030926	0.651668	0.812395
O25	O	-0.921334	-0.086643	0.062344
O26	O	-0.671334	0.163357	0.312344
O27	O	-0.421334	0.413357	0.562344
O28	O	-0.171334	0.663357	0.812344
Cu29	Cu	-0.820202	-0.092487	0.073800
Cu30	Cu	-0.570202	0.157513	0.323800
Cu31	Cu	-0.320202	0.407513	0.573800
Cu32	Cu	-0.070202	0.657513	0.823800
Cu33	Cu	-0.820224	-0.092494	-0.074250
Cu34	Cu	-0.570224	0.157506	0.175750
Cu35	Cu	-0.320224	0.407506	0.425750
Cu36	Cu	-0.070224	0.657506	0.675750
O37	O	-0.814360	-0.193618	0.062356
O38	O	-0.564360	0.056382	0.312356
O39	O	-0.314360	0.306382	0.562356
O40	O	-0.064360	0.556382	0.812356
C41	C	-0.693207	-0.097959	-0.000193
C42	C	-0.443207	0.152041	0.249807
C43	C	-0.193207	0.402041	0.499807
C44	C	0.056793	0.652041	0.749807
C45	C	-0.616103	-0.096830	-0.000173
C46	C	-0.366103	0.153170	0.249827
C47	C	-0.116103	0.403170	0.499827
C48	C	0.133897	0.653170	0.749827
C49	C	-0.825682	0.034516	-0.000209
C50	C	-0.575682	0.284516	0.249791
C51	C	-0.325682	0.534516	0.499791
C52	C	-0.075682	0.784516	0.749791
C53	C	-0.824553	0.111620	-0.000202
C54	C	-0.574553	0.361620	0.249798
C55	C	-0.324553	0.611620	0.499798
C56	C	-0.074553	0.861620	0.749798
C57	C	-0.947220	-0.087022	-0.000258
C58	C	-0.697220	0.162978	0.249742
C59	C	-0.447220	0.412978	0.499742
C60	C	-0.197220	0.662978	0.749742
C61	C	-1.024324	-0.088151	-0.000283
C62	C	-0.774324	0.161849	0.249717
C63	C	-0.524324	0.411849	0.499717
C64	C	-0.274324	0.661849	0.749717
C65	C	-0.814745	-0.219497	-0.000242
C66	C	-0.564745	0.030503	0.249758
C67	C	-0.314745	0.280503	0.499758
C68	C	-0.064745	0.530503	0.749758
C69	C	-0.815874	-0.296601	-0.000254
C70	C	-0.565874	-0.046601	0.249746
C71	C	-0.315874	0.203399	0.499746
C72	C	-0.065874	0.453399	0.749746
C73	C	-0.571407	-0.159598	-0.000193
C74	C	-0.321407	0.090402	0.249807
C75	C	-0.071407	0.340402	0.499807
C76	C	0.178593	0.590402	0.749807
C77	C	-0.498960	-0.158537	-0.000201
C78	C	-0.248960	0.091463	0.249799
C79	C	0.001040	0.341463	0.499799
C80	C	0.251040	0.591463	0.749799
C81	C	-0.471212	-0.094705	-0.000205
C82	C	-0.221212	0.155295	0.249795
C83	C	0.028788	0.405295	0.499795
C84	C	0.278788	0.655295	0.749795
C85	C	-0.515918	-0.031929	-0.000180
C86	C	-0.265918	0.218071	0.249820
C87	C	-0.015918	0.468071	0.499820
C88	C	0.234082	0.718071	0.749820
C89	C	-0.588364	-0.032991	-0.000164
C90	C	-0.338364	0.217009	0.249836
C91	C	-0.088364	0.467009	0.499836
C92	C	0.161636	0.717009	0.749836
C93	C	-0.362957	-0.044527	-0.044082
C94	C	-0.112957	0.205473	0.205918
C95	C	0.137043	0.455473	0.455918
C96	C	0.387043	0.705473	0.705918
C97	C	-0.290512	-0.043468	-0.044103
C98	C	-0.040512	0.206532	0.205897
C99	C	0.209488	0.456532	0.455897
C100	C	0.459488	0.706532	0.705897
C101	C	-0.247767	-0.091425	-0.000250
C102	C	0.002233	0.158575	0.249750
C103	C	0.252233	0.408575	0.499750
C104	C	0.502233	0.658575	0.749750
C105	C	-0.277473	-0.140454	0.043614
C106	C	-0.027473	0.109546	0.293614
C107	C	0.222527	0.359546	0.543614
C108	C	0.472527	0.609546	0.793614
C109	C	-0.349918	-0.141517	0.043630
C110	C	-0.099918	0.108483	0.293630
C111	C	0.150082	0.358483	0.543630
C112	C	0.400082	0.608483	0.793630
C113	C	-0.392658	-0.093546	-0.000221
C114	C	-0.142658	0.156454	0.249779
C115	C	0.107342	0.406454	0.499779
C116	C	0.357342	0.656454	0.749779
C117	C	-0.124514	-0.153047	-0.000278
C118	C	0.125486	0.096953	0.249722
C119	C	0.375486	0.346953	0.499722
C120	C	0.625486	0.596953	0.749722
C121	C	-0.052066	-0.151984	-0.000281
C122	C	0.197934	0.098016	0.249719
C123	C	0.447934	0.348016	0.499719
C124	C	0.697934	0.598016	0.749719
C125	C	-0.069026	-0.025374	-0.000267
C126	C	0.180974	0.224626	0.249733
C127	C	0.430974	0.474626	0.499733
C128	C	0.680974	0.724626	0.749733
C129	C	-0.141473	-0.026439	-0.000256
C130	C	0.108527	0.223561	0.249744
C131	C	0.358527	0.473561	0.499744
C132	C	0.608527	0.723561	0.749744
C133	C	-0.169212	-0.090278	-0.000265
C134	C	0.080788	0.159722	0.249735
C135	C	0.330788	0.409722	0.499735
C136	C	0.580788	0.659722	0.749735
C137	C	-0.887321	0.156316	-0.000214
C138	C	-0.637321	0.406316	0.249786
C139	C	-0.387321	0.656316	0.499786
C140	C	-0.137321	0.906316	0.749786
C141	C	-0.886260	0.228763	-0.000226
C142	C	-0.636260	0.478763	0.249774
C143	C	-0.386260	0.728763	0.499774
C144	C	-0.136260	0.978763	0.749774
C145	C	-0.822428	0.256511	-0.000210
C146	C	-0.572428	0.506511	0.249790
C147	C	-0.322428	0.756511	0.499790
C148	C	-0.072428	1.006511	0.749790
C149	C	-0.759652	0.211805	-0.000203
C150	C	-0.509652	0.461805	0.249797
C151	C	-0.259652	0.711805	0.499797
C152	C	-0.009652	0.961805	0.749797
C153	C	-0.760714	0.139359	-0.000198
C154	C	-0.510714	0.389359	0.249802
C155	C	-0.260714	0.639359	0.499802
C156	C	-0.010714	0.889359	0.749802
C157	C	-0.772242	0.364800	0.043653
C158	C	-0.522242	0.614800	0.293653
C159	C	-0.272242	0.864800	0.543653
C160	C	-0.022242	1.114800	0.793653
C161	C	-0.771182	0.437245	0.043654
C162	C	-0.521182	0.687245	0.293654
C163	C	-0.271182	0.937245	0.543654
C164	C	-0.021182	1.187245	0.793654
C165	C	-0.819148	0.479956	-0.000226
C166	C	-0.569148	0.729956	0.249774
C167	C	-0.319148	0.979956	0.499774
C168	C	-0.069148	1.229956	0.749774
C169	C	-0.868186	0.450216	-0.044097
C170	C	-0.618186	0.700216	0.205903
C171	C	-0.368186	0.950216	0.455903
C172	C	-0.118186	1.200216	0.705903
C173	C	-0.869249	0.377771	-0.044093
C174	C	-0.619249	0.627771	0.205907
C175	C	-0.369249	0.877771	0.455907
C176	C	-0.119249	1.127771	0.705907
C177	C	-0.821269	0.335065	-0.000215
C178	C	-0.571269	0.585065	0.249785
C179	C	-0.321269	0.835065	0.499785
C180	C	-0.071269	1.085065	0.749785
C181	C	-0.880770	0.603209	-0.000252
C182	C	-0.630770	0.853209	0.249748
C183	C	-0.380770	1.103209	0.499748
C184	C	-0.130770	1.353209	0.749748
C185	C	-0.879707	0.675657	-0.000268
C186	C	-0.629707	0.925657	0.249732
C187	C	-0.379707	1.175657	0.499732
C188	C	-0.129707	1.425657	0.749732
C189	C	-0.753097	0.658697	-0.000238
C190	C	-0.503097	0.908697	0.249762
C191	C	-0.253097	1.158697	0.499762
C192	C	-0.003097	1.408697	0.749762
C193	C	-0.754162	0.586250	-0.000229
C194	C	-0.504162	0.836250	0.249771
C195	C	-0.254162	1.086250	0.499771
C196	C	-0.004162	1.336250	0.749771
C197	C	-0.818001	0.558511	-0.000232
C198	C	-0.568001	0.808511	0.249768
C199	C	-0.318001	1.058511	0.499768
C200	C	-0.068001	1.308511	0.749768
N201	N	-0.820192	-0.092482	0.177931
N202	N	-0.570192	0.157518	0.427931
N203	N	-0.320192	0.407518	0.677931
N204	N	-0.070192	0.657518	0.927931
N205	N	-0.820241	-0.092493	-0.178380
N206	N	-0.570241	0.157507	0.071620
N207	N	-0.320241	0.407507	0.321620
N208	N	-0.070241	0.657507	0.571620
C209	C	-0.867575	-0.045137	0.217312
C210	C	-0.617575	0.204863	0.467312
C211	C	-0.367575	0.454863	0.717312
C212	C	-0.117575	0.704863	0.967312
C213	C	-0.867579	-0.045134	0.296114
C214	C	-0.617579	0.204866	0.546114
C215	C	-0.367579	0.454866	0.796114
C216	C	-0.117579	0.704866	1.046114
C217	C	-0.820206	-0.092488	0.335531
C218	C	-0.570206	0.157512	0.585531
C219	C	-0.320206	0.407512	0.835531
C220	C	-0.070206	0.657512	1.085531
C221	C	-0.772814	-0.139837	0.296140
C222	C	-0.522814	0.110163	0.546140
C223	C	-0.272814	0.360163	0.796140
C224	C	-0.022814	0.610163	1.046140
C225	C	-0.772807	-0.139834	0.217340
C226	C	-0.522807	0.110166	0.467340
C227	C	-0.272807	0.360166	0.717340
C228	C	-0.022807	0.610166	0.967340
C229	C	-0.810908	-0.155775	0.460362
C230	C	-0.560908	0.094225	0.710362
C231	C	-0.310908	0.344225	0.960362
C232	C	-0.060908	0.594225	1.210362
C233	C	-0.810920	-0.155779	0.539161
C234	C	-0.560920	0.094221	0.789161
C235	C	-0.310920	0.344221	1.039161
C236	C	-0.060920	0.594221	1.289161
C237	C	-0.820225	-0.092496	0.578577
C238	C	-0.570225	0.157504	0.828577
C239	C	-0.320225	0.407504	1.078577
C240	C	-0.070225	0.657504	1.328577
C241	C	-0.829533	-0.029207	0.539185
C242	C	-0.579533	0.220793	0.789185
C243	C	-0.329533	0.470793	1.039185
C244	C	-0.079533	0.720793	1.289185
C245	C	-0.829525	-0.029204	0.460385
C246	C	-0.579525	0.220796	0.710385
C247	C	-0.329525	0.470796	0.960385
C248	C	-0.079525	0.720796	1.210385
C249	C	-0.820209	-0.092496	0.420977
C250	C	-0.570209	0.157504	0.670977
C251	C	-0.320209	0.407504	0.920977
C252	C	-0.070209	0.657504	1.170977
C253	C	-0.867616	-0.045143	0.703405
C254	C	-0.617616	0.204857	0.953405
C255	C	-0.367616	0.454857	1.203405
C256	C	-0.117616	0.704857	1.453405
C257	C	-0.867615	-0.045139	0.782208
C258	C	-0.617615	0.204861	1.032208
C259	C	-0.367615	0.454861	1.282208
C260	C	-0.117615	0.704861	1.532208
C261	C	-0.772853	-0.139848	0.782233
C262	C	-0.522853	0.110152	1.032233
C263	C	-0.272853	0.360152	1.282233
C264	C	-0.022853	0.610152	1.532233
C265	C	-0.772850	-0.139846	0.703431
C266	C	-0.522850	0.110154	0.953431
C267	C	-0.272850	0.360154	1.203431
C268	C	-0.022850	0.610154	1.453431
C269	C	-0.820235	-0.092495	0.664022
C270	C	-0.570235	0.157505	0.914022
C271	C	-0.320235	0.407505	1.164022
C272	C	-0.070235	0.657505	1.414022
H273	H	-0.593987	-0.211580	-0.000202
H274	H	-0.343987	0.038420	0.249798
H275	H	-0.093987	0.288420	0.499798
H276	H	0.156013	0.538420	0.749798
F277	F	-0.231985	-0.191499	0.090289
F278	F	0.018015	0.058501	0.340289
F279	F	0.268015	0.308501	0.590289
F280	F	0.518015	0.558501	0.840289
H281	H	-0.734269	-0.178402	0.671364
H282	H	-0.484269	0.071598	0.921364
H283	H	-0.234269	0.321598	1.171364
H284	H	0.015731	0.571598	1.421364
H285	H	-0.906158	-0.006579	0.185228
H286	H	-0.656158	0.243421	0.435228
H287	H	-0.406158	0.493421	0.685228
H288	H	-0.156158	0.743421	0.935228
H289	H	-0.709599	0.102967	-0.000188
H290	H	-0.459599	0.352967	0.249812
H291	H	-0.209599	0.602967	0.499812
H292	H	0.040401	0.852967	0.749812
H293	H	-0.374102	-0.181436	0.079347
H294	H	-0.124102	0.068564	0.329347
H295	H	0.125898	0.318564	0.579347
H296	H	0.375898	0.568564	0.829347
H297	H	-0.147101	-0.205028	-0.000274
H298	H	0.102899	0.044972	0.249726
H299	H	0.352899	0.294972	0.499726
H300	H	0.602899	0.544972	0.749726
F301	F	-0.635935	0.033818	-0.000143
F302	F	-0.385935	0.283818	0.249857
F303	F	-0.135935	0.533818	0.499857
F304	F	0.114065	0.783818	0.749857
H305	H	-0.266331	-0.003548	-0.079822
H306	H	-0.016331	0.246452	0.170178
H307	H	0.233669	0.496452	0.420178
H308	H	0.483669	0.746452	0.670178
H309	H	-0.803318	-0.207311	0.428276
H310	H	-0.553318	0.042689	0.678276
H311	H	-0.303318	0.292689	0.928276
H312	H	-0.053318	0.542689	1.178276
F313	F	-0.451382	-0.225346	-0.000221
F314	F	-0.201382	0.024654	0.249779
F315	F	0.048618	0.274654	0.499779
F316	F	0.298618	0.524654	0.749779
F317	F	-0.921434	0.346122	-0.090785
F318	F	-0.671434	0.596122	0.159215
F319	F	-0.421434	0.846122	0.409215
F320	F	-0.171434	1.096122	0.659215
H321	H	-0.015674	-0.203099	-0.000293
H322	H	0.234326	0.046901	0.249707
H323	H	0.484326	0.296901	0.499707
H324	H	0.734326	0.546901	0.749707
F325	F	-0.946517	0.723227	-0.000286
F326	F	-0.696517	0.973227	0.249714
F327	F	-0.446517	1.223227	0.499714
F328	F	-0.196517	1.473227	0.749714
F329	F	-0.039500	0.042562	-0.000263
F330	F	0.210500	0.292562	0.249737
F331	F	0.460500	0.542562	0.499737
F332	F	0.710500	0.792562	0.749737
H333	H	-0.177866	0.024674	-0.000244
H334	H	0.072134	0.274674	0.249756
H335	H	0.322134	0.524674	0.499756
H336	H	0.572134	0.774674	0.749756
H337	H	-0.907245	0.484991	-0.079829
H338	H	-0.657245	0.734991	0.170171
H339	H	-0.407245	0.984991	0.420171
H340	H	-0.157245	1.234991	0.670171
F341	F	-0.408444	0.006520	-0.090759
F342	F	-0.158444	0.256520	0.159241
F343	F	0.091556	0.506520	0.409241
F344	F	0.341556	0.756520	0.659241
F345	F	-0.722394	-0.190232	0.338091
F346	F	-0.472394	0.059768	0.588091
F347	F	-0.222394	0.309768	0.838091
F348	F	0.027606	0.559768	1.088091
F349	F	-0.722430	-0.190242	0.824179
F350	F	-0.472430	0.059758	1.074179
F351	F	-0.222430	0.309758	1.324179
F352	F	0.027570	0.559758	1.574179
F353	F	-0.718994	0.468890	0.090347
F354	F	-0.468994	0.718890	0.340347
F355	F	-0.218994	0.968890	0.590347
F356	F	0.031006	1.218890	0.840347
F357	F	-0.918014	0.005260	0.338034
F358	F	-0.668014	0.255260	0.588034
F359	F	-0.418014	0.505260	0.838034
F360	F	-0.168014	0.755260	1.088034
H361	H	-0.932751	0.580622	-0.000258
H362	H	-0.682751	0.830622	0.249742
H363	H	-0.432751	1.080622	0.499742
H364	H	-0.182751	1.330622	0.749742
H365	H	-0.707679	0.234401	-0.000192
H366	H	-0.457679	0.484401	0.249808
H367	H	-0.207679	0.734401	0.499808
H368	H	0.042321	0.984401	0.749808
F369	F	-0.953069	0.276341	-0.000239
F370	F	-0.703069	0.526341	0.249761
F371	F	-0.453069	0.776341	0.499761
F372	F	-0.203069	1.026341	0.749761
H373	H	-0.906198	-0.006581	0.814274
H374	H	-0.656198	0.243419	1.064274
H375	H	-0.406198	0.493419	1.314274
H376	H	-0.156198	0.743419	1.564274
H377	H	-0.493322	0.020044	-0.000193
H378	H	-0.243322	0.270044	0.249807
H379	H	0.006678	0.520044	0.499807
H380	H	0.256678	0.770044	0.749807
F381	F	-0.685161	0.688223	-0.000225
F382	F	-0.435161	0.938223	0.249775
F383	F	-0.185161	1.188223	0.499775
F384	F	0.064839	1.438223	0.749775
F385	F	-0.839426	0.038151	0.418464
F386	F	-0.589426	0.288151	0.668464
F387	F	-0.339426	0.538151	0.918464
F388	F	-0.089426	0.788151	1.168464
F389	F	-0.955264	0.126798	-0.000234
F390	F	-0.705264	0.376798	0.249766
F391	F	-0.455264	0.626798	0.499766
F392	F	-0.205264	0.876798	0.749766
H393	H	-0.906198	-0.006585	0.671317
H394	H	-0.656198	0.243415	0.921317
H395	H	-0.406198	0.493415	1.171317
H396	H	-0.156198	0.743415	1.421317
H397	H	-0.734220	-0.178389	0.185274
H398	H	-0.484220	0.071611	0.435274
H399	H	-0.234220	0.321611	0.685274
H400	H	0.015780	0.571611	0.935274
F401	F	-0.687355	0.538679	-0.000213
F402	F	-0.437355	0.788679	0.249787
F403	F	-0.187355	1.038679	0.499787
F404	F	0.062645	1.288679	0.749787
F405	F	-0.839441	0.038149	0.581129
F406	F	-0.589441	0.288149	0.831129
F407	F	-0.339441	0.538149	1.081129
F408	F	-0.089441	0.788149	1.331129
H409	H	-0.733180	0.330029	0.079389
H410	H	-0.483180	0.580029	0.329389
H411	H	-0.233180	0.830029	0.579389
H412	H	0.016820	1.080029	0.829389
F413	F	-0.801018	-0.223136	0.581078
F414	F	-0.551018	0.026864	0.831078
F415	F	-0.301018	0.276864	1.081078
F416	F	-0.051018	0.526864	1.331078
