data_functionalizedCrystal
_audit_creation_method	'MofGen! by Chris Wilmer'
_symmetry_space_group_name_H-M	'P1'
_symmetry_Int_Tables_number	1
_symmetry_cell_setting	triclinic
loop_
_symmetry_equiv_pos_as_xyz
  x,y,z
_cell_length_a	13.897449
_cell_length_b	19.121063
_cell_length_c	13.897441
_cell_angle_alpha	92.406550
_cell_angle_beta	89.981404
_cell_angle_gamma	92.470221
loop_
_atom_site_label
_atom_site_type_symbol
_atom_site_fract_x
_atom_site_fract_y
_atom_site_fract_z
Zn1	Zn	1.458236	-0.279574	-0.561726
Zn2	Zn	1.958236	0.220426	-0.061726
Zn3	Zn	1.451226	-0.397036	-0.407295
Zn4	Zn	1.951226	0.102964	0.092705
Zn5	Zn	1.296929	-0.279605	-0.400446
Zn6	Zn	1.796929	0.220395	0.099554
Zn7	Zn	1.290000	-0.396991	-0.568545
Zn8	Zn	1.790000	0.103009	-0.068545
O9	O	1.374098	-0.338302	-0.484503
O10	O	1.874098	0.161698	0.015497
O11	O	1.592287	-0.295161	-0.541253
O12	O	2.092287	0.204839	-0.041253
O13	O	1.430725	-0.381490	-0.271406
O14	O	1.930725	0.118510	0.228594
O15	O	1.324161	-0.181317	-0.416121
O16	O	1.824161	0.318683	0.083879
O17	O	1.587137	-0.381459	-0.427793
O18	O	2.087137	0.118541	0.072207
O19	O	1.442672	-0.181294	-0.534612
O20	O	1.942672	0.318706	-0.034612
O21	O	1.317364	-0.295214	-0.266375
O22	O	1.817364	0.204786	0.233625
O23	O	1.161029	-0.295172	-0.422732
O24	O	1.661029	0.204828	0.077268
O25	O	1.312350	-0.381384	-0.702620
O26	O	1.812350	0.118616	-0.202620
O27	O	1.155937	-0.381415	-0.546234
O28	O	1.655937	0.118585	-0.046234
O29	O	1.435953	-0.295118	-0.697610
O30	O	1.935953	0.204882	-0.197610
O31	O	1.424005	-0.495314	-0.434405
O32	O	1.924005	0.004686	0.065595
O33	O	1.305553	-0.495282	-0.552874
O34	O	1.805553	0.004718	-0.052874
C35	C	1.123484	-0.338292	-0.484480
C36	C	1.623484	0.161708	0.015520
C37	C	1.016269	-0.338305	-0.484495
C38	C	1.516269	0.161695	0.015505
C39	C	0.819974	-0.338308	-0.484520
C40	C	1.319974	0.161692	0.015480
C41	C	0.929207	-0.338304	-0.484503
C42	C	1.429207	0.161696	0.015497
C43	C	1.363293	-0.520782	-0.495144
C44	C	1.863293	-0.020782	0.004856
C45	C	1.358758	-0.598848	-0.499728
C46	C	1.858758	-0.098848	0.000272
C47	C	1.418348	-0.635517	-0.440252
C48	C	1.918348	-0.135517	0.059748
C49	C	1.414089	-0.708868	-0.444569
C50	C	1.914089	-0.208868	0.055431
C51	C	1.350236	-0.745549	-0.508358
C52	C	1.850236	-0.245549	-0.008358
C53	C	1.290643	-0.708875	-0.567841
C54	C	1.790643	-0.208875	-0.067841
C55	C	1.294908	-0.635525	-0.563528
C56	C	1.794908	-0.135525	-0.063528
C57	C	1.334277	-0.967019	-0.524468
C58	C	1.834277	-0.467019	-0.024468
C59	C	1.330015	-1.040374	-0.528775
C60	C	1.830015	-0.540374	-0.028775
C61	C	1.453463	-1.040362	-0.405504
C62	C	1.953463	-0.540362	0.094496
C63	C	1.457717	-0.967011	-0.401193
C64	C	1.957717	-0.467011	0.098807
C65	C	1.398129	-0.930343	-0.460679
C66	C	1.898129	-0.430343	0.039321
C67	C	1.345879	-0.820526	-0.512770
C68	C	1.845879	-0.320526	-0.012770
C69	C	1.402491	-0.855368	-0.456271
C70	C	1.902491	-0.355368	0.043729
C71	C	1.625690	-0.338312	-0.484526
C72	C	2.125690	0.161688	0.015474
C73	C	1.732904	-0.338316	-0.484536
C74	C	2.232904	0.161684	0.015464
C75	C	1.374160	-0.338243	-0.736093
C76	C	1.874160	0.161757	-0.236093
C77	C	1.374187	-0.338218	-0.843305
C78	C	1.874187	0.161782	-0.343305
C79	C	1.384971	-0.155109	-0.473842
C80	C	1.884971	0.344891	0.026158
C81	C	1.389605	-0.077043	-0.469299
C82	C	1.889605	0.422957	0.030701
C83	C	1.374208	-0.338198	-0.930374
C84	C	1.874208	0.161802	-0.430374
C85	C	1.374237	-0.338166	-1.039605
C86	C	1.874237	0.161834	-0.539605
C87	C	1.374094	-0.338310	-0.233889
C88	C	1.874094	0.161690	0.266111
C89	C	1.374266	-0.338137	-0.126666
C90	C	1.874266	0.161863	0.373334
H91	H	1.462613	-0.738721	-0.396137
H92	H	1.962613	-0.238721	0.103863
H93	H	1.238656	-0.738746	-0.619783
H94	H	1.738656	-0.238746	-0.119783
H95	H	1.509712	-0.937147	-0.349251
H96	H	2.009712	-0.437147	0.150749
C97	C	1.195449	-1.122928	-0.546921
C98	C	1.695449	-0.622928	-0.046921
C99	C	1.259821	-1.080691	-0.598900
C100	C	1.759821	-0.580691	-0.098900
H101	H	1.152112	-1.147813	-0.590211
H102	H	1.652112	-0.647813	-0.090211
H103	H	1.230326	-1.155262	-0.512122
H104	H	1.730326	-0.655262	-0.012122
H105	H	1.160241	-1.094348	-0.503188
H106	H	1.660241	-0.594348	-0.003188
H107	H	1.295034	-1.109272	-0.642628
H108	H	1.795034	-0.609272	-0.142628
H109	H	1.224941	-1.048353	-0.633715
H110	H	1.724941	-0.548353	-0.133715
H111	H	1.470340	-0.605656	-0.388304
H112	H	1.970340	-0.105656	0.111696
H113	H	1.501978	-1.070225	-0.357075
H114	H	2.001978	-0.570225	0.142925
H115	H	1.285756	-0.937169	-0.572902
H116	H	1.785756	-0.437169	-0.072902
C117	C	1.172458	-0.642899	-0.685807
C118	C	1.672458	-0.142899	-0.185807
C119	C	1.229407	-0.595215	-0.628907
C120	C	1.729407	-0.095215	-0.128907
H121	H	1.132019	-0.618013	-0.726170
H122	H	1.632019	-0.118013	-0.226170
H123	H	1.212804	-0.671463	-0.724414
H124	H	1.712804	-0.171463	-0.224414
H125	H	1.133915	-0.671553	-0.645424
H126	H	1.633915	-0.171553	-0.145424
H127	H	1.267954	-0.566565	-0.669291
H128	H	1.767954	-0.066565	-0.169291
H129	H	1.189056	-0.566639	-0.590297
H130	H	1.689056	-0.066639	-0.090297
C131	C	1.420740	-0.772945	-0.321694
C132	C	1.920740	-0.272945	0.178306
C133	C	1.472675	-0.815051	-0.386151
C134	C	1.972675	-0.315051	0.113849
H135	H	1.464068	-0.748055	-0.278400
H136	H	1.964068	-0.248055	0.221600
H137	H	1.385870	-0.740615	-0.356507
H138	H	1.885870	-0.240615	0.143493
H139	H	1.377071	-0.801614	-0.286450
H140	H	1.877071	-0.301614	0.213550
H141	H	1.516339	-0.786381	-0.421400
H142	H	2.016339	-0.286381	0.078600
H143	H	1.507562	-0.847384	-0.351334
H144	H	2.007562	-0.347384	0.148666
H145	H	1.293887	-0.850399	-0.564706
H146	H	1.793887	-0.350399	-0.064706
