data_functionalizedCrystal
_audit_creation_method	'MofGen! by Chris Wilmer'
_symmetry_space_group_name_H-M	'P1'
_symmetry_Int_Tables_number	1
_symmetry_cell_setting	triclinic
loop_
_symmetry_equiv_pos_as_xyz
  x,y,z
_cell_length_a	18.050591
_cell_length_b	29.839131
_cell_length_c	18.050582
_cell_angle_alpha	90.025477
_cell_angle_beta	90.020922
_cell_angle_gamma	90.037426
loop_
_atom_site_label
_atom_site_type_symbol
_atom_site_fract_x
_atom_site_fract_y
_atom_site_fract_z
Zn1	Zn	1.135224	-0.178930	0.420016
Zn2	Zn	1.135106	-0.254052	0.295820
Zn3	Zn	1.011044	-0.178932	0.295827
Zn4	Zn	1.010963	-0.254028	0.419956
O5	O	1.073084	-0.216485	0.357905
O6	O	1.239133	-0.188904	0.403564
O7	O	1.118634	-0.244098	0.191896
O8	O	1.027600	-0.116064	0.312330
O9	O	1.239047	-0.244096	0.312317
O10	O	1.118835	-0.116063	0.403571
O11	O	1.027485	-0.188907	0.191902
O12	O	0.907108	-0.188884	0.312271
O13	O	1.027462	-0.244056	0.523888
O14	O	0.907049	-0.244057	0.403467
O15	O	1.118756	-0.188881	0.523933
O16	O	1.118555	-0.316916	0.312258
O17	O	1.027348	-0.316898	0.403460
C18	C	0.880132	-0.216469	0.357864
C19	C	0.797586	-0.216472	0.357864
C20	C	0.598146	-0.186434	0.308386
C21	C	0.548711	-0.227410	0.290106
C22	C	0.646456	-0.216486	0.357897
C23	C	0.548810	-0.175525	0.376175
C24	C	0.500471	-0.216495	0.357928
C25	C	0.598108	-0.257483	0.339583
C26	C	0.598211	-0.205570	0.425683
C27	C	0.548798	-0.246574	0.407429
C28	C	0.730554	-0.216480	0.357878
C29	C	0.416374	-0.216506	0.357948
C30	C	1.072950	-0.333208	0.357868
C31	C	1.072961	-0.383142	0.357877
C32	C	1.120663	-0.692782	0.310485
C33	C	1.120754	-0.880455	0.310514
O34	O	1.161206	-0.904717	0.270192
N35	N	1.073238	-0.903927	0.357961
C36	C	1.025700	-0.880478	0.405407
O37	O	0.985292	-0.904749	0.445769
C38	C	1.025612	-0.692806	0.405381
C39	C	1.073126	-0.669337	0.357926
C40	C	1.168173	-0.669312	0.263035
C41	C	1.168147	-0.622397	0.263025
C42	C	1.120610	-0.598951	0.310466
C43	C	1.073100	-0.622421	0.357917
C44	C	0.978078	-0.669358	0.452831
C45	C	0.978062	-0.622437	0.452822
C46	C	1.025575	-0.598967	0.405367
C47	C	1.025537	-0.552060	0.405348
N48	N	1.073053	-0.528588	0.357902
C49	C	1.120589	-0.552033	0.310461
C50	C	1.025748	-0.979009	0.405416
C51	C	1.025769	-1.025927	0.405422
C52	C	1.120824	-1.025900	0.310530
C53	C	1.120799	-0.978982	0.310521
C54	C	1.073264	-0.955537	0.357970
C55	C	1.120530	-0.453508	0.310444
C56	C	1.120497	-0.406588	0.310436
C57	C	1.025445	-0.406619	0.405331
C58	C	1.025474	-0.453534	0.405336
C59	C	1.073023	-0.476977	0.357890
O60	O	0.985113	-0.527769	0.445655
O61	O	1.161002	-0.527755	0.270116
C62	C	1.120689	-0.739698	0.310495
C63	C	1.073178	-0.763167	0.357946
C64	C	1.025642	-0.739722	0.405387
C65	C	1.073199	-0.810085	0.357951
C66	C	1.120736	-0.833531	0.310510
C67	C	1.168252	-0.810059	0.263064
C68	C	1.168225	-0.763143	0.263054
C69	C	0.978126	-0.763194	0.452833
C70	C	0.978155	-0.810109	0.452838
C71	C	1.025692	-0.833555	0.405397
C72	C	1.266790	-0.216502	0.357947
C73	C	1.349336	-0.216510	0.357964
C74	C	1.073113	-0.216465	0.551611
C75	C	1.073126	-0.216457	0.634156
C76	C	1.073239	-0.099307	0.357958
C77	C	1.073305	-0.049373	0.357981
C78	C	1.073098	-0.216473	0.164953
C79	C	1.073230	-0.216355	0.082407
C80	C	1.023518	-0.246420	0.833583
C81	C	1.091269	-0.257404	0.882980
C82	C	1.073162	-0.216423	0.785287
C83	C	1.005449	-0.205426	0.882971
C84	C	1.073192	-0.216390	0.931272
C85	C	1.140949	-0.227429	0.833597
C86	C	1.055083	-0.175431	0.833584
C87	C	1.122881	-0.186400	0.882959
C88	C	1.073145	-0.216442	0.701189
C89	C	1.073218	-0.216371	1.015369
H90	H	1.159189	-0.387480	0.271790
H91	H	1.198243	-0.236756	0.812000
H92	H	0.527267	-0.272021	0.449313
O93	O	1.109551	-0.298710	0.909000
C94	C	1.109947	-0.298010	0.987101
H95	H	1.118650	-0.262179	1.007260
H96	H	1.156783	-0.320125	1.008463
H97	H	1.054731	-0.311158	1.008735
O98	O	0.937177	-0.194288	0.908933
C99	C	0.942346	-0.154927	0.951872
H100	H	1.001447	-0.150947	0.973176
H101	H	0.902648	-0.157280	1.000824
H102	H	0.927122	-0.124726	0.916340
O103	O	0.623953	-0.298794	0.321054
C104	C	0.702059	-0.298288	0.321250
H105	H	0.722531	-0.262480	0.313092
H106	H	0.723581	-0.320301	0.274333
H107	H	0.723224	-0.311675	0.376481
O108	O	1.173135	-0.156171	0.908632
C109	C	1.244420	-0.167908	0.883322
H110	H	1.245780	-0.205184	0.869528
H111	H	1.286893	-0.160362	0.928396
H112	H	1.258229	-0.147670	0.831577
H113	H	1.039754	-0.140789	0.811869
O114	O	1.166739	-0.476207	0.264283
C115	C	1.208674	-0.445423	0.222418
H116	H	1.178233	-0.411999	0.219819
H117	H	1.216640	-0.458989	0.163912
H118	H	1.265058	-0.440389	0.249667
O119	O	0.979712	-1.048772	0.451552
C120	C	1.021974	-1.075862	0.499580
H121	H	1.078273	-1.082872	0.473445
H122	H	0.991729	-1.108866	0.509514
H123	H	1.030094	-1.057755	0.554618
H124	H	0.987037	-0.959923	0.444056
H125	H	0.939458	-0.829214	0.491481
H126	H	0.619814	-0.161048	0.266470
H127	H	0.981575	-0.271821	0.811904
O128	O	1.214376	-0.692014	0.216875
C129	C	1.256312	-0.661229	0.175014
H130	H	1.225873	-0.627804	0.172421
H131	H	1.264276	-0.674791	0.116505
H132	H	1.312696	-0.656198	0.202263
O133	O	0.522800	-0.238493	0.221751
C134	C	0.548934	-0.281397	0.202088
H135	H	0.601357	-0.289200	0.234860
H136	H	0.561873	-0.282180	0.140289
H137	H	0.504708	-0.307502	0.215212
H138	H	0.939353	-0.603351	0.491462
O139	O	0.624140	-0.194456	0.494013
C140	C	0.599053	-0.151223	0.513062
H141	H	0.585167	-0.131798	0.460497
H142	H	0.644297	-0.132820	0.544998
H143	H	0.547410	-0.154092	0.549094
H144	H	1.206956	-0.829156	0.224433
H145	H	0.527115	-0.140885	0.391596
H146	H	1.206838	-0.603291	0.224386
O147	O	1.167026	-0.956255	0.264403
C148	C	1.208967	-0.987015	0.222519
H149	H	1.211529	-1.020448	0.252948
H150	H	1.267481	-0.973433	0.214651
H151	H	1.181808	-0.992038	0.166090
O152	O	1.167023	-1.048749	0.264560
C153	C	1.156857	-1.095192	0.274757
H154	H	1.132432	-1.101581	0.332021
H155	H	1.212513	-1.112983	0.269865
H156	H	1.117406	-1.108566	0.230631
H157	H	0.939383	-0.688459	0.491470
H158	H	0.986787	-0.472644	0.443980
O159	O	0.979380	-0.383817	0.451493
C160	C	1.021631	-0.356630	0.499475
H161	H	1.080122	-0.370740	0.504119
H162	H	0.994741	-0.356088	0.556604
H163	H	1.024194	-0.321080	0.476502
H164	H	1.206916	-0.744038	0.224412
H165	H	0.939417	-0.744108	0.491466
