data_functionalizedCrystal
_audit_creation_method	'MofGen! by Chris Wilmer'
_symmetry_space_group_name_H-M	'P1'
_symmetry_Int_Tables_number	1
_symmetry_cell_setting	triclinic
loop_
_symmetry_equiv_pos_as_xyz
  x,y,z
_cell_length_a	16.992694
_cell_length_b	11.295483
_cell_length_c	16.992695
_cell_angle_alpha	94.374931
_cell_angle_beta	89.331777
_cell_angle_gamma	94.379711
loop_
_atom_site_label
_atom_site_type_symbol
_atom_site_fract_x
_atom_site_fract_y
_atom_site_fract_z
O1	O	1.055813	0.098876	-0.161955
O2	O	1.555813	0.598876	0.338045
O3	O	0.827415	0.098911	-0.160122
O4	O	1.327415	0.598911	0.339878
O5	O	0.940698	0.098884	-0.046839
O6	O	1.440698	0.598884	0.453161
O7	O	0.942530	0.098903	-0.275238
O8	O	1.442530	0.598903	0.224762
O9	O	0.930747	-0.099164	-0.056773
O10	O	1.430747	0.400836	0.443227
O11	O	0.817464	-0.099137	-0.170056
O12	O	1.317464	0.400863	0.329944
O13	O	1.045862	-0.099172	-0.171889
O14	O	1.545862	0.400828	0.328111
Cu15	Cu	0.930755	-0.117238	-0.171879
Cu16	Cu	1.430755	0.382762	0.328121
Cu17	Cu	0.942523	0.116977	-0.160132
Cu18	Cu	1.442523	0.616977	0.339868
O19	O	0.932579	-0.099146	-0.285172
O20	O	1.432579	0.400854	0.214828
C21	C	0.793080	-0.000109	-0.162733
C22	C	1.293080	0.499891	0.337267
C23	C	0.705596	-0.000096	-0.155703
C24	C	1.205596	0.499904	0.344297
N25	N	0.922483	-0.281973	-0.180142
N26	N	1.422483	0.218027	0.319858
C27	C	0.659605	-0.000091	-0.223521
C28	C	1.159605	0.499909	0.276479
C29	C	0.577403	-0.000108	-0.216913
C30	C	1.077403	0.499892	0.283087
C31	C	0.541194	-0.000121	-0.142486
C32	C	1.041194	0.499879	0.357514
C33	C	0.587191	-0.000129	-0.074664
C34	C	1.087191	0.499871	0.425336
C35	C	0.669391	-0.000121	-0.081273
C36	C	1.169391	0.499879	0.418727
C37	C	0.295878	-0.000155	-0.115093
C38	C	0.795878	0.499845	0.384907
C39	C	0.213673	-0.000160	-0.108489
C40	C	0.713673	0.499840	0.391511
C41	C	0.203891	-0.000141	-0.250739
C42	C	0.703891	0.499859	0.249261
C43	C	0.286093	-0.000125	-0.257342
C44	C	0.786093	0.499875	0.242658
C45	C	0.332082	-0.000140	-0.189519
C46	C	0.832082	0.499860	0.310481
N47	N	0.457172	-0.000135	-0.135730
N48	N	0.957172	0.499865	0.364270
N49	N	0.416103	-0.000135	-0.196277
N50	N	0.916103	0.499865	0.303723
C51	C	1.010339	-0.531283	-0.092341
C52	C	1.510339	-0.031283	0.407659
C53	C	1.004094	-0.655945	-0.098591
C54	C	1.504094	-0.155945	0.401409
C55	C	0.903745	-0.655961	-0.198887
C56	C	1.403745	-0.155961	0.301113
C57	C	0.909990	-0.531299	-0.192637
C58	C	1.409990	-0.031299	0.307363
C59	C	0.963290	-0.468964	-0.139363
C60	C	1.463290	0.031036	0.360637
C61	C	0.969538	-0.344300	-0.133118
C62	C	1.469538	0.155700	0.366882
C63	C	0.869186	-0.344319	-0.233409
C64	C	1.369186	0.155681	0.266591
C65	C	0.862941	-0.468981	-0.239659
C66	C	1.362941	0.031019	0.260341
C67	C	1.080198	-0.000150	-0.169278
C68	C	1.580198	0.499850	0.330722
C69	C	1.167682	-0.000155	-0.176307
C70	C	1.667682	0.499845	0.323693
C71	C	0.933367	-0.000139	-0.022446
C72	C	1.433367	0.499861	0.477554
C73	C	0.926338	-0.000138	0.065039
C74	C	1.426338	0.499862	0.565039
N75	N	0.950800	0.281711	-0.151863
N76	N	1.450800	0.781711	0.348137
C77	C	0.939911	-0.000119	-0.309565
C78	C	1.439911	0.499881	0.190435
C79	C	0.946940	-0.000113	-0.397049
C80	C	1.446940	0.499887	0.102951
C81	C	0.994156	-0.000150	0.111029
C82	C	1.494156	0.499850	0.611029
C83	C	0.987547	-0.000137	0.193231
C84	C	1.487547	0.499863	0.693231
C85	C	0.913120	-0.000122	0.229440
C86	C	1.413120	0.499878	0.729440
C87	C	0.845298	-0.000107	0.183444
C88	C	1.345298	0.499893	0.683444
C89	C	0.851908	-0.000111	0.101244
C90	C	1.351908	0.499889	0.601244
C91	C	0.885727	-0.000101	0.474755
C92	C	1.385727	0.499899	0.974755
C93	C	0.879122	-0.000101	0.556960
C94	C	1.379122	0.499899	1.056960
C95	C	1.021372	-0.000130	0.566742
C96	C	1.521372	0.499870	1.066742
C97	C	1.027975	-0.000141	0.484540
C98	C	1.527975	0.499859	0.984540
C99	C	0.960153	-0.000119	0.438552
C100	C	1.460153	0.499881	0.938552
N101	N	0.906364	-0.000113	0.313462
N102	N	1.406364	0.499887	0.813462
N103	N	0.966911	-0.000119	0.354531
N104	N	1.466911	0.499881	0.854531
H105	H	0.689080	-0.000079	-0.284128
H106	H	1.189080	0.499921	0.215872
F107	F	1.107192	-0.000127	0.446012
F108	F	1.607192	0.499873	0.946012
H109	H	0.539961	-0.000103	-0.272138
H110	H	1.039961	0.499897	0.227862
F111	F	0.766088	-0.000077	0.221983
F112	F	1.266088	0.499923	0.721983
F113	F	0.548652	-0.000151	0.004547
F114	F	1.048652	0.499849	0.504547
F115	F	0.799903	-0.000091	0.595494
F116	F	1.299903	0.499909	1.095494
H117	H	0.333313	-0.000168	-0.059867
H118	H	0.833313	0.499832	0.440133
F119	F	1.054169	-0.722265	-0.048542
F120	F	1.554169	-0.222265	0.451458
H121	H	0.706836	-0.000124	-0.026048
H122	H	1.206836	0.499876	0.473952
F123	F	0.779727	-0.000095	0.052298
F124	F	1.279727	0.499905	0.552298
H125	H	0.315569	-0.000101	-0.317947
H126	H	0.815569	0.499899	0.182053
F127	F	1.059728	-0.000152	0.242174
F128	F	1.559728	0.499848	0.742174
F129	F	0.154940	-0.000128	-0.322916
F130	F	0.654940	0.499872	0.177084
H131	H	0.184195	-0.000169	-0.047879
H132	H	0.684195	0.499831	0.452121
H133	H	0.860345	-0.706731	-0.242256
H134	H	1.360345	-0.206731	0.257744
H135	H	1.012939	-0.293548	-0.089742
H136	H	1.512939	0.206452	0.410258
H137	H	0.819543	-0.519748	-0.283032
H138	H	1.319543	-0.019748	0.216968
H139	H	0.830877	-0.293565	-0.271700
H140	H	1.330877	0.206435	0.228300
F141	F	1.073371	-0.000178	0.072500
F142	F	1.573371	0.499822	0.572500
H143	H	1.076589	-0.000145	0.604195
H144	H	1.576589	0.499855	1.104195
F145	F	1.067071	-0.464941	-0.035651
F146	F	1.567071	0.035059	0.464349
F147	F	0.813544	-0.000075	0.425821
F148	F	1.313544	0.499925	0.925821
