data_functionalizedCrystal
_audit_creation_method	'MofGen! by Chris Wilmer'
_symmetry_space_group_name_H-M	'P1'
_symmetry_Int_Tables_number	1
_symmetry_cell_setting	triclinic
loop_
_symmetry_equiv_pos_as_xyz
  x,y,z
_cell_length_a	16.625546
_cell_length_b	15.297475
_cell_length_c	15.299447
_cell_angle_alpha	110.792231
_cell_angle_beta	80.294948
_cell_angle_gamma	99.675296
loop_
_atom_site_label
_atom_site_type_symbol
_atom_site_fract_x
_atom_site_fract_y
_atom_site_fract_z
Zn1	Zn	-0.435987	-1.512814	-0.771470
Zn2	Zn	-0.102654	-1.179481	-0.438136
Zn3	Zn	0.230679	-0.846147	-0.104803
Zn4	Zn	-0.590707	-1.485775	-0.615925
Zn5	Zn	-0.257374	-1.152441	-0.282592
Zn6	Zn	0.075959	-0.819108	0.050741
Zn7	Zn	-0.435969	-1.330368	-0.589098
Zn8	Zn	-0.102636	-0.997035	-0.255764
Zn9	Zn	0.230697	-0.663701	0.077569
Zn10	Zn	-0.550850	-1.357248	-0.744541
Zn11	Zn	-0.217517	-1.023915	-0.411207
Zn12	Zn	0.115817	-0.690582	-0.077874
O13	O	-0.503379	-1.421551	-0.680258
O14	O	-0.170045	-1.088218	-0.346925
O15	O	0.163288	-0.754885	-0.013592
O16	O	-0.473199	-1.639370	-0.773334
O17	O	-0.139866	-1.306037	-0.440001
O18	O	0.193467	-0.972703	-0.106667
O19	O	-0.586854	-1.442594	-0.482217
O20	O	-0.253521	-1.109261	-0.148884
O21	O	0.079813	-0.775928	0.184449
O22	O	-0.323143	-1.354636	-0.613332
O23	O	0.010190	-1.021303	-0.279999
O24	O	0.343524	-0.687970	0.053335
O25	O	-0.586871	-1.619505	-0.659056
O26	O	-0.253538	-1.286171	-0.325723
O27	O	0.079795	-0.952838	0.007611
O28	O	-0.323156	-1.488679	-0.747320
O29	O	0.010177	-1.155345	-0.413987
O30	O	0.343510	-0.822012	-0.080653
O31	O	-0.473169	-1.328418	-0.462507
O32	O	-0.139835	-0.995084	-0.129174
O33	O	0.193498	-0.661751	0.204160
O34	O	-0.434521	-1.203791	-0.587220
O35	O	-0.101187	-0.870458	-0.253887
O36	O	0.232146	-0.537124	0.079447
O37	O	-0.518940	-1.400450	-0.878262
O38	O	-0.185607	-1.067117	-0.544929
O39	O	0.147727	-0.733783	-0.211595
O40	O	-0.518923	-1.223540	-0.701423
O41	O	-0.185589	-0.890206	-0.368090
O42	O	0.147744	-0.556873	-0.034757
O43	O	-0.434551	-1.514743	-0.898047
O44	O	-0.101218	-1.181410	-0.564714
O45	O	0.232115	-0.848077	-0.231380
O46	O	-0.698249	-1.468659	-0.632944
O47	O	-0.364915	-1.135326	-0.299611
O48	O	-0.031582	-0.801992	0.033723
O49	O	-0.668966	-1.374231	-0.727437
O50	O	-0.335632	-1.040898	-0.394104
O51	O	-0.002299	-0.707564	-0.060770
C52	C	-0.472395	-1.179921	-0.638489
C53	C	-0.139062	-0.846587	-0.305155
C54	C	0.194272	-0.513254	0.028178
C55	C	-0.459157	-1.076554	-0.620642
C56	C	-0.125823	-0.743221	-0.287308
C57	C	0.207510	-0.409887	0.046025
C58	C	-0.712863	-1.421457	-0.680204
C59	C	-0.379530	-1.088123	-0.346871
C60	C	-0.046196	-0.754790	-0.013537
C61	C	-0.802488	-1.421506	-0.680227
C62	C	-0.469155	-1.088173	-0.346893
C63	C	-0.135822	-0.754840	-0.013560
C64	C	-0.472302	-1.463611	-0.922844
C65	C	-0.138968	-1.130278	-0.589511
C66	C	0.194365	-0.796944	-0.256178
C67	C	-0.459059	-1.481535	-1.026220
C68	C	-0.125725	-1.148201	-0.692887
C69	C	0.207608	-0.814868	-0.359553
C70	C	-1.130672	-1.421685	-0.680352
C71	C	-0.797339	-1.088352	-0.347018
C72	C	-0.464006	-0.755019	-0.013685
C73	C	-1.039361	-1.421633	-0.680319
C74	C	-0.706028	-1.088300	-0.346986
C75	C	-0.372694	-0.754966	-0.013652
C76	C	-0.966583	-1.421595	-0.680289
C77	C	-0.633250	-1.088262	-0.346955
C78	C	-0.299917	-0.754928	-0.013622
C79	C	-0.875266	-1.421544	-0.680257
C80	C	-0.541933	-1.088211	-0.346924
C81	C	-0.208599	-0.754878	-0.013590
C82	C	-0.293077	-1.421675	-0.680337
C83	C	0.040257	-1.088342	-0.347004
C84	C	0.373590	-0.755009	-0.013671
C85	C	-0.203458	-1.421728	-0.680371
C86	C	0.129875	-1.088395	-0.347038
C87	C	0.463208	-0.755061	-0.013704
C88	C	-0.534483	-1.664125	-0.722191
C89	C	-0.201150	-1.330792	-0.388858
C90	C	0.132183	-0.997459	-0.055525
C91	C	-0.547739	-1.767496	-0.740061
C92	C	-0.214405	-1.434163	-0.406728
C93	C	0.118928	-1.100829	-0.073394
C94	C	-0.598000	-0.826347	-0.807817
C95	C	-0.264666	-0.493014	-0.474483
C96	C	0.068667	-0.159680	-0.141150
C97	C	-0.610444	-0.923465	-0.824582
C98	C	-0.277111	-0.590132	-0.491249
C99	C	0.056223	-0.256798	-0.157916
C100	C	-0.572623	-0.961742	-0.773599
C101	C	-0.239290	-0.628409	-0.440266
C102	C	0.094043	-0.295075	-0.106932
C103	C	-0.522356	-0.902892	-0.705846
C104	C	-0.189023	-0.569558	-0.372513
C105	C	0.144310	-0.236225	-0.039180
C106	C	-0.509916	-0.805763	-0.689074
C107	C	-0.176582	-0.472430	-0.355741
C108	C	0.156751	-0.139097	-0.022407
C109	C	-0.484539	-0.941158	-0.654856
C110	C	-0.151206	-0.607825	-0.321523
C111	C	0.182127	-0.274492	0.011811
C112	C	-0.434272	-0.882308	-0.587104
C113	C	-0.100939	-0.548975	-0.253770
C114	C	0.232395	-0.215641	0.079563
C115	C	-0.421834	-0.785190	-0.570335
C116	C	-0.088500	-0.451856	-0.237001
C117	C	0.244833	-0.118523	0.096332
C118	C	-0.459654	-0.746912	-0.621318
C119	C	-0.126321	-0.413579	-0.287985
C120	C	0.207012	-0.080246	0.045349
C121	C	-0.496980	-1.038287	-0.671629
C122	C	-0.163646	-0.704953	-0.338295
C123	C	0.169687	-0.371620	-0.004962
C124	C	-0.408896	-1.017703	-0.552886
C125	C	-0.075562	-0.684370	-0.219552
C126	C	0.257771	-0.351036	0.113781
C127	C	-0.396451	-0.920585	-0.536120
C128	C	-0.063118	-0.587252	-0.202787
C129	C	0.270215	-0.253918	0.130546
C130	C	-0.597478	-1.294034	-1.276416
C131	C	-0.264145	-0.960700	-0.943083
C132	C	0.069188	-0.627367	-0.609750
C133	C	-0.609916	-1.277185	-1.179288
C134	C	-0.276582	-0.943851	-0.845955
C135	C	0.056751	-0.610518	-0.512621
C136	C	-0.572203	-1.328271	-1.141016
C137	C	-0.238869	-0.994938	-0.807683
C138	C	0.094464	-0.661604	-0.474349
C139	C	-0.522050	-1.396209	-1.199882
C140	C	-0.188717	-1.062875	-0.866549
C141	C	0.144617	-0.729542	-0.533216
C142	C	-0.509606	-1.413054	-1.297019
C143	C	-0.176273	-1.079721	-0.963686
C144	C	0.157060	-0.746388	-0.630352
C145	C	-0.484331	-1.447291	-1.161619
C146	C	-0.150997	-1.113958	-0.828286
C147	C	0.182336	-0.780625	-0.494952
C148	C	-0.434178	-1.515229	-1.220485
C149	C	-0.100845	-1.181896	-0.887152
C150	C	0.232489	-0.848562	-0.553818
C151	C	-0.421737	-1.532072	-1.317612
C152	C	-0.088404	-1.198739	-0.984279
C153	C	0.244929	-0.865405	-0.650946
C154	C	-0.459450	-1.480986	-1.355884
C155	C	-0.126117	-1.147653	-1.022551
C156	C	0.207217	-0.814319	-0.689217
C157	C	-0.496774	-1.430446	-1.064482
C158	C	-0.163441	-1.097112	-0.731149
C159	C	0.169892	-0.763779	-0.397816
C160	C	-0.408902	-1.549466	-1.085085
C161	C	-0.075569	-1.216133	-0.751752
C162	C	0.257764	-0.882800	-0.418418
C163	C	-0.396465	-1.566315	-1.182213
C164	C	-0.063132	-1.232982	-0.848880
C165	C	0.270202	-0.899649	-0.515547
C166	C	-0.534283	-1.379709	-0.438625
C167	C	-0.200950	-1.046375	-0.105292
C168	C	0.132384	-0.713042	0.228041
C169	C	-0.547322	-1.361965	-0.335281
C170	C	-0.213989	-1.028632	-0.001948
C171	C	0.119345	-0.695299	0.331385
H172	H	-0.537907	-1.086194	-0.726794
H173	H	-0.204574	-0.752860	-0.393461
H174	H	0.128760	-0.419527	-0.060127
Cl175	Cl	-0.358648	-0.711207	-0.485152
Cl176	Cl	-0.025315	-0.377874	-0.151819
Cl177	Cl	0.308019	-0.044540	0.181514
H178	H	-0.628176	-1.252444	-1.307586
H179	H	-0.294842	-0.919110	-0.974253
H180	H	0.038491	-0.585777	-0.640920
H181	H	-0.651374	-0.971374	-0.879744
H182	H	-0.318040	-0.638041	-0.546411
H183	H	0.015293	-0.304707	-0.213078
H184	H	-0.628794	-0.795171	-0.849314
H185	H	-0.295460	-0.461838	-0.515981
H186	H	0.037873	-0.128504	-0.182648
Cl187	Cl	-0.361493	-1.613697	-1.036980
Cl188	Cl	-0.028160	-1.280364	-0.703647
Cl189	Cl	0.305173	-0.947031	-0.370314
H190	H	-0.355524	-0.872656	-0.480955
H191	H	-0.022190	-0.539322	-0.147622
H192	H	0.311143	-0.205989	0.185712
Cl193	Cl	-0.443822	-1.502170	-1.477994
Cl194	Cl	-0.110489	-1.168837	-1.144661
Cl195	Cl	0.222844	-0.835504	-0.811327
H196	H	-0.380893	-1.587385	-1.365538
H197	H	-0.047560	-1.254052	-1.032205
H198	H	0.285773	-0.920719	-0.698872
H199	H	-0.537603	-1.375124	-1.016561
H200	H	-0.204270	-1.041791	-0.683228
H201	H	0.129063	-0.708458	-0.349895
H202	H	-0.582333	-1.314549	-1.061930
H203	H	-0.249000	-0.981216	-0.728596
H204	H	0.084334	-0.647883	-0.395263
Cl205	Cl	-0.361351	-1.065814	-0.488784
Cl206	Cl	-0.028018	-0.732481	-0.155451
Cl207	Cl	0.305316	-0.399148	0.177883
Cl208	Cl	-0.444007	-0.624818	-0.600250
Cl209	Cl	-0.110673	-0.291484	-0.266916
Cl210	Cl	0.222660	0.041849	0.066417
Cl211	Cl	-0.333417	-1.651719	-1.256226
Cl212	Cl	-0.000084	-1.318386	-0.922893
Cl213	Cl	0.333249	-0.985052	-0.589560
H214	H	-0.582758	-1.040820	-0.787254
H215	H	-0.249425	-0.707487	-0.453921
H216	H	0.083909	-0.374154	-0.120587
Cl217	Cl	-0.672959	-1.191778	-1.105292
Cl218	Cl	-0.339626	-0.858445	-0.771959
Cl219	Cl	-0.006292	-0.525112	-0.438625
