data_functionalizedCrystal
_audit_creation_method	'MofGen! by Chris Wilmer'
_symmetry_space_group_name_H-M	'P1'
_symmetry_Int_Tables_number	1
_symmetry_cell_setting	triclinic
loop_
_symmetry_equiv_pos_as_xyz
  x,y,z
_cell_length_a	13.032831
_cell_length_b	17.077402
_cell_length_c	17.077396
_cell_angle_alpha	89.970216
_cell_angle_beta	82.809156
_cell_angle_gamma	82.827244
loop_
_atom_site_label
_atom_site_type_symbol
_atom_site_fract_x
_atom_site_fract_y
_atom_site_fract_z
Zn1	Zn	1.597631	-0.465146	-0.595967
Zn2	Zn	2.097631	0.034854	-0.095967
Zn3	Zn	1.597508	-0.596409	-0.464687
Zn4	Zn	2.097508	-0.096409	0.035313
Zn5	Zn	1.422874	-0.448477	-0.448074
Zn6	Zn	1.922874	0.051523	0.051926
Zn7	Zn	1.422832	-0.579673	-0.579277
Zn8	Zn	1.922832	-0.079673	-0.079277
O9	O	1.510211	-0.522426	-0.522001
O10	O	2.010211	-0.022426	-0.022001
O11	O	1.743854	-0.496538	-0.592490
O12	O	2.243854	0.003462	-0.092490
O13	O	1.574308	-0.576813	-0.352633
O14	O	2.074308	-0.076813	0.147367
O15	O	1.446126	-0.340848	-0.467725
O16	O	1.946126	0.159152	0.032275
O17	O	1.743763	-0.592977	-0.496039
O18	O	2.243763	-0.092977	0.003961
O19	O	1.574519	-0.353094	-0.576382
O20	O	2.074519	0.146906	-0.076382
O21	O	1.446006	-0.468128	-0.340428
O22	O	1.946006	0.031872	0.159572
O23	O	1.276629	-0.451900	-0.451541
O24	O	1.776629	0.048100	0.048459
O25	O	1.446053	-0.564453	-0.691341
O26	O	1.946053	-0.064453	-0.191341
O27	O	1.276598	-0.548290	-0.547935
O28	O	1.776598	-0.048290	-0.047935
O29	O	1.574478	-0.480310	-0.703604
O30	O	2.074478	0.019690	-0.203604
O31	O	1.574267	-0.704029	-0.479855
O32	O	2.074267	-0.204029	0.020145
O33	O	1.445933	-0.691734	-0.564044
O34	O	1.945933	-0.191734	-0.064044
C35	C	1.510110	-0.726365	-0.521960
C36	C	2.010110	-0.226365	-0.021960
C37	C	1.510163	-0.813619	-0.521978
C38	C	2.010163	-0.313619	-0.021978
C39	C	1.238696	-0.496471	-0.496125
C40	C	1.738696	0.003529	0.003875
C41	C	1.122540	-0.485386	-0.485074
C42	C	1.622540	0.014614	0.014926
C43	C	1.577054	-0.860992	-0.478201
C44	C	2.077054	-0.360992	0.021799
C45	C	1.577106	-0.942978	-0.478226
C46	C	2.077106	-0.442978	0.021774
C47	C	1.510259	-0.977588	-0.522024
C48	C	2.010259	-0.477588	-0.022024
C49	C	1.443364	-0.930209	-0.565806
C50	C	1.943364	-0.430209	-0.065806
C51	C	1.443319	-0.848226	-0.565785
C52	C	1.943319	-0.348226	-0.065785
C53	C	1.443461	-1.101088	-0.565845
C54	C	1.943461	-0.601088	-0.065845
C55	C	1.443505	-1.183077	-0.565865
C56	C	1.943505	-0.683077	-0.065865
C57	C	1.577247	-1.195840	-0.478286
C58	C	2.077247	-0.695840	0.021714
C59	C	1.577202	-1.113857	-0.478265
C60	C	2.077202	-0.613857	0.021735
C61	C	1.510306	-1.066483	-0.522046
C62	C	2.010306	-0.566483	-0.022046
C63	C	1.070766	-0.528212	-0.527769
C64	C	1.570766	-0.028212	-0.027769
C65	C	0.950714	-0.516756	-0.516348
C66	C	1.450714	-0.016756	-0.016348
C67	C	1.782787	-0.548484	-0.547979
C68	C	2.282787	-0.048484	-0.047979
C69	C	1.898943	-0.559588	-0.559049
C70	C	2.398943	-0.059588	-0.059049
C71	C	1.510274	-0.522374	-0.726752
C72	C	2.010274	-0.022374	-0.226752
C73	C	1.510301	-0.522352	-0.814004
C74	C	2.010301	-0.022352	-0.314004
C75	C	1.510341	-0.317694	-0.522062
C76	C	2.010341	0.182306	-0.022062
C77	C	1.510396	-0.230450	-0.522088
C78	C	2.010396	0.269550	-0.022088
C79	C	1.577175	-0.478535	-0.861381
C80	C	2.077175	0.021465	-0.361381
C81	C	1.577187	-0.478510	-0.943363
C82	C	2.077187	0.021490	-0.443363
C83	C	1.510331	-0.522307	-0.977966
C84	C	2.010331	-0.022307	-0.477966
C85	C	1.443451	-0.566126	-0.930583
C86	C	1.943451	-0.066126	-0.430583
C87	C	1.443433	-0.566146	-0.848603
C88	C	1.943433	-0.066146	-0.348603
C89	C	1.443493	-0.566083	-1.101457
C90	C	1.943493	-0.066083	-0.601457
C91	C	1.443511	-0.566064	-1.183444
C92	C	1.943511	-0.066064	-0.683444
C93	C	1.577246	-0.478447	-1.196217
C94	C	2.077246	0.021553	-0.696217
C95	C	1.577229	-0.478467	-1.114237
C96	C	2.077229	0.021533	-0.614237
C97	C	1.510350	-0.522287	-1.066859
C98	C	2.010350	-0.022287	-0.566859
C99	C	1.510208	-0.522427	-0.318053
C100	C	2.010208	-0.022427	0.181947
C101	C	1.510384	-0.522247	-0.230821
C102	C	2.010384	-0.022247	0.269179
H103	H	1.631575	-0.981546	-0.442578
H104	H	2.131575	-0.481546	0.057422
H105	H	1.115320	-0.573355	-0.572780
H106	H	1.615320	-0.073355	-0.072780
C107	C	1.383871	-0.716882	-0.604643
C108	C	1.883871	-0.216882	-0.104643
C109	C	1.369790	-0.796149	-0.613906
C110	C	1.869790	-0.296149	-0.113906
H111	H	1.338483	-0.684735	-0.634359
H112	H	1.838483	-0.184735	-0.134359
H113	H	1.368605	-0.702039	-0.550442
H114	H	1.868605	-0.202039	-0.050442
H115	H	1.454075	-0.710113	-0.622862
H116	H	1.954075	-0.210113	-0.122862
H117	H	1.299589	-0.802919	-0.595682
H118	H	1.799589	-0.302919	-0.095682
H119	H	1.385049	-0.810997	-0.668119
H120	H	1.885049	-0.310997	-0.168119
H121	H	0.906164	-0.471603	-0.471340
H122	H	1.406164	0.028397	0.028660
C123	C	1.302877	-0.563593	-0.995863
C124	C	1.802877	-0.063593	-0.495863
C125	C	1.369979	-0.614258	-1.049387
C126	C	1.869979	-0.114258	-0.549387
H127	H	1.257494	-0.593339	-0.963724
H128	H	1.757494	-0.093339	-0.463724
H129	H	1.342683	-0.537521	-0.963519
H130	H	1.842683	-0.037521	-0.463519
H131	H	1.262933	-0.525567	-1.024049
H132	H	1.762933	-0.025567	-0.524049
H133	H	1.409928	-0.652281	-1.021201
H134	H	1.909928	-0.152281	-0.521201
H135	H	1.330168	-0.640343	-1.081735
H136	H	1.830168	-0.140343	-0.581735
H137	H	1.389011	-0.601783	-0.958764
H138	H	1.889011	-0.101783	-0.458764
H139	H	1.631620	-0.442873	-0.833213
H140	H	2.131620	0.057127	-0.333213
H141	H	1.631628	-1.085677	-0.442598
H142	H	2.131628	-0.585677	0.057402
C143	C	1.021874	-0.582276	-0.676235
C144	C	1.521874	-0.082276	-0.176235
C145	C	0.959070	-0.620538	-0.619817
C146	C	1.459070	-0.120538	-0.119817
H147	H	1.058997	-0.619906	-0.713747
H148	H	1.558997	-0.119906	-0.213747
H149	H	0.979319	-0.544089	-0.702298
H150	H	1.479319	-0.044089	-0.202298
H151	H	1.069911	-0.556896	-0.650921
H152	H	1.569911	-0.056896	-0.150921
H153	H	0.911028	-0.645914	-0.645131
H154	H	1.411028	-0.145914	-0.145131
H155	H	1.001628	-0.658740	-0.593751
H156	H	1.501628	-0.158740	-0.093751
H157	H	1.389068	-0.601726	-1.211615
H158	H	1.889068	-0.101726	-0.711615
H159	H	1.631644	-0.442832	-0.981934
H160	H	2.131644	0.057168	-0.481934
C161	C	1.636913	-1.327198	-0.439599
C162	C	2.136913	-0.827198	0.060401
C163	C	1.650920	-1.247923	-0.430277
C164	C	2.150920	-0.747923	0.069723
H165	H	1.682435	-1.359356	-0.409995
H166	H	2.182435	-0.859356	0.090005
H167	H	1.566768	-1.334033	-0.421292
H168	H	2.066768	-0.834033	0.078708
H169	H	1.652054	-1.341969	-0.493831
H170	H	2.152054	-0.841969	0.006169
H171	H	1.635771	-1.233149	-0.376045
H172	H	2.135771	-0.733149	0.123955
H173	H	1.721080	-1.241083	-0.448580
H174	H	2.221080	-0.741083	0.051420
H175	H	1.388991	-1.062519	-0.601500
H176	H	1.888991	-0.562519	-0.101500
C177	C	1.311327	-1.162233	-0.652455
C178	C	1.811327	-0.662233	-0.152455
C179	C	1.370041	-1.221124	-0.614020
C180	C	1.870041	-0.721124	-0.114020
H181	H	1.265982	-1.185725	-0.682189
H182	H	1.765982	-0.685725	-0.182189
H183	H	1.271350	-1.126492	-0.614422
H184	H	1.771350	-0.626492	-0.114422
H185	H	1.356835	-1.134553	-0.686831
H186	H	1.856835	-0.634553	-0.186831
H187	H	1.324533	-1.248800	-0.579640
H188	H	1.824533	-0.748800	-0.079640
H189	H	1.410022	-1.256879	-0.652058
H190	H	1.910022	-0.756879	-0.152058
H191	H	1.388968	-0.601818	-0.810028
H192	H	1.888968	-0.101818	-0.310028
C193	C	1.428815	-1.020952	-0.670013
C194	C	1.928815	-0.520952	-0.170013
C195	C	1.369885	-0.968253	-0.613949
C196	C	1.869885	-0.468253	-0.113949
H197	H	1.383447	-1.044441	-0.699730
H198	H	1.883447	-0.544441	-0.199730
H199	H	1.474295	-0.993268	-0.704395
H200	H	1.974295	-0.493268	-0.204395
H201	H	1.468656	-1.060896	-0.643934
H202	H	1.968656	-0.560896	-0.143934
H203	H	1.330050	-0.928306	-0.640029
H204	H	1.830050	-0.428306	-0.140029
H205	H	1.324387	-0.995939	-0.579562
H206	H	1.824387	-0.495939	-0.079562
H207	H	1.631484	-0.832818	-0.442532
H208	H	2.131484	-0.332818	0.057468
H209	H	1.077987	-0.440236	-0.440069
H210	H	1.577987	0.059764	0.059931
H211	H	1.631675	-0.442809	-1.086065
H212	H	2.131675	0.057191	-0.586065
H213	H	1.631700	-0.442766	-1.234796
H214	H	2.131700	0.057234	-0.734796
