data_functionalizedCrystal
_audit_creation_method	'MofGen! by Chris Wilmer'
_symmetry_space_group_name_H-M	'P1'
_symmetry_Int_Tables_number	1
_symmetry_cell_setting	triclinic
loop_
_symmetry_equiv_pos_as_xyz
  x,y,z
_cell_length_a	21.295418
_cell_length_b	18.215405
_cell_length_c	18.215399
_cell_angle_alpha	90.030551
_cell_angle_beta	89.961117
_cell_angle_gamma	89.959302
loop_
_atom_site_label
_atom_site_type_symbol
_atom_site_fract_x
_atom_site_fract_y
_atom_site_fract_z
Zn1	Zn	0.962350	0.292681	-0.416477
Zn2	Zn	0.962272	0.415752	-0.293405
Zn3	Zn	0.857082	0.292738	-0.293383
Zn4	Zn	0.857053	0.415744	-0.416389
O5	O	0.909689	0.354229	-0.354913
O6	O	1.050429	0.308986	-0.400197
O7	O	0.948298	0.399462	-0.190418
O8	O	0.871091	0.189746	-0.309740
O9	O	1.050372	0.399406	-0.309776
O10	O	0.948431	0.189704	-0.400176
O11	O	0.871015	0.309084	-0.190402
O12	O	0.768989	0.309076	-0.309654
O13	O	0.871042	0.399393	-0.519385
O14	O	0.768968	0.399448	-0.400026
O15	O	0.948403	0.308979	-0.519449
O16	O	0.948269	0.518736	-0.309691
O17	O	0.870966	0.518730	-0.400047
C18	C	0.746138	0.354268	-0.354829
C19	C	0.676170	0.354302	-0.354810
C20	C	0.909728	0.354178	-0.546866
C21	C	0.909744	0.354157	-0.628665
C22	C	0.909623	0.545435	-0.354878
C23	C	0.909652	0.627234	-0.354887
C24	C	0.643308	0.401421	-0.401796
C25	C	0.577566	0.401403	-0.401829
C26	C	0.544687	0.354274	-0.354863
C27	C	0.577556	0.307145	-0.307873
C28	C	0.643298	0.307160	-0.307847
N29	N	0.441415	0.348525	-0.290496
N30	N	0.378964	0.348516	-0.290523
C31	C	0.346612	0.354227	-0.354941
N32	N	0.379072	0.359961	-0.419332
N33	N	0.441529	0.359974	-0.419304
C34	C	0.473402	0.354252	-0.354887
C35	C	0.242466	0.401329	-0.401967
C36	C	0.176722	0.401305	-0.402001
C37	C	0.176714	0.307051	-0.308039
C38	C	0.242456	0.307071	-0.308011
C39	C	0.275328	0.354213	-0.354974
C40	C	1.073880	0.354191	-0.354999
C41	C	1.143848	0.354174	-0.355035
C42	C	0.909773	0.162276	-0.354965
C43	C	0.909809	0.080477	-0.354987
C44	C	0.949999	0.815407	-0.307926
C45	C	0.950027	0.892265	-0.307944
C46	C	0.869461	0.892299	-0.401954
C47	C	0.869436	0.815442	-0.401939
C48	C	0.909704	0.776998	-0.354921
C49	C	0.909757	0.930714	-0.354954
C50	C	0.909787	1.014047	-0.354973
C51	C	0.909675	0.693659	-0.354902
C52	C	0.950041	0.307034	-0.816894
C53	C	0.950048	0.307013	-0.893753
C54	C	0.869492	0.401165	-0.893675
C55	C	0.869482	0.401183	-0.816817
C56	C	0.909760	0.354118	-0.778429
C57	C	0.909777	0.354079	-0.932145
C58	C	0.909785	0.354057	-1.015479
C59	C	0.909751	0.354140	-0.695090
C60	C	0.909687	0.354226	-0.163707
C61	C	0.909793	0.354041	-0.081909
H62	H	0.550805	0.439773	-0.440094
H63	H	0.836676	0.439524	-0.785498
H64	H	0.269212	0.268705	-0.269746
C65	C	0.679464	0.453270	-0.453463
C66	C	0.670354	0.536922	-0.447310
C67	C	0.706511	0.588770	-0.498979
C68	C	0.751778	0.556965	-0.556801
C69	C	0.760891	0.473309	-0.562955
C70	C	0.724734	0.421462	-0.511286
H71	H	0.636842	0.560469	-0.404506
H72	H	0.699764	0.650698	-0.494423
H73	H	0.778544	0.595346	-0.595049
H74	H	0.794402	0.449762	-0.605760
H75	H	0.731480	0.359534	-0.515843
C76	C	0.541393	0.255303	-0.256208
C77	C	0.469080	0.255288	-0.256231
C78	C	0.432918	0.203442	-0.204567
C79	C	0.469068	0.151609	-0.152880
C80	C	0.541385	0.151622	-0.152855
C81	C	0.577548	0.203469	-0.204519
H82	H	0.442316	0.293660	-0.294495
H83	H	0.379384	0.203432	-0.204586
H84	H	0.442299	0.113229	-0.114635
H85	H	0.568149	0.113251	-0.114591
H86	H	0.631081	0.203478	-0.204500
C87	C	0.994351	0.934514	-0.256247
C88	C	0.989252	0.924016	-0.172575
C89	C	1.033580	0.966264	-0.120877
C90	C	1.083007	1.019010	-0.152850
C91	C	1.088107	1.029511	-0.236526
C92	C	1.043779	0.987263	-0.288224
H93	H	0.952662	0.884968	-0.148903
H94	H	1.029804	0.958491	-0.058934
H95	H	1.115821	1.050285	-0.114580
H96	H	1.124697	1.068559	-0.260198
H97	H	1.047556	0.995036	-0.350167
H98	H	0.836623	0.784167	-0.440212
C99	C	0.825162	0.934590	-0.453666
C100	C	0.780839	0.892339	-0.505361
C101	C	0.736538	0.934627	-0.557072
C102	C	0.736559	1.019167	-0.557087
C103	C	0.780883	1.061424	-0.505390
C104	C	0.825185	1.019135	-0.453679
H105	H	0.780822	0.829753	-0.505351
H106	H	0.703726	0.903346	-0.595341
H107	H	0.703764	1.050472	-0.595366
H108	H	0.780900	1.124009	-0.505399
H109	H	0.857997	1.050416	-0.415409
C110	C	0.679448	0.255329	-0.256154
C111	C	0.724719	0.197604	-0.288127
C112	C	0.760870	0.145775	-0.236431
C113	C	0.751751	0.151671	-0.152763
C114	C	0.706478	0.209399	-0.120785
C115	C	0.670327	0.261228	-0.172481
H116	H	0.731471	0.193237	-0.350067
H117	H	0.794384	0.103041	-0.260104
H118	H	0.778513	0.113304	-0.114495
H119	H	0.699726	0.213767	-0.058845
H120	H	0.636813	0.303963	-0.148809
C121	C	0.278630	0.453177	-0.453630
C122	C	0.242480	0.505002	-0.505324
C123	C	0.278642	0.556851	-0.556987
C124	C	0.350955	0.556874	-0.556955
C125	C	0.387109	0.505048	-0.505258
C126	C	0.350947	0.453199	-0.453596
H127	H	0.188946	0.504986	-0.505350
H128	H	0.251878	0.595216	-0.595256
H129	H	0.377724	0.595256	-0.595199
H130	H	0.440643	0.505063	-0.505233
H131	H	0.377711	0.414833	-0.415327
H132	H	0.982836	0.268709	-0.785641
H133	H	0.149967	0.439674	-0.440268
H134	H	0.982788	0.784107	-0.269642
H135	H	0.982848	0.268671	-0.925068
C136	C	0.140556	0.255206	-0.256376
C137	C	0.068243	0.255186	-0.256403
C138	C	0.032081	0.203336	-0.204741
C139	C	0.068232	0.151506	-0.153052
C140	C	0.140549	0.151524	-0.153023
C141	C	0.176711	0.203374	-0.204685
H142	H	0.041478	0.293555	-0.294668
H143	H	-0.021453	0.203322	-0.204763
H144	H	0.041463	0.113124	-0.114808
H145	H	0.167314	0.113155	-0.114757
H146	H	0.230245	0.203388	-0.204663
C147	C	0.825193	0.452940	-0.935903
C148	C	0.825205	0.452928	-1.020444
C149	C	0.780906	0.504706	-1.062670
C150	C	0.736596	0.556496	-1.020357
C151	C	0.736583	0.556511	-0.935812
C152	C	0.780882	0.504733	-0.893585
H153	H	0.858007	0.414587	-1.051771
H154	H	0.780916	0.504695	-1.125256
H155	H	0.703804	0.594826	-1.051616
H156	H	0.703781	0.594851	-0.904485
H157	H	0.780872	0.504744	-0.831000
