data_functionalizedCrystal
_audit_creation_method	'MofGen! by Chris Wilmer'
_symmetry_space_group_name_H-M	'P1'
_symmetry_Int_Tables_number	1
_symmetry_cell_setting	triclinic
loop_
_symmetry_equiv_pos_as_xyz
  x,y,z
_cell_length_a	19.288864
_cell_length_b	10.967829
_cell_length_c	18.366186
_cell_angle_alpha	77.865925
_cell_angle_beta	89.977106
_cell_angle_gamma	83.937959
loop_
_atom_site_label
_atom_site_type_symbol
_atom_site_fract_x
_atom_site_fract_y
_atom_site_fract_z
O1	O	0.922368	0.155662	-0.080313
O2	O	0.720245	0.176660	-0.082898
O3	O	0.825966	-0.015517	-0.058808
O4	O	0.816647	0.347838	-0.104403
O5	O	0.825947	-0.015526	0.062292
O6	O	0.720226	0.176651	0.038203
O7	O	0.922350	0.155652	0.040787
Zn8	Zn	0.821285	0.166150	0.058722
Zn9	Zn	0.821309	0.166162	-0.100833
O10	O	0.816629	0.347829	0.016697
C11	C	0.694355	0.175980	-0.022257
C12	C	0.617238	0.173951	-0.021983
C13	C	0.573277	0.286712	-0.036144
C14	C	0.500818	0.284807	-0.035913
C15	C	0.472322	0.170134	-0.021535
C16	C	0.516292	0.057359	-0.007368
C17	C	0.588750	0.059267	-0.007592
C18	C	0.363478	0.079992	-0.052674
C19	C	0.291021	0.078088	-0.052455
C20	C	0.248838	0.164242	-0.020839
C21	C	0.279119	0.252322	0.010545
C22	C	0.351577	0.254230	0.010321
C23	C	0.393754	0.168052	-0.021290
C24	C	0.126308	0.274945	-0.034750
C25	C	0.053847	0.273034	-0.034514
C26	C	0.069324	0.045583	-0.005975
C27	C	0.141783	0.047497	-0.006205
C28	C	0.170270	0.162181	-0.020596
C29	C	0.825277	-0.062008	0.007574
C30	C	0.823244	-0.200522	0.024952
C31	C	0.822348	-0.262265	-0.030034
C32	C	0.820247	-0.405426	-0.012075
C33	C	0.948240	0.156333	-0.019856
C34	C	1.025357	0.158361	-0.020134
C35	C	0.817318	0.394320	-0.049687
C36	C	0.819350	0.532834	-0.067069
N37	N	0.821274	0.166141	0.167615
N38	N	0.821326	0.166162	-0.209724
C39	C	0.868103	0.081087	0.216377
C40	C	0.868107	0.081081	0.292605
C41	C	0.821290	0.166151	0.320066
C42	C	0.774452	0.251212	0.271294
C43	C	0.774444	0.251206	0.195068
C44	C	0.812733	0.279846	0.426561
C45	C	0.812746	0.279852	0.502785
C46	C	0.821309	0.166167	0.555172
C47	C	0.829875	0.052469	0.531325
C48	C	0.829868	0.052464	0.455100
C49	C	0.821292	0.166166	0.402719
C50	C	0.868146	0.081099	0.686590
C51	C	0.868145	0.081092	0.762820
C52	C	0.774493	0.251234	0.741506
C53	C	0.774490	0.251230	0.665279
C54	C	0.821320	0.166164	0.637825
H55	H	0.596467	0.380097	-0.047864
O56	O	0.723998	0.343015	0.771099
H57	H	0.689990	0.290669	0.812425
H58	H	0.906242	0.011817	0.332315
H59	H	0.805775	0.372431	0.522194
H60	H	0.736331	0.320475	0.293656
H61	H	0.819455	-0.458547	0.048301
O62	O	0.233634	0.345250	0.044655
H63	H	0.178163	0.329119	0.039549
H64	H	0.624544	-0.032559	0.003940
O65	O	0.485558	-0.066322	0.008144
H66	H	0.528304	-0.144415	0.017961
O67	O	0.918624	-0.010683	0.656968
H68	H	0.952635	0.041661	0.615644
H69	H	0.149504	0.368327	-0.046457
H70	H	0.376229	0.325944	0.035878
H71	H	0.820130	-0.414044	-0.127446
O72	O	0.803501	0.402471	0.370058
H73	H	0.797559	0.481529	0.399444
H74	H	0.266372	0.006374	-0.078014
O75	O	0.723980	0.342973	0.612683
H76	H	0.731834	0.328670	0.555066
O77	O	0.822211	-0.270877	0.104927
H78	H	0.820733	-0.372284	0.106483
H79	H	0.906233	0.011818	0.194027
O80	O	0.006427	0.394660	-0.049785
H81	H	0.038412	0.474721	-0.059835
O82	O	0.839093	-0.070154	0.429375
H83	H	0.845044	-0.149213	0.478603
H84	H	0.397819	0.009832	-0.078424
O85	O	0.839107	-0.070164	0.587816
H86	H	0.837663	-0.051066	0.644827
O87	O	0.823389	-0.191911	-0.110009
H88	H	0.824879	-0.090507	-0.111565
H89	H	0.906277	0.011824	0.802525
O90	O	0.723939	0.342956	0.142465
H91	H	0.691385	0.402117	0.174363
H92	H	0.046124	-0.047785	0.005687
O93	O	0.453389	0.406430	-0.051195
H94	H	0.485371	0.486496	-0.061244
H95	H	0.177577	-0.044325	0.005323
