data_functionalizedCrystal
_audit_creation_method	'MofGen! by Chris Wilmer'
_symmetry_space_group_name_H-M	'P1'
_symmetry_Int_Tables_number	1
_symmetry_cell_setting	triclinic
loop_
_symmetry_equiv_pos_as_xyz
  x,y,z
_cell_length_a	29.839135
_cell_length_b	29.839126
_cell_length_c	11.169416
_cell_angle_alpha	90.014905
_cell_angle_beta	89.987129
_cell_angle_gamma	89.976855
loop_
_atom_site_label
_atom_site_type_symbol
_atom_site_fract_x
_atom_site_fract_y
_atom_site_fract_z
Zn1	Zn	0.686851	-0.254076	0.477818
Zn2	Zn	0.686813	-0.178958	0.678503
Zn3	Zn	0.611723	-0.178954	0.477841
Zn4	Zn	0.611722	-0.254055	0.678467
O5	O	0.649277	-0.216511	0.578157
O6	O	0.749713	-0.244122	0.504445
O7	O	0.676838	-0.116091	0.651909
O8	O	0.621705	-0.188926	0.309888
O9	O	0.749686	-0.188933	0.651887
O10	O	0.676901	-0.244118	0.309871
O11	O	0.621669	-0.116088	0.504484
O12	O	0.548856	-0.188906	0.504449
O13	O	0.621703	-0.316925	0.651825
O14	O	0.548855	-0.244082	0.651848
O15	O	0.676900	-0.316941	0.504410
O16	O	0.676836	-0.188913	0.846448
O17	O	0.621667	-0.244086	0.846421
C18	C	0.532555	-0.216492	0.578148
C19	C	0.482620	-0.216494	0.578173
C20	C	0.172988	-0.245290	0.501500
C21	C	-0.014685	-0.245303	0.501509
O22	O	-0.038940	-0.269765	0.436291
N23	N	-0.038165	-0.216527	0.578158
C24	C	-0.014723	-0.187745	0.654806
O25	O	-0.039001	-0.163266	0.719993
C26	C	0.172949	-0.187730	0.654791
C27	C	0.196426	-0.216510	0.578144
C28	C	0.196466	-0.274068	0.424859
C29	C	0.243381	-0.274066	0.424863
C30	C	0.266819	-0.245287	0.501507
C31	C	0.243342	-0.216509	0.578148
C32	C	0.196389	-0.158945	0.731431
C33	C	0.243310	-0.158943	0.731419
C34	C	0.266788	-0.187724	0.654772
C35	C	0.313695	-0.187727	0.654795
N36	N	0.337175	-0.216503	0.578146
C37	C	0.313737	-0.245282	0.501501
C38	C	-0.113254	-0.187755	0.654810
C39	C	-0.160172	-0.187759	0.654816
C40	C	-0.160130	-0.245317	0.501516
C41	C	-0.113211	-0.245315	0.501518
C42	C	-0.089774	-0.216530	0.578160
C43	C	0.412263	-0.245277	0.501515
C44	C	0.459182	-0.245274	0.501529
C45	C	0.459136	-0.187715	0.654823
C46	C	0.412221	-0.187719	0.654814
C47	C	0.388785	-0.216502	0.578151
O48	O	0.337979	-0.163275	0.719969
O49	O	0.338022	-0.269750	0.436306
C50	C	0.126073	-0.245292	0.501497
C51	C	0.102595	-0.216514	0.578138
C52	C	0.126033	-0.187734	0.654782
C53	C	0.055677	-0.216518	0.578143
C54	C	0.032239	-0.245298	0.501499
C55	C	0.055719	-0.274073	0.424849
C56	C	0.102635	-0.274071	0.424853
C57	C	0.102553	-0.158959	0.731432
C58	C	0.055638	-0.158963	0.731423
C59	C	0.032200	-0.187743	0.654779
C60	C	0.649305	-0.333689	0.578111
C61	C	0.649317	-0.383624	0.578091
C62	C	0.620600	-0.693269	0.501207
C63	C	0.620612	-0.880942	0.501124
O64	O	0.596174	-0.905208	0.435874
N65	N	0.649338	-0.904409	0.577866
C66	C	0.678061	-0.880955	0.654641
O67	O	0.702491	-0.905222	0.719922
C68	C	0.678046	-0.693283	0.654729
C69	C	0.649321	-0.669818	0.577973
C70	C	0.591877	-0.669804	0.424458
C71	C	0.591876	-0.622888	0.424475
C72	C	0.620597	-0.599438	0.501241
C73	C	0.649320	-0.622903	0.577990
C74	C	0.706766	-0.669830	0.731509
C75	C	0.706758	-0.622909	0.731526
C76	C	0.678034	-0.599444	0.654770
C77	C	0.678040	-0.552537	0.654773
N78	N	0.649314	-0.529069	0.578030
C79	C	0.620593	-0.552520	0.501264
C80	C	0.678067	-0.979486	0.654587
C81	C	0.678072	-1.026404	0.654564
C82	C	0.620623	-1.026387	0.501048
C83	C	0.620621	-0.979468	0.501066
C84	C	0.649342	-0.956019	0.577845
C85	C	0.620593	-0.453994	0.501305
C86	C	0.620596	-0.407074	0.501326
C87	C	0.678043	-0.407095	0.654845
C88	C	0.678042	-0.454011	0.654821
C89	C	0.649313	-0.477459	0.578047
O90	O	0.702463	-0.528242	0.719998
O91	O	0.596160	-0.528245	0.436012
C92	C	0.620601	-0.740184	0.501190
C93	C	0.649323	-0.763649	0.577939
C94	C	0.678045	-0.740198	0.654705
C95	C	0.649328	-0.810567	0.577916
C96	C	0.620607	-0.834017	0.501150
C97	C	0.591881	-0.810550	0.424407
C98	C	0.591880	-0.763635	0.424424
C99	C	0.706770	-0.763666	0.731447
C100	C	0.706770	-0.810581	0.731423
C101	C	0.678048	-0.834032	0.654657
C102	C	0.766456	-0.216530	0.578167
C103	C	0.816390	-0.216539	0.578171
C104	C	0.649260	-0.216508	0.889982
C105	C	0.649293	-0.216521	1.023382
C106	C	0.649275	-0.099788	0.578116
C107	C	0.649351	-0.049854	0.577798
C108	C	0.649307	-0.216524	0.265115
C109	C	0.649320	-0.216530	0.131715
H110	H	0.177282	-0.135508	0.793844
H111	H	-0.179283	-0.164328	0.717242
H112	H	0.036628	-0.297508	0.362447
H113	H	0.701467	-1.045505	0.717053
H114	H	0.730158	-0.744577	0.793965
N115	N	0.707384	-0.383142	0.733258
N116	N	0.748841	-0.388393	0.725315
H117	H	0.769561	-0.371475	0.780701
H118	H	0.730150	-0.603819	0.794042
H119	H	0.597200	-0.473080	0.438788
H120	H	-0.094176	-0.164314	0.717226
N121	N	0.707422	-0.955539	0.732988
N122	N	0.736055	-0.929376	0.690764
H123	H	0.756791	-0.912466	0.746128
N124	N	0.591245	-0.383107	0.422937
N125	N	0.562611	-0.356916	0.465171
H126	H	0.541881	-0.339990	0.409814
H127	H	0.568497	-0.829652	0.361897
N128	N	0.126491	-0.129568	0.809748
N129	N	0.152668	-0.145327	0.886294
H130	H	0.169573	-0.124569	0.941615
N131	N	0.707396	-0.477987	0.733176
N132	N	0.748851	-0.472765	0.725192
H133	H	0.769583	-0.489698	0.780529
H134	H	0.568484	-0.603787	0.361977
H135	H	0.730165	-0.829682	0.793925
N136	N	0.483156	-0.274679	0.423231
N137	N	0.462220	-0.300372	0.354805
H138	H	0.479150	-0.321139	0.299507
N139	N	0.388335	-0.274684	0.423209
N140	N	0.409311	-0.300377	0.354800
H141	H	0.392412	-0.321149	0.299504
H142	H	0.036526	-0.135528	0.793849
N143	N	0.267243	-0.129534	0.809709
N144	N	0.246271	-0.103840	0.878126
H145	H	0.263173	-0.083070	0.933419
N146	N	0.267352	-0.303469	0.346564
N147	N	0.246412	-0.329161	0.278144
H148	H	0.263339	-0.349928	0.222840
N149	N	0.388243	-0.158318	0.733108
N150	N	0.393470	-0.116869	0.724988
H151	H	0.376538	-0.096100	0.780277
H152	H	0.478228	-0.164284	0.717227
N153	N	0.562545	-0.693752	0.346010
N154	N	0.578364	-0.719933	0.269507
H155	H	0.557650	-0.736843	0.214088
H156	H	0.177388	-0.297504	0.362440
H157	H	-0.094099	-0.268749	0.439103
H158	H	0.568489	-0.744534	0.361921
N159	N	0.591280	-0.955509	0.422648
N160	N	0.565642	-0.976458	0.354109
H161	H	0.544919	-0.959539	0.298720
H162	H	0.121746	-0.297507	0.362439
H163	H	-0.179221	-0.268751	0.439110
H164	H	0.730156	-0.688927	0.794013
H165	H	0.597238	-1.045488	0.438539
