data_functionalizedCrystal
_audit_creation_method	'MofGen! by Chris Wilmer'
_symmetry_space_group_name_H-M	'P1'
_symmetry_Int_Tables_number	1
_symmetry_cell_setting	triclinic
loop_
_symmetry_equiv_pos_as_xyz
  x,y,z
_cell_length_a	15.297327
_cell_length_b	13.032831
_cell_length_c	13.033429
_cell_angle_alpha	90.908563
_cell_angle_beta	91.279548
_cell_angle_gamma	86.257992
loop_
_atom_site_label
_atom_site_type_symbol
_atom_site_fract_x
_atom_site_fract_y
_atom_site_fract_z
Zn1	Zn	-0.419820	-1.405146	-0.853129
Zn2	Zn	-0.584810	-1.390163	-0.709533
Zn3	Zn	-0.424431	-1.253960	-0.660152
Zn4	Zn	-0.548574	-1.204488	-0.853431
O5	O	-0.494409	-1.313439	-0.769061
O6	O	-0.454942	-1.544136	-0.854620
O7	O	-0.580630	-1.386530	-0.561999
O8	O	-0.302816	-1.300990	-0.664959
O9	O	-0.576159	-1.533128	-0.749121
O10	O	-0.299429	-1.412066	-0.806738
O11	O	-0.462800	-1.286462	-0.525719
O12	O	-0.427664	-1.106420	-0.665251
O13	O	-0.514400	-1.216671	-0.994374
O14	O	-0.518871	-1.070073	-0.807252
O15	O	-0.419805	-1.364094	-0.994152
O16	O	-0.701006	-1.338558	-0.749413
O17	O	-0.674384	-1.202143	-0.855134
C18	C	-0.469836	-1.051692	-0.730927
C19	C	-0.459342	-0.939709	-0.714640
C20	C	-0.719070	-1.263381	-0.807691
C21	C	-0.815185	-1.242055	-0.824264
C22	C	-0.462546	-1.286536	-1.031840
C23	C	-0.448969	-1.275071	-1.143821
C24	C	-1.141437	-1.466242	-0.651014
C25	C	-1.051132	-1.486279	-0.635438
C26	C	-0.992141	-1.425225	-0.682643
C27	C	-1.023463	-1.344130	-0.745427
C28	C	-1.113777	-1.324086	-0.760999
C29	C	-0.964481	-1.283069	-0.792628
C30	C	-0.995804	-1.201974	-0.855412
C31	C	-1.086109	-1.181934	-0.870982
C32	C	-1.145100	-1.242988	-0.823776
C33	C	-0.874168	-1.303113	-0.777056
C34	C	-0.846508	-1.160957	-0.887041
C35	C	-0.936813	-1.140920	-0.902618
C36	C	-0.268870	-1.363718	-0.730306
C37	C	-0.172759	-1.385144	-0.713791
C38	C	-0.519078	-1.576208	-0.807345
C39	C	-0.529591	-1.688185	-0.823659
C40	C	-0.499886	-0.871817	-0.777561
C41	C	-0.489041	-0.756076	-0.760730
C42	C	-0.487195	-1.307625	-1.327434
C43	C	-0.501224	-1.319476	-1.211695
C44	C	-0.526090	-1.340310	-0.507302
C45	C	-0.539443	-1.352025	-0.395308
H46	H	-0.848674	-1.369141	-0.725937
O47	O	-0.904446	-1.444859	-0.667448
C48	C	-0.790029	-1.551583	-0.584707
C49	C	-0.889368	-1.529467	-0.601845
H50	H	-0.777807	-1.619975	-0.531650
H51	H	-0.757929	-1.569965	-0.661517
H52	H	-0.760806	-1.481122	-0.548209
H53	H	-0.918668	-1.599892	-0.638309
H54	H	-0.921404	-1.511042	-0.525008
O55	O	-0.580700	-0.720918	-0.902753
C56	C	-0.724983	-0.715640	-0.981330
C57	C	-0.667200	-0.678472	-0.891718
H58	H	-0.794934	-0.681356	-0.972427
H59	H	-0.698203	-0.690021	-1.057053
H60	H	-0.724597	-0.803132	-0.980815
H61	H	-0.667562	-0.590983	-0.892135
H62	H	-0.694000	-0.704169	-0.816036
O63	O	-0.605303	-1.407751	-1.362545
C64	C	-0.760885	-1.427115	-1.362478
C65	C	-0.686380	-1.363928	-1.399669
H66	H	-0.826454	-1.391696	-1.392459
H67	H	-0.750917	-1.509636	-1.392375
H68	H	-0.760439	-1.426754	-1.274994
H69	H	-0.686782	-1.364206	-1.487147
H70	H	-0.696374	-1.281439	-1.369695
H71	H	-0.432075	-1.260845	-1.355009
O72	O	-0.438120	-0.723032	-0.681606
C73	C	-0.380827	-0.577549	-0.592743
C74	C	-0.438528	-0.614830	-0.682378
H75	H	-0.381124	-0.490065	-0.593350
H76	H	-0.407685	-0.603058	-0.517020
H77	H	-0.310898	-0.611939	-0.601542
H78	H	-0.508471	-0.580457	-0.673677
H79	H	-0.411598	-0.589334	-0.758066
O80	O	-0.408424	-0.906660	-0.635521
C81	C	-0.351131	-0.761176	-0.546658
C82	C	-0.408833	-0.798458	-0.636293
H83	H	-0.351428	-0.673693	-0.547265
H84	H	-0.377989	-0.786686	-0.470936
H85	H	-0.281202	-0.795567	-0.555457
H86	H	-0.478775	-0.764085	-0.627592
H87	H	-0.381902	-0.772961	-0.711981
H88	H	-0.556342	-1.366269	-1.184125
H89	H	-0.393843	-1.228288	-1.171390
H90	H	-1.025633	-1.552305	-0.584318
H91	H	-1.189474	-1.515937	-0.612579
H92	H	-1.111608	-1.115890	-0.922091
H93	H	-1.218635	-1.226680	-0.836458
H94	H	-0.962329	-1.074892	-0.953737
O95	O	-0.550762	-0.904650	-0.856817
C96	C	-0.575242	-0.910105	-1.040047
C97	C	-0.517539	-0.872884	-0.950385
H98	H	-0.548414	-0.884419	-1.115717
H99	H	-0.574889	-0.997598	-1.039611
H100	H	-0.645188	-0.875792	-1.031179
H101	H	-0.447568	-0.907123	-0.959193
H102	H	-0.517967	-0.785388	-0.950849
O103	O	-0.789093	-1.101773	-0.932862
C104	C	-0.637707	-1.069615	-0.957568
C105	C	-0.702638	-1.136731	-0.905641
H106	H	-0.567794	-1.097840	-0.935562
H107	H	-0.647159	-1.075004	-1.044453
H108	H	-0.650107	-0.986255	-0.931072
H109	H	-0.690277	-1.220118	-0.932054
H110	H	-0.693171	-1.131254	-0.818764
