data_functionalizedCrystal
_audit_creation_method	'MofGen! by Chris Wilmer'
_symmetry_space_group_name_H-M	'P1'
_symmetry_Int_Tables_number	1
_symmetry_cell_setting	triclinic
loop_
_symmetry_equiv_pos_as_xyz
  x,y,z
_cell_length_a	20.875641
_cell_length_b	14.446369
_cell_length_c	14.446369
_cell_angle_alpha	120.007204
_cell_angle_beta	90.003363
_cell_angle_gamma	57.590695
loop_
_atom_site_label
_atom_site_type_symbol
_atom_site_fract_x
_atom_site_fract_y
_atom_site_fract_z
Zr1	Zr	0.641481	0.945311	0.087571
O2	O	0.535157	1.149707	0.241022
O3	O	0.674074	0.748734	0.040524
O4	O	0.674073	0.941874	0.233659
O5	O	0.535160	0.956551	-0.104454
O6	O	0.783654	0.930268	0.227858
O7	O	0.535158	0.956567	0.047887
O8	O	0.783656	0.584776	-0.117625
O9	O	0.535158	1.302043	0.241029
O10	O	0.769755	0.818031	0.016138
O11	O	0.687977	0.826680	-0.093224
O12	O	0.687976	1.054078	0.134168
O13	O	0.606199	1.062727	0.024806
Zr14	Zr	0.816252	0.926773	-0.164647
Zr15	Zr	0.816249	0.926800	0.078320
Zr16	Zr	0.641484	0.945284	-0.155395
Zr17	Zr	0.641483	1.188268	0.087582
Zr18	Zr	0.816251	0.683815	-0.164658
O19	O	0.783659	1.123349	-0.117600
O20	O	0.783655	1.123387	0.227867
O21	O	0.535161	1.149670	-0.104445
O22	O	0.922576	0.722377	-0.318098
O23	O	0.922572	0.722414	0.027370
O24	O	0.674078	0.748697	-0.304943
O25	O	0.922573	0.915533	0.027378
O26	O	0.783660	0.930209	-0.310735
O27	O	0.674080	0.941816	-0.304934
O28	O	0.922575	0.915517	-0.124963
O29	O	0.674076	1.287329	0.233675
O30	O	0.783658	0.584755	-0.310751
O31	O	0.922575	0.570041	-0.318105
O32	O	0.922573	0.570062	-0.124979
O33	O	0.535160	1.302022	0.047903
O34	O	0.674078	1.287308	0.040549
O35	O	0.769757	0.818006	-0.211243
O36	O	0.851535	0.809357	-0.101882
O37	O	0.769756	1.045404	0.016148
O38	O	0.687979	1.054053	-0.093213
C39	C	0.510258	0.959196	-0.026965
C40	C	0.436065	0.967055	-0.023038
C41	C	0.728865	0.632139	-0.038552
C42	C	0.728864	0.528997	-0.038556
C43	C	0.443894	0.847536	-0.082797
C44	C	0.374178	0.854928	-0.079104
C45	C	0.296634	0.981840	-0.015644
C46	C	0.288807	1.101368	0.044117
C47	C	0.358522	1.093975	0.040416
C48	C	0.083556	1.017164	0.002023
C49	C	0.013840	1.024548	0.005721
C50	C	0.099216	0.778107	-0.117502
C51	C	0.168928	0.770725	-0.121191
C52	C	0.161095	0.890253	-0.061435
N53	N	0.225373	0.989399	-0.011865
N54	N	0.232356	0.882693	-0.065221
C55	C	0.677534	0.387416	-0.107872
C56	C	0.677255	0.495066	-0.107566
C57	C	0.691237	0.581992	0.086980
C58	C	0.690851	0.474800	0.086627
C59	C	0.817857	0.286108	-0.093716
C60	C	0.817726	0.392272	-0.096230
C61	C	0.947475	0.912887	-0.050110
C62	C	1.021669	0.905029	-0.054038
C63	C	0.728863	0.936075	0.265376
C64	C	0.728862	0.936086	0.368522
C65	C	0.728869	1.239945	-0.038524
C66	C	0.728869	1.343087	-0.038519
C67	C	0.677276	1.084979	0.482259
C68	C	0.676997	1.085067	0.589584
C69	C	0.691508	0.868378	0.481625
C70	C	0.691121	0.869365	0.374805
C71	C	0.817825	0.853841	0.366946
C72	C	0.817687	0.856527	0.475611
C73	C	0.728866	0.936027	0.657557
C74	C	0.728856	0.936068	0.554438
C75	C	0.947473	0.608984	-0.050124
C76	C	1.021666	0.497984	-0.054057
C77	C	0.728868	0.632106	-0.342466
C78	C	0.728869	0.528953	-0.445616
C79	C	0.947477	0.608951	-0.354038
C80	C	1.021671	0.497940	-0.461116
C81	C	0.510257	1.263132	0.276963
C82	C	0.436063	1.374144	0.384041
C83	C	0.510260	1.263100	-0.026951
C84	C	0.436067	1.374100	-0.023019
C85	C	0.728865	1.239978	0.265390
C86	C	0.728865	1.343131	0.368541
C87	C	1.013819	0.450385	0.005712
C88	C	1.083525	0.346102	0.002040
C89	C	1.161076	0.289414	-0.061407
C90	C	1.168921	0.337023	-0.121178
C91	C	1.099216	0.441310	-0.117499
C92	C	1.099207	0.441292	-0.454316
C93	C	1.168927	0.336998	-0.554919
C94	C	1.161109	0.289347	-0.662320
C95	C	1.083564	0.346005	-0.669117
C96	C	1.013846	0.450304	-0.568516
C97	C	0.358526	1.430804	0.377241
C98	C	0.288806	1.535128	0.477843
C99	C	0.296624	1.582784	0.585244
C100	C	0.374169	1.526120	0.592042
C101	C	0.443887	1.421804	0.491441
C102	C	0.443914	1.421709	-0.082778
C103	C	0.374208	1.526018	-0.079079
C104	C	0.296657	1.582710	-0.015628
C105	C	0.288812	1.535096	0.044138
C106	C	0.358517	1.430796	0.040445
C107	C	0.677042	0.388116	-0.517868
C108	C	0.677260	0.495031	-0.410537
C109	C	0.817730	0.392676	-0.524886
C110	C	0.817452	0.285313	-0.631743
C111	C	0.692572	0.473512	-0.626711
C112	C	0.690768	0.582191	-0.517930
H113	H	0.507030	0.744190	-0.134478
H114	H	0.702495	0.455673	-0.199876
H115	H	0.352117	1.392036	0.089105
H116	H	0.611826	0.591318	-0.352797
H117	H	0.726281	0.760391	0.294324
H118	H	1.105617	0.480052	-0.166176
H119	H	0.380525	1.564935	0.679500
H120	H	1.232073	0.290852	-0.172835
H121	H	0.507019	1.375672	0.496991
H122	H	0.611441	0.432303	-0.512058
H123	H	0.626380	0.681173	0.131106
H124	H	0.701992	0.295807	-0.518157
H125	H	0.225673	1.581248	0.472286
H126	H	0.845592	0.905815	0.525726
H127	H	0.507054	1.375558	-0.134454
H128	H	0.702173	1.138952	0.483457
H129	H	1.105589	0.480074	-0.366874
H130	H	0.702445	0.454903	-0.358082
H131	H	0.849294	0.189022	-0.184954
H132	H	0.628127	0.519910	-0.627414
H133	H	1.077210	0.307192	-0.756577
H134	H	1.232061	0.290877	-0.549363
H135	H	1.217885	0.204419	-0.744227
H136	H	0.352144	1.392009	0.289799
H137	H	0.726831	0.607013	0.141116
H138	H	0.352142	1.191300	0.089065
H139	H	1.217828	0.204496	-0.064395
H140	H	0.846518	0.191481	-0.633012
H141	H	0.380612	1.564767	-0.127752
H142	H	0.239906	1.667638	-0.012631
H143	H	0.950715	0.496414	-0.574069
H144	H	0.239849	1.667725	0.667151
H145	H	0.612040	1.147615	0.486615
H146	H	-0.049302	1.127901	0.057403
H147	H	0.225661	1.581271	0.095798
H148	H	0.702640	0.295879	-0.200402
H149	H	0.858174	0.251034	-0.712486
H150	H	0.858027	0.410652	-0.554251
H151	H	0.846999	0.351024	-0.474826
H152	H	0.225664	1.204702	0.095780
H153	H	0.950680	0.496539	0.057392
H154	H	0.625304	0.679625	-0.463037
H155	H	0.724600	0.610730	-0.545244
H156	H	0.856435	0.744090	0.286664
H157	H	0.730150	0.444733	-0.706922
H158	H	0.232065	0.667379	-0.172844
H159	H	0.105584	0.680794	-0.166152
H160	H	0.380560	0.757603	-0.127768
H161	H	0.845836	0.349684	-0.188735
H162	H	0.077167	1.114492	0.050701
H163	H	0.611615	0.590823	-0.069091
H164	H	0.612281	0.430094	-0.069710
H165	H	0.625369	0.522438	0.130510
H166	H	0.859197	0.409387	-0.051393
H167	H	0.856285	0.256068	-0.043507
H168	H	0.702029	1.138594	0.642695
H169	H	0.725827	0.449132	0.141390
H170	H	0.611370	1.147949	0.646702
H171	H	0.859336	0.747453	0.447874
H172	H	0.625665	0.926608	0.378401
H173	H	0.727292	0.759058	0.452453
H174	H	1.077122	0.307353	0.050713
H175	H	0.626680	0.924394	0.536515
H176	H	0.849057	0.896756	0.361342
