data_functionalizedCrystal
_audit_creation_method	'MofGen! by Chris Wilmer'
_symmetry_space_group_name_H-M	'P1'
_symmetry_Int_Tables_number	1
_symmetry_cell_setting	triclinic
loop_
_symmetry_equiv_pos_as_xyz
  x,y,z
_cell_length_a	11.169417
_cell_length_b	13.031981
_cell_length_c	11.169409
_cell_angle_alpha	97.219778
_cell_angle_beta	90.019824
_cell_angle_gamma	97.192872
loop_
_atom_site_label
_atom_site_type_symbol
_atom_site_fract_x
_atom_site_fract_y
_atom_site_fract_z
Zn1	Zn	1.774260	-0.416011	0.617790
Zn2	Zn	1.748640	-0.590835	0.391577
Zn3	Zn	1.573537	-0.416075	0.417115
Zn4	Zn	1.548056	-0.590750	0.592234
O5	O	1.661123	-0.503418	0.504679
O6	O	1.938810	-0.439211	0.587790
O7	O	1.725354	-0.567715	0.227006
O8	O	1.621549	-0.269800	0.465119
O9	O	1.919987	-0.567653	0.421592
O10	O	1.769019	-0.269753	0.612554
O11	O	1.596706	-0.439319	0.245769
O12	O	1.402208	-0.439237	0.440338
O13	O	1.578121	-0.567508	0.763583
O14	O	1.383488	-0.567570	0.568997
O15	O	1.744312	-0.439128	0.782359
O16	O	1.700646	-0.737091	0.396811
O17	O	1.553279	-0.737028	0.544233
C18	C	1.349301	-0.503402	0.504666
C19	C	1.215898	-0.503420	0.504685
C20	C	1.621450	-0.774985	0.465004
C21	C	1.604587	-0.891162	0.448071
C22	C	1.669988	-0.942851	0.513541
C23	C	1.652561	-1.062927	0.496041
C24	C	1.974163	-0.503435	0.504693
C25	C	2.107562	-0.503442	0.504699
C26	C	1.661232	-0.503302	0.817739
C27	C	1.661279	-0.503252	0.951146
C28	C	1.700984	-0.230791	0.544536
C29	C	1.717970	-0.114613	0.561520
C30	C	1.661095	-0.503458	0.192849
C31	C	1.661324	-0.503213	0.059485
H32	H	1.738877	-0.898211	0.582553
F33	F	1.562500	-1.121268	0.405843
F34	F	1.808025	-1.056274	0.651727
H35	H	1.535689	-0.935805	0.379069
