data_functionalizedCrystal
_audit_creation_method	'MofGen! by Chris Wilmer'
_symmetry_space_group_name_H-M	'P1'
_symmetry_Int_Tables_number	1
_symmetry_cell_setting	triclinic
loop_
_symmetry_equiv_pos_as_xyz
  x,y,z
_cell_length_a	15.995350
_cell_length_b	17.666332
_cell_length_c	15.995350
_cell_angle_alpha	90.004241
_cell_angle_beta	83.492375
_cell_angle_gamma	90.005705
loop_
_atom_site_label
_atom_site_type_symbol
_atom_site_fract_x
_atom_site_fract_y
_atom_site_fract_z
O1	O	1.110991	0.062880	0.107928
O2	O	1.610991	0.562880	0.607928
O3	O	0.867216	0.062896	0.121256
O4	O	1.367216	0.562896	0.621256
O5	O	0.995767	0.062887	-0.007296
O6	O	1.495767	0.562887	0.492704
O7	O	0.982440	0.062889	0.236479
O8	O	1.482440	0.562889	0.736479
O9	O	0.995745	-0.063010	-0.007303
O10	O	1.495745	0.436990	0.492697
O11	O	0.867193	-0.063001	0.121249
O12	O	1.367193	0.436999	0.621249
O13	O	1.110969	-0.063016	0.107921
O14	O	1.610969	0.436984	0.607921
Cu15	Cu	0.989079	-0.074504	0.114584
Cu16	Cu	1.489079	0.425496	0.614584
Cu17	Cu	0.989106	0.074383	0.114592
Cu18	Cu	1.489106	0.574383	0.614592
O19	O	0.982417	-0.063008	0.236473
O20	O	1.482417	0.436992	0.736473
C21	C	0.836010	-0.000051	0.120701
C22	C	1.336010	0.499949	0.620701
C23	C	0.743060	-0.000045	0.119049
C24	C	1.243060	0.499955	0.619049
N25	N	0.989066	-0.179224	0.114578
N26	N	1.489066	0.320776	0.614578
C27	C	0.405312	-0.000061	0.113117
C28	C	0.905312	0.499939	0.613117
C29	C	0.452746	-0.000342	0.021565
C30	C	0.952746	0.499658	0.521565
C31	C	0.549436	-0.000053	0.023217
C32	C	1.049436	0.499947	0.523217
C33	C	0.572873	-0.000053	0.116060
C34	C	1.072873	0.499947	0.616060
C35	C	0.531798	0.071837	0.161220
C36	C	1.031798	0.571837	0.661220
C37	C	0.435163	0.071892	0.158920
C38	C	0.935163	0.571892	0.658920
C39	C	0.434798	-0.071276	0.160804
C40	C	0.934798	0.428724	0.660804
C41	C	0.531743	-0.072221	0.160782
C42	C	1.031743	0.427779	0.660782
C43	C	0.667570	-0.000047	0.117727
C44	C	1.167570	0.499953	0.617727
C45	C	0.310614	-0.000062	0.111452
C46	C	0.810614	0.499938	0.611452
C47	C	1.046007	-0.218837	0.057683
C48	C	1.546007	0.281163	0.557683
C49	C	1.046012	-0.298085	0.057679
C50	C	1.546012	0.201915	0.557679
C51	C	0.989084	-0.337716	0.114584
C52	C	1.489084	0.162284	0.614584
C53	C	0.932132	-0.298093	0.171483
C54	C	1.432132	0.201907	0.671483
C55	C	0.932124	-0.218847	0.171480
C56	C	1.432124	0.281153	0.671480
N57	N	0.978426	-0.462133	0.188673
N58	N	1.478426	0.037867	0.688673
N59	N	0.978439	-0.537414	0.188673
N60	N	1.478439	-0.037414	0.688673
C61	C	0.989106	-0.576480	0.114596
C62	C	1.489106	-0.076480	0.614596
N63	N	0.999776	-0.537421	0.040516
N64	N	1.499776	-0.037421	0.540516
N65	N	0.999766	-0.462134	0.040517
N66	N	1.499766	0.037866	0.540517
C67	C	0.989087	-0.423645	0.114594
C68	C	1.489087	0.076355	0.614594
C69	C	1.046056	-0.702023	0.057692
C70	C	1.546056	-0.202023	0.557692
C71	C	1.046055	-0.781272	0.057687
C72	C	1.546055	-0.281272	0.557687
C73	C	0.932179	-0.781278	0.171499
C74	C	1.432179	-0.281278	0.671499
C75	C	0.932176	-0.702030	0.171497
C76	C	1.432176	-0.202030	0.671497
C77	C	0.989119	-0.662408	0.114594
C78	C	1.489119	-0.162408	0.614594
C79	C	1.142175	-0.000068	0.108476
C80	C	1.642175	0.499932	0.608476
C81	C	1.235125	-0.000069	0.110127
C82	C	1.735125	0.499931	0.610127
C83	C	0.995205	-0.000060	-0.038494
C84	C	1.495205	0.499940	0.461506
C85	C	0.993553	-0.000056	-0.131444
C86	C	1.493553	0.499944	0.368556
N87	N	0.989125	0.179103	0.114592
N88	N	1.489125	0.679103	0.614592
C89	C	0.987621	-0.000058	-0.469192
C90	C	1.487621	0.499942	0.030808
C91	C	0.896069	0.000230	-0.421758
C92	C	1.396069	0.500230	0.078242
C93	C	0.897721	-0.000054	-0.325068
C94	C	1.397721	0.499946	0.174932
C95	C	0.990564	-0.000056	-0.301631
C96	C	1.490564	0.499944	0.198369
C97	C	1.035707	-0.071951	-0.342713
C98	C	1.535707	0.428049	0.157287
C99	C	1.033408	-0.072011	-0.439349
C100	C	1.533408	0.427989	0.060651
C101	C	1.035324	0.071157	-0.439699
C102	C	1.535324	0.571157	0.060301
C103	C	1.035303	0.072107	-0.342753
C104	C	1.535303	0.572107	0.157247
C105	C	0.992231	-0.000058	-0.206934
C106	C	1.492231	0.499942	0.293066
C107	C	0.985956	-0.000061	-0.563890
C108	C	1.485956	0.499939	-0.063890
C109	C	0.982980	-0.000059	0.267671
C110	C	1.482980	0.499941	0.767671
C111	C	0.984631	-0.000059	0.360621
C112	C	1.484631	0.499941	0.860621
H113	H	0.577856	-0.051588	-0.012281
H114	H	1.077856	0.448412	0.487719
C115	C	0.552513	-0.078097	0.252243
C116	C	1.052513	0.421903	0.752243
N117	N	0.568162	-0.082521	0.321132
N118	N	1.068162	0.417479	0.821132
C119	C	0.550885	0.075454	0.253367
C120	C	1.050885	0.575454	0.753367
N121	N	0.565264	0.078177	0.322771
N122	N	1.065264	0.578177	0.822771
C123	C	0.570136	0.144118	0.118849
C124	C	1.070136	0.644118	0.618849
N125	N	0.599011	0.198559	0.086930
N126	N	1.099011	0.698559	0.586930
H127	H	0.885824	-0.813545	0.217829
H128	H	1.385824	-0.313545	0.717829
H129	H	0.885812	-0.669775	0.217829
H130	H	1.385812	-0.169775	0.717829
H131	H	1.004334	-0.125451	-0.314334
H132	H	1.504334	0.374549	0.185666
C133	C	0.849773	0.069567	-0.286664
C134	C	1.349773	0.569567	0.213336
N135	N	0.813652	0.122006	-0.257742
N136	N	1.313652	0.622006	0.242258
C137	C	0.846639	0.069876	-0.446798
C138	C	1.346639	0.569876	0.053202
N139	N	0.809407	0.122335	-0.465667
N140	N	1.309407	0.622335	0.034333
C141	C	1.127849	-0.075578	-0.323614
C142	C	1.627849	0.424422	0.176386
N143	N	1.197248	-0.078312	-0.309221
N144	N	1.697248	0.421688	0.190779
C145	C	0.568602	-0.144072	0.116220
C146	C	1.068602	0.355928	0.616220
N147	N	0.596363	-0.198189	0.082649
N148	N	1.096363	0.301811	0.582649
H149	H	0.577303	0.051570	-0.012515
H150	H	1.077303	0.551570	0.487485
H151	H	1.103008	0.076446	-0.327391
H152	H	1.603008	0.576446	0.172609
H153	H	1.000470	-0.125751	-0.457653
H154	H	1.500470	0.374249	0.042347
H155	H	1.092382	-0.330344	0.011347
H156	H	1.592382	0.169656	0.511347
H157	H	0.859630	-0.051035	-0.441355
H158	H	1.359630	0.448965	0.058645
C159	C	0.869508	-0.341688	0.234076
C160	C	1.369508	0.158312	0.734076
N161	N	0.822334	-0.374524	0.281219
N162	N	1.322334	0.125476	0.781219
H163	H	0.434215	-0.051898	-0.015033
H164	H	0.934215	0.448102	0.484967
C165	C	0.407051	-0.144892	0.120359
C166	C	0.907051	0.355108	0.620359
N167	N	0.386154	-0.200336	0.089886
N168	N	0.886154	0.299664	0.589886
C169	C	0.410441	0.144488	0.114428
C170	C	0.910441	0.644488	0.614428
N171	N	0.391825	0.199167	0.080912
N172	N	0.891825	0.699167	0.580912
H173	H	1.102825	0.071638	-0.471460
H174	H	1.602825	0.571638	0.028540
H175	H	1.092420	-0.813526	0.011352
H176	H	1.592420	-0.313526	0.511352
H177	H	0.433162	0.050928	-0.014859
H178	H	0.933162	0.550928	0.485141
H179	H	0.402915	0.075155	0.226136
H180	H	0.902915	0.575155	0.726136
H181	H	1.092372	-0.186578	0.011348
H182	H	1.592372	0.313422	0.511348
C183	C	0.391887	-0.071935	0.251993
C184	C	0.891887	0.428065	0.751993
N185	N	0.359561	-0.072427	0.320673
N186	N	0.859561	0.427573	0.820673
H187	H	0.861977	-0.051674	-0.297206
H188	H	1.361977	0.448326	0.202794
H189	H	0.885754	-0.186592	0.217812
H190	H	1.385754	0.313408	0.717812
H191	H	1.092420	-0.669760	0.011357
H192	H	1.592420	-0.169760	0.511357
H193	H	1.100623	-0.075275	-0.471597
H194	H	1.600623	0.424725	0.028403
C195	C	0.994897	0.144773	-0.467439
C196	C	1.494897	0.644773	0.032561
N197	N	0.964437	0.200217	-0.488331
N198	N	1.464437	0.700217	0.011669
C199	C	0.990756	0.143962	-0.305890
C200	C	1.490756	0.643962	0.194110
N201	N	0.957194	0.198081	-0.278127
N202	N	1.457194	0.698081	0.221873
