data_functionalizedCrystal
_audit_creation_method	'MofGen! by Chris Wilmer'
_symmetry_space_group_name_H-M	'P1'
_symmetry_Int_Tables_number	1
_symmetry_cell_setting	triclinic
loop_
_symmetry_equiv_pos_as_xyz
  x,y,z
_cell_length_a	16.793024
_cell_length_b	16.793047
_cell_length_c	33.586455
_cell_angle_alpha	113.253857
_cell_angle_beta	66.219990
_cell_angle_gamma	112.758327
loop_
_atom_site_label
_atom_site_type_symbol
_atom_site_fract_x
_atom_site_fract_y
_atom_site_fract_z
O1	O	0.005016	-0.570216	-0.583573
O2	O	-0.034529	-0.474528	-0.453458
O3	O	0.114723	-0.474535	-0.528082
O4	O	-0.144235	-0.570209	-0.508949
O5	O	0.108729	-0.346329	-0.530229
O6	O	-0.040523	-0.346322	-0.455605
O7	O	-0.000977	-0.442010	-0.585721
Zn8	Zn	-0.021701	-0.373810	-0.521004
Zn9	Zn	-0.013805	-0.542728	-0.518175
O10	O	-0.150229	-0.442003	-0.511097
C11	C	0.005100	-0.790970	-0.238461
C12	C	0.009223	-0.693065	-0.217557
C13	C	0.003804	-0.645758	-0.241627
C14	C	-0.075059	-0.538459	-0.266316
C15	C	0.049838	-0.422849	-0.250165
C16	C	-0.040584	-0.395375	-0.435637
C17	C	-0.044693	-0.353446	-0.386631
C18	C	-0.039275	-0.401741	-0.363054
C19	C	-0.040566	-0.125547	-0.300731
C20	C	-0.044689	-0.223451	-0.321635
C21	C	-0.039266	-0.270752	-0.297563
C22	C	0.039597	-0.378051	-0.272874
C23	C	-0.085304	-0.493667	-0.289026
C24	C	0.005118	-0.521142	-0.103554
C25	C	0.009231	-0.563064	-0.152559
C26	C	0.003809	-0.514775	-0.176138
C27	C	0.010758	-0.652581	-0.172822
C28	C	0.001010	-0.556371	-0.220792
C29	C	-0.008251	-0.506059	-0.245823
C30	C	-0.046224	-0.263935	-0.366370
C31	C	-0.036476	-0.360146	-0.318399
C32	C	-0.027211	-0.410451	-0.293367
C33	C	0.815184	-0.521162	-0.508596
C34	C	0.717729	-0.563083	-0.506815
C35	C	0.669923	-0.514793	-0.509201
C36	C	0.564072	-0.463272	-0.548285
C37	C	0.445555	-0.498966	-0.486078
C38	C	0.415541	-0.125553	-0.528781
C39	C	0.375032	-0.223457	-0.531493
C40	C	0.423813	-0.270761	-0.529101
C41	C	0.149318	-0.395376	-0.530584
C42	C	0.246774	-0.353455	-0.532364
C43	C	0.294574	-0.401748	-0.529976
C44	C	0.400424	-0.453269	-0.490892
C45	C	0.518948	-0.417572	-0.553101
C46	C	0.548961	-0.790984	-0.510398
C47	C	0.589464	-0.693083	-0.507684
C48	C	0.540690	-0.645776	-0.510078
C49	C	0.678399	-0.652598	-0.506649
C50	C	0.581167	-0.556389	-0.510877
C51	C	0.530434	-0.506073	-0.515170
C52	C	0.286104	-0.263940	-0.532530
C53	C	0.383336	-0.360149	-0.528302
C54	C	0.434062	-0.410467	-0.524008
C55	C	-0.040530	-0.395407	-0.935652
C56	C	-0.044651	-0.353482	-0.886645
C57	C	-0.039242	-0.401770	-0.863061
C58	C	0.039602	-0.453292	-0.810474
C59	C	-0.085288	-0.417587	-0.750981
C60	C	0.005063	-0.791004	-0.738448
C61	C	0.009186	-0.693099	-0.717543
C62	C	0.003779	-0.645796	-0.741620
C63	C	0.005077	-0.521171	-0.603544
C64	C	0.009198	-0.563096	-0.652550
C65	C	0.003786	-0.514804	-0.676131
C66	C	-0.075058	-0.463283	-0.728717
C67	C	0.049835	-0.498991	-0.788214
C68	C	-0.040516	-0.125574	-0.800747
C69	C	-0.044642	-0.223476	-0.821649
C70	C	-0.039232	-0.270782	-0.797575
C71	C	-0.046172	-0.263965	-0.866386
C72	C	-0.036447	-0.360171	-0.818406
C73	C	-0.027197	-0.410486	-0.793373
C74	C	0.010719	-0.652613	-0.672809
C75	C	0.000994	-0.556406	-0.720789
C76	C	-0.008259	-0.506089	-0.745819
O77	O	-0.000965	0.173549	-0.277957
O78	O	-0.040516	-0.085616	-0.325254
O79	O	0.108737	0.059592	-0.327284
O80	O	-0.150219	0.028341	-0.275927
O81	O	0.114753	0.055151	-0.263265
O82	O	-0.034500	-0.090057	-0.261234
O83	O	0.005051	0.169108	-0.213937
Zn84	Zn	-0.013769	0.038820	-0.227421
Zn85	Zn	-0.021696	0.044672	-0.311770
O86	O	-0.144202	0.023900	-0.211907
O87	O	-0.034458	-0.474571	0.046517
O88	O	0.005076	-0.570190	-0.083599
O89	O	-0.144170	-0.570237	-0.008972
O90	O	0.114787	-0.474523	-0.028110
O91	O	-0.150200	-0.442024	-0.011093
O92	O	-0.000954	-0.441976	-0.085720
O93	O	-0.040488	-0.346357	0.044396
Zn94	Zn	-0.021679	-0.373810	-0.020999
Zn95	Zn	-0.013734	-0.542737	-0.018204
O96	O	0.108757	-0.346309	-0.030231
C97	C	-0.850734	0.086244	-0.289716
C98	C	-0.753280	0.087165	-0.312001
C99	C	-0.705462	0.081107	-0.288506
C100	C	-0.599592	0.000085	-0.264184
C101	C	-0.481080	0.121287	-0.283645
C102	C	-0.450996	0.035117	-0.097351
C103	C	-0.410501	0.028587	-0.146852
C104	C	-0.459292	0.034683	-0.169840
C105	C	-0.184802	0.024283	-0.235878
C106	C	-0.282257	0.023363	-0.213592
C107	C	-0.330068	0.029423	-0.237088
C108	C	-0.435938	0.110445	-0.261411
C109	C	-0.554456	-0.010759	-0.241948
C110	C	-0.584541	0.075410	-0.428242
C111	C	-0.625029	0.081943	-0.378743
C112	C	-0.576244	0.075844	-0.355753
C113	C	-0.713963	0.086424	-0.357292
C114	C	-0.616708	0.075351	-0.310510
C115	C	-0.565963	0.065400	-0.286043
C116	C	-0.321573	0.024104	-0.168302
C117	C	-0.418828	0.035176	-0.215083
C118	C	-0.469568	0.045131	-0.239552
O119	O	0.585213	0.169090	-0.504004
O120	O	0.494056	-0.090076	-0.525516
O121	O	0.488081	0.055124	-0.449918
O122	O	0.591189	0.023889	-0.579602
O123	O	0.359978	0.059584	-0.452885
O124	O	0.365953	-0.085616	-0.528483
O125	O	0.457110	0.173550	-0.506971
Zn126	Zn	0.391193	0.044675	-0.518198
Zn127	Zn	0.559974	0.038798	-0.514289
O128	O	0.463086	0.028349	-0.582569
C129	C	0.815354	-0.521094	-0.008709
C130	C	0.717898	-0.563028	-0.006927
C131	C	0.670072	-0.514739	-0.009298
C132	C	0.564182	-0.463204	-0.048354
C133	C	0.445681	-0.498945	0.013847
C134	C	0.415547	-0.125494	-0.028771
C135	C	0.375059	-0.223405	-0.031498
C136	C	0.423859	-0.270708	-0.029121
C137	C	0.149365	-0.395355	-0.030599
C138	C	0.246820	-0.353421	-0.032381
C139	C	0.294640	-0.401713	-0.030008
C140	C	0.400530	-0.453248	0.009048
C141	C	0.519038	-0.417504	-0.053155
C142	C	0.549171	-0.790955	-0.010537
C143	C	0.589653	-0.693047	-0.007809
C144	C	0.540859	-0.645741	-0.010187
C145	C	0.678588	-0.652551	-0.006775
C146	C	0.581317	-0.556344	-0.010973
C147	C	0.530562	-0.506029	-0.015250
C148	C	0.286131	-0.263897	-0.032533
C149	C	0.383402	-0.360104	-0.028335
C150	C	0.434150	-0.410423	-0.024057
O151	O	-0.620614	0.089309	0.052274
O152	O	-0.529507	0.043784	-0.078544
O153	O	-0.523494	0.194833	-0.006033
O154	O	-0.626628	-0.061740	-0.020236
O155	O	-0.395386	0.185419	-0.005549
O156	O	-0.401400	0.034370	-0.078059
O157	O	-0.492507	0.079895	0.052758
Zn158	Zn	-0.426614	0.055638	-0.012574
Zn159	Zn	-0.595401	0.068041	-0.013212
O160	O	-0.498521	-0.071154	-0.019752
C161	C	-0.437537	0.048335	0.402491
C162	C	-0.397043	0.041789	0.352989
C163	C	-0.445822	0.047883	0.329994
C164	C	-0.496646	0.126653	0.277022
C165	C	-0.465894	-0.000633	0.218811
C166	C	-0.837226	0.099430	0.210091
C167	C	-0.739773	0.100339	0.187806
C168	C	-0.691967	0.094287	0.211308
C169	C	-0.571027	0.088563	0.071568
C170	C	-0.611521	0.095108	0.121070
C171	C	-0.562739	0.089011	0.144061
C172	C	-0.511915	0.010241	0.197033
C173	C	-0.542670	0.137531	0.255247
C174	C	-0.171338	0.037467	0.263967
C175	C	-0.268788	0.036555	0.286249
C176	C	-0.316597	0.042611	0.262750
C177	C	-0.308112	0.037305	0.331542
C178	C	-0.405351	0.048369	0.284750
C179	C	-0.456092	0.058317	0.260279
C180	C	-0.700452	0.099593	0.142516
C181	C	-0.603213	0.088528	0.189308
C182	C	-0.552469	0.078578	0.213776
O183	O	-0.040608	-1.085661	-0.825229
O184	O	-0.001018	-0.826491	-0.777938
O185	O	-0.150287	-0.971682	-0.775894
O186	O	0.108661	-0.940470	-0.827272
O187	O	-0.144253	-0.976123	-0.711878
O188	O	0.005016	-0.830932	-0.713922
O189	O	-0.034575	-1.090102	-0.761213
Zn190	Zn	-0.013821	-0.961222	-0.727403
Zn191	Zn	-0.021771	-0.955371	-0.811747
O192	O	0.114695	-0.944911	-0.763256
O193	O	-0.036862	-0.230384	-0.253947
C194	C	-0.115987	-0.202041	-0.227222
H195	H	-0.171766	-0.243574	-0.244184
H196	H	-0.138525	-0.211820	-0.192195
H197	H	-0.101653	-0.127812	-0.223676
H198	H	0.550886	-0.383867	-0.081621
H199	H	-0.449229	0.177371	-0.300885
H200	H	0.468233	-0.679598	-0.011487
H201	H	0.088099	-0.448874	-0.845454
O202	O	0.001348	-0.427508	-0.655981
C203	C	0.075943	-0.372277	-0.680674
H204	H	0.100946	-0.414201	-0.717034
H205	H	0.054664	-0.315655	-0.680816
H206	H	0.132537	-0.342312	-0.664142
O207	O	0.001098	-0.686117	-0.785195
C208	C	-0.079805	-0.685597	-0.788458
H209	H	-0.106635	-0.629158	-0.759386
H210	H	-0.066120	-0.674230	-0.822189
H211	H	-0.132077	-0.752980	-0.786438
O212	O	-0.731176	0.093847	0.255453
C213	C	-0.732725	0.013103	0.259831
H214	H	-0.677793	-0.015990	0.230372
H215	H	-0.720068	0.027346	0.293201
H216	H	-0.801565	-0.037335	0.259462
H217	H	0.702857	-0.441654	-0.509785
O218	O	0.647614	-0.468433	-0.577272
C219	C	0.672353	-0.421453	-0.609051
H220	H	0.632560	-0.369414	-0.594414
H221	H	0.747785	-0.386021	-0.616839
H222	H	0.656719	-0.470933	-0.641597
H223	H	-0.142704	-0.524425	-0.305055
H224	H	-0.037089	-0.236932	-0.761035
O225	O	0.001369	-0.686192	-0.285236
C226	C	0.080518	-0.714488	-0.311964
H227	H	0.110377	-0.723022	-0.289320
H228	H	0.063322	-0.781478	-0.338282
H229	H	0.131857	-0.661849	-0.329902
H230	H	0.013390	-0.692483	-0.152899
O231	O	-0.036843	-0.489026	-0.383301
C232	C	-0.115995	-0.540347	-0.396374
H233	H	-0.145862	-0.494256	-0.400236
H234	H	-0.098800	-0.593451	-0.430101
H235	H	-0.167328	-0.574834	-0.369359
H236	H	0.550810	-0.383955	-0.581575
O237	O	-0.153837	-0.377594	-0.731769
C238	C	-0.210212	-0.414196	-0.760018
H239	H	-0.202445	-0.483884	-0.782617
H240	H	-0.283562	-0.419830	-0.738212
H241	H	-0.190218	-0.368472	-0.782066
H242	H	-0.048809	-0.224052	-0.886301
O243	O	-0.748488	0.103507	0.119332
C244	C	-0.704803	0.180874	0.103790
H245	H	-0.630161	0.202952	0.101490
H246	H	-0.711697	0.164814	0.068838
H247	H	-0.737224	0.237417	0.128472
O248	O	0.454090	-0.686276	-0.511684
C249	C	0.452376	-0.761411	-0.550357
H250	H	0.514897	-0.785562	-0.561503
H251	H	0.389077	-0.817865	-0.541849
H252	H	0.451766	-0.741563	-0.578990
O253	O	0.097326	-0.296086	-0.276240
C254	C	0.048264	-0.231196	-0.256263
H255	H	-0.018067	-0.255765	-0.230738
H256	H	0.089779	-0.165004	-0.238171
H257	H	0.033407	-0.220348	-0.283727
H258	H	-0.123560	-0.607102	-0.263443
O259	O	0.510404	-0.230313	-0.527475
C260	C	0.512131	-0.155151	-0.488814
H261	H	0.442856	-0.163942	-0.462427
H262	H	0.565070	-0.149228	-0.473953
H263	H	0.529864	-0.091508	-0.498800
H264	H	0.107227	-0.532615	-0.804368
H265	H	0.245727	-0.224039	-0.533582
H266	H	0.013347	-0.692513	-0.652885
H267	H	-0.518563	-0.039000	0.162804
H268	H	0.496488	-0.236853	-0.027824
H269	H	0.261721	-0.474856	-0.029430
H270	H	-0.490116	0.084434	0.126151
O271	O	-0.489647	0.070282	-0.377182
C272	C	-0.487950	-0.007119	-0.414769
H273	H	-0.550481	-0.027719	-0.425990
H274	H	-0.424661	0.008174	-0.443858
H275	H	-0.487334	-0.064398	-0.404853
H276	H	-0.434254	-0.059305	0.203012
H277	H	0.718963	-0.692464	-0.005731
O278	O	-0.036811	-0.489055	-0.883311
C279	C	-0.115958	-0.540367	-0.896390
H280	H	-0.145815	-0.494268	-0.900252
H281	H	-0.098759	-0.593467	-0.930118
H282	H	-0.167300	-0.574859	-0.869378
O283	O	-0.290821	0.029578	-0.281271
C284	C	-0.265315	-0.050930	-0.307266
H285	H	-0.307875	-0.105068	-0.288962
H286	H	-0.276655	-0.074108	-0.341830
H287	H	-0.190794	-0.038714	-0.312025
H288	H	0.245737	-0.223998	-0.033572
H289	H	0.330510	-0.448858	0.033327
H290	H	-0.048864	-0.224020	-0.386283
H291	H	-0.365918	0.157102	-0.260160
O292	O	-0.273451	0.020427	-0.145088
C293	C	-0.267497	0.098071	-0.107826
H294	H	-0.325574	0.127734	-0.098272
H295	H	-0.271722	0.079376	-0.077746
H296	H	-0.200382	0.149887	-0.117327
O297	O	0.647726	-0.468341	-0.077346
C298	C	0.672445	-0.421340	-0.109113
H299	H	0.632638	-0.369310	-0.094464
H300	H	0.747874	-0.385894	-0.116900
H301	H	0.656812	-0.470806	-0.141661
H302	H	-0.754334	0.089615	-0.376700
H303	H	0.107243	-0.392097	-0.234140
O304	O	-0.744826	0.080623	-0.244372
C305	C	-0.821987	0.006453	-0.240933
H306	H	-0.815525	-0.047521	-0.275000
H307	H	-0.828002	-0.022307	-0.213939
H308	H	-0.884827	0.029211	-0.231080
H309	H	0.330406	-0.448859	-0.466617
H310	H	-0.283673	0.042875	0.225734
O311	O	-0.259894	0.033383	0.354633
C312	C	-0.232717	-0.046877	0.333300
H313	H	-0.231794	-0.072039	0.296278
H314	H	-0.162137	-0.033416	0.335112
H315	H	-0.282241	-0.100074	0.351260
H316	H	-0.669612	-0.046576	-0.265443
H317	H	0.413839	-0.532573	0.042316
H318	H	-0.518447	0.052455	0.347905
O319	O	-0.133014	-0.468493	-0.687000
C320	C	-0.197159	-0.421464	-0.674313
H321	H	-0.202797	-0.416851	-0.705999
H322	H	-0.265704	-0.458748	-0.654969
H323	H	-0.174845	-0.350766	-0.651713
H324	H	0.413699	-0.532573	-0.457601
H325	H	-0.586315	-0.066836	-0.224702
O326	O	0.255159	-0.488956	-0.529215
C327	C	0.178029	-0.493723	-0.491070
H328	H	0.152467	-0.432117	-0.479678
H329	H	0.122897	-0.557293	-0.500371
H330	H	0.196354	-0.495615	-0.462318
O331	O	-0.488814	0.185455	0.317864
C332	C	-0.533736	0.251172	0.330280
H333	H	-0.587065	0.223518	0.311842
H334	H	-0.567719	0.269163	0.368475
H335	H	-0.482749	0.313976	0.320563
H336	H	-0.531920	0.039247	-0.151930
O337	O	0.726434	-0.700245	-0.505321
C338	C	0.682737	-0.730102	-0.466033
H339	H	0.608094	-0.732694	-0.453998
H340	H	0.689637	-0.800179	-0.474133
H341	H	0.715143	-0.681579	-0.438201
H342	H	0.702991	-0.441593	-0.009870
O343	O	-0.580570	0.207418	0.274116
C344	C	-0.674756	0.173789	0.281267
H345	H	-0.697844	0.101870	0.283471
H346	H	-0.710717	0.217863	0.314277
H347	H	-0.691869	0.174438	0.251838
O348	O	0.001421	-0.427474	-0.155928
C349	C	0.080557	-0.376168	-0.142837
H350	H	0.136327	-0.411615	-0.164359
H351	H	0.103101	-0.306728	-0.148039
H352	H	0.066236	-0.368673	-0.105528
