data_functionalizedCrystal
_audit_creation_method	'MofGen! by Chris Wilmer'
_symmetry_space_group_name_H-M	'P1'
_symmetry_Int_Tables_number	1
_symmetry_cell_setting	triclinic
loop_
_symmetry_equiv_pos_as_xyz
  x,y,z
_cell_length_a	18.050591
_cell_length_b	14.908520
_cell_length_c	18.050583
_cell_angle_alpha	86.735202
_cell_angle_beta	89.975765
_cell_angle_gamma	86.682923
loop_
_atom_site_label
_atom_site_type_symbol
_atom_site_fract_x
_atom_site_fract_y
_atom_site_fract_z
Zn1	Zn	1.118282	0.359222	-0.437089
Zn2	Zn	1.451615	0.692555	-0.103755
Zn3	Zn	1.784949	1.025889	0.229578
Zn4	Zn	1.111031	0.510102	-0.320063
Zn5	Zn	1.444364	0.843435	0.013271
Zn6	Zn	1.777697	1.176768	0.346604
Zn7	Zn	0.994093	0.359252	-0.312901
Zn8	Zn	1.327426	0.692585	0.020432
Zn9	Zn	1.660759	1.025918	0.353766
Zn10	Zn	0.986898	0.510028	-0.444195
Zn11	Zn	1.320231	0.843361	-0.110862
Zn12	Zn	1.653564	1.176694	0.222472
O13	O	1.052576	0.434651	-0.378562
O14	O	1.385909	0.767984	-0.045228
O15	O	1.719242	1.101317	0.288105
O16	O	1.221244	0.379255	-0.421588
O17	O	1.554577	0.712588	-0.088255
O18	O	1.887910	1.045922	0.245079
O19	O	1.095495	0.490134	-0.215190
O20	O	1.428828	0.823468	0.118143
O21	O	1.762162	1.156801	0.451476
O22	O	1.016612	0.233004	-0.323404
O23	O	1.349946	0.566337	0.009930
O24	O	1.683279	0.899670	0.343263
O25	O	1.215916	0.490105	-0.335610
O26	O	1.549250	0.823439	-0.002276
O27	O	1.882583	1.156772	0.331057
O28	O	1.107854	0.232982	-0.414644
O29	O	1.441187	0.566315	-0.081310
O30	O	1.774520	0.899649	0.252023
O31	O	1.009581	0.379305	-0.209928
O32	O	1.342914	0.712639	0.123405
O33	O	1.676248	1.045972	0.456738
O34	O	0.889215	0.379234	-0.330294
O35	O	1.222548	0.712567	0.003039
O36	O	1.555881	1.045901	0.336372
O37	O	1.004350	0.489980	-0.547175
O38	O	1.337683	0.823313	-0.213841
O39	O	1.671017	1.156647	0.119492
O40	O	0.883928	0.490009	-0.426755
O41	O	1.217262	0.823342	-0.093422
O42	O	1.550595	1.156675	0.239911
O43	O	1.100877	0.379183	-0.541954
O44	O	1.434211	0.712517	-0.208620
O45	O	1.767544	1.045850	0.124713
O46	O	1.088518	0.636336	-0.342500
O47	O	1.421852	0.969669	-0.009167
O48	O	1.755185	1.303002	0.324166
O49	O	0.997318	0.636282	-0.433700
O50	O	1.330652	0.969615	-0.100366
O51	O	1.663985	1.302948	0.232967
C52	C	1.041371	0.669042	-0.389665
C53	C	1.374704	1.002376	-0.056331
C54	C	1.708038	1.335709	0.277002
C55	C	1.036645	0.769316	-0.394439
C56	C	1.369979	1.102649	-0.061106
C57	C	1.703312	1.435983	0.272228
C58	C	0.859625	0.434617	-0.378519
C59	C	1.192959	0.767951	-0.045186
C60	C	1.526292	1.101284	0.288147
C61	C	0.777079	0.434625	-0.378520
C62	C	1.110412	0.767958	-0.045186
C63	C	1.443746	1.101291	0.288147
C64	C	1.052620	0.434570	-0.572264
C65	C	1.385953	0.767903	-0.238930
C66	C	1.719287	1.101237	0.094403
C67	C	1.052639	0.434536	-0.654808
C68	C	1.385972	0.767869	-0.321475
C69	C	1.719305	1.101202	0.011859
C70	C	0.580485	0.374315	-0.326175
C71	C	0.913818	0.707649	0.007158
C72	C	1.247151	1.040982	0.340492
C73	C	0.527162	0.456602	-0.311806
C74	C	0.860495	0.789936	0.021527
C75	C	1.193829	1.123269	0.354860
C76	C	0.625947	0.434652	-0.378554
C77	C	0.959281	0.767985	-0.045221
C78	C	1.292614	1.101319	0.288112
C79	C	0.532187	0.352393	-0.392923
C80	C	0.865521	0.685727	-0.059589
C81	C	1.198854	1.019060	0.273744
C82	C	0.479961	0.434671	-0.378586
C83	C	0.813295	0.768004	-0.045253
C84	C	1.146628	1.101338	0.288080
C85	C	0.573710	0.516982	-0.364152
C86	C	0.907043	0.850315	-0.030819
C87	C	1.240376	1.183649	0.302514
C88	C	0.578742	0.412718	-0.445298
C89	C	0.912075	0.746051	-0.111964
C90	C	1.245409	1.079384	0.221369
C91	C	0.525439	0.495062	-0.430957
C92	C	0.858772	0.828395	-0.097624
C93	C	1.192105	1.161728	0.235709
C94	C	0.710046	0.434640	-0.378534
C95	C	1.043380	0.767973	-0.045201
C96	C	1.376713	1.101306	0.288133
C97	C	0.395864	0.434693	-0.378607
C98	C	0.729197	0.768026	-0.045274
C99	C	1.062531	1.101359	0.288059
C100	C	1.246280	0.434685	-0.378605
C101	C	1.579613	0.768018	-0.045272
C102	C	1.912946	1.101352	0.288062
C103	C	1.328825	0.434700	-0.378624
C104	C	1.662158	0.768033	-0.045290
C105	C	1.995491	1.101366	0.288043
C106	C	1.063845	0.199344	-0.367432
C107	C	1.397178	0.532677	-0.034099
C108	C	1.730511	0.866011	0.299235
C109	C	1.068647	0.099070	-0.362689
C110	C	1.401980	0.432404	-0.029356
C111	C	1.735313	0.765737	0.303977
C112	C	1.122830	0.957736	-0.308522
C113	C	1.456163	1.291069	0.024811
C114	C	1.789496	1.624403	0.358145
C115	C	1.118392	1.051952	-0.313006
C116	C	1.451725	1.385285	0.020328
C117	C	1.785059	1.718619	0.353661
C118	C	1.023337	1.051966	-0.407894
C119	C	1.356670	1.385299	-0.074560
C120	C	1.690004	1.718632	0.258773
C121	C	1.027775	0.957750	-0.403410
C122	C	1.361108	1.291083	-0.070077
C123	C	1.694441	1.624416	0.263257
C124	C	1.077522	0.910638	-0.353722
C125	C	1.410855	1.243972	-0.020388
C126	C	1.744188	1.577305	0.312945
C127	C	1.081955	0.816420	-0.349235
C128	C	1.415288	1.149754	-0.015901
C129	C	1.748622	1.483087	0.317432
C130	C	0.986904	0.816436	-0.444126
C131	C	1.320237	1.149769	-0.110792
C132	C	1.653571	1.483102	0.222541
C133	C	0.982467	0.910652	-0.448610
C134	C	1.315800	1.243985	-0.115276
C135	C	1.649133	1.577318	0.218057
C136	C	1.105180	0.374224	-0.900792
C137	C	1.438513	0.707557	-0.567458
C138	C	1.771846	1.040890	-0.234125
C139	C	1.119398	0.456542	-0.855288
C140	C	1.452731	0.789875	-0.521955
C141	C	1.786064	1.123209	-0.188622
C142	C	1.052689	0.434478	-0.951926
C143	C	1.386023	0.767812	-0.618592
C144	C	1.719356	1.101145	-0.285259
C145	C	1.038481	0.352194	-0.850349
C146	C	1.371814	0.685527	-0.517016
C147	C	1.705148	1.018860	-0.183682
C148	C	1.052666	0.434502	-0.805942
C149	C	1.386000	0.767836	-0.472608
C150	C	1.719333	1.101169	-0.139275
C151	C	1.066941	0.516840	-0.907512
C152	C	1.400274	0.850173	-0.574178
C153	C	1.733607	1.183506	-0.240845
C154	C	0.985995	0.412436	-0.902574
C155	C	1.319328	0.745769	-0.569241
C156	C	1.652662	1.079103	-0.235907
C157	C	1.000185	0.494811	-0.857096
C158	C	1.333518	0.828144	-0.523762
C159	C	1.666851	1.161477	-0.190429
C160	C	1.052704	0.434463	-1.036023
C161	C	1.386038	0.767797	-0.702690
C162	C	1.719371	1.101130	-0.369357
C163	C	1.052651	0.434526	-0.721846
C164	C	1.385984	0.767860	-0.388513
C165	C	1.719317	1.101193	-0.055180
C166	C	1.052578	0.434666	-0.185610
C167	C	1.385911	0.767999	0.147723
C168	C	1.719244	1.101333	0.481056
C169	C	1.052715	0.434446	-0.103055
C170	C	1.386048	0.767780	0.230279
C171	C	1.719381	1.101113	0.563612
H172	H	0.604557	0.323346	-0.281837
H173	H	0.937890	0.656679	0.051497
H174	H	1.271224	0.990012	0.384830
H175	H	1.122460	0.778063	-0.308774
H176	H	1.455793	1.111396	0.024559
H177	H	1.789126	1.444730	0.357893
H178	H	1.163331	0.919377	-0.268059
H179	H	1.496664	1.252711	0.065275
H180	H	1.829997	1.586044	0.398608
Br181	Br	1.087065	0.632874	-0.948992
Br182	Br	1.420399	0.966208	-0.615658
Br183	Br	1.753732	1.299541	-0.282325
H184	H	0.504540	0.475169	-0.255377
H185	H	0.837874	0.808502	0.077957
H186	H	1.171207	1.141836	0.411290
Br187	Br	1.179888	1.115869	-0.251665
Br188	Br	1.513221	1.449202	0.081669
Br189	Br	1.846554	1.782536	0.415002
H190	H	0.955783	0.545835	-0.837956
H191	H	1.289116	0.879169	-0.504623
H192	H	1.622450	1.212502	-0.171290
Br193	Br	1.018466	0.236197	-0.808708
Br194	Br	1.351800	0.569530	-0.475374
Br195	Br	1.685133	0.902863	-0.142041
Br196	Br	0.501562	0.236438	-0.413154
Br197	Br	0.834896	0.569771	-0.079821
Br198	Br	1.168229	0.903104	0.253512
Br199	Br	1.213386	0.487648	-0.820613
Br200	Br	1.546720	0.820982	-0.487280
Br201	Br	1.880053	1.154315	-0.153947
H202	H	0.591987	0.586576	-0.351950
H203	H	0.925320	0.919909	-0.018617
H204	H	1.258654	1.253242	0.314717
Br205	Br	0.485531	0.580212	-0.504816
Br206	Br	0.818865	0.913545	-0.171483
Br207	Br	1.152198	1.246879	0.161851
Br208	Br	0.914960	0.974597	-0.516044
Br209	Br	1.248294	1.307930	-0.182711
Br210	Br	1.581627	1.641263	0.150622
H211	H	0.929621	0.393751	-0.923395
H212	H	1.262955	0.727085	-0.590062
H213	H	1.596288	1.060418	-0.256728
Br214	Br	0.955841	1.115918	-0.475335
Br215	Br	1.289174	1.449251	-0.142001
Br216	Br	1.622508	1.782585	0.191332
H217	H	1.149608	0.323322	-0.920073
H218	H	1.482941	0.656655	-0.586740
H219	H	1.816274	0.989989	-0.253407
Br220	Br	0.616476	0.381734	-0.539324
Br221	Br	0.949809	0.715068	-0.205991
Br222	Br	1.283143	1.048401	0.127343
H223	H	0.950009	0.778078	-0.480928
H224	H	1.283342	1.111411	-0.147595
H225	H	1.616676	1.444745	0.185738
