data_functionalizedCrystal
_audit_creation_method	'MofGen! by Chris Wilmer'
_symmetry_space_group_name_H-M	'P1'
_symmetry_Int_Tables_number	1
_symmetry_cell_setting	triclinic
loop_
_symmetry_equiv_pos_as_xyz
  x,y,z
_cell_length_a	8.559649
_cell_length_b	8.597304
_cell_length_c	15.186229
_cell_angle_alpha	82.296375
_cell_angle_beta	89.996971
_cell_angle_gamma	77.624695
loop_
_atom_site_label
_atom_site_type_symbol
_atom_site_fract_x
_atom_site_fract_y
_atom_site_fract_z
O1	O	2.119295	-0.053144	-0.069183
O2	O	2.619295	0.446856	0.430817
O3	O	1.655355	0.027756	-0.075324
O4	O	2.155355	0.527756	0.424676
O5	O	1.896455	-0.242261	-0.054834
O6	O	2.396455	0.257739	0.445166
O7	O	1.878195	0.216873	-0.089672
O8	O	2.378195	0.716873	0.410328
O9	O	1.896439	-0.242263	0.091623
O10	O	2.396439	0.257737	0.591623
O11	O	1.655339	0.027755	0.071133
O12	O	2.155339	0.527755	0.571133
O13	O	2.119279	-0.053146	0.077275
O14	O	2.619279	0.446854	0.577275
Zn15	Zn	1.887306	-0.012696	0.097457
Zn16	Zn	2.387306	0.487304	0.597457
Zn17	Zn	1.887328	-0.012694	-0.095507
Zn18	Zn	2.387328	0.487306	0.404493
O19	O	1.878179	0.216872	0.056785
O20	O	2.378179	0.716872	0.556785
C21	C	1.595913	0.033886	-0.002561
C22	C	2.095913	0.533886	0.497439
C23	C	1.418818	0.052135	-0.003947
C24	C	1.918818	0.552135	0.496053
C25	C	1.894486	-0.300497	0.022811
C26	C	2.394486	0.199503	0.522811
C27	C	1.888622	-0.474017	0.035972
C28	C	2.388622	0.025983	0.535972
C29	C	2.178721	-0.059276	0.004510
C30	C	2.678721	0.440724	0.504510
C31	C	2.355816	-0.077525	0.005890
C32	C	2.855816	0.422475	0.505890
C33	C	1.880149	0.275108	-0.020863
C34	C	2.380149	0.775108	0.479137
C35	C	1.886012	0.448628	-0.034029
C36	C	2.386012	0.948628	0.465971
N37	N	1.887303	-0.012700	0.229150
N38	N	2.387303	0.487300	0.729150
N39	N	1.887343	-0.012704	-0.227198
N40	N	2.387343	0.487296	0.272802
C41	C	1.994100	-0.132232	0.463944
C42	C	2.494100	0.367768	0.963944
C43	C	1.994105	-0.132236	0.556134
C44	C	2.494105	0.367764	1.056134
C45	C	1.780536	0.106835	0.538001
C46	C	2.280536	0.606835	1.038001
C47	C	1.780524	0.106831	0.445814
C48	C	2.280524	0.606831	0.945814
C49	C	1.887315	-0.012702	0.408787
C50	C	2.387315	0.487298	0.908787
C51	C	1.887332	-0.012702	0.593165
C52	C	2.387332	0.487298	1.093165
C53	C	1.887336	-0.012706	0.693121
C54	C	2.387336	0.487294	1.193121
C55	C	1.887309	-0.012700	0.308824
C56	C	2.387309	0.487300	0.808824
H57	H	1.888258	-0.484850	-0.104034
H58	H	2.388258	0.015150	0.395966
N59	N	1.665339	0.235769	0.386323
N60	N	2.165339	0.735769	0.886323
H61	H	1.727356	0.297814	0.343358
H62	H	2.227356	0.797814	0.843358
H63	H	1.593813	0.184259	0.352043
H64	H	2.093813	0.684259	0.852043
H65	H	2.081056	-0.229570	0.601041
H66	H	2.581056	0.270430	1.101041
N67	N	1.463810	-0.243072	0.018461
N68	N	1.963810	0.256928	0.518461
H69	H	1.442281	-0.303528	-0.031243
H70	H	1.942281	0.196472	0.468757
H71	H	1.579212	-0.232954	0.017729
H72	H	2.079212	0.267046	0.517729
H73	H	1.337265	0.177113	-0.013435
H74	H	1.837265	0.677113	0.486565
N75	N	1.665368	0.235750	0.577945
N76	N	2.165368	0.735750	1.077945
H77	H	1.727400	0.297800	0.611477
H78	H	2.227400	0.797800	1.111477
H79	H	1.597738	0.311363	0.528968
H80	H	2.097738	0.811363	1.028968
H81	H	1.886353	-0.540542	0.105981
H82	H	2.386353	-0.040542	0.605981
H83	H	2.081053	-0.229564	0.433800
H84	H	2.581053	0.270436	0.933800
