data_functionalizedCrystal
_audit_creation_method	'MofGen! by Chris Wilmer'
_symmetry_space_group_name_H-M	'P1'
_symmetry_Int_Tables_number	1
_symmetry_cell_setting	triclinic
loop_
_symmetry_equiv_pos_as_xyz
  x,y,z
_cell_length_a	16.959455
_cell_length_b	19.121063
_cell_length_c	16.959447
_cell_angle_alpha	92.406624
_cell_angle_beta	89.983277
_cell_angle_gamma	92.467995
loop_
_atom_site_label
_atom_site_type_symbol
_atom_site_fract_x
_atom_site_fract_y
_atom_site_fract_z
Zn1	Zn	1.194917	-0.279619	-0.460360
Zn2	Zn	1.528250	0.053714	-0.127027
Zn3	Zn	1.861583	0.387048	0.206307
Zn4	Zn	1.189182	-0.397080	-0.333811
Zn5	Zn	1.522515	-0.063747	-0.000477
Zn6	Zn	1.855849	0.269587	0.332856
Zn7	Zn	1.062744	-0.279645	-0.328193
Zn8	Zn	1.396077	0.053688	0.005140
Zn9	Zn	1.729411	0.387021	0.338473
Zn10	Zn	1.057055	-0.397032	-0.465941
Zn11	Zn	1.390388	-0.063698	-0.132608
Zn12	Zn	1.723722	0.269635	0.200725
O13	O	1.125974	-0.338344	-0.397076
O14	O	1.459308	-0.005011	-0.063743
O15	O	1.792641	0.328323	0.269590
O16	O	1.304766	-0.295210	-0.443588
O17	O	1.638100	0.038123	-0.110255
O18	O	1.971433	0.371457	0.223079
O19	O	1.172391	-0.381533	-0.222456
O20	O	1.505724	-0.048200	0.110877
O21	O	1.839057	0.285134	0.444211
O22	O	1.085058	-0.181357	-0.341039
O23	O	1.418391	0.151976	-0.007705
O24	O	1.751724	0.485309	0.325628
O25	O	1.300553	-0.381508	-0.350613
O26	O	1.633887	-0.048174	-0.017280
O27	O	1.967220	0.285159	0.316054
O28	O	1.182165	-0.181338	-0.438141
O29	O	1.515498	0.151995	-0.104808
O30	O	1.848831	0.485328	0.228526
O31	O	1.079497	-0.295254	-0.218329
O32	O	1.412830	0.038079	0.115004
O33	O	1.746164	0.371412	0.448338
O34	O	0.951379	-0.295207	-0.346451
O35	O	1.284712	0.038126	-0.013117
O36	O	1.618046	0.371459	0.320216
O37	O	1.075362	-0.381425	-0.575811
O38	O	1.408695	-0.048092	-0.242477
O39	O	1.742028	0.285241	0.090856
O40	O	0.947199	-0.381451	-0.447654
O41	O	1.280533	-0.048117	-0.114320
O42	O	1.613866	0.285216	0.219013
O43	O	1.176648	-0.295163	-0.571710
O44	O	1.509982	0.038170	-0.238377
O45	O	1.843315	0.371504	0.094957
O46	O	1.166874	-0.495358	-0.356025
O47	O	1.500208	-0.162025	-0.022692
O48	O	1.833541	0.171309	0.310642
O49	O	1.069801	-0.495322	-0.453101
O50	O	1.403134	-0.161989	-0.119768
O51	O	1.736468	0.171344	0.213566
C52	C	0.920609	-0.338327	-0.397049
C53	C	1.253942	-0.004994	-0.063715
C54	C	1.587276	0.328340	0.269618
C55	C	0.832752	-0.338337	-0.397057
C56	C	1.166085	-0.005004	-0.063723
C57	C	1.499419	0.328330	0.269610
C58	C	0.793634	-0.293370	-0.344443
C59	C	1.126967	0.039963	-0.011109
C60	C	1.460300	0.373297	0.322224
C61	C	0.789316	-0.383309	-0.449682
C62	C	1.122650	-0.049976	-0.116349
C63	C	1.455983	0.283358	0.216984
C64	C	0.706770	-0.383317	-0.449694
C65	C	1.040103	-0.049984	-0.116361
C66	C	1.373437	0.283349	0.216972
C67	C	0.667652	-0.338350	-0.397081
C68	C	1.000985	-0.005017	-0.063747
C69	C	1.334319	0.328316	0.269586
C70	C	0.711080	-0.293375	-0.344455
C71	C	1.044413	0.039958	-0.011121
C72	C	1.377747	0.373292	0.322212
C73	C	0.663336	-0.428286	-0.502325
C74	C	0.996669	-0.094953	-0.168991
C75	C	1.330003	0.238380	0.164342
C76	C	0.580785	-0.428296	-0.502339
C77	C	0.914118	-0.094962	-0.169006
C78	C	1.247451	0.238371	0.164327
C79	C	0.541665	-0.383332	-0.449721
C80	C	0.874998	-0.049998	-0.116388
C81	C	1.208332	0.283335	0.216946
C82	C	0.585098	-0.338355	-0.397093
C83	C	0.918431	-0.005022	-0.063759
C84	C	1.251765	0.328311	0.269574
C85	C	0.545980	-0.293388	-0.344479
C86	C	0.879313	0.039945	-0.011145
C87	C	1.212647	0.373278	0.322188
C88	C	0.589411	-0.248415	-0.291846
C89	C	0.922745	0.084918	0.041488
C90	C	1.256078	0.418252	0.374821
C91	C	0.671960	-0.248411	-0.291836
C92	C	1.005293	0.084922	0.041497
C93	C	1.338627	0.418256	0.374830
C94	C	0.459116	-0.383336	-0.449730
C95	C	0.792450	-0.050002	-0.116397
C96	C	1.125783	0.283331	0.216936
C97	C	0.463426	-0.293394	-0.344491
C98	C	0.796759	0.039940	-0.011157
C99	C	1.130093	0.373273	0.322176
C100	C	1.117120	-0.520824	-0.405795
C101	C	1.450453	-0.187491	-0.072462
C102	C	1.783786	0.145843	0.260871
C103	C	1.113404	-0.598890	-0.409552
C104	C	1.446737	-0.265557	-0.076219
C105	C	1.780070	0.067777	0.257115
C106	C	1.162238	-0.635561	-0.360816
C107	C	1.495571	-0.302227	-0.027483
C108	C	1.828905	0.031106	0.305850
C109	C	1.158748	-0.708912	-0.364354
C110	C	1.492081	-0.375578	-0.031021
C111	C	1.825415	-0.042245	0.302313
C112	C	1.106419	-0.745591	-0.416624
C113	C	1.439752	-0.412257	-0.083290
C114	C	1.773086	-0.078924	0.250043
C115	C	1.057583	-0.708915	-0.465364
C116	C	1.390916	-0.375582	-0.132031
C117	C	1.724249	-0.042248	0.201302
C118	C	1.061077	-0.635565	-0.461830
C119	C	1.394411	-0.302232	-0.128497
C120	C	1.727744	0.031102	0.204836
C121	C	1.093341	-0.967060	-0.429825
C122	C	1.426674	-0.633726	-0.096491
C123	C	1.760008	-0.300393	0.236842
C124	C	1.089848	-1.040415	-0.433353
C125	C	1.423182	-0.707081	-0.100020
C126	C	1.756515	-0.373748	0.233313
C127	C	1.191015	-1.040406	-0.332344
C128	C	1.524349	-0.707073	0.000990
C129	C	1.857682	-0.373740	0.334323
C130	C	1.194502	-0.967055	-0.328811
C131	C	1.527835	-0.633722	0.004523
C132	C	1.861168	-0.300389	0.337856
C133	C	1.145668	-0.930386	-0.377554
C134	C	1.479002	-0.597052	-0.044221
C135	C	1.812335	-0.263719	0.289112
C136	C	1.102849	-0.820567	-0.420239
C137	C	1.436182	-0.487234	-0.086906
C138	C	1.769515	-0.153901	0.246428
C139	C	1.149243	-0.855411	-0.373942
C140	C	1.482577	-0.522077	-0.040609
C141	C	1.815910	-0.188744	0.292724
C142	C	1.332142	-0.338361	-0.397104
C143	C	1.665475	-0.005028	-0.063771
C144	C	1.998808	0.328305	0.269562
C145	C	1.419998	-0.338369	-0.397116
C146	C	1.753331	-0.005035	-0.063783
C147	C	2.086665	0.328298	0.269550
C148	C	1.126010	-0.338286	-0.603242
C149	C	1.459343	-0.004952	-0.269909
C150	C	1.792677	0.328381	0.063425
C151	C	1.126025	-0.338261	-0.691097
C152	C	1.459359	-0.004928	-0.357764
C153	C	1.792692	0.328406	-0.024431
C154	C	1.134885	-0.155151	-0.388341
C155	C	1.468219	0.178182	-0.055007
C156	C	1.801552	0.511515	0.278326
C157	C	1.138683	-0.077085	-0.384618
C158	C	1.472016	0.256248	-0.051285
C159	C	1.805349	0.589581	0.282049
C160	C	1.073388	-0.383100	-1.064707
C161	C	1.406721	-0.049766	-0.731374
C162	C	1.740055	0.283567	-0.398040
C163	C	1.178859	-0.293274	-1.060432
C164	C	1.512192	0.040059	-0.727099
C165	C	1.845525	0.373393	-0.393765
C166	C	1.178837	-0.293289	-0.977887
C167	C	1.512170	0.040044	-0.644554
C168	C	1.845504	0.373378	-0.311220
C169	C	1.126091	-0.338211	-0.938748
C170	C	1.459424	-0.004877	-0.605415
C171	C	1.792757	0.328456	-0.272081
C172	C	1.073366	-0.383118	-0.982154
C173	C	1.406700	-0.049784	-0.648821
C174	C	1.740033	0.283549	-0.315488
C175	C	1.231566	-0.248388	-0.934475
C176	C	1.564899	0.084945	-0.601141
C177	C	1.898232	0.418279	-0.267808
C178	C	1.231547	-0.248402	-0.851924
C179	C	1.564880	0.084932	-0.518591
C180	C	1.898213	0.418265	-0.185258
C181	C	1.178796	-0.293320	-0.812784
C182	C	1.512129	0.040013	-0.479450
C183	C	1.845463	0.373346	-0.146117
C184	C	1.126069	-0.338228	-0.856195
C185	C	1.459402	-0.004895	-0.522862
C186	C	1.792736	0.328438	-0.189529
C187	C	1.073323	-0.383150	-0.817056
C188	C	1.406656	-0.049817	-0.483723
C189	C	1.739989	0.283517	-0.150390
C190	C	1.020591	-0.428055	-0.860466
C191	C	1.353925	-0.094722	-0.527133
C192	C	1.687258	0.238611	-0.193800
C193	C	1.020616	-0.428036	-0.943014
C194	C	1.353949	-0.094703	-0.609681
C195	C	1.687282	0.238630	-0.276347
C196	C	1.178771	-0.293339	-0.730236
C197	C	1.512105	0.039994	-0.396903
C198	C	1.845438	0.373327	-0.063570
C199	C	1.073301	-0.383168	-0.734504
C200	C	1.406634	-0.049835	-0.401170
C201	C	1.739968	0.283499	-0.067837
C202	C	1.125987	-0.338351	-0.191710
C203	C	1.459320	-0.005018	0.141623
C204	C	1.792653	0.328315	0.474956
C205	C	1.126134	-0.338178	-0.103846
C206	C	1.459468	-0.004845	0.229487
C207	C	1.792801	0.328489	0.562821
H208	H	0.545430	-0.464917	-0.545195
H209	H	0.878763	-0.131583	-0.211862
H210	H	1.212096	0.201750	0.121471
Br211	Br	0.400177	-0.444359	-0.521162
Br212	Br	0.733510	-0.111025	-0.187828
Br213	Br	1.066844	0.222308	0.145505
Br214	Br	0.410343	-0.232369	-0.273076
Br215	Br	0.743676	0.100964	0.060257
Br216	Br	1.077010	0.434297	0.393591
Br217	Br	0.852572	-0.232341	-0.273012
Br218	Br	1.185905	0.100992	0.060322
Br219	Br	1.519239	0.434326	0.393655
H220	H	1.230774	-1.070271	-0.292660
H221	H	1.564107	-0.736937	0.040673
H222	H	1.897440	-0.403604	0.374006
Br223	Br	1.225031	-0.758677	-0.298214
Br224	Br	1.558365	-0.425343	0.035119
Br225	Br	1.891698	-0.092010	0.368452
H226	H	0.695192	-0.464894	-0.545162
H227	H	1.028526	-0.131561	-0.211829
H228	H	1.361859	0.201773	0.121504
Br229	Br	1.001706	-0.444131	-0.681393
Br230	Br	1.335040	-0.110797	-0.348059
Br231	Br	1.668373	0.222536	-0.014726
Br232	Br	0.986571	-0.758693	-0.536310
Br233	Br	1.319904	-0.425359	-0.202976
Br234	Br	1.653237	-0.092026	0.130357
H235	H	1.030453	-0.419658	-1.100055
H236	H	1.363787	-0.086325	-0.766722
H237	H	1.697120	0.247008	-0.433388
H238	H	0.557551	-0.211800	-0.249011
H239	H	0.890884	0.121534	0.084322
H240	H	1.224217	0.454867	0.417656
Br241	Br	1.250447	-0.232319	-1.113550
Br242	Br	1.583780	0.101014	-0.780216
Br243	Br	1.917113	0.434348	-0.446883
Br244	Br	0.730907	-0.187379	-0.220416
Br245	Br	1.064240	0.145955	0.112918
Br246	Br	1.397573	0.479288	0.446251
Br247	Br	0.949016	-0.489024	-0.807340
Br248	Br	1.282350	-0.155691	-0.474006
Br249	Br	1.615683	0.177643	-0.140673
Br250	Br	1.233252	-0.585789	-0.289868
Br251	Br	1.566586	-0.252456	0.043465
Br252	Br	1.899919	0.080878	0.376799
H253	H	0.977687	-0.464598	-0.978366
H254	H	1.311020	-0.131264	-0.645032
H255	H	1.644354	0.202069	-0.311699
H256	H	0.821172	-0.419916	-0.492521
H257	H	1.154505	-0.086583	-0.159188
H258	H	1.487838	0.246751	0.174145
H259	H	1.021312	-0.605709	-0.501517
H260	H	1.354646	-0.272375	-0.168184
H261	H	1.687979	0.060958	0.165150
Br262	Br	1.265532	-0.917281	-0.257881
Br263	Br	1.598866	-0.583948	0.075453
Br264	Br	1.932199	-0.250615	0.408786
Br265	Br	1.303153	-0.187434	-0.987595
Br266	Br	1.636486	0.145899	-0.654261
Br267	Br	1.969820	0.479233	-0.320928
Br268	Br	1.303107	-0.187460	-0.793018
Br269	Br	1.636441	0.145874	-0.459685
Br270	Br	1.969774	0.479207	-0.126351
H271	H	1.191853	-0.825544	-0.331387
H272	H	1.525186	-0.492211	0.001946
H273	H	1.858519	-0.158878	0.335279
H274	H	1.047245	-1.070277	-0.475932
H275	H	1.380579	-0.736943	-0.142598
H276	H	1.713912	-0.403610	0.190735
H277	H	1.060241	-0.850440	-0.462796
H278	H	1.393574	-0.517106	-0.129462
H279	H	1.726907	-0.183773	0.203871
H280	H	1.053577	-0.937209	-0.469512
H281	H	1.386911	-0.603876	-0.136179
H282	H	1.720244	-0.270543	0.197154
H283	H	1.221707	-0.256780	-0.694896
H284	H	1.555040	0.076553	-0.361562
H285	H	1.888373	0.409886	-0.028229
