data_functionalizedCrystal
_audit_creation_method	'MofGen! by Chris Wilmer'
_symmetry_space_group_name_H-M	'P1'
_symmetry_Int_Tables_number	1
_symmetry_cell_setting	triclinic
loop_
_symmetry_equiv_pos_as_xyz
  x,y,z
_cell_length_a	14.908795
_cell_length_b	19.805405
_cell_length_c	19.805398
_cell_angle_alpha	90.027637
_cell_angle_beta	86.684627
_cell_angle_gamma	86.683419
loop_
_atom_site_label
_atom_site_type_symbol
_atom_site_fract_x
_atom_site_fract_y
_atom_site_fract_z
Zn1	Zn	1.379173	0.209876	-0.442494
Zn2	Zn	1.712507	0.543209	-0.109161
Zn3	Zn	2.045840	0.876542	0.224172
Zn4	Zn	1.379069	0.323065	-0.329298
Zn5	Zn	1.712403	0.656399	0.004035
Zn6	Zn	2.045736	0.989732	0.337368
Zn7	Zn	1.228317	0.216412	-0.322780
Zn8	Zn	1.561651	0.549745	0.010553
Zn9	Zn	1.894984	0.883078	0.343887
Zn10	Zn	1.228259	0.329551	-0.435908
Zn11	Zn	1.561592	0.662885	-0.102575
Zn12	Zn	1.894926	0.996218	0.230759
O13	O	1.303705	0.269726	-0.382620
O14	O	1.637038	0.603059	-0.049287
O15	O	1.970371	0.936393	0.284047
O16	O	1.505408	0.219441	-0.432963
O17	O	1.838741	0.552774	-0.099630
O18	O	2.172074	0.886107	0.233704
O19	O	1.359053	0.308938	-0.233716
O20	O	1.692386	0.642272	0.099617
O21	O	2.025720	0.975605	0.432951
O22	O	1.248397	0.120825	-0.338689
O23	O	1.581730	0.454159	-0.005355
O24	O	1.915063	0.787492	0.327978
O25	O	1.505332	0.302601	-0.349798
O26	O	1.838665	0.635934	-0.016465
O27	O	2.171998	0.969267	0.316868
O28	O	1.359230	0.116023	-0.426643
O29	O	1.692563	0.449356	-0.093309
O30	O	2.025896	0.782690	0.240024
O31	O	1.248296	0.230580	-0.228927
O32	O	1.581629	0.563914	0.104406
O33	O	1.914963	0.897247	0.437740
O34	O	1.102061	0.236870	-0.332302
O35	O	1.435395	0.570203	0.001031
O36	O	1.768728	0.903536	0.334365
O37	O	1.248297	0.313655	-0.531499
O38	O	1.581630	0.646988	-0.198166
O39	O	1.914964	0.980322	0.135168
O40	O	1.102018	0.319993	-0.415417
O41	O	1.435352	0.653326	-0.082083
O42	O	1.768685	0.986660	0.251250
O43	O	1.359173	0.225730	-0.536338
O44	O	1.692506	0.559063	-0.203005
O45	O	2.025840	0.892397	0.130329
O46	O	1.358996	0.418645	-0.343412
O47	O	1.692330	0.751978	-0.010078
O48	O	2.025663	1.085312	0.323255
O49	O	1.248197	0.423410	-0.421737
O50	O	1.581530	0.756744	-0.088404
O51	O	1.914863	1.090077	0.244929
C52	C	1.069305	0.279845	-0.372438
C53	C	1.402638	0.613178	-0.039104
C54	C	1.735972	0.946512	0.294229
C55	C	0.969028	0.284190	-0.368098
C56	C	1.302361	0.617523	-0.034764
C57	C	1.635695	0.950857	0.298569
C58	C	0.827654	0.333539	-0.318615
C59	C	1.160987	0.666872	0.014719
C60	C	1.494320	1.000206	0.348052
C61	C	0.921873	0.329459	-0.322692
C62	C	1.255206	0.662792	0.010641
C63	C	1.588540	0.996126	0.343975
C64	C	0.921957	0.242997	-0.409427
C65	C	1.255290	0.576330	-0.076094
C66	C	1.588624	0.909663	0.257239
C67	C	0.827737	0.247076	-0.405350
C68	C	1.161071	0.580410	-0.072017
C69	C	1.494404	0.913743	0.261317
C70	C	0.780589	0.292350	-0.359943
C71	C	1.113922	0.625683	-0.026609
C72	C	1.447256	0.959017	0.306724
C73	C	0.686368	0.296433	-0.355869
C74	C	1.019701	0.629766	-0.022536
C75	C	1.353035	0.963100	0.310798
C76	C	0.686454	0.209967	-0.442601
C77	C	1.019787	0.543301	-0.109267
C78	C	1.353120	0.876634	0.224066
C79	C	0.780673	0.205887	-0.446678
C80	C	1.114006	0.539221	-0.113345
C81	C	1.447340	0.872554	0.219989
C82	C	1.303603	0.445586	-0.382583
C83	C	1.636937	0.778920	-0.049250
C84	C	1.970270	1.112253	0.284084
C85	C	1.303642	0.520817	-0.382593
C86	C	1.636976	0.854150	-0.049260
C87	C	1.970309	1.187483	0.284073
C88	C	1.303740	0.269687	-0.559164
C89	C	1.637074	0.603020	-0.225831
C90	C	1.970407	0.936354	0.107502
C91	C	1.303755	0.269670	-0.634397
C92	C	1.637089	0.603004	-0.301064
C93	C	1.970422	0.936337	0.032270
C94	C	1.539020	0.259568	-0.392843
C95	C	1.872353	0.592901	-0.059509
C96	C	2.205686	0.926235	0.273824
C97	C	1.639297	0.255239	-0.397199
C98	C	1.972630	0.588573	-0.063866
C99	C	2.305964	0.921906	0.269468
C100	C	1.303831	0.093178	-0.382673
C101	C	1.637165	0.426511	-0.049340
C102	C	1.970498	0.759844	0.283993
C103	C	1.303885	0.017943	-0.382696
C104	C	1.637219	0.351277	-0.049363
C105	C	1.970552	0.684610	0.283971
C106	C	1.361392	0.553655	-0.341857
C107	C	1.694725	0.886988	-0.008524
C108	C	2.028059	1.220321	0.324810
C109	C	1.361430	0.624341	-0.341874
C110	C	1.694763	0.957675	-0.008540
C111	C	2.028097	1.291008	0.324793
C112	C	1.303714	0.662189	-0.382623
C113	C	1.637047	0.995522	-0.049290
C114	C	1.970380	1.328856	0.284043
C115	C	1.245962	0.629346	-0.423364
C116	C	1.579295	0.962680	-0.090031
C117	C	1.912628	1.296013	0.243302
C118	C	1.245929	0.558661	-0.423351
C119	C	1.579262	0.891994	-0.090018
C120	C	1.912595	1.225327	0.243316
C121	C	1.246095	0.914414	-0.423420
C122	C	1.579428	1.247747	-0.090087
C123	C	1.912762	1.581080	0.243246
C124	C	1.246130	0.985104	-0.423429
C125	C	1.579464	1.318438	-0.090096
C126	C	1.912797	1.651771	0.243237
C127	C	1.361596	0.980095	-0.341943
C128	C	1.694930	1.313428	-0.008610
C129	C	2.028263	1.646761	0.324724
C130	C	1.361563	0.909409	-0.341929
C131	C	1.694897	1.242742	-0.008596
C132	C	2.028230	1.576076	0.324737
C133	C	1.303815	0.876572	-0.382673
C134	C	1.637148	1.209905	-0.049340
C135	C	1.970482	1.543239	0.283994
C136	C	1.303775	0.799925	-0.382655
C137	C	1.637109	1.133259	-0.049322
C138	C	1.970442	1.466592	0.284011
C139	C	1.303748	0.738835	-0.382638
C140	C	1.637082	1.072168	-0.049304
C141	C	1.970415	1.405501	0.284029
C142	C	1.361597	0.223763	-1.098714
C143	C	1.694930	0.557096	-0.765381
C144	C	2.028264	0.890430	-0.432047
C145	C	1.361583	0.223784	-1.028025
C146	C	1.694916	0.557118	-0.694691
C147	C	2.028250	0.890451	-0.361358
C148	C	1.303848	0.269572	-0.990163
C149	C	1.637181	0.602905	-0.656830
C150	C	1.970514	0.936239	-0.323496
C151	C	1.246129	0.315346	-1.022994
C152	C	1.579463	0.648679	-0.689661
C153	C	1.912796	0.982013	-0.356328
C154	C	1.246149	0.315327	-1.093682
C155	C	1.579482	0.648661	-0.760349
C156	C	1.912815	0.981994	-0.427016
C157	C	1.246051	0.315423	-0.737917
C158	C	1.579384	0.648756	-0.404584
C159	C	1.912718	0.982090	-0.071251
C160	C	1.246034	0.315437	-0.667224
C161	C	1.579368	0.648770	-0.333891
C162	C	1.912701	0.982103	-0.000558
C163	C	1.361485	0.223880	-0.672260
C164	C	1.694819	0.557213	-0.338927
C165	C	2.028152	0.890547	-0.005593
C166	C	1.361505	0.223861	-0.742948
C167	C	1.694838	0.557195	-0.409615
C168	C	2.028171	0.890528	-0.076281
C169	C	1.303790	0.269637	-0.775773
C170	C	1.637123	0.602971	-0.442440
C171	C	1.970457	0.936304	-0.109106
C172	C	1.303807	0.269614	-0.852422
C173	C	1.637140	0.602948	-0.519089
C174	C	1.970474	0.936281	-0.185756
C175	C	1.303825	0.269592	-0.913515
C176	C	1.637159	0.602926	-0.580182
C177	C	1.970492	0.936259	-0.246848
C178	C	1.303721	0.269714	-0.206765
C179	C	1.637055	0.603047	0.126568
C180	C	1.970388	0.936380	0.459902
C181	C	1.303881	0.269532	-0.131540
C182	C	1.637215	0.602865	0.201793
C183	C	1.970548	0.936199	0.535126
H184	H	0.960189	0.362999	-0.289038
H185	H	1.293523	0.696332	0.044296
H186	H	1.626856	1.029666	0.377629
H187	H	1.408387	0.522844	-0.308671
H188	H	1.741720	0.856177	0.024663
H189	H	2.075054	1.189510	0.357996
F190	F	0.777473	0.381732	-0.270301
F191	F	1.110806	0.715066	0.063033
F192	F	1.444139	1.048399	0.396366
H193	H	1.408583	0.186516	-1.001301
H194	H	1.741917	0.519850	-0.667968
H195	H	2.075250	0.853183	-0.334634
F196	F	1.422960	0.175132	-0.783240
F197	F	1.756293	0.508466	-0.449907
F198	F	2.089627	0.841799	-0.116573
H199	H	0.819074	0.169025	-0.483646
H200	H	1.152407	0.502359	-0.150312
H201	H	1.485741	0.835692	0.183021
H202	H	0.648124	0.176429	-0.476254
H203	H	0.981457	0.509762	-0.142921
H204	H	1.314790	0.843096	0.190413
F205	F	1.184582	0.364173	-0.626930
F206	F	1.517915	0.697506	-0.293597
F207	F	1.851249	1.030840	0.039736
F208	F	1.184629	0.364144	-0.772843
F209	F	1.517963	0.697478	-0.439510
F210	F	1.851296	1.030811	-0.106177
F211	F	1.423062	1.015047	-0.298583
F212	F	1.756395	1.348381	0.034750
F213	F	2.089729	1.681714	0.368084
H214	H	1.199124	0.352630	-0.992162
H215	H	1.532458	0.685963	-0.658828
H216	H	1.865791	1.019297	-0.325495
H217	H	1.199132	1.015918	-0.456618
H218	H	1.532465	1.349252	-0.123284
H219	H	1.865799	1.682585	0.210049
H220	H	1.408482	0.186609	-0.645525
H221	H	1.741815	0.519942	-0.312192
H222	H	2.075148	0.853275	0.021141
F223	F	1.184721	0.364042	-1.128618
F224	F	1.518055	0.697376	-0.795285
F225	F	1.851388	1.030709	-0.461951
H226	H	0.647981	0.333299	-0.318898
H227	H	0.981315	0.666632	0.014435
H228	H	1.314648	0.999966	0.347768
H229	H	1.199073	0.887684	-0.456594
H230	H	1.532406	1.221017	-0.123260
H231	H	1.865739	1.554350	0.210073
F232	F	0.972150	0.194815	-0.457746
F233	F	1.305484	0.528148	-0.124413
F234	F	1.638817	0.861481	0.208920
H235	H	1.408455	0.651075	-0.308701
H236	H	1.741788	0.984408	0.024632
H237	H	2.075122	1.317741	0.357965
H238	H	1.408558	0.878595	-0.308745
H239	H	1.741891	1.211929	0.024589
H240	H	2.075225	1.545262	0.357922
F241	F	1.184541	0.669628	-0.466738
F242	F	1.517874	1.002962	-0.133404
F243	F	1.851207	1.336295	0.199929
F244	F	1.184466	0.523712	-0.466710
F245	F	1.517800	0.857046	-0.133377
F246	F	1.851133	1.190379	0.199957
H247	H	1.408606	0.186473	-1.129536
H248	H	1.741939	0.519807	-0.796203
H249	H	2.075273	0.853140	-0.462869
