data_functionalizedCrystal
_audit_creation_method	'MofGen! by Chris Wilmer'
_symmetry_space_group_name_H-M	'P1'
_symmetry_Int_Tables_number	1
_symmetry_cell_setting	triclinic
loop_
_symmetry_equiv_pos_as_xyz
  x,y,z
_cell_length_a	12.759401
_cell_length_b	13.897447
_cell_length_c	12.759393
_cell_angle_alpha	90.031000
_cell_angle_beta	90.020938
_cell_angle_gamma	90.021055
loop_
_atom_site_label
_atom_site_type_symbol
_atom_site_fract_x
_atom_site_fract_y
_atom_site_fract_z
Zn1	Zn	1.606231	-0.383929	0.594016
Zn2	Zn	1.606107	-0.545255	0.418335
Zn3	Zn	1.430530	-0.383980	0.418352
Zn4	Zn	1.430507	-0.545188	0.593972
O5	O	1.518344	-0.464588	0.506169
O6	O	1.753236	-0.405336	0.570723
O7	O	1.582774	-0.523912	0.271316
O8	O	1.453898	-0.248992	0.441679
O9	O	1.753145	-0.523862	0.441651
O10	O	1.582985	-0.248954	0.570740
O11	O	1.453778	-0.405423	0.271328
O12	O	1.283506	-0.405358	0.441636
O13	O	1.453859	-0.523747	0.740999
O14	O	1.283489	-0.523797	0.570664
O15	O	1.582963	-0.405271	0.741032
O16	O	1.582752	-0.680228	0.441608
O17	O	1.453739	-0.680179	0.570648
C18	C	1.245376	-0.464576	0.506148
C19	C	1.128600	-0.464595	0.506164
C20	C	1.073757	-0.526359	0.573243
C21	C	0.964033	-0.526363	0.573264
C22	C	0.964005	-0.402834	0.439118
C23	C	1.073727	-0.402827	0.439103
C24	C	0.814133	-0.560974	0.697124
C25	C	0.759286	-0.622754	0.764194
C26	C	0.794875	-0.716889	0.780141
C27	C	0.885310	-0.749263	0.729002
C28	C	0.940151	-0.687488	0.661925
C29	C	0.904564	-0.593340	0.645998
C30	C	1.223628	-0.368225	0.315241
C31	C	1.278471	-0.306455	0.248158
C32	C	1.242884	-0.212318	0.232200
C33	C	1.152446	-0.179948	0.283320
C34	C	1.097603	-0.241718	0.350403
C35	C	1.133198	-0.335854	0.366363
C36	C	1.518258	-0.715203	0.506144
C37	C	1.518318	-0.822416	0.506169
C38	C	1.518369	-0.909486	0.506193
C39	C	1.518442	-1.018719	0.506220
C40	C	1.792377	-0.464601	0.506190
C41	C	1.909154	-0.464606	0.506200
C42	C	1.518422	-0.464496	0.780202
C43	C	1.518456	-0.464456	0.896979
C44	C	1.518458	-0.212995	0.506216
C45	C	1.518507	-0.105781	0.506236
C46	C	1.518326	-0.464611	0.233201
C47	C	1.518496	-0.464379	0.116425
C48	C	1.585685	-0.402756	0.951860
C49	C	1.585703	-0.402714	1.061584
C50	C	1.451259	-0.526082	1.061537
C51	C	1.451237	-0.526118	0.951815
C52	C	1.623326	-0.288908	1.211563
C53	C	1.690571	-0.227216	1.266447
C54	C	1.793085	-0.212425	1.230856
C55	C	1.828375	-0.259340	1.140382
C56	C	1.761135	-0.321039	1.085504
C57	C	1.658606	-0.335812	1.121093
C58	C	1.413625	-0.639925	0.801834
C59	C	1.346390	-0.701630	0.746953
C60	C	1.243874	-0.716431	0.782542
C61	C	1.208588	-0.669533	0.873019
C62	C	1.275824	-0.607828	0.927900
C63	C	1.378339	-0.593026	0.892303
H64	H	1.123458	-0.103300	0.270310
H65	H	0.685655	-0.596386	0.805831
H66	H	1.911856	-0.247298	1.111416
H67	H	1.640416	-0.352544	0.907215
N68	N	1.171343	-0.782977	0.723352
H69	H	1.148393	-0.837140	0.770849
H70	H	1.209301	-0.810380	0.660637
N71	N	1.376018	-0.341363	0.193020
H72	H	1.365581	-0.337163	0.114687
H73	H	1.390197	-0.410356	0.213395
N74	N	0.923676	-0.850805	0.746193
H75	H	0.939736	-0.860662	0.822956
H76	H	0.989254	-0.861877	0.703561
N77	N	0.904824	-0.336230	0.366772
H78	H	0.923891	-0.351136	0.291681
H79	H	0.923971	-0.267352	0.383301
N80	N	1.302027	-0.145695	0.159834
H81	H	1.364715	-0.180484	0.129861
H82	H	1.326430	-0.087394	0.200357
H83	H	1.118431	-0.576652	0.627851
N84	N	1.262018	-0.469759	0.332464
H85	H	1.327626	-0.480894	0.289895
H86	H	1.206004	-0.516746	0.309818
N87	N	1.037680	-0.722394	0.606764
H88	H	1.051903	-0.791407	0.627037
H89	H	1.099184	-0.680923	0.627892
N90	N	1.384447	-0.752226	0.649374
H91	H	1.459593	-0.733485	0.635149
H92	H	1.339245	-0.732922	0.587892
N93	N	1.865619	-0.145891	1.290051
H94	H	1.827711	-0.118420	1.352765
H95	H	1.888555	-0.091779	1.242484
N96	N	0.735719	-0.783527	0.852472
H97	H	0.673030	-0.748738	0.882443
H98	H	0.783322	-0.804634	0.911384
N99	N	1.098014	-0.685476	0.911413
H100	H	1.099892	-0.713329	0.984486
H101	H	1.060829	-0.731652	0.862849
N102	N	1.524198	-0.623952	0.763443
H103	H	1.536351	-0.663031	0.697804
H104	H	1.575399	-0.644655	0.819436
H105	H	1.023969	-0.215351	0.392035
N106	N	0.775748	-0.459440	0.679925
H107	H	0.774649	-0.423939	0.749007
H108	H	0.702674	-0.461224	0.649532
H109	H	1.661829	-0.189018	1.340111
N110	N	1.512747	-0.304834	1.249948
H111	H	1.514617	-0.332685	1.323022
H112	H	1.475553	-0.351005	1.201385
N113	N	1.378746	-0.592571	1.120682
H114	H	1.388956	-0.583184	1.198518
H115	H	1.395043	-0.661474	1.101500
H116	H	1.789868	-0.359240	1.011845
N117	N	1.237772	-0.557244	1.025489
H118	H	1.162625	-0.575982	1.039712
H119	H	1.242362	-0.485335	1.015039
