data_functionalizedCrystal
_audit_creation_method	'MofGen! by Chris Wilmer'
_symmetry_space_group_name_H-M	'P1'
_symmetry_Int_Tables_number	1
_symmetry_cell_setting	triclinic
loop_
_symmetry_equiv_pos_as_xyz
  x,y,z
_cell_length_a	13.033293
_cell_length_b	16.120531
_cell_length_c	13.032268
_cell_angle_alpha	80.361611
_cell_angle_beta	89.079182
_cell_angle_gamma	79.562967
loop_
_atom_site_label
_atom_site_type_symbol
_atom_site_fract_x
_atom_site_fract_y
_atom_site_fract_z
Zn1	Zn	1.479864	0.262706	-0.795768
Zn2	Zn	1.729864	0.512706	-0.545768
Zn3	Zn	1.979864	0.762706	-0.295768
Zn4	Zn	2.229864	1.012706	-0.045768
Zn5	Zn	1.493017	0.384052	-0.630393
Zn6	Zn	1.743017	0.634052	-0.380393
Zn7	Zn	1.993017	0.884052	-0.130393
Zn8	Zn	2.243017	1.134052	0.119607
Zn9	Zn	1.330040	0.258247	-0.601701
Zn10	Zn	1.580040	0.508247	-0.351701
Zn11	Zn	1.830040	0.758247	-0.101701
Zn12	Zn	2.080040	1.008247	0.148299
Zn13	Zn	1.296775	0.419252	-0.782348
Zn14	Zn	1.546775	0.669252	-0.532348
Zn15	Zn	1.796775	0.919252	-0.282348
Zn16	Zn	2.046775	1.169252	-0.032348
O17	O	1.399924	0.331064	-0.702553
O18	O	1.649924	0.581064	-0.452553
O19	O	1.899924	0.831064	-0.202553
O20	O	2.149924	1.081064	0.047447
O21	O	1.626438	0.265938	-0.791455
O22	O	1.876438	0.515938	-0.541455
O23	O	2.126438	0.765938	-0.291455
O24	O	2.376438	1.015938	-0.041455
O25	O	1.490823	0.350766	-0.481776
O26	O	1.740823	0.600766	-0.231776
O27	O	1.990823	0.850766	0.018224
O28	O	2.240823	1.100766	0.268224
O29	O	1.358332	0.140674	-0.621053
O30	O	1.608332	0.390674	-0.371053
O31	O	1.858332	0.640674	-0.121053
O32	O	2.108332	0.890674	0.128947
O33	O	1.636101	0.355090	-0.669955
O34	O	1.886101	0.605090	-0.419955
O35	O	2.136101	0.855090	-0.169955
O36	O	2.386101	1.105090	0.080045
O37	O	1.468407	0.143950	-0.763633
O38	O	1.718407	0.393950	-0.513633
O39	O	1.968407	0.643950	-0.263633
O40	O	2.218407	0.893950	-0.013633
O41	O	1.371085	0.258338	-0.460696
O42	O	1.621085	0.508338	-0.210696
O43	O	1.871085	0.758338	0.039304
O44	O	2.121085	1.008338	0.289304
O45	O	1.180798	0.292470	-0.608040
O46	O	1.430798	0.542470	-0.358040
O47	O	1.680798	0.792470	-0.108040
O48	O	1.930798	1.042470	0.141960
O49	O	1.301637	0.415084	-0.928939
O50	O	1.551637	0.665084	-0.678939
O51	O	1.801637	0.915084	-0.428939
O52	O	2.051637	1.165084	-0.178939
O53	O	1.156359	0.410760	-0.740760
O54	O	1.406359	0.660760	-0.490760
O55	O	1.656359	0.910760	-0.240760
O56	O	1.906359	1.160760	0.009240
O57	O	1.436151	0.300070	-0.938799
O58	O	1.686151	0.550070	-0.688799
O59	O	1.936151	0.800070	-0.438799
O60	O	2.186151	1.050070	-0.188799
O61	O	1.458568	0.506886	-0.656942
O62	O	1.708568	0.756886	-0.406942
O63	O	1.958568	1.006886	-0.156942
O64	O	2.208568	1.256886	0.093058
O65	O	1.314390	0.532748	-0.768582
O66	O	1.564390	0.782748	-0.518582
O67	O	1.814390	1.032748	-0.268582
O68	O	2.064390	1.282748	-0.018582
C69	C	1.131025	0.354952	-0.669831
C70	C	1.381025	0.604952	-0.419831
C71	C	1.631025	0.854952	-0.169831
C72	C	1.881025	1.104952	0.080169
C73	C	1.015985	0.365194	-0.655858
C74	C	1.265985	0.615194	-0.405858
C75	C	1.515985	0.865194	-0.155858
C76	C	1.765985	1.115194	0.094142
C77	C	0.959896	0.325740	-0.709846
C78	C	1.209896	0.575740	-0.459846
C79	C	1.459896	0.825740	-0.209846
C80	C	1.709896	1.075740	0.040154
C81	C	0.840995	0.336325	-0.695406
C82	C	1.090995	0.586325	-0.445406
C83	C	1.340995	0.836325	-0.195406
C84	C	1.590995	1.086325	0.054594
C85	C	1.384321	0.550456	-0.714445
C86	C	1.634321	0.800456	-0.464445
C87	C	1.884321	1.050456	-0.214445
C88	C	2.134321	1.300456	0.035555
C89	C	1.377737	0.644308	-0.719579
C90	C	1.627737	0.894308	-0.469579
C91	C	1.877737	1.144308	-0.219579
C92	C	2.127737	1.394308	0.030421
C93	C	1.365717	0.816138	-0.728974
C94	C	1.615717	1.066138	-0.478974
C95	C	1.865717	1.316138	-0.228974
C96	C	2.115717	1.566138	0.021026
C97	C	1.434178	0.845140	-0.676077
C98	C	1.684178	1.095140	-0.426077
C99	C	1.934178	1.345140	-0.176077
C100	C	2.184178	1.595140	0.073923
C101	C	1.427490	0.940752	-0.681305
C102	C	1.677490	1.190752	-0.431305
C103	C	1.927490	1.440752	-0.181305
C104	C	2.177490	1.690752	0.068695
C105	C	1.372403	0.720518	-0.723748
C106	C	1.622403	0.970518	-0.473748
C107	C	1.872403	1.220518	-0.223748
C108	C	2.122403	1.470518	0.026252
C109	C	1.669873	0.307085	-0.735403
C110	C	1.919873	0.557085	-0.485403
C111	C	2.169873	0.807085	-0.235403
C112	C	2.419873	1.057085	0.014597
C113	C	1.784909	0.296866	-0.749401
C114	C	2.034909	0.546866	-0.499401
C115	C	2.284909	0.796866	-0.249401
C116	C	2.534909	1.046866	0.000599
C117	C	1.363716	0.362001	-0.972467
C118	C	1.613716	0.612001	-0.722467
C119	C	1.863716	0.862001	-0.472467
C120	C	2.113716	1.112001	-0.222467
C121	C	1.348287	0.375184	-1.087488
C122	C	1.598287	0.625184	-0.837488
C123	C	1.848287	0.875184	-0.587488
C124	C	2.098287	1.125184	-0.337488
C125	C	1.415579	1.110817	-0.690616
C126	C	1.665579	1.360817	-0.440616
C127	C	1.915579	1.610817	-0.190616
C128	C	2.165579	1.860817	0.059384
C129	C	1.422162	1.016964	-0.685469
C130	C	1.672162	1.266964	-0.435469
C131	C	1.922162	1.516964	-0.185469
C132	C	2.172162	1.766964	0.064531
C133	C	1.407963	0.324155	-1.143646
C134	C	1.657963	0.574155	-0.893646
C135	C	1.907963	0.824155	-0.643646
C136	C	2.157963	1.074155	-0.393646
C137	C	1.392017	0.337779	-1.262527
C138	C	1.642017	0.587779	-1.012527
C139	C	1.892017	0.837779	-0.762527
C140	C	2.142017	1.087779	-0.512527
C141	C	1.436055	0.300182	-0.433693
C142	C	1.686055	0.550182	-0.183693
C143	C	1.936055	0.800182	0.066307
C144	C	2.186055	1.050182	0.316307
C145	C	1.451702	0.286743	-0.318683
C146	C	1.701702	0.536743	-0.068683
C147	C	1.951702	0.786743	0.181317
C148	C	2.201702	1.036743	0.431317
H149	H	0.800994	0.377940	-0.638488
H150	H	1.050994	0.627940	-0.388488
H151	H	1.300994	0.877940	-0.138488
H152	H	1.550994	1.127940	0.111512
F153	F	0.837189	0.242462	-0.823788
F154	F	1.087189	0.492462	-0.573788
F155	F	1.337189	0.742462	-0.323788
F156	F	1.587189	0.992462	-0.073788
H157	H	0.975979	0.406806	-0.598944
H158	H	1.225979	0.656806	-0.348944
H159	H	1.475979	0.906806	-0.098944
H160	H	1.725979	1.156806	0.151056
H161	H	1.497810	0.798163	-0.626864
H162	H	1.747810	1.048163	-0.376864
H163	H	1.997810	1.298163	-0.126864
H164	H	2.247810	1.548163	0.123136
F165	F	1.282548	0.877537	-0.793292
F166	F	1.532548	1.127537	-0.543292
F167	F	1.782548	1.377537	-0.293292
F168	F	2.032548	1.627537	-0.043292
F169	F	1.012182	0.271343	-0.784232
F170	F	1.262182	0.521343	-0.534232
F171	F	1.512182	0.771343	-0.284232
F172	F	1.762182	1.021343	-0.034232
F173	F	1.266070	0.445469	-1.139674
F174	F	1.516070	0.695469	-0.889674
F175	F	1.766070	0.945469	-0.639674
F176	F	2.016070	1.195469	-0.389674
F177	F	1.533928	0.216458	-1.266504
F178	F	1.783928	0.466458	-1.016504
F179	F	2.033928	0.716458	-0.766504
F180	F	2.283928	0.966458	-0.516504
F181	F	1.490155	0.253851	-1.091455
F182	F	1.740155	0.503851	-0.841455
F183	F	1.990155	0.753851	-0.591455
F184	F	2.240155	1.003851	-0.341455
H185	H	1.329111	0.391553	-1.302453
H186	H	1.579111	0.641553	-1.052453
H187	H	1.829111	0.891553	-0.802453
H188	H	2.079111	1.141553	-0.552453
