data_functionalizedCrystal
_audit_creation_method	'MofGen! by Chris Wilmer'
_symmetry_space_group_name_H-M	'P1'
_symmetry_Int_Tables_number	1
_symmetry_cell_setting	triclinic
loop_
_symmetry_equiv_pos_as_xyz
  x,y,z
_cell_length_a	11.169417
_cell_length_b	18.215405
_cell_length_c	11.169417
_cell_angle_alpha	90.012063
_cell_angle_beta	90.000551
_cell_angle_gamma	90.023981
loop_
_atom_site_label
_atom_site_type_symbol
_atom_site_fract_x
_atom_site_fract_y
_atom_site_fract_z
Zn1	Zn	1.834634	-0.293080	0.678495
Zn2	Zn	2.334634	0.206920	1.178495
Zn3	Zn	1.834547	-0.416118	0.477796
Zn4	Zn	2.334547	0.083882	0.977796
Zn5	Zn	1.633987	-0.293072	0.477831
Zn6	Zn	2.133987	0.206928	0.977831
Zn7	Zn	1.633884	-0.416112	0.678442
Zn8	Zn	2.133884	0.083888	1.178442
O9	O	1.734263	-0.354595	0.578141
O10	O	2.234263	0.145405	1.078141
O11	O	2.002572	-0.309407	0.651880
O12	O	2.502572	0.190593	1.151880
O13	O	1.807948	-0.399795	0.309851
O14	O	2.307948	0.100205	0.809851
O15	O	1.660682	-0.190089	0.504486
O16	O	2.160682	0.309911	1.004486
O17	O	2.002508	-0.399802	0.504427
O18	O	2.502508	0.100198	1.004427
O19	O	1.808097	-0.190094	0.651913
O20	O	2.308097	0.309906	1.151913
O21	O	1.660598	-0.309394	0.309876
O22	O	2.160598	0.190606	0.809876
O23	O	1.466023	-0.309388	0.504434
O24	O	1.966023	0.190612	1.004434
O25	O	1.660508	-0.399792	0.846399
O26	O	2.160508	0.100208	1.346399
O27	O	1.465948	-0.399785	0.651823
O28	O	1.965948	0.100215	1.151823
O29	O	1.807998	-0.309401	0.846438
O30	O	2.307998	0.190599	1.346438
O31	O	1.807849	-0.519101	0.504376
O32	O	2.307849	-0.019101	1.004376
O33	O	1.660423	-0.519097	0.651790
O34	O	2.160423	-0.019097	1.151790
C35	C	1.422438	-0.354585	0.578127
C36	C	1.922438	0.145415	1.078127
C37	C	1.289038	-0.354599	0.578150
C38	C	1.789038	0.145401	1.078150
C39	C	1.734148	-0.545802	0.578100
C40	C	2.234148	-0.045802	1.078100
C41	C	1.734209	-0.627601	0.578122
C42	C	2.234209	-0.127601	1.078122
C43	C	1.811004	-0.815736	0.654991
C44	C	2.311004	-0.315736	1.154991
C45	C	1.811048	-0.892595	0.655014
C46	C	2.311048	-0.392595	1.155014
C47	C	1.657670	-0.892702	0.501365
C48	C	2.157670	-0.392702	1.001365
C49	C	1.657622	-0.815845	0.501350
C50	C	2.157622	-0.315845	1.001350
C51	C	1.734295	-0.777364	0.578161
C52	C	2.234295	-0.277364	1.078161
C53	C	1.734388	-0.931080	0.578199
C54	C	2.234388	-0.431080	1.078199
C55	C	1.734434	-1.014414	0.578223
C56	C	2.234434	-0.514414	1.078223
C57	C	1.734247	-0.694025	0.578139
C58	C	2.234247	-0.194025	1.078139
C59	C	2.047305	-0.354606	0.578156
C60	C	2.547305	0.145394	1.078156
C61	C	2.180705	-0.354610	0.578162
C62	C	2.680705	0.145390	1.078162
C63	C	1.734252	-0.354597	0.891183
C64	C	2.234252	0.145403	1.391183
C65	C	1.734247	-0.354597	1.024583
C66	C	2.234247	0.145403	1.524583
C67	C	1.734411	-0.162642	0.578209
C68	C	2.234411	0.337358	1.078209
C69	C	1.734474	-0.080844	0.578238
C70	C	2.234474	0.419156	1.078238
C71	C	1.734260	-0.354608	1.266316
C72	C	2.234260	0.145392	1.766316
C73	C	1.734250	-0.354598	1.132916
C74	C	2.234250	0.145402	1.632916
H75	H	1.873435	-0.784407	0.717538
H76	H	2.373435	-0.284407	1.217538
H77	H	1.595247	-0.924043	0.438826
H78	H	2.095247	-0.424043	0.938826
O79	O	1.885678	-0.929756	0.729684
O80	O	2.385678	-0.429756	1.229684
C81	C	1.953313	-0.879307	0.797494
C82	C	2.453313	-0.379307	1.297494
H83	H	1.957478	-0.824530	0.748323
H84	H	2.457478	-0.324530	1.248323
H85	H	2.047876	-0.901465	0.810386
H86	H	2.547876	-0.401465	1.310386
H87	H	1.909278	-0.871133	0.888604
H88	H	2.409278	-0.371133	1.388604
H89	H	1.595150	-0.784600	0.438785
H90	H	2.095150	-0.284600	0.938785
