data_functionalizedCrystal
_audit_creation_method	'MofGen! by Chris Wilmer'
_symmetry_space_group_name_H-M	'P1'
_symmetry_Int_Tables_number	1
_symmetry_cell_setting	triclinic
loop_
_symmetry_equiv_pos_as_xyz
  x,y,z
_cell_length_a	8.559649
_cell_length_b	9.730223
_cell_length_c	10.654550
_cell_angle_alpha	90.007972
_cell_angle_beta	77.131797
_cell_angle_gamma	90.001784
loop_
_atom_site_label
_atom_site_type_symbol
_atom_site_fract_x
_atom_site_fract_y
_atom_site_fract_z
O1	O	2.119649	0.114267	-0.042550
O2	O	1.655163	0.114274	0.022236
O3	O	1.898085	0.114262	-0.193999
O4	O	1.876726	0.114279	0.173686
O5	O	1.898079	-0.114318	-0.194018
O6	O	1.655157	-0.114305	0.022217
O7	O	2.119643	-0.114313	-0.042569
Zn8	Zn	1.887399	-0.150601	-0.010179
Zn9	Zn	1.887407	0.150563	-0.010154
O10	O	1.876721	-0.114301	0.173667
C11	C	1.595684	-0.000015	0.027137
C12	C	1.418466	-0.000012	0.041751
N13	N	1.887405	-0.356138	-0.010198
C14	C	1.896514	-0.000027	-0.240645
C15	C	1.891822	-0.000025	-0.379603
C16	C	2.179121	-0.000021	-0.047469
C17	C	2.356339	-0.000015	-0.062084
N18	N	1.887413	0.356099	-0.010146
C19	C	1.984843	0.571960	0.056790
C20	C	1.984851	0.428077	0.056813
C21	C	1.789971	0.428012	-0.077143
C22	C	1.789973	0.571892	-0.077172
C23	C	2.034851	-0.000027	-0.473864
C24	C	2.030432	-0.000010	-0.604428
C25	C	1.739944	0.000005	-0.546458
C26	C	1.744364	-0.000002	-0.415896
C27	C	1.878292	-0.000008	0.220312
C28	C	1.882984	-0.000001	0.359271
H29	H	1.336069	0.000000	0.141836
H30	H	2.064179	0.630554	0.111325
O31	O	2.079542	0.358444	0.122002
C32	C	2.272901	0.373703	0.254806
C33	C	2.165707	0.452731	0.181057
H34	H	2.342619	0.449899	0.302549
H35	H	2.195088	0.306401	0.331625
H36	H	2.360441	0.306287	0.184753
H37	H	2.078150	0.520222	0.251010
H38	H	2.243620	0.519947	0.104220
O39	O	1.695166	0.641534	-0.142267
C40	C	1.501945	0.626298	-0.275195
C41	C	1.609194	0.547257	-0.201504
H42	H	1.432434	0.550110	-0.323130
H43	H	1.414243	0.693646	-0.205199
H44	H	1.579861	0.693670	-0.351890
H45	H	1.531406	0.479811	-0.124809
H46	H	1.696906	0.479996	-0.271579
O47	O	1.605267	-0.000062	-0.324486
C48	C	1.316675	0.000039	-0.280754
C49	C	1.474069	0.000067	-0.384406
H50	H	1.210561	0.000174	-0.329160
H51	H	1.311367	-0.095644	-0.218205
H52	H	1.311585	0.095677	-0.218151
H53	H	1.479265	-0.095505	-0.447098
H54	H	1.479313	0.095814	-0.446863
O55	O	2.169521	-0.000077	-0.695827
C56	C	2.458112	-0.000017	-0.739538
C57	C	2.300709	0.000024	-0.635897
H58	H	2.564218	0.000094	-0.691124
H59	H	2.463408	-0.095694	-0.802120
H60	H	2.463227	0.095627	-0.802111
H61	H	2.295488	-0.095555	-0.573234
H62	H	2.295477	0.095764	-0.573407
H63	H	1.438727	-0.000013	-0.162162
H64	H	1.710643	0.369396	-0.131669
H65	H	2.154920	-0.000043	-0.444320
H66	H	1.619888	0.000020	-0.576024
