data_functionalizedCrystal
_audit_creation_method	'MofGen! by Chris Wilmer'
_symmetry_space_group_name_H-M	'P1'
_symmetry_Int_Tables_number	1
_symmetry_cell_setting	triclinic
loop_
_symmetry_equiv_pos_as_xyz
  x,y,z
_cell_length_a	18.215407
_cell_length_b	14.909042
_cell_length_c	18.215399
_cell_angle_alpha	93.320692
_cell_angle_beta	90.017813
_cell_angle_gamma	86.713748
loop_
_atom_site_label
_atom_site_type_symbol
_atom_site_fract_x
_atom_site_fract_y
_atom_site_fract_z
Zn1	Zn	1.142024	-0.359295	0.399190
Zn2	Zn	1.392024	-0.109295	0.649190
Zn3	Zn	1.642024	0.140705	0.899190
Zn4	Zn	1.892024	0.390705	1.149190
Zn5	Zn	1.149050	-0.510161	0.269033
Zn6	Zn	1.399050	-0.260161	0.519033
Zn7	Zn	1.649050	-0.010161	0.769033
Zn8	Zn	1.899050	0.239839	1.019033
Zn9	Zn	1.018957	-0.359309	0.276141
Zn10	Zn	1.268957	-0.109309	0.526141
Zn11	Zn	1.518957	0.140691	0.776141
Zn12	Zn	1.768957	0.390691	1.026141
Zn13	Zn	1.026037	-0.510095	0.392066
Zn14	Zn	1.276037	-0.260095	0.642066
Zn15	Zn	1.526037	-0.010095	0.892066
Zn16	Zn	1.776037	0.239905	1.142066
O17	O	1.084017	-0.434715	0.334108
O18	O	1.334017	-0.184715	0.584108
O19	O	1.584017	0.065285	0.834108
O20	O	1.834017	0.315285	1.084108
O21	O	1.245941	-0.379329	0.381931
O22	O	1.495941	-0.129329	0.631931
O23	O	1.745941	0.120671	0.881931
O24	O	1.995941	0.370671	1.131931
O25	O	1.131770	-0.490183	0.166990
O26	O	1.381770	-0.240183	0.416990
O27	O	1.631770	0.009817	0.666990
O28	O	1.881770	0.259817	0.916990
O29	O	1.029378	-0.233064	0.298420
O30	O	1.279378	0.016936	0.548420
O31	O	1.529378	0.266936	0.798420
O32	O	1.779378	0.516936	1.048420
O33	O	1.251103	-0.490170	0.286306
O34	O	1.501103	-0.240170	0.536306
O35	O	1.751103	0.009830	0.786306
O36	O	2.001103	0.259830	1.036306
O37	O	1.119795	-0.233054	0.388824
O38	O	1.369795	0.016946	0.638824
O39	O	1.619795	0.266946	0.888824
O40	O	1.869795	0.516946	1.138824
O41	O	1.036192	-0.379353	0.172212
O42	O	1.286192	-0.129353	0.422212
O43	O	1.536192	0.120647	0.672212
O44	O	1.786192	0.370647	0.922212
O45	O	0.916911	-0.379289	0.291512
O46	O	1.166911	-0.129289	0.541512
O47	O	1.416911	0.120711	0.791512
O48	O	1.666911	0.370711	1.041512
O49	O	1.041445	-0.490058	0.495997
O50	O	1.291445	-0.240058	0.745997
O51	O	1.541445	0.009942	0.995997
O52	O	1.791445	0.259942	1.245997
O53	O	0.922113	-0.490071	0.376681
O54	O	1.172113	-0.240071	0.626681
O55	O	1.422113	0.009929	0.876681
O56	O	1.672113	0.259929	1.126681
O57	O	1.126660	-0.379265	0.501231
O58	O	1.376660	-0.129265	0.751231
O59	O	1.626660	0.120735	1.001231
O60	O	1.876660	0.370735	1.251231
O61	O	1.138636	-0.636395	0.279398
O62	O	1.388636	-0.386395	0.529398
O63	O	1.638636	-0.136395	0.779398
O64	O	1.888636	0.113605	1.029398
O65	O	1.048259	-0.636347	0.369789
O66	O	1.298259	-0.386347	0.619789
O67	O	1.548259	-0.136347	0.869789
O68	O	1.798259	0.113653	1.119789
C69	C	0.892809	-0.434675	0.334095
C70	C	1.142809	-0.184675	0.584095
C71	C	1.392809	0.065325	0.834095
C72	C	1.642809	0.315325	1.084095
C73	C	0.811010	-0.434680	0.334106
C74	C	1.061010	-0.184680	0.584106
C75	C	1.311010	0.065320	0.834106
C76	C	1.561010	0.315320	1.084106
C77	C	1.094998	-0.669104	0.323065
C78	C	1.344998	-0.419104	0.573065
C79	C	1.594998	-0.169104	0.823065
C80	C	1.844998	0.080896	1.073065
C81	C	1.099763	-0.769377	0.318366
C82	C	1.349763	-0.519377	0.568366
C83	C	1.599763	-0.269377	0.818366
C84	C	1.849763	-0.019377	1.068366
C85	C	0.543266	-0.377111	0.383970
C86	C	0.793266	-0.127111	0.633970
C87	C	1.043266	0.122889	0.883970
C88	C	1.293266	0.372889	1.133970
C89	C	0.620124	-0.377097	0.383968
C90	C	0.870124	-0.127097	0.633968
C91	C	1.120124	0.122903	0.883968
C92	C	1.370124	0.372903	1.133968
C93	C	0.625511	-0.492348	0.284260
C94	C	0.875511	-0.242348	0.534260
C95	C	1.125511	0.007652	0.784260
C96	C	1.375511	0.257652	1.034260
C97	C	0.548654	-0.492366	0.284266
C98	C	0.798654	-0.242366	0.534266
C99	C	1.048654	0.007634	0.784266
C100	C	1.298654	0.257634	1.034266
C101	C	0.507534	-0.434743	0.334120
C102	C	0.757534	-0.184743	0.584120
C103	C	1.007534	0.065257	0.834120
C104	C	1.257534	0.315257	1.084120
C105	C	0.661248	-0.434710	0.334112
C106	C	0.911248	-0.184710	0.584112
C107	C	1.161248	0.065290	0.834112
C108	C	1.411248	0.315290	1.084112
C109	C	0.744581	-0.434694	0.334110
C110	C	0.994581	-0.184694	0.584110
C111	C	1.244581	0.065306	0.834110
C112	C	1.494581	0.315306	1.084110
C113	C	0.424195	-0.434759	0.334123
C114	C	0.674195	-0.184759	0.584123
C115	C	0.924195	0.065241	0.834123
C116	C	1.174195	0.315241	1.084123
C117	C	1.014517	-0.957814	0.403578
C118	C	1.264517	-0.707814	0.653578
C119	C	1.514517	-0.457814	0.903578
C120	C	1.764517	-0.207814	1.153578
C121	C	1.018992	-1.052029	0.399165
C122	C	1.268992	-0.802029	0.649165
C123	C	1.518992	-0.552029	0.899165
C124	C	1.768992	-0.302029	1.149165
C125	C	1.113183	-1.052024	0.305124
C126	C	1.363183	-0.802024	0.555124
C127	C	1.613183	-0.552024	0.805124
C128	C	1.863183	-0.302024	1.055124
C129	C	1.108708	-0.957809	0.309536
C130	C	1.358708	-0.707809	0.559536
C131	C	1.608708	-0.457809	0.809536
C132	C	1.858708	-0.207809	1.059536
C133	C	1.059374	-0.910707	0.358766
C134	C	1.309374	-0.660707	0.608766
C135	C	1.559374	-0.410707	0.858766
C136	C	1.809374	-0.160707	1.108766
C137	C	1.054904	-0.816490	0.363182
C138	C	1.304904	-0.566490	0.613182
C139	C	1.554904	-0.316490	0.863182
C140	C	1.804904	-0.066490	1.113182
C141	C	1.149091	-0.816487	0.269138
C142	C	1.399091	-0.566487	0.519138
C143	C	1.649091	-0.316487	0.769138
C144	C	1.899091	-0.066487	1.019138
C145	C	1.153566	-0.910702	0.264725
C146	C	1.403566	-0.660702	0.514725
C147	C	1.653566	-0.410702	0.764725
C148	C	1.903566	-0.160702	1.014725
C149	C	1.275972	-0.434755	0.334121
C150	C	1.525972	-0.184755	0.584121
C151	C	1.775972	0.065245	0.834121
C152	C	2.025972	0.315245	1.084121
C153	C	1.357771	-0.434773	0.334126
C154	C	1.607771	-0.184773	0.584126
C155	C	1.857771	0.065227	0.834126
C156	C	2.107771	0.315227	1.084126
C157	C	1.084059	-0.434653	0.526064
C158	C	1.334059	-0.184653	0.776064
C159	C	1.584059	0.065347	1.026064
C160	C	1.834059	0.315347	1.276064
C161	C	1.084077	-0.434626	0.607864
C162	C	1.334077	-0.184626	0.857864
C163	C	1.584077	0.065374	1.107864
C164	C	1.834077	0.315374	1.357864
C165	C	1.073013	-0.199410	0.345209
C166	C	1.323013	0.050590	0.595209
C167	C	1.573013	0.300590	0.845209
C168	C	1.823013	0.550590	1.095209
C169	C	1.068324	-0.099137	0.349940
C170	C	1.318324	0.150863	0.599940
C171	C	1.568324	0.400863	0.849940
C172	C	1.818324	0.650863	1.099940
C173	C	1.084014	-0.434712	0.142902
C174	C	1.334014	-0.184712	0.392902
C175	C	1.584014	0.065288	0.642902
C176	C	1.834014	0.315288	0.892902
C177	C	1.084127	-0.434484	0.061114
C178	C	1.334127	-0.184484	0.311114
C179	C	1.584127	0.065516	0.561114
C180	C	1.834127	0.315516	0.811114
C181	C	1.128462	-0.376883	0.798787
C182	C	1.378462	-0.126883	1.048787
C183	C	1.628462	0.123117	1.298787
C184	C	1.878462	0.373117	1.548787
C185	C	1.128470	-0.376856	0.875647
C186	C	1.378470	-0.126856	1.125647
C187	C	1.628470	0.123144	1.375647
C188	C	1.878470	0.373144	1.625647
C189	C	1.039736	-0.492230	0.870185
C190	C	1.289736	-0.242230	1.120185
C191	C	1.539736	0.007770	1.370185
C192	C	1.789736	0.257770	1.620185
C193	C	1.039725	-0.492251	0.793327
C194	C	1.289725	-0.242251	1.043327
C195	C	1.539725	0.007749	1.293327
C196	C	1.789725	0.257749	1.543327
C197	C	1.084093	-0.434579	0.757630
C198	C	1.334093	-0.184579	1.007630
C199	C	1.584093	0.065421	1.257630
C200	C	1.834093	0.315421	1.507630
C201	C	1.084111	-0.434531	0.911348
C202	C	1.334111	-0.184531	1.161348
C203	C	1.584111	0.065469	1.411348
C204	C	1.834111	0.315469	1.661348
C205	C	1.084119	-0.434503	0.994683
C206	C	1.334119	-0.184503	1.244683
C207	C	1.584119	0.065497	1.494683
C208	C	1.834119	0.315497	1.744683
C209	C	1.084084	-0.434605	0.674289
C210	C	1.334084	-0.184605	0.924289
C211	C	1.584084	0.065395	1.174289
C212	C	1.834084	0.315395	1.424289
H213	H	0.649214	-0.330168	0.424561
H214	H	0.899214	-0.080168	0.674561
H215	H	1.149214	0.169832	0.924561
H216	H	1.399214	0.419832	1.174561
O217	O	0.669860	-0.554485	0.230481
O218	O	0.919860	-0.304485	0.480481
O219	O	1.169860	-0.054485	0.730481
O220	O	1.419860	0.195515	0.980481
H221	H	0.729307	-0.544782	0.238844
H222	H	0.979307	-0.294782	0.488844
H223	H	1.229307	-0.044782	0.738844
H224	H	1.479307	0.205218	0.988844
O225	O	0.510105	-0.554522	0.230492
O226	O	0.760105	-0.304522	0.480492
O227	O	1.010105	-0.054522	0.730492
O228	O	1.260105	0.195478	0.980492
H229	H	0.551609	-0.594576	0.195816
H230	H	0.801609	-0.344576	0.445816
H231	H	1.051609	-0.094576	0.695816
H232	H	1.301609	0.155424	0.945816
H233	H	1.164599	-0.329873	0.909154
H234	H	1.414599	-0.079873	1.159154
H235	H	1.664599	0.170127	1.409154
H236	H	1.914599	0.420127	1.659154
H237	H	1.164587	-0.329919	0.769725
H238	H	1.414587	-0.079919	1.019725
H239	H	1.664587	0.170081	1.269725
H240	H	1.914587	0.420081	1.519725
H241	H	0.509787	-0.330190	0.424564
H242	H	0.759787	-0.080190	0.674564
H243	H	1.009787	0.169810	0.924564
H244	H	1.259787	0.419810	1.174564
O245	O	1.001687	-0.765681	0.416268
O246	O	1.251687	-0.515681	0.666268
O247	O	1.501687	-0.265681	0.916268
O248	O	1.751687	-0.015681	1.166268
H249	H	0.971239	-0.814270	0.446678
H250	H	1.221239	-0.564270	0.696678
H251	H	1.471239	-0.314270	0.946678
H252	H	1.721239	-0.064270	1.196678
H253	H	1.003616	-0.539187	0.899259
H254	H	1.253616	-0.289187	1.149259
H255	H	1.503616	-0.039187	1.399259
H256	H	1.753616	0.210813	1.649259
H257	H	0.974352	-0.919463	0.443668
H258	H	1.224352	-0.669463	0.693668
H259	H	1.474352	-0.419463	0.943668
H260	H	1.724352	-0.169463	1.193668
H261	H	0.982466	-1.090380	0.435657
H262	H	1.232466	-0.840380	0.685657
H263	H	1.482466	-0.590380	0.935657
H264	H	1.732466	-0.340380	1.185657
H265	H	1.003589	-0.539234	0.759815
H266	H	1.253589	-0.289234	1.009815
H267	H	1.503589	-0.039234	1.259815
H268	H	1.753589	0.210766	1.509815
H269	H	1.153342	-1.090390	0.265036
H270	H	1.403342	-0.840390	0.515036
H271	H	1.653342	-0.590390	0.765036
H272	H	1.903342	-0.340390	1.015036
H273	H	1.193730	-0.949065	0.224641
H274	H	1.443730	-0.699065	0.474641
H275	H	1.693730	-0.449065	0.724641
H276	H	1.943730	-0.199065	0.974641
H277	H	1.185620	-0.778122	0.232651
H278	H	1.435620	-0.528122	0.482651
H279	H	1.685620	-0.278122	0.732651
H280	H	1.935620	-0.028122	0.982651
