data_functionalizedCrystal
_audit_creation_method	'MofGen! by Chris Wilmer'
_symmetry_space_group_name_H-M	'P1'
_symmetry_Int_Tables_number	1
_symmetry_cell_setting	triclinic
loop_
_symmetry_equiv_pos_as_xyz
  x,y,z
_cell_length_a	10.654550
_cell_length_b	10.654541
_cell_length_c	9.130313
_cell_angle_alpha	89.995708
_cell_angle_beta	89.999724
_cell_angle_gamma	84.484430
loop_
_atom_site_label
_atom_site_type_symbol
_atom_site_fract_x
_atom_site_fract_y
_atom_site_fract_z
O1	O	1.667838	0.176399	-0.121689
O2	O	1.302359	0.193205	-0.121716
O3	O	1.493503	0.002063	-0.121693
O4	O	1.476694	0.367542	-0.121712
O5	O	1.493490	0.002057	0.121906
O6	O	1.302346	0.193200	0.121883
O7	O	1.667825	0.176393	0.121910
Cu8	Cu	1.485084	0.184796	0.144139
Cu9	Cu	1.485100	0.184803	-0.143945
O10	O	1.476681	0.367536	0.121887
C11	C	1.255555	0.191968	0.000080
C12	C	1.116112	0.188276	0.000070
C13	C	1.036625	0.300818	0.000068
C14	C	0.905604	0.297342	0.000094
C15	C	0.933569	0.068772	0.000117
C16	C	1.064588	0.072250	0.000102
C17	C	1.492263	-0.044738	0.000105
C18	C	1.488572	-0.184182	0.000103
C19	C	1.717137	-0.212153	0.000138
C20	C	1.829680	-0.291647	0.000158
C21	C	1.826204	-0.422665	0.000154
C22	C	1.710173	-0.474190	0.000124
C23	C	1.597630	-0.394696	0.000103
C24	C	1.601118	-0.263676	0.000113
C25	C	1.369069	-0.366725	0.000057
C26	C	1.372541	-0.235707	0.000073
C27	C	1.253037	-0.418251	0.000028
C28	C	1.140492	-0.338756	0.000018
C29	C	1.143972	-0.207731	0.000024
C30	C	1.259998	-0.156213	0.000052
C31	C	1.714629	0.177630	0.000110
C32	C	1.854072	0.181322	0.000111
C33	C	1.477921	0.414337	0.000085
C34	C	1.481612	0.553780	0.000078
N35	N	1.485082	0.184791	0.346761
N36	N	1.485111	0.184798	-0.346568
C37	C	1.569750	0.100189	0.423423
C38	C	1.569762	0.100189	0.576760
C39	C	1.400435	0.269404	0.576759
C40	C	1.400418	0.269397	0.423425
H41	H	1.129309	-0.019401	0.000107
Cl42	Cl	1.676202	-0.006175	0.673131
H43	H	1.078571	0.395294	0.000053
H44	H	0.840891	0.388985	0.000095
H45	H	1.331465	0.338290	0.361003
Cl46	Cl	1.294009	0.375766	0.673144
H47	H	0.891602	-0.025693	0.000151
H48	H	1.719978	-0.105472	0.000162
Cl49	Cl	1.975540	-0.226866	0.000187
Cl50	Cl	0.994641	-0.403537	-0.000037
H51	H	1.917847	-0.487390	0.000159
Cl52	Cl	1.002480	-0.107805	-0.000013
H53	H	1.707354	-0.580873	0.000102
Cl54	Cl	1.248668	-0.582960	-0.000071
Cl55	Cl	1.264383	0.008495	0.000071
H56	H	1.638687	0.031295	0.361007
