data_functionalizedCrystal
_audit_creation_method	'MofGen! by Chris Wilmer'
_symmetry_space_group_name_H-M	'P1'
_symmetry_Int_Tables_number	1
_symmetry_cell_setting	triclinic
loop_
_symmetry_equiv_pos_as_xyz
  x,y,z
_cell_length_a	12.594517
_cell_length_b	12.594516
_cell_length_c	12.645323
_cell_angle_alpha	90.025622
_cell_angle_beta	90.012948
_cell_angle_gamma	90.007702
loop_
_atom_site_label
_atom_site_type_symbol
_atom_site_fract_x
_atom_site_fract_y
_atom_site_fract_z
Zn1	Zn	1.627314	-0.423851	0.599166
Zn2	Zn	1.627213	-0.601854	0.421903
Zn3	Zn	1.449313	-0.423877	0.421940
Zn4	Zn	1.449313	-0.601775	0.599149
O5	O	1.538288	-0.512839	0.510539
O6	O	1.776246	-0.447485	0.575643
O7	O	1.603572	-0.578289	0.273561
O8	O	1.472967	-0.274928	0.445472
O9	O	1.776172	-0.578263	0.445409
O10	O	1.603744	-0.274908	0.575679
O11	O	1.472870	-0.447530	0.273588
O12	O	1.300367	-0.447453	0.445455
O13	O	1.472967	-0.578129	0.747498
O14	O	1.300367	-0.578154	0.575650
O15	O	1.603744	-0.447408	0.747511
O16	O	1.603572	-0.750789	0.445393
O17	O	1.472870	-0.750731	0.575614
C18	C	1.261747	-0.512799	0.510556
C19	C	1.143442	-0.512807	0.510588
C20	C	1.074219	-0.584034	0.581264
C21	C	1.003404	-0.486990	0.607336
C22	C	1.003458	-0.609932	0.484492
C23	C	1.074185	-0.415711	0.536711
C24	C	1.074245	-0.538719	0.413821
C25	C	1.003461	-0.441607	0.439857
C26	C	1.538239	-0.789380	0.510521
C27	C	1.538315	-0.907685	0.510549
C28	C	1.609487	-0.976931	0.439797
C29	C	1.635500	-1.047634	0.536551
C30	C	1.512435	-1.047782	0.413856
C31	C	1.564378	-0.976829	0.607354
C32	C	1.441268	-0.976972	0.484593
C33	C	1.467244	-1.047642	0.581414
C34	C	1.815909	-0.512880	0.510524
C35	C	1.934214	-0.512898	0.510517
C36	C	1.538367	-0.512757	0.787045
C37	C	1.538400	-0.512722	0.904875
C38	C	1.538367	-0.235218	0.510581
C39	C	1.538400	-0.116913	0.510599
C40	C	1.538271	-0.512844	0.235110
C41	C	1.538444	-0.512579	0.117280
C42	C	1.455875	-0.594570	1.072431
C43	C	1.456091	-0.594975	0.949871
C44	C	1.650553	-0.543171	0.949375
C45	C	1.650101	-0.543684	1.071974
C46	C	1.509832	-0.399967	1.072079
C47	C	1.507330	-0.400642	0.949473
H48	H	1.105385	-0.560632	0.332042
H49	H	0.972589	-0.381342	0.380059
N50	N	1.338309	-0.937970	0.456971
N51	N	1.321634	-0.840207	0.453305
H52	H	1.248919	-0.812657	0.433785
N53	N	1.577251	-0.319958	0.911024
N54	N	1.584799	-0.303410	0.813858
H55	H	1.634189	-0.246433	0.786696
H56	H	1.586221	-0.945796	0.689217
N57	N	1.391766	-1.086343	0.656568
N58	N	1.295881	-1.062342	0.647679
H59	H	1.242575	-1.089672	0.700758
H60	H	1.490511	-1.078947	0.332063
H61	H	1.669684	-0.945883	0.380018
N62	N	1.113004	-0.312691	0.564476
N63	N	1.210741	-0.296035	0.569021
H64	H	1.238161	-0.223279	0.588631
N65	N	0.964341	-0.459550	0.709949
N66	N	0.866568	-0.454438	0.726124
H67	H	0.838980	-0.435067	0.798597
N68	N	1.738503	-1.086595	0.564091
N69	N	1.812242	-1.022904	0.582965
H70	H	1.884992	-1.050427	0.602391
H71	H	1.713724	-0.485342	0.920230
N72	N	1.680524	-0.646945	1.107889
N73	N	1.761121	-0.657879	1.164545
H74	H	1.782607	-0.730809	1.189909
H75	H	0.972384	-0.692031	0.462452
N76	N	1.351759	-0.571066	0.912136
N77	N	1.278274	-0.553965	0.976345
H78	H	1.204583	-0.537084	0.949700
H79	H	1.474580	-0.677533	1.103246
H80	H	1.372463	-0.575698	1.101919
H81	H	1.474980	-0.678460	0.920553
H82	H	1.713708	-0.486559	1.101642
N83	N	1.681491	-0.645358	0.910861
N84	N	1.621136	-0.695936	0.850653
H85	H	1.642980	-0.768109	0.823452
H86	H	1.429473	-0.372213	1.102997
H87	H	1.105291	-0.644153	0.641109
N88	N	1.403789	-0.371846	0.912985
N89	N	1.353009	-0.433579	0.854350
H90	H	1.279881	-0.413245	0.828574
H91	H	1.569972	-0.338880	1.101083
