data_functionalizedCrystal
_audit_creation_method	'MofGen! by Chris Wilmer'
_symmetry_space_group_name_H-M	'P1'
_symmetry_Int_Tables_number	1
_symmetry_cell_setting	triclinic
loop_
_symmetry_equiv_pos_as_xyz
  x,y,z
_cell_length_a	12.645331
_cell_length_b	12.594516
_cell_length_c	12.645323
_cell_angle_alpha	90.023946
_cell_angle_beta	90.022676
_cell_angle_gamma	90.015032
loop_
_atom_site_label
_atom_site_type_symbol
_atom_site_fract_x
_atom_site_fract_y
_atom_site_fract_z
Zn1	Zn	1.620743	-0.423763	0.599453
Zn2	Zn	1.620630	-0.601766	0.422196
Zn3	Zn	1.443458	-0.423799	0.422197
Zn4	Zn	1.443445	-0.601696	0.599411
O5	O	1.532069	-0.512756	0.510814
O6	O	1.769076	-0.447389	0.575956
O7	O	1.597086	-0.578202	0.273849
O8	O	1.467028	-0.274848	0.445729
O9	O	1.768992	-0.578167	0.445726
O10	O	1.597279	-0.274822	0.575958
O11	O	1.466918	-0.447451	0.273850
O12	O	1.295109	-0.447383	0.445688
O13	O	1.467006	-0.578049	0.747764
O14	O	1.295099	-0.578084	0.575887
O15	O	1.597266	-0.447322	0.747795
O16	O	1.597073	-0.750702	0.445686
O17	O	1.466896	-0.750651	0.575885
C18	C	1.256639	-0.512731	0.510784
C19	C	1.138809	-0.512745	0.510796
C20	C	0.971216	-0.430143	0.429340
C21	C	1.093776	-0.430357	0.428981
C22	C	1.094292	-0.624870	0.480283
C23	C	0.971694	-0.624419	0.479727
C24	C	0.971659	-0.484290	0.623079
C25	C	1.094265	-0.481785	0.622456
C26	C	1.532000	-0.789297	0.510804
C27	C	1.532067	-0.907602	0.510835
C28	C	1.461256	-0.976866	0.581601
C29	C	1.435425	-1.047727	0.484868
C30	C	1.557995	-1.047540	0.607584
C31	C	1.506184	-0.976905	0.414051
C32	C	1.628799	-0.976712	0.536833
C33	C	1.603004	-1.047541	0.440033
C34	C	1.808574	-0.512782	0.510846
C35	C	1.926404	-0.512793	0.510859
C36	C	1.532147	-0.512674	0.787320
C37	C	1.532180	-0.512639	0.905150
C38	C	1.532168	-0.235135	0.510848
C39	C	1.532210	-0.116830	0.510862
C40	C	1.532052	-0.512761	0.235385
C41	C	1.532224	-0.512496	0.117555
C42	C	1.449981	-0.594491	1.072695
C43	C	1.450196	-0.594897	0.950135
C44	C	1.643881	-0.543081	0.949670
C45	C	1.643430	-0.543595	1.072269
C46	C	1.503736	-0.399885	1.072346
C47	C	1.501244	-0.400561	0.949740
H48	H	1.123463	-0.688096	0.537794
H49	H	1.401267	-0.945833	0.641358
H50	H	1.124948	-0.649457	0.399125
N51	N	1.675402	-0.652642	1.110167
H52	H	1.616466	-0.684133	1.153985
H53	H	1.741522	-0.646851	1.154624
H54	H	1.423702	-0.372136	1.103250
H55	H	0.943049	-0.648590	0.397688
H56	H	1.468604	-0.677453	1.103515
N57	N	1.132558	-0.455309	0.318825
H58	H	1.105541	-0.527413	0.296577
H59	H	1.212424	-0.455490	0.318204
N60	N	1.586971	-1.088651	0.715942
H61	H	1.533376	-1.062944	0.769323
H62	H	1.659481	-1.061702	0.736027
H63	H	1.419042	-0.377603	0.920640
H64	H	1.124924	-0.537592	0.686442
H65	H	1.706786	-0.486466	1.101946
H66	H	0.940760	-0.403956	0.650830
H67	H	0.941749	-0.346749	0.448260
H68	H	1.123366	-0.399274	0.645464
H69	H	1.662947	-1.078377	0.380132
N70	N	0.933284	-0.564025	0.703541
H71	H	0.886812	-0.618352	0.667536
H72	H	0.891416	-0.526213	0.760169
H73	H	1.367366	-0.575846	0.920033
H74	H	1.706802	-0.485249	0.920534
N75	N	1.475101	-0.705478	0.911294
H76	H	1.485994	-0.754147	0.973814
H77	H	1.541576	-0.703667	0.867085
H78	H	1.353687	-1.078944	0.462901
N79	N	0.929974	-0.454518	0.319911
H80	H	0.882433	-0.518899	0.322903
H81	H	0.991303	-0.469158	0.270893
H82	H	1.556770	-0.336240	0.919117
H83	H	1.710519	-0.945498	0.558846
N84	N	1.676426	-0.650979	0.909027
H85	H	1.618985	-0.680294	0.861787
H86	H	1.687861	-0.700566	0.970726
N87	N	1.477091	-0.935989	0.305652
H88	H	1.477185	-0.855798	0.306318
H89	H	1.404332	-0.962527	0.285929
H90	H	1.366905	-0.575624	1.102168
N91	N	1.583069	-0.318952	1.110771
H92	H	1.656141	-0.339640	1.086003
H93	H	1.581765	-0.316268	1.190585
N94	N	1.133657	-0.320224	0.454301
H95	H	1.107262	-0.298114	0.526393
H96	H	1.106883	-0.268688	0.399296
N97	N	0.932417	-0.708744	0.554944
H98	H	0.994747	-0.746049	0.588310
H99	H	0.888108	-0.761969	0.514821
