data_functionalizedCrystal
_audit_creation_method	'MofGen! by Chris Wilmer'
_symmetry_space_group_name_H-M	'P1'
_symmetry_Int_Tables_number	1
_symmetry_cell_setting	triclinic
loop_
_symmetry_equiv_pos_as_xyz
  x,y,z
_cell_length_a	25.639242
_cell_length_b	29.839131
_cell_length_c	29.839125
_cell_angle_alpha	89.988394
_cell_angle_beta	89.977328
_cell_angle_gamma	90.036947
loop_
_atom_site_label
_atom_site_type_symbol
_atom_site_fract_x
_atom_site_fract_y
_atom_site_fract_z
Zn1	Zn	0.799218	-0.178997	-0.254114
Zn2	Zn	0.799136	-0.254101	-0.178983
Zn3	Zn	0.711793	-0.178980	-0.178984
Zn4	Zn	0.711735	-0.254095	-0.254073
O5	O	0.755471	-0.216543	-0.216539
O6	O	0.872372	-0.188969	-0.244164
O7	O	0.787540	-0.244132	-0.116116
O8	O	0.723449	-0.116115	-0.188968
O9	O	0.872312	-0.244148	-0.188966
O10	O	0.787679	-0.116128	-0.244165
O11	O	0.723370	-0.188940	-0.116117
O12	O	0.638620	-0.188934	-0.188928
O13	O	0.723349	-0.244137	-0.316946
O14	O	0.638577	-0.244121	-0.244096
O15	O	0.787623	-0.188963	-0.316975
O16	O	0.787484	-0.316967	-0.188927
O17	O	0.723270	-0.316963	-0.244095
C18	C	0.619628	-0.216525	-0.216508
C19	C	0.561514	-0.216529	-0.216506
C20	C	0.201137	-0.245327	-0.245237
C21	C	0.146533	-0.245330	-0.245244
O22	O	0.118285	-0.269793	-0.269647
N23	N	0.119231	-0.216556	-0.216568
C24	C	0.146537	-0.187774	-0.187886
O25	O	0.118301	-0.163299	-0.163496
C26	C	0.201140	-0.187769	-0.187881
C27	C	0.228439	-0.216548	-0.216556
C28	C	0.228436	-0.274103	-0.273910
C29	C	0.283037	-0.274101	-0.273902
C30	C	0.310339	-0.245322	-0.245221
C31	C	0.283040	-0.216546	-0.216549
C32	C	0.228445	-0.158985	-0.159202
C33	C	0.283052	-0.158983	-0.159200
C34	C	0.310351	-0.187762	-0.187875
C35	C	0.364942	-0.187765	-0.187860
N36	N	0.392243	-0.216539	-0.216536
C37	C	0.364942	-0.245318	-0.245217
C38	C	0.031866	-0.187785	-0.187898
C39	C	-0.022736	-0.187792	-0.187900
C40	C	-0.022736	-0.245347	-0.245259
C41	C	0.031867	-0.245343	-0.245254
C42	C	0.059168	-0.216559	-0.216574
C43	C	0.479607	-0.245311	-0.245198
C44	C	0.534212	-0.245307	-0.245186
C45	C	0.534208	-0.187751	-0.187829
C46	C	0.479607	-0.187756	-0.187839
C47	C	0.452308	-0.216537	-0.216527
O48	O	0.393225	-0.163313	-0.163471
O49	O	0.393185	-0.269784	-0.269607
C50	C	0.755376	-0.333266	-0.216516
C51	C	0.755384	-0.383200	-0.216522
C52	C	0.788967	-0.692833	-0.187855
C53	C	0.789032	-0.880506	-0.187872
O54	O	0.817511	-0.904762	-0.163481
N55	N	0.755579	-0.903985	-0.216573
C56	C	0.722110	-0.880543	-0.245273
O57	O	0.693662	-0.904819	-0.269688
C58	C	0.722049	-0.692871	-0.245257
C59	C	0.755500	-0.669394	-0.216552
C60	C	0.822416	-0.669357	-0.159152
C61	C	0.822398	-0.622441	-0.159146
C62	C	0.788930	-0.599002	-0.187843
C63	C	0.755481	-0.622479	-0.216546
C64	C	0.688583	-0.669429	-0.273959
C65	C	0.688571	-0.622508	-0.273954
C66	C	0.722022	-0.599032	-0.245248
C67	C	0.721995	-0.552124	-0.245237
N68	N	0.755448	-0.528646	-0.216537
C69	C	0.788916	-0.552085	-0.187840
C70	C	0.722144	-0.979074	-0.245278
C71	C	0.722159	-1.025991	-0.245282
C72	C	0.789081	-1.025952	-0.187881
C73	C	0.789063	-0.979033	-0.187876
C74	C	0.755597	-0.955595	-0.216578
C75	C	0.788874	-0.453559	-0.187829
C76	C	0.788851	-0.406639	-0.187825
C77	C	0.721931	-0.406683	-0.245226
C78	C	0.721951	-0.453599	-0.245230
C79	C	0.755427	-0.477035	-0.216529
O80	O	0.693535	-0.527839	-0.269619
O81	O	0.817368	-0.527800	-0.163435
C82	C	0.788986	-0.739749	-0.187860
C83	C	0.755537	-0.763225	-0.216563
C84	C	0.722069	-0.739786	-0.245260
C85	C	0.755551	-0.810143	-0.216567
C86	C	0.789019	-0.833582	-0.187870
C87	C	0.822472	-0.810103	-0.159169
C88	C	0.822453	-0.763188	-0.159163
C89	C	0.688617	-0.763265	-0.273961
C90	C	0.688637	-0.810181	-0.273964
C91	C	0.722105	-0.833620	-0.245267
C92	C	0.891844	-0.216561	-0.216569
C93	C	0.949958	-0.216569	-0.216583
C94	C	0.755489	-0.216552	-0.333717
C95	C	0.755496	-0.216555	-0.383651
C96	C	0.755580	-0.099365	-0.216571
C97	C	0.755626	-0.049430	-0.216585
C98	C	0.722066	-0.245181	-0.740223
C99	C	0.722047	-0.245233	-0.552550
O100	O	0.693571	-0.269657	-0.528272
N101	N	0.755508	-0.216514	-0.529097
C102	C	0.788974	-0.187777	-0.552564
O103	O	0.817430	-0.163347	-0.528309
C104	C	0.788989	-0.187723	-0.740237
C105	C	0.755530	-0.216448	-0.763688
C106	C	0.688608	-0.273903	-0.763674
C107	C	0.688615	-0.273892	-0.810590
C108	C	0.722080	-0.245158	-0.834054
C109	C	0.755537	-0.216436	-0.810603
C110	C	0.822452	-0.158985	-0.763703
C111	C	0.822452	-0.158973	-0.810624
C112	C	0.788993	-0.187698	-0.834075
C113	C	0.789008	-0.187692	-0.880983
N114	N	0.755547	-0.216411	-0.904436
C115	C	0.722083	-0.245144	-0.880972
C116	C	0.788964	-0.187808	-0.454034
C117	C	0.788961	-0.187822	-0.407116
C118	C	0.722033	-0.245277	-0.407105
C119	C	0.722039	-0.245265	-0.454024
C120	C	0.755503	-0.216527	-0.477487
C121	C	0.722100	-0.245118	-0.979498
C122	C	0.722112	-0.245106	-1.026418
C123	C	0.789038	-0.187649	-1.026424
C124	C	0.789028	-0.187663	-0.979509
C125	C	0.755555	-0.216399	-0.956047
O126	O	0.817465	-0.163277	-0.905290
O127	O	0.693622	-0.269563	-0.905235
C128	C	0.722058	-0.245193	-0.693308
C129	C	0.755516	-0.216471	-0.669857
C130	C	0.788980	-0.187738	-0.693321
C131	C	0.755513	-0.216485	-0.622939
C132	C	0.722048	-0.245218	-0.599475
C133	C	0.688587	-0.273938	-0.622928
C134	C	0.688594	-0.273926	-0.669844
C135	C	0.822441	-0.159018	-0.669867
C136	C	0.822432	-0.159032	-0.622952
C137	C	0.788968	-0.187766	-0.599488
C138	C	0.755483	-0.216502	-0.099816
C139	C	0.755576	-0.216372	-0.049882
H140	H	-0.044975	-0.268779	-0.268614
H141	H	0.694839	-0.268514	-0.960401
H142	H	0.054090	-0.268776	-0.268605
C143	C	0.859242	-0.127430	-0.597161
N144	N	0.886962	-0.103624	-0.577737
H145	H	0.457379	-0.164322	-0.164489
H146	H	0.661341	-0.688536	-0.297332
C147	C	0.859268	-0.127360	-0.836431
N148	N	0.886998	-0.103550	-0.855868
H149	H	0.849692	-0.744077	-0.135789
H150	H	-0.044958	-0.164361	-0.164546
H151	H	0.556446	-0.164321	-0.164477
C152	C	0.859285	-0.835895	-0.127602
N153	N	0.887014	-0.855324	-0.103828
C154	C	0.061892	-0.156125	-0.156340
N155	N	0.084505	-0.132278	-0.132571
H156	H	0.661368	-0.297281	-0.829680
C157	C	0.685300	-0.276704	-1.052211
N158	N	0.657573	-0.300503	-1.071637
C159	C	0.198428	-0.127320	-0.127662
N160	N	0.175821	-0.103466	-0.103906
H161	H	0.661348	-0.297317	-0.688933
C162	C	0.651754	-0.596729	-0.305529
N163	N	0.624023	-0.577314	-0.329311
C164	C	0.313079	-0.127319	-0.127648
N165	N	0.335695	-0.103472	-0.103881
C166	C	0.825649	-0.380818	-0.156243
N167	N	0.853364	-0.361371	-0.132456
H168	H	0.457387	-0.268747	-0.268560
C169	C	0.685228	-0.276861	-0.479815
N170	N	0.657498	-0.300659	-0.499240
H171	H	0.816134	-0.472635	-0.164460
C172	C	0.859193	-0.596623	-0.127564
N173	N	0.886908	-0.577180	-0.103773
C174	C	0.313058	-0.305758	-0.305449
N175	N	0.335667	-0.329603	-0.329213
H176	H	0.849672	-0.688436	-0.135783
C177	C	0.825841	-0.156039	-1.052244
N178	N	0.853558	-0.132226	-1.071693
H179	H	0.206213	-0.297538	-0.297268
C180	C	0.825864	-0.953213	-0.156299
N181	N	0.853584	-0.933768	-0.132515
H182	H	0.661364	-0.744185	-0.297330
H183	H	0.816332	-1.045043	-0.164515
H184	H	0.849692	-0.135619	-0.688967
C185	C	0.685355	-1.051810	-0.276856
N186	N	0.657635	-1.071255	-0.300640
C187	C	0.825782	-0.156195	-0.479838
N188	N	0.853516	-0.132385	-0.499271
H189	H	0.661354	-0.297301	-0.744575
C190	C	0.859256	-0.127380	-0.737917
N191	N	0.886976	-0.103571	-0.718496
C192	C	0.564238	-0.276968	-0.276733
N193	N	0.586851	-0.300813	-0.300494
C194	C	0.651835	-0.835999	-0.305544
N195	N	0.624119	-0.855445	-0.329332
C196	C	0.825839	-0.156068	-0.953712
N197	N	0.853563	-0.132267	-0.934285
H198	H	0.694890	-0.959993	-0.268651
H199	H	0.694785	-0.268674	-0.387992
H200	H	0.661341	-0.297335	-0.603815
C201	C	0.685152	-0.479423	-0.276805
N202	N	0.657438	-0.498872	-0.300592
H203	H	0.694680	-0.387592	-0.268590
H204	H	0.816212	-0.164436	-0.388026
