data_functionalizedCrystal
_audit_creation_method	'MofGen! by Chris Wilmer'
_symmetry_space_group_name_H-M	'P1'
_symmetry_Int_Tables_number	1
_symmetry_cell_setting	triclinic
loop_
_symmetry_equiv_pos_as_xyz
  x,y,z
_cell_length_a	16.109301
_cell_length_b	16.992695
_cell_length_c	14.586319
_cell_angle_alpha	89.995905
_cell_angle_beta	89.999213
_cell_angle_gamma	87.064852
loop_
_atom_site_label
_atom_site_type_symbol
_atom_site_fract_x
_atom_site_fract_y
_atom_site_fract_z
O1	O	1.109856	0.100784	-0.076183
O2	O	0.868631	0.113326	-0.076198
O3	O	0.988277	-0.007087	-0.076183
O4	O	0.990211	0.221197	-0.076198
O5	O	0.988268	-0.007089	0.076298
O6	O	0.868622	0.113324	0.076283
O7	O	1.109847	0.100782	0.076298
Cu8	Cu	0.989234	0.107053	0.090213
Cu9	Cu	0.989244	0.107055	-0.090113
O10	O	0.990202	0.221196	0.076283
C11	C	0.837618	0.112817	0.000041
C12	C	0.745221	0.111294	0.000035
C13	C	0.527480	0.179203	0.000042
C14	C	0.440664	0.177766	0.000048
C15	C	0.451005	0.034899	0.000053
C16	C	0.537819	0.036337	0.000054
C17	C	0.576055	0.108492	0.000043
C18	C	0.402424	0.105616	0.000049
C19	C	0.308294	0.104057	0.000055
C20	C	0.670191	0.110051	0.000039
C21	C	0.985784	-0.036300	0.000057
C22	C	0.978361	-0.123343	0.000056
C23	C	1.049987	-0.173601	0.000062
C24	C	1.043007	-0.255386	0.000052
C25	C	0.964400	-0.286911	0.000045
C26	C	0.892768	-0.236645	0.000037
C27	C	0.899749	-0.154862	0.000039
C28	C	0.935467	-0.530501	0.000030
C29	C	0.928491	-0.612291	0.000030
C30	C	1.078731	-0.631026	0.000045
C31	C	1.085704	-0.549240	0.000053
C32	C	1.014073	-0.498982	0.000040
N33	N	0.957263	-0.370508	0.000038
N34	N	1.021210	-0.415387	0.000040
C35	C	1.140860	0.101291	0.000057
C36	C	1.233257	0.102814	0.000057
C37	C	0.992694	0.250408	0.000041
C38	C	1.000118	0.337451	0.000036
N39	N	0.989232	0.107051	0.217045
N40	N	0.989252	0.107051	-0.216945
C41	C	1.042231	0.053750	0.452058
C42	C	1.042233	0.053748	0.548039
C43	C	0.936247	0.160355	0.548036
C44	C	0.936241	0.160352	0.452056
C45	C	0.989238	0.107051	0.404070
C46	C	0.989246	0.107051	0.596030
C47	C	0.989248	0.107050	0.700098
C48	C	0.989235	0.107051	0.299996
H49	H	0.577371	-0.021248	0.000057
H50	H	0.864477	-0.637954	0.000039
H51	H	0.558608	0.237956	0.000040
O52	O	0.393602	0.246528	0.000002
C53	C	0.392513	0.388384	0.000047
C54	C	0.445908	0.310566	0.000075
H55	H	0.434780	0.440179	0.000126
H56	H	0.351628	0.391338	-0.063779
H57	H	0.351592	0.391239	0.063847
H58	H	0.486878	0.307659	-0.063681
H59	H	0.486739	0.307644	0.063944
O60	O	0.413994	-0.035256	0.000092
C61	C	0.433415	-0.176808	0.000029
C62	C	0.475433	-0.097411	0.000012
H63	H	0.483069	-0.227082	-0.000055
H64	H	0.393052	-0.181114	0.063854
H65	H	0.393008	-0.181004	-0.063772
H66	H	0.515882	-0.093162	0.063771
H67	H	0.515747	-0.093140	-0.063854
O68	O	1.093613	0.001847	0.405505
C69	C	1.133277	-0.134498	0.376263
C70	C	1.075023	-0.075790	0.429007
H71	H	1.118280	-0.197280	0.395260
H72	H	1.124186	-0.125437	0.299403
H73	H	1.200541	-0.124230	0.395126
H74	H	1.007738	-0.086022	0.410220
H75	H	1.084187	-0.084865	0.505854
H76	H	1.085384	0.010345	0.587108
H77	H	0.877139	-0.489590	0.000020
H78	H	1.113997	-0.147941	0.000074
H79	H	1.101332	-0.296304	0.000059
O80	O	1.162084	-0.518661	-0.000102
C81	C	1.292658	-0.509693	-0.079049
C82	C	1.206176	-0.544358	-0.079006
H83	H	1.328338	-0.530468	-0.142825
H84	H	1.285399	-0.442603	-0.079103
H85	H	1.328285	-0.530389	-0.015202
H86	H	1.170502	-0.523722	-0.142841
H87	H	1.213494	-0.611443	-0.078903
H88	H	0.893100	0.203753	0.587116
H89	H	0.893084	0.203757	0.412982
O90	O	1.148284	-0.679879	-0.000114
C91	C	1.227575	-0.783114	-0.079085
C92	C	1.148778	-0.727821	-0.079025
H93	H	1.227991	-0.821901	-0.142868
H94	H	1.284985	-0.746574	-0.079140
H95	H	1.228053	-0.821841	-0.015245
H96	H	1.148218	-0.689082	-0.142854
H97	H	1.091403	-0.764408	-0.078922
H98	H	0.828765	-0.262319	0.000024
O99	O	0.830087	-0.106150	0.000075
C100	C	0.680335	-0.096193	-0.000002
C101	C	0.759161	-0.151448	-0.000013
H102	H	0.622971	-0.132794	-0.000092
H103	H	0.679780	-0.057452	0.063825
H104	H	0.679903	-0.057418	-0.063801
H105	H	0.759645	-0.190272	0.063743
H106	H	0.759684	-0.190136	-0.063882
