data_functionalizedCrystal
_audit_creation_method	'MofGen! by Chris Wilmer'
_symmetry_space_group_name_H-M	'P1'
_symmetry_Int_Tables_number	1
_symmetry_cell_setting	triclinic
loop_
_symmetry_equiv_pos_as_xyz
  x,y,z
_cell_length_a	12.759395
_cell_length_b	25.639240
_cell_length_c	12.759387
_cell_angle_alpha	90.043601
_cell_angle_beta	90.021426
_cell_angle_gamma	90.033446
loop_
_atom_site_label
_atom_site_type_symbol
_atom_site_fract_x
_atom_site_fract_y
_atom_site_fract_z
Zn1	Zn	1.606137	-0.208114	0.593937
Zn2	Zn	1.605972	-0.295559	0.418219
Zn3	Zn	1.430435	-0.208141	0.418271
Zn4	Zn	1.430372	-0.295521	0.593855
O5	O	1.518229	-0.251834	0.506070
O6	O	1.753136	-0.219718	0.570640
O7	O	1.582644	-0.283991	0.271204
O8	O	1.453838	-0.134972	0.441631
O9	O	1.753015	-0.283964	0.441540
O10	O	1.582925	-0.134952	0.570692
O11	O	1.453678	-0.219765	0.271243
O12	O	1.283406	-0.219727	0.441550
O13	O	1.453730	-0.283899	0.740887
O14	O	1.283359	-0.283925	0.570551
O15	O	1.582864	-0.219681	0.740948
O16	O	1.582583	-0.368720	0.441460
O17	O	1.453570	-0.368691	0.570500
C18	C	1.245262	-0.251825	0.506048
C19	C	1.128485	-0.251834	0.506063
C20	C	0.909052	-0.318804	0.640214
C21	C	0.963919	-0.352277	0.707264
C22	C	1.073640	-0.352271	0.707251
C23	C	1.128497	-0.318788	0.640178
C24	C	1.073630	-0.285314	0.573127
C25	C	0.963906	-0.285323	0.573150
C26	C	1.073618	-0.218361	0.439013
C27	C	0.963896	-0.218364	0.439030
C28	C	1.128475	-0.184878	0.371940
C29	C	1.073608	-0.151401	0.304893
C30	C	0.963880	-0.151408	0.304910
C31	C	0.909029	-0.184890	0.371980
C32	C	1.518081	-0.387676	0.505988
C33	C	1.518113	-0.445790	0.505988
C34	C	1.585478	-0.806104	0.573394
C35	C	1.585509	-0.860709	0.573415
O36	O	1.642609	-0.888904	0.630641
N37	N	1.518375	-0.888073	0.506172
C38	C	1.451198	-0.860830	0.438911
O39	O	1.394097	-0.889119	0.381718
C40	C	1.451162	-0.806226	0.438895
C41	C	1.518308	-0.778865	0.506135
C42	C	1.652618	-0.778743	0.640629
C43	C	1.652588	-0.724143	0.640606
C44	C	1.585418	-0.696903	0.573348
C45	C	1.518278	-0.724265	0.506112
C46	C	1.383980	-0.778984	0.371640
C47	C	1.383950	-0.724377	0.371631
C48	C	1.451096	-0.697016	0.438871
C49	C	1.451079	-0.642425	0.438831
N50	N	1.518213	-0.615061	0.506074
C51	C	1.585383	-0.642300	0.573333
C52	C	1.451276	-0.975500	0.438949
C53	C	1.451316	-1.030102	0.438958
C54	C	1.585626	-1.029978	0.573464
C55	C	1.585591	-0.975375	0.573449
C56	C	1.518410	-0.948136	0.506192
C57	C	1.585316	-0.527635	0.573279
C58	C	1.585283	-0.473030	0.573246
C59	C	1.450969	-0.473159	0.438745
C60	C	1.451005	-0.527760	0.438772
C61	C	1.518182	-0.554996	0.506048
O62	O	1.394005	-0.614195	0.381637
O63	O	1.642464	-0.614004	0.630526
C64	C	1.792262	-0.251842	0.506094
C65	C	1.909039	-0.251846	0.506104
C66	C	1.518308	-0.251782	0.780104
C67	C	1.518342	-0.251761	0.896881
C68	C	1.518407	-0.115461	0.506176
C69	C	1.518482	-0.057347	0.506221
C70	C	1.518210	-0.251847	0.233103
C71	C	1.518380	-0.251722	0.116327
C72	C	1.652818	-0.184895	0.896964
C73	C	1.720071	-0.151454	0.951866
C74	C	1.720096	-0.151435	1.061588
C75	C	1.652860	-0.184859	1.116410
C76	C	1.585607	-0.218300	1.061507
C77	C	1.585591	-0.218317	0.951783
C78	C	1.451128	-0.285162	1.061425
C79	C	1.451106	-0.285185	0.951703
C80	C	1.383891	-0.318586	1.116247
C81	C	1.316642	-0.352030	1.061344
C82	C	1.316620	-0.352048	0.951616
C83	C	1.383853	-0.318625	0.896801
H84	H	1.639965	-0.450754	0.628001
H85	H	1.261898	-0.379239	1.105989
N86	N	0.904759	-0.388387	0.779614
H87	H	0.923811	-0.425733	0.763148
H88	H	0.826943	-0.383270	0.769425
N89	N	1.657772	-0.557012	0.645826
H90	H	1.615069	-0.579662	0.694489
H91	H	1.700287	-0.531358	0.688343
H92	H	1.118313	-0.379529	0.761847
H93	H	1.640267	-0.953100	0.628202
H94	H	0.819688	-0.184897	0.372005
N95	N	0.904708	-0.115307	0.232581
H96	H	0.859145	-0.136532	0.183818
H97	H	0.956182	-0.094108	0.190162
H98	H	1.118281	-0.124144	0.250282
N99	N	1.383807	-0.318631	0.778459
H100	H	1.330994	-0.344882	0.751993
H101	H	1.455888	-0.328233	0.752093
N102	N	1.652888	-0.184838	1.234752
H103	H	1.600094	-0.211086	1.261150
H104	H	1.633664	-0.148948	1.261122
N105	N	1.725002	-0.694636	0.713138
H106	H	1.767549	-0.720184	0.755746
H107	H	1.682194	-0.671979	0.761714
H108	H	1.217838	-0.318791	0.640163
H109	H	1.652814	-0.184912	0.807623
N110	N	1.792607	-0.115419	0.892729
H111	H	1.749956	-0.091193	0.847203
H112	H	1.841225	-0.136731	0.847269
H113	H	1.217816	-0.184877	0.371929
N114	N	1.658077	-1.059363	0.646011
H115	H	1.647902	-1.098105	0.635814
H116	H	1.641678	-1.049793	0.721028
N117	N	1.378911	-1.059611	0.366420
H118	H	1.336360	-1.034064	0.323811
H119	H	1.330275	-1.082267	0.409144
H120	H	1.707316	-0.800916	0.695405
N121	N	0.790710	-0.318804	0.640241
H122	H	0.764284	-0.345092	0.692905
H123	H	0.764310	-0.328357	0.568102
N124	N	1.792627	-0.115364	1.120803
H125	H	1.867679	-0.123491	1.101717
H126	H	1.782349	-0.120440	1.198610
N127	N	1.378821	-0.946123	0.366394
H128	H	1.336305	-0.971748	0.323802
H129	H	1.421599	-0.923472	0.317803
H130	H	1.396283	-0.450972	0.383980
N131	N	1.311559	-0.808486	0.299114
H132	H	1.269005	-0.782937	0.256515
H133	H	1.262927	-0.831142	0.341844
H134	H	1.329240	-0.702202	0.316864
H135	H	1.383913	-0.318566	1.205588
H136	H	1.396338	-0.550038	0.384012
H137	H	1.261843	-0.379274	0.906921
