data_functionalizedCrystal
_audit_creation_method	'MofGen! by Chris Wilmer'
_symmetry_space_group_name_H-M	'P1'
_symmetry_Int_Tables_number	1
_symmetry_cell_setting	triclinic
loop_
_symmetry_equiv_pos_as_xyz
  x,y,z
_cell_length_a	18.215407
_cell_length_b	16.625546
_cell_length_c	18.215399
_cell_angle_alpha	89.970824
_cell_angle_beta	89.980167
_cell_angle_gamma	90.022916
loop_
_atom_site_label
_atom_site_type_symbol
_atom_site_fract_x
_atom_site_fract_y
_atom_site_fract_z
Zn1	Zn	1.125084	-0.321000	-0.416110
Zn2	Zn	1.124998	-0.455841	-0.293041
Zn3	Zn	1.002017	-0.321027	-0.293057
Zn4	Zn	1.001988	-0.455796	-0.416066
O5	O	1.063522	-0.388416	-0.354568
O6	O	1.228057	-0.338895	-0.399796
O7	O	1.108660	-0.437987	-0.190059
O8	O	1.018390	-0.208191	-0.309405
O9	O	1.227994	-0.437961	-0.309378
O10	O	1.108807	-0.208171	-0.399812
O11	O	1.018307	-0.338940	-0.190070
O12	O	0.899029	-0.338896	-0.309363
O13	O	1.018341	-0.437885	-0.519056
O14	O	0.899008	-0.437910	-0.399737
O15	O	1.108779	-0.338851	-0.519088
O16	O	1.108632	-0.568667	-0.309335
O17	O	1.018257	-0.568634	-0.399721
C18	C	0.872315	-0.388402	-0.354547
C19	C	0.790517	-0.388415	-0.354556
C20	C	0.602331	-0.440053	-0.401554
C21	C	0.525472	-0.440056	-0.401563
C22	C	0.525465	-0.336793	-0.307598
C23	C	0.602322	-0.336787	-0.307593
C24	C	0.640753	-0.388422	-0.354570
C25	C	0.487037	-0.388430	-0.354584
C26	C	0.403703	-0.388433	-0.354594
C27	C	0.724092	-0.388418	-0.354562
C28	C	1.063452	-0.597907	-0.354537
C29	C	1.063490	-0.687528	-0.354549
C30	C	1.063618	-1.015703	-0.354625
C31	C	1.063580	-0.924395	-0.354606
C32	C	1.063553	-0.851618	-0.354587
C33	C	1.063516	-0.760304	-0.354568
C34	C	1.255475	-0.388430	-0.354590
C35	C	1.337274	-0.388436	-0.354599
C36	C	1.063567	-0.388360	-0.546521
C37	C	1.063586	-0.388336	-0.628320
C38	C	1.063612	-0.178107	-0.354615
C39	C	1.063650	-0.088486	-0.354635
C40	C	1.110694	-0.336721	-0.816532
C41	C	1.110703	-0.336698	-0.893391
C42	C	1.016530	-0.439827	-0.893346
C43	C	1.016518	-0.439846	-0.816489
C44	C	1.063604	-0.388294	-0.778084
C45	C	1.063625	-0.388252	-0.931800
C46	C	1.063634	-0.388227	-1.015134
C47	C	1.063594	-0.388318	-0.694745
C48	C	1.063519	-0.388413	-0.163362
C49	C	1.063643	-0.388209	-0.081563
H50	H	0.633619	-0.482096	-0.439808
H51	H	0.633606	-0.294737	-0.269333
H52	H	1.149033	-0.294743	-0.785265
F53	F	0.966422	-0.494691	-0.934226
F54	F	0.484557	-0.281844	-0.257604
F55	F	0.966392	-0.494736	-0.775567
F56	F	0.484584	-0.495008	-0.451572
F57	F	1.160827	-0.281812	-0.934307
