data_functionalizedCrystal
_audit_creation_method	'MofGen! by Chris Wilmer'
_symmetry_space_group_name_H-M	'P1'
_symmetry_Int_Tables_number	1
_symmetry_cell_setting	triclinic
loop_
_symmetry_equiv_pos_as_xyz
  x,y,z
_cell_length_a	18.101398
_cell_length_b	21.295417
_cell_length_c	18.101390
_cell_angle_alpha	89.962939
_cell_angle_beta	89.975319
_cell_angle_gamma	90.025773
loop_
_atom_site_label
_atom_site_type_symbol
_atom_site_fract_x
_atom_site_fract_y
_atom_site_fract_z
Zn1	Zn	1.132127	-0.250665	-0.418817
Zn2	Zn	1.132023	-0.355945	-0.294967
Zn3	Zn	1.008285	-0.250685	-0.294979
Zn4	Zn	1.008238	-0.355891	-0.418755
O5	O	1.070168	-0.303296	-0.356880
O6	O	1.235746	-0.264644	-0.402409
O7	O	1.115585	-0.342013	-0.191335
O8	O	1.024776	-0.162593	-0.311437
O9	O	1.235670	-0.341993	-0.311417
O10	O	1.115762	-0.162578	-0.402421
O11	O	1.024675	-0.264679	-0.191344
O12	O	0.904646	-0.264627	-0.311377
O13	O	1.024695	-0.341902	-0.522397
O14	O	0.904611	-0.341921	-0.402315
O15	O	1.115716	-0.264592	-0.522442
O16	O	1.115540	-0.444027	-0.311357
O17	O	1.024595	-0.443988	-0.402304
C18	C	0.877758	-0.303271	-0.356841
C19	C	0.795443	-0.303275	-0.356842
C20	C	0.496352	-0.303314	-0.356904
C21	C	0.527675	-0.254439	-0.299967
C22	C	0.613293	-0.254571	-0.299724
C23	C	0.644735	-0.303294	-0.356873
C24	C	0.613618	-0.369607	-0.335543
C25	C	0.527972	-0.369335	-0.335147
C26	C	0.527967	-0.286453	-0.435305
C27	C	0.613618	-0.284977	-0.434877
C28	C	0.728594	-0.303287	-0.356857
C29	C	0.412493	-0.303326	-0.356919
C30	C	1.070071	-0.466848	-0.356839
C31	C	1.070097	-0.536816	-0.356846
C32	C	1.117494	-0.569682	-0.309538
C33	C	1.117529	-0.635425	-0.309555
C34	C	1.070153	-0.668299	-0.356871
C35	C	1.022753	-0.635424	-0.404188
C36	C	1.022725	-0.569683	-0.404175
N37	N	1.005369	-0.771559	-0.362504
N38	N	1.005398	-0.834011	-0.362512
C39	C	1.070236	-0.866373	-0.356914
N40	N	1.135046	-0.833925	-0.351293
N41	N	1.135017	-0.771468	-0.351282
C42	C	1.070179	-0.739584	-0.356891
C43	C	1.117675	-0.970525	-0.309622
C44	C	1.117711	-1.036269	-0.309644
C45	C	1.022929	-1.036267	-0.404273
C46	C	1.022899	-0.970525	-0.404255
C47	C	1.070271	-0.937658	-0.356925
C48	C	1.263330	-0.303322	-0.356919
C49	C	1.345644	-0.303334	-0.356936
C50	C	1.070212	-0.303239	-0.550042
C51	C	1.070231	-0.303214	-0.632356
C52	C	1.070286	-0.139106	-0.356937
C53	C	1.070336	-0.069138	-0.356961
C54	C	1.070271	-0.303175	-0.931447
C55	C	1.127727	-0.254705	-0.900150
C56	C	1.127548	-0.254525	-0.814532
C57	C	1.070252	-0.303195	-0.783064
C58	C	0.992235	-0.285166	-0.814132
C59	C	0.992579	-0.284803	-0.899778
C60	C	1.090144	-0.369798	-0.899855
C61	C	1.091857	-0.369458	-0.814205
C62	C	1.070236	-0.303207	-0.699205
C63	C	1.070281	-0.303162	-1.015306
C64	C	1.070167	-0.303308	-0.164469
C65	C	1.070292	-0.303155	-0.082155
H66	H	0.633983	-0.406998	-0.375715
H67	H	0.984181	-0.662194	-0.442715
H68	H	0.635032	-0.384153	-0.278847
C69	C	0.498543	-0.269318	-0.221947
C70	C	0.452316	-0.220283	-0.179892
C71	C	0.423175	-0.235163	-0.101876
C72	C	0.440260	-0.299078	-0.065915
C73	C	0.486489	-0.348118	-0.107971
C74	C	0.515631	-0.333238	-0.185987
H75	H	0.439667	-0.172965	-0.206512
H76	H	0.388953	-0.198860	-0.070743
H77	H	0.418688	-0.310094	-0.008163
H78	H	0.499139	-0.395436	-0.081351
H79	H	0.549852	-0.369541	-0.217120
C80	C	0.970582	-0.533527	-0.456214
C81	C	0.886400	-0.542629	-0.450088
C82	C	0.834255	-0.506472	-0.502126
C83	C	0.866291	-0.461212	-0.560290
C84	C	0.950477	-0.452107	-0.566418
C85	C	1.002622	-0.488265	-0.514380
H86	H	0.862681	-0.576135	-0.407030
H87	H	0.771935	-0.513212	-0.497589
H88	H	0.827690	-0.434446	-0.598811
H89	H	0.974196	-0.418601	-0.609476
H90	H	1.064942	-0.481525	-0.518917
H91	H	1.185399	-0.265816	-0.793528
H92	H	0.633746	-0.265717	-0.241630
C93	C	0.499883	-0.187805	-0.317827
C94	C	0.416429	-0.173800	-0.318048
C95	C	0.388631	-0.107164	-0.335911
C96	C	0.444288	-0.054533	-0.353553
C97	C	0.527747	-0.068536	-0.353332
C98	C	0.555545	-0.135172	-0.335470
H99	H	0.375224	-0.212762	-0.304988
H100	H	0.326849	-0.096798	-0.336074
H101	H	0.423710	-0.005205	-0.366776
H102	H	0.568952	-0.029575	-0.366393
H103	H	0.617327	-0.145538	-0.335307
C104	C	0.498829	-0.222266	-0.461508
C105	C	0.415179	-0.211716	-0.470702
C106	C	0.386039	-0.147527	-0.496897
C107	C	0.440550	-0.093887	-0.513897
C108	C	0.524205	-0.104435	-0.504703
C109	C	0.553344	-0.168624	-0.478509
H110	H	0.374822	-0.251425	-0.458117
H111	H	0.324112	-0.139719	-0.503702
H112	H	0.418979	-0.046370	-0.533288
H113	H	0.564561	-0.064726	-0.517288
H114	H	0.615272	-0.176432	-0.471703
C115	C	1.169665	-0.671586	-0.257508
C116	C	1.227810	-0.716722	-0.289656
C117	C	1.279945	-0.752880	-0.237608
C118	C	1.273934	-0.743903	-0.153413
C119	C	1.215786	-0.698765	-0.121261
C120	C	1.163652	-0.662607	-0.173309
H121	H	1.232262	-0.723369	-0.351987
H122	H	1.322990	-0.786294	-0.261410
H123	H	1.312527	-0.770669	-0.114884
H124	H	1.211335	-0.692118	-0.058930
H125	H	1.120607	-0.629193	-0.149507
H126	H	0.948263	-0.319382	-0.793747
C127	C	1.033617	-0.418590	-0.927198
C128	C	1.040968	-0.487844	-0.903809
C129	C	0.984440	-0.536631	-0.931158
C130	C	0.920561	-0.516163	-0.981897
C131	C	0.913207	-0.446905	-1.005289
C132	C	0.969735	-0.398119	-0.977939
H133	H	1.088258	-0.502999	-0.866247
H134	H	0.989884	-0.587900	-0.913842
H135	H	0.878716	-0.552277	-1.002142
H136	H	0.865918	-0.431751	-1.042851
H137	H	0.964291	-0.346850	-0.995256
H138	H	1.156069	-0.542924	-0.271002
C139	C	0.970812	-1.072420	-0.456321
C140	C	0.970839	-1.144733	-0.456337
C141	C	0.918722	-1.180889	-0.508388
C142	C	0.866578	-1.144732	-0.560422
C143	C	0.866550	-1.072416	-0.560408
C144	C	0.918667	-1.036259	-0.508357
H145	H	1.009440	-1.171502	-0.417816
H146	H	0.918743	-1.234423	-0.508398
H147	H	0.827998	-1.171497	-0.598953
H148	H	0.827948	-1.045647	-0.598929
H149	H	0.918645	-0.982725	-0.508347
C150	C	1.110214	-0.188405	-0.929283
C151	C	1.044024	-0.178128	-0.981313
C152	C	1.026523	-0.111832	-1.010466
C153	C	1.075212	-0.055813	-0.987589
C154	C	1.141407	-0.066088	-0.935556
C155	C	1.158908	-0.132384	-0.906403
H156	H	1.007977	-0.219598	-0.998251
H157	H	0.977521	-0.104226	-1.048985
H158	H	1.062257	-0.006737	-1.009170
H159	H	1.177453	-0.024618	-0.918618
H160	H	1.207909	-0.139990	-0.867884
C161	C	0.970755	-0.934369	-0.456291
C162	C	0.886574	-0.943470	-0.450164
C163	C	0.834429	-0.907315	-0.502206
C164	C	0.866466	-0.862060	-0.560373
C165	C	0.950652	-0.852956	-0.566502
C166	C	1.002796	-0.889111	-0.514461
H167	H	0.862854	-0.976973	-0.407103
H168	H	0.772109	-0.914054	-0.497668
H169	H	0.827866	-0.835296	-0.598897
H170	H	0.974371	-0.819453	-0.609563
H171	H	1.065116	-0.882372	-0.518998
H172	H	1.185768	-0.265856	-0.920757
H173	H	0.507251	-0.406984	-0.374809
C174	C	0.641101	-0.219054	-0.456613
C175	C	0.618131	-0.190176	-0.531156
C176	C	0.645620	-0.124255	-0.552890
C177	C	0.696079	-0.087211	-0.500082
C178	C	0.719052	-0.116089	-0.425534
C179	C	0.691562	-0.182010	-0.403800
H180	H	0.580776	-0.217599	-0.570252
H181	H	0.628614	-0.102878	-0.608076
H182	H	0.716428	-0.038412	-0.516171
H183	H	0.756407	-0.088667	-0.386438
H184	H	0.708568	-0.203387	-0.348615
H185	H	1.114393	-0.205170	-0.794062
H186	H	1.156251	-0.943764	-0.271085
H187	H	0.975081	-0.237006	-0.792697
C188	C	0.969822	-0.219012	-0.926794
C189	C	0.900755	-0.210998	-0.975530
C190	C	0.877999	-0.145204	-1.002541
C191	C	0.924312	-0.087425	-0.980816
C192	C	0.993384	-0.095437	-0.932078
C193	C	1.016139	-0.161230	-0.905066
H194	H	0.866467	-0.253771	-0.991614
H195	H	0.826867	-0.139274	-1.038621
H196	H	0.907467	-0.038721	-1.000812
H197	H	1.027671	-0.052663	-0.915993
H198	H	1.067271	-0.167161	-0.868986
C199	C	1.165683	-0.391952	-0.929041
C200	C	1.210289	-0.349824	-0.981944
C201	C	1.285831	-0.371969	-1.011131
C202	C	1.316766	-0.436242	-0.987414
C203	C	1.272160	-0.478373	-0.934508
C204	C	1.196618	-0.456228	-0.905322
H205	H	1.187389	-0.302242	-0.999503
H206	H	1.318851	-0.340780	-1.050295
H207	H	1.372687	-0.452635	-1.009019
H208	H	1.295060	-0.525955	-0.916949
H209	H	1.163597	-0.487417	-0.866157
C210	C	0.642544	-0.329552	-0.495266
C211	C	0.695158	-0.383610	-0.474713
C212	C	0.724090	-0.428187	-0.535102
C213	C	0.700408	-0.418706	-0.616042
C214	C	0.647791	-0.364646	-0.636599
C215	C	0.618859	-0.320069	-0.576211
H216	H	0.712691	-0.390630	-0.414793
H217	H	0.763040	-0.468206	-0.519884
H218	H	0.721825	-0.451705	-0.660745
H219	H	0.630258	-0.357626	-0.696519
H220	H	0.579909	-0.280051	-0.591428
C221	C	1.169855	-1.072424	-0.257606
C222	C	1.221961	-1.036268	-0.205550
C223	C	1.274108	-1.072425	-0.153513
C224	C	1.274149	-1.144738	-0.153531
C225	C	1.222041	-1.180898	-0.205589
C226	C	1.169895	-1.144741	-0.257626
H227	H	1.221933	-0.982734	-0.205534
H228	H	1.312681	-1.045656	-0.114976
H229	H	1.312751	-1.171503	-0.115010
H230	H	1.222070	-1.234432	-0.205605
H231	H	1.131321	-1.171510	-0.296163
C232	C	1.039424	-0.420867	-0.785276
C233	C	1.032892	-0.433005	-0.701653
C234	C	0.980448	-0.484411	-0.672727
C235	C	0.934536	-0.523678	-0.727425
C236	C	0.941066	-0.511541	-0.811053
C237	C	0.993510	-0.460136	-0.839979
H238	H	1.066880	-0.403937	-0.661158
H239	H	0.975614	-0.493395	-0.610820
H240	H	0.895713	-0.561731	-0.706012
H241	H	0.907078	-0.540610	-0.851548
H242	H	0.998344	-0.451151	-0.901887
H243	H	0.634333	-0.205397	-0.313095
C244	C	1.169420	-0.387824	-0.786777
C245	C	1.184688	-0.393497	-0.703355
C246	C	1.262253	-0.411857	-0.675923
C247	C	1.324550	-0.424544	-0.731912
C248	C	1.309283	-0.418871	-0.815339
C249	C	1.231718	-0.400511	-0.842772
H250	H	1.138571	-0.384105	-0.661904
H251	H	1.273554	-0.416057	-0.614164
H252	H	1.381968	-0.438136	-0.711605
H253	H	1.355400	-0.428263	-0.856790
H254	H	1.220417	-0.396312	-0.904530
H255	H	0.507960	-0.383634	-0.277832
H256	H	0.507712	-0.322052	-0.477728
H257	H	0.948313	-0.318570	-0.920478
