data_functionalizedCrystal
_audit_creation_method	'MofGen! by Chris Wilmer'
_symmetry_space_group_name_H-M	'P1'
_symmetry_Int_Tables_number	1
_symmetry_cell_setting	triclinic
loop_
_symmetry_equiv_pos_as_xyz
  x,y,z
_cell_length_a	18.050589
_cell_length_b	13.897449
_cell_length_c	18.050583
_cell_angle_alpha	89.977597
_cell_angle_beta	90.028091
_cell_angle_gamma	89.971851
loop_
_atom_site_label
_atom_site_type_symbol
_atom_site_fract_x
_atom_site_fract_y
_atom_site_fract_z
Zn1	Zn	-0.295636	-1.474597	0.420018
Zn2	Zn	-0.419840	-1.474472	0.295837
Zn3	Zn	-0.295668	-1.313297	0.295833
Zn4	Zn	-0.419788	-1.313238	0.419977
O5	O	-0.357733	-1.393901	0.357916
O6	O	-0.312120	-1.609562	0.403564
O7	O	-0.403404	-1.453064	0.191912
O8	O	-0.191739	-1.334770	0.312322
O9	O	-0.403372	-1.609470	0.312329
O10	O	-0.191715	-1.453277	0.403560
O11	O	-0.312176	-1.334649	0.191909
O12	O	-0.312125	-1.178307	0.312282
O13	O	-0.403283	-1.334671	0.523907
O14	O	-0.403315	-1.178265	0.403490
O15	O	-0.312069	-1.453221	0.523937
O16	O	-0.523758	-1.453007	0.312289
O17	O	-0.523720	-1.334550	0.403494
C18	C	-0.357719	-1.143287	0.357881
C19	C	-0.357730	-1.036073	0.357884
C20	C	-0.357732	-0.949003	0.357893
C21	C	-0.357736	-0.839771	0.357912
C22	C	-0.550685	-1.393785	0.357904
C23	C	-0.633231	-1.393823	0.357923
C24	C	-0.832688	-1.329469	0.407503
C25	C	-0.882133	-1.305958	0.339734
C26	C	-0.784361	-1.393918	0.357933
C27	C	-0.881997	-1.417477	0.425709
C28	C	-0.930346	-1.394008	0.357948
C29	C	-0.832720	-1.370360	0.290128
C30	C	-0.832579	-1.481920	0.376149
C31	C	-0.882003	-1.458442	0.308334
C32	C	-0.700263	-1.393864	0.357925
C33	C	-1.014443	-1.394062	0.357949
C34	C	-0.164027	-1.394044	0.357945
C35	C	-0.081482	-1.394105	0.357957
C36	C	-0.357667	-1.393953	0.551622
C37	C	-0.357638	-1.393976	0.634168
C38	C	-0.357745	-0.645494	0.357943
C39	C	-0.357742	-0.752708	0.357931
C40	C	-0.357746	-1.393904	0.164964
C41	C	-0.357565	-1.394069	0.082419
C42	C	-0.307986	-1.458503	0.883010
C43	C	-0.375749	-1.482041	0.833602
C44	C	-0.357591	-1.394038	0.931288
C45	C	-0.289855	-1.370515	0.833614
C46	C	-0.357611	-1.394010	0.785303
C47	C	-0.425390	-1.417621	0.882968
C48	C	-0.339450	-1.306055	0.882984
C49	C	-0.407261	-1.329559	0.833599
C50	C	-0.357579	-1.394057	1.015386
C51	C	-0.357631	-1.393991	0.701206
H52	H	-0.811034	-1.274887	0.449364
H53	H	-0.903916	-1.231579	0.324341
C54	C	-0.803139	-1.582371	0.396996
N55	N	-0.780959	-1.658029	0.412707
C56	C	-0.911240	-1.444349	0.503134
N57	N	-0.933262	-1.464582	0.561453
C58	C	-0.803601	-1.343368	0.212682
N59	N	-0.781666	-1.323033	0.154351
C60	C	-0.911078	-1.532121	0.251646
N61	N	-0.932980	-1.587611	0.208947
H62	H	-0.266080	-1.513073	0.904704
H63	H	-0.391105	-1.556433	0.811909
H64	H	-0.482694	-1.437612	0.904557
H65	H	-0.449267	-1.275031	0.812041
C66	C	-0.212457	-1.343649	0.804329
N67	N	-0.154158	-1.323419	0.782274
C68	C	-0.318674	-1.205584	0.912317
N69	N	-0.303016	-1.129909	0.934414
