data_functionalizedCrystal
_audit_creation_method	'MofGen! by Chris Wilmer'
_symmetry_space_group_name_H-M	'P1'
_symmetry_Int_Tables_number	1
_symmetry_cell_setting	triclinic
loop_
_symmetry_equiv_pos_as_xyz
  x,y,z
_cell_length_a	17.640112
_cell_length_b	29.839131
_cell_length_c	17.639309
_cell_angle_alpha	101.252120
_cell_angle_beta	65.723456
_cell_angle_gamma	101.266684
loop_
_atom_site_label
_atom_site_type_symbol
_atom_site_fract_x
_atom_site_fract_y
_atom_site_fract_z
Zn1	Zn	1.165534	-0.020454	0.211678
Zn2	Zn	1.665534	0.479546	0.711678
Zn3	Zn	1.193241	-0.108236	0.073891
Zn4	Zn	1.693241	0.391764	0.573891
Zn5	Zn	1.055575	-0.045759	0.101700
Zn6	Zn	1.555575	0.454241	0.601700
Zn7	Zn	1.027663	-0.108224	0.239455
Zn8	Zn	1.527663	0.391776	0.739455
O9	O	1.110503	-0.070668	0.156681
O10	O	1.610503	0.429332	0.656681
O11	O	1.284522	-0.021514	0.170137
O12	O	1.784522	0.478486	0.670137
O13	O	1.198256	-0.110544	-0.037735
O14	O	1.698256	0.389456	0.462265
O15	O	1.070247	0.020476	0.116302
O16	O	1.570247	0.520476	0.616302
O17	O	1.304878	-0.086007	0.068906
O18	O	1.804878	0.413993	0.568906
O19	O	1.151033	0.039068	0.197102
O20	O	1.651033	0.539068	0.697102
O21	O	1.097114	-0.064643	-0.017303
O22	O	1.597114	0.435357	0.482697
O23	O	0.936560	-0.064631	0.143237
O24	O	1.436560	0.435369	0.643237
O25	O	1.022675	-0.085985	0.351085
O26	O	1.522675	0.414015	0.851085
O27	O	0.916053	-0.110523	0.244445
O28	O	1.416053	0.389477	0.744445
O29	O	1.123968	-0.021501	0.330677
O30	O	1.623968	0.478499	0.830677
O31	O	1.171191	-0.171113	0.095841
O32	O	1.671191	0.328887	0.595841
O33	O	1.049542	-0.171104	0.217480
O34	O	1.549542	0.328896	0.717480
C35	C	0.896407	-0.090322	0.199873
C36	C	1.396407	0.409678	0.699873
C37	C	0.804812	-0.098738	0.218371
C38	C	1.304812	0.401262	0.718371
C39	C	0.556755	-0.006719	0.016166
C40	C	1.056755	0.493281	0.516166
C41	C	0.470685	-0.014636	0.033558
C42	C	0.970685	0.485364	0.533558
C43	C	0.449422	-0.062519	0.138764
C44	C	0.949422	0.437481	0.638764
C45	C	0.535492	-0.054604	0.121383
C46	C	1.035492	0.445396	0.621383
C47	C	0.589152	-0.026704	0.060083
C48	C	1.089152	0.473296	0.560083
C49	C	0.567888	-0.074590	0.165300
C50	C	1.067888	0.425410	0.665300
C51	C	0.653951	-0.066677	0.147918
C52	C	1.153951	0.433323	0.647918
C53	C	0.707616	-0.038780	0.086618
C54	C	1.207616	0.461220	0.586618
C55	C	0.675214	-0.018792	0.042700
C56	C	1.175214	0.481208	0.542700
C57	C	0.514227	-0.102492	0.226597
C58	C	1.014227	0.397508	0.726597
C59	C	0.546624	-0.122477	0.270514
C60	C	1.046624	0.377523	0.770514
C61	C	0.632687	-0.114563	0.253136
C62	C	1.132687	0.385437	0.753136
C63	C	0.686353	-0.086665	0.191836
C64	C	1.186353	0.413335	0.691836
C65	C	0.665089	-0.134551	0.297054
C66	C	1.165089	0.365449	0.797054
C67	C	0.751152	-0.126638	0.279671
C68	C	1.251152	0.373362	0.779671
C69	C	0.772415	-0.078753	0.174454
C70	C	1.272415	0.421247	0.674454
C71	C	1.110363	-0.187408	0.156670
C72	C	1.610363	0.312592	0.656670
C73	C	1.110372	-0.237341	0.156678
C74	C	1.610372	0.262659	0.656678
C75	C	1.173926	-0.546945	0.093401
C76	C	1.673926	-0.046945	0.593401
C77	C	1.174021	-0.734606	0.093413
C78	C	1.674021	-0.234606	0.593413
O79	O	1.227945	-0.758851	0.039605
O80	O	1.727945	-0.258851	0.539605
N81	N	1.110661	-0.758089	0.156709
N82	N	1.610661	-0.258089	0.656709
C83	C	1.047276	-0.734653	0.220010
C84	C	1.547276	-0.234653	0.720010
O85	O	0.993392	-0.758932	0.273852
O86	O	1.493392	-0.258932	0.773852
C87	C	1.047185	-0.546993	0.220001
C88	C	1.547185	-0.046993	0.720001
C89	C	1.110544	-0.523513	0.156696
C90	C	1.610544	-0.023513	0.656696
C91	C	1.237281	-0.523465	0.030102
C92	C	1.737281	-0.023465	0.530102
C93	C	1.237254	-0.476553	0.030098
C94	C	1.737254	0.023447	0.530098
C95	C	1.173872	-0.453121	0.093392
C96	C	1.673872	0.046879	0.593392
C97	C	1.110517	-0.476601	0.156691
C98	C	1.610517	0.023399	0.656691
C99	C	0.983804	-0.523557	0.283304
C100	C	1.483804	-0.023557	0.783304
C101	C	0.983788	-0.476639	0.283297
C102	C	1.483788	0.023361	0.783297
C103	C	1.047147	-0.453159	0.219992
C104	C	1.547147	0.046841	0.719992
C105	C	1.047109	-0.406258	0.219981
C106	C	1.547109	0.093742	0.719981
N107	N	1.110469	-0.382774	0.156685
N108	N	1.610469	0.117226	0.656685
C109	C	1.173850	-0.406206	0.093390
C110	C	1.673850	0.093794	0.593390
C111	C	1.047328	-0.833178	0.220009
C112	C	1.547328	-0.333178	0.720009
C113	C	1.047350	-0.880093	0.220010
C114	C	1.547350	-0.380093	0.720010
C115	C	1.174096	-0.880042	0.093414
C116	C	1.674096	-0.380042	0.593414
C117	C	1.174070	-0.833127	0.093410
C118	C	1.674070	-0.333127	0.593410
C119	C	1.110688	-0.809695	0.156713
C120	C	1.610688	-0.309695	0.656713
C121	C	1.173789	-0.307688	0.093385
C122	C	1.673789	0.192312	0.593385
C123	C	1.173754	-0.260773	0.093384
C124	C	1.673754	0.239227	0.593384
C125	C	1.047011	-0.260827	0.219982
C126	C	1.547011	0.239173	0.719982
C127	C	1.047042	-0.307739	0.219981
C128	C	1.547042	0.192261	0.719981
C129	C	1.110438	-0.331168	0.156678
C130	C	1.610438	0.168832	0.656678
O131	O	0.993218	-0.381982	0.273765
O132	O	1.493218	0.118018	0.773765
O133	O	1.227737	-0.381917	0.039567
O134	O	1.727737	0.118083	0.539567
C135	C	1.173953	-0.593857	0.093406
C136	C	1.673953	-0.093857	0.593406
C137	C	1.110598	-0.617337	0.156705
C138	C	1.610598	-0.117337	0.656705
C139	C	1.047217	-0.593905	0.220000
C140	C	1.547217	-0.093905	0.720000
C141	C	1.110620	-0.664252	0.156707
C142	C	1.610620	-0.164252	0.656707
C143	C	1.174002	-0.687684	0.093413
C144	C	1.674002	-0.187684	0.593413
C145	C	1.237362	-0.664201	0.030117
C146	C	1.737362	-0.164201	0.530117
C147	C	1.237335	-0.617289	0.030112
C148	C	1.737335	-0.117289	0.530112
C149	C	0.983857	-0.617388	0.283296
C150	C	1.483857	-0.117388	0.783296
C151	C	0.983888	-0.664300	0.283295
C152	C	1.483888	-0.164300	0.783295
C153	C	1.047270	-0.687732	0.220000
C154	C	1.547270	-0.187732	0.720000
C155	C	1.325435	-0.050939	0.113321
C156	C	1.825435	0.449061	0.613321
C157	C	1.417026	-0.042531	0.094843
C158	C	1.917026	0.457469	0.594843
C159	C	1.067117	-0.050919	0.371617
C160	C	1.567117	0.449081	0.871617
C161	C	1.048629	-0.042503	0.463210
C162	C	1.548629	0.457497	0.963210
C163	C	1.110663	0.046531	0.156706
C164	C	1.610663	0.546531	0.656706
C165	C	1.110731	0.096475	0.156716
C166	C	1.610731	0.596475	0.656716
C167	C	1.153768	-0.090304	-0.057428
C168	C	1.653768	0.409696	0.442572
C169	C	1.172416	-0.098579	-0.149053
C170	C	1.672416	0.401421	0.350947
C171	C	0.969915	-0.006745	0.602944
C172	C	1.469915	0.493255	1.102944
C173	C	0.987294	-0.014656	0.516877
C174	C	1.487294	0.485344	1.016877
C175	C	1.092606	-0.062452	0.495596
C176	C	1.592606	0.437548	0.995596
C177	C	1.075233	-0.054548	0.581663
C178	C	1.575233	0.445452	1.081663
C179	C	1.013887	-0.026693	0.635331
C180	C	1.513887	0.473307	1.135331
C181	C	1.119205	-0.074495	0.614050
C182	C	1.619205	0.425505	1.114050
C183	C	1.101836	-0.066589	0.700109
C184	C	1.601836	0.433411	1.200109
C185	C	1.040495	-0.038735	0.753782
C186	C	1.540495	0.461265	1.253782
C187	C	0.996518	-0.018787	0.721390
C188	C	1.496518	0.481213	1.221390
C189	C	1.180554	-0.102347	0.560380
C190	C	1.680554	0.397653	1.060380
C191	C	1.224526	-0.122295	0.592767
C192	C	1.724526	0.377705	1.092767
C193	C	1.207154	-0.114391	0.678829
C194	C	1.707154	0.385609	1.178829
C195	C	1.145813	-0.086537	0.732501
C196	C	1.645813	0.413463	1.232501
C197	C	1.251130	-0.134339	0.711220
C198	C	1.751130	0.365661	1.211220
C199	C	1.233761	-0.126433	0.797279
C200	C	1.733761	0.373567	1.297279
C201	C	1.128444	-0.078631	0.818560
C202	C	1.628444	0.421369	1.318560
H203	H	0.777694	-0.032339	0.072465
H204	H	1.277694	0.467661	0.572465
H205	H	0.995750	-0.899208	0.271553
H206	H	1.495750	-0.399208	0.771553
Br207	Br	1.175865	-0.100249	0.422754
Br208	Br	1.675865	0.399751	0.922754
H209	H	0.932175	-0.457562	0.334848
H210	H	1.432175	0.042438	0.834848
H211	H	1.225349	-0.241657	0.041830
H212	H	1.725349	0.258343	0.541830
H213	H	1.026357	-0.032296	0.823856
H214	H	1.526357	0.467704	1.323856
Br215	Br	0.961300	-0.801384	0.305928
Br216	Br	1.461300	-0.301384	0.805928
Br217	Br	0.376594	-0.100390	0.221942
Br218	Br	0.876594	0.399610	0.721942
H219	H	0.718905	0.003935	-0.007205
H220	H	1.218905	0.503935	0.492795
H221	H	1.225663	-0.814012	0.041862
H222	H	1.725663	-0.314012	0.541862
Br223	Br	0.960999	-0.229017	0.305880
Br224	Br	1.460999	0.270983	0.805880
Br225	Br	0.629586	0.031151	-0.067021
Br226	Br	1.129586	0.531151	0.432979
H227	H	1.288928	-0.598175	-0.021437
H228	H	1.788928	-0.098175	0.478563
Br229	Br	1.293447	-0.153499	0.841237
Br230	Br	1.793447	0.346501	1.341237
H231	H	0.444312	0.001645	-0.002204
H232	H	0.944312	0.501645	0.497796
Br233	Br	0.473796	-0.160348	0.353692
Br234	Br	0.973796	0.339652	0.853692
H235	H	0.946562	0.003893	0.765090
H236	H	1.446562	0.503893	1.265090
Br237	Br	0.592260	-0.172426	0.380225
Br238	Br	1.092260	0.327574	0.880225
Br239	Br	0.795125	-0.153764	0.339269
Br240	Br	1.295125	0.346236	0.839269
H241	H	0.816107	-0.056026	0.124549
H242	H	1.316107	0.443974	0.624549
Br243	Br	1.259827	-0.339477	0.007474
Br244	Br	1.759827	0.160523	0.507474
Br245	Br	1.323256	-0.444693	-0.055811
Br246	Br	1.823256	0.055307	0.444189
Br247	Br	0.897817	-0.555409	0.369230
Br248	Br	1.397817	-0.055409	0.869230
Br249	Br	1.323312	-0.555256	-0.055808
Br250	Br	1.823312	-0.055256	0.444192
Br251	Br	1.323376	-0.696011	-0.055785
Br252	Br	1.823376	-0.196011	0.444215
H253	H	0.932287	-0.683414	0.334846
H254	H	1.432287	-0.183414	0.834846
H255	H	1.225704	-0.899128	0.041878
H256	H	1.725704	-0.399128	0.541878
Br257	Br	0.961038	-0.339609	0.305879
Br258	Br	1.461038	0.160391	0.805879
Br259	Br	1.045203	-0.040818	0.891400
Br260	Br	1.545203	0.459182	1.391400
Br261	Br	0.886675	0.031067	0.675784
Br262	Br	1.386675	0.531067	1.175784
H263	H	0.444151	-0.108933	0.240747
H264	H	0.944151	0.391067	0.740747
H265	H	0.932244	-0.598313	0.334839
H266	H	1.432244	-0.098313	0.834839
H267	H	0.951485	0.001592	0.490512
H268	H	1.451485	0.501592	0.990512
Br269	Br	1.307785	-0.160091	0.519925
Br270	Br	1.807785	0.339909	1.019925
Br271	Br	1.334396	-0.172131	0.638374
Br272	Br	1.834396	0.327869	1.138374
H273	H	1.194696	-0.108782	0.490306
H274	H	1.694696	0.391218	0.990306
