data_functionalizedCrystal
_audit_creation_method	'MofGen! by Chris Wilmer'
_symmetry_space_group_name_H-M	'P1'
_symmetry_Int_Tables_number	1
_symmetry_cell_setting	triclinic
loop_
_symmetry_equiv_pos_as_xyz
  x,y,z
_cell_length_a	19.805407
_cell_length_b	19.805405
_cell_length_c	19.805399
_cell_angle_alpha	89.970699
_cell_angle_beta	89.980427
_cell_angle_gamma	90.026410
loop_
_atom_site_label
_atom_site_type_symbol
_atom_site_fract_x
_atom_site_fract_y
_atom_site_fract_z
Zn1	Zn	1.034736	-0.269479	-0.382712
Zn2	Zn	1.034651	-0.382667	-0.269520
Zn3	Zn	0.921550	-0.269498	-0.269536
Zn4	Zn	0.921514	-0.382631	-0.382667
O5	O	0.978113	-0.326069	-0.326109
O6	O	1.129441	-0.284501	-0.367708
O7	O	1.019627	-0.367678	-0.174805
O8	O	0.936616	-0.174778	-0.284575
O9	O	1.129378	-0.367660	-0.284547
O10	O	1.019772	-0.174765	-0.367724
O11	O	0.936533	-0.284533	-0.174817
O12	O	0.826829	-0.284498	-0.284531
O13	O	0.936553	-0.367598	-0.477389
O14	O	0.826802	-0.367617	-0.367648
O15	O	1.019737	-0.284466	-0.477422
O16	O	1.019592	-0.477379	-0.284503
O17	O	0.936471	-0.477353	-0.367632
C18	C	0.802257	-0.326056	-0.326087
C19	C	0.727025	-0.326067	-0.326093
C20	C	0.978036	-0.501925	-0.326076
C21	C	0.978066	-0.577157	-0.326084
C22	C	0.691684	-0.369412	-0.369302
C23	C	0.620996	-0.369413	-0.369312
C24	C	0.585649	-0.326072	-0.326109
C25	C	0.620994	-0.282722	-0.282898
C26	C	0.691681	-0.282718	-0.282892
C27	C	0.335921	-0.282737	-0.282920
C28	C	0.265229	-0.282746	-0.282928
C29	C	0.265235	-0.369432	-0.369340
C30	C	0.335922	-0.369428	-0.369334
C31	C	0.371262	-0.326076	-0.326126
C32	C	0.447910	-0.326074	-0.326117
C33	C	0.509002	-0.326076	-0.326114
C34	C	1.021389	-0.612492	-0.282845
C35	C	1.021418	-0.683181	-0.282860
C36	C	0.978119	-0.718532	-0.326111
C37	C	0.934794	-0.683192	-0.369356
C38	C	0.934769	-0.612505	-0.369344
C39	C	0.934894	-0.968265	-0.369406
C40	C	0.934921	-1.038957	-0.369413
C41	C	1.021542	-1.038941	-0.282922
C42	C	1.021517	-0.968254	-0.282910
C43	C	0.978195	-0.932920	-0.326157
C44	C	0.978166	-0.856271	-0.326141
C45	C	0.978145	-0.795179	-0.326124
C46	C	1.154655	-0.326082	-0.326131
C47	C	1.229887	-0.326088	-0.326140
C48	C	0.978151	-0.326026	-0.502651
C49	C	0.978167	-0.326008	-0.577883
C50	C	0.978207	-0.149526	-0.326156
C51	C	0.978248	-0.074294	-0.326177
C52	C	1.021481	-0.282719	-0.613246
C53	C	1.021488	-0.282699	-0.683934
C54	C	0.978184	-0.325973	-0.719259
C55	C	0.934864	-0.369264	-0.683892
C56	C	0.934854	-0.369279	-0.613204
C57	C	0.934902	-0.369201	-0.968965
C58	C	0.934917	-0.369183	-1.039657
C59	C	1.021536	-0.282620	-1.039695
C60	C	1.021527	-0.282636	-0.969008
C61	C	0.978205	-0.325924	-0.933647
C62	C	0.978197	-0.325944	-0.856998
C63	C	0.978194	-0.325957	-0.795906
C64	C	0.978114	-0.326062	-0.150253
C65	C	0.978229	-0.325890	-0.075021
H66	H	0.592225	-0.404709	-0.404496
C67	C	0.887280	-0.416784	-1.078517
H68	H	0.893498	-0.410579	-1.125680
H69	H	0.841806	-0.406877	-1.066931
H70	H	0.897161	-0.462267	-1.066920
C71	C	0.887257	-0.416819	-0.930073
H72	H	0.893445	-0.410629	-0.882915
H73	H	0.897140	-0.462294	-0.941648
H74	H	0.841785	-0.406903	-0.941655
H75	H	0.899602	-0.404495	-0.712659
C76	C	0.374785	-0.235063	-0.235382
H77	H	0.343608	-0.209261	-0.209647
H78	H	0.402386	-0.205600	-0.261316
H79	H	0.402333	-0.260924	-0.205841
C80	C	0.887210	-0.416897	-0.574303
H81	H	0.893401	-0.410704	-0.527145
H82	H	0.897089	-0.462373	-0.585874
H83	H	0.841738	-0.406978	-0.585882
C84	C	0.730560	-0.417087	-0.416827
H85	H	0.699385	-0.442896	-0.442566
H86	H	0.758113	-0.446543	-0.390883
H87	H	0.758156	-0.391227	-0.446366
H88	H	1.056792	-0.247400	-0.940250
C89	C	0.374800	-0.417101	-0.416859
H90	H	0.343628	-0.442912	-0.442600
H91	H	0.402355	-0.446556	-0.390915
H92	H	0.402396	-0.391238	-0.446397
H93	H	0.236454	-0.404729	-0.404524
C94	C	0.226349	-0.235063	-0.235408
H95	H	0.257519	-0.209238	-0.209679
H96	H	0.198750	-0.260914	-0.205870
H97	H	0.198797	-0.205610	-0.261365
H98	H	0.720455	-0.247418	-0.247711
C99	C	0.582115	-0.235050	-0.235373
H100	H	0.534954	-0.241265	-0.241559
H101	H	0.593719	-0.189584	-0.245358
H102	H	0.593679	-0.244902	-0.189876
C103	C	1.069019	-0.573611	-0.235268
H104	H	1.094829	-0.604783	-0.209524
H105	H	1.043138	-0.546076	-0.205747
H106	H	1.098487	-0.545997	-0.261188
H107	H	1.056809	-0.247370	-1.068495
C108	C	1.069070	-0.722047	-0.235293
H109	H	1.094846	-0.690869	-0.209526
H110	H	1.098558	-0.749580	-0.261213
H111	H	1.043199	-0.749663	-0.205782
H112	H	0.899492	-0.583735	-0.404555
H113	H	1.056773	-0.939473	-0.247688
H114	H	1.056820	-1.067719	-0.247711
C115	C	1.069138	-0.235084	-0.722830
H116	H	1.094933	-0.209321	-0.691668
H117	H	1.043270	-0.205582	-0.750408
H118	H	1.098619	-0.260978	-0.750403
C119	C	0.887296	-1.077843	-0.416998
H120	H	0.861496	-1.046676	-0.442758
H121	H	0.857828	-1.105460	-0.391087
H122	H	0.913190	-1.105376	-0.446515
H123	H	1.056747	-0.247482	-0.584489
H124	H	0.899618	-0.939502	-0.404618
C125	C	0.887165	-0.722077	-0.416930
H126	H	0.893379	-0.769237	-0.410740
H127	H	0.897037	-0.710455	-0.462416
H128	H	0.841689	-0.710534	-0.406974
