data_functionalizedCrystal
_audit_creation_method	'MofGen! by Chris Wilmer'
_symmetry_space_group_name_H-M	'P1'
_symmetry_Int_Tables_number	1
_symmetry_cell_setting	triclinic
loop_
_symmetry_equiv_pos_as_xyz
  x,y,z
_cell_length_a	9.065215
_cell_length_b	14.971482
_cell_length_c	13.448316
_cell_angle_alpha	89.993798
_cell_angle_beta	90.005418
_cell_angle_gamma	95.686347
loop_
_atom_site_label
_atom_site_type_symbol
_atom_site_fract_x
_atom_site_fract_y
_atom_site_fract_z
O1	O	-0.192236	1.188381	-0.082676
O2	O	0.307764	1.688381	0.417324
O3	O	-0.215265	0.928152	-0.082681
O4	O	0.284735	1.428152	0.417319
O5	O	0.011002	1.063647	-0.082675
O6	O	0.511002	1.563647	0.417325
O7	O	-0.418502	1.052886	-0.082683
O8	O	0.081498	1.552886	0.417317
O9	O	0.011016	1.063629	0.082709
O10	O	0.511016	1.563629	0.582709
O11	O	-0.215251	0.928134	0.082703
O12	O	0.284749	1.428134	0.582703
O13	O	-0.192222	1.188364	0.082707
O14	O	0.307778	1.688364	0.582707
Cu15	Cu	-0.203735	1.058247	0.097806
Cu16	Cu	0.296265	1.558247	0.597806
Cu17	Cu	-0.203752	1.058268	-0.097780
Cu18	Cu	0.296248	1.558268	0.402220
O19	O	-0.418488	1.052869	0.082701
O20	O	0.081512	1.552869	0.582701
C21	C	-0.214229	0.894811	0.000010
C22	C	0.285771	1.394811	0.500010
C23	C	-0.211146	0.795491	0.000009
C24	C	0.288854	1.295491	0.500009
C25	C	-0.209686	0.748826	0.090160
C26	C	0.290314	1.248826	0.590160
C27	C	-0.206765	0.655505	0.090162
C28	C	0.293235	1.155505	0.590162
C29	C	-0.205315	0.608851	0.000010
C30	C	0.294685	1.108851	0.500010
C31	C	-0.206770	0.655523	-0.090149
C32	C	0.293230	1.155523	0.409851
C33	C	-0.209680	0.748842	-0.090149
C34	C	0.290320	1.248842	0.409851
C35	C	-0.200708	0.461016	-0.090142
C36	C	0.299292	0.961016	0.409858
C37	C	-0.197801	0.367690	-0.090143
C38	C	0.302199	0.867690	0.409857
C39	C	-0.197793	0.367679	0.090168
C40	C	0.302207	0.867679	0.590168
C41	C	-0.200703	0.460998	0.090168
C42	C	0.299297	0.960998	0.590168
C43	C	-0.202161	0.507663	0.000009
C44	C	0.297839	1.007663	0.500009
C45	C	-0.473461	1.053911	0.000008
C46	C	0.026539	1.553911	0.500008
C47	C	-0.637241	1.057001	0.000005
C48	C	-0.137241	1.557001	0.500005
C49	C	0.065974	1.062604	0.000016
C50	C	0.565974	1.562604	0.500016
C51	C	0.229755	1.059514	0.000012
C52	C	0.729755	1.559514	0.500012
C53	C	-0.193257	1.221705	0.000014
C54	C	0.306743	1.721705	0.500014
C55	C	-0.196341	1.321025	0.000009
C56	C	0.303659	1.821025	0.500009
N57	N	-0.203723	1.058240	0.235370
N58	N	0.296277	1.558240	0.735370
N59	N	-0.203752	1.058283	-0.235344
N60	N	0.296248	1.558283	0.264656
C61	C	-0.103573	1.118256	0.287413
C62	C	0.396427	1.618256	0.787413
C63	C	-0.103572	1.118261	0.391517
C64	C	0.396428	1.618261	0.891517
C65	C	-0.203728	1.058254	0.443575
C66	C	0.296272	1.558254	0.943575
C67	C	-0.303883	0.998232	0.391524
C68	C	0.196117	1.498232	0.891524
C69	C	-0.303876	0.998222	0.287423
C70	C	0.196124	1.498222	0.787423
C71	C	-0.303893	0.998257	0.608505
C72	C	0.196107	1.498257	1.108505
C73	C	-0.303902	0.998267	0.712613
C74	C	0.196098	1.498267	1.212613
C75	C	-0.103589	1.118296	0.712598
C76	C	0.396411	1.618296	1.212598
C77	C	-0.103582	1.118286	0.608497
C78	C	0.396418	1.618286	1.108497
C79	C	-0.203738	1.058264	0.556453
C80	C	0.296262	1.558264	1.056453
H81	H	-0.201893	0.498981	0.163578
H82	H	0.298107	0.998981	0.663578
H83	H	-0.210879	0.786804	0.163573
H84	H	0.289121	1.286804	0.663573
F85	F	-0.205232	0.605844	0.186114
F86	F	0.294768	1.105844	0.686114
F87	F	-0.196241	0.318014	0.186123
F88	F	0.303759	0.818014	0.686123
H89	H	-0.385446	0.949377	0.566134
H90	H	0.114554	1.449377	1.066134
H91	H	-0.196621	0.329706	-0.163552
H92	H	0.303379	0.829706	0.336448
H93	H	-0.201896	0.499008	-0.163560
H94	H	0.298104	0.999008	0.336440
F95	F	-0.205182	0.605870	-0.186096
F96	F	0.294818	1.105870	0.313904
H97	H	-0.022038	1.167167	0.754978
H98	H	0.477962	1.667167	1.254978
F99	F	-0.410465	0.934342	0.232036
F100	F	0.089535	1.434342	0.732036
H101	H	-0.022034	1.167153	0.566111
H102	H	0.477966	1.667153	1.066111
F103	F	-0.211229	0.798506	-0.186101
F104	F	0.288771	1.298506	0.313899
F105	F	0.003020	1.182136	0.446905
F106	F	0.503020	1.682136	0.946905
F107	F	0.003023	1.182129	0.232019
F108	F	0.503023	1.682129	0.732019
F109	F	-0.410501	0.934397	0.768010
F110	F	0.089499	1.434397	1.268010
F111	F	-0.410472	0.934362	0.446930
F112	F	0.089528	1.434362	0.946930
