data_functionalizedCrystal
_audit_creation_method	'MofGen! by Chris Wilmer'
_symmetry_space_group_name_H-M	'P1'
_symmetry_Int_Tables_number	1
_symmetry_cell_setting	triclinic
loop_
_symmetry_equiv_pos_as_xyz
  x,y,z
_cell_length_a	10.686285
_cell_length_b	16.959455
_cell_length_c	10.686551
_cell_angle_alpha	85.603811
_cell_angle_beta	80.915481
_cell_angle_gamma	85.628621
loop_
_atom_site_label
_atom_site_type_symbol
_atom_site_fract_x
_atom_site_fract_y
_atom_site_fract_z
Zn1	Zn	-0.450274	1.262787	-0.679005
Zn2	Zn	0.049726	1.762787	-0.179005
Zn3	Zn	-0.678854	1.262724	-0.450503
Zn4	Zn	-0.178854	1.762724	0.049497
Zn5	Zn	-0.466616	1.121183	-0.466767
Zn6	Zn	0.033384	1.621183	0.033233
Zn7	Zn	-0.662461	1.140023	-0.662706
Zn8	Zn	-0.162461	1.640023	-0.162706
O9	O	-0.564551	1.196679	-0.564745
O10	O	-0.064551	1.696679	-0.064745
O11	O	-0.480618	1.373392	-0.648708
O12	O	0.019382	1.873392	-0.148708
O13	O	-0.664400	1.236036	-0.275030
O14	O	-0.164400	1.736036	0.224970
O15	O	-0.286825	1.132109	-0.508549
O16	O	0.213175	1.632109	-0.008549
O17	O	-0.648554	1.373345	-0.480828
O18	O	-0.148554	1.873345	0.019172
O19	O	-0.274819	1.236145	-0.664479
O20	O	0.225181	1.736145	-0.164479
O21	O	-0.508469	1.132047	-0.286979
O22	O	-0.008469	1.632047	0.213021
O23	O	-0.492573	1.013069	-0.492745
O24	O	0.007427	1.513069	0.007255
O25	O	-0.620614	1.164220	-0.842499
O26	O	-0.120614	1.664220	-0.342499
O27	O	-0.636460	1.026912	-0.636700
O28	O	-0.136460	1.526912	-0.136700
O29	O	-0.464722	1.254414	-0.854473
O30	O	0.035278	1.754414	-0.354473
O31	O	-0.854303	1.254305	-0.465024
O32	O	-0.354303	1.754305	0.034976
O33	O	-0.842259	1.164158	-0.620929
O34	O	-0.342259	1.664158	-0.120929
C35	C	-0.564511	0.991310	-0.564719
C36	C	-0.064511	1.491310	-0.064719
C37	C	-0.564523	0.903455	-0.564736
C38	C	-0.064523	1.403455	-0.064736
C39	C	-0.894334	1.211292	-0.539471
C40	C	-0.394334	1.711292	-0.039471
C41	C	-1.035414	1.217617	-0.528701
C42	C	-0.535414	1.717617	-0.028701
C43	C	-0.489550	0.524753	-0.489962
C44	C	0.010450	1.024753	0.010038
C45	C	-0.639651	0.539216	-0.639593
C46	C	-0.139651	1.039216	-0.139593
C47	C	-0.639634	0.621761	-0.639587
C48	C	-0.139634	1.121761	-0.139587
C49	C	-0.564574	0.655806	-0.564766
C50	C	-0.064574	1.155806	-0.064766
C51	C	-0.489533	0.607305	-0.489951
C52	C	0.010467	1.107305	0.010049
C53	C	-0.714684	0.670267	-0.714391
C54	C	-0.214684	1.170267	-0.214391
C55	C	-0.714670	0.752817	-0.714386
C56	C	-0.214670	1.252817	-0.214386
C57	C	-0.639603	0.786863	-0.639571
C58	C	-0.139603	1.286863	-0.139571
C59	C	-0.564557	0.738358	-0.564754
C60	C	-0.064557	1.238358	-0.064754
C61	C	-0.489498	0.772402	-0.489933
C62	C	0.010502	1.272402	0.010067
C63	C	-0.414445	0.723898	-0.415122
C64	C	0.085555	1.223898	0.084878
C65	C	-0.414466	0.641351	-0.415135
C66	C	0.085534	1.141351	0.084865
C67	C	-0.639582	0.869410	-0.639557
C68	C	-0.139582	1.369410	-0.139557
C69	C	-0.489481	0.854954	-0.489921
C70	C	0.010519	1.354954	0.010079
C71	C	-0.233478	1.182032	-0.590146
C72	C	0.266522	1.682032	-0.090146
C73	C	-0.092394	1.175791	-0.600971
C74	C	0.407606	1.675791	-0.100971
C75	C	-0.539016	1.211426	-0.895831
C76	C	-0.039016	1.711426	-0.395831
C77	C	-0.528135	1.217710	-1.036921
C78	C	-0.028135	1.717710	-0.536921
C79	C	-0.564592	1.402851	-0.564772
C80	C	-0.064592	1.902851	-0.064772
C81	C	-0.564609	1.490709	-0.564783
C82	C	-0.064609	1.990709	-0.064783
C83	C	-0.589895	1.182031	-0.234954
C84	C	-0.089895	1.682031	0.265046
C85	C	-0.600419	1.175884	-0.093893
C86	C	-0.100419	1.675884	0.406107
H87	H	-1.094567	1.258263	-0.458574
H88	H	-0.594567	1.758263	0.041426
H89	H	-1.033249	1.135142	-0.671085
H90	H	-0.533249	1.635142	-0.171085
H91	H	-0.670633	1.135271	-1.034732
H92	H	-0.170633	1.635271	-0.534732
H93	H	-0.457925	1.258333	-1.096088
H94	H	0.042075	1.758333	-0.596088
H95	H	-0.353363	0.601853	-0.354227
H96	H	0.146637	1.101853	0.145773
H97	H	-0.428350	0.882667	-0.429000
H98	H	0.071650	1.382667	0.071000
C99	C	-0.407002	0.471405	-0.407673
C100	C	0.092998	0.971405	0.092327
H101	H	-0.417762	0.417366	-0.418386
H102	H	0.082238	0.917366	0.081614
H103	H	-0.320302	0.481986	-0.432917
H104	H	0.179698	0.981986	0.067083
H105	H	-0.432036	0.481942	-0.320935
H106	H	0.067964	0.981942	0.179065
H107	H	-0.353338	0.751628	-0.354196
H108	H	0.146662	1.251628	0.145804
H109	H	-0.775802	0.642541	-0.775296
H110	H	-0.275802	1.142541	-0.275296
C111	C	-0.722209	0.501769	-0.721890
C112	C	-0.222209	1.001769	-0.221890
H113	H	-0.711466	0.445660	-0.711186
H114	H	-0.211466	0.945660	-0.211186
H115	H	-0.808904	0.518249	-0.696646
H116	H	-0.308904	1.018249	-0.196646
H117	H	-0.697167	0.518285	-0.808624
H118	H	-0.197167	1.018285	-0.308624
H119	H	-0.775782	0.792303	-0.775303
H120	H	-0.275782	1.292303	-0.275303
H121	H	-0.700693	0.908898	-0.700463
H122	H	-0.200693	1.408898	-0.200463
