data_functionalizedCrystal
_audit_creation_method	'MofGen! by Chris Wilmer'
_symmetry_space_group_name_H-M	'P1'
_symmetry_Int_Tables_number	1
_symmetry_cell_setting	triclinic
loop_
_symmetry_equiv_pos_as_xyz
  x,y,z
_cell_length_a	10.654550
_cell_length_b	10.654551
_cell_length_c	14.048226
_cell_angle_alpha	89.996418
_cell_angle_beta	89.990034
_cell_angle_gamma	84.485132
loop_
_atom_site_label
_atom_site_type_symbol
_atom_site_fract_x
_atom_site_fract_y
_atom_site_fract_z
O1	O	1.667845	0.176401	-0.079232
O2	O	1.302367	0.193207	-0.079217
O3	O	1.493508	0.002065	-0.079225
O4	O	1.476704	0.367544	-0.079224
O5	O	1.493485	0.002054	0.079096
O6	O	1.302344	0.193196	0.079105
O7	O	1.667822	0.176390	0.079089
Zn8	Zn	1.485079	0.184791	0.104234
Zn9	Zn	1.485110	0.184806	-0.104361
O10	O	1.476680	0.367532	0.079098
C11	C	1.255557	0.191968	-0.000054
C12	C	1.116114	0.188276	-0.000048
C13	C	1.036629	0.300817	-0.000061
C14	C	0.905608	0.297341	-0.000078
C15	C	0.933570	0.068771	-0.000072
C16	C	1.064589	0.072249	-0.000048
C17	C	1.088154	0.416844	-0.000061
C18	C	1.008667	0.529395	-0.000076
C19	C	0.877647	0.525918	-0.000092
C20	C	0.826112	0.409891	-0.000094
C21	C	1.492263	-0.044739	-0.000067
C22	C	1.488570	-0.184182	-0.000073
C23	C	1.486851	-0.249687	-0.086372
C24	C	1.483370	-0.380708	-0.086368
C25	C	1.483335	-0.380706	0.086243
C26	C	1.486806	-0.249687	0.086237
C27	C	1.488615	-0.184182	-0.172683
C28	C	1.486897	-0.249688	-0.258989
C29	C	1.483417	-0.380709	-0.258984
C30	C	1.481654	-0.446223	-0.172674
C31	C	1.714632	0.177629	-0.000076
C32	C	1.854075	0.181321	-0.000088
C33	C	1.477926	0.414336	-0.000063
C34	C	1.481619	0.553779	-0.000063
N35	N	1.485067	0.184780	0.246594
N36	N	1.485131	0.184807	-0.246722
C37	C	1.569732	0.100178	0.296409
C38	C	1.569740	0.100177	0.396066
C39	C	1.485089	0.184786	0.445908
C40	C	1.400416	0.269392	0.396087
C41	C	1.400402	0.269386	0.296431
C42	C	1.400452	0.269401	0.603801
C43	C	1.400467	0.269410	0.703464
C44	C	1.569790	0.100193	0.703436
C45	C	1.569777	0.100186	0.603780
C46	C	1.485104	0.184795	0.553966
H47	H	1.050636	0.623860	-0.000066
Cl48	Cl	1.294000	0.375766	0.541181
H49	H	1.638712	0.031298	0.563200
Cl50	Cl	0.777724	0.667407	-0.000101
Cl51	Cl	1.293989	0.375753	0.458743
Cl52	Cl	1.481243	-0.463054	-0.367481
H53	H	1.331458	0.338276	0.255873
Cl54	Cl	0.868782	-0.077081	-0.000079
H55	H	1.638733	0.031302	0.744001
H56	H	1.491452	-0.077499	-0.172696
H57	H	1.488319	-0.196336	-0.329260
Cl58	Cl	1.294040	0.375777	0.766114
H59	H	0.719425	0.407069	-0.000093
Cl60	Cl	1.164520	-0.069234	-0.000030
H61	H	1.194836	0.419687	-0.000052
H62	H	1.478802	-0.552906	-0.172677
Cl63	Cl	1.481123	-0.463068	0.194740
Cl64	Cl	1.676176	-0.006183	0.458692
H65	H	1.488179	-0.196347	0.156510
Cl66	Cl	1.676163	-0.006189	0.233761
