data_functionalizedCrystal
_audit_creation_method	'MofGen! by Chris Wilmer'
_symmetry_space_group_name_H-M	'P1'
_symmetry_Int_Tables_number	1
_symmetry_cell_setting	triclinic
loop_
_symmetry_equiv_pos_as_xyz
  x,y,z
_cell_length_a	13.635800
_cell_length_b	11.102244
_cell_length_c	11.020304
_cell_angle_alpha	92.402246
_cell_angle_beta	72.705385
_cell_angle_gamma	71.395130
loop_
_atom_site_label
_atom_site_type_symbol
_atom_site_fract_x
_atom_site_fract_y
_atom_site_fract_z
V1	V	2.048029	-0.175835	-0.396252
O2	O	2.027695	0.008453	-0.388712
O3	O	2.036467	-0.348655	-0.393539
O4	O	2.033046	-0.173129	-0.569073
O5	O	2.031140	-0.168288	-0.211963
V6	V	2.287010	-0.153792	-0.374210
O7	O	2.184755	-0.224188	-0.444603
O8	O	2.375383	-0.105439	-0.325859
O9	O	2.186969	0.019028	-0.376923
O10	O	2.366042	-0.338080	-0.381750
O11	O	2.362598	-0.161339	-0.558499
O12	O	2.190389	-0.156498	-0.201389
V13	V	2.548029	-0.175835	-0.396252
O14	O	2.527695	0.008453	-0.388712
O15	O	2.536467	-0.348655	-0.393539
O16	O	2.533046	-0.173129	-0.569073
O17	O	2.531140	-0.168288	-0.211963
V18	V	2.787010	-0.153792	-0.374210
O19	O	2.684755	-0.224188	-0.444603
O20	O	2.875383	-0.105439	-0.325859
O21	O	2.686969	0.019028	-0.376923
O22	O	2.866042	-0.338080	-0.381750
O23	O	2.862598	-0.161339	-0.558499
O24	O	2.690389	-0.156498	-0.201389
C25	C	1.961744	-0.390784	-0.387287
C26	C	1.992995	-0.532067	-0.386220
C27	C	1.979863	-0.580302	-0.269340
C28	C	2.009235	-0.713055	-0.268353
C29	C	2.064867	-0.749325	-0.501136
C30	C	2.035502	-0.616575	-0.502122
C31	C	1.947740	-0.559363	-0.134944
C32	C	1.977112	-0.692115	-0.133957
C33	C	1.957380	-0.166882	-0.611196
C34	C	1.985855	-0.165813	-0.752478
C35	C	2.093363	0.061151	-0.383172
C36	C	2.051731	0.202432	-0.384247
C37	C	2.097727	-0.162749	-0.159259
C38	C	2.058870	-0.163812	-0.017976
C39	C	2.461744	-0.390784	-0.387287
C40	C	2.492995	-0.532067	-0.386220
C41	C	2.457380	-0.166882	-0.611196
C42	C	2.485855	-0.165813	-0.752478
C43	C	2.080075	-0.280698	0.030247
C44	C	2.043564	-0.281700	0.162997
C45	C	1.964648	-0.048917	0.199290
C46	C	2.001152	-0.047918	0.066542
C47	C	2.593363	0.061151	-0.383172
C48	C	2.551731	0.202432	-0.384247
C49	C	2.597727	-0.162749	-0.159259
C50	C	2.558870	-0.163812	-0.017976
C51	C	2.599558	-0.604914	-0.392060
C52	C	2.628918	-0.737665	-0.391067
C53	C	2.445143	-0.724707	-0.378391
C54	C	2.415786	-0.591960	-0.379392
C55	C	2.591112	-0.171658	-0.825327
C56	C	2.617861	-0.170649	-0.958075
C57	C	2.434087	-0.157955	-0.945114
C58	C	2.407337	-0.158954	-0.812367
H59	H	2.046206	-0.577309	-0.597298
H60	H	1.983879	0.047271	0.027280
H61	H	2.099478	-0.818147	-0.595499
H62	H	2.715690	-0.796973	-0.395825
O63	O	2.720037	-0.176103	-1.028859
C64	C	2.828643	-0.071766	-1.169066
C65	C	2.712867	-0.065413	-1.088932
H66	H	2.822884	0.017702	-1.217677
H67	H	2.880192	-0.076759	-1.103501
H68	H	2.868565	-0.161008	-1.245421
H69	H	2.672849	0.023820	-1.012570
H70	H	2.661397	-0.060490	-1.154579
H71	H	1.997977	-0.520268	-0.088473
O72	O	2.136018	-0.393201	-0.051990
C73	C	2.141757	-0.533238	-0.229015
C74	C	2.078306	-0.405774	-0.135988
H75	H	2.095111	-0.543457	-0.296933
H76	H	2.226433	-0.533749	-0.287202
H77	H	2.150667	-0.616924	-0.171706
H78	H	2.069312	-0.322018	-0.193196
H79	H	1.993668	-0.405375	-0.077798
O80	O	2.357771	-0.151468	-1.003175
C81	C	2.237180	-0.250965	-1.050018
C82	C	2.323580	-0.258450	-0.984188
H83	H	2.209527	-0.337462	-1.034714
H84	H	2.163729	-0.158732	-1.006769
H85	H	2.274383	-0.251195	-1.157396
H86	H	2.286477	-0.258271	-0.876807
H87	H	2.397019	-0.350672	-1.027539
O88	O	1.838143	-0.496553	-0.079478
C89	C	1.662256	-0.514537	0.025588
C90	C	1.786356	-0.585827	-0.037160
H91	H	1.620346	-0.586687	0.059795
H92	H	1.646834	-0.441472	0.111108
H93	H	1.627703	-0.462672	-0.047777
H94	H	1.820992	-0.637767	0.036108
H95	H	1.801703	-0.658819	-0.122704
H96	H	1.917652	0.045439	0.268121
H97	H	2.321619	-0.154185	-0.753050
H98	H	2.049035	-0.731917	-0.096965
H99	H	2.662428	-0.556153	-0.397618
H100	H	2.382285	-0.773489	-0.372829
H101	H	1.902209	-0.715135	-0.077229
H102	H	2.060832	-0.376880	0.202253
H103	H	2.655048	-0.177240	-0.776569
H104	H	2.329008	-0.532646	-0.374642
