data_functionalizedCrystal
_audit_creation_method	'MofGen! by Chris Wilmer'
_symmetry_space_group_name_H-M	'P1'
_symmetry_Int_Tables_number	1
_symmetry_cell_setting	triclinic
loop_
_symmetry_equiv_pos_as_xyz
  x,y,z
_cell_length_a	14.519710
_cell_length_b	12.837942
_cell_length_c	11.892083
_cell_angle_alpha	94.299957
_cell_angle_beta	93.908773
_cell_angle_gamma	90.745458
loop_
_atom_site_label
_atom_site_type_symbol
_atom_site_fract_x
_atom_site_fract_y
_atom_site_fract_z
O1	O	1.240930	-0.129297	0.093978
O2	O	0.973836	-0.145301	0.093986
O3	O	1.101460	0.013614	0.093975
O4	O	1.113306	-0.288212	0.093989
O5	O	1.090808	0.000392	-0.094032
O6	O	0.963184	-0.158523	-0.094021
O7	O	1.230278	-0.142519	-0.094029
Zn8	Zn	1.095040	-0.152620	-0.123875
Zn9	Zn	1.109074	-0.135200	0.123832
O10	O	1.102654	-0.301434	-0.094018
C11	C	0.934086	-0.151166	-0.000017
C12	C	0.831512	-0.148931	-0.000014
C13	C	1.270028	-0.136654	-0.000024
C14	C	1.372603	-0.138888	-0.000019
C15	C	1.092133	0.045631	-0.000028
C16	C	1.080199	0.160731	-0.000026
C17	C	1.748210	-0.147117	-0.000018
C18	C	1.643704	-0.144832	-0.000018
C19	C	1.560410	-0.143003	-0.000018
C20	C	1.455898	-0.140718	-0.000020
C21	C	1.111982	-0.333451	-0.000013
C22	C	1.123916	-0.448550	-0.000008
N23	N	1.085468	-0.164509	-0.292929
C24	C	1.223670	0.401424	-0.000006
C25	C	1.212462	0.509571	-0.000004
C26	C	1.046574	0.485174	-0.000011
C27	C	1.057783	0.377027	-0.000013
C28	C	1.146334	0.335156	-0.000012
C29	C	1.157541	0.227007	-0.000023
C30	C	0.991654	0.202612	-0.000022
C31	C	0.980446	0.310759	-0.000019
C32	C	1.018930	-0.247341	-0.470461
C33	C	1.025602	-0.239015	-0.352120
C34	C	1.138664	-0.098321	-0.352088
C35	C	1.131992	-0.106647	-0.470429
C36	C	1.072124	-0.181161	-0.529612
C37	C	1.065457	-0.189491	-0.647956
C38	C	1.178513	-0.048793	-0.647921
C39	C	1.185185	-0.040467	-0.529580
N40	N	1.118653	-0.123303	0.292885
H41	H	1.229644	0.192918	-0.000026
Cl42	Cl	1.334986	0.348781	-0.000033
Cl43	Cl	1.309690	0.592877	0.000007
H44	H	0.974480	0.519285	0.000001
H45	H	0.908350	0.344865	-0.000016
Cl46	Cl	0.894424	0.119296	-0.000044
H47	H	1.016712	-0.250166	-0.696141
H48	H	0.970190	-0.308020	-0.518649
Cl49	Cl	0.958725	-0.322215	-0.277762
Cl50	Cl	1.245394	0.034403	-0.722293
H51	H	1.187400	-0.037647	-0.303886
Cl52	Cl	1.260442	0.053205	-0.455171
