data_functionalizedCrystal
_audit_creation_method	'MofGen! by Chris Wilmer'
_symmetry_space_group_name_H-M	'P1'
_symmetry_Int_Tables_number	1
_symmetry_cell_setting	triclinic
loop_
_symmetry_equiv_pos_as_xyz
  x,y,z
_cell_length_a	16.625546
_cell_length_b	16.625548
_cell_length_c	16.625539
_cell_angle_alpha	89.979432
_cell_angle_beta	90.030397
_cell_angle_gamma	89.976464
loop_
_atom_site_label
_atom_site_type_symbol
_atom_site_fract_x
_atom_site_fract_y
_atom_site_fract_z
Zn1	Zn	-0.320977	-1.232680	0.455898
Zn2	Zn	0.012356	-0.899347	0.789231
Zn3	Zn	0.345689	-0.566014	1.122564
Zn4	Zn	-0.455820	-1.232584	0.321060
Zn5	Zn	-0.122487	-0.899250	0.654393
Zn6	Zn	0.210846	-0.565917	0.987727
Zn7	Zn	-0.321008	-1.097842	0.321078
Zn8	Zn	0.012325	-0.764509	0.654411
Zn9	Zn	0.345659	-0.431176	0.987745
Zn10	Zn	-0.455774	-1.097813	0.455850
Zn11	Zn	-0.122441	-0.764479	0.789183
Zn12	Zn	0.210893	-0.431146	1.122516
O13	O	-0.388395	-1.165230	0.388471
O14	O	-0.055062	-0.831896	0.721805
O15	O	0.278272	-0.498563	1.055138
O16	O	-0.338871	-1.345500	0.438024
O17	O	-0.005538	-1.012167	0.771357
O18	O	0.327796	-0.678833	1.104690
O19	O	-0.437969	-1.214682	0.208230
O20	O	-0.104636	-0.881348	0.541563
O21	O	0.228697	-0.548015	0.874897
O22	O	-0.208171	-1.115782	0.338990
O23	O	0.125162	-0.782448	0.672323
O24	O	0.458495	-0.449115	1.005657
O25	O	-0.437940	-1.345429	0.338959
O26	O	-0.104606	-1.012096	0.672292
O27	O	0.228727	-0.678762	1.005625
O28	O	-0.208149	-1.214847	0.438041
O29	O	0.125184	-0.881513	0.771375
O30	O	0.458518	-0.548180	1.104708
O31	O	-0.338923	-1.115688	0.208243
O32	O	-0.005590	-0.782355	0.541577
O33	O	0.327743	-0.449021	0.874910
O34	O	-0.338878	-0.985006	0.338944
O35	O	-0.005545	-0.651673	0.672277
O36	O	0.327788	-0.318339	1.005610
O37	O	-0.437861	-1.115731	0.568689
O38	O	-0.104527	-0.782398	0.902022
O39	O	0.228806	-0.449065	1.235355
O40	O	-0.437890	-0.984984	0.437960
O41	O	-0.104557	-0.651651	0.771293
O42	O	0.228776	-0.318318	1.104626
O43	O	-0.338826	-1.214818	0.568724
O44	O	-0.005493	-0.881485	0.902057
O45	O	0.327841	-0.548151	1.235390
O46	O	-0.568647	-1.214653	0.338912
O47	O	-0.235313	-0.881320	0.672246
O48	O	0.098020	-0.547986	1.005579
O49	O	-0.568613	-1.115637	0.437942
O50	O	-0.235279	-0.782304	0.771275
O51	O	0.098054	-0.448971	1.104609
C52	C	-0.388383	-0.955739	0.388449
C53	C	-0.055050	-0.622406	0.721782
C54	C	0.278283	-0.289072	1.055116
C55	C	-0.388398	-0.866118	0.388458
C56	C	-0.055064	-0.532784	0.721792
C57	C	0.278269	-0.199451	1.055125
C58	C	-0.388335	-1.165282	0.598780
C59	C	-0.055001	-0.831949	0.932114
C60	C	0.278332	-0.498616	1.265447
C61	C	-0.388309	-1.165305	0.688402
C62	C	-0.054976	-0.831971	1.021735
C63	C	0.278357	-0.498638	1.355068
C64	C	-0.597886	-1.165153	0.388438
C65	C	-0.264552	-0.831820	0.721771
C66	C	0.068781	-0.498487	1.055104
C67	C	-0.687507	-1.165195	0.388450
C68	C	-0.354174	-0.831861	0.721783
C69	C	-0.020840	-0.498528	1.055117
C70	C	-1.015682	-1.165335	0.388534
C71	C	-0.682349	-0.832002	0.721867
C72	C	-0.349016	-0.498669	1.055201
C73	C	-0.924374	-1.165294	0.388513
C74	C	-0.591041	-0.831960	0.721846
C75	C	-0.257707	-0.498627	1.055180
C76	C	-0.851598	-1.165264	0.388492
C77	C	-0.518264	-0.831931	0.721825
C78	C	-0.184931	-0.498598	1.055158
C79	C	-0.760283	-1.165224	0.388471
C80	C	-0.426950	-0.831891	0.721805
C81	C	-0.093617	-0.498557	1.055138
C82	C	-0.178086	-1.165328	0.388523
C83	C	0.155247	-0.831995	0.721856
C84	C	0.488581	-0.498662	1.055190
C85	C	-0.088465	-1.165370	0.388545
C86	C	0.244869	-0.832037	0.721878
C87	C	0.578202	-0.498704	1.055212
C88	C	-0.388407	-1.375539	0.388494
C89	C	-0.055074	-1.042205	0.721828
C90	C	0.278260	-0.708872	1.055161
C91	C	-0.388412	-1.465160	0.388504
C92	C	-0.055079	-1.131826	0.721838
C93	C	0.278254	-0.798493	1.055171
C94	C	-0.388403	-0.537942	0.388493
C95	C	-0.055070	-0.204609	0.721826
C96	C	0.278264	0.128724	1.055159
C97	C	-0.388399	-0.629251	0.388481
C98	C	-0.055066	-0.295917	0.721814
C99	C	0.278267	0.037416	1.055147
C100	C	-0.388401	-0.702027	0.388475
C101	C	-0.055068	-0.368694	0.721808
C102	C	0.278266	-0.035360	1.055142
C103	C	-0.388396	-0.793341	0.388464
C104	C	-0.055063	-0.460008	0.721797
C105	C	0.278270	-0.126675	1.055131
C106	C	-0.388397	-1.165224	0.178981
C107	C	-0.055063	-0.831891	0.512314
C108	C	0.278270	-0.498557	0.845647
C109	C	-0.388195	-1.165358	0.089360
C110	C	-0.054862	-0.832025	0.422693
C111	C	0.278472	-0.498691	0.756027
C112	C	-0.388219	-1.165342	1.016577
C113	C	-0.054886	-0.832008	1.349911
C114	C	0.278448	-0.498675	1.683244
C115	C	-0.388247	-1.165329	0.925269
C116	C	-0.054913	-0.831996	1.258602
C117	C	0.278420	-0.498662	1.591936
C118	C	-0.388265	-1.165324	0.852492
C119	C	-0.054931	-0.831990	1.185826
C120	C	0.278402	-0.498657	1.519159
C121	C	-0.388291	-1.165310	0.761178
C122	C	-0.054958	-0.831977	1.094511
C123	C	0.278376	-0.498643	1.427845
