data_functionalizedCrystal
_audit_creation_method	'MofGen! by Chris Wilmer'
_symmetry_space_group_name_H-M	'P1'
_symmetry_Int_Tables_number	1
_symmetry_cell_setting	triclinic
loop_
_symmetry_equiv_pos_as_xyz
  x,y,z
_cell_length_a	19.188930
_cell_length_b	19.288865
_cell_length_c	18.366186
_cell_angle_alpha	90.011479
_cell_angle_beta	90.022928
_cell_angle_gamma	83.140512
loop_
_atom_site_label
_atom_site_type_symbol
_atom_site_fract_x
_atom_site_fract_y
_atom_site_fract_z
O1	O	-0.926143	-0.086718	-0.060792
O2	O	-0.426143	0.413282	0.439208
O3	O	-0.722831	-0.098391	-0.060743
O4	O	-0.222831	0.401609	0.439257
O5	O	-0.830361	0.008575	-0.060755
O6	O	-0.330361	0.508575	0.439245
O7	O	-0.818612	-0.193684	-0.060781
O8	O	-0.318612	0.306316	0.439219
O9	O	-0.830343	0.008581	0.060345
O10	O	-0.330343	0.508581	0.560345
O11	O	-0.722812	-0.098386	0.060356
O12	O	-0.222812	0.401614	0.560356
O13	O	-0.926125	-0.086713	0.060307
O14	O	-0.426125	0.413287	0.560307
Zn15	Zn	-0.824466	-0.092548	0.079559
Zn16	Zn	-0.324466	0.407452	0.579559
Zn17	Zn	-0.824490	-0.092555	-0.079995
Zn18	Zn	-0.324490	0.407445	0.420005
O19	O	-0.818594	-0.193679	0.060319
O20	O	-0.318594	0.306321	0.560319
C21	C	-0.696811	-0.098011	-0.000187
C22	C	-0.196811	0.401989	0.499813
C23	C	-0.619306	-0.096876	-0.000168
C24	C	-0.119306	0.403124	0.499832
C25	C	-0.829974	0.034454	-0.000203
C26	C	-0.329974	0.534454	0.499797
C27	C	-0.828839	0.111558	-0.000196
C28	C	-0.328839	0.611558	0.499804
C29	C	-0.952145	-0.087093	-0.000250
C30	C	-0.452145	0.412907	0.499750
C31	C	-1.029649	-0.088228	-0.000274
C32	C	-0.529649	0.411772	0.499726
C33	C	-0.574377	-0.159640	-0.000187
C34	C	-0.074377	0.340360	0.499813
C35	C	-0.501554	-0.158574	-0.000195
C36	C	-0.001554	0.341426	0.499805
C37	C	-0.473662	-0.094740	-0.000198
C38	C	0.026338	0.405260	0.499802
C39	C	-0.518600	-0.031967	-0.000175
C40	C	-0.018600	0.468033	0.499825
C41	C	-0.591423	-0.033035	-0.000159
C42	C	-0.091423	0.466965	0.499841
N43	N	-0.365692	-0.045949	-0.041437
N44	N	0.134308	0.454051	0.458563
N45	N	-0.296513	-0.044938	-0.041453
N46	N	0.203487	0.455062	0.458547
C47	C	-0.254254	-0.091519	-0.000242
C48	C	0.245746	0.408481	0.499758
N49	N	-0.283784	-0.139158	0.040975
N50	N	0.216216	0.360842	0.540975
N51	N	-0.352969	-0.140170	0.040988
N52	N	0.147031	0.359830	0.540988
C53	C	-0.394700	-0.093575	-0.000214
C54	C	0.105300	0.406425	0.499786
C55	C	-0.130361	-0.153132	-0.000269
C56	C	0.369639	0.346868	0.499731
C57	C	-0.057536	-0.152063	-0.000273
C58	C	0.442464	0.347937	0.499727
C59	C	-0.074584	-0.025454	-0.000259
C60	C	0.425416	0.474546	0.499741
C61	C	-0.147407	-0.026525	-0.000249
C62	C	0.352593	0.473475	0.499751
C63	C	-0.175291	-0.090365	-0.000257
C64	C	0.324709	0.409635	0.499743
C65	C	-0.818981	-0.219558	-0.000235
C66	C	-0.318981	0.280442	0.499765
C67	C	-0.820116	-0.296662	-0.000246
C68	C	-0.320116	0.203338	0.499754
N69	N	-0.824454	-0.092543	0.188450
N70	N	-0.324454	0.407457	0.688450
C71	C	-0.891934	0.156250	-0.000208
C72	C	-0.391934	0.656250	0.499792
C73	C	-0.890867	0.228697	-0.000219
C74	C	-0.390867	0.728697	0.499781
C75	C	-0.826703	0.256449	-0.000204
C76	C	-0.326703	0.756449	0.499796
C77	C	-0.763601	0.211748	-0.000196
C78	C	-0.263601	0.711748	0.499804
C79	C	-0.764669	0.139302	-0.000192
C80	C	-0.264669	0.639302	0.499808
C81	C	-0.776257	0.364742	0.042227
C82	C	-0.276257	0.864742	0.542227
C83	C	-0.775191	0.437187	0.042227
C84	C	-0.275191	0.937187	0.542227
C85	C	-0.823407	0.479895	-0.000219
C86	C	-0.323407	0.979895	0.499781
C87	C	-0.872699	0.450151	-0.042657
C88	C	-0.372699	0.950151	0.457343
C89	C	-0.873767	0.377706	-0.042653
C90	C	-0.373767	0.877706	0.457347
C91	C	-0.825538	0.335003	-0.000209
C92	C	-0.325538	0.835003	0.499791
C93	C	-0.885349	0.603143	-0.000244
C94	C	-0.385349	1.103143	0.499756
C95	C	-0.884280	0.675591	-0.000260
C96	C	-0.384280	1.175591	0.499740
C97	C	-0.757012	0.658640	-0.000230
C98	C	-0.257012	1.158640	0.499770
C99	C	-0.758083	0.586194	-0.000222
C100	C	-0.258083	1.086194	0.499778
C101	C	-0.822253	0.558449	-0.000225
C102	C	-0.322253	1.058449	0.499775
N103	N	-0.824506	-0.092555	-0.188886
N104	N	-0.324506	0.407445	0.311114
C105	C	-0.872084	-0.045202	0.226545
C106	C	-0.372084	0.454798	0.726545
C107	C	-0.872089	-0.045199	0.302773
C108	C	-0.372089	0.454801	0.802773
C109	C	-0.824470	-0.092549	0.340903
C110	C	-0.324470	0.407451	0.840903
C111	C	-0.776831	-0.139894	0.302798
C112	C	-0.276831	0.360106	0.802798
C113	C	-0.776823	-0.139891	0.226572
C114	C	-0.276823	0.360109	0.726572
C115	C	-0.815123	-0.155836	0.461656
C116	C	-0.315123	0.344164	0.961656
C117	C	-0.815136	-0.155840	0.537881
C118	C	-0.315136	0.344160	1.037881
C119	C	-0.824490	-0.092558	0.576010
C120	C	-0.324490	0.407442	1.076010
C121	C	-0.833846	-0.029269	0.537905
C122	C	-0.333846	0.470731	1.037905
C123	C	-0.833838	-0.029266	0.461679
C124	C	-0.333838	0.470734	0.961679
C125	C	-0.824473	-0.092557	0.423558
C126	C	-0.324473	0.407443	0.923558
C127	C	-0.872127	-0.045209	0.696761
C128	C	-0.372127	0.454791	1.196761
C129	C	-0.872127	-0.045205	0.772990
C130	C	-0.372127	0.454795	1.272990
C131	C	-0.776872	-0.139907	0.773013
C132	C	-0.276872	0.360093	1.273013
C133	C	-0.776869	-0.139905	0.696786
C134	C	-0.276869	0.360095	1.196786
C135	C	-0.824500	-0.092556	0.658664
C136	C	-0.324500	0.407444	1.158664
H137	H	-0.597075	-0.211624	-0.000196
H138	H	-0.097075	0.288376	0.499804
F139	F	-0.160039	-0.221075	-0.000273
F140	F	0.339961	0.278925	0.499727
F141	F	-0.843806	0.038086	0.578478
F142	F	-0.343806	0.538086	1.078478
F143	F	-0.926224	0.346053	-0.087820
F144	F	-0.426224	0.846053	0.412180
F145	F	-0.009719	-0.218869	-0.000290
F146	F	0.490281	0.281131	0.499710
F147	F	-0.953644	0.573613	-0.000244
F148	F	-0.453644	1.073613	0.499756
H149	H	-0.051876	0.026521	-0.000307
H150	H	0.448124	0.526521	0.499693
H151	H	-0.910867	-0.006647	0.195509
H152	H	-0.410867	0.493353	0.695509
H153	H	-0.495886	0.020007	-0.000187
H154	H	0.004114	0.520007	0.499813
F155	F	-0.922818	0.005186	0.656188
F156	F	-0.422818	0.505186	1.156188
F157	F	-0.726149	-0.190286	0.343379
F158	F	-0.226149	0.309714	0.843379
F159	F	-0.951438	0.723156	-0.000277
F160	F	-0.451438	1.223156	0.499723
F161	F	-0.922820	0.005189	0.813535
F162	F	-0.422820	0.505189	1.313535
H163	H	-0.706704	0.549804	-0.000208
H164	H	-0.206704	1.049804	0.499792
H165	H	-0.464966	-0.209686	-0.000209
H166	H	0.035034	0.290314	0.499791
F167	F	-0.695313	0.241285	-0.000185
F168	F	-0.195313	0.741285	0.499815
H169	H	-0.628004	0.018077	-0.000144
H170	H	-0.128004	0.518077	0.499856
F171	F	-0.195226	0.040279	-0.000232
F172	F	0.304774	0.540279	0.499768
F173	F	-0.805218	-0.223196	0.421084
F174	F	-0.305218	0.276804	0.921084
F175	F	-0.960230	0.126727	-0.000227
F176	F	-0.460230	0.626727	0.499773
F177	F	-0.924018	0.495599	-0.087836
F178	F	-0.424018	0.995599	0.412164
H179	H	-0.738036	-0.178443	0.195554
H180	H	-0.238036	0.321557	0.695554
F181	F	-0.958024	0.276270	-0.000232
F182	F	-0.458024	0.776270	0.499768
H183	H	-0.704768	0.681235	-0.000222
H184	H	-0.204768	1.181235	0.499778
H185	H	-0.735051	0.461398	0.076778
H186	H	-0.235051	0.961398	0.576778
H187	H	-0.738097	-0.178458	0.804058
H188	H	-0.238097	0.321542	1.304058
H189	H	-0.738087	-0.178457	0.665766
H190	H	-0.238087	0.321543	1.165766
F191	F	-0.724936	0.319295	0.087409
F192	F	-0.224936	0.819295	0.587409
F193	F	-0.805183	-0.223197	0.578429
F194	F	-0.305183	0.276803	1.078429
F195	F	-0.697512	0.091736	-0.000180
F196	F	-0.197512	0.591736	0.499820
H197	H	-0.910876	-0.006646	0.333796
H198	H	-0.410876	0.493354	0.833796
F199	F	-0.843789	0.038088	0.421127
F200	F	-0.343789	0.538088	0.921127
