data_functionalizedCrystal
_audit_creation_method	'MofGen! by Chris Wilmer'
_symmetry_space_group_name_H-M	'P1'
_symmetry_Int_Tables_number	1
_symmetry_cell_setting	triclinic
loop_
_symmetry_equiv_pos_as_xyz
  x,y,z
_cell_length_a	14.853558
_cell_length_b	17.019294
_cell_length_c	13.330367
_cell_angle_alpha	86.116384
_cell_angle_beta	89.992972
_cell_angle_gamma	83.512448
loop_
_atom_site_label
_atom_site_type_symbol
_atom_site_fract_x
_atom_site_fract_y
_atom_site_fract_z
O1	O	1.196095	0.102955	-0.092303
O2	O	1.696095	0.602955	0.407697
O3	O	0.933601	0.115231	-0.093368
O4	O	1.433601	0.615231	0.406632
O5	O	1.072170	-0.005732	-0.082912
O6	O	1.572170	0.494268	0.417088
O7	O	1.057526	0.223918	-0.102760
O8	O	1.557526	0.723918	0.397240
O9	O	1.072150	-0.005735	0.083936
O10	O	1.572150	0.494265	0.583936
O11	O	0.933581	0.115228	0.073479
O12	O	1.433581	0.615228	0.573479
O13	O	1.196075	0.102952	0.074544
O14	O	1.696075	0.602952	0.574544
Cu15	Cu	1.064826	0.109090	0.089246
Cu16	Cu	1.564826	0.609090	0.589246
Cu17	Cu	1.064850	0.109093	-0.108070
Cu18	Cu	1.564850	0.609093	0.391930
O19	O	1.057506	0.223915	0.064087
O20	O	1.557506	0.723915	0.564087
C21	C	0.900003	0.114675	-0.009897
C22	C	1.400003	0.614675	0.490103
C23	C	0.799924	0.113012	-0.009755
C24	C	1.299924	0.613012	0.490245
C25	C	1.071604	-0.035123	0.003050
C26	C	1.571604	0.464877	0.503050
C27	C	1.069938	-0.122696	0.010612
C28	C	1.569938	0.377304	0.510612
C29	C	0.752917	0.112233	-0.100640
C30	C	1.252917	0.612233	0.399360
C31	C	0.752893	0.112221	0.081264
C32	C	1.252893	0.612221	0.581264
C33	C	0.658864	0.110654	0.081401
C34	C	1.158864	0.610654	0.581401
C35	C	0.611857	0.109876	-0.009484
C36	C	1.111857	0.609876	0.490516
C37	C	0.658879	0.110664	-0.100506
C38	C	1.158879	0.610664	0.399494
C39	C	0.611836	0.109858	0.172422
C40	C	1.111836	0.609858	0.672422
C41	C	0.517801	0.108290	0.172563
C42	C	1.017801	0.608290	0.672563
C43	C	0.470791	0.107518	0.081676
C44	C	0.970791	0.607518	0.581676
C45	C	0.517819	0.108307	-0.009349
C46	C	1.017819	0.608307	0.490651
C47	C	0.470812	0.107528	-0.100234
C48	C	0.970812	0.607528	0.399766
C49	C	0.517837	0.108323	-0.191262
C50	C	1.017837	0.608323	0.308738
C51	C	0.611869	0.109891	-0.191392
C52	C	1.111869	0.609891	0.308608
C53	C	0.376759	0.105949	0.081807
C54	C	0.876759	0.605949	0.581807
C55	C	0.376774	0.105959	-0.100100
C56	C	0.876774	0.605959	0.399900
C57	C	1.069168	-0.163831	-0.076783
C58	C	1.569168	0.336169	0.423217
C59	C	1.067597	-0.246114	-0.069674
C60	C	1.567597	0.253886	0.430326
C61	C	1.066801	-0.287260	0.024830
C62	C	1.566801	0.212740	0.524830
C63	C	1.067569	-0.246118	0.112232
C64	C	1.567569	0.253882	0.612232
C65	C	1.069134	-0.163837	0.105122
C66	C	1.569134	0.336163	0.605122
C67	C	1.062070	-0.535698	0.050847
C68	C	1.562070	-0.035698	0.550847
C69	C	1.060507	-0.617986	0.057950
C70	C	1.560507	-0.117986	0.557950
C71	C	1.060534	-0.617976	-0.123957
C72	C	1.560534	-0.117976	0.376043
C73	C	1.062104	-0.535693	-0.131059
C74	C	1.562104	-0.035693	0.368941
C75	C	1.062866	-0.494558	-0.043657
C76	C	1.562866	0.005442	0.456343
C77	C	1.065198	-0.371367	0.032099
C78	C	1.565198	0.128633	0.532099
C79	C	1.064463	-0.410452	-0.050927
C80	C	1.564463	0.089548	0.449073
C81	C	1.229672	0.103508	-0.008929
C82	C	1.729672	0.603508	0.491071
C83	C	1.329752	0.105171	-0.009078
C84	C	1.829752	0.605171	0.490922
C85	C	1.058071	0.253306	-0.021876
C86	C	1.558071	0.753306	0.478124
C87	C	1.059738	0.340878	-0.029445
C88	C	1.559738	0.840878	0.470555
N89	N	1.064816	0.109087	0.228028
N90	N	1.564816	0.609087	0.728028
N91	N	1.064867	0.109089	-0.246852
N92	N	1.564867	0.609089	0.253148
C93	C	1.003489	0.162634	0.696022
C94	C	1.503489	0.662634	1.196022
C95	C	1.126235	0.055545	0.705247
C96	C	1.626235	0.555545	1.205247
C97	C	1.126225	0.055543	0.600229
C98	C	1.626225	0.555543	1.100229
C99	C	1.064846	0.109088	0.543102
C100	C	1.564846	0.609088	1.043102
C101	C	1.003478	0.162635	0.590994
C102	C	1.503478	0.662635	1.090994
C103	C	1.187598	0.002002	0.552329
C104	C	1.687598	0.502002	1.052329
C105	C	1.187591	0.001998	0.447305
C106	C	1.687591	0.501998	0.947305
C107	C	1.126207	0.055540	0.390176
C108	C	1.626207	0.555540	0.890176
C109	C	1.064836	0.109089	0.438074
C110	C	1.564836	0.609089	0.938074
C111	C	1.003458	0.162633	0.380947
C112	C	1.503458	0.662633	0.880947
C113	C	0.942082	0.216179	0.428843
C114	C	1.442082	0.716179	0.928843
C115	C	0.942095	0.216177	0.533865
C116	C	1.442095	0.716177	1.033865
C117	C	1.126194	0.055542	0.285154
C118	C	1.626194	0.555542	0.785154
C119	C	1.003448	0.162634	0.275919
C120	C	1.503448	0.662634	0.775919
H121	H	0.338507	0.105330	-0.174111
H122	H	0.838507	0.605330	0.325889
H123	H	1.237565	-0.041602	0.408314
H124	H	1.737565	0.458398	0.908314
H125	H	1.069820	-0.130336	-0.153739
H126	H	1.569820	0.369664	0.346261
H127	H	0.479521	0.107642	0.246683
H128	H	0.979521	0.607642	0.746683
H129	H	0.338474	0.105310	0.155919
H130	H	0.838474	0.605310	0.655919
H131	H	0.892111	0.259779	0.382318
H132	H	1.392111	0.759779	0.882318
H133	H	1.066974	-0.279603	-0.140841
H134	H	1.566974	0.220397	0.359159
H135	H	1.176170	0.011950	0.246162
H136	H	1.676170	0.511950	0.746162
H137	H	1.059855	-0.651485	0.134911
H138	H	1.559855	-0.151485	0.634911
H139	H	0.479552	0.107685	-0.265260
H140	H	0.979552	0.607685	0.234740
H141	H	1.062753	-0.502197	-0.208014
H142	H	1.562753	-0.002197	0.291986
H143	H	0.650166	0.110537	-0.265502
H144	H	1.150166	0.610537	0.234498
H145	H	0.953514	0.206228	0.735022
H146	H	1.453514	0.706228	1.235022
H147	H	0.953462	0.206234	0.229413
H148	H	1.453462	0.706234	0.729413
H149	H	1.059911	-0.651477	-0.195115
H150	H	1.559911	-0.151477	0.304885
H151	H	0.892125	0.259773	0.572869
H152	H	1.392125	0.759773	1.072869
H153	H	1.066916	-0.279626	0.189180
H154	H	1.566916	0.220374	0.689180
H155	H	0.791173	0.112848	0.155259
H156	H	1.291173	0.612848	0.655259
H157	H	0.791208	0.112884	-0.174753
H158	H	1.291208	0.612884	0.325247
H159	H	0.650117	0.110485	0.246416
H160	H	1.150117	0.610485	0.746416
H161	H	1.062708	-0.502218	0.122016
H162	H	1.562708	-0.002218	0.622016
H163	H	1.237575	-0.041589	0.598844
H164	H	1.737575	0.458411	1.098844
H165	H	1.069748	-0.130344	0.176289
H166	H	1.569748	0.369656	0.676289
H167	H	1.065105	-0.376946	-0.127872
H168	H	1.565105	0.123054	0.372128
H169	H	1.064554	-0.404878	0.109045
H170	H	1.564554	0.095122	0.609045
H171	H	1.176212	0.011954	0.751762
H172	H	1.676212	0.511954	1.251762
