data_functionalizedCrystal
_audit_creation_method	'MofGen! by Chris Wilmer'
_symmetry_space_group_name_H-M	'P1'
_symmetry_Int_Tables_number	1
_symmetry_cell_setting	triclinic
loop_
_symmetry_equiv_pos_as_xyz
  x,y,z
_cell_length_a	16.992701
_cell_length_b	10.723022
_cell_length_c	15.455313
_cell_angle_alpha	92.691706
_cell_angle_beta	87.136501
_cell_angle_gamma	87.567198
loop_
_atom_site_label
_atom_site_type_symbol
_atom_site_fract_x
_atom_site_fract_y
_atom_site_fract_z
O1	O	1.045224	0.259599	-0.072134
O2	O	1.545224	0.759599	0.427866
O3	O	0.816923	0.256697	-0.072134
O4	O	1.316923	0.756697	0.427866
O5	O	0.936340	0.077025	-0.072131
O6	O	1.436340	0.577025	0.427869
O7	O	0.925807	0.439271	-0.072137
O8	O	1.425807	0.939271	0.427863
O9	O	0.929511	0.087255	0.072131
O10	O	1.429511	0.587255	0.572131
O11	O	0.810094	0.266927	0.072128
O12	O	1.310094	0.766927	0.572128
O13	O	1.038395	0.269828	0.072128
O14	O	1.538395	0.769828	0.572128
Cu15	Cu	0.923621	0.269311	0.085300
Cu16	Cu	1.423621	0.769311	0.585300
Cu17	Cu	0.931697	0.257214	-0.085306
Cu18	Cu	1.431697	0.757214	0.414694
O19	O	0.918978	0.449500	0.072125
O20	O	1.418978	0.949500	0.572125
C21	C	0.784276	0.258076	-0.000003
C22	C	1.284276	0.758076	0.499997
C23	C	0.697172	0.246930	-0.000003
C24	C	1.197172	0.746930	0.499997
C25	C	0.207810	0.172036	-0.000005
C26	C	0.707810	0.672036	0.499995
C27	C	0.289652	0.182519	-0.000000
C28	C	0.789652	0.682519	0.500000
C29	C	0.321830	0.300562	-0.000006
C30	C	0.821830	0.800562	0.499994
C31	C	0.272160	0.408130	-0.000008
C32	C	0.772160	0.908130	0.499992
C33	C	0.190319	0.397646	-0.000007
C34	C	0.690319	0.897646	0.499993
C35	C	0.565661	0.344013	-0.000004
C36	C	1.065661	0.844013	0.499996
C37	C	0.647509	0.354489	-0.000008
C38	C	1.147509	0.854489	0.499992
C39	C	0.664994	0.128877	0.000002
C40	C	1.164994	0.628877	0.500002
C41	C	0.583151	0.118403	-0.000002
C42	C	1.083151	0.618403	0.499998
C43	C	0.533488	0.225971	-0.000000
C44	C	1.033488	0.725971	0.500000
N45	N	0.405486	0.311280	-0.000004
N46	N	0.905486	0.811280	0.499996
N47	N	0.449834	0.215252	0.000004
N48	N	0.949834	0.715252	0.500004
C49	C	0.932159	0.035574	-0.000001
C50	C	1.432159	0.535574	0.499999
C51	C	0.929867	-0.103178	-0.000004
C52	C	1.429867	0.396822	0.499996
C53	C	0.994315	-0.315808	-0.000008
C54	C	1.494315	0.184192	0.499992
C55	C	0.996686	-0.172401	-0.000005
C56	C	1.496686	0.327599	0.499995
C57	C	1.071042	0.268449	-0.000005
C58	C	1.571042	0.768449	0.499995
C59	C	1.158146	0.279595	-0.000010
C60	C	1.658146	0.779595	0.499990
C61	C	0.923159	0.490951	-0.000007
C62	C	1.423159	0.990951	0.499993
C63	C	0.925451	0.629702	-0.000010
C64	C	1.425451	1.129702	0.499990
N65	N	0.917946	0.277820	0.205296
N66	N	1.417946	0.777820	0.705296
N67	N	0.937378	0.248696	-0.205301
N68	N	1.437378	0.748696	0.294699
C69	C	0.968697	0.201520	0.250691
C70	C	1.468697	0.701520	0.750691
C71	C	0.964413	0.207967	0.341499
C72	C	1.464413	0.707967	0.841499
C73	C	0.909381	0.290721	0.386910
C74	C	1.409381	0.790721	0.886910
C75	C	0.858625	0.367023	0.341508
C76	C	1.358625	0.867023	0.841508
C77	C	0.862906	0.360569	0.250702
C78	C	1.362906	0.860569	0.750702
C79	C	0.890903	0.318545	0.658490
C80	C	1.390903	0.818545	1.158490
C81	C	0.886627	0.324996	0.749303
C82	C	1.386627	0.824996	1.249303
C83	C	0.992414	0.165938	0.749288
C84	C	1.492414	0.665938	1.249288
C85	C	0.996693	0.159496	0.658480
C86	C	1.496693	0.659496	1.158480
C87	C	0.945935	0.235794	0.613086
C88	C	1.445935	0.735794	1.113086
N89	N	0.905002	0.297315	0.479730
N90	N	1.405002	0.797315	0.979730
N91	N	0.950310	0.229192	0.520268
N92	N	1.450310	0.729192	1.020268
H93	H	0.181617	0.075912	-0.000006
H94	H	0.681617	0.575912	0.499994
H95	H	0.149883	0.485233	-0.000008
H96	H	0.649883	0.985233	0.499992
C97	C	0.798082	0.458040	0.391463
C98	C	1.298082	0.958040	0.891463
N99	N	0.752480	0.526596	0.429088
N100	N	1.252480	1.026596	0.929088
C101	C	0.848172	-0.289897	-0.000009
C102	C	1.348172	0.210103	0.499991
N103	N	0.789962	-0.229341	-0.000011
N104	N	1.289962	0.270659	0.499989
H105	H	0.849574	0.380672	0.621538
H106	H	1.349574	0.880672	1.121538
H107	H	1.005737	0.145838	0.378460
H108	H	1.505737	0.645838	0.878460
H109	H	0.556958	0.022280	0.000003
H110	H	1.056958	0.522280	0.500003
H111	H	1.033739	0.103818	0.786256
H112	H	1.533739	0.603818	1.286256
C113	C	0.344279	0.064194	0.000005
C114	C	0.844279	0.564194	0.500005
N115	N	0.385423	-0.024934	0.000009
N116	N	0.885423	0.475066	0.500009
H117	H	1.055648	-0.125515	-0.000035
H118	H	1.555648	0.374485	0.499965
H119	H	0.525235	0.431603	-0.000007
H120	H	1.025235	0.931603	0.499993
C121	C	1.029236	0.110484	0.200748
C122	C	1.529236	0.610484	0.700748
N123	N	1.074833	0.041908	0.163133
N124	N	1.574833	0.541908	0.663133
H125	H	0.705438	0.041302	0.000001
H126	H	1.205438	0.541302	0.500001
C127	C	1.057228	0.068454	0.608535
C128	C	1.557228	0.568454	1.108535
N129	N	1.102824	-0.000119	0.570917
N130	N	1.602824	0.499881	1.070917
H131	H	0.298366	0.504244	-0.000008
H132	H	0.798366	1.004244	0.499992
C133	C	0.826083	0.416031	0.799253
C134	C	1.326083	0.916031	1.299253
N135	N	0.780484	0.484595	0.836875
N136	N	1.280484	0.984595	1.336875
H137	H	0.673704	0.450620	-0.000001
H138	H	1.173704	0.950620	0.499999
H139	H	1.051516	-0.375326	-0.000004
H140	H	1.551516	0.124674	0.499996
C141	C	0.807083	0.444515	0.200767
C142	C	1.307083	0.944515	0.700767
N143	N	0.765035	0.507747	0.163157
N144	N	1.265035	1.007747	0.663157
H145	H	0.870903	-0.150058	-0.000010
H146	H	1.370903	0.349942	0.499990
