data_functionalizedCrystal
_audit_creation_method	'MofGen! by Chris Wilmer'
_symmetry_space_group_name_H-M	'P1'
_symmetry_Int_Tables_number	1
_symmetry_cell_setting	triclinic
loop_
_symmetry_equiv_pos_as_xyz
  x,y,z
_cell_length_a	11.169417
_cell_length_b	19.805405
_cell_length_c	11.169409
_cell_angle_alpha	89.960201
_cell_angle_beta	89.979436
_cell_angle_gamma	90.027289
loop_
_atom_site_label
_atom_site_type_symbol
_atom_site_fract_x
_atom_site_fract_y
_atom_site_fract_z
Zn1	Zn	1.834837	-0.269393	-0.678480
Zn2	Zn	1.834668	-0.382602	-0.477771
Zn3	Zn	1.634120	-0.269434	-0.477814
Zn4	Zn	1.634074	-0.382547	-0.678415
O5	O	1.734425	-0.325994	-0.578120
O6	O	2.002764	-0.284416	-0.651864
O7	O	1.808013	-0.367630	-0.309827
O8	O	1.660836	-0.174712	-0.504478
O9	O	2.002640	-0.367590	-0.504404
O10	O	1.808302	-0.174682	-0.651907
O11	O	1.660672	-0.284486	-0.309859
O12	O	1.466165	-0.284433	-0.504416
O13	O	1.660757	-0.367497	-0.846374
O14	O	1.466131	-0.367537	-0.651797
O15	O	1.808257	-0.284363	-0.846421
O16	O	1.807968	-0.477311	-0.504341
O17	O	1.660593	-0.477271	-0.651754
C18	C	1.422600	-0.325984	-0.578105
C19	C	1.289200	-0.325996	-0.578127
C20	C	1.734290	-0.501850	-0.578062
C21	C	1.734342	-0.577082	-0.578077
C22	C	1.811154	-0.612425	-0.501400
C23	C	1.811205	-0.683113	-0.501426
C24	C	1.734437	-0.718458	-0.578125
C25	C	1.657621	-0.683110	-0.654811
C26	C	1.657577	-0.612423	-0.654790
C27	C	1.657798	-0.968183	-0.654900
C28	C	1.657845	-1.038875	-0.654913
C29	C	1.811427	-1.038874	-0.501537
C30	C	1.811382	-0.968186	-0.501515
C31	C	1.734571	-0.932845	-0.578205
C32	C	1.734519	-0.856197	-0.578177
C33	C	1.734483	-0.795105	-0.578148
C34	C	2.047467	-0.326005	-0.578136
C35	C	2.180867	-0.326009	-0.578143
C36	C	1.734521	-0.325919	-0.891163
C37	C	1.734562	-0.325887	-1.024563
C38	C	1.734593	-0.149451	-0.578205
C39	C	1.734665	-0.074219	-0.578241
C40	C	1.734398	-0.326020	-0.266295
C41	C	1.734590	-0.325861	-0.132896
H42	H	1.873663	-0.583652	-0.438938
O43	O	1.894286	-1.077003	-0.418841
H44	H	1.873736	-1.063502	-0.324621
H45	H	1.873890	-0.939411	-0.439056
H46	H	1.873753	-0.711886	-0.438987
O47	O	1.575046	-1.077003	-0.737643
H48	H	1.595587	-1.063392	-0.831853
O49	O	1.574919	-0.930068	-0.737574
H50	H	1.521527	-0.966523	-0.790887
H51	H	1.595119	-0.711893	-0.717266
O52	O	1.574716	-0.574298	-0.737477
H53	H	1.521329	-0.610749	-0.790804
