data_functionalizedCrystal
_audit_creation_method	'MofGen! by Chris Wilmer'
_symmetry_space_group_name_H-M	'P1'
_symmetry_Int_Tables_number	1
_symmetry_cell_setting	triclinic
loop_
_symmetry_equiv_pos_as_xyz
  x,y,z
_cell_length_a	10.967926
_cell_length_b	17.019294
_cell_length_c	10.066323
_cell_angle_alpha	102.582595
_cell_angle_beta	69.214253
_cell_angle_gamma	84.884424
loop_
_atom_site_label
_atom_site_type_symbol
_atom_site_fract_x
_atom_site_fract_y
_atom_site_fract_z
O1	O	1.700102	0.082670	-0.276633
O2	O	1.322071	0.102483	-0.185396
O3	O	1.523918	-0.023890	-0.247725
O4	O	1.498255	0.209044	-0.214303
O5	O	1.562452	-0.048037	-0.486601
O6	O	1.360605	0.078337	-0.424271
O7	O	1.738635	0.058523	-0.515508
Zn8	Zn	1.555738	0.064596	-0.507816
Zn9	Zn	1.504968	0.096410	-0.193088
O10	O	1.536788	0.184897	-0.453178
C11	C	1.293009	0.090793	-0.293422
C12	C	1.149006	0.091924	-0.259421
C13	C	1.104766	0.079920	-0.368007
C14	C	0.955932	0.081089	-0.332868
C15	C	1.542972	-0.065705	-0.370607
C16	C	1.542322	-0.154325	-0.380864
C17	C	1.521015	-0.182792	-0.255474
C18	C	1.520396	-0.266059	-0.265115
C19	C	1.541094	-0.320859	-0.400149
C20	C	1.562398	-0.292386	-0.525548
C21	C	1.563008	-0.209120	-0.515904
C22	C	1.540297	-0.572928	-0.435781
C23	C	1.539690	-0.656200	-0.445417
C24	C	1.497685	-0.629867	-0.184982
C25	C	1.498304	-0.546601	-0.175352
C26	C	1.519601	-0.518135	-0.300748
C27	C	1.540466	-0.405972	-0.410008
C28	C	1.520220	-0.433022	-0.290886
C29	C	1.767697	0.070214	-0.407478
C30	C	1.911698	0.069084	-0.441470
C31	C	1.517734	0.226712	-0.330294
C32	C	1.518383	0.315333	-0.320026
N33	N	1.590396	0.042883	-0.722612
C34	C	1.543707	0.072143	-0.933152
C35	C	1.516999	0.088863	-0.767748
N36	N	1.470320	0.118117	0.021705
H37	H	1.076696	0.103065	-0.140443
O38	O	1.500830	-0.129667	-0.124172
C39	C	1.481922	-0.172656	-0.015576
H40	H	1.446523	-0.231793	-0.050477
H41	H	1.404343	-0.133139	0.093849
H42	H	1.579605	-0.187799	-0.002285
O43	O	1.476987	-0.657385	-0.063039
C44	C	1.458793	-0.591156	0.058225
H45	H	1.506542	-0.539746	0.016779
H46	H	1.506941	-0.612260	0.130984
H47	H	1.348188	-0.567907	0.124969
H48	H	1.503051	-0.289232	-0.163010
H49	H	1.387723	0.169857	-0.894492
O50	O	1.418585	0.150693	-0.667868
C51	C	1.443912	0.225672	-0.699847
H52	H	1.554437	0.219945	-0.765863
H53	H	1.412268	0.275986	-0.592464
H54	H	1.385511	0.241716	-0.767069
H55	H	0.883625	0.092231	-0.213882
H56	H	1.481451	-0.501987	-0.065393
H57	H	0.984005	0.057937	-0.560457
H58	H	1.626314	0.020408	-1.016955
H59	H	1.556539	-0.700817	-0.555382
O60	O	1.561103	-0.545429	-0.557754
C61	C	1.579231	-0.611654	-0.678998
H62	H	1.613731	-0.671225	-0.657820
H63	H	1.657190	-0.603067	-0.782840
H64	H	1.481433	-0.614220	-0.694377
O65	O	1.688782	-0.018927	-0.822602
C66	C	1.634292	-0.075631	-0.899147
H67	H	1.524703	-0.070491	-0.829650
H68	H	1.688835	-0.140294	-0.921326
H69	H	1.645276	-0.061961	-1.008360
H70	H	1.579243	-0.337010	-0.635494
H71	H	1.580340	-0.185942	-0.618005
H72	H	1.557322	-0.450599	-0.519954
O73	O	1.191176	0.066527	-0.509912
C74	C	1.286851	-0.004285	-0.548050
H75	H	1.294139	-0.016153	-0.443707
H76	H	1.387291	0.005020	-0.622810
H77	H	1.256491	-0.058980	-0.608472
O78	O	1.499871	-0.379808	-0.159621
C79	C	1.374465	-0.381008	-0.054979
H80	H	1.307958	-0.403805	-0.114408
H81	H	1.327575	-0.316534	0.019753
H82	H	1.386454	-0.423655	0.014335
