data_functionalizedCrystal
_audit_creation_method	'MofGen! by Chris Wilmer'
_symmetry_space_group_name_H-M	'P1'
_symmetry_Int_Tables_number	1
_symmetry_cell_setting	triclinic
loop_
_symmetry_equiv_pos_as_xyz
  x,y,z
_cell_length_a	29.019771
_cell_length_b	29.019011
_cell_length_c	29.015668
_cell_angle_alpha	60.004890
_cell_angle_beta	60.009825
_cell_angle_gamma	59.993818
loop_
_atom_site_label
_atom_site_type_symbol
_atom_site_fract_x
_atom_site_fract_y
_atom_site_fract_z
O1	O	0.063866	-0.673289	0.563007
O2	O	0.024059	-0.524205	0.453633
O3	O	0.118464	-0.618532	0.453552
O4	O	-0.030540	-0.578962	0.563088
O5	O	0.149785	-0.587215	0.484789
O6	O	0.055379	-0.492888	0.484869
O7	O	0.095186	-0.641972	0.594244
Cu8	Cu	0.078143	-0.564571	0.542409
Cu9	Cu	0.041102	-0.601606	0.505468
O10	O	0.000781	-0.547645	0.594325
N11	N	0.104196	-0.538525	0.568394
N12	N	0.015054	-0.627656	0.479483
C13	C	0.143783	-0.499167	0.850823
C14	C	0.386758	-0.499111	0.607645
C15	C	0.143618	-0.499136	0.607763
C16	C	0.143598	-0.256029	0.607770
C17	C	0.182748	-0.373362	0.646852
C18	C	0.182758	-0.460025	0.646847
C19	C	0.204440	-0.438361	0.668500
C20	C	0.298958	-0.422064	0.618723
C21	C	0.358043	-0.441753	0.599006
C22	C	0.358069	-0.537354	0.635461
C23	C	0.298985	-0.517664	0.655180
C24	C	0.196983	-0.343808	0.588767
C25	C	0.177262	-0.284720	0.569090
C26	C	0.129075	-0.284743	0.665586
C27	C	0.148797	-0.343831	0.685263
C28	C	0.124666	-0.445760	0.661149
C29	C	0.104961	-0.465454	0.641458
C30	C	0.201435	-0.513678	0.593176
C31	C	0.221143	-0.493984	0.612860
C32	C	0.124738	-0.445777	0.763064
C33	C	0.105085	-0.465488	0.822151
C34	C	0.201594	-0.513722	0.822097
C35	C	0.221247	-0.494012	0.763009
C36	C	0.182817	-0.460038	0.733494
C37	C	0.269432	-0.460018	0.646809
C38	C	0.121399	-0.520450	0.915812
C39	C	0.451745	-0.520012	0.585655
C40	C	0.121177	-0.520429	0.586502
C41	C	0.121544	-0.191035	0.586883
C42	C	-0.110592	-0.666601	0.440035
C43	C	-0.023978	-0.666709	0.440231
C44	C	-0.045598	-0.688342	0.418486
C45	C	-0.061967	-0.782825	0.468184
C46	C	-0.042323	-0.841914	0.487907
C47	C	0.053280	-0.842025	0.451623
C48	C	0.033634	-0.782937	0.431899
C49	C	-0.140218	-0.680832	0.498102
C50	C	-0.199302	-0.661065	0.517690
C51	C	-0.199129	-0.612843	0.421140
C52	C	-0.140045	-0.632610	0.401552
C53	C	-0.038209	-0.608622	0.425941
C54	C	-0.018555	-0.588961	0.445716
C55	C	0.029562	-0.685470	0.494059
C56	C	0.009908	-0.705133	0.474291
C57	C	-0.038037	-0.608631	0.323917
C58	C	-0.018247	-0.588973	0.264830
C59	C	0.029955	-0.685489	0.264893
C60	C	0.010165	-0.705145	0.323981
C61	C	-0.023833	-0.666715	0.353492
C62	C	-0.023990	-0.753339	0.440182
N63	N	0.504925	-0.538487	0.568205
O64	O	0.685342	-0.543679	0.433426
O65	O	0.685533	-0.653395	0.582361
O66	O	0.685457	-0.653145	0.487904
O67	O	0.685418	-0.543929	0.527882
O68	O	0.591592	-0.621921	0.519268
O69	O	0.591667	-0.622171	0.613725
O70	O	0.591477	-0.512455	0.464790
Cu71	Cu	0.583001	-0.564462	0.542121
Cu72	Cu	0.694008	-0.601388	0.505029
O73	O	0.591553	-0.512705	0.559246
N74	N	0.772084	-0.627363	0.478939
N75	N	0.104168	-0.137853	0.568408
O76	O	-0.030538	0.042663	0.563097
O77	O	0.118403	0.042683	0.453379
O78	O	0.023918	0.042657	0.453664
O79	O	0.063947	0.042689	0.562813
O80	O	0.055242	-0.051215	0.484950
O81	O	0.149727	-0.051189	0.484666
O82	O	0.000787	-0.051210	0.594384
Cu83	Cu	0.078117	-0.059771	0.542381
Cu84	Cu	0.041072	0.051244	0.505382
O85	O	0.095272	-0.051184	0.594099
N86	N	0.015015	0.129326	0.479356
N87	N	0.104469	-0.538576	0.968995
O88	O	0.099171	-0.673268	1.149499
O89	O	-0.010519	-0.524279	1.149527
O90	O	-0.010265	-0.618748	1.149494
O91	O	0.098916	-0.578799	1.149533
O92	O	0.021008	-0.587443	1.055625
O93	O	0.020753	-0.492974	1.055659
O94	O	0.130444	-0.641963	1.055630
Cu95	Cu	0.078454	-0.564610	1.047074
Cu96	Cu	0.041470	-0.601632	1.158084
O97	O	0.130189	-0.547494	1.055664
N98	N	0.015455	-0.627672	1.236163
C99	C	0.035988	-0.489761	0.454182
C100	C	0.152897	-0.606574	0.454082
C101	C	0.083257	-0.676417	0.593694
C102	C	-0.033653	-0.559604	0.593794
C103	C	0.638623	-0.652892	0.616806
C104	C	0.638531	-0.652583	0.499833
C105	C	0.638384	-0.512957	0.430345
C106	C	0.638480	-0.513267	0.547317
C107	C	0.152789	-0.004135	0.453875
C108	C	0.035820	-0.004282	0.454266
C109	C	-0.033639	-0.004275	0.593849
C110	C	0.083370	-0.004245	0.593498
C111	C	-0.009989	-0.489856	1.102597
C112	C	-0.009667	-0.606839	1.102536
C113	C	0.129914	-0.676386	1.102561
C114	C	0.129599	-0.559396	1.102601
H115	H	0.057789	-0.453866	0.846219
H116	H	0.638547	-0.686893	0.491276
O117	O	-0.050552	-0.617105	1.102550
C118	C	-0.063541	-0.662804	1.151146
H119	H	-0.026251	-0.689840	1.167385
H120	H	-0.072543	-0.689456	1.140165
H121	H	-0.102330	-0.646069	1.185182
O122	O	-0.084710	-0.004174	0.634893
C123	C	-0.127274	0.044432	0.615595
H124	H	-0.108051	0.078410	0.580439
H125	H	-0.160951	0.060760	0.651978
H126	H	-0.147238	0.033431	0.598766
O127	O	0.203734	-0.003789	0.412730
C128	C	0.238843	-0.003683	0.432999
H129	H	0.211697	0.013904	0.469361
H130	H	0.265660	0.023791	0.397555
H131	H	0.267561	-0.048657	0.448469
O132	O	0.093535	-0.004140	0.634392
C133	C	0.054839	0.044467	0.649598
H134	H	0.038268	0.078446	0.613449
H135	H	0.076845	0.060792	0.658728
H136	H	0.018115	0.033468	0.688910
O137	O	-0.051022	-0.438787	1.102631
C138	C	-0.030702	-0.403661	1.102633
H139	H	0.005532	-0.430805	1.120405
H140	H	-0.066170	-0.376621	1.129892
H141	H	-0.015038	-0.375156	1.057604
O142	O	0.170931	-0.727471	1.102574
C143	C	0.150622	-0.762585	1.102539
H144	H	0.102547	-0.747297	1.120311
H145	H	0.167934	-0.807803	1.129781
H146	H	0.164962	-0.761050	1.057500
O147	O	0.203991	-0.616716	0.413114
C148	C	0.239060	-0.672181	0.433509
H149	H	0.223745	-0.687128	0.481584
H150	H	0.284286	-0.672896	0.416225
H151	H	0.237508	-0.701369	0.419212
H152	H	0.091761	-0.719242	0.628046
H153	H	0.638322	-0.478510	0.387573
H154	H	0.163899	-0.550848	1.102605
H155	H	0.027485	-0.446933	0.419832
O156	O	-0.084730	-0.549445	0.634779
C157	C	-0.119809	-0.493990	0.614373
H158	H	-0.092633	-0.467187	0.578123
H159	H	-0.146845	-0.475092	0.649792
H160	H	-0.148317	-0.494850	0.598704
H161	H	0.027247	-0.004286	0.419974
H162	H	0.093440	-0.418108	0.739036
H163	H	0.638671	-0.687334	0.659583
O164	O	0.638439	-0.472388	0.557620
C165	C	0.638514	-0.492956	0.613084
H166	H	0.620786	-0.529208	0.639791
H167	H	0.611256	-0.457617	0.632093
H168	H	0.683559	-0.508673	0.612217
H169	H	0.268542	-0.505632	0.738936
O170	O	0.239002	-0.546728	0.850676
C171	C	0.294478	-0.555071	0.811904
H172	H	0.294342	-0.548466	0.769794
H173	H	0.322556	-0.599882	0.828953
H174	H	0.311396	-0.523614	0.805611
H175	H	0.057658	-0.453826	0.653091
O176	O	0.087303	-0.412757	0.694134
C177	C	0.031805	-0.404399	0.702541
H178	H	0.031887	-0.410992	0.666922
H179	H	0.003745	-0.359589	0.702868
H180	H	0.014904	-0.435857	0.744632
H181	H	0.232695	-0.541333	0.565509
H182	H	0.268446	-0.505593	0.601208
H183	H	0.274946	-0.548573	0.678050
H184	H	0.382082	-0.410845	0.576135
O185	O	0.386693	-0.593373	0.643654
C186	C	0.347963	-0.622650	0.672657
H187	H	0.305852	-0.596880	0.696884
H188	H	0.365062	-0.665261	0.703489
H189	H	0.341656	-0.629484	0.641053
H190	H	0.274901	-0.375125	0.611905
O191	O	0.229934	-0.372409	0.551381
C192	C	0.238274	-0.333651	0.495892
H193	H	0.202642	-0.291536	0.496019
H194	H	0.238561	-0.350718	0.467847
H195	H	0.280361	-0.327358	0.478942
H196	H	0.101438	-0.260698	0.696864
O197	O	0.191014	-0.255920	0.512682
C198	C	0.166342	-0.197435	0.503550
H199	H	0.128430	-0.189377	0.542334
H200	H	0.151980	-0.174971	0.465267
H201	H	0.198663	-0.180663	0.495665
O202	O	0.134938	-0.372456	0.741709
C203	C	0.100728	-0.333721	0.771391
H204	H	0.108246	-0.291594	0.743215
H205	H	0.111829	-0.350800	0.810812
H206	H	0.054449	-0.327446	0.784148
H207	H	-0.065723	-0.577332	0.347941
O208	O	-0.032129	-0.532528	0.236194
C209	C	-0.066368	-0.502829	0.274915
H210	H	-0.087906	-0.530975	0.317009
H211	H	-0.099750	-0.463375	0.257773
H212	H	-0.039137	-0.490120	0.281271
H213	H	0.057627	-0.716785	0.240872
H214	H	-0.065797	-0.577331	0.398207
O215	O	0.023996	-0.761590	0.352621
C216	C	0.058254	-0.791290	0.313902
H217	H	0.050793	-0.763111	0.271742
H218	H	0.047150	-0.830692	0.330944
H219	H	0.104519	-0.804085	0.307712
H220	H	0.057158	-0.716762	0.521784
O221	O	-0.032296	-0.532531	0.431734
C222	C	-0.011993	-0.508040	0.372555
H223	H	0.024445	-0.541727	0.353567
H224	H	0.003379	-0.473251	0.361285
H225	H	-0.047386	-0.489338	0.354962
O226	O	0.023805	-0.761578	0.488199
C227	C	0.057917	-0.791278	0.522511
H228	H	0.079401	-0.763135	0.515032
H229	H	0.091343	-0.830736	0.511480
H230	H	0.030593	-0.803980	0.568766
H231	H	0.100203	-0.866125	0.444882
O232	O	0.070600	-0.754381	0.404731
C233	C	0.125674	-0.793178	0.401642
H234	H	0.123367	-0.835278	0.436543
H235	H	0.149907	-0.776139	0.407057
H236	H	0.148283	-0.799490	0.358829
O237	O	-0.079205	-0.870556	0.515040
C238	C	-0.064457	-0.904760	0.485111
H239	H	-0.038849	-0.887024	0.439189
H240	H	-0.104424	-0.905351	0.487140
H241	H	-0.038173	-0.949564	0.504803
O242	O	-0.117955	-0.754163	0.476237
C243	C	-0.147260	-0.792863	0.505187
H244	H	-0.116937	-0.835008	0.498420
H245	H	-0.182828	-0.775766	0.488353
H246	H	-0.165712	-0.799109	0.552194
H247	H	-0.116238	-0.708516	0.529438
H248	H	-0.223425	-0.672650	0.564976
H249	H	-0.223112	-0.585171	0.389803
H250	H	-0.115923	-0.621016	0.354266
