data_functionalizedCrystal
_audit_creation_method	'MofGen! by Chris Wilmer'
_symmetry_space_group_name_H-M	'P1'
_symmetry_Int_Tables_number	1
_symmetry_cell_setting	triclinic
loop_
_symmetry_equiv_pos_as_xyz
  x,y,z
_cell_length_a	16.625539
_cell_length_b	13.897449
_cell_length_c	13.897448
_cell_angle_alpha	89.981028
_cell_angle_beta	89.974316
_cell_angle_gamma	90.015918
loop_
_atom_site_label
_atom_site_type_symbol
_atom_site_fract_x
_atom_site_fract_y
_atom_site_fract_z
Zn1	Zn	-0.455889	-1.474657	-0.383998
Zn2	Zn	-0.205889	-1.224657	-0.133998
Zn3	Zn	0.044111	-0.974657	0.116002
Zn4	Zn	0.294111	-0.724657	0.366002
Zn5	Zn	-0.321058	-1.474564	-0.545306
Zn6	Zn	-0.071058	-1.224564	-0.295306
Zn7	Zn	0.178942	-0.974564	-0.045306
Zn8	Zn	0.428942	-0.724564	0.204694
Zn9	Zn	-0.321072	-1.313359	-0.384030
Zn10	Zn	-0.071072	-1.063359	-0.134030
Zn11	Zn	0.178928	-0.813359	0.115970
Zn12	Zn	0.428928	-0.563359	0.365970
Zn13	Zn	-0.455851	-1.313328	-0.545256
Zn14	Zn	-0.205851	-1.063328	-0.295256
Zn15	Zn	0.044149	-0.813328	-0.045256
Zn16	Zn	0.294149	-0.563328	0.204744
O17	O	-0.388468	-1.393977	-0.464648
O18	O	-0.138468	-1.143977	-0.214648
O19	O	0.111532	-0.893977	0.035352
O20	O	0.361532	-0.643977	0.285352
O21	O	-0.438014	-1.609626	-0.405403
O22	O	-0.188014	-1.359626	-0.155403
O23	O	0.061986	-1.109626	0.094597
O24	O	0.311986	-0.859626	0.344597
O25	O	-0.208228	-1.453155	-0.523946
O26	O	0.041772	-1.203155	-0.273946
O27	O	0.291772	-0.953155	-0.023946
O28	O	0.541772	-0.703155	0.226054
O29	O	-0.338978	-1.334808	-0.249044
O30	O	-0.088978	-1.084808	0.000956
O31	O	0.161022	-0.834808	0.250956
O32	O	0.411022	-0.584808	0.500956
O33	O	-0.338954	-1.609558	-0.523915
O34	O	-0.088954	-1.359558	-0.273915
O35	O	0.161046	-1.109558	-0.023915
O36	O	0.411046	-0.859558	0.226085
O37	O	-0.438027	-1.453312	-0.249021
O38	O	-0.188027	-1.203312	0.000979
O39	O	0.061973	-0.953312	0.250979
O40	O	0.311973	-0.703312	0.500979
O41	O	-0.208238	-1.334718	-0.405458
O42	O	0.041762	-1.084718	-0.155458
O43	O	0.291762	-0.834718	0.094542
O44	O	0.541762	-0.584718	0.344542
O45	O	-0.338941	-1.178374	-0.405410
O46	O	-0.088941	-0.928374	-0.155410
O47	O	0.161059	-0.678374	0.094590
O48	O	0.411059	-0.428374	0.344590
O49	O	-0.568688	-1.334754	-0.523831
O50	O	-0.318688	-1.084754	-0.273831
O51	O	-0.068688	-0.834754	-0.023831
O52	O	0.181312	-0.584754	0.226169
O53	O	-0.437962	-1.178350	-0.523862
O54	O	-0.187962	-0.928350	-0.273862
O55	O	0.062038	-0.678350	-0.023862
O56	O	0.312038	-0.428350	0.226138
O57	O	-0.568716	-1.453281	-0.405355
O58	O	-0.318716	-1.203281	-0.155355
O59	O	-0.068716	-0.953281	0.094645
O60	O	0.181284	-0.703281	0.344645
O61	O	-0.338917	-1.453124	-0.680281
O62	O	-0.088917	-1.203124	-0.430281
O63	O	0.161083	-0.953124	-0.180281
O64	O	0.411083	-0.703124	0.069719
O65	O	-0.437948	-1.334664	-0.680245
O66	O	-0.187948	-1.084664	-0.430245
O67	O	0.062052	-0.834664	-0.180245
O68	O	0.312052	-0.584664	0.069755
C69	C	-0.388444	-1.393907	-0.715262
C70	C	-0.138444	-1.143907	-0.465262
C71	C	0.111556	-0.893907	-0.215262
C72	C	0.361556	-0.643907	0.034738
C73	C	-0.388461	-1.393965	-0.822476
C74	C	-0.138461	-1.143965	-0.572476
C75	C	0.111539	-0.893965	-0.322476
C76	C	0.361539	-0.643965	-0.072476
C77	C	-0.388449	-1.143363	-0.464635
C78	C	-0.138449	-0.893363	-0.214635
C79	C	0.111551	-0.643363	0.035365
C80	C	0.361551	-0.393363	0.285365
C81	C	-0.388460	-1.036149	-0.464652
C82	C	-0.138460	-0.786149	-0.214652
C83	C	0.111540	-0.536149	0.035348
C84	C	0.361540	-0.286149	0.285348
C85	C	-0.598777	-1.394024	-0.464584
C86	C	-0.348777	-1.144024	-0.214584
C87	C	-0.098777	-0.894024	0.035416
C88	C	0.151223	-0.644024	0.285416
C89	C	-0.688398	-1.394044	-0.464557
C90	C	-0.438398	-1.144044	-0.214557
C91	C	-0.188398	-0.894044	0.035443
C92	C	0.061602	-0.644044	0.285443
C93	C	-0.761180	-1.394060	-0.464535
C94	C	-0.511180	-1.144060	-0.214535
C95	C	-0.261180	-0.894060	0.035465
C96	C	-0.011180	-0.644060	0.285465
C97	C	-0.852489	-1.394083	-0.464500
C98	C	-0.602489	-1.144083	-0.214500
C99	C	-0.352489	-0.894083	0.035500
C100	C	-0.102489	-0.644083	0.285500
C101	C	-0.925265	-1.394105	-0.464466
C102	C	-0.675265	-1.144105	-0.214466
C103	C	-0.425265	-0.894105	0.035534
C104	C	-0.175265	-0.644105	0.285534
C105	C	-1.016580	-1.394129	-0.464431
C106	C	-0.766580	-1.144129	-0.214431
C107	C	-0.516580	-0.894129	0.035569
C108	C	-0.266580	-0.644129	0.285569
C109	C	-0.178977	-1.393985	-0.464641
C110	C	0.071023	-1.143985	-0.214641
C111	C	0.321023	-0.893985	0.035359
C112	C	0.571023	-0.643985	0.285359
C113	C	-0.089356	-1.394152	-0.464397
C114	C	0.160644	-1.144152	-0.214397
C115	C	0.410644	-0.894152	0.035603
C116	C	0.660644	-0.644152	0.285603
C117	C	-0.388486	-1.645570	-0.464661
C118	C	-0.138486	-1.395570	-0.214661
C119	C	0.111514	-1.145570	0.035339
C120	C	0.361514	-0.895570	0.285339
C121	C	-0.388495	-1.752784	-0.464667
C122	C	-0.138495	-1.502784	-0.214667
C123	C	0.111505	-1.252784	0.035333
C124	C	0.361505	-1.002784	0.285333
C125	C	-0.388482	-0.839854	-0.464656
C126	C	-0.138482	-0.589854	-0.214656
C127	C	0.111518	-0.339854	0.035344
C128	C	0.361518	-0.089854	0.285344
C129	C	-0.388468	-0.949086	-0.464651
C130	C	-0.138468	-0.699086	-0.214651
C131	C	0.111532	-0.449086	0.035349
C132	C	0.361532	-0.199086	0.285349
C133	C	-0.388512	-1.394066	-1.018771
C134	C	-0.138512	-1.144066	-0.768771
C135	C	0.111488	-0.894066	-0.518771
C136	C	0.361488	-0.644066	-0.268771
C137	C	-0.388486	-1.394007	-0.909538
C138	C	-0.138486	-1.144007	-0.659538
C139	C	0.111514	-0.894007	-0.409538
C140	C	0.361514	-0.644007	-0.159538
C141	C	-0.388509	-1.394074	-0.213055
C142	C	-0.138509	-1.144074	0.036945
C143	C	0.111491	-0.894074	0.286945
C144	C	0.361491	-0.644074	0.536945
C145	C	-0.388526	-1.394115	-0.105841
C146	C	-0.138526	-1.144115	0.144159
C147	C	0.111474	-0.894115	0.394159
C148	C	0.361474	-0.644115	0.644159
