data_functionalizedCrystal
_audit_creation_method	'MofGen! by Chris Wilmer'
_symmetry_space_group_name_H-M	'P1'
_symmetry_Int_Tables_number	1
_symmetry_cell_setting	triclinic
loop_
_symmetry_equiv_pos_as_xyz
  x,y,z
_cell_length_a	19.805407
_cell_length_b	12.759394
_cell_length_c	19.805399
_cell_angle_alpha	89.977727
_cell_angle_beta	89.982197
_cell_angle_gamma	90.011172
loop_
_atom_site_label
_atom_site_type_symbol
_atom_site_fract_x
_atom_site_fract_y
_atom_site_fract_z
Zn1	Zn	1.034795	-0.418366	-0.382713
Zn2	Zn	1.034734	-0.594059	-0.269535
Zn3	Zn	0.921609	-0.418387	-0.269541
Zn4	Zn	0.921598	-0.593995	-0.382685
O5	O	0.978184	-0.506202	-0.326118
O6	O	1.129503	-0.441690	-0.367708
O7	O	1.019708	-0.570792	-0.174819
O8	O	0.936654	-0.271363	-0.284567
O9	O	1.129459	-0.570771	-0.284557
O10	O	1.019811	-0.271348	-0.367714
O11	O	0.936595	-0.441726	-0.174823
O12	O	0.826891	-0.441664	-0.284541
O13	O	0.936634	-0.570662	-0.477405
O14	O	0.826883	-0.570682	-0.367667
O15	O	1.019799	-0.441628	-0.477426
O16	O	1.019696	-0.741072	-0.284531
O17	O	0.936575	-0.741025	-0.367662
C18	C	0.802328	-0.506169	-0.326102
C19	C	0.727096	-0.506180	-0.326111
C20	C	0.691776	-0.439087	-0.369474
C21	C	0.621087	-0.439092	-0.369476
C22	C	0.585720	-0.506197	-0.326119
C23	C	0.621046	-0.573294	-0.282752
C24	C	0.691733	-0.573282	-0.282746
C25	C	0.335972	-0.573341	-0.282772
C26	C	0.265280	-0.573350	-0.282783
C27	C	0.265327	-0.439151	-0.369502
C28	C	0.336014	-0.439139	-0.369497
C29	C	0.371333	-0.506232	-0.326127
C30	C	0.447981	-0.506223	-0.326124
C31	C	0.509073	-0.506212	-0.326125
C32	C	0.978146	-0.779169	-0.326107
C33	C	0.978192	-0.895946	-0.326125
C34	C	1.064719	-0.895772	-0.412771
C35	C	1.108003	-0.950546	-0.456099
C36	C	1.108043	-1.060267	-0.456113
C37	C	1.064793	-1.115218	-0.412797
C38	C	1.021508	-1.060444	-0.369469
C39	C	1.021474	-0.950720	-0.369457
C40	C	0.934980	-1.060618	-0.282827
C41	C	0.934942	-0.950896	-0.282808
C42	C	0.891729	-1.115568	-0.239511
C43	C	0.848447	-1.060795	-0.196178
C44	C	0.848409	-0.951066	-0.196165
C45	C	0.891657	-0.896123	-0.239480
C46	C	1.154727	-0.506236	-0.326135
C47	C	1.229959	-0.506250	-0.326142
C48	C	0.978222	-0.506136	-0.502661
C49	C	0.978238	-0.506108	-0.577893
C50	C	0.978240	-0.232169	-0.326144
C51	C	0.978264	-0.115392	-0.326155
C52	C	1.021543	-0.438916	-0.613249
C53	C	1.021550	-0.438886	-0.683937
C54	C	0.978255	-0.506053	-0.719269
C55	C	0.934945	-0.573247	-0.683908
C56	C	0.934935	-0.573271	-0.613221
C57	C	0.934983	-0.573149	-0.968982
C58	C	0.934998	-0.573122	-1.039674
C59	C	1.021598	-0.438763	-1.039698
C60	C	1.021588	-0.438788	-0.969011
C61	C	0.978276	-0.505978	-0.933656
C62	C	0.978268	-0.506009	-0.857008
C63	C	0.978266	-0.506028	-0.795916
C64	C	0.978185	-0.506192	-0.150262
C65	C	0.978300	-0.505924	-0.075031
H66	H	0.364721	-0.627973	-0.247459
H67	H	1.056863	-0.384050	-1.068492
H68	H	0.592245	-0.627927	-0.247446
H69	H	0.720490	-0.627916	-0.247435
H70	H	0.236487	-0.627998	-0.247473
O71	O	0.891496	-0.789540	-0.239472
C72	C	0.826610	-0.752943	-0.256818
H73	H	0.787650	-0.816227	-0.245228
H74	H	0.814568	-0.679575	-0.226274
H75	H	0.825143	-0.733434	-0.312976
O76	O	1.149994	-0.897004	-0.498110
C77	C	1.140670	-0.788416	-0.488820
H78	H	1.118522	-0.773501	-0.436567
H79	H	1.191352	-0.746655	-0.493446
H80	H	1.104596	-0.757283	-0.528936
O81	O	0.726202	-0.373848	-0.411499
C82	C	0.767067	-0.305887	-0.373035
H83	H	0.777637	-0.342835	-0.321700
H84	H	0.816784	-0.291853	-0.400619
H85	H	0.739825	-0.228019	-0.365685
O86	O	1.150146	-1.113317	-0.498229
C87	C	1.188294	-1.041296	-0.536476
H88	H	1.190635	-0.963105	-0.508746
H89	H	1.241626	-1.072941	-0.543754
H90	H	1.163469	-1.029606	-0.587856
O91	O	0.892856	-0.638654	-0.578979
C92	C	0.854636	-0.697921	-0.625319
H93	H	0.882363	-0.701535	-0.675714
H94	H	0.847407	-0.780708	-0.604888
H95	H	0.803235	-0.659448	-0.632827
O96	O	0.586810	-0.374030	-0.411698
C97	C	0.604121	-0.397117	-0.479129
H98	H	0.623544	-0.481056	-0.482449
H99	H	0.557650	-0.388139	-0.512583
H100	H	0.645166	-0.340827	-0.496881
O101	O	1.064559	-0.789189	-0.412755
C102	C	0.999675	-0.752583	-0.430098
H103	H	0.960713	-0.815866	-0.418515
H104	H	0.987635	-0.679221	-0.399547
H105	H	0.998209	-0.733060	-0.486255
O106	O	0.892871	-0.638400	-1.073891
C107	C	0.854651	-0.697727	-1.027530
H108	H	0.852307	-0.654713	-0.977145
H109	H	0.801324	-0.708907	-1.047948
H110	H	0.879413	-0.777531	-1.020007
H111	H	1.064824	-1.204559	-0.412818
H112	H	0.891763	-1.204910	-0.239528
H113	H	1.056802	-0.384224	-0.584487
O114	O	1.063684	-0.373587	-0.718177
C115	C	1.101886	-0.314297	-0.671835
H116	H	1.104212	-0.357351	-0.621444
H117	H	1.155221	-0.303099	-0.692269
H118	H	1.077120	-0.234499	-0.664320
O119	O	0.893005	-0.638474	-0.934577
C120	C	0.931510	-0.706382	-0.893697
H121	H	0.982808	-0.669347	-0.883105
H122	H	0.903918	-0.720482	-0.843992
H123	H	0.938938	-0.784227	-0.920938
H124	H	0.813233	-1.105544	-0.160917
H125	H	0.899691	-0.627932	-0.712681
H126	H	0.813159	-0.906475	-0.160885
H127	H	0.364806	-0.384499	-0.404805
H128	H	0.236561	-0.384517	-0.404814
H129	H	1.056846	-0.384097	-0.940248
