data_functionalizedCrystal
_audit_creation_method	'MofGen! by Chris Wilmer'
_symmetry_space_group_name_H-M	'P1'
_symmetry_Int_Tables_number	1
_symmetry_cell_setting	triclinic
loop_
_symmetry_equiv_pos_as_xyz
  x,y,z
_cell_length_a	10.654550
_cell_length_b	23.532407
_cell_length_c	9.730223
_cell_angle_alpha	89.994043
_cell_angle_beta	89.996251
_cell_angle_gamma	83.666790
loop_
_atom_site_label
_atom_site_type_symbol
_atom_site_fract_x
_atom_site_fract_y
_atom_site_fract_z
O1	O	1.665300	0.079982	-0.114418
O2	O	1.299580	0.087603	-0.114398
O3	O	1.493468	0.000933	-0.114384
O4	O	1.471412	0.166652	-0.114433
O5	O	1.493466	0.000935	0.114196
O6	O	1.299578	0.087605	0.114182
O7	O	1.665298	0.079985	0.114161
Zn8	Zn	1.482437	0.083795	0.150464
Zn9	Zn	1.482440	0.083792	-0.150700
O10	O	1.471409	0.166655	0.114147
C11	C	1.252799	0.087044	-0.000105
C12	C	1.113408	0.085370	-0.000096
C13	C	1.032306	0.136400	-0.000131
C14	C	0.901335	0.134824	-0.000154
C15	C	0.932582	0.031183	-0.000113
C16	C	1.063550	0.032760	-0.000080
C17	C	1.014265	0.196236	-0.000161
C18	C	0.883294	0.194660	-0.000184
C19	C	1.492905	-0.020286	-0.000090
C20	C	1.491217	-0.083514	-0.000079
C21	C	1.595364	-0.481938	-0.000161
C22	C	1.593795	-0.541349	-0.000171
O23	O	1.690341	-0.577464	-0.000227
N24	N	1.478529	-0.564726	-0.000164
C25	C	1.364824	-0.528689	-0.000160
O26	O	1.266636	-0.554029	-0.000156
C27	C	1.366394	-0.469280	-0.000159
C28	C	1.481668	-0.445906	-0.000153
C29	C	1.710629	-0.458564	-0.000156
C30	C	1.712197	-0.399158	-0.000143
C31	C	1.598500	-0.363126	-0.000135
C32	C	1.483236	-0.386500	-0.000140
C33	C	1.252690	-0.433244	-0.000165
C34	C	1.254270	-0.373832	-0.000166
C35	C	1.369544	-0.350458	-0.000159
C36	C	1.371107	-0.291061	-0.000119
N37	N	1.486374	-0.267684	-0.000126
C38	C	1.600070	-0.303716	-0.000134
C39	C	1.361535	-0.653453	-0.000163
C40	C	1.359964	-0.712861	-0.000154
C41	C	1.588936	-0.725517	-0.000168
C42	C	1.590506	-0.666108	-0.000167
C43	C	1.476802	-0.630076	-0.000171
C44	C	1.603355	-0.178958	-0.000106
C45	C	1.604913	-0.119546	-0.000087
C46	C	1.375942	-0.106896	-0.000081
C47	C	1.374383	-0.166303	-0.000092
C48	C	1.488100	-0.202333	-0.000109
O49	O	1.274613	-0.254911	-0.000068
O50	O	1.698241	-0.278369	-0.000157
C51	C	1.712079	0.080543	-0.000135
C52	C	1.851469	0.082217	-0.000152
C53	C	1.471972	0.187873	-0.000149
C54	C	1.473661	0.251101	-0.000169
N55	N	1.482444	0.083797	0.356000
N56	N	1.482443	0.083786	-0.356237
C57	C	1.568320	0.045432	0.427932
C58	C	1.568317	0.045425	0.571815
C59	C	1.396559	0.122152	0.571821
C60	C	1.396557	0.122156	0.427941
C61	C	1.667486	0.001136	0.427930
C62	C	1.667483	0.001129	0.571813
H63	H	0.891971	-0.011650	-0.000121
H64	H	1.638281	-0.040234	0.616443
H65	H	1.042853	0.219639	0.095498
H66	H	1.763686	0.010886	0.610855
O67	O	1.699500	-0.760443	-0.000127
C68	C	1.926776	-0.766743	-0.000238
C69	C	1.801666	-0.727123	-0.000253
H70	H	2.009410	-0.739819	-0.000369
H71	H	1.931850	-0.794870	0.095438
H72	H	1.931681	-0.794877	-0.095882
H73	H	1.796677	-0.698952	0.095326
H74	H	1.796645	-0.699034	-0.095993
H75	H	1.049317	0.215288	-0.098854
O76	O	1.643484	-0.051103	0.381575
C77	C	1.599921	-0.146315	0.441670
C78	C	1.627063	-0.087179	0.494354
H79	H	1.586663	-0.175501	0.532824
H80	H	1.510375	-0.141525	0.376639
H81	H	1.682730	-0.165708	0.376528
H82	H	1.544331	-0.067752	0.559553
H83	H	1.716652	-0.092005	0.559310
O84	O	0.828307	0.216275	0.117592
C85	C	0.859166	0.258429	0.339017
C86	C	0.921599	0.233980	0.205695
H87	H	0.934567	0.272739	0.410297
H88	H	0.787476	0.296562	0.313374
H89	H	0.809232	0.224043	0.392119
H90	H	0.971601	0.268325	0.152527
H91	H	0.993221	0.195835	0.231427
H92	H	1.161675	-0.344497	-0.000171
O93	O	1.821166	-0.493502	-0.000342
C94	C	2.016375	-0.522500	-0.118791
C95	C	1.891241	-0.482897	-0.118749
H96	H	2.073054	-0.513948	-0.214527
H97	H	2.073211	-0.513929	-0.023193
H98	H	1.995451	-0.568976	-0.118721
H99	H	1.912051	-0.436407	-0.118867
H100	H	1.834442	-0.491517	-0.214338
H101	H	1.698787	-0.100519	-0.000079
O102	O	1.140745	-0.455969	0.000057
C103	C	1.006072	-0.515723	0.118391
C104	C	1.132888	-0.490016	0.118335
H105	H	0.999689	-0.543266	0.213994
H106	H	0.925039	-0.479781	0.118473
H107	H	0.999640	-0.543187	0.022678
H108	H	1.139443	-0.462558	0.214032
H109	H	1.213859	-0.525986	0.118181
H110	H	1.129581	-0.008793	-0.000032
O111	O	0.832857	0.221553	-0.114417
C112	C	0.872522	0.272204	-0.322431
C113	C	0.929811	0.241752	-0.193148
H114	H	0.950879	0.288554	-0.386106
H115	H	0.822557	0.240885	-0.386316
H116	H	0.801692	0.309754	-0.290523
H117	H	1.000691	0.204204	-0.224932
H118	H	0.979697	0.273108	-0.129294
O119	O	1.713933	-0.213871	-0.000057
C120	C	1.941205	-0.220137	-0.000134
C121	C	1.816072	-0.180534	-0.000169
H122	H	2.023817	-0.193201	-0.000253
H123	H	1.946287	-0.248263	0.095545
H124	H	1.946143	-0.248274	-0.095776
H125	H	1.811051	-0.152362	0.095409
H126	H	1.811042	-0.152447	-0.095911
O127	O	1.824098	-0.376391	-0.000338
C128	C	1.958810	-0.316702	-0.118827
C129	C	1.832018	-0.342429	-0.118751
H130	H	1.965266	-0.289248	-0.214567
H131	H	1.965311	-0.289172	-0.023234
H132	H	2.039766	-0.352679	-0.118773
H133	H	1.750989	-0.306490	-0.118853
H134	H	1.825626	-0.369974	-0.214336
O135	O	1.702450	-0.643378	0.000070
C136	C	1.837097	-0.583634	0.118430
C137	C	1.710283	-0.609343	0.118354
H138	H	1.843459	-0.556102	0.214038
H139	H	1.918131	-0.619576	0.118515
H140	H	1.843545	-0.556160	0.022722
H141	H	1.703711	-0.636812	0.214046
H142	H	1.629309	-0.573374	0.118197
O143	O	1.262490	-0.189080	-0.000269
C144	C	1.127805	-0.248768	-0.118756
C145	C	1.254580	-0.223026	-0.118694
H146	H	1.121357	-0.276209	-0.214506
H147	H	1.121325	-0.276314	-0.023172
H148	H	1.046832	-0.212799	-0.118675
H149	H	1.335626	-0.258958	-0.118824
H150	H	1.260950	-0.195465	-0.214269
O151	O	1.775618	0.017792	0.374626
C152	C	1.868956	0.085794	0.232730
C153	C	1.746413	0.066988	0.293016
H154	H	1.845384	0.125564	0.166712
H155	H	1.934459	0.095851	0.319938
H156	H	1.917744	0.049857	0.166830
H157	H	1.697519	0.102902	0.358901
H158	H	1.680999	0.056912	0.205744
H159	H	1.326631	0.153383	0.630410
O160	O	1.265421	-0.071946	-0.000264
C161	C	1.070261	-0.042905	-0.118751
C162	C	1.195364	-0.082531	-0.118682
H163	H	1.013596	-0.051441	-0.214497
H164	H	1.013390	-0.051470	-0.023163
H165	H	1.091230	0.003564	-0.118684
H166	H	1.174510	-0.129014	-0.118798
H167	H	1.252198	-0.073917	-0.214262
H168	H	1.326620	0.153390	0.369375
H169	H	1.266096	-0.731887	-0.000135
H170	H	1.268937	-0.624119	-0.000154
