data_functionalizedCrystal
_audit_creation_method	'MofGen! by Chris Wilmer'
_symmetry_space_group_name_H-M	'P1'
_symmetry_Int_Tables_number	1
_symmetry_cell_setting	triclinic
loop_
_symmetry_equiv_pos_as_xyz
  x,y,z
_cell_length_a	12.759401
_cell_length_b	12.759400
_cell_length_c	12.759393
_cell_angle_alpha	90.031905
_cell_angle_beta	90.018335
_cell_angle_gamma	90.014845
loop_
_atom_site_label
_atom_site_type_symbol
_atom_site_fract_x
_atom_site_fract_y
_atom_site_fract_z
Zn1	Zn	1.606254	-0.418196	0.593981
Zn2	Zn	1.606149	-0.593916	0.418301
Zn3	Zn	1.430556	-0.418252	0.418321
Zn4	Zn	1.430544	-0.593834	0.593943
O5	O	1.518376	-0.506050	0.506137
O6	O	1.753261	-0.441517	0.570685
O7	O	1.582817	-0.570672	0.271283
O8	O	1.453912	-0.271224	0.441647
O9	O	1.753184	-0.570617	0.441614
O10	O	1.582996	-0.271183	0.570704
O11	O	1.453810	-0.441612	0.271297
O12	O	1.283534	-0.441533	0.441609
O13	O	1.453892	-0.570478	0.740969
O14	O	1.283525	-0.570532	0.570638
O15	O	1.582985	-0.441437	0.740997
O16	O	1.582805	-0.740926	0.441577
O17	O	1.453790	-0.740866	0.570620
C18	C	1.245408	-0.506030	0.506122
C19	C	1.128632	-0.506047	0.506141
C20	C	1.073793	-0.573325	0.573215
C21	C	0.964069	-0.573338	0.573227
C22	C	0.964032	-0.438794	0.439081
C23	C	1.073754	-0.438776	0.439075
C24	C	1.073813	-0.651007	0.650660
C25	C	0.964089	-0.651020	0.650672
C26	C	1.518313	-0.779017	0.506115
C27	C	1.518383	-0.895794	0.506140
C28	C	1.585636	-0.950652	0.439022
C29	C	1.585700	-1.060376	0.439054
C30	C	1.451250	-1.060374	0.573327
C31	C	1.451192	-0.950652	0.573299
C32	C	1.663257	-0.950655	0.361498
C33	C	1.663321	-1.060379	0.361530
C34	C	1.792409	-0.506070	0.506152
C35	C	1.909186	-0.506079	0.506158
C36	C	1.518449	-0.505942	0.780170
C37	C	1.518480	-0.505896	0.896947
C38	C	1.518467	-0.232016	0.506182
C39	C	1.518506	-0.115240	0.506201
C40	C	1.518364	-0.506081	0.233169
C41	C	1.518536	-0.505831	0.116393
C42	C	1.451354	-0.438656	1.061549
C43	C	1.451328	-0.438686	0.951825
C44	C	1.585670	-0.573074	0.951799
C45	C	1.585700	-0.573039	1.061521
C46	C	1.373789	-0.361071	1.061562
C47	C	1.373763	-0.361100	0.951838
H48	H	1.107827	-0.728259	0.621376
Br49	Br	1.422367	-0.232293	0.895141
H50	H	1.396439	-0.905987	0.627961
Br51	Br	0.907411	-0.602608	0.779590
Br52	Br	1.360069	-1.134830	0.664469
H53	H	1.634132	-0.916708	0.284172
Br54	Br	1.148177	-0.347444	0.348066
H55	H	0.934293	-0.732369	0.628740
Br56	Br	1.123506	-0.614844	0.786340
H57	H	1.640353	-0.627791	0.907109
Br58	Br	1.627097	-1.110162	0.225896
H59	H	1.395609	-0.279691	1.091358
H60	H	1.296497	-0.390203	1.095585
Br61	Br	1.798829	-0.900879	0.397915
H62	H	0.919338	-0.384023	0.384479
H63	H	1.740625	-1.094323	0.390742
H64	H	1.640416	-0.627730	1.106171
Br65	Br	1.238121	-0.397431	0.902179
