data_functionalizedCrystal
_audit_creation_method	'MofGen! by Chris Wilmer'
_symmetry_space_group_name_H-M	'P1'
_symmetry_Int_Tables_number	1
_symmetry_cell_setting	triclinic
loop_
_symmetry_equiv_pos_as_xyz
  x,y,z
_cell_length_a	6.817900
_cell_length_b	11.102244
_cell_length_c	16.255661
_cell_angle_alpha	93.853574
_cell_angle_beta	103.488922
_cell_angle_gamma	108.604870
loop_
_atom_site_label
_atom_site_type_symbol
_atom_site_fract_x
_atom_site_fract_y
_atom_site_fract_z
V1	V	-4.052933	-0.176865	-0.263869
O2	O	-4.013087	0.007443	-0.258848
O3	O	-4.030105	-0.349678	-0.262062
O4	O	-4.004160	-0.174608	-0.378952
O5	O	-4.039211	-0.168839	-0.141149
V6	V	-4.533296	-0.154765	-0.249191
O7	O	-4.321124	-0.225343	-0.296066
O8	O	-4.715302	-0.106287	-0.216993
O9	O	-4.332917	0.018048	-0.250998
O10	O	-4.690538	-0.339073	-0.254212
O11	O	-4.664414	-0.162791	-0.371911
O12	O	-4.358862	-0.157022	-0.134107
C13	C	-3.881339	-0.391791	-0.257899
C14	C	-3.943959	-0.533071	-0.257189
C15	C	-3.930414	-0.581003	-0.179357
C16	C	-3.989265	-0.713752	-0.178699
C17	C	-4.075195	-0.750628	-0.333712
C18	C	-4.016359	-0.617881	-0.334369
C19	C	-3.880795	-0.559714	-0.089861
C20	C	-3.939646	-0.692463	-0.089204
C21	C	-3.848243	-0.168471	-0.407003
C22	C	-3.889818	-0.167769	-0.501084
C23	C	-3.799132	-0.159385	-0.723903
C24	C	-3.971590	-0.267594	-0.793378
C25	C	-3.966008	-0.166453	-0.673333
C26	C	-3.867656	-0.057005	-0.771495
C27	C	-4.039586	-0.165176	-0.839716
C28	C	-4.137962	-0.274759	-0.741577
C29	C	-4.033952	-0.064074	-0.719680
C30	C	-4.206551	-0.172314	-0.789135
C31	C	-3.923616	-0.167190	-0.577483
C32	C	-4.081997	-0.164449	-0.935565
C33	C	-4.145026	0.060154	-0.255159
C34	C	-4.061645	0.201433	-0.255874
C35	C	-4.178122	-0.163163	-0.106052
C36	C	-4.115784	-0.163859	-0.011970
H37	H	-3.796013	-0.715335	-0.051428
O38	O	-4.065109	0.038526	-0.681470
C39	C	-4.313382	0.149000	-0.672508
C40	C	-4.278410	0.032753	-0.715875
H41	H	-4.485841	0.144357	-0.700294
H42	H	-4.197678	0.241781	-0.684370
H43	H	-4.282539	0.146875	-0.600701
H44	H	-4.309283	0.034754	-0.787692
H45	H	-4.394094	-0.059976	-0.703944
H46	H	-4.251837	-0.366886	-0.728109
H47	H	-4.027409	-0.578862	-0.397748
O48	O	-4.116009	-0.739622	-0.059758
C49	C	-4.387321	-0.692287	-0.005220
C50	C	-4.187578	-0.638702	-0.038527
H51	H	-4.445272	-0.610724	0.011937
H52	H	-4.344422	-0.737926	0.054063
H53	H	-4.520242	-0.767915	-0.057068
H54	H	-4.054570	-0.563028	0.013260
H55	H	-4.230650	-0.593144	-0.097831
O56	O	-4.006750	-0.512801	-0.053068
C57	C	-4.263770	-0.403190	-0.071064
C58	C	-4.121196	-0.456231	-0.112828
H59	H	-4.356370	-0.357465	-0.119366
H60	H	-4.158651	-0.327786	-0.013044
H61	H	-4.381957	-0.485146	-0.049873
H62	H	-4.002989	-0.374361	-0.134071
H63	H	-4.226449	-0.531669	-0.170810
O64	O	-3.593422	-0.153201	-0.689834
C65	C	-3.361166	-0.255452	-0.611869
C66	C	-3.594219	-0.262591	-0.650395
H67	H	-3.361734	-0.343895	-0.579990
H68	H	-3.272602	-0.165058	-0.562249
H69	H	-3.276618	-0.252151	-0.664910
H70	H	-3.678950	-0.265942	-0.597414
H71	H	-3.682623	-0.352972	-0.700036
O72	O	-3.667753	-0.496406	-0.052902
C73	C	-3.400138	-0.334262	0.059296
C74	C	-3.641475	-0.405835	0.017513
H75	H	-3.378814	-0.261039	0.116245
H76	H	-3.322878	-0.282529	0.010498
H77	H	-3.320046	-0.406308	0.082112
H78	H	-3.721752	-0.333874	-0.005302
H79	H	-3.718575	-0.457590	0.066339
O80	O	-3.731914	0.052695	-0.787847
C81	C	-3.620783	0.176857	-0.895401
C82	C	-3.774620	0.052562	-0.877008
H83	H	-3.655286	0.176803	-0.967485
H84	H	-3.447591	0.182208	-0.868542
H85	H	-3.645682	0.263629	-0.863777
H86	H	-3.749914	-0.034280	-0.908628
H87	H	-3.947756	0.047324	-0.903848
H88	H	-3.945674	-0.353639	-0.825462
H89	H	-4.134148	-0.819696	-0.396550
H90	H	-4.379239	-0.177810	-0.817481
