data_functionalizedCrystal
_audit_creation_method	'MofGen! by Chris Wilmer'
_symmetry_space_group_name_H-M	'P1'
_symmetry_Int_Tables_number	1
_symmetry_cell_setting	triclinic
loop_
_symmetry_equiv_pos_as_xyz
  x,y,z
_cell_length_a	27.732048
_cell_length_b	14.044220
_cell_length_c	13.101039
_cell_angle_alpha	86.332523
_cell_angle_beta	86.675896
_cell_angle_gamma	92.084234
loop_
_atom_site_label
_atom_site_type_symbol
_atom_site_fract_x
_atom_site_fract_y
_atom_site_fract_z
O1	O	0.648645	-0.107455	-0.085084
O2	O	0.508657	-0.124591	-0.085115
O3	O	0.576549	0.021930	-0.085090
O4	O	0.580752	-0.253976	-0.085109
O5	O	0.571679	0.011400	0.085338
O6	O	0.503786	-0.135121	0.085313
O7	O	0.643774	-0.117985	0.085344
Zn8	Zn	0.573007	-0.128225	0.112388
Zn9	Zn	0.579424	-0.114351	-0.112159
O10	O	0.575882	-0.264506	0.085319
C11	C	0.488198	-0.129496	0.000095
C12	C	0.434492	-0.128412	0.000083
C13	C	0.099419	-0.208180	0.000122
C14	C	-0.102429	-0.204161	0.000132
O15	O	-0.130263	-0.277104	0.000171
N16	N	-0.125630	-0.117280	0.000136
C17	C	-0.098366	-0.031397	0.000144
O18	O	-0.122732	0.042593	0.000159
C19	C	0.103481	-0.035417	0.000142
C20	C	0.126680	-0.122304	0.000128
C21	C	0.122618	-0.295060	0.000109
C22	C	0.173077	-0.296063	0.000101
C23	C	0.200338	-0.210187	0.000106
C24	C	0.177139	-0.123307	0.000120
C25	C	0.130744	0.050464	0.000158
C26	C	0.181209	0.049452	0.000160
C27	C	0.204407	-0.037435	0.000146
C28	C	0.254859	-0.038434	0.000117
N29	N	0.278060	-0.125316	0.000113
C30	C	0.250799	-0.211192	0.000108
C31	C	-0.204339	-0.029292	0.000143
C32	C	-0.254801	-0.028287	0.000142
C33	C	-0.258860	-0.201052	0.000131
C34	C	-0.208397	-0.202056	0.000125
C35	C	-0.181138	-0.116174	0.000139
C36	C	0.356768	-0.213293	0.000090
C37	C	0.407232	-0.214288	0.000078
C38	C	0.411287	-0.041524	0.000094
C39	C	0.360827	-0.040528	0.000101
C40	C	0.333569	-0.126420	0.000102
O41	O	0.282722	0.034469	0.000090
O42	O	0.275174	-0.285173	0.000116
C43	C	0.048960	-0.207177	0.000130
C44	C	0.025761	-0.120297	0.000144
C45	C	0.053022	-0.034420	0.000149
C46	C	-0.024700	-0.119291	0.000142
C47	C	-0.051961	-0.205168	0.000137
C48	C	-0.028760	-0.292050	0.000132
C49	C	0.021700	-0.293053	0.000124
C50	C	0.029821	0.052461	0.000153
C51	C	-0.020639	0.053458	0.000160
C52	C	-0.047899	-0.032419	0.000155
C53	C	0.572274	0.051953	0.000124
C54	C	0.566787	0.157098	0.000124
C55	C	0.664233	-0.113080	0.000132
C56	C	0.717939	-0.114163	0.000137
C57	C	0.580157	-0.294528	0.000103
C58	C	0.585644	-0.399673	0.000096
N59	N	0.568631	-0.137693	0.265634
C60	C	0.556756	0.349614	0.000107
C61	C	0.595673	0.407817	0.000113
C62	C	0.590091	0.514939	0.000103
C63	C	0.562337	0.242481	0.000117
N64	N	0.583803	-0.104876	-0.265406
C65	C	0.562678	-0.150583	0.474675
C66	C	0.589755	-0.091989	0.525561
C67	C	0.586443	-0.099161	0.641878
C68	C	0.565990	-0.143412	0.358347
H69	H	0.334580	-0.283235	0.000094
H70	H	0.433491	0.028394	0.000095
Cl71	Cl	0.653585	0.360542	0.000137
Cl72	Cl	-0.293140	-0.309010	0.000128
Cl73	Cl	0.629588	-0.006582	0.457954
Cl74	Cl	0.436393	-0.323525	0.000056
H75	H	0.519250	0.380234	0.000096
H76	H	0.191961	-0.366815	0.000088
Cl77	Cl	0.088357	-0.403034	0.000099
H78	H	0.537010	-0.206130	0.518462
Cl79	Cl	0.064083	0.160432	0.000161
Cl80	Cl	0.215475	0.157425	0.000180
H81	H	-0.189513	-0.272807	0.000119
H82	H	-0.273684	0.042466	0.000138
H83	H	-0.182149	0.040647	0.000155
Cl84	Cl	-0.049796	0.162699	0.000165
H85	H	0.111864	0.121217	0.000171
H86	H	0.040583	-0.363805	0.000114
Cl87	Cl	0.331662	0.068702	0.000124
H88	H	-0.050964	-0.361973	0.000124
