data_functionalizedCrystal
_audit_creation_method	'MofGen! by Chris Wilmer'
_symmetry_space_group_name_H-M	'P1'
_symmetry_Int_Tables_number	1
_symmetry_cell_setting	triclinic
loop_
_symmetry_equiv_pos_as_xyz
  x,y,z
_cell_length_a	11.792241
_cell_length_b	19.288865
_cell_length_c	17.766277
_cell_angle_alpha	90.011603
_cell_angle_beta	90.004500
_cell_angle_gamma	83.664832
loop_
_atom_site_label
_atom_site_type_symbol
_atom_site_fract_x
_atom_site_fract_y
_atom_site_fract_z
O1	O	-1.505473	-0.095201	-0.062519
O2	O	-1.174983	-0.105012	-0.062540
O3	O	-1.349777	0.000970	-0.062514
O4	O	-1.330678	-0.201183	-0.062545
O5	O	-1.349747	0.000975	0.062674
O6	O	-1.174952	-0.105007	0.062648
O7	O	-1.505442	-0.095195	0.062669
Cu8	Cu	-1.340194	-0.100100	0.074089
Cu9	Cu	-1.340230	-0.100107	-0.073961
O10	O	-1.330647	-0.201177	0.062643
C11	C	-1.132686	-0.104393	0.000051
C12	C	-1.006700	-0.102548	0.000044
C13	C	-0.776039	-0.099156	0.000065
C14	C	-0.904396	-0.101041	0.000053
N15	N	-1.340177	-0.100095	0.178220
C16	C	-1.349147	0.026852	0.000082
C17	C	-1.347303	0.103966	0.000089
C18	C	-0.547739	-0.095814	0.000074
C19	C	-0.673725	-0.097659	0.000071
C20	C	-1.331277	-0.227060	0.000045
C21	C	-1.333122	-0.304174	0.000034
C22	C	-1.449864	0.148080	0.000099
C23	C	-1.448131	0.220537	0.000087
C24	C	-1.343830	0.248877	0.000080
C25	C	-1.241255	0.204754	0.000065
C26	C	-1.242992	0.132298	0.000070
C27	C	-1.261827	0.357632	0.043925
C28	C	-1.260096	0.430086	0.043926
C29	C	-1.338472	0.472353	0.000063
C30	C	-1.418599	0.442158	-0.043791
C31	C	-1.420335	0.369703	-0.043786
C32	C	-1.341936	0.327442	0.000074
C33	C	-1.439161	0.595033	0.000059
C34	C	-1.437423	0.667491	0.000042
C35	C	-1.230545	0.651706	0.000028
C36	C	-1.232285	0.579250	0.000037
C37	C	-1.336596	0.550918	0.000056
N38	N	-1.340257	-0.100107	-0.178091
C39	C	-1.417601	-0.053190	0.217618
C40	C	-1.417607	-0.053187	0.296420
C41	C	-1.340201	-0.100101	0.335820
C42	C	-1.262763	-0.147010	0.296412
C43	C	-1.262751	-0.147007	0.217612
C44	C	-1.325007	-0.163302	0.460648
C45	C	-1.325027	-0.163306	0.539447
C46	C	-1.340231	-0.100110	0.578867
C47	C	-1.355440	-0.036907	0.539478
C48	C	-1.355428	-0.036904	0.460678
C49	C	-1.340205	-0.100109	0.421266
C50	C	-1.417667	-0.053197	0.703711
C51	C	-1.417665	-0.053193	0.782514
C52	C	-1.262826	-0.147022	0.782505
C53	C	-1.262822	-0.147020	0.703703
C54	C	-1.340248	-0.100108	0.664311
H55	H	-1.534802	0.125017	0.000112
H56	H	-1.198001	0.323224	0.079648
C57	C	-1.128096	0.235615	-0.000059
C58	C	-1.121088	0.276753	-0.064457
C59	C	-1.016866	0.305200	-0.064596
H60	H	-1.067161	0.199035	-0.000103
H61	H	-1.123096	0.263599	0.043574
H62	H	-1.126077	0.248770	-0.108078
H63	H	-1.181999	0.313344	-0.064427
H64	H	-1.011866	0.333184	-0.020963
H65	H	-0.955939	0.268615	-0.064638
H66	H	-1.012102	0.333120	-0.108286
H67	H	-1.312606	-0.214768	0.428559
C68	C	-1.117185	0.682332	-0.000019
C69	C	-1.027734	0.628186	-0.000040
C70	C	-0.923289	0.656374	-0.000097
H71	H	-1.112034	0.710270	0.043622
H72	H	-1.112158	0.710238	-0.043695
H73	H	-1.032760	0.600291	0.043632
H74	H	-1.032848	0.600243	-0.043678
H75	H	-0.918261	0.684280	-0.043773
H76	H	-0.918149	0.684312	0.043545
H77	H	-0.862584	0.619641	-0.000118
C78	C	-1.131719	0.084316	0.000180
C79	C	-1.126669	0.042263	0.064581
C80	C	-1.024189	-0.001955	0.064705
H81	H	-1.069256	0.111481	0.000210
H82	H	-1.128103	0.055671	-0.043451
H83	H	-1.130274	0.070905	0.108201
H84	H	-1.189109	0.015083	0.064565
H85	H	-1.020573	-0.030600	0.021074
H86	H	-0.961734	0.025216	0.064733
H87	H	-1.020753	-0.030498	0.108396
H88	H	-1.367808	0.014558	0.428611
C89	C	-1.501703	-0.002175	0.174986
C90	C	-1.569489	0.038917	0.226363
C91	C	-1.646964	0.085927	0.187117
H92	H	-1.548919	-0.027272	0.144229
H93	H	-1.461052	0.026948	0.144278
H94	H	-1.610137	0.009797	0.257059
H95	H	-1.522305	0.064029	0.257122
H96	H	-1.606313	0.115050	0.156408
H97	H	-1.694172	0.060823	0.156361
H98	H	-1.692959	0.113817	0.221970
C99	C	-1.548696	0.715474	0.000166
C100	C	-1.553705	0.757563	0.064557
C101	C	-1.656185	0.801781	0.064690
H102	H	-1.611159	0.688309	0.000217
H103	H	-1.552339	0.744094	-0.043472
H104	H	-1.550073	0.728946	0.108183
H105	H	-1.491266	0.784743	0.064520
H106	H	-1.659829	0.830402	0.021053
H107	H	-1.718641	0.774610	0.064739
H108	H	-1.659593	0.830348	0.108375
C109	C	-1.178598	-0.197878	0.825232
C110	C	-1.067134	-0.186140	0.806092
C111	C	-0.989508	-0.232969	0.845448
H112	H	-1.190526	-0.244315	0.812337
H113	H	-1.189613	-0.191159	0.877814
H114	H	-1.056123	-0.192865	0.753523
H115	H	-1.055170	-0.139713	0.818990
H116	H	-1.000523	-0.226249	0.898030
H117	H	-1.001446	-0.279402	0.832550
H118	H	-0.913871	-0.225007	0.832473
H119	H	-1.199735	-0.185207	0.328496
H120	H	-1.367820	0.014554	0.571572
H121	H	-1.480657	-0.014989	0.328504
H122	H	-1.480709	-0.014996	0.671636
C123	C	-1.178821	-0.198053	0.174873
C124	C	-1.196893	-0.266383	0.194010
C125	C	-1.119611	-0.313427	0.154645
H126	H	-1.103069	-0.190291	0.187762
H127	H	-1.189908	-0.191382	0.122293
H128	H	-1.185797	-0.273052	0.246578
H129	H	-1.272630	-0.274167	0.181118
H130	H	-1.130698	-0.306756	0.102064
H131	H	-1.043863	-0.305659	0.167537
H132	H	-1.131869	-0.359794	0.167618
C133	C	-1.559611	0.268327	0.000139
C134	C	-1.651332	0.228007	0.000173
C135	C	-1.754043	0.272005	0.000232
H136	H	-1.563411	0.296928	-0.043505
H137	H	-1.563275	0.296918	0.043813
H138	H	-1.647670	0.199429	-0.043496
H139	H	-1.647570	0.199408	0.043814
H140	H	-1.757707	0.300595	0.043905
H141	H	-1.757831	0.300603	-0.043413
H142	H	-1.816288	0.244654	0.000262
C143	C	-1.173278	0.462920	0.091634
C144	C	-1.230374	0.508948	0.143557
C145	C	-1.150432	0.539199	0.187523
H146	H	-1.126758	0.487736	0.060088
H147	H	-1.126849	0.427396	0.117797
H148	H	-1.276783	0.544466	0.117396
H149	H	-1.276888	0.484148	0.175119
H150	H	-1.104003	0.503675	0.213686
H151	H	-1.103916	0.564012	0.155971
H152	H	-1.189159	0.570427	0.222762
C153	C	-1.501861	-0.002234	0.825157
C154	C	-1.569682	0.038833	0.773789
C155	C	-1.647268	0.085776	0.813044
H156	H	-1.461332	0.026918	0.855912
H157	H	-1.549033	-0.027404	0.855869
H158	H	-1.522516	0.064000	0.743089
H159	H	-1.610236	0.009700	0.743032
H160	H	-1.694440	0.060607	0.843756
H161	H	-1.606729	0.114923	0.843797
H162	H	-1.693301	0.113641	0.778197
H163	H	-1.312650	-0.214770	0.571511
C164	C	-1.178899	-0.198068	0.660965
C165	C	-1.196976	-0.266397	0.680100
C166	C	-1.119692	-0.313442	0.640738
H167	H	-1.103147	-0.190308	0.673858
H168	H	-1.189981	-0.191396	0.608384
H169	H	-1.185885	-0.273066	0.732669
H170	H	-1.272712	-0.274180	0.667205
H171	H	-1.130774	-0.306771	0.588158
H172	H	-1.043945	-0.305676	0.653634
H173	H	-1.131953	-0.359809	0.653711
H174	H	-1.485575	0.345121	-0.079495
C175	C	-1.552376	0.564230	0.000223
C176	C	-1.559422	0.523127	0.064644
C177	C	-1.663705	0.494751	0.064825
H178	H	-1.557475	0.536234	-0.043378
H179	H	-1.613243	0.600866	0.000261
H180	H	-1.498571	0.486497	0.064599
H181	H	-1.554343	0.551108	0.108256
H182	H	-1.724573	0.531387	0.064863
H183	H	-1.668795	0.466758	0.021221
H184	H	-1.668504	0.466865	0.108537
C185	C	-1.503655	0.487943	-0.091545
C186	C	-1.489175	0.469143	-0.167344
C187	C	-1.567519	0.511300	-0.211352
H188	H	-1.491235	0.535437	-0.085372
H189	H	-1.579050	0.481788	-0.076160
H190	H	-1.413798	0.475304	-0.182725
H191	H	-1.501605	0.421656	-0.173541
H192	H	-1.642914	0.505145	-0.195967
H193	H	-1.555092	0.558792	-0.205172
H194	H	-1.557712	0.498546	-0.262786
H195	H	-1.148769	0.543331	0.000033
