data_functionalizedCrystal
_audit_creation_method	'MofGen! by Chris Wilmer'
_symmetry_space_group_name_H-M	'P1'
_symmetry_Int_Tables_number	1
_symmetry_cell_setting	triclinic
loop_
_symmetry_equiv_pos_as_xyz
  x,y,z
_cell_length_a	12.837943
_cell_length_b	15.995350
_cell_length_c	11.892095
_cell_angle_alpha	93.891441
_cell_angle_beta	85.689438
_cell_angle_gamma	89.160657
loop_
_atom_site_label
_atom_site_type_symbol
_atom_site_fract_x
_atom_site_fract_y
_atom_site_fract_z
O1	O	1.382080	0.212847	-0.093972
O2	O	1.080275	0.202094	-0.093979
O3	O	1.239427	0.086241	-0.093975
O4	O	1.222927	0.328700	-0.093977
O5	O	1.226157	0.095884	0.094032
O6	O	1.067005	0.211737	0.094028
O7	O	1.368810	0.222490	0.094035
Zn8	Zn	1.215800	0.218644	0.123881
Zn9	Zn	1.233284	0.205939	-0.123826
O10	O	1.209657	0.338343	0.094030
C11	C	1.035019	0.203283	0.000023
C12	C	0.919942	0.192449	0.000020
C13	C	0.678983	0.322688	0.000035
C14	C	0.570857	0.312513	0.000033
C15	C	0.595563	0.161925	0.000023
C16	C	0.703688	0.172100	0.000025
C17	C	0.745394	0.252484	0.000029
C18	C	0.853523	0.262658	0.000023
C19	C	0.878225	0.112072	0.000020
C20	C	0.770100	0.101896	0.000018
C21	C	1.232110	0.059813	0.000027
C22	C	1.230066	-0.033301	0.000020
C23	C	1.222721	-0.371634	0.000024
C24	C	1.109405	-0.333265	-0.000400
C25	C	1.111421	-0.236390	0.000023
C26	C	1.226364	-0.203783	0.000021
C27	C	1.274693	-0.234893	0.107382
C28	C	1.271839	-0.331752	0.107472
C29	C	1.289271	-0.342889	-0.106327
C30	C	1.289344	-0.246018	-0.107746
C31	C	1.228429	-0.108921	0.000024
C32	C	1.220659	-0.466496	0.000029
C33	C	1.414066	0.221301	0.000030
C34	C	1.529143	0.232134	0.000025
C35	C	1.216974	0.364770	0.000026
C36	C	1.219020	0.457884	0.000025
N37	N	1.203876	0.227315	0.292935
N38	N	1.245217	0.197262	-0.292880
C39	C	1.328193	0.136877	0.529587
C40	C	1.319865	0.142945	0.647928
C41	C	1.178889	0.245514	0.647962
C42	C	1.187216	0.239446	0.529621
C43	C	1.261872	0.185127	0.470437
C44	C	1.270204	0.179064	0.352093
C45	C	1.129223	0.281628	0.352129
C46	C	1.120896	0.287696	0.470471
H47	H	0.561579	0.096485	0.000112
C48	C	1.045026	-0.198619	0.102677
C49	C	0.963984	-0.149732	0.067087
C50	C	0.902792	-0.114935	0.161626
H51	H	1.087135	-0.164517	0.148728
H52	H	1.016363	-0.242285	0.144891
H53	H	0.992645	-0.106071	0.024892
H54	H	0.921849	-0.183814	0.021049
H55	H	0.874129	-0.158601	0.203840
H56	H	0.944910	-0.080837	0.207671
H57	H	0.847792	-0.081768	0.137492
C58	C	0.724967	0.014569	-0.000169
C59	C	0.765565	-0.033339	-0.096888
C60	C	0.724026	-0.113794	-0.097096
H61	H	0.651067	0.018441	-0.000226
H62	H	0.743169	-0.011390	0.065354
H63	H	0.747356	-0.007387	-0.162394
H64	H	0.839460	-0.037235	-0.096850
H65	H	0.742228	-0.139752	-0.031573
H66	H	0.650127	-0.109913	-0.097150
H67	H	0.751573	-0.146311	-0.162712
H68	H	1.358857	-0.213825	0.111373
H69	H	0.932310	0.054906	0.000008
H70	H	1.373869	0.103654	0.696085
H71	H	1.330995	0.134837	0.303907
C72	C	1.097776	0.304347	0.712383
C73	C	1.029566	0.258128	0.780350
C74	C	0.954840	0.312297	0.839725
H75	H	1.059352	0.332242	0.660345
H76	H	1.131785	0.344544	0.758613
H77	H	0.995559	0.217946	0.734124
H78	H	1.067959	0.230235	0.832408
H79	H	0.988848	0.352494	0.885955
H80	H	0.916424	0.340189	0.787679
H81	H	0.908556	0.280946	0.885855
H82	H	1.388987	0.092654	0.481399
C83	C	1.039786	0.346538	0.534881
C84	C	0.971564	0.300333	0.602853
C85	C	0.896843	0.354514	0.662213
H86	H	1.001370	0.374430	0.482834
H87	H	1.073798	0.386737	0.581105
H88	H	0.937555	0.260149	0.556633
H89	H	1.009950	0.272442	0.654921
H90	H	0.930855	0.394712	0.708438
H91	H	0.858435	0.382403	0.610158
H92	H	0.850551	0.323172	0.708347
C93	C	1.059973	-0.208587	-0.102622
C94	C	1.026797	-0.279064	-0.165589
C95	C	0.979378	-0.253488	-0.260144
H96	H	1.108775	-0.179006	-0.148172
H97	H	1.001491	-0.173020	-0.078494
H98	H	1.085272	-0.314616	-0.189718
H99	H	0.977983	-0.308653	-0.120072
H100	H	0.920896	-0.217922	-0.236016
H101	H	1.028187	-0.223907	-0.305684
H102	H	0.956854	-0.301301	-0.302873
H103	H	1.069536	-0.359360	-0.077391
H104	H	1.058900	-0.352531	0.076159
C105	C	1.382264	-0.365737	0.113935
C106	C	1.380534	-0.453233	0.114044
C107	C	1.482235	-0.484565	0.119993
H108	H	1.409534	-0.343220	0.181381
H109	H	1.425157	-0.350164	0.050431
H110	H	1.337657	-0.468798	0.177542
H111	H	1.353284	-0.475771	0.046604
H112	H	1.525127	-0.468992	0.056490
H113	H	1.509496	-0.462043	0.187440
H114	H	1.481076	-0.543934	0.120058
H115	H	1.075223	0.320919	0.303956
C116	C	1.209842	-0.354841	0.214513
C117	C	1.175309	-0.281621	0.278500
C118	C	1.118179	-0.302853	0.377106
H119	H	1.253033	-0.386884	0.257568
H120	H	1.151305	-0.386859	0.194938
H121	H	1.233837	-0.249616	0.298077
H122	H	1.132103	-0.249568	0.235479
H123	H	1.059642	-0.334871	0.357530
H124	H	1.161377	-0.334897	0.420151
H125	H	1.094733	-0.253177	0.420528
C126	C	0.724068	0.410029	0.000089
C127	C	0.642761	0.469336	0.000114
C128	C	0.684250	0.549804	0.000177
H129	H	0.770345	0.413882	-0.065455
H130	H	0.761075	0.420536	0.065678
H131	H	0.605770	0.458832	-0.065469
H132	H	0.596478	0.465509	0.065653
H133	H	0.721258	0.560311	0.065766
H134	H	0.730527	0.553648	-0.065368
H135	H	0.629090	0.590054	0.000204
H136	H	1.230224	-0.205512	0.187277
C137	C	0.498643	0.388652	-0.000143
C138	C	0.442655	0.382241	-0.096856
C139	C	0.376111	0.452363	-0.097048
H140	H	0.538846	0.438035	-0.000198
H141	H	0.451263	0.391173	0.065384
H142	H	0.490029	0.379729	-0.162366
H143	H	0.402432	0.332873	-0.096821
H144	H	0.328731	0.454884	-0.031521
H145	H	0.416322	0.501741	-0.097101
H146	H	0.338108	0.448019	-0.162661
H147	H	0.887477	0.328111	0.000028
C148	C	1.247330	-0.379823	-0.214708
C149	C	1.160909	-0.429117	-0.187968
C150	C	1.122225	-0.463144	-0.287772
H151	H	1.300197	-0.413514	-0.256706
H152	H	1.226825	-0.335771	-0.258544
H153	H	1.181416	-0.473163	-0.144151
H154	H	1.108020	-0.395445	-0.145985
H155	H	1.101720	-0.419092	-0.331608
H156	H	1.175099	-0.496831	-0.329763
H157	H	1.063578	-0.496587	-0.269643
H158	H	1.373623	-0.224301	-0.114230
C159	C	1.242482	-0.219227	-0.213619
C160	C	1.246941	-0.131969	-0.216269
C161	C	1.203791	-0.107253	-0.313786
H162	H	1.171760	-0.235944	-0.213039
H163	H	1.280925	-0.244926	-0.278557
H164	H	1.208496	-0.106279	-0.151348
H165	H	1.317651	-0.115230	-0.216867
H166	H	1.242235	-0.132953	-0.378724
H167	H	1.133072	-0.123975	-0.313197
H168	H	1.206819	-0.048048	-0.315602
H169	H	1.372891	-0.368019	-0.107050
