data_functionalizedCrystal
_audit_creation_method	'MofGen! by Chris Wilmer'
_symmetry_space_group_name_H-M	'P1'
_symmetry_Int_Tables_number	1
_symmetry_cell_setting	triclinic
loop_
_symmetry_equiv_pos_as_xyz
  x,y,z
_cell_length_a	15.698487
_cell_length_b	18.878441
_cell_length_c	15.698487
_cell_angle_alpha	60.001246
_cell_angle_beta	90.001001
_cell_angle_gamma	59.999677
loop_
_atom_site_label
_atom_site_type_symbol
_atom_site_fract_x
_atom_site_fract_y
_atom_site_fract_z
Zr1	Zr	0.820595	0.775364	-0.111780
O2	O	0.684574	0.923142	-0.247792
O3	O	0.862294	0.627587	-0.070088
O4	O	0.862286	0.775368	-0.247799
O5	O	0.684586	0.775358	0.070103
O6	O	1.002467	0.775371	-0.247801
O7	O	0.684582	0.775361	-0.070081
O8	O	1.002482	0.511018	0.070091
O9	O	0.684572	1.039711	-0.247789
O10	O	0.984692	0.688372	-0.052305
O11	O	0.880080	0.688368	0.052315
O12	O	0.880071	0.862361	-0.156917
O13	O	0.775459	0.862357	-0.052297
Zr14	Zr	1.044175	0.775364	0.111794
Zr15	Zr	1.044168	0.775369	-0.111784
Zr16	Zr	0.820602	0.775360	0.111798
Zr17	Zr	0.820592	0.961279	-0.111775
Zr18	Zr	1.044178	0.589450	0.111789
O19	O	1.002476	0.923142	0.070102
O20	O	1.002465	0.923148	-0.247797
O21	O	0.684584	0.923135	0.070107
O22	O	1.180196	0.627587	0.247806
O23	O	1.180186	0.627593	-0.070093
O24	O	0.862305	0.627581	0.247811
O25	O	1.180184	0.775371	-0.070089
O26	O	1.002484	0.775361	0.247813
O27	O	0.862303	0.775358	0.247815
O28	O	1.180188	0.775368	0.070096
O29	O	0.862282	1.039714	-0.247791
O30	O	1.002488	0.511014	0.247806
O31	O	1.180198	0.511018	0.247803
O32	O	1.180192	0.511021	0.070088
O33	O	0.684578	1.039707	-0.070074
O34	O	0.862288	1.039711	-0.070077
O35	O	0.984699	0.688368	0.156931
O36	O	1.089311	0.688372	0.052311
O37	O	0.984690	0.862361	-0.052300
O38	O	0.880078	0.862357	0.052319
C39	C	0.932388	0.542813	0.000001
C40	C	0.932390	0.463888	-0.000001
C41	C	0.986994	0.426811	-0.054613
C42	C	0.986998	0.352646	-0.054605
C43	C	0.932391	0.315566	0.000009
C44	C	0.877785	0.352646	0.054627
C45	C	0.877788	0.426804	0.054625
C46	C	0.877781	0.198079	0.054626
C47	C	0.877776	0.123918	0.054627
C48	C	0.986991	0.123922	-0.054604
C49	C	0.986994	0.198080	-0.054606
C50	C	0.932386	0.235156	0.000011
C51	C	0.652730	0.775359	0.000011
C52	C	0.557817	0.775357	0.000013
C53	C	0.384032	0.775374	0.000003
C54	C	0.480736	0.775369	0.000006
C55	C	1.212040	0.775370	0.000003
C56	C	1.306953	0.775372	0.000001
C57	C	0.932376	0.775370	-0.279655
C58	C	0.932373	0.775372	-0.374570
C59	C	0.932381	1.007915	0.000014
C60	C	0.932380	1.086841	0.000016
C61	C	0.932396	0.775354	-0.548334
C62	C	0.932386	0.775360	-0.451637
C63	C	0.932394	0.775359	0.279669
C64	C	0.932397	0.775357	0.374584
C65	C	1.212044	0.542819	-0.000004
C66	C	1.306957	0.463895	-0.000007
C67	C	0.932398	0.542808	0.279663
C68	C	0.932402	0.463880	0.374575
C69	C	1.212053	0.542813	0.279658
C70	C	1.306970	0.463888	0.374570
C71	C	0.652717	1.007915	-0.279644
C72	C	0.557800	1.086841	-0.374555
C73	C	0.652726	1.007909	0.000018
C74	C	0.557812	1.086833	0.000022
C75	C	0.932372	1.007921	-0.279649
C76	C	0.932368	1.086848	-0.374561
C77	C	1.296920	0.426832	-0.054627
C78	C	1.386093	0.352685	-0.054651
C79	C	1.485302	0.315598	-0.000049
C80	C	1.495338	0.352669	0.054572
C81	C	1.406166	0.426819	0.054590
C82	C	0.987014	0.426815	0.473765
C83	C	0.987014	0.352665	0.562954
C84	C	0.932408	0.315576	0.552951
C85	C	0.877789	0.352648	0.453751
C86	C	0.877783	0.426803	0.364564
C87	C	1.406160	0.426826	0.364530
C88	C	1.495353	0.352677	0.453701
C89	C	1.485353	0.315587	0.552910
C90	C	1.386153	0.352656	0.562947
C91	C	1.296963	0.426809	0.473777
C92	C	0.458610	1.123912	-0.364516
C93	C	0.369417	1.198083	-0.453687
C94	C	0.379416	1.235178	-0.552895
C95	C	0.478617	1.198103	-0.562932
C96	C	0.567807	1.123938	-0.473763
C97	C	0.567850	1.123904	0.054632
C98	C	0.478677	1.198072	0.054632
C99	C	0.379468	1.235162	0.000026
C100	C	0.369432	1.198087	-0.054591
C101	C	0.458604	1.123926	-0.054596
C102	C	0.986985	1.123914	-0.364524
C103	C	0.987001	1.198064	-0.453696
C104	C	0.932394	1.235154	-0.552904
C105	C	0.877775	1.198081	-0.562939
C106	C	0.877765	1.123926	-0.473768
H107	H	1.031456	0.457001	-0.099091
C108	C	0.676973	1.083124	0.114701
N109	N	0.759161	1.052418	0.159942
C110	C	0.260291	1.238883	-0.114636
N111	N	0.178084	1.269605	-0.159852
C112	C	1.604463	0.311905	0.442637
N113	N	1.686642	0.281196	0.434300
H114	H	1.557987	0.255207	0.625509
C115	C	1.604479	0.311854	0.114639
N116	N	1.686686	0.281105	0.159888
C117	C	0.260307	1.238850	-0.442622
N118	N	0.178128	1.269553	-0.434286
C119	C	0.817701	0.238868	0.114700
N120	N	0.772443	0.269596	0.159940
C121	C	0.817718	0.467589	0.114701
N122	N	0.772475	0.498305	0.159955
C123	C	1.417184	0.467617	0.255409
N124	N	1.425497	0.498341	0.173221
C125	C	1.047069	1.083124	-0.255404
N126	N	1.092333	1.052401	-0.173216
H127	H	0.450417	1.093745	-0.099064
C128	C	0.447586	1.083128	-0.255394
N129	N	0.439273	1.052421	-0.173206
C130	C	1.187855	0.467567	0.484838
N131	N	1.105677	0.498264	0.493177
H132	H	1.031495	0.322489	0.643719
H133	H	1.378027	0.322446	0.643734
H134	H	0.833329	0.322444	0.099101
H135	H	0.306783	1.295567	-0.625494
H136	H	1.414353	0.456987	0.099074
H137	H	1.031477	1.228241	-0.445505
H138	H	0.833315	0.456971	0.283802
C139	C	1.047038	0.311889	-0.114711
N140	N	1.092254	0.281198	-0.159994
C141	C	0.489740	1.238832	0.114727
N142	N	0.498075	1.269528	0.159993
H143	H	0.486746	1.228315	-0.643719
H144	H	0.648570	1.093755	-0.481949
C145	C	0.281385	1.316737	0.000048
N146	N	0.207513	1.378176	0.000072
C147	C	0.817754	1.238855	-0.672077
N148	N	0.772558	1.269558	-0.754283
C149	C	0.817662	1.083176	-0.484826
N150	N	0.772386	1.052489	-0.493163
C151	C	1.187797	0.467619	-0.114705
N152	N	1.105608	0.498341	-0.159965
C153	C	1.375030	0.311912	-0.114731
N154	N	1.366695	0.281202	-0.159980
H155	H	1.031453	0.228276	-0.099083
C156	C	1.583385	0.234023	-0.000071
N157	N	1.657257	0.172577	-0.000087
H158	H	0.932410	1.295535	-0.625504
H159	H	1.031481	0.457005	0.481930
C160	C	0.932435	0.233994	0.651070
N161	N	0.932465	0.172542	0.724977
H162	H	0.833309	0.093729	0.099098
C163	C	0.817731	0.311834	0.442764
N164	N	0.772502	0.281086	0.434493
H165	H	1.031454	0.093730	-0.099074
