data_functionalizedCrystal
_audit_creation_method	'MofGen! by Chris Wilmer'
_symmetry_space_group_name_H-M	'P1'
_symmetry_Int_Tables_number	1
_symmetry_cell_setting	triclinic
loop_
_symmetry_equiv_pos_as_xyz
  x,y,z
_cell_length_a	10.540539
_cell_length_b	10.540539
_cell_length_c	9.016244
_cell_angle_alpha	90.000067
_cell_angle_beta	89.994699
_cell_angle_gamma	95.474508
loop_
_atom_site_label
_atom_site_type_symbol
_atom_site_fract_x
_atom_site_fract_y
_atom_site_fract_z
O1	O	1.685893	-0.178895	-0.123263
O2	O	1.316480	-0.195751	-0.123280
O3	O	1.509614	-0.002617	-0.123269
O4	O	1.492759	-0.372030	-0.123274
O5	O	1.509586	-0.002621	0.123411
O6	O	1.316452	-0.195755	0.123400
O7	O	1.685865	-0.178900	0.123418
Cu8	Cu	1.501156	-0.187328	0.145933
Cu9	Cu	1.501189	-0.187323	-0.145795
O10	O	1.492730	-0.372034	0.123407
C11	C	1.269163	-0.194489	0.000058
C12	C	1.128215	-0.190707	0.000051
C13	C	0.944788	-0.045790	0.000628
C14	C	1.091406	-0.049624	0.000057
C15	C	1.066558	-0.258600	-0.140811
C16	C	0.920014	-0.253785	-0.140914
C17	C	0.919493	-0.256660	0.139608
C18	C	1.066475	-0.257960	0.141455
C19	C	1.508336	0.044684	0.000068
C20	C	1.504554	0.185632	0.000060
C21	C	1.733182	-0.180161	0.000077
C22	C	1.874130	-0.183943	0.000074
C23	C	1.494008	-0.419335	0.000066
C24	C	1.497790	-0.560283	0.000064
N25	N	1.501141	-0.187331	0.351119
C26	C	1.359637	0.369059	-0.000500
C27	C	1.363471	0.222441	0.000055
C28	C	1.572434	0.247287	0.140930
C29	C	1.567619	0.393832	0.141049
C30	C	1.570520	0.394355	-0.139473
C31	C	1.571820	0.247373	-0.141336
N32	N	1.501213	-0.187310	-0.350982
C33	C	1.397510	-0.290298	0.586146
C34	C	1.397739	-0.290684	0.414255
C35	C	1.633864	-0.217464	0.413464
C36	C	1.633298	-0.218193	0.585409
C37	C	1.473367	-0.053892	0.585663
C38	C	1.470322	-0.054757	0.413709
H39	H	1.090700	-0.360819	0.149959
C40	C	1.290785	0.166015	0.136689
H41	H	1.292870	0.076108	0.137487
H42	H	1.329813	0.201256	0.224319
H43	H	1.204811	0.185852	0.132540
H44	H	1.712919	-0.144501	0.372564
H45	H	1.109159	-0.211434	-0.245643
C46	C	1.338427	-0.023885	0.358667
H47	H	1.320330	0.056421	0.396906
H48	H	1.338255	-0.021038	0.253363
H49	H	1.275319	-0.087992	0.391798
H50	H	1.674681	0.223152	-0.149837
C51	C	1.667511	-0.347470	0.355283
H52	H	1.748000	-0.364852	0.393624
H53	H	1.604199	-0.412215	0.386304
H54	H	1.671110	-0.345539	0.250017
C55	C	1.575493	0.049671	0.640596
H56	H	1.558162	0.130071	0.601942
H57	H	1.574231	0.052576	0.745884
H58	H	1.657095	0.030257	0.607831
C59	C	1.708181	0.458150	-0.140763
H60	H	1.751650	0.430361	-0.225324
H61	H	1.706887	0.548086	-0.144380
H62	H	1.750939	0.435340	-0.053373
H63	H	0.916191	0.009944	0.101649
C64	C	0.903995	0.029198	-0.135067
H65	H	0.844094	-0.023325	-0.192061
H66	H	0.866119	0.102607	-0.102669
H67	H	0.976612	0.054552	-0.194207
C68	C	1.264514	-0.266215	0.357307
H69	H	1.209762	-0.255954	0.439260
H70	H	1.270794	-0.191061	0.298570
H71	H	1.230779	-0.336560	0.298982
C72	C	1.263869	-0.266201	0.642072
H73	H	1.270115	-0.193121	0.704275
H74	H	1.210546	-0.252451	0.559831
H75	H	1.228504	-0.338164	0.696652
C76	C	1.421374	-0.423263	0.644480
H77	H	1.494265	-0.416286	0.706980
H78	H	1.349232	-0.457948	0.699219
H79	H	1.435375	-0.477581	0.563218
C80	C	0.855702	-0.394322	0.140895
H81	H	0.801677	-0.407469	0.056861
H82	H	0.919398	-0.452235	0.137794
H83	H	0.806651	-0.408178	0.228812
C84	C	1.147824	0.023040	-0.136594
H85	H	1.081120	0.055010	-0.191983
H86	H	1.206278	0.091975	-0.105190
H87	H	1.190863	-0.033050	-0.196939
C88	C	1.508851	0.436971	-0.283712
H89	H	1.438162	0.482831	-0.260177
H90	H	1.569618	0.490201	-0.338713
H91	H	1.480693	0.364158	-0.341216
C92	C	1.499802	0.431930	0.283282
H93	H	1.475443	0.357876	0.340444
H94	H	1.555985	0.488983	0.339609
H95	H	1.426115	0.472413	0.257536
H96	H	0.887935	-0.211004	0.246381
H97	H	1.712941	-0.146204	0.626995
C98	C	1.421926	-0.424398	0.358658
H99	H	1.431662	-0.478690	0.441159
H100	H	1.351735	-0.458248	0.300182
H101	H	1.497329	-0.418749	0.300350
H102	H	1.134008	0.003797	0.101034
H103	H	1.657653	-0.315531	0.625498
H104	H	0.891816	-0.203602	-0.246209
C105	C	0.855206	-0.390846	-0.149592
H106	H	0.918474	-0.449220	-0.153049
H107	H	0.803024	-0.407899	-0.064655
H108	H	0.804156	-0.399979	-0.236464
C109	C	1.345363	-0.015164	0.644291
H110	H	1.330383	0.065602	0.604731
H111	H	1.278568	-0.076914	0.614857
H112	H	1.348177	-0.010276	0.749467
C113	C	1.096761	-0.398561	-0.147911
H114	H	1.147368	-0.416874	-0.064836
H115	H	1.019502	-0.452900	-0.146600
H116	H	1.142074	-0.412245	-0.236675
C117	C	1.284350	0.407708	-0.136954
H118	H	1.336490	0.467288	-0.194802
H119	H	1.259496	0.334294	-0.194967
H120	H	1.210620	0.445420	-0.105269
C121	C	1.121782	-0.190957	0.282236
H122	H	1.182253	-0.122288	0.254969
H123	H	1.054945	-0.159174	0.337562
H124	H	1.162303	-0.250079	0.341020
C125	C	1.565604	0.053752	0.355679
H126	H	1.625701	0.019469	0.292245
H127	H	1.521019	0.113086	0.301999
H128	H	1.608906	0.095629	0.437010
H129	H	1.310059	0.179839	-0.100926
C130	C	1.284639	0.409845	0.135203
H131	H	1.337156	0.469744	0.192205
H132	H	1.211230	0.447722	0.102814
H133	H	1.259283	0.337225	0.194331
C134	C	1.704677	0.458646	0.149728
H135	H	1.702665	0.548563	0.149855
H136	H	1.743998	0.433122	0.238239
H137	H	1.751916	0.434247	0.066429
C138	C	1.712394	0.217085	0.148029
H139	H	1.730715	0.166479	0.064949
H140	H	1.766733	0.294344	0.146728
H141	H	1.726070	0.171771	0.236788
H142	H	1.522153	0.206517	-0.245547
H143	H	1.525258	0.204686	0.245756
