data_functionalizedCrystal
_audit_creation_method	'MofGen! by Chris Wilmer'
_symmetry_space_group_name_H-M	'P1'
_symmetry_Int_Tables_number	1
_symmetry_cell_setting	triclinic
loop_
_symmetry_equiv_pos_as_xyz
  x,y,z
_cell_length_a	29.839134
_cell_length_b	29.839131
_cell_length_c	19.076919
_cell_angle_alpha	92.267459
_cell_angle_beta	92.269203
_cell_angle_gamma	90.034165
loop_
_atom_site_label
_atom_site_type_symbol
_atom_site_fract_x
_atom_site_fract_y
_atom_site_fract_z
Zn1	Zn	0.676527	-0.189159	-0.398157
Zn2	Zn	1.009860	0.144174	-0.064824
Zn3	Zn	1.343193	0.477508	0.268509
Zn4	Zn	0.679472	-0.261269	-0.280458
Zn5	Zn	1.012805	0.072064	0.052875
Zn6	Zn	1.346139	0.405398	0.386208
Zn7	Zn	0.604423	-0.186144	-0.280453
Zn8	Zn	0.937756	0.147189	0.052880
Zn9	Zn	1.271089	0.480523	0.386214
Zn10	Zn	0.601359	-0.264251	-0.398087
Zn11	Zn	0.934692	0.069082	-0.064754
Zn12	Zn	1.268026	0.402415	0.268579
O13	O	0.640445	-0.225206	-0.339289
O14	O	0.973779	0.108127	-0.005956
O15	O	1.307112	0.441461	0.327378
O16	O	0.739784	-0.198738	-0.382576
O17	O	1.073117	0.134595	-0.049243
O18	O	1.406450	0.467929	0.284091
O19	O	0.672031	-0.248793	-0.181970
O20	O	1.005365	0.084540	0.151364
O21	O	1.338698	0.417873	0.484697
O22	O	0.614037	-0.123678	-0.296094
O23	O	0.947370	0.209656	0.037240
O24	O	1.280704	0.542989	0.370573
O25	O	0.741948	-0.251717	-0.296103
O26	O	1.075281	0.081616	0.037230
O27	O	1.408614	0.414950	0.370564
O28	O	0.667012	-0.125893	-0.382571
O29	O	1.000345	0.207441	-0.049237
O30	O	1.333678	0.540774	0.284096
O31	O	0.616893	-0.193600	-0.181966
O32	O	0.950226	0.139734	0.151368
O33	O	1.283560	0.473067	0.484701
O34	O	0.541150	-0.196492	-0.296026
O35	O	0.874483	0.136842	0.037308
O36	O	1.207817	0.470175	0.370641
O37	O	0.608815	-0.256800	-0.496585
O38	O	0.942149	0.076533	-0.163251
O39	O	1.275482	0.409866	0.170082
O40	O	0.538899	-0.253877	-0.382451
O41	O	0.872233	0.079457	-0.049118
O42	O	1.205566	0.412790	0.284215
O43	O	0.664041	-0.201630	-0.496636
O44	O	0.997374	0.131703	-0.163303
O45	O	1.330708	0.465036	0.170031
O46	O	0.669061	-0.324531	-0.296035
O47	O	1.002394	0.008802	0.037298
O48	O	1.335727	0.342136	0.370632
O49	O	0.611671	-0.326722	-0.382457
O50	O	0.945005	0.006611	-0.049123
O51	O	1.278338	0.339944	0.284210
C52	C	0.523724	-0.225181	-0.339231
C53	C	0.857057	0.108152	-0.005897
C54	C	1.190391	0.441486	0.327436
C55	C	0.473790	-0.225182	-0.339223
C56	C	0.807123	0.108152	-0.005889
C57	C	1.140457	0.441485	0.327444
C58	C	0.118358	-0.195285	-0.294379
C59	C	0.451692	0.138048	0.038954
C60	C	0.785025	0.471381	0.372288
C61	C	0.306032	-0.195272	-0.294336
C62	C	0.639366	0.138062	0.038997
C63	C	0.972699	0.471395	0.372330
O64	O	0.331281	-0.169813	-0.256143
O65	O	0.664614	0.163520	0.077190
O66	O	0.997948	0.496854	0.410523
N67	N	0.328344	-0.225190	-0.339258
N68	N	0.661677	0.108143	-0.005925
N69	N	0.995010	0.441477	0.327409
C70	C	0.303734	-0.255112	-0.384197
C71	C	0.637067	0.078222	-0.050863
C72	C	0.970400	0.411555	0.282470
O73	O	0.327017	-0.280556	-0.422409
O74	O	0.660350	0.052778	-0.089076
O75	O	0.993684	0.386111	0.244257
C76	C	0.116060	-0.255123	-0.384242
C77	C	0.449394	0.078210	-0.050909
C78	C	0.782727	0.411544	0.282424
C79	C	0.093752	-0.225206	-0.339313
C80	C	0.427085	0.108128	-0.005980
C81	C	0.760418	0.441461	0.327354
C82	C	0.096049	-0.165370	-0.249454
C83	C	0.429383	0.167963	0.083880
C84	C	0.762716	0.501296	0.417213
C85	C	0.049134	-0.165376	-0.249462
C86	C	0.382467	0.167958	0.083871
C87	C	0.715800	0.501291	0.417205
C88	C	0.024527	-0.195296	-0.294396
C89	C	0.357860	0.138037	0.038937
C90	C	0.691194	0.471371	0.372271
C91	C	0.046836	-0.225211	-0.339321
C92	C	0.380169	0.108122	-0.005988
C93	C	0.713503	0.441455	0.327345
C94	C	0.091451	-0.285042	-0.429184
C95	C	0.424784	0.048291	-0.095851
C96	C	0.758118	0.381624	0.237482
C97	C	0.044530	-0.285042	-0.429193
C98	C	0.377863	0.048292	-0.095860
C99	C	0.711196	0.381625	0.237474
C100	C	0.022221	-0.255125	-0.384263
C101	C	0.355554	0.078209	-0.050930
C102	C	0.688888	0.411542	0.282403
C103	C	-0.024687	-0.255137	-0.384264
C104	C	0.308647	0.078196	-0.050930
C105	C	0.641980	0.411530	0.282403
N106	N	-0.046998	-0.225219	-0.339342
N107	N	0.286335	0.108115	-0.006009
N108	N	0.619669	0.441448	0.327325
C109	C	-0.022391	-0.195298	-0.294408
C110	C	0.310942	0.138035	0.038925
C111	C	0.644275	0.471368	0.372259
C112	C	0.402265	-0.255104	-0.384169
C113	C	0.735598	0.078229	-0.050835
C114	C	1.068932	0.411562	0.282498
C115	C	0.449183	-0.255102	-0.384156
C116	C	0.782517	0.078231	-0.050823
C117	C	1.115850	0.411565	0.282510
C118	C	0.451479	-0.195261	-0.294297
C119	C	0.784812	0.138072	0.039037
C120	C	1.118145	0.471405	0.372370
C121	C	0.404560	-0.195266	-0.294306
C122	C	0.737893	0.138067	0.039027
C123	C	1.071226	0.471401	0.372361
C124	C	0.379954	-0.225186	-0.339247
C125	C	0.713287	0.108147	-0.005914
C126	C	1.046620	0.441481	0.327420
C127	C	-0.120918	-0.195312	-0.294429
C128	C	0.212416	0.138021	0.038905
C129	C	0.545749	0.471354	0.372238
C130	C	-0.167838	-0.195322	-0.294439
C131	C	0.165496	0.138012	0.038894
C132	C	0.498829	0.471345	0.372228
C133	C	-0.170129	-0.255161	-0.384301
C134	C	0.163204	0.078173	-0.050968
C135	C	0.496538	0.411506	0.282366
C136	C	-0.123213	-0.255153	-0.384288
C137	C	0.210120	0.078180	-0.050955
C138	C	0.543454	0.411514	0.282378
C139	C	-0.098609	-0.225225	-0.339350
C140	C	0.234725	0.108108	-0.006017
C141	C	0.568058	0.441442	0.327317
O142	O	-0.049964	-0.280579	-0.422442
O143	O	0.283370	0.052754	-0.089109
O144	O	0.616703	0.386088	0.244225
O145	O	-0.045683	-0.169851	-0.256212
O146	O	0.287650	0.163482	0.077121
O147	O	0.620983	0.496815	0.410455
C148	C	0.165274	-0.195280	-0.294371
C149	C	0.498607	0.138053	0.038963
C150	C	0.831941	0.471387	0.372296
C151	C	0.187583	-0.225195	-0.339296
C152	C	0.520916	0.108138	-0.005963
C153	C	0.854250	0.441472	0.327371
C154	C	0.162976	-0.255115	-0.384230
C155	C	0.496310	0.078218	-0.050896
C156	C	0.829643	0.411551	0.282437
C157	C	0.234501	-0.225193	-0.339284
C158	C	0.567834	0.108141	-0.005951
C159	C	0.901168	0.441474	0.327383
C160	C	0.259108	-0.195272	-0.294350
C161	C	0.592441	0.138061	0.038983
C162	C	0.925774	0.471394	0.372317
C163	C	0.236796	-0.165354	-0.249428
C164	C	0.570130	0.167979	0.083905
C165	C	0.903463	0.501313	0.417238
C166	C	0.189881	-0.165359	-0.249437
C167	C	0.523214	0.167974	0.083896
C168	C	0.856547	0.501307	0.417230
C169	C	0.185288	-0.285034	-0.429151
C170	C	0.518621	0.048300	-0.095818
C171	C	0.851954	0.381633	0.237515
C172	C	0.232203	-0.285026	-0.429139
C173	C	0.565537	0.048307	-0.095805
C174	C	0.898870	0.381640	0.237528
C175	C	0.256810	-0.255106	-0.384205
C176	C	0.590143	0.078228	-0.050872
C177	C	0.923477	0.411561	0.282462
C178	C	0.640365	-0.341928	-0.339254
C179	C	0.973698	-0.008594	-0.005921
C180	C	1.307032	0.324739	0.327413
C181	C	0.640371	-0.391862	-0.339263
C182	C	0.973704	-0.058529	-0.005929
C183	C	1.307038	0.274804	0.327404
C184	C	0.670378	-0.700354	-0.294355
C185	C	1.003712	-0.367021	0.038978
C186	C	1.337045	-0.033688	0.372312
C187	C	0.670433	-0.888028	-0.294382
C188	C	1.003766	-0.554695	0.038951
C189	C	1.337100	-0.221361	0.372284
O190	O	0.695883	-0.911313	-0.256173
O191	O	1.029216	-0.577980	0.077160
O192	O	1.362549	-0.244647	0.410493
N193	N	0.640537	-0.912649	-0.339342
N194	N	0.973870	-0.579316	-0.006009
N195	N	1.307204	-0.245983	0.327325
C196	C	0.610627	-0.890349	-0.384301
C197	C	0.943960	-0.557016	-0.050968
C198	C	1.277294	-0.223683	0.282365
O199	O	0.585203	-0.915598	-0.422548
O200	O	0.918536	-0.582264	-0.089215
O201	O	1.251870	-0.248931	0.244118
C202	C	0.610575	-0.702677	-0.384277
C203	C	0.943908	-0.369343	-0.050944
C204	C	1.277241	-0.036010	0.282390
C205	C	0.640470	-0.678058	-0.339309
C206	C	0.973803	-0.344724	-0.005976
C207	C	1.307136	-0.011391	0.327357
C208	C	0.700271	-0.675735	-0.249392
C209	C	1.033604	-0.342402	0.083942
C210	C	1.366938	-0.009069	0.417275
C211	C	0.700255	-0.628820	-0.249382
C212	C	1.033589	-0.295486	0.083951
C213	C	1.366922	0.037847	0.417284
C214	C	0.670347	-0.606523	-0.294337
C215	C	1.003680	-0.273190	0.038996
C216	C	1.337014	0.060144	0.372330
C217	C	0.640454	-0.631142	-0.339300
C218	C	0.973787	-0.297809	-0.005967
C219	C	1.307121	0.035525	0.327366
C220	C	0.580667	-0.680378	-0.429240
C221	C	0.914001	-0.347044	-0.095906
C222	C	1.247334	-0.013711	0.237427
C223	C	0.580658	-0.633456	-0.429231
C224	C	0.913991	-0.300123	-0.095897
C225	C	1.247324	0.033210	0.237436
C226	C	0.610553	-0.608837	-0.384263
C227	C	0.943886	-0.275504	-0.050930
C228	C	1.277219	0.057829	0.282404
C229	C	0.610530	-0.561929	-0.384246
C230	C	0.943863	-0.228596	-0.050912
C231	C	1.277197	0.104737	0.282421
N232	N	0.640426	-0.537308	-0.339286
N233	N	0.973759	-0.203975	-0.005953
N234	N	1.307093	0.129358	0.327381
C235	C	0.670335	-0.559605	-0.294332
C236	C	1.003668	-0.226272	0.039002
C237	C	1.337001	0.107062	0.372335
C238	C	0.610656	-0.988880	-0.384310
C239	C	0.943989	-0.655547	-0.050977
C240	C	1.277323	-0.322214	0.282357
C241	C	0.610668	-1.035798	-0.384315
C242	C	0.944002	-0.702465	-0.050982
C243	C	1.277335	-0.369132	0.282351
C244	C	0.670475	-1.033474	-0.294397
C245	C	1.003808	-0.700140	0.038936
C246	C	1.337142	-0.366807	0.372270
C247	C	0.670460	-0.986555	-0.294389
C248	C	1.003793	-0.653221	0.038945
C249	C	1.337127	-0.319888	0.372278
C250	C	0.640552	-0.964259	-0.339350
C251	C	0.973885	-0.630926	-0.006017
C252	C	1.307219	-0.297592	0.327316
C253	C	0.670299	-0.461079	-0.294315
C254	C	1.003633	-0.127745	0.039018
C255	C	1.336966	0.205588	0.372351
C256	C	0.670280	-0.414159	-0.294308
C257	C	1.003613	-0.080826	0.039025
C258	C	1.336946	0.252508	0.372358
C259	C	0.610475	-0.416488	-0.384229
C260	C	0.943808	-0.083154	-0.050896
C261	C	1.277141	0.250179	0.282438
C262	C	0.610493	-0.463403	-0.384234
C263	C	0.943826	-0.130070	-0.050900
C264	C	1.277159	0.203263	0.282433
C265	C	0.640408	-0.485698	-0.339275
C266	C	0.973742	-0.152364	-0.005941
C267	C	1.307075	0.180969	0.327392
O268	O	0.585097	-0.538615	-0.422440
O269	O	0.918431	-0.205282	-0.089107
O270	O	1.251764	0.128052	0.244227
O271	O	0.695762	-0.534349	-0.256102
O272	O	1.029095	-0.201016	0.077232
O273	O	1.362428	0.132318	0.410565
C274	C	0.670394	-0.747270	-0.294364
C275	C	1.003727	-0.413937	0.038969
C276	C	1.337061	-0.080603	0.372303
C277	C	0.640501	-0.771889	-0.339328
C278	C	0.973834	-0.438556	-0.005994
C279	C	1.307168	-0.105222	0.327339
C280	C	0.610593	-0.749592	-0.384282
C281	C	0.943926	-0.416259	-0.050949
C282	C	1.277259	-0.082926	0.282385
C283	C	0.640514	-0.818807	-0.339333
C284	C	0.973847	-0.485474	-0.006000
C285	C	1.307180	-0.152140	0.327334
C286	C	0.670422	-0.841104	-0.294379
C287	C	1.003755	-0.507770	0.038955
C288	C	1.337089	-0.174437	0.372288
C289	C	0.700318	-0.816482	-0.249419
C290	C	1.033651	-0.483149	0.083915
C291	C	1.366985	-0.149816	0.417248
C292	C	0.700302	-0.769567	-0.249410
C293	C	1.033636	-0.436233	0.083924
C294	C	1.366969	-0.102900	0.417257
C295	C	0.580696	-0.774213	-0.429242
C296	C	0.914030	-0.440880	-0.095908
C297	C	1.247363	-0.107547	0.237425
C298	C	0.580714	-0.821129	-0.429247
C299	C	0.914048	-0.487796	-0.095913
C300	C	1.247381	-0.154462	0.237420
C301	C	0.610623	-0.843426	-0.384292
C302	C	0.943956	-0.510092	-0.050959
C303	C	1.277289	-0.176759	0.282374
C304	C	0.757622	-0.225231	-0.339348
C305	C	1.090955	0.108102	-0.006015
C306	C	1.424289	0.441435	0.327319
C307	C	0.807556	-0.225242	-0.339373
C308	C	1.140889	0.108091	-0.006040
C309	C	1.474222	0.441425	0.327294
C310	C	0.635758	-0.229884	-0.522861
C311	C	0.969091	0.103449	-0.189528
C312	C	1.302425	0.436782	0.143805
C313	C	0.633760	-0.231878	-0.601089
C314	C	0.967094	0.101455	-0.267755
C315	C	1.300427	0.434789	0.065578
C316	C	0.640538	-0.108029	-0.339339
C317	C	0.973871	0.225305	-0.006006
C318	C	1.307204	0.558638	0.327327
C319	C	0.640577	-0.058095	-0.339361
C320	C	0.973910	0.275238	-0.006028
C321	C	1.307244	0.608572	0.327306
C322	C	0.661573	-0.204092	-0.637868
C323	C	0.994907	0.129242	-0.304535
C324	C	1.328240	0.462575	0.028798
C325	C	0.659691	-0.205963	-0.711371
C326	C	0.993024	0.127370	-0.378038
C327	C	1.326358	0.460703	-0.044705
C328	C	0.629998	-0.235623	-0.748094
C329	C	0.963331	0.097710	-0.414760
C330	C	1.296664	0.431043	-0.081427
C331	C	0.602182	-0.263411	-0.711309
C332	C	0.935515	0.069923	-0.377976
C333	C	1.268848	0.403256	-0.044642
C334	C	0.604062	-0.261537	-0.637807
C335	C	0.937395	0.071797	-0.304474
C336	C	1.270729	0.405130	0.028859
C337	C	0.621289	-0.244306	-0.967917
C338	C	0.954622	0.089027	-0.634584
C339	C	1.287956	0.422360	-0.301251
C340	C	0.619412	-0.246179	-1.041424
C341	C	0.952745	0.087154	-0.708091
C342	C	1.286078	0.420487	-0.374758
C343	C	0.676921	-0.188731	-1.041482
C344	C	1.010254	0.144602	-0.708148
C345	C	1.343587	0.477936	-0.374815
C346	C	0.678800	-0.186861	-0.967978
C347	C	1.012134	0.146472	-0.634645
C348	C	1.345467	0.479805	-0.301312
C349	C	0.650983	-0.214647	-0.931200
C350	C	0.984316	0.118686	-0.597867
C351	C	1.317649	0.452020	-0.264534
N352	N	0.628074	-0.237538	-0.823226
N353	N	0.961407	0.095795	-0.489892
N354	N	1.294741	0.429128	-0.156559
N355	N	0.652904	-0.212730	-0.856070
N356	N	0.986238	0.120604	-0.522736
N357	N	1.319571	0.453937	-0.189403
C358	C	0.645140	-0.220513	-0.156431
C359	C	0.978473	0.112820	0.176902
C360	C	1.311807	0.446153	0.510236
C361	C	0.647225	-0.218393	-0.078204
C362	C	0.980558	0.114940	0.255130
C363	C	1.313891	0.448274	0.588463
H364	H	0.109607	-0.309404	-0.465770
H365	H	0.442940	0.023929	-0.132437
H366	H	0.776273	0.357262	0.200896
Cl367	Cl	0.708074	-1.061512	-0.237882
Cl368	Cl	1.041407	-0.728179	0.095451
Cl369	Cl	1.374740	-0.394846	0.428784
H370	H	0.702981	-0.162710	-0.938084
H371	H	1.036314	0.170623	-0.604751
H372	H	1.369648	0.503957	-0.271417
Cl373	Cl	0.126975	-0.127750	-0.192959
Cl374	Cl	0.460308	0.205583	0.140375
Cl375	Cl	0.793642	0.538917	0.473708
Cl376	Cl	0.711887	-0.153801	-1.087721
Cl377	Cl	1.045221	0.179532	-0.754388
Cl378	Cl	1.378554	0.512866	-0.421054
H379	H	0.581409	-0.284159	-0.607862
H380	H	0.914743	0.049175	-0.274529
H381	H	1.248076	0.382508	0.058804
H382	H	-0.100890	-0.170940	-0.257839
H383	H	0.232443	0.162393	0.075494
H384	H	0.565776	0.495727	0.408828
Cl385	Cl	0.694678	-0.171050	-0.757605
Cl386	Cl	1.028011	0.162283	-0.424272
Cl387	Cl	1.361344	0.495617	-0.090939
H388	H	0.386399	-0.170903	-0.257723
H389	H	0.719732	0.162430	0.075611
H390	H	1.053066	0.495763	0.408944
Cl391	Cl	0.582078	-0.283467	-1.087589
Cl392	Cl	0.915411	0.049866	-0.754255
Cl393	Cl	1.248744	0.383200	-0.420922
H394	H	0.578003	-0.287559	-0.741214
H395	H	0.911337	0.045774	-0.407881
H396	H	1.244670	0.379107	-0.074548
Cl397	Cl	-0.195880	-0.157709	-0.237952
Cl398	Cl	0.137453	0.175625	0.095382
Cl399	Cl	0.470787	0.508958	0.428715
Cl400	Cl	0.021095	-0.127759	-0.192984
Cl401	Cl	0.354428	0.205575	0.140349
Cl402	Cl	0.687762	0.538908	0.473683
Cl403	Cl	0.586318	-0.279237	-0.921692
Cl404	Cl	0.919651	0.054096	-0.588358
Cl405	Cl	1.252985	0.387429	-0.255025
Cl406	Cl	0.572901	-0.494353	-0.440751
Cl407	Cl	0.906234	-0.161020	-0.107417
Cl408	Cl	1.239568	0.172313	0.225916
H409	H	0.556342	-0.756063	-0.465850
H410	H	0.889675	-0.422730	-0.132517
H411	H	1.223009	-0.089397	0.200817
H412	H	0.471521	-0.170899	-0.257709
H413	H	0.804855	0.162434	0.075624
H414	H	1.138188	0.495767	0.408958
Cl415	Cl	0.573079	-1.066742	-0.440840
Cl416	Cl	0.906413	-0.733409	-0.107507
Cl417	Cl	1.239746	-0.400075	0.225826
Cl418	Cl	0.477223	-0.292720	-0.440632
Cl419	Cl	0.810556	0.040613	-0.107298
Cl420	Cl	1.143890	0.373947	0.226035
H421	H	0.382235	-0.279471	-0.420766
H422	H	0.715568	0.053863	-0.087433
H423	H	1.048902	0.387196	0.245900
Cl424	Cl	0.013599	-0.322657	-0.485695
Cl425	Cl	0.346933	0.010676	-0.152362
Cl426	Cl	0.680266	0.344010	0.180971
Cl427	Cl	0.707907	-0.489099	-0.237793
Cl428	Cl	1.041241	-0.155765	0.095540
Cl429	Cl	1.374574	0.177568	0.428873
Cl430	Cl	-0.201071	-0.292778	-0.440777
Cl431	Cl	0.132262	0.040555	-0.107444
Cl432	Cl	0.465595	0.373889	0.225889
Cl433	Cl	-0.095167	-0.292768	-0.440765
Cl434	Cl	0.238167	0.040565	-0.107431
Cl435	Cl	0.571500	0.373899	0.225902
H436	H	0.171721	-0.140997	-0.212851
H437	H	0.505054	0.192336	0.120482
H438	H	0.838388	0.525669	0.453815
H439	H	0.165257	-0.309399	-0.465743
H440	H	0.498591	0.023935	-0.132410
H441	H	0.831924	0.357268	0.200923
H442	H	0.256839	-0.140993	-0.212839
H443	H	0.590173	0.192340	0.120494
H444	H	0.923506	0.525673	0.453827
Cl445	Cl	0.543128	-0.852073	-0.485783
Cl446	Cl	0.876461	-0.518740	-0.152450
Cl447	Cl	1.209794	-0.185406	0.180884
H448	H	0.250363	-0.309393	-0.465725
H449	H	0.583697	0.023941	-0.132391
H450	H	0.917030	0.357274	0.200942
H451	H	0.724600	-0.608778	-0.212768
H452	H	1.057933	-0.275444	0.120565
H453	H	1.391266	0.057889	0.453899
Cl454	Cl	0.707865	-0.383212	-0.237773
Cl455	Cl	1.041198	-0.049879	0.095560
Cl456	Cl	1.374531	0.283454	0.428893
H457	H	0.724629	-0.693884	-0.212784
H458	H	1.057962	-0.360551	0.120549
H459	H	1.391295	-0.027218	0.453883
H460	H	0.685754	-0.179940	-0.607974
H461	H	1.019088	0.153393	-0.274641
H462	H	1.352421	0.486726	0.058693
H463	H	0.586300	-0.970730	-0.420924
H464	H	0.919633	-0.637397	-0.087591
H465	H	1.252967	-0.304064	0.245742
Cl466	Cl	0.708044	-0.955610	-0.237857
Cl467	Cl	1.041378	-0.622277	0.095476
Cl468	Cl	1.374711	-0.288943	0.428810
H469	H	0.556303	-0.615306	-0.465846
H470	H	0.889637	-0.281972	-0.132513
H471	H	1.222970	0.051361	0.200820
Cl472	Cl	0.543088	-0.711316	-0.485783
Cl473	Cl	0.876421	-0.377983	-0.152449
Cl474	Cl	1.209754	-0.044649	0.180884
Cl475	Cl	0.572880	-0.388449	-0.440744
Cl476	Cl	0.906213	-0.055115	-0.107410
Cl477	Cl	1.239546	0.278218	0.225923
H478	H	0.724646	-0.749525	-0.212793
H479	H	1.057979	-0.416192	0.120540
H480	H	1.391312	-0.082859	0.453874
H481	H	0.724669	-0.834645	-0.212813
H482	H	1.058003	-0.501311	0.120520
H483	H	1.391336	-0.167978	0.453853
