data_functionalizedCrystal
_audit_creation_method	'MofGen! by Chris Wilmer'
_symmetry_space_group_name_H-M	'P1'
_symmetry_Int_Tables_number	1
_symmetry_cell_setting	triclinic
loop_
_symmetry_equiv_pos_as_xyz
  x,y,z
_cell_length_a	15.944551
_cell_length_b	26.210047
_cell_length_c	15.944551
_cell_angle_alpha	90.003550
_cell_angle_beta	96.501262
_cell_angle_gamma	90.004547
loop_
_atom_site_label
_atom_site_type_symbol
_atom_site_fract_x
_atom_site_fract_y
_atom_site_fract_z
O1	O	1.114531	0.042377	-0.108320
O2	O	1.614531	0.542377	0.391680
O3	O	0.869981	0.042390	-0.121676
O4	O	1.369981	0.542390	0.378324
O5	O	0.998934	0.042378	0.007277
O6	O	1.498934	0.542378	0.507277
O7	O	0.985578	0.042388	-0.237273
O8	O	1.485578	0.542388	0.262727
O9	O	0.998909	-0.042480	0.007257
O10	O	1.498909	0.457520	0.507257
O11	O	0.869956	-0.042468	-0.121696
O12	O	1.369956	0.457532	0.378304
O13	O	1.114506	-0.042481	-0.108340
O14	O	1.614506	0.457519	0.391660
Cu15	Cu	0.992229	-0.050223	-0.115020
Cu16	Cu	1.492229	0.449777	0.384980
Cu17	Cu	0.992258	0.050132	-0.114996
Cu18	Cu	1.492258	0.550132	0.385004
O19	O	0.985553	-0.042470	-0.237293
O20	O	1.485553	0.457530	0.262707
C21	C	0.838675	-0.000038	-0.121132
C22	C	1.338675	0.499962	0.378868
C23	C	0.745429	-0.000033	-0.119470
C24	C	1.245429	0.499967	0.380530
C25	C	0.530572	-0.000046	-0.035565
C26	C	1.030572	0.499954	0.464435
C27	C	0.469564	0.041795	-0.074518
C28	C	0.969564	0.541795	0.425482
C29	C	0.574703	-0.000039	-0.116462
C30	C	1.074703	0.499961	0.383538
C31	C	0.469562	-0.041869	-0.074557
C32	C	0.969562	0.458131	0.425443
C33	C	0.409790	-0.000047	-0.113551
C34	C	0.909790	0.499953	0.386449
C35	C	0.514923	0.041837	-0.155437
C36	C	1.014923	0.541837	0.344563
C37	C	0.514927	-0.041864	-0.155465
C38	C	1.014927	0.458136	0.344535
C39	C	0.453937	-0.000013	-0.194476
C40	C	0.953937	0.499987	0.305524
C41	C	0.669705	-0.000034	-0.118137
C42	C	1.169705	0.499966	0.381863
C43	C	0.314789	-0.000049	-0.111883
C44	C	0.814789	0.499951	0.388117
N45	N	0.992214	-0.120807	-0.115036
N46	N	1.492214	0.379193	0.384964
C47	C	1.049353	-0.473326	-0.057909
C48	C	1.549353	0.026674	0.442091
C49	C	1.049372	-0.686985	-0.057897
C50	C	1.549372	-0.186985	0.442103
O51	O	1.097920	-0.714611	-0.009329
O52	O	1.597920	-0.214611	0.490671
N53	N	0.992263	-0.713701	-0.114978
N54	N	1.492263	-0.213701	0.385022
C55	C	0.935142	-0.686999	-0.172062
C56	C	1.435142	-0.186999	0.327938
O57	O	0.886562	-0.714625	-0.220606
O58	O	1.386562	-0.214625	0.279394
C59	C	0.935120	-0.473342	-0.172069
C60	C	1.435120	0.026658	0.327931
C61	C	0.992238	-0.446628	-0.114990
C62	C	1.492238	0.053372	0.385010
C63	C	1.106466	-0.446612	-0.000834
C64	C	1.606466	0.053388	0.499166
C65	C	1.106464	-0.393201	-0.000841
C66	C	1.606464	0.106799	0.499159
C67	C	1.049349	-0.366503	-0.057922
C68	C	1.549349	0.133497	0.442078
C69	C	0.992236	-0.393217	-0.114997
C70	C	1.492236	0.106783	0.385003
C71	C	0.877996	-0.446641	-0.229148
C72	C	1.377996	0.053359	0.270852
C73	C	0.877994	-0.393223	-0.229143
C74	C	1.377994	0.106777	0.270857
C75	C	0.935112	-0.366510	-0.172065
C76	C	1.435112	0.133490	0.327935
C77	C	0.935119	-0.313107	-0.172084
C78	C	1.435119	0.186893	0.327916
N79	N	0.992228	-0.286391	-0.115004
N80	N	1.492228	0.213609	0.384996
C81	C	1.049342	-0.313089	-0.057923
C82	C	1.549342	0.186911	0.442077
C83	C	0.935159	-0.799172	-0.172055
C84	C	1.435159	-0.299172	0.327945
C85	C	0.935165	-0.852587	-0.172055
C86	C	1.435165	-0.352587	0.327945
C87	C	1.049394	-0.852568	-0.057889
C88	C	1.549394	-0.352568	0.442111
C89	C	1.049391	-0.799153	-0.057894
C90	C	1.549391	-0.299153	0.442106
C91	C	0.992267	-0.772456	-0.114975
C92	C	1.492267	-0.272456	0.385025
C93	C	1.049334	-0.200921	-0.057941
C94	C	1.549334	0.299079	0.442059
C95	C	1.049329	-0.147505	-0.057955
C96	C	1.549329	0.352495	0.442045
C97	C	0.935098	-0.147528	-0.172118
C98	C	1.435098	0.352472	0.327882
C99	C	0.935105	-0.200939	-0.172107
C100	C	1.435105	0.299061	0.327893
C101	C	0.992227	-0.227635	-0.115012
C102	C	1.492227	0.272365	0.384988
O103	O	0.886589	-0.285448	-0.220621
O104	O	1.386589	0.214552	0.279379
O105	O	1.097902	-0.285453	-0.009373
O106	O	1.597902	0.214547	0.490627
C107	C	1.049355	-0.526737	-0.057902
C108	C	1.549355	-0.026737	0.442098
C109	C	0.992242	-0.553451	-0.114977
C110	C	1.492242	-0.053451	0.385023
C111	C	0.935128	-0.526753	-0.172058
C112	C	1.435128	-0.026753	0.327942
C113	C	0.992249	-0.606865	-0.114976
C114	C	1.492249	-0.106865	0.385024
C115	C	1.049364	-0.633563	-0.057895
C116	C	1.549364	-0.133563	0.442105
C117	C	1.106472	-0.606847	-0.000814
C118	C	1.606472	-0.106847	0.499186
C119	C	1.106470	-0.553435	-0.000821
C120	C	1.606470	-0.053435	0.499179
C121	C	0.878019	-0.553469	-0.229139
C122	C	1.378019	-0.053469	0.270861
C123	C	0.878026	-0.606881	-0.229128
C124	C	1.378026	-0.106881	0.270872
C125	C	0.935141	-0.633579	-0.172047
C126	C	1.435141	-0.133579	0.327953
C127	C	1.145813	-0.000053	-0.108885
C128	C	1.645813	0.499947	0.391115
C129	C	1.239059	-0.000054	-0.110547
C130	C	1.739059	0.499946	0.389453
C131	C	0.998367	-0.000051	0.038561
C132	C	1.498367	0.499949	0.538561
C133	C	0.996705	-0.000051	0.131807
C134	C	1.496705	0.499949	0.631807
N135	N	0.992280	0.120715	-0.114973
N136	N	1.492280	0.620715	0.385027
C137	C	0.986120	-0.000040	-0.268577
C138	C	1.486120	0.499960	0.231423
C139	C	0.987782	-0.000036	-0.361823
C140	C	1.487782	0.499964	0.138177
C141	C	0.912801	-0.000039	0.346663
C142	C	1.412801	0.499961	0.846663
C143	C	0.951751	-0.041882	0.407671
C144	C	1.451751	0.458118	0.907671
C145	C	0.993698	-0.000047	0.302533
C146	C	1.493698	0.499953	0.802533
C147	C	0.951794	0.041782	0.407674
C148	C	1.451794	0.541782	0.907674
C149	C	0.990787	-0.000041	0.467445
C150	C	1.490787	0.499959	0.967445
C151	C	1.032670	-0.041924	0.362312
C152	C	1.532670	0.458076	0.862312
C153	C	1.032702	0.041777	0.362309
C154	C	1.532702	0.541777	0.862309
C155	C	1.071711	-0.000075	0.423298
C156	C	1.571711	0.499925	0.923298
C157	C	0.995372	-0.000051	0.207530
C158	C	1.495372	0.499949	0.707530
C159	C	0.989119	-0.000040	0.562446
C160	C	1.489119	0.499960	1.062446
H161	H	0.420779	0.000013	-0.261683
H162	H	0.920779	0.500013	0.238317
H163	H	0.888641	-0.777439	-0.218539
H164	H	1.388641	-0.277439	0.281461
H165	H	0.917524	-0.077252	0.427771
H166	H	1.417524	0.422748	0.927771
H167	H	0.449465	0.077166	-0.040293
H168	H	0.949465	0.577166	0.459707
H169	H	1.066847	-0.077337	0.342313
H170	H	1.566847	0.422663	0.842313
H171	H	0.831485	-0.468384	-0.275626
H172	H	1.331485	0.031616	0.224374
H173	H	0.535048	-0.077237	-0.189661
H174	H	1.035048	0.422763	0.310339
H175	H	1.152980	-0.628593	0.045661
H176	H	1.652980	-0.128593	0.545661
H177	H	0.534922	0.077248	-0.189619
H178	H	1.034922	0.577248	0.310381
H179	H	1.095847	-0.222650	-0.011448
H180	H	1.595847	0.277350	0.488552
H181	H	1.138919	-0.000102	0.456457
H182	H	1.638919	0.499898	0.956457
H183	H	1.066900	0.077150	0.342187
H184	H	1.566900	0.577150	0.842187
H185	H	0.888663	-0.874333	-0.218542
H186	H	1.388663	-0.374333	0.281458
C187	C	0.815913	-0.635788	-0.291142
C188	C	1.315913	-0.135788	0.208858
C189	C	0.765882	-0.600968	-0.341112
C190	C	1.265882	-0.100968	0.158888
C191	C	0.708643	-0.627577	-0.398233
C192	C	1.208643	-0.127577	0.101767
H193	H	0.846020	-0.656630	-0.326211
H194	H	1.346020	-0.156630	0.173789
H195	H	0.780903	-0.656611	-0.260919
H196	H	1.280903	-0.156611	0.239081
H197	H	0.800888	-0.580154	-0.371333
H198	H	1.300888	-0.080154	0.128667
H199	H	0.735757	-0.580125	-0.306066
H200	H	1.235757	-0.080125	0.193934
H201	H	0.673633	-0.648400	-0.368009
H202	H	1.173633	-0.148400	0.131991
H203	H	0.738757	-0.648417	-0.433296
H204	H	1.238757	-0.148417	0.066704
H205	H	0.674686	-0.603955	-0.432139
H206	H	1.174686	-0.103955	0.067861
C207	C	1.111444	-0.770108	0.003974
C208	C	1.611444	-0.270108	0.503974
C209	C	1.162879	-0.739426	-0.040757
C210	C	1.662879	-0.239426	0.459243
C211	C	1.220037	-0.712663	0.016223
C212	C	1.720037	-0.212663	0.516223
H213	H	1.081274	-0.749245	0.038956
H214	H	1.581274	-0.249245	0.538956
H215	H	1.145510	-0.793632	0.037981
H216	H	1.645510	-0.293632	0.537981
H217	H	1.128817	-0.715905	-0.074750
H218	H	1.628817	-0.215905	0.425250
H219	H	1.193068	-0.760277	-0.075735
H220	H	1.693068	-0.260277	0.424265
H221	H	1.254103	-0.736187	0.050230
H222	H	1.754103	-0.236187	0.550230
H223	H	1.189860	-0.691803	0.051202
H224	H	1.689860	-0.191803	0.551202
H225	H	1.254947	-0.691846	-0.014118
H226	H	1.754947	-0.191846	0.485882
C227	C	0.906039	0.088932	0.434336
C228	C	1.406039	0.588932	0.934336
C229	C	0.822897	0.088739	0.395143
C230	C	1.322897	0.588739	0.895143
C231	C	0.780720	0.132167	0.419670
C232	C	1.280720	0.632167	0.919670
H233	H	0.905668	0.088802	0.493867
H234	H	1.405668	0.588802	0.993867
H235	H	0.934195	0.118655	0.418012
H236	H	1.434195	0.618655	0.918012
H237	H	0.794748	0.059024	0.411472
H238	H	1.294748	0.559024	0.911472
H239	H	0.823243	0.088877	0.335613
H240	H	1.323243	0.588877	0.835613
H241	H	0.808876	0.161889	0.403346
H242	H	1.308876	0.661889	0.903346
H243	H	0.780354	0.132033	0.479201
H244	H	1.280354	0.632033	0.979201
H245	H	0.724306	0.132044	0.393076
H246	H	1.224306	0.632044	0.893076
H247	H	0.888603	-0.222690	-0.218594
H248	H	1.388603	0.277310	0.281406
C249	C	0.574954	0.000111	0.053981
C250	C	1.074954	0.500111	0.553981
C251	C	0.552113	0.044022	0.095958
C252	C	1.052113	0.544022	0.595958
C253	C	0.592994	0.044191	0.178441
C254	C	1.092994	0.544191	0.678441
H255	H	0.558813	-0.029276	0.083109
H256	H	1.058813	0.470724	0.583109
H257	H	0.634328	-0.000164	0.052327
H258	H	1.134328	0.499836	0.552327
H259	H	0.492753	0.044292	0.097616
H260	H	0.992753	0.544292	0.597616
H261	H	0.568256	0.073416	0.066856
H262	H	1.068256	0.573416	0.566856
H263	H	0.652367	0.043916	0.176787
H264	H	1.152367	0.543916	0.676787
H265	H	0.576850	0.014802	0.207561
H266	H	1.076850	0.514802	0.707561
H267	H	0.577508	0.073986	0.206930
H268	H	1.077508	0.573986	0.706930
C269	C	0.823252	-0.000193	0.302288
C270	C	1.323252	0.499807	0.802288
C271	C	0.781271	-0.044102	0.325132
C272	C	1.281271	0.455898	0.825132
C273	C	0.698784	-0.044266	0.284261
C274	C	1.198784	0.455734	0.784261
H275	H	0.794131	0.029196	0.318435
H276	H	1.294131	0.529196	0.818435
H277	H	0.824898	0.000084	0.242914
H278	H	1.324898	0.500084	0.742914
H279	H	0.779620	-0.044373	0.384494
H280	H	1.279620	0.455627	0.884494
H281	H	0.810366	-0.073497	0.308984
H282	H	1.310366	0.426503	0.808984
H283	H	0.700430	-0.043989	0.224887
H284	H	1.200430	0.456011	0.724887
H285	H	0.669671	-0.014876	0.300411
H286	H	1.169671	0.485124	0.800411
H287	H	0.670292	-0.074060	0.299749
H288	H	1.170292	0.425940	0.799749
H289	H	1.152972	-0.371454	0.045640
H290	H	1.652972	0.128546	0.545640
H291	H	0.831475	-0.371489	-0.275624
H292	H	1.331475	0.128511	0.224376
H293	H	0.449466	-0.077241	-0.040334
H294	H	0.949466	0.422759	0.459666
H295	H	1.095845	-0.125756	-0.011475
H296	H	1.595845	0.374244	0.488525
C297	C	0.816144	-0.524424	-0.291167
C298	C	1.316144	-0.024424	0.208833
C299	C	0.860888	-0.493755	-0.342607
C300	C	1.360888	0.006245	0.157393
C301	C	0.803918	-0.466989	-0.399760
C302	C	1.303918	0.033011	0.100240
H303	H	0.782116	-0.547932	-0.325238
H304	H	1.282116	-0.047932	0.174762
H305	H	0.781183	-0.503555	-0.260966
H306	H	1.281183	-0.003555	0.239034
H307	H	0.895835	-0.514622	-0.372806
H308	H	1.395835	-0.014622	0.127194
H309	H	0.894913	-0.470237	-0.308559
H310	H	1.394913	0.029763	0.191441
H311	H	0.768957	-0.446121	-0.369558
H312	H	1.268957	0.053879	0.130442
H313	H	0.769893	-0.490501	-0.433825
H314	H	1.269893	0.009499	0.066175
H315	H	0.834269	-0.446174	-0.434663
H316	H	1.334269	0.053826	0.065337
H317	H	1.152975	-0.468345	0.045652
H318	H	1.652975	0.031655	0.545652
H319	H	0.888598	-0.125782	-0.218595
H320	H	1.388598	0.374218	0.281405
C321	C	1.168518	-0.524529	0.061250
C322	C	1.668518	-0.024529	0.561250
C323	C	1.218515	-0.559351	0.111249
C324	C	1.718515	-0.059351	0.611249
C325	C	1.275677	-0.532745	0.168450
C326	C	1.775677	-0.032745	0.668450
H327	H	1.203565	-0.503689	0.031115
H328	H	1.703565	-0.003689	0.531115
H329	H	1.138326	-0.503704	0.096285
H330	H	1.638326	-0.003704	0.596285
H331	H	1.248705	-0.580167	0.076219
H332	H	1.748705	-0.080167	0.576219
H333	H	1.183491	-0.580192	0.141403
H334	H	1.683491	-0.080192	0.641403
H335	H	1.245485	-0.511921	0.203485
H336	H	1.745485	-0.011921	0.703485
H337	H	1.310719	-0.511906	0.138307
H338	H	1.810719	-0.011906	0.638307
H339	H	1.309602	-0.556368	0.202386
H340	H	1.809602	-0.056368	0.702386
C341	C	1.111536	-0.881534	0.003995
C342	C	1.611536	-0.381534	0.503995
C343	C	1.194077	-0.868551	-0.009680
C344	C	1.694077	-0.368551	0.490320
C345	C	1.251336	-0.895231	0.047305
C346	C	1.751336	-0.395231	0.547305
H347	H	1.102519	-0.872802	0.060096
H348	H	1.602519	-0.372802	0.560096
H349	H	1.103410	-0.917175	-0.004188
H350	H	1.603410	-0.417175	0.495812
H351	H	1.202200	-0.832917	-0.001490
H352	H	1.702200	-0.332917	0.498510
H353	H	1.203121	-0.877284	-0.065769
H354	H	1.703121	-0.377284	0.434231
H355	H	1.243210	-0.930872	0.039122
H356	H	1.743210	-0.430872	0.539122
H357	H	1.242312	-0.886497	0.103402
H358	H	1.742312	-0.386497	0.603402
H359	H	1.307347	-0.886429	0.038030
H360	H	1.807347	-0.386429	0.538030
