data_functionalizedCrystal
_audit_creation_method	'MofGen! by Chris Wilmer'
_symmetry_space_group_name_H-M	'P1'
_symmetry_Int_Tables_number	1
_symmetry_cell_setting	triclinic
loop_
_symmetry_equiv_pos_as_xyz
  x,y,z
_cell_length_a	15.995350
_cell_length_b	10.654550
_cell_length_c	9.130313
_cell_angle_alpha	90.003780
_cell_angle_beta	90.000982
_cell_angle_gamma	96.011361
loop_
_atom_site_label
_atom_site_type_symbol
_atom_site_fract_x
_atom_site_fract_y
_atom_site_fract_z
O1	O	0.117599	-1.666298	-0.121912
O2	O	0.128803	-1.300673	-0.121888
O3	O	0.001371	-1.493480	-0.121899
O4	O	0.245030	-1.473491	-0.121900
O5	O	0.001375	-1.493478	0.121700
O6	O	0.128807	-1.300671	0.121711
O7	O	0.117602	-1.666295	0.121687
Cu8	Cu	0.123205	-1.483483	0.143942
Cu9	Cu	0.123201	-1.483486	-0.144142
O10	O	0.245034	-1.473488	0.121698
C11	C	0.127982	-1.253885	-0.000085
C12	C	0.125521	-1.114473	-0.000076
C13	C	-0.029827	-1.492652	-0.000102
C14	C	-0.122791	-1.490175	-0.000110
N15	N	0.123207	-1.483490	0.346564
C16	C	-0.460591	-1.481278	-0.000105
C17	C	-0.413954	-1.343964	-0.000642
C18	C	-0.317249	-1.346442	-0.000093
C19	C	-0.293004	-1.485691	-0.000108
C20	C	-0.333687	-1.553417	0.138991
C21	C	-0.430342	-1.549968	0.139108
C22	C	-0.430688	-1.552807	-0.137910
C23	C	-0.333743	-1.552775	-0.139748
C24	C	-0.198292	-1.488192	-0.000106
C25	C	-0.555303	-1.478780	-0.000098
C26	C	0.276232	-1.474316	-0.000101
C27	C	0.369197	-1.476793	-0.000103
C28	C	0.118423	-1.713084	-0.000119
C29	C	0.120884	-1.852495	-0.000137
C30	C	0.200551	-1.034008	-0.000098
C31	C	0.198233	-0.903017	-0.000123
C32	C	0.045849	-0.932971	-0.000111
C33	C	0.048168	-1.063959	-0.000075
C34	C	0.277904	-1.084522	-0.000099
C35	C	0.352940	-1.004055	-0.000122
C36	C	0.350622	-0.873064	-0.000147
C37	C	0.273268	-0.822541	-0.000149
N38	N	0.123192	-1.483488	-0.346765
C39	C	0.066800	-1.568887	0.423211
C40	C	0.066789	-1.568883	0.576548
C41	C	0.179602	-1.398083	0.576578
C42	C	0.179607	-1.398081	0.423244
C43	C	0.010399	-1.654296	0.346532
C44	C	-0.046012	-1.739700	0.423179
C45	C	-0.046022	-1.739697	0.576516
C46	C	0.010379	-1.654289	0.653206
H47	H	-0.432806	-1.289082	-0.100393
N48	N	-0.033153	-0.881345	-0.000109
N49	N	-0.035212	-0.764390	-0.000140
H50	H	-0.091009	-0.727928	-0.000141
H51	H	-0.306783	-1.503258	-0.242650
N52	N	0.270894	-0.688738	-0.000124
N53	N	0.303871	-0.623578	0.102562
H54	H	0.302193	-0.529081	0.102584
H55	H	-0.433864	-1.289324	0.098560
H56	H	-0.091960	-1.809228	0.638920
N57	N	0.237216	-1.310855	0.344920
N58	N	0.210164	-1.232914	0.259360
H59	H	0.250849	-1.171305	0.204041
H60	H	0.279800	-1.191179	-0.000085
N61	N	-0.028480	-1.146144	-0.000035
N62	N	-0.097538	-1.101029	-0.000038
H63	H	-0.151673	-1.159071	0.000000
N64	N	0.237204	-1.310853	0.654932
N65	N	0.237190	-1.310868	0.791836
H66	H	0.277873	-1.249262	0.847176
N67	N	-0.103637	-1.826876	0.344798
N68	N	-0.155829	-1.786973	0.259231
H69	H	-0.196530	-1.848526	0.203857
N70	N	-0.281990	-1.279649	-0.125181
N71	N	-0.328799	-1.230871	-0.213497
H72	H	-0.303902	-1.183690	-0.301843
N73	N	0.010412	-1.654272	0.189904
N74	N	0.060778	-1.578011	0.121484
H75	H	0.060789	-1.577992	0.010865
H76	H	-0.289694	-1.292844	0.099796
N77	N	-0.453652	-1.488009	0.269565
N78	N	-0.398560	-1.447609	0.359891
H79	H	-0.415017	-1.403848	0.452030
N80	N	-0.313713	-1.680154	-0.150305
N81	N	-0.268891	-1.723765	-0.054651
H82	H	-0.254741	-1.813729	-0.062100
H83	H	-0.318967	-1.655720	0.144153
N84	N	-0.470056	-1.676438	0.147032
N85	N	-0.426362	-1.766966	0.152468
H86	H	-0.454405	-1.856285	0.158075
H87	H	-0.305577	-1.506376	0.242515
H88	H	-0.451490	-1.507914	-0.243339
H89	H	0.010361	-1.654285	0.778063
N90	N	0.427257	-0.790850	-0.000166
N91	N	0.425179	-0.673899	-0.000186
H92	H	0.479304	-0.615835	-0.000201
H93	H	-0.461861	-1.654048	-0.138855
N94	N	0.431943	-1.055678	-0.000097
N95	N	0.434004	-1.172632	-0.000069
H96	H	0.489802	-1.209091	-0.000048
