data_functionalizedCrystal
_audit_creation_method	'MofGen! by Chris Wilmer'
_symmetry_space_group_name_H-M	'P1'
_symmetry_Int_Tables_number	1
_symmetry_cell_setting	triclinic
loop_
_symmetry_equiv_pos_as_xyz
  x,y,z
_cell_length_a	12.594517
_cell_length_b	21.295417
_cell_length_c	12.594509
_cell_angle_alpha	89.965303
_cell_angle_beta	89.978379
_cell_angle_gamma	90.030306
loop_
_atom_site_label
_atom_site_type_symbol
_atom_site_fract_x
_atom_site_fract_y
_atom_site_fract_z
Zn1	Zn	1.627163	-0.250603	-0.601801
Zn2	Zn	2.127163	0.249397	-0.101801
Zn3	Zn	1.627008	-0.355879	-0.423797
Zn4	Zn	2.127008	0.144121	0.076203
Zn5	Zn	1.449166	-0.250627	-0.423830
Zn6	Zn	1.949166	0.249373	0.076170
Zn7	Zn	1.449104	-0.355838	-0.601727
Zn8	Zn	1.949104	0.144162	-0.101727
O9	O	1.538110	-0.303237	-0.512789
O10	O	2.038110	0.196763	-0.012789
O11	O	1.776088	-0.264575	-0.578205
O12	O	2.276088	0.235425	-0.078205
O13	O	1.603378	-0.341944	-0.274856
O14	O	2.103378	0.158056	0.225144
O15	O	1.472868	-0.162535	-0.447482
O16	O	1.972868	0.337465	0.052518
O17	O	1.775974	-0.341921	-0.447427
O18	O	2.275974	0.158079	0.052573
O19	O	1.603642	-0.162517	-0.578237
O20	O	2.103642	0.337483	-0.078237
O21	O	1.472718	-0.264616	-0.274879
O22	O	1.972718	0.235384	0.225121
O23	O	1.300212	-0.264577	-0.447411
O24	O	1.800212	0.235423	0.052589
O25	O	1.472763	-0.341851	-0.750683
O26	O	1.972763	0.158149	-0.250683
O27	O	1.300167	-0.341875	-0.578112
O28	O	1.800167	0.158125	-0.078112
O29	O	1.603582	-0.264536	-0.750737
O30	O	2.103582	0.235464	-0.250737
O31	O	1.603318	-0.443963	-0.447356
O32	O	2.103318	0.056037	0.052644
O33	O	1.472613	-0.443933	-0.578080
O34	O	1.972613	0.056067	-0.078080
C35	C	1.261569	-0.303224	-0.512757
C36	C	1.761569	0.196776	-0.012757
C37	C	1.143264	-0.303234	-0.512769
C38	C	1.643264	0.196766	-0.012769
C39	C	1.074005	-0.261134	-0.441817
C40	C	1.574005	0.238866	0.058183
C41	C	1.003169	-0.318554	-0.415623
C42	C	1.503169	0.181446	0.084377
C43	C	1.003301	-0.245842	-0.538981
C44	C	1.503301	0.254158	-0.038981
C45	C	1.073987	-0.360684	-0.486525
C46	C	1.573987	0.139316	0.013475
C47	C	1.074124	-0.287934	-0.609928
C48	C	1.574124	0.212066	-0.109928
C49	C	1.003321	-0.345393	-0.583771
C50	C	1.503321	0.154607	-0.083771
C51	C	1.537971	-0.466789	-0.512730
C52	C	2.037971	0.033211	-0.012730
C53	C	1.538009	-0.536757	-0.512740
C54	C	2.038009	-0.036757	-0.012740
C55	C	1.606127	-0.569618	-0.444742
C56	C	2.106127	-0.069618	0.055258
C57	C	1.606177	-0.635361	-0.444766
C58	C	2.106177	-0.135361	0.055234
C59	C	1.538089	-0.668239	-0.512777
C60	C	2.038089	-0.168239	-0.012777
C61	C	1.469966	-0.635370	-0.580789
C62	C	1.969966	-0.135370	-0.080789
C63	C	1.469926	-0.569629	-0.580770
C64	C	1.969926	-0.069629	-0.080770
N65	N	1.444979	-0.771504	-0.520881
N66	N	1.944979	-0.271504	-0.020881
N67	N	1.445020	-0.833956	-0.520892
N68	N	1.945020	-0.333956	-0.020892
C69	C	1.538209	-0.866314	-0.512838
C70	C	2.038209	-0.366314	-0.012838
N71	N	1.631356	-0.833861	-0.504752
N72	N	2.131356	-0.333861	-0.004752
N73	N	1.631313	-0.771404	-0.504735
N74	N	2.131313	-0.271404	-0.004735
C75	C	1.538126	-0.739524	-0.512805
C76	C	2.038126	-0.239524	-0.012805
C77	C	1.606387	-0.970461	-0.444862
C78	C	2.106387	-0.470461	0.055138
C79	C	1.606439	-1.036204	-0.444893
C80	C	2.106439	-0.536204	0.055107
C81	C	1.470218	-1.036212	-0.580910
C82	C	1.970218	-0.536212	-0.080910
C83	C	1.470176	-0.970470	-0.580885
C84	C	1.970176	-0.470470	-0.080885
C85	C	1.538259	-0.937598	-0.512855
C86	C	2.038259	-0.437598	-0.012855
C87	C	1.815731	-0.303250	-0.512821
C88	C	2.315731	0.196750	-0.012821
C89	C	1.934037	-0.303256	-0.512835
C90	C	2.434037	0.196744	-0.012835
C91	C	1.538183	-0.303186	-0.790410
C92	C	2.038183	0.196814	-0.290410
C93	C	1.538214	-0.303165	-0.908715
C94	C	2.038214	0.196835	-0.408715
C95	C	1.538279	-0.139047	-0.512871
C96	C	2.038279	0.360953	-0.012871
C97	C	1.538352	-0.069078	-0.512906
C98	C	2.038352	0.430922	-0.012906
C99	C	1.467106	-0.345164	-1.048703
C100	C	1.967106	0.154836	-0.548703
C101	C	1.441108	-0.287758	-0.977915
C102	C	1.941108	0.212242	-0.477915
C103	C	1.564165	-0.360565	-0.977932
C104	C	2.064165	0.139435	-0.477932
C105	C	1.512226	-0.245649	-1.048713
C106	C	2.012226	0.254351	-0.548713
C107	C	1.635328	-0.318495	-1.048736
C108	C	2.135328	0.181505	-0.548736
C109	C	1.609367	-0.261049	-0.977980
C110	C	2.109367	0.238951	-0.477980
C111	C	1.538099	-0.303242	-0.236248
C112	C	2.038099	0.196758	0.263752
C113	C	1.538275	-0.303086	-0.117943
C114	C	2.038275	0.196914	0.382057
H115	H	1.104907	-0.409243	-0.464291
H116	H	1.604907	0.090757	0.035709
F117	F	1.388418	-0.391572	-1.089297
F118	F	1.888418	0.108428	-0.589297
F119	F	1.114891	-0.270980	-0.717258
F120	F	1.614891	0.229020	-0.217258
H121	H	0.972004	-0.331509	-0.333486
H122	H	1.472004	0.168491	0.166514
F123	F	0.962708	-0.182393	-0.567922
F124	F	1.462708	0.317607	-0.067922
F125	F	1.397669	-0.935495	-0.653255
F126	F	1.897669	-0.435495	-0.153255
F127	F	1.742611	-0.335514	-1.089432
F128	F	2.242611	0.164486	-0.589432
F129	F	1.678599	-0.534637	-0.372350
F130	F	2.178599	-0.034637	0.127650
F131	F	1.678951	-1.071178	-0.372523
F132	F	2.178951	-0.571178	0.127477
H133	H	1.414784	-1.062982	-0.636291
H134	H	1.914784	-0.562982	-0.136291
F135	F	1.678680	-0.670341	-0.372389
F136	F	2.178680	-0.170341	0.127611
F137	F	1.592815	-0.424056	-0.937282
F138	F	2.092815	0.075944	-0.437282
H139	H	1.414530	-0.662144	-0.636166
H140	H	1.914530	-0.162144	-0.136166
F141	F	1.397421	-0.534654	-0.653147
F142	F	1.897421	-0.034654	-0.153147
H143	H	1.661828	-0.943695	-0.389471
H144	H	2.161828	-0.443695	0.110529
H145	H	1.359006	-0.274754	-0.946806
H146	H	1.859006	0.225246	-0.446806
F147	F	1.483447	-0.182138	-1.089177
F148	F	1.983447	0.317862	-0.589177
H149	H	1.669526	-0.225458	-0.947124
H150	H	2.169526	0.274542	-0.447124
F151	F	0.963007	-0.391992	-0.662236
F152	F	1.463007	0.108008	-0.162236
H153	H	1.105040	-0.225567	-0.381741
H154	H	1.605040	0.274433	0.118259
