data_functionalizedCrystal
_audit_creation_method	'MofGen! by Chris Wilmer'
_symmetry_space_group_name_H-M	'P1'
_symmetry_Int_Tables_number	1
_symmetry_cell_setting	triclinic
loop_
_symmetry_equiv_pos_as_xyz
  x,y,z
_cell_length_a	17.019383
_cell_length_b	17.038272
_cell_length_c	16.098538
_cell_angle_alpha	87.079695
_cell_angle_beta	83.394151
_cell_angle_gamma	92.753117
loop_
_atom_site_label
_atom_site_type_symbol
_atom_site_fract_x
_atom_site_fract_y
_atom_site_fract_z
O1	O	1.060268	-0.092325	-0.145222
O2	O	1.393602	0.241008	0.188111
O3	O	1.726935	0.574342	0.521445
O4	O	0.830675	-0.105844	-0.128774
O5	O	1.164008	0.227490	0.204559
O6	O	1.497341	0.560823	0.537892
O7	O	0.944107	0.014725	-0.136894
O8	O	1.277440	0.348058	0.196440
O9	O	1.610773	0.681391	0.529773
O10	O	0.946836	-0.212893	-0.137103
O11	O	1.280170	0.120440	0.196231
O12	O	1.613503	0.453773	0.529564
O13	O	0.937479	0.007709	0.002094
O14	O	1.270812	0.341042	0.335427
O15	O	1.604145	0.674376	0.668760
O16	O	0.824047	-0.112859	0.010213
O17	O	1.157380	0.220474	0.343547
O18	O	1.490713	0.553807	0.676880
O19	O	1.053640	-0.099340	-0.006235
O20	O	1.386974	0.233993	0.327099
O21	O	1.720307	0.567326	0.660432
Zn22	Zn	0.937791	-0.107214	0.024056
Zn23	Zn	1.271124	0.226120	0.357390
Zn24	Zn	1.604458	0.559453	0.690723
Zn25	Zn	0.946524	-0.097970	-0.159065
Zn26	Zn	1.279857	0.235363	0.174268
Zn27	Zn	1.613190	0.568696	0.507601
O28	O	0.940208	-0.219909	0.001885
O29	O	1.273542	0.113424	0.335218
O30	O	1.606875	0.446758	0.668552
C31	C	0.797839	-0.108975	-0.057166
C32	C	1.131172	0.224358	0.276168
C33	C	1.464505	0.557692	0.609501
C34	C	0.709872	-0.107844	-0.050864
C35	C	1.043206	0.225489	0.282470
C36	C	1.376539	0.558822	0.615803
C37	C	0.672151	-0.103491	-0.123659
C38	C	1.005484	0.229842	0.209675
C39	C	1.338818	0.563176	0.543008
C40	C	0.589496	-0.102441	-0.117725
C41	C	0.922829	0.230892	0.215608
C42	C	1.256162	0.564225	0.548942
C43	C	0.544564	-0.105740	-0.038995
C44	C	0.877897	0.227594	0.294338
C45	C	1.211230	0.560927	0.627671
C46	C	0.582290	-0.110096	0.033805
C47	C	0.915624	0.223238	0.367139
C48	C	1.248957	0.556571	0.700472
C49	C	0.664944	-0.111151	0.027871
C50	C	0.998277	0.222183	0.361204
C51	C	1.331610	0.555516	0.694537
C52	C	0.294823	-0.102751	-0.017287
C53	C	0.628156	0.230583	0.316047
C54	C	0.961490	0.563916	0.649380
C55	C	0.212164	-0.101693	-0.011358
C56	C	0.545498	0.231640	0.321976
C57	C	0.878831	0.564974	0.655309
C58	C	0.219375	-0.094040	-0.162889
C59	C	0.552709	0.239293	0.170445
C60	C	0.886042	0.572627	0.503778
C61	C	0.302030	-0.095091	-0.168816
C62	C	0.635364	0.238243	0.164517
C63	C	0.968697	0.571576	0.497851
C64	C	0.339749	-0.099451	-0.096016
C65	C	0.673083	0.233882	0.237318
C66	C	1.006416	0.567216	0.570651
C67	C	0.460077	-0.104665	-0.032928
C68	C	0.793410	0.228669	0.300405
C69	C	1.126743	0.562002	0.633738
C70	C	0.424235	-0.100532	-0.102083
C71	C	0.757568	0.232802	0.231250
C72	C	1.090901	0.566135	0.564583
C73	C	0.938310	0.040334	-0.067222
C74	C	1.271644	0.373668	0.266111
C75	C	1.604977	0.707001	0.599444
C76	C	0.930905	0.127094	-0.066692
C77	C	1.264238	0.460428	0.266641
C78	C	1.597572	0.793761	0.599975
C79	C	1.086476	-0.096209	-0.077845
C80	C	1.419810	0.237124	0.255488
C81	C	1.753143	0.570458	0.588821
C82	C	1.174443	-0.097340	-0.084153
C83	C	1.507776	0.235994	0.249181
C84	C	1.841110	0.569327	0.582514
C85	C	0.946005	-0.245518	-0.067788
C86	C	1.279338	0.087815	0.265545
C87	C	1.612671	0.421148	0.598878
C88	C	0.953410	-0.332278	-0.068324
C89	C	1.286744	0.001055	0.265009
C90	C	1.620077	0.334388	0.598342
N91	N	0.931837	-0.113521	0.149032
N92	N	1.265170	0.219812	0.482365
N93	N	1.598504	0.553145	0.815699
C94	C	0.998896	0.177509	-0.071562
C95	C	1.332230	0.510842	0.261771
C96	C	1.665563	0.844176	0.595105
C97	C	0.991934	0.259029	-0.071071
C98	C	1.325267	0.592362	0.262262
C99	C	1.658600	0.925696	0.595596
C100	C	0.916979	0.290133	-0.065704
C101	C	1.250312	0.623466	0.267629
C102	C	1.583645	0.956800	0.600962
C103	C	0.848982	0.239712	-0.060836
C104	C	1.182316	0.573045	0.272497
C105	C	1.515649	0.906379	0.605830
C106	C	0.855946	0.158194	-0.061333
C107	C	1.189279	0.491527	0.272000
C108	C	1.522613	0.824860	0.605333
C109	C	0.892378	0.535783	-0.063953
C110	C	1.225711	0.869116	0.269380
C111	C	1.559044	1.202449	0.602713
C112	C	0.885419	0.617307	-0.063454
C113	C	1.218752	0.950641	0.269879
C114	C	1.552086	1.283974	0.603212
C115	C	1.028371	0.636619	-0.073691
C116	C	1.361704	0.969952	0.259643
C117	C	1.695038	1.303286	0.592976
C118	C	1.035328	0.555098	-0.074182
C119	C	1.368661	0.888431	0.259151
C120	C	1.701995	1.221765	0.592485
C121	C	0.967332	0.504684	-0.069319
C122	C	1.300665	0.838018	0.264015
C123	C	1.633998	1.171351	0.597348
C124	C	0.909860	0.373459	-0.065200
C125	C	1.243193	0.706793	0.268134
C126	C	1.576527	1.040126	0.601467
C127	C	0.974452	0.421360	-0.069829
C128	C	1.307785	0.754693	0.263504
C129	C	1.641118	1.088027	0.596838
N130	N	0.952484	-0.091656	-0.284041
N131	N	1.285817	0.241677	0.049292
N132	N	1.619150	0.575010	0.382625
C133	C	0.980002	-0.062365	0.189169
C134	C	1.313336	0.270968	0.522503
C135	C	1.646669	0.604301	0.855836
C136	C	0.975845	-0.066785	0.276656
C137	C	1.309178	0.266548	0.609989
C138	C	1.642512	0.599881	0.943322
C139	C	0.923526	-0.122366	0.324003
C140	C	1.256859	0.210968	0.657336
C141	C	1.590193	0.544301	0.990670
C142	C	0.875355	-0.173524	0.283860
C143	C	1.208689	0.159809	0.617193
C144	C	1.542022	0.493143	0.950527
C145	C	0.879509	-0.169100	0.196375
C146	C	1.212843	0.164233	0.529709
C147	C	1.546176	0.497567	0.863042
C148	C	0.908467	-0.138391	0.588331
C149	C	1.241800	0.194943	0.921664
C150	C	1.575134	0.528276	1.254998
C151	C	0.904319	-0.142813	0.675821
C152	C	1.237652	0.190521	1.009155
C153	C	1.570985	0.523854	1.342488
C154	C	1.004807	-0.036072	0.668611
C155	C	1.338141	0.297261	1.001945
C156	C	1.671474	0.630594	1.335278
C157	C	1.008960	-0.031656	0.581125
C158	C	1.342293	0.301677	0.914458
C159	C	1.675627	0.635011	1.247792
C160	C	0.960787	-0.082812	0.540990
C161	C	1.294120	0.250522	0.874323
C162	C	1.627453	0.583855	1.207656
C163	C	0.919277	-0.126887	0.413428
C164	C	1.252610	0.206447	0.746762
C165	C	1.585944	0.539780	1.080095
C166	C	0.965032	-0.078287	0.451566
C167	C	1.298365	0.255047	0.784900
C168	C	1.631699	0.588380	1.118233
H169	H	0.338609	-0.092399	-0.232926
H170	H	0.671942	0.240934	0.100407
H171	H	1.005276	0.574267	0.433741
Cl172	Cl	1.074734	0.038216	0.521602
Cl173	Cl	1.408067	0.371549	0.854936
Cl174	Cl	1.741401	0.704883	1.188269
H175	H	0.188655	-0.090492	-0.222158
H176	H	0.521988	0.242841	0.111175
H177	H	0.855322	0.576174	0.444508
Cl178	Cl	0.403584	-0.108809	0.066043
Cl179	Cl	0.736918	0.224524	0.399377
Cl180	Cl	1.070251	0.557857	0.732710
Cl181	Cl	1.065362	0.028237	0.719071
Cl182	Cl	1.398695	0.361570	1.052404
Cl183	Cl	1.732028	0.694903	1.385738
H184	H	0.824378	0.642627	-0.059070
H185	H	1.157711	0.975961	0.274263
H186	H	1.491045	1.309294	0.607597
Cl187	Cl	0.754753	0.278814	-0.054100
Cl188	Cl	1.088086	0.612148	0.279234
Cl189	Cl	1.421420	0.945481	0.612567
H190	H	0.832752	-0.218776	0.322416
H191	H	1.166085	0.114557	0.655749
H192	H	1.499419	0.447890	0.989082
H193	H	1.059932	0.152191	-0.075927
H194	H	1.393266	0.485524	0.257406
H195	H	1.726599	0.818858	0.590739
Cl196	Cl	1.113846	0.700000	-0.079807
Cl197	Cl	1.447180	1.033333	0.253527
Cl198	Cl	1.780513	1.366666	0.586860
H199	H	0.460821	-0.097851	-0.166185
H200	H	0.794155	0.235483	0.167149
H201	H	1.127488	0.568816	0.500482
H202	H	1.047300	0.300074	-0.075035
H203	H	1.380633	0.633407	0.258298
H204	H	1.713966	0.966741	0.591632
H205	H	1.022609	-0.017109	0.150624
H206	H	1.355943	0.316224	0.483957
H207	H	1.689276	0.649557	0.817291
H208	H	0.876679	-0.172143	0.451986
H209	H	1.210013	0.161191	0.785319
H210	H	1.543346	0.494524	1.118652
Cl211	Cl	0.712365	-0.116627	0.119389
Cl212	Cl	1.045698	0.216706	0.452722
Cl213	Cl	1.379031	0.550039	0.786055
Cl214	Cl	1.129562	0.516004	-0.080956
Cl215	Cl	1.462896	0.849337	0.252377
Cl216	Cl	1.796229	1.182671	0.585710
H217	H	0.175581	-0.104401	0.052757
H218	H	0.508914	0.228932	0.386090
H219	H	0.842248	0.562266	0.719423
H220	H	0.837010	0.494745	-0.059993
H221	H	1.170343	0.828079	0.273340
H222	H	1.503677	1.161412	0.606674
H223	H	0.861712	-0.188076	0.714368
H224	H	1.195045	0.145257	1.047702
H225	H	1.528379	0.478591	1.381035
H226	H	0.325524	-0.106296	0.041993
H227	H	0.658858	0.227038	0.375326
H228	H	0.992191	0.560371	0.708660
Cl229	Cl	1.036396	-0.002473	0.327116
Cl230	Cl	1.369729	0.330860	0.660449
Cl231	Cl	1.703062	0.664194	0.993782
H232	H	0.800580	0.117146	-0.057368
H233	H	1.133913	0.450480	0.275965
H234	H	1.467247	0.783813	0.609299
H235	H	0.840287	-0.210756	0.163697
H236	H	1.173620	0.122578	0.497030
H237	H	1.506954	0.455911	0.830363
H238	H	1.007627	-0.033030	0.413014
H239	H	1.340960	0.300303	0.746347
H240	H	1.674294	0.633637	1.079680
H241	H	0.545700	-0.112786	0.097909
H242	H	0.879033	0.220547	0.431242
H243	H	1.212366	0.553881	0.764575
H244	H	1.035481	0.396033	-0.074217
H245	H	1.368814	0.729366	0.259116
H246	H	1.702147	1.062699	0.592449
H247	H	0.869244	-0.180045	0.555660
H248	H	1.202577	0.153288	0.888993
H249	H	1.535910	0.486622	1.222326
Cl250	Cl	0.542078	-0.096969	-0.209244
Cl251	Cl	0.875411	0.236364	0.124090
Cl252	Cl	1.208745	0.569697	0.457423
Cl253	Cl	0.728629	-0.099339	-0.222638
Cl254	Cl	1.061963	0.233994	0.110695
Cl255	Cl	1.395296	0.567328	0.444028
Cl256	Cl	0.815633	0.412568	-0.058457
Cl257	Cl	1.148967	0.745902	0.274876
Cl258	Cl	1.482300	1.079235	0.608209
