data_functionalizedCrystal
_audit_creation_method	'MofGen! by Chris Wilmer'
_symmetry_space_group_name_H-M	'P1'
_symmetry_Int_Tables_number	1
_symmetry_cell_setting	triclinic
loop_
_symmetry_equiv_pos_as_xyz
  x,y,z
_cell_length_a	29.839135
_cell_length_b	29.839131
_cell_length_c	16.120297
_cell_angle_alpha	92.867727
_cell_angle_beta	92.874904
_cell_angle_gamma	90.043950
loop_
_atom_site_label
_atom_site_type_symbol
_atom_site_fract_x
_atom_site_fract_y
_atom_site_fract_z
Zn1	Zn	0.673867	-0.191716	-0.471434
Zn2	Zn	0.677600	-0.263034	-0.332016
Zn3	Zn	0.602550	-0.187923	-0.332031
Zn4	Zn	0.598699	-0.266822	-0.471372
O5	O	0.638179	-0.227374	-0.401713
O6	O	0.737229	-0.201179	-0.452959
O7	O	0.670819	-0.249898	-0.215355
O8	O	0.612060	-0.125560	-0.350555
O9	O	0.739972	-0.253576	-0.350529
O10	O	0.664456	-0.128347	-0.452974
O11	O	0.615680	-0.194713	-0.215366
O12	O	0.539173	-0.198386	-0.350495
O13	O	0.605497	-0.260032	-0.588043
O14	O	0.536344	-0.256353	-0.452869
O15	O	0.660722	-0.204852	-0.588088
O16	O	0.667084	-0.326403	-0.350469
O17	O	0.609116	-0.329186	-0.452854
C18	C	0.521458	-0.227369	-0.401678
C19	C	0.471523	-0.227379	-0.401682
C20	C	0.160446	-0.200136	-0.455127
C21	C	-0.027228	-0.200140	-0.455151
O22	O	-0.052711	-0.176966	-0.500552
N23	N	-0.049264	-0.227375	-0.401744
C24	C	-0.024378	-0.254609	-0.348323
O25	O	-0.047426	-0.277770	-0.302892
C26	C	0.163295	-0.254602	-0.348296
C27	C	0.185328	-0.227369	-0.401712
C28	C	0.182479	-0.172905	-0.508539
C29	C	0.229394	-0.172906	-0.508535
C30	C	0.254277	-0.200139	-0.455121
C31	C	0.232244	-0.227370	-0.401709
C32	C	0.188180	-0.281833	-0.294872
C33	C	0.235101	-0.281828	-0.294868
C34	C	0.257134	-0.254595	-0.348284
C35	C	0.304042	-0.254604	-0.348291
N36	N	0.326077	-0.227369	-0.401698
C37	C	0.301195	-0.200137	-0.455113
C38	C	-0.122909	-0.254611	-0.348342
C39	C	-0.169827	-0.254613	-0.348350
C40	C	-0.172674	-0.200144	-0.455177
C41	C	-0.125755	-0.200144	-0.455173
C42	C	-0.100873	-0.227376	-0.401749
C43	C	0.399721	-0.200141	-0.455102
C44	C	0.446641	-0.200146	-0.455097
C45	C	0.449484	-0.254614	-0.348267
C46	C	0.402568	-0.254611	-0.348276
C47	C	0.377688	-0.227371	-0.401696
O48	O	0.329553	-0.277762	-0.302907
O49	O	0.324252	-0.176971	-0.500524
C50	C	0.113530	-0.200135	-0.455130
C51	C	0.091497	-0.227367	-0.401719
C52	C	0.116379	-0.254599	-0.348304
C53	C	0.044579	-0.227369	-0.401727
C54	C	0.019697	-0.200136	-0.455141
C55	C	0.041732	-0.172902	-0.508548
C56	C	0.088648	-0.172903	-0.508545
C57	C	0.094344	-0.281834	-0.294897
C58	C	0.047428	-0.281831	-0.294905
C59	C	0.022546	-0.254599	-0.348320
C60	C	0.638099	-0.344095	-0.401672
C61	C	0.638105	-0.394030	-0.401682
C62	C	0.668413	-0.702215	-0.348479
C63	C	0.668468	-0.889889	-0.348512
O64	O	0.694173	-0.912912	-0.303245
N65	N	0.638271	-0.914818	-0.401776
C66	C	0.608060	-0.892825	-0.455040
O67	O	0.582379	-0.918335	-0.500351
C68	C	0.608008	-0.705152	-0.455011
C69	C	0.638204	-0.680226	-0.401737
C70	C	0.698607	-0.677288	-0.295210
C71	C	0.698592	-0.630372	-0.295200
C72	C	0.668382	-0.608383	-0.348458
C73	C	0.638188	-0.633310	-0.401727
C74	C	0.577799	-0.683161	-0.508279
C75	C	0.577789	-0.636240	-0.508268
C76	C	0.607986	-0.611313	-0.454995
C77	C	0.607963	-0.564405	-0.454974
N78	N	0.638160	-0.539476	-0.401710
C79	C	0.668370	-0.561465	-0.348451
C80	C	0.608089	-0.991356	-0.455050
C81	C	0.608101	-1.038274	-0.455056
C82	C	0.668510	-1.035334	-0.348529
C83	C	0.668495	-0.988415	-0.348519
C84	C	0.638286	-0.966427	-0.401786
C85	C	0.668335	-0.462939	-0.348432
C86	C	0.668315	-0.416019	-0.348424
C87	C	0.607908	-0.418963	-0.454954
C88	C	0.607926	-0.465879	-0.454960
C89	C	0.638143	-0.487865	-0.401696
O90	O	0.582274	-0.541352	-0.500224
O91	O	0.694053	-0.535948	-0.303160
C92	C	0.668429	-0.749130	-0.348490
C93	C	0.638235	-0.774057	-0.401759
C94	C	0.608025	-0.752068	-0.455017
C95	C	0.638247	-0.820975	-0.401765
C96	C	0.668457	-0.842964	-0.348507
C97	C	0.698654	-0.818035	-0.295243
C98	C	0.698639	-0.771119	-0.295232
C99	C	0.577828	-0.776997	-0.508281
C100	C	0.577846	-0.823913	-0.508287
C101	C	0.608055	-0.845902	-0.455029
C102	C	0.755357	-0.227379	-0.401749
C103	C	0.805291	-0.227381	-0.401765
C104	C	0.632263	-0.233288	-0.619160
C105	C	0.629742	-0.235808	-0.711823
C106	C	0.638271	-0.110197	-0.401773
C107	C	0.638311	-0.060263	-0.401798
C108	C	0.625123	-0.240399	-0.881480
C109	C	0.651324	-0.214214	-0.922798
C110	C	0.648754	-0.216768	-1.017201
C111	C	0.627693	-0.237845	-0.787069
C112	C	0.644098	-0.221450	-0.185112
C113	C	0.646706	-0.218804	-0.092449
H114	H	0.162224	-0.150727	-0.552036
C115	C	0.592599	-0.272865	-0.928691
C116	C	0.568922	-0.296518	-0.872020
C117	C	0.538955	-0.326426	-0.915490
H118	H	0.608816	-0.293378	-0.962666
H119	H	0.572107	-0.256591	-0.962637
H120	H	0.589411	-0.312791	-0.838088
H121	H	0.552696	-0.276017	-0.838043
H122	H	0.518464	-0.310152	-0.949437
H123	H	0.555176	-0.346936	-0.949464
H124	H	0.522884	-0.342475	-0.877046
C125	C	0.023593	-0.311416	-0.236814
C126	C	0.055433	-0.335254	-0.190022
C127	C	0.033495	-0.362502	-0.136489
H128	H	0.004412	-0.331922	-0.268537
H129	H	0.006300	-0.293221	-0.200503
H130	H	0.072719	-0.353448	-0.226329
H131	H	0.074615	-0.314759	-0.158282
H132	H	0.016202	-0.344307	-0.100178
H133	H	0.014315	-0.383006	-0.168219
H134	H	0.055095	-0.378676	-0.104729
C135	C	0.470480	-0.170528	-0.513125
C136	C	0.438643	-0.146670	-0.559885
C137	C	0.460585	-0.119377	-0.613338
H138	H	0.487786	-0.188681	-0.549466
H139	H	0.489650	-0.150037	-0.481319
H140	H	0.419481	-0.167158	-0.591689
H141	H	0.421336	-0.128508	-0.523566
H142	H	0.479755	-0.098886	-0.581532
H143	H	0.477891	-0.137534	-0.649673
H144	H	0.438988	-0.103183	-0.645066
C145	C	0.121408	-0.311436	-0.237039
C146	C	0.147050	-0.341546	-0.284144
C147	C	0.171989	-0.368823	-0.230874
H148	H	0.101612	-0.327696	-0.205218
H149	H	0.140734	-0.293252	-0.200778
H150	H	0.127727	-0.359728	-0.320390
H151	H	0.166854	-0.325298	-0.315963
H152	H	0.191315	-0.350639	-0.194613
H153	H	0.152191	-0.385080	-0.199056
H154	H	0.189394	-0.389253	-0.262826
C155	C	0.575121	-0.492866	-0.512888
C156	C	0.548668	-0.463565	-0.559539
C157	C	0.518452	-0.488406	-0.612927
H158	H	0.556393	-0.510337	-0.481066
H159	H	0.591299	-0.512119	-0.549294
H160	H	0.532492	-0.444320	-0.523138
H161	H	0.567385	-0.446094	-0.591378
H162	H	0.534630	-0.507659	-0.649333
H163	H	0.499726	-0.505876	-0.581098
H164	H	0.500503	-0.468529	-0.644592
C165	C	0.683755	-0.181688	-0.875490
C166	C	0.673438	-0.137798	-0.896593
C167	C	0.703300	-0.107824	-0.853021
H168	H	0.713571	-0.188583	-0.889695
H169	H	0.681188	-0.184228	-0.817406
H170	H	0.676010	-0.135260	-0.954664
H171	H	0.643628	-0.130889	-0.882386
H172	H	0.700732	-0.110364	-0.794938
H173	H	0.733114	-0.114724	-0.867230
H174	H	0.696301	-0.078041	-0.867328
C175	C	0.372653	-0.170644	-0.513154
C176	C	0.344246	-0.197576	-0.566492
C177	C	0.319301	-0.170422	-0.619977
H178	H	0.392447	-0.154421	-0.545040
H179	H	0.355201	-0.150182	-0.481362
H180	H	0.361697	-0.218030	-0.598281
H181	H	0.324444	-0.213799	-0.534629
H182	H	0.301848	-0.149959	-0.588185
H183	H	0.339097	-0.154200	-0.651858
H184	H	0.300020	-0.188691	-0.656168
H185	H	0.693083	-0.968122	-0.305139
C186	C	0.253230	-0.143284	-0.566553
C187	C	0.221390	-0.119427	-0.613307
C188	C	0.243328	-0.092126	-0.666752
H189	H	0.270539	-0.161431	-0.602898
H190	H	0.272397	-0.122792	-0.534741
H191	H	0.202231	-0.139916	-0.645116
H192	H	0.204079	-0.101271	-0.576984
H193	H	0.262494	-0.071635	-0.634941
H194	H	0.260636	-0.110277	-0.703091
H195	H	0.221728	-0.075934	-0.698476
C196	C	0.731330	-0.603233	-0.237396
C197	C	0.724852	-0.557435	-0.248761
C198	C	0.755001	-0.532424	-0.195518
H199	H	0.761197	-0.611169	-0.249605
H200	H	0.726303	-0.609392	-0.181354
H201	H	0.729883	-0.551278	-0.304791
H202	H	0.694992	-0.549485	-0.236547
H203	H	0.749974	-0.538583	-0.139476
H204	H	0.784866	-0.540364	-0.207731
H205	H	0.750607	-0.501347	-0.203217
H206	H	0.692941	-0.480835	-0.305062
C207	C	-0.101918	-0.170527	-0.513197
C208	C	-0.133756	-0.146673	-0.559961
C209	C	-0.111817	-0.119379	-0.613414
H210	H	-0.084609	-0.188679	-0.549535
H211	H	-0.082750	-0.150033	-0.481391
H212	H	-0.152916	-0.167164	-0.591764
H213	H	-0.151067	-0.128513	-0.523645
H214	H	-0.092649	-0.098886	-0.581609
H215	H	-0.094508	-0.137535	-0.649747
H216	H	-0.133415	-0.103189	-0.645145
H217	H	-0.192941	-0.177970	-0.498670
C218	C	0.575262	-0.967425	-0.512746
C219	C	0.547773	-0.939236	-0.465488
C220	C	0.517531	-0.917181	-0.518605
H221	H	0.557238	-0.988944	-0.544483
H222	H	0.591422	-0.950060	-0.549091
H223	H	0.531615	-0.956599	-0.429157
H224	H	0.565785	-0.917709	-0.433753
H225	H	0.533691	-0.899816	-0.554951
H226	H	0.499510	-0.938702	-0.550340
H227	H	0.498879	-0.898048	-0.486549
C228	C	-0.095978	-0.284230	-0.290308
C229	C	-0.125324	-0.308088	-0.243562
C230	C	-0.100535	-0.335383	-0.190103
H231	H	-0.076677	-0.266079	-0.253959
H232	H	-0.078561	-0.304721	-0.322109
H233	H	-0.142734	-0.287599	-0.211763
H234	H	-0.144625	-0.326247	-0.279888
H235	H	-0.083117	-0.355874	-0.221904
H236	H	-0.081235	-0.317229	-0.153759
H237	H	-0.120442	-0.351577	-0.158384
C238	C	-0.193772	-0.284246	-0.290501
C239	C	-0.221995	-0.314372	-0.337607
C240	C	-0.244054	-0.341680	-0.284341
H241	H	-0.211117	-0.266098	-0.254218
H242	H	-0.172244	-0.300489	-0.258705
H243	H	-0.243521	-0.298131	-0.369389
H244	H	-0.204662	-0.332530	-0.373888
H245	H	-0.222525	-0.357923	-0.252545
H246	H	-0.261396	-0.323528	-0.248060
H247	H	-0.263202	-0.362126	-0.316295
H248	H	0.583310	-0.401052	-0.498314
H249	H	0.255358	-0.304004	-0.251362
C250	C	0.378727	-0.284197	-0.290198
C251	C	0.410563	-0.308040	-0.243410
C252	C	0.388621	-0.335292	-0.189887
H253	H	0.359546	-0.304699	-0.321930
H254	H	0.361433	-0.266003	-0.253885
H255	H	0.427849	-0.326232	-0.279718
H256	H	0.429746	-0.287549	-0.211662
H257	H	0.371328	-0.317098	-0.153574
H258	H	0.369441	-0.355792	-0.221625
H259	H	0.410219	-0.351470	-0.158130
H260	H	0.723227	-0.750827	-0.251851
H261	H	0.106583	-0.150726	-0.552042
C262	C	0.476585	-0.284129	-0.290305
C263	C	0.522389	-0.278287	-0.301723
C264	C	0.547369	-0.305463	-0.248329
H265	H	0.468604	-0.314672	-0.302342
H266	H	0.470445	-0.275977	-0.234297
H267	H	0.528526	-0.286443	-0.357718
H268	H	0.530383	-0.247750	-0.289679
H269	H	0.541229	-0.297310	-0.192321
H270	H	0.539385	-0.336004	-0.260371
H271	H	0.578450	-0.301499	-0.256063
H272	H	0.170249	-0.304009	-0.251373
C273	C	0.544996	-0.710138	-0.566216
C274	C	0.518551	-0.680830	-0.612867
C275	C	0.488331	-0.705664	-0.666260
H276	H	0.526262	-0.727605	-0.534397
H277	H	0.561171	-0.729394	-0.602622
H278	H	0.502377	-0.661582	-0.576466
H279	H	0.537273	-0.663362	-0.644703
H280	H	0.504506	-0.724920	-0.702666
H281	H	0.469601	-0.723130	-0.634435
H282	H	0.470388	-0.685783	-0.697925
H283	H	0.692904	-0.395725	-0.305039
C284	C	0.014652	-0.143408	-0.566590
C285	C	-0.013758	-0.170341	-0.619921
C286	C	-0.038716	-0.143187	-0.673386
H287	H	0.034437	-0.127178	-0.598482
H288	H	-0.002799	-0.122952	-0.534783
H289	H	0.003693	-0.190789	-0.651725
H290	H	-0.033551	-0.186571	-0.588052
H291	H	-0.056168	-0.122731	-0.641579
H292	H	-0.018928	-0.126958	-0.705272
H293	H	-0.057998	-0.161457	-0.709572
H294	H	0.723210	-0.695186	-0.251841
C295	C	0.701321	-1.059298	-0.290856
C296	C	0.694886	-1.105722	-0.302312
C297	C	0.725120	-1.127816	-0.249240
H298	H	0.696358	-1.050175	-0.234772
H299	H	0.731162	-1.051922	-0.303181
H300	H	0.665052	-1.113096	-0.289981
H301	H	0.699852	-1.114858	-0.358385
H302	H	0.754961	-1.120439	-0.261565
H303	H	0.720155	-1.118689	-0.193159
H304	H	0.720761	-1.159317	-0.257011
H305	H	0.553190	-0.618340	-0.551647
H306	H	0.583508	-1.058566	-0.498430
H307	H	0.723251	-0.835947	-0.251876
H308	H	0.553252	-0.844204	-0.551668
H309	H	0.553228	-0.759097	-0.551652
