data_functionalizedCrystal
_audit_creation_method	'MofGen! by Chris Wilmer'
_symmetry_space_group_name_H-M	'P1'
_symmetry_Int_Tables_number	1
_symmetry_cell_setting	triclinic
loop_
_symmetry_equiv_pos_as_xyz
  x,y,z
_cell_length_a	14.853558
_cell_length_b	15.500227
_cell_length_c	14.853567
_cell_angle_alpha	87.164088
_cell_angle_beta	83.633032
_cell_angle_gamma	92.847835
loop_
_atom_site_label
_atom_site_type_symbol
_atom_site_fract_x
_atom_site_fract_y
_atom_site_fract_z
O1	O	1.200557	0.071926	0.113485
O2	O	1.700557	0.571926	0.613485
O3	O	0.938097	0.071929	0.127515
O4	O	1.438097	0.571929	0.627515
O5	O	1.076338	0.071930	-0.010730
O6	O	1.576338	0.571930	0.489270
O7	O	1.062316	0.071925	0.251730
O8	O	1.562316	0.571925	0.751730
O9	O	1.067949	-0.071958	-0.002374
O10	O	1.567949	0.428042	0.497626
O11	O	0.929708	-0.071959	0.135871
O12	O	1.429708	0.428041	0.635871
O13	O	1.192168	-0.071962	0.121841
O14	O	1.692168	0.428038	0.621841
Cu15	Cu	1.060172	-0.085099	0.129619
Cu16	Cu	1.560172	0.414901	0.629619
Cu17	Cu	1.070093	0.085066	0.119737
Cu18	Cu	1.570093	0.585066	0.619737
O19	O	1.053927	-0.071963	0.260086
O20	O	1.553927	0.428037	0.760086
C21	C	0.900314	-0.000014	0.131059
C22	C	1.400314	0.499986	0.631059
C23	C	0.800230	-0.000013	0.129158
C24	C	1.300230	0.499987	0.629158
C25	C	0.757782	0.078424	0.123712
C26	C	1.257782	0.578424	0.623712
C27	C	0.748635	-0.078449	0.132811
C28	C	1.248635	0.421551	0.632811
C29	C	0.654601	-0.078450	0.131021
C30	C	1.154601	0.421550	0.631021
C31	C	0.612154	-0.000013	0.125575
C32	C	1.112154	0.499987	0.625575
C33	C	0.663740	0.078425	0.121919
C34	C	1.163740	0.578425	0.621919
C35	C	0.603009	-0.156887	0.134668
C36	C	1.103009	0.343113	0.634668
C37	C	0.508969	-0.156892	0.132876
C38	C	1.008969	0.343108	0.632876
C39	C	0.466520	-0.078454	0.127436
C40	C	0.966520	0.421546	0.627436
C41	C	0.518112	-0.000012	0.123781
C42	C	1.018112	0.499988	0.623781
C43	C	0.475665	0.078425	0.118335
C44	C	0.975665	0.578425	0.618335
C45	C	0.527255	0.156867	0.114686
C46	C	1.027255	0.656867	0.614686
C47	C	0.621291	0.156863	0.116479
C48	C	1.121291	0.656863	0.616479
C49	C	0.372483	-0.078450	0.125644
C50	C	0.872483	0.421550	0.625644
C51	C	0.381623	0.078426	0.116542
C52	C	0.881623	0.578426	0.616542
N53	N	1.053201	-0.204784	0.136569
N54	N	1.553201	0.295216	0.636569
C55	C	1.111799	-0.250060	0.078011
C56	C	1.611799	0.249940	0.578011
C57	C	1.106535	-0.340633	0.083276
C58	C	1.606535	0.159367	0.583276
C59	C	1.042677	-0.385928	0.147103
C60	C	1.542677	0.114072	0.647103
C61	C	0.984073	-0.340646	0.205663
C62	C	1.484073	0.159354	0.705663
C63	C	0.989333	-0.250074	0.200394
C64	C	1.489333	0.249926	0.700394
C65	C	1.023727	-0.659395	0.166071
C66	C	1.523727	-0.159395	0.666071
C67	C	1.018473	-0.749973	0.171338
C68	C	1.518473	-0.249973	0.671338
C69	C	1.140935	-0.749954	0.048949
C70	C	1.640935	-0.249954	0.548949
C71	C	1.146193	-0.659381	0.043688
C72	C	1.646193	-0.159381	0.543688
C73	C	1.087586	-0.614106	0.102245
C74	C	1.587586	-0.114106	0.602245
C75	C	1.037297	-0.478508	0.152488
C76	C	1.537297	0.021492	0.652488
C77	C	1.092963	-0.521528	0.096856
C78	C	1.592963	-0.021528	0.596856
C79	C	1.229952	-0.000017	0.118297
C80	C	1.729952	0.499983	0.618297
C81	C	1.330036	-0.000013	0.120198
C82	C	1.830036	0.499987	0.620198
C83	C	1.071508	-0.000011	-0.040141
C84	C	1.571508	0.499989	0.459859
C85	C	1.069605	-0.000004	-0.140225
C86	C	1.569605	0.499996	0.359775
N87	N	1.077071	0.204751	0.112780
N88	N	1.577071	0.704751	0.612780
C89	C	0.979438	-0.000019	-0.552755
C90	C	1.479438	0.499981	-0.052755
C91	C	1.143671	-0.000021	-0.574041
C92	C	1.643671	0.499979	-0.074041
C93	C	1.145462	-0.000016	-0.480008
C94	C	1.645462	0.499984	0.019992
C95	C	1.064239	-0.000014	-0.422343
C96	C	1.564239	0.499986	0.077657
C97	C	0.981226	-0.000017	-0.458712
C98	C	1.481226	0.499983	0.041288
C99	C	1.228473	-0.000022	-0.443631
C100	C	1.728473	0.499978	0.056369
C101	C	1.230267	-0.000018	-0.349592
C102	C	1.730267	0.499982	0.150408
C103	C	1.149043	-0.000010	-0.291926
C104	C	1.649043	0.499990	0.208074
C105	C	1.066027	-0.000011	-0.328301
C106	C	1.566027	0.499989	0.171699
C107	C	0.984804	-0.000009	-0.270636
C108	C	1.484804	0.499991	0.229364
C109	C	0.901787	-0.000005	-0.307009
C110	C	1.401787	0.499995	0.192991
C111	C	0.900002	-0.000008	-0.401046
C112	C	1.400002	0.499992	0.098954
C113	C	1.150828	-0.000006	-0.197889
C114	C	1.650828	0.499994	0.302111
C115	C	0.986592	-0.000007	-0.176594
C116	C	1.486592	0.499993	0.323406
C117	C	1.058757	-0.000020	0.289497
C118	C	1.558757	0.499980	0.789497
C119	C	1.060661	-0.000022	0.389581
C120	C	1.560661	0.499978	0.889581
H121	H	0.492682	0.220731	0.110247
H122	H	0.992682	0.720731	0.610247
Cl123	Cl	1.245773	-0.000038	-0.646533
Cl124	Cl	1.745773	0.499962	-0.146533
H125	H	0.932073	-0.377530	0.257630
H126	H	1.432073	0.122470	0.757630
Cl127	Cl	0.801998	-0.177050	0.139656
Cl128	Cl	1.301998	0.322950	0.639656
H129	H	1.218419	-0.000015	-0.168278
H130	H	1.718419	0.499985	0.331722
Cl131	Cl	1.192087	-0.193128	-0.002229
Cl132	Cl	1.692087	0.306872	0.497771
H133	H	1.198192	-0.622504	-0.008285
H134	H	1.698192	-0.122504	0.491715
Cl135	Cl	0.957021	-0.535454	0.232729
Cl136	Cl	1.457021	-0.035454	0.732729
H137	H	0.966470	-0.786848	0.223317
H138	H	1.466470	-0.286848	0.723317
Cl139	Cl	0.884477	0.000003	-0.104108
Cl140	Cl	1.384477	0.500003	0.395892
H141	H	0.835655	-0.000009	-0.260046
H142	H	1.335655	0.499991	0.239954
Cl143	Cl	0.950055	-0.602484	0.239687
Cl144	Cl	1.450055	-0.102484	0.739687
H145	H	0.832414	-0.000006	-0.430670
H146	H	1.332414	0.499994	0.069330
H147	H	1.188650	-0.786825	0.001273
H148	H	1.688650	-0.286825	0.501273
H149	H	0.347069	0.142300	0.112112
H150	H	0.847069	0.642300	0.612112
Cl151	Cl	0.915660	-0.193156	0.274010
Cl152	Cl	1.415660	0.306844	0.774010
H153	H	1.294600	-0.000032	-0.490587
H154	H	1.794600	0.499968	0.009413
Cl155	Cl	1.173236	-0.464585	0.016616
Cl156	Cl	1.673236	0.035415	0.516616
Cl157	Cl	0.875080	-0.000006	-0.598479
Cl158	Cl	1.375080	0.499994	-0.098479
H159	H	1.154250	-0.377497	0.035593
H160	H	1.654250	0.122503	0.535593
H161	H	0.637578	-0.220746	0.139094
H162	H	1.137578	0.279254	0.639094
H163	H	0.663303	0.220727	0.113507
H164	H	1.163303	0.720727	0.613507
Cl165	Cl	0.822634	0.177032	0.119126
Cl166	Cl	1.322634	0.677032	0.619126
Cl167	Cl	0.444121	-0.255503	0.137476
Cl168	Cl	0.944121	0.244497	0.637476
Cl169	Cl	1.334629	-0.000009	-0.303876
Cl170	Cl	1.834629	0.499991	0.196124
H171	H	0.330482	-0.142316	0.128623
H172	H	0.830482	0.357684	0.628623
