data_functionalizedCrystal
_audit_creation_method	'MofGen! by Chris Wilmer'
_symmetry_space_group_name_H-M	'P1'
_symmetry_Int_Tables_number	1
_symmetry_cell_setting	triclinic
loop_
_symmetry_equiv_pos_as_xyz
  x,y,z
_cell_length_a	15.995350
_cell_length_b	10.489741
_cell_length_c	15.072220
_cell_angle_alpha	89.999236
_cell_angle_beta	89.991149
_cell_angle_gamma	84.015774
loop_
_atom_site_label
_atom_site_type_symbol
_atom_site_fract_x
_atom_site_fract_y
_atom_site_fract_z
O1	O	1.111987	0.164400	-0.073707
O2	O	0.868334	0.184702	-0.073725
O3	O	0.995705	-0.011125	-0.073710
O4	O	0.984616	0.360226	-0.073722
O5	O	0.995673	-0.011114	0.073855
O6	O	0.868303	0.184713	0.073840
O7	O	1.111955	0.164411	0.073858
Zn8	Zn	0.990124	0.174563	0.097278
Zn9	Zn	0.990166	0.174549	-0.097145
O10	O	0.984585	0.360237	0.073844
C11	C	0.837119	0.183868	0.000055
C12	C	0.744153	0.181352	0.000048
C13	C	0.406351	0.172315	0.000067
C14	C	0.452944	0.032851	0.000401
C15	C	0.549650	0.035368	0.000062
C16	C	0.573939	0.176797	0.000058
C17	C	0.533284	0.245580	-0.084207
C18	C	0.436628	0.242076	-0.084271
C19	C	0.436270	0.244970	0.083538
C20	C	0.533215	0.244937	0.084645
C21	C	0.668651	0.179338	0.000050
C22	C	0.311638	0.169778	0.000069
C23	C	0.994852	-0.058639	0.000072
C24	C	0.992346	-0.200234	0.000070
C25	C	0.911304	-0.267240	0.000057
C26	C	0.949572	-0.359892	0.072818
C27	C	0.949622	-0.359878	-0.072670
C28	C	1.030647	-0.291022	0.072890
C29	C	1.030686	-0.290997	-0.072663
C30	C	1.069013	-0.383624	0.000115
C31	C	1.143171	0.165244	0.000076
C32	C	1.236137	0.167761	0.000077
C33	C	0.985438	0.407752	0.000060
C34	C	0.987944	0.549346	0.000056
N35	N	0.990102	0.174572	0.229967
N36	N	0.990195	0.174530	-0.229834
C37	C	0.990164	0.174544	0.589169
C38	C	0.921777	0.278976	0.551554
C39	C	0.921938	0.279357	0.448728
C40	C	0.990132	0.174558	0.410965
C41	C	1.077672	0.203626	0.448261
C42	C	1.077290	0.204368	0.551119
C43	C	0.971788	0.040735	0.551272
C44	C	0.969788	0.041628	0.448408
C45	C	0.990120	0.174564	0.310251
C46	C	0.990182	0.174541	0.689882
H47	H	0.405128	0.347796	0.084105
H48	H	0.915268	-0.390420	0.134326
H49	H	0.915334	-0.390367	-0.134189
H50	H	0.548036	0.349484	-0.087343
C51	C	1.099878	0.333957	0.413456
C52	C	1.183219	0.384143	0.440866
C53	C	1.205420	0.514478	0.406063
C54	C	1.144279	0.594627	0.343848
C55	C	1.060933	0.544443	0.316434
C56	C	1.038732	0.414108	0.351238
H57	H	1.228484	0.324811	0.486924
H58	H	1.267118	0.551627	0.426357
H59	H	1.160713	0.691109	0.318084
H60	H	1.015668	0.603775	0.270377
H61	H	0.977033	0.376958	0.330944
C62	C	0.834067	0.255975	0.414656
C63	C	0.817000	0.251750	0.314205
C64	C	0.729124	0.228372	0.280139
C65	C	0.658315	0.209221	0.346523
C66	C	0.675379	0.213446	0.446980
C67	C	0.763255	0.236823	0.481047
H68	H	0.869419	0.265927	0.265058
H69	H	0.716492	0.225245	0.205773
H70	H	0.593264	0.191915	0.321305
H71	H	0.622960	0.199268	0.496127
H72	H	0.775887	0.239951	0.555412
H73	H	0.933437	0.377714	0.577390
H74	H	0.418030	0.191908	-0.147259
C75	C	0.937904	0.413500	0.415467
C76	C	1.019712	0.470055	0.440742
C77	C	1.035682	0.604205	0.407484
C78	C	0.969843	0.681798	0.348950
C79	C	0.888030	0.625243	0.323672
C80	C	0.872060	0.491094	0.356931
H81	H	1.068455	0.412616	0.484075
H82	H	1.096246	0.646070	0.426197
H83	H	0.981665	0.781103	0.324331
H84	H	0.839288	0.682683	0.280340
H85	H	0.811497	0.449228	0.338218
C86	C	1.076912	-0.250025	0.156088
C87	C	1.031034	-0.156068	0.222849
C88	C	1.077294	-0.115069	0.306047
C89	C	1.169432	-0.168027	0.322484
C90	C	1.215315	-0.261990	0.255722
C91	C	1.169054	-0.302989	0.172524
H92	H	0.962824	-0.116860	0.210683
H93	H	1.043328	-0.045511	0.355469
H94	H	1.203676	-0.137677	0.384073
H95	H	1.283525	-0.301198	0.267888
H96	H	1.203020	-0.372547	0.123102
C97	C	1.159108	-0.451661	0.000173
C98	C	1.188540	-0.543202	0.076452
C99	C	1.278634	-0.611240	0.076515
C100	C	1.339294	-0.587737	0.000298
C101	C	1.309862	-0.496192	-0.075987
C102	C	1.219769	-0.428154	-0.076050
H103	H	1.143635	-0.560605	0.132877
H104	H	1.300420	-0.679008	0.132986
H105	H	1.405986	-0.638103	0.000344
H106	H	1.354767	-0.478789	-0.132412
H107	H	1.197982	-0.360386	-0.132521
C108	C	1.076990	-0.249697	-0.155758
C109	C	1.042999	-0.276390	-0.248771
C110	C	1.089295	-0.235084	-0.331875
C111	C	1.169582	-0.167085	-0.321965
C112	C	1.203578	-0.140388	-0.228948
C113	C	1.157282	-0.181694	-0.145844
H114	H	0.983561	-0.326730	-0.256111
H115	H	1.064128	-0.254847	-0.400733
H116	H	1.203853	-0.136508	-0.383483
H117	H	1.263015	-0.090048	-0.221608
H118	H	1.182448	-0.161931	-0.076986
H119	H	0.433029	-0.022644	-0.059693
H120	H	0.856525	0.261942	0.576311
H121	H	1.093361	0.301954	0.575099
C122	C	0.571229	0.181032	-0.168932
C123	C	0.514090	0.121026	-0.235926
C124	C	0.552031	0.056472	-0.320649
C125	C	0.647111	0.051924	-0.338379
C126	C	0.704256	0.111932	-0.271383
C127	C	0.666315	0.176487	-0.186660
H128	H	0.443701	0.124391	-0.222803
H129	H	0.509728	0.012049	-0.370244
H130	H	0.675197	0.004137	-0.401096
H131	H	0.774645	0.108568	-0.284506
H132	H	0.708618	0.220909	-0.137065
H133	H	0.560215	0.194726	0.146985
H134	H	1.129810	0.129587	0.423798
H135	H	1.129811	0.131304	0.576000
H136	H	0.909296	0.012784	0.577258
C137	C	0.882792	0.011823	0.415470
C138	C	0.865786	0.001793	0.315283
C139	C	0.778789	-0.028004	0.282333
C140	C	0.708799	-0.047771	0.349571
C141	C	0.725803	-0.037742	0.449765
C142	C	0.812799	-0.007945	0.482714
H143	H	0.917598	0.016427	0.265503
H144	H	0.766202	-0.035428	0.208163
H145	H	0.644400	-0.069829	0.325180
H146	H	0.673991	-0.052375	0.499544
H147	H	0.825387	-0.000521	0.556884
H148	H	0.415446	0.199381	0.147409
H149	H	0.577739	-0.018699	0.060467
H150	H	0.434073	-0.022892	0.060831
C151	C	0.393884	0.380390	-0.089456
C152	C	0.335461	0.421554	-0.167831
C153	C	0.292719	0.559863	-0.173024
C154	C	0.308402	0.657007	-0.099842
C155	C	0.366828	0.615845	-0.021461
C156	C	0.409569	0.477537	-0.016268
H157	H	0.323849	0.349640	-0.222010
H158	H	0.249468	0.590333	-0.231047
H159	H	0.276762	0.759391	-0.103686
H160	H	0.378440	0.687759	0.032718
H161	H	0.452821	0.447066	0.041755
H162	H	1.016301	-0.039726	0.422705
H163	H	0.577192	-0.019074	-0.060445
H164	H	0.549201	0.348072	0.089732
H165	H	0.844671	-0.216656	0.000126
H166	H	1.021649	-0.036979	0.575596
