data_functionalizedCrystal
_audit_creation_method	'MofGen! by Chris Wilmer'
_symmetry_space_group_name_H-M	'P1'
_symmetry_Int_Tables_number	1
_symmetry_cell_setting	triclinic
loop_
_symmetry_equiv_pos_as_xyz
  x,y,z
_cell_length_a	25.639242
_cell_length_b	13.897448
_cell_length_c	13.897441
_cell_angle_alpha	90.029627
_cell_angle_beta	89.971480
_cell_angle_gamma	89.986780
loop_
_atom_site_label
_atom_site_type_symbol
_atom_site_fract_x
_atom_site_fract_y
_atom_site_fract_z
Zn1	Zn	0.799334	0.384108	-0.545637
Zn2	Zn	1.049334	0.634108	-0.295637
Zn3	Zn	1.299334	0.884108	-0.045637
Zn4	Zn	1.549334	1.134108	0.204363
Zn5	Zn	0.799280	0.545427	-0.384338
Zn6	Zn	1.049280	0.795427	-0.134338
Zn7	Zn	1.299280	1.045427	0.115662
Zn8	Zn	1.549280	1.295427	0.365662
Zn9	Zn	0.711901	0.384135	-0.384327
Zn10	Zn	0.961901	0.634135	-0.134327
Zn11	Zn	1.211901	0.884135	0.115673
Zn12	Zn	1.461901	1.134135	0.365673
Zn13	Zn	0.711888	0.545351	-0.545563
Zn14	Zn	0.961888	0.795351	-0.295563
Zn15	Zn	1.211888	1.045351	-0.045563
Zn16	Zn	1.461888	1.295351	0.204437
O17	O	0.755601	0.464755	-0.464966
O18	O	1.005601	0.714755	-0.214966
O19	O	1.255601	0.964755	0.035034
O20	O	1.505601	1.214755	0.285034
O21	O	0.872492	0.405529	-0.524275
O22	O	1.122492	0.655529	-0.274275
O23	O	1.372492	0.905529	-0.024275
O24	O	1.622492	1.155529	0.225725
O25	O	0.787672	0.524075	-0.249355
O26	O	1.037672	0.774075	0.000645
O27	O	1.287672	1.024075	0.250645
O28	O	1.537672	1.274075	0.500645
O29	O	0.723527	0.249150	-0.405751
O30	O	0.973527	0.499150	-0.155751
O31	O	1.223527	0.749150	0.094249
O32	O	1.473527	0.999150	0.344249
O33	O	0.872452	0.524049	-0.405770
O34	O	1.122452	0.774049	-0.155770
O35	O	1.372452	1.024049	0.094230
O36	O	1.622452	1.274049	0.344230
O37	O	0.787764	0.249130	-0.524265
O38	O	1.037764	0.499130	-0.274265
O39	O	1.287764	0.749130	-0.024265
O40	O	1.537764	0.999130	0.225735
O41	O	0.723475	0.405575	-0.249347
O42	O	0.973475	0.655575	0.000653
O43	O	1.223475	0.905575	0.250653
O44	O	1.473475	1.155575	0.500653
O45	O	0.638734	0.405500	-0.405680
O46	O	0.888734	0.655500	-0.155680
O47	O	1.138734	0.905500	0.094320
O48	O	1.388734	1.155500	0.344320
O49	O	0.723505	0.523918	-0.680554
O50	O	0.973505	0.773918	-0.430554
O51	O	1.223505	1.023918	-0.180554
O52	O	1.473505	1.273918	0.069446
O53	O	0.638724	0.523944	-0.524139
O54	O	0.888724	0.773944	-0.274139
O55	O	1.138724	1.023944	-0.024139
O56	O	1.388724	1.273944	0.225861
O57	O	0.787751	0.405454	-0.680608
O58	O	1.037751	0.655454	-0.430608
O59	O	1.287751	0.905454	-0.180608
O60	O	1.537751	1.155454	0.069392
O61	O	0.787659	0.680399	-0.405698
O62	O	1.037659	0.930399	-0.155698
O63	O	1.287659	1.180399	0.094302
O64	O	1.537659	1.430399	0.344302
O65	O	0.723452	0.680342	-0.524149
O66	O	0.973452	0.930342	-0.274149
O67	O	1.223452	1.180342	-0.024149
O68	O	1.473452	1.430342	0.225851
C69	C	0.755562	0.715370	-0.464938
C70	C	1.005562	0.965370	-0.214938
C71	C	1.255562	1.215370	0.035062
C72	C	1.505562	1.465370	0.285062
C73	C	0.755594	0.822584	-0.464958
C74	C	1.005594	1.072584	-0.214958
C75	C	1.255594	1.322584	0.035042
C76	C	1.505594	1.572584	0.285042
C77	C	0.619758	0.464717	-0.464901
C78	C	0.869758	0.714717	-0.214901
C79	C	1.119758	0.964717	0.035099
C80	C	1.369758	1.214717	0.285099
C81	C	0.561644	0.464724	-0.464896
C82	C	0.811644	0.714724	-0.214896
C83	C	1.061644	0.964724	0.035104
C84	C	1.311644	1.214724	0.285104
C85	C	0.755633	0.464674	-0.716559
C86	C	1.005633	0.714674	-0.466559
C87	C	1.255633	0.964674	-0.216559
C88	C	1.505633	1.214674	0.033441
C89	C	0.755646	0.464640	-0.823773
C90	C	1.005646	0.714640	-0.573773
C91	C	1.255646	0.964640	-0.323773
C92	C	1.505646	1.214640	-0.073773
C93	C	0.201285	0.526532	-0.526589
C94	C	0.451285	0.776532	-0.276589
C95	C	0.701285	1.026532	-0.026589
C96	C	0.951285	1.276532	0.223411
C97	C	0.146681	0.526538	-0.526604
C98	C	0.396681	0.776538	-0.276604
C99	C	0.646681	1.026538	-0.026604
C100	C	0.896681	1.276538	0.223396
O101	O	0.118447	0.579042	-0.579003
O102	O	0.368447	0.829042	-0.329003
O103	O	0.618447	1.079042	-0.079003
O104	O	0.868447	1.329042	0.170997
N105	N	0.119362	0.464782	-0.465029
N106	N	0.369362	0.714782	-0.215029
N107	N	0.619362	0.964782	0.034971
N108	N	0.869362	1.214782	0.284971
C109	C	0.146650	0.403009	-0.403441
C110	C	0.396650	0.653009	-0.153441
C111	C	0.646650	0.903009	0.096559
C112	C	0.896650	1.153009	0.346559
O113	O	0.118399	0.350480	-0.351068
O114	O	0.368399	0.600480	-0.101068
O115	O	0.618399	0.850480	0.148932
O116	O	0.868399	1.100480	0.398932
C117	C	0.201253	0.402999	-0.403431
C118	C	0.451253	0.652999	-0.153431
C119	C	0.701253	0.902999	0.096569
C120	C	0.951253	1.152999	0.346569
C121	C	0.228569	0.464766	-0.465004
C122	C	0.478569	0.714766	-0.215004
C123	C	0.728569	0.964766	0.034996
C124	C	0.978569	1.214766	0.284996
C125	C	0.228601	0.588294	-0.588158
C126	C	0.478601	0.838294	-0.338158
C127	C	0.728601	1.088294	-0.088158
C128	C	0.978601	1.338294	0.161842
C129	C	0.283202	0.588289	-0.588141
C130	C	0.533202	0.838289	-0.338141
C131	C	0.783202	1.088289	-0.088141
C132	C	1.033202	1.338289	0.161859
C133	C	0.310486	0.526523	-0.526556
C134	C	0.560486	0.776523	-0.276556
C135	C	0.810486	1.026523	-0.026556
C136	C	1.060486	1.276523	0.223444
C137	C	0.283170	0.464761	-0.464987
C138	C	0.533170	0.714761	-0.214987
C139	C	0.783170	0.964761	0.035013
C140	C	1.033170	1.214761	0.285013
C141	C	0.228540	0.341222	-0.341849
C142	C	0.478540	0.591222	-0.091849
C143	C	0.728540	0.841222	0.158151
C144	C	0.978540	1.091222	0.408151
C145	C	0.283147	0.341216	-0.341845
C146	C	0.533147	0.591216	-0.091845
C147	C	0.783147	0.841216	0.158155
C148	C	1.033147	1.091216	0.408155
C149	C	0.310463	0.402984	-0.403418
C150	C	0.560463	0.652984	-0.153418
C151	C	0.810463	0.902984	0.096582
C152	C	1.060463	1.152984	0.346582
C153	C	0.365055	0.402990	-0.403385
C154	C	0.615055	0.652990	-0.153385
C155	C	0.865055	0.902990	0.096615
C156	C	1.115055	1.152990	0.346615
N157	N	0.392374	0.464746	-0.464961
N158	N	0.642374	0.714746	-0.214961
N159	N	0.892374	0.964746	0.035039
N160	N	1.142374	1.214746	0.285039
C161	C	0.365089	0.526513	-0.526546
C162	C	0.615089	0.776513	-0.276546
C163	C	0.865089	1.026513	-0.026546
C164	C	1.115089	1.276513	0.223454
C165	C	0.031979	0.403033	-0.403467
C166	C	0.281979	0.653033	-0.153467
C167	C	0.531979	0.903033	0.096533
C168	C	0.781979	1.153033	0.346533
C169	C	-0.022623	0.403048	-0.403471
C170	C	0.227377	0.653048	-0.153471
C171	C	0.477377	0.903048	0.096529
C172	C	0.727377	1.153048	0.346529
C173	C	-0.022589	0.526576	-0.526636
C174	C	0.227411	0.776576	-0.276636
C175	C	0.477411	1.026576	-0.026636
C176	C	0.727411	1.276576	0.223364
C177	C	0.032015	0.526566	-0.526626
C178	C	0.282015	0.776566	-0.276626
C179	C	0.532015	1.026566	-0.026626
C180	C	0.782015	1.276566	0.223374
C181	C	0.059298	0.464790	-0.465043
C182	C	0.309298	0.714790	-0.215043
C183	C	0.559298	0.964790	0.034957
C184	C	0.809298	1.214790	0.284957
C185	C	0.479754	0.526498	-0.526506
C186	C	0.729754	0.776498	-0.276506
C187	C	0.979754	1.026498	-0.026506
C188	C	1.229754	1.276498	0.223494
C189	C	0.534360	0.526491	-0.526481
C190	C	0.784360	0.776491	-0.276481
C191	C	1.034360	1.026491	-0.026481
C192	C	1.284360	1.276491	0.223519
C193	C	0.534320	0.402959	-0.403320
C194	C	0.784320	0.652959	-0.153320
C195	C	1.034320	0.902959	0.096680
C196	C	1.284320	1.152959	0.346680
C197	C	0.479720	0.402970	-0.403341
C198	C	0.729720	0.652970	-0.153341
C199	C	0.979720	0.902970	0.096659
C200	C	1.229720	1.152970	0.346659
C201	C	0.452438	0.464743	-0.464942
C202	C	0.702438	0.714743	-0.214942
C203	C	0.952438	0.964743	0.035058
C204	C	1.202438	1.214743	0.285058
O205	O	0.393323	0.350510	-0.351016
O206	O	0.643323	0.600510	-0.101016
O207	O	0.893323	0.850510	0.148984
O208	O	1.143323	1.100510	0.398984
O209	O	0.393347	0.579023	-0.578919
O210	O	0.643347	0.829023	-0.328919
O211	O	0.893347	1.079023	-0.078919
O212	O	1.143347	1.329023	0.171081
C213	C	0.891974	0.464794	-0.465032
C214	C	1.141974	0.714794	-0.215032
C215	C	1.391974	0.964794	0.034968
C216	C	1.641974	1.214794	0.284968
C217	C	0.950088	0.464811	-0.465060
C218	C	1.200088	0.714811	-0.215060
C219	C	1.450088	0.964811	0.034940
C220	C	1.700088	1.214811	0.284940
C221	C	0.755653	0.213162	-0.465015
C222	C	1.005653	0.463162	-0.215015
C223	C	1.255653	0.713162	0.034985
C224	C	1.505653	0.963162	0.284985
C225	C	0.755676	0.105948	-0.465036
C226	C	1.005676	0.355948	-0.215036
C227	C	1.255676	0.605948	0.034964
C228	C	1.505676	0.855948	0.284964
C229	C	0.755649	1.018879	-0.465019
C230	C	1.005649	1.268879	-0.215019
C231	C	1.255649	1.518879	0.034981
C232	C	1.505649	1.768879	0.284981
C233	C	0.755617	0.909646	-0.464988
C234	C	1.005617	1.159646	-0.214988
C235	C	1.255617	1.409646	0.035012
C236	C	1.505617	1.659646	0.285012
C237	C	0.755657	0.464613	-0.910843
C238	C	1.005657	0.714613	-0.660843
C239	C	1.255657	0.964613	-0.410843
C240	C	1.505657	1.214613	-0.160843
C241	C	0.755672	0.464569	-1.020076
C242	C	1.005672	0.714569	-0.770076
C243	C	1.255672	0.964569	-0.520076
C244	C	1.505672	1.214569	-0.270076
C245	C	0.755599	0.464766	-0.214352
C246	C	1.005599	0.714766	0.035648
C247	C	1.255599	0.964766	0.285648
C248	C	1.505599	1.214766	0.535648
C249	C	0.755687	0.464529	-0.107138
C250	C	1.005687	0.714529	0.142862
C251	C	1.255687	0.964529	0.392862
C252	C	1.505687	1.214529	0.642862
H253	H	0.556598	0.576793	-0.576621
H254	H	0.806598	0.826793	-0.326621
H255	H	1.056598	1.076793	-0.076621
H256	H	1.306598	1.326793	0.173379
C257	C	-0.052665	0.335105	-0.335731
C258	C	0.197335	0.585105	-0.085731
C259	C	0.447335	0.835105	0.164269
C260	C	0.697335	1.085105	0.414269
N261	N	-0.075290	0.283922	-0.284711
N262	N	0.174710	0.533922	-0.034711
N263	N	0.424710	0.783922	0.215289
N264	N	0.674710	1.033922	0.465289
H265	H	0.457478	0.352676	-0.353201
H266	H	0.707478	0.602676	-0.103201
H267	H	0.957478	0.852676	0.146799
H268	H	1.207478	1.102676	0.396799
H269	H	0.457548	0.576797	-0.576669
H270	H	0.707548	0.826797	-0.326669
H271	H	0.957548	1.076797	-0.076669
H272	H	1.207548	1.326797	0.173331
C273	C	0.313242	0.656234	-0.655881
C274	C	0.563242	0.906234	-0.405881
C275	C	0.813242	1.156234	-0.155881
C276	C	1.063242	1.406234	0.094119
N277	N	0.335865	0.707411	-0.706909
N278	N	0.585865	0.957411	-0.456909
N279	N	0.835865	1.207411	-0.206909
N280	N	1.085865	1.457411	0.043091
C281	C	0.198597	0.656258	-0.655902
C282	C	0.448597	0.906258	-0.405902
C283	C	0.698597	1.156258	-0.155902
C284	C	0.948597	1.406258	0.094098
N285	N	0.176001	0.707462	-0.706922
N286	N	0.426001	0.957462	-0.456922
N287	N	0.676001	1.207462	-0.206922
N288	N	0.926001	1.457462	0.043078
C289	C	0.062057	0.594508	-0.594366
C290	C	0.312057	0.844508	-0.344366
C291	C	0.562057	1.094508	-0.094366
C292	C	0.812057	1.344508	0.155634
N293	N	0.084683	0.645684	-0.645393
N294	N	0.334683	0.895684	-0.395393
N295	N	0.584683	1.145684	-0.145393
N296	N	0.834683	1.395684	0.104607
H297	H	0.206309	0.290927	-0.291708
H298	H	0.456309	0.540927	-0.041708
H299	H	0.706309	0.790927	0.208292
H300	H	0.956309	1.040927	0.458292
C301	C	0.313156	0.273259	-0.274094
C302	C	0.563156	0.523259	-0.024094
C303	C	0.813156	0.773259	0.225906
C304	C	1.063156	1.023259	0.475906
N305	N	0.335757	0.222076	-0.223060
N306	N	0.585757	0.472076	0.026940
N307	N	0.835757	0.722076	0.276940
N308	N	1.085757	0.972076	0.526940
C309	C	-0.052612	0.594514	-0.594389
C310	C	0.197388	0.844514	-0.344389
C311	C	0.447388	1.094514	-0.094389
C312	C	0.697388	1.344514	0.155611
N313	N	-0.075227	0.645680	-0.645417
N314	N	0.174773	0.895680	-0.395417
N315	N	0.424773	1.145680	-0.145417
N316	N	0.674773	1.395680	0.104583
H317	H	0.556545	0.352674	-0.353176
H318	H	0.806545	0.602674	-0.103176
H319	H	1.056545	0.852674	0.146824
H320	H	1.306545	1.102674	0.396824
H321	H	0.054190	0.352729	-0.353311
H322	H	0.304190	0.602729	-0.103311
H323	H	0.554190	0.852729	0.146689
H324	H	0.804190	1.102729	0.396689
