data_functionalizedCrystal
_audit_creation_method	'MofGen! by Chris Wilmer'
_symmetry_space_group_name_H-M	'P1'
_symmetry_Int_Tables_number	1
_symmetry_cell_setting	triclinic
loop_
_symmetry_equiv_pos_as_xyz
  x,y,z
_cell_length_a	17.077404
_cell_length_b	15.296363
_cell_length_c	17.077396
_cell_angle_alpha	80.286989
_cell_angle_beta	89.982940
_cell_angle_gamma	99.690401
loop_
_atom_site_label
_atom_site_type_symbol
_atom_site_fract_x
_atom_site_fract_y
_atom_site_fract_z
Zn1	Zn	1.145985	-0.359230	-0.389705
Zn2	Zn	1.123191	-0.510143	-0.235695
Zn3	Zn	1.014717	-0.359266	-0.258447
Zn4	Zn	0.991986	-0.510086	-0.366927
O5	O	1.068970	-0.434681	-0.312694
O6	O	1.252807	-0.379258	-0.369286
O7	O	1.108775	-0.490168	-0.128860
O8	O	1.051182	-0.232984	-0.294913
O9	O	1.236060	-0.490134	-0.256135
O10	O	1.147624	-0.232958	-0.391347
O11	O	1.029079	-0.379319	-0.145576
O12	O	0.901856	-0.379263	-0.272827
O13	O	1.012441	-0.490035	-0.479802
O14	O	0.885156	-0.490070	-0.352527
O15	O	1.125583	-0.379202	-0.496536
O16	O	1.086734	-0.636412	-0.234049
O17	O	0.990339	-0.636370	-0.330465
C18	C	0.865024	-0.434665	-0.312674
C19	C	0.777772	-0.434680	-0.312682
C20	C	0.728094	-0.492464	-0.354088
C21	C	0.646113	-0.492466	-0.354100
C22	C	0.613812	-0.434687	-0.312701
C23	C	0.663497	-0.376897	-0.271294
C24	C	0.745477	-0.376891	-0.271286
C25	C	0.492624	-0.376915	-0.271310
C26	C	0.410638	-0.376921	-0.271315
C27	C	0.393261	-0.492489	-0.354123
C28	C	0.475240	-0.492483	-0.354116
C29	C	0.524920	-0.434694	-0.312707
C30	C	1.033617	-0.669133	-0.277334
C31	C	1.018565	-0.769433	-0.262233
C32	C	1.176871	-1.051807	-0.420699
C33	C	1.191019	-0.957571	-0.434886
C34	C	1.147906	-0.910532	-0.391724
C35	C	1.090644	-0.957738	-0.334372
C36	C	1.076500	-1.051984	-0.320178
C37	C	1.047535	-0.910708	-0.291204
C38	C	0.990273	-0.957915	-0.233852
C39	C	0.976131	-1.052151	-0.219661
C40	C	1.019243	-1.099191	-0.262823
C41	C	1.061680	-0.816463	-0.305398
C42	C	0.961309	-0.816639	-0.204877
C43	C	0.947161	-0.910876	-0.190690
C44	C	1.273711	-0.434698	-0.312713
C45	C	1.360960	-0.434706	-0.312722
C46	C	1.069019	-0.434608	-0.517449
C47	C	1.069041	-0.434577	-0.604704
C48	C	1.104481	-0.199314	-0.348209
C49	C	1.119614	-0.099014	-0.363343
C50	C	1.110625	-0.492191	-0.971832
C51	C	1.110601	-0.492217	-0.889848
C52	C	1.069101	-0.434513	-0.857562
C53	C	1.027615	-0.376785	-0.907265
C54	C	1.027634	-0.376764	-0.989247
C55	C	1.027578	-0.376832	-0.736388
C56	C	1.027560	-0.376852	-0.654400
C57	C	1.110545	-0.492285	-0.636989
C58	C	1.110565	-0.492264	-0.718971
C59	C	1.069080	-0.434535	-0.768668
C60	C	1.068975	-0.434689	-0.108745
C61	C	1.069144	-0.434466	-0.021529
H62	H	0.785925	-0.329832	-0.237574
C63	C	1.156279	-0.555672	-1.007338
N64	N	1.190664	-0.603490	-1.034078
C65	C	1.124665	-0.764547	-0.368486
N66	N	1.172108	-0.725444	-0.416009
C67	C	1.156218	-0.555741	-0.754483
N68	N	1.190602	-0.603555	-0.781230
H69	H	0.993797	-0.329823	-0.776849
C70	C	1.156175	-0.555792	-0.582320
N71	N	1.190544	-0.603622	-0.541140
C72	C	0.338612	-0.556054	-0.399678
N73	N	0.297448	-0.603931	-0.433987
H74	H	0.993857	-0.329758	-1.029710
H75	H	0.993820	-0.329806	-0.880971
C76	C	0.981899	-0.313382	-0.618886
N77	N	0.947505	-0.265577	-0.592138
H78	H	0.605668	-0.539520	-0.387816
C79	C	1.003699	-1.202857	-0.247204
N80	N	0.991999	-1.280940	-0.235436
C81	C	0.763617	-0.556026	-0.399630
N82	N	0.790371	-0.603900	-0.433937
H83	H	0.501536	-0.539537	-0.387822
H84	H	0.384343	-0.329862	-0.237616
C85	C	0.913880	-0.764900	-0.157398
N86	N	0.878161	-0.725925	-0.121638
H87	H	0.533073	-0.329848	-0.237599
H88	H	1.159429	-0.833800	-0.403279
C89	C	1.254014	-0.905651	-0.497963
N90	N	1.301469	-0.866544	-0.545473
H91	H	1.211971	-1.090115	-0.455830
H92	H	0.637191	-0.329849	-0.237590
H93	H	0.929511	-1.090584	-0.172954
H94	H	1.144368	-0.539234	-0.849386
C95	C	0.884214	-0.962815	-0.127563
N96	N	0.836816	-1.001937	-0.080003
