data_functionalizedCrystal
_audit_creation_method	'MofGen! by Chris Wilmer'
_symmetry_space_group_name_H-M	'P1'
_symmetry_Int_Tables_number	1
_symmetry_cell_setting	triclinic
loop_
_symmetry_equiv_pos_as_xyz
  x,y,z
_cell_length_a	19.805406
_cell_length_b	19.805407
_cell_length_c	16.625527
_cell_angle_alpha	89.938328
_cell_angle_beta	89.925637
_cell_angle_gamma	90.001908
loop_
_atom_site_label
_atom_site_type_symbol
_atom_site_fract_x
_atom_site_fract_y
_atom_site_fract_z
Zn1	Zn	-0.269043	1.035136	-0.456013
Zn2	Zn	0.230957	1.535136	0.043987
Zn3	Zn	-0.382350	1.035021	-0.321207
Zn4	Zn	0.117650	1.535021	0.178793
Zn5	Zn	-0.269184	0.921869	-0.321189
Zn6	Zn	0.230816	1.421869	0.178811
Zn7	Zn	-0.382199	0.921966	-0.455993
Zn8	Zn	0.117801	1.421966	0.044007
O9	O	-0.325694	0.978498	-0.388600
O10	O	0.174306	1.478498	0.111400
O11	O	-0.284077	1.129837	-0.438147
O12	O	0.215923	1.629837	0.061853
O13	O	-0.367460	1.019923	-0.208372
O14	O	0.132540	1.519923	0.291628
O15	O	-0.174449	0.936901	-0.339075
O16	O	0.325551	1.436901	0.160925
O17	O	-0.367323	1.129753	-0.339105
O18	O	0.132677	1.629753	0.160895
O19	O	-0.174345	1.020118	-0.438129
O20	O	0.325655	1.520118	0.061871
O21	O	-0.284318	0.936790	-0.208359
O22	O	0.215682	1.436790	0.291641
O23	O	-0.284172	0.827165	-0.339055
O24	O	0.215828	1.327165	0.160945
O25	O	-0.367067	0.937067	-0.568828
O26	O	0.132933	1.437067	-0.068828
O27	O	-0.367203	0.827237	-0.438095
O28	O	0.132797	1.327237	0.061905
O29	O	-0.283931	1.020212	-0.568843
O30	O	0.216069	1.520212	-0.068843
O31	O	-0.477046	1.020017	-0.339086
O32	O	0.022954	1.520017	0.160914
O33	O	-0.476936	0.936956	-0.438112
O34	O	0.023064	1.436956	0.061888
C35	C	-0.325687	0.802642	-0.388571
C36	C	0.174313	1.302642	0.111429
C37	C	-0.325700	0.727410	-0.388578
C38	C	0.174300	1.227410	0.111422
C39	C	-0.501550	0.978503	-0.388616
C40	C	-0.001550	1.478503	0.111384
C41	C	-0.576782	0.978567	-0.388650
C42	C	-0.076782	1.478567	0.111350
C43	C	-0.149151	0.978511	-0.388602
C44	C	0.350849	1.478511	0.111398
C45	C	-0.073919	0.978517	-0.388603
C46	C	0.426081	1.478517	0.111397
C47	C	-0.282428	0.265666	-0.440282
C48	C	0.217572	0.765666	0.059718
C49	C	-0.282430	0.336355	-0.440276
C50	C	0.217570	0.836355	0.059724
C51	C	-0.325704	0.371648	-0.388627
C52	C	0.174296	0.871648	0.111373
C53	C	-0.368985	0.336250	-0.336985
C54	C	0.131015	0.836250	0.163015
C55	C	-0.368987	0.265563	-0.336996
C56	C	0.131013	0.765563	0.163004
C57	C	-0.368980	0.621323	-0.336943
C58	C	0.131020	1.121323	0.163057
C59	C	-0.368973	0.692015	-0.336935
C60	C	0.131027	1.192015	0.163065
C61	C	-0.282423	0.692115	-0.440223
C62	C	0.217577	1.192115	0.059777
C63	C	-0.282425	0.621428	-0.440233
C64	C	0.217575	1.121428	0.059767
C65	C	-0.325708	0.586036	-0.388595
C66	C	0.174292	1.086036	0.111405
C67	C	-0.325707	0.509387	-0.388603
C68	C	0.174293	1.009387	0.111397
C69	C	-0.325702	0.448295	-0.388614
C70	C	0.174298	0.948295	0.111386
C71	C	-0.038628	0.935196	-0.337033
C72	C	0.461372	1.435196	0.162967
C73	C	0.032061	0.935200	-0.337042
C74	C	0.532061	1.435200	0.162958
C75	C	0.067456	0.978530	-0.388617
C76	C	0.567456	1.478530	0.111383
C77	C	0.032160	1.021853	-0.440193
C78	C	0.532160	1.521853	0.059807
C79	C	-0.038527	1.021844	-0.440188
C80	C	0.461473	1.521844	0.059812
C81	C	0.317234	1.021886	-0.440217
C82	C	0.817234	1.521886	0.059783
C83	C	0.387926	1.021892	-0.440217
C84	C	0.887926	1.521892	0.059783
C85	C	0.387821	0.935242	-0.337071
C86	C	0.887821	1.435242	0.162929
C87	C	0.317134	0.935234	-0.337065
C88	C	0.817134	1.435234	0.162935
C89	C	0.281844	0.978554	-0.388644
C90	C	0.781844	1.478554	0.111356
C91	C	0.205195	0.978548	-0.388635
C92	C	0.705195	1.478548	0.111365
C93	C	0.144104	0.978540	-0.388623
C94	C	0.644104	1.478540	0.111377
C95	C	-0.325872	0.978373	-0.179109
C96	C	0.174128	1.478373	0.320891
C97	C	-0.325778	0.978433	-0.089488
C98	C	0.174222	1.478433	0.410512
C99	C	-0.325701	1.155041	-0.388630
C100	C	0.174299	1.655041	0.111370
C101	C	-0.325705	1.230273	-0.388643
C102	C	0.174295	1.730273	0.111357
C103	C	-0.325466	0.978663	-0.598910
C104	C	0.174534	1.478663	-0.098910
C105	C	-0.325369	0.978733	-0.688531
C106	C	0.174631	1.478733	-0.188531
C107	C	-0.325446	0.978684	0.238687
C108	C	0.174554	1.478684	0.738687
C109	C	-0.325541	0.978616	0.147378
C110	C	0.174459	1.478616	0.647378
C111	C	-0.325613	0.978558	0.074602
C112	C	0.174387	1.478558	0.574602
C113	C	-0.325706	0.978491	-0.016712
C114	C	0.174294	1.478491	0.483288
H115	H	-0.247185	0.236935	-0.482336
H116	H	0.252815	0.736935	0.017664
H117	H	0.416562	0.899966	-0.295075
H118	H	0.916562	1.399966	0.204925
N119	N	-0.238219	0.372519	-0.493007
N120	N	0.261781	0.872519	0.006993
N121	N	-0.238220	0.435631	-0.492992
N122	N	0.261780	0.935631	0.007008
H123	H	-0.206994	0.461173	-0.530234
H124	H	0.293006	0.961173	-0.030234
N125	N	-0.238211	0.585388	-0.492990
N126	N	0.261789	1.085388	0.007010
N127	N	-0.199574	0.616998	-0.539093
N128	N	0.300426	1.116998	-0.039093
H129	H	-0.168347	0.591546	-0.576356
H130	H	0.331653	1.091546	-0.076356
H131	H	0.060984	1.057130	-0.482192
H132	H	0.560984	1.557130	0.017808
H133	H	-0.247182	0.720940	-0.482271
H134	H	0.252818	1.220940	0.017729
N135	N	-0.413182	0.728057	-0.284166
N136	N	0.086818	1.228057	0.215834
N137	N	-0.451823	0.696450	-0.238064
N138	N	0.048177	1.196450	0.261936
H139	H	-0.483043	0.721905	-0.200796
H140	H	0.016957	1.221905	0.299204
H141	H	-0.404222	0.592515	-0.294894
H142	H	0.095778	1.092515	0.205106
H143	H	-0.404222	0.364991	-0.294935
H144	H	0.095778	0.864991	0.205065
N145	N	-0.413199	0.229417	-0.284247
N146	N	0.086801	0.729417	0.215753
N147	N	-0.451835	0.260935	-0.238135
N148	N	0.048165	0.760935	0.261865
H149	H	-0.483065	0.235408	-0.200881
H150	H	0.016935	0.735408	0.299119
H151	H	-0.067260	1.057116	-0.482188
H152	H	0.432740	1.557116	0.017812
N153	N	-0.074770	0.890944	-0.284328
N154	N	0.425230	1.390944	0.215672
N155	N	-0.043248	0.852272	-0.238282
N156	N	0.456752	1.352272	0.261718
H157	H	-0.068771	0.821019	-0.201054
H158	H	0.431229	1.321019	0.298946
H159	H	0.060794	0.899925	-0.295050
H160	H	0.560794	1.399925	0.204950
H161	H	0.416744	1.057177	-0.482219
H162	H	0.916744	1.557177	0.017781
H163	H	0.288318	0.899953	-0.295064
H164	H	0.788318	1.399953	0.204936
H165	H	0.288509	1.057168	-0.482206
H166	H	0.788509	1.557168	0.017794
