data_functionalizedCrystal
_audit_creation_method	'MofGen! by Chris Wilmer'
_symmetry_space_group_name_H-M	'P1'
_symmetry_Int_Tables_number	1
_symmetry_cell_setting	triclinic
loop_
_symmetry_equiv_pos_as_xyz
  x,y,z
_cell_length_a	10.654562
_cell_length_b	10.723024
_cell_length_c	9.130313
_cell_angle_alpha	89.998688
_cell_angle_beta	90.005872
_cell_angle_gamma	84.478987
loop_
_atom_site_label
_atom_site_type_symbol
_atom_site_fract_x
_atom_site_fract_y
_atom_site_fract_z
O1	O	1.667804	0.175342	0.121892
O2	O	1.302325	0.192024	0.121873
O3	O	1.493495	0.002108	0.121877
O4	O	1.476634	0.365257	0.121887
O5	O	1.493481	0.002120	-0.121721
O6	O	1.302312	0.192035	-0.121726
O7	O	1.667791	0.175353	-0.121707
Cu8	Cu	1.485050	0.183695	-0.143959
Cu9	Cu	1.485066	0.183682	0.144125
O10	O	1.476621	0.365269	-0.121711
C11	C	1.255521	0.190802	0.000071
C12	C	1.116079	0.187127	0.000064
C13	C	1.050541	0.185419	-0.132710
C14	C	0.919519	0.181976	-0.132686
C15	C	0.919584	0.181955	0.132899
C16	C	1.050604	0.185388	0.132873
C17	C	1.050502	0.185437	-0.286044
C18	C	0.919481	0.181994	-0.286019
C19	C	1.492261	-0.044386	0.000080
C20	C	1.488590	-0.182941	0.000085
C21	C	1.595559	-0.257903	0.000092
C22	C	1.591767	-0.401107	0.000097
C23	C	1.714595	0.176575	0.000098
C24	C	1.854037	0.180250	0.000115
C25	C	1.477854	0.411763	0.000090
C26	C	1.481525	0.550318	0.000094
N27	N	1.485048	0.183704	-0.346582
C28	C	1.561866	0.260092	-0.423241
C29	C	1.561884	0.260069	-0.576578
C30	C	1.408257	0.107266	-0.576582
C31	C	1.408246	0.107284	-0.423248
C32	C	1.650557	0.348316	-0.423240
C33	C	1.650576	0.348293	-0.576577
N34	N	1.485077	0.183663	0.346748
H35	H	1.080060	0.276451	-0.333618
H36	H	1.689945	-0.216062	0.000088
O37	O	1.700986	-0.477994	0.000366
C38	C	1.829523	-0.641282	0.126537
C39	C	1.705795	-0.554256	0.126431
H40	H	1.833439	-0.702980	0.228433
H41	H	1.913163	-0.582490	0.126635
H42	H	1.833525	-0.702865	0.024547
H43	H	1.701669	-0.492656	0.228403
H44	H	1.622212	-0.613123	0.126256
H45	H	1.749613	0.317660	-0.381604
H46	H	0.889903	0.090986	-0.333601
H47	H	1.389947	-0.385275	0.000078
H48	H	1.745172	0.309072	-0.624107
O49	O	1.376058	-0.232990	0.000278
C50	C	1.239674	-0.363991	0.126529
C51	C	1.367176	-0.307422	0.126473
H52	H	1.232440	-0.424160	0.228561
H53	H	1.232399	-0.424348	0.024656
H54	H	1.159746	-0.285257	0.126450
H55	H	1.447177	-0.386074	0.126603
H56	H	1.374342	-0.247033	0.228337
O57	O	1.333518	0.033036	-0.349007
C58	C	1.181216	-0.118599	-0.365198
C59	C	1.265764	-0.034548	-0.449458
H60	H	1.126435	-0.173282	-0.446376
H61	H	1.112285	-0.057925	-0.293474
H62	H	1.242415	-0.186881	-0.293349
H63	H	1.204665	0.033747	-0.521387
H64	H	1.334702	-0.095300	-0.521090
O65	O	1.613570	0.465738	-0.626020
C66	C	1.546286	0.679782	-0.562051
C67	C	1.588151	0.546839	-0.505859
H68	H	1.525748	0.745395	-0.464931
H69	H	1.457513	0.677730	-0.631383
H70	H	1.624699	0.714658	-0.631458
H71	H	1.509824	0.511883	-0.436392
H72	H	1.676959	0.548968	-0.436607
H73	H	0.866259	0.180539	0.241027
H74	H	1.096772	0.099198	-0.344929
O75	O	1.114184	0.187253	0.261889
C76	C	1.140990	0.296139	0.488941
C77	C	1.068912	0.294200	0.342862
H78	H	1.104398	0.382583	0.554462
H79	H	1.245888	0.298969	0.466206
H80	H	1.125988	0.208234	0.554346
H81	H	1.083811	0.382087	0.277383
H82	H	0.964040	0.291306	0.365700
H83	H	0.873178	0.268240	-0.344882
O84	O	1.603566	0.460407	-0.366349
C85	C	1.643095	0.636679	-0.215251
C86	C	1.696460	0.509739	-0.279553
H87	H	1.718182	0.676615	-0.145087
H88	H	1.557104	0.622988	-0.144889
H89	H	1.614510	0.704456	-0.308274
H90	H	1.725119	0.441898	-0.186623
H91	H	1.782402	0.523529	-0.349954
H92	H	1.345727	0.045047	-0.639022
