data_functionalizedCrystal
_audit_creation_method	'MofGen! by Chris Wilmer'
_symmetry_space_group_name_H-M	'P1'
_symmetry_Int_Tables_number	1
_symmetry_cell_setting	triclinic
loop_
_symmetry_equiv_pos_as_xyz
  x,y,z
_cell_length_a	12.827892
_cell_length_b	12.827893
_cell_length_c	12.827885
_cell_angle_alpha	90.021189
_cell_angle_beta	90.032871
_cell_angle_gamma	90.020944
loop_
_atom_site_label
_atom_site_type_symbol
_atom_site_fract_x
_atom_site_fract_y
_atom_site_fract_z
Zn1	Zn	0.416038	-1.597615	-0.590880
Zn2	Zn	0.749371	-1.264282	-0.257546
Zn3	Zn	1.082704	-0.930948	0.075787
Zn4	Zn	0.590815	-1.597486	-0.416131
Zn5	Zn	0.924148	-1.264153	-0.082797
Zn6	Zn	1.257482	-0.930819	0.250536
Zn7	Zn	0.416083	-1.422856	-0.416147
Zn8	Zn	0.749416	-1.089523	-0.082814
Zn9	Zn	1.082749	-0.756190	0.250519
Zn10	Zn	0.590731	-1.422819	-0.590825
Zn11	Zn	0.924065	-1.089485	-0.257491
Zn12	Zn	1.257398	-0.756152	0.075842
O13	O	0.503417	-1.510194	-0.503496
O14	O	0.836750	-1.176861	-0.170162
O15	O	1.170083	-0.843527	0.163171
O16	O	0.439238	-1.743834	-0.567715
O17	O	0.772572	-1.410500	-0.234381
O18	O	1.105905	-1.077167	0.098952
O19	O	0.567690	-1.574283	-0.269897
O20	O	0.901024	-1.240950	0.063437
O21	O	1.234357	-0.907616	0.396770
O22	O	0.269841	-1.446108	-0.439356
O23	O	0.603174	-1.112775	-0.106023
O24	O	0.936507	-0.779441	0.227311
O25	O	0.567647	-1.743739	-0.439327
O26	O	0.900980	-1.410406	-0.105994
O27	O	1.234313	-1.077072	0.227339
O28	O	0.269808	-1.574503	-0.567731
O29	O	0.603141	-1.241169	-0.234398
O30	O	0.936474	-0.907836	0.098936
O31	O	0.439315	-1.445983	-0.269909
O32	O	0.772648	-1.112650	0.063424
O33	O	1.105982	-0.779316	0.396758
O34	O	0.439234	-1.276615	-0.439303
O35	O	0.772567	-0.943282	-0.105970
O36	O	1.105901	-0.609949	0.227364
O37	O	0.567504	-1.446044	-0.737068
O38	O	0.900837	-1.112711	-0.403735
O39	O	1.234171	-0.779377	-0.070401
O40	O	0.567548	-1.276588	-0.567637
O41	O	0.900881	-0.943254	-0.234304
O42	O	1.234214	-0.609921	0.099029
O43	O	0.439157	-1.574466	-0.737109
O44	O	0.772491	-1.241133	-0.403775
O45	O	1.105824	-0.907799	-0.070442
O46	O	0.737040	-1.574246	-0.439274
O47	O	1.070373	-1.240913	-0.105941
O48	O	1.403707	-0.907580	0.227393
O49	O	0.736978	-1.445919	-0.567621
O50	O	1.070312	-1.112586	-0.234288
O51	O	1.403645	-0.779252	0.099046
C52	C	0.503387	-1.238684	-0.503467
C53	C	0.836721	-0.905351	-0.170133
C54	C	1.170054	-0.572017	0.163200
C55	C	0.503400	-1.122531	-0.503479
C56	C	0.836733	-0.789198	-0.170146
C57	C	1.170067	-0.455864	0.163188
C58	C	0.566991	-1.070760	-0.566883
C59	C	0.900324	-0.737427	-0.233550
C60	C	1.233658	-0.404093	0.099783
C61	C	0.567005	-0.950710	-0.566898
C62	C	0.900339	-0.617376	-0.233564
C63	C	1.233672	-0.284043	0.099769
C64	C	0.774927	-1.510093	-0.503463
C65	C	1.108260	-1.176760	-0.170129
C66	C	1.441593	-0.843426	0.163204
C67	C	0.891080	-1.510145	-0.503483
C68	C	1.224413	-1.176812	-0.170150
C69	C	1.557746	-0.843479	0.163183
C70	C	0.942869	-1.446623	-0.566944
C71	C	1.276202	-1.113290	-0.233611
C72	C	1.609535	-0.779956	0.099722
C73	C	1.062919	-1.446676	-0.566967
C74	C	1.396252	-1.113342	-0.233634
C75	C	1.729585	-0.780009	0.099699
C76	C	1.230847	-1.510290	-0.503539
C77	C	1.564180	-1.176957	-0.170206
C78	C	1.897513	-0.843623	0.163128
C79	C	1.114693	-1.510244	-0.503525
C80	C	1.448027	-1.176911	-0.170192
C81	C	1.781360	-0.843578	0.163142
C82	C	0.503316	-1.510265	-0.776066
C83	C	0.836650	-1.176932	-0.442733
C84	C	1.169983	-0.843598	-0.109399
C85	C	0.503274	-1.510295	-0.892219
C86	C	0.836607	-1.176962	-0.558886
C87	C	1.169940	-0.843629	-0.225552
C88	C	0.503438	-0.782764	-0.503517
C89	C	0.836772	-0.449431	-0.170184
C90	C	1.170105	-0.116097	0.163150
C91	C	0.503426	-0.898917	-0.503505
C92	C	0.836759	-0.565584	-0.170171
C93	C	1.170092	-0.232251	0.163162
C94	C	0.439751	-1.573850	-0.944024
C95	C	0.773084	-1.240516	-0.610691
C96	C	1.106418	-0.907183	-0.277357
C97	C	0.439705	-1.573882	-1.064074
C98	C	0.773039	-1.240549	-0.730741
C99	C	1.106372	-0.907216	-0.397408
C100	C	0.503441	-1.510183	-0.231986
C101	C	0.836775	-1.176850	0.101348
C102	C	1.170108	-0.843517	0.434681
C103	C	0.503190	-1.510355	-0.115833
C104	C	0.836523	-1.177022	0.217500
C105	C	1.169856	-0.843689	0.550834
H106	H	0.621451	-0.906188	-0.621177
H107	H	0.954784	-0.572855	-0.287844
H108	H	1.288118	-0.239521	0.045489
H109	H	0.448984	-0.943432	-0.449215
H110	H	0.782317	-0.610099	-0.115882
H111	H	1.115651	-0.276766	0.217451
F112	F	0.432245	-1.064301	-0.432544
F113	F	0.765579	-0.730968	-0.099211
F114	F	1.098912	-0.397635	0.234123
F115	F	1.121128	-1.375595	-0.637990
F116	F	1.454462	-1.042261	-0.304657
F117	F	1.787795	-0.708928	0.028676
F118	F	0.368624	-1.645010	-1.122302
F119	F	0.701957	-1.311676	-0.788968
F120	F	1.035291	-0.978343	-0.455635
F121	F	0.949289	-1.581277	-0.432483
F122	F	1.282622	-1.247944	-0.099149
F123	F	1.615956	-0.914611	0.234184
H124	H	0.557580	-1.455945	-1.071289
H125	H	0.890914	-1.122612	-0.737956
H126	H	1.224247	-0.789279	-0.404622
H127	H	0.898333	-1.392195	-0.621256
H128	H	1.231666	-1.058862	-0.287922
H129	H	1.564999	-0.725529	0.045411
H130	H	1.070164	-1.564635	-0.449194
H131	H	1.403497	-1.231302	-0.115861
H132	H	1.736831	-0.897969	0.217472
F133	F	0.368688	-1.644919	-0.885832
F134	F	0.702021	-1.311585	-0.552499
F135	F	1.035354	-0.978252	-0.219165
F136	F	0.574311	-1.439200	-0.950411
F137	F	0.907644	-1.105867	-0.617078
F138	F	1.240977	-0.772533	-0.283744
H139	H	0.621419	-1.115314	-0.621159
H140	H	0.954753	-0.781981	-0.287826
H141	H	1.288086	-0.448647	0.045507
