data_functionalizedCrystal
_audit_creation_method	'MofGen! by Chris Wilmer'
_symmetry_space_group_name_H-M	'P1'
_symmetry_Int_Tables_number	1
_symmetry_cell_setting	triclinic
loop_
_symmetry_equiv_pos_as_xyz
  x,y,z
_cell_length_a	19.188925
_cell_length_b	19.188930
_cell_length_c	12.996460
_cell_angle_alpha	89.988736
_cell_angle_beta	89.993464
_cell_angle_gamma	83.143665
loop_
_atom_site_label
_atom_site_type_symbol
_atom_site_fract_x
_atom_site_fract_y
_atom_site_fract_z
O1	O	0.926148	0.087151	-0.085600
O2	O	1.259481	0.420484	0.247733
O3	O	1.592815	0.753817	0.581066
O4	O	0.722836	0.098889	-0.085599
O5	O	1.056170	0.432222	0.247734
O6	O	1.389503	0.765556	0.581067
O7	O	0.830359	-0.008636	-0.085580
O8	O	1.163693	0.324697	0.247754
O9	O	1.497026	0.658031	0.581087
O10	O	0.818625	0.194676	-0.085620
O11	O	1.151958	0.528009	0.247713
O12	O	1.485292	0.861342	0.581047
O13	O	0.830348	-0.008642	0.085554
O14	O	1.163682	0.324692	0.418887
O15	O	1.497015	0.658025	0.752221
O16	O	0.722825	0.098883	0.085535
O17	O	1.056159	0.432216	0.418868
O18	O	1.389492	0.765550	0.752201
O19	O	0.926137	0.087145	0.085533
O20	O	1.259470	0.420478	0.418867
O21	O	1.592804	0.753812	0.752200
Cu22	Cu	0.824480	0.093013	0.101160
Cu23	Cu	1.157813	0.426347	0.434493
Cu24	Cu	1.491147	0.759680	0.767826
Cu25	Cu	0.824493	0.093020	-0.101226
Cu26	Cu	1.157827	0.426354	0.232108
Cu27	Cu	1.491160	0.759687	0.565441
O28	O	0.818614	0.194670	0.085514
O29	O	1.151947	0.528003	0.418847
O30	O	1.485281	0.861336	0.752181
C31	C	0.696820	0.098507	-0.000032
C32	C	1.030153	0.431840	0.333301
C33	C	1.363486	0.765173	0.666635
C34	C	0.619315	0.097367	-0.000031
C35	C	0.952648	0.430701	0.333303
C36	C	1.285982	0.764034	0.666636
C37	C	0.057545	0.152831	-0.000044
C38	C	0.390878	0.486165	0.333289
C39	C	0.724211	0.819498	0.666623
C40	C	0.130368	0.153908	-0.000050
C41	C	0.463701	0.487241	0.333284
C42	C	0.797035	0.820575	0.666617
C43	C	0.175302	0.090816	-0.000035
C44	C	0.508636	0.424149	0.333298
C45	C	0.841969	0.757482	0.666631
C46	C	0.147408	0.026642	-0.000042
C47	C	0.480742	0.359976	0.333292
C48	C	0.814075	0.693309	0.666625
C49	C	0.074586	0.025568	-0.000046
C50	C	0.407920	0.358901	0.333287
C51	C	0.741253	0.692234	0.666620
N52	N	0.295976	0.045138	0.058229
N53	N	0.629309	0.378471	0.391562
N54	N	0.962642	0.711804	0.724896
N55	N	0.365153	0.046163	0.058235
N56	N	0.698486	0.379496	0.391569
N57	N	1.031820	0.712829	0.724902
C58	C	0.394712	0.094050	-0.000024
C59	C	0.728045	0.427383	0.333310
C60	C	1.061378	0.760716	0.666643
N61	N	0.352478	0.140884	-0.058277
N62	N	0.685811	0.474217	0.275056
N63	N	1.019145	0.807550	0.608390
N64	N	0.283294	0.139860	-0.058279
N65	N	0.616627	0.473194	0.275055
N66	N	0.949961	0.806527	0.608388
C67	C	0.254267	0.091974	-0.000031
C68	C	0.587600	0.425307	0.333302
C69	C	0.920933	0.758641	0.666636
C70	C	0.501561	0.159386	-0.000031
C71	C	0.834894	0.492720	0.333302
C72	C	1.168227	0.826053	0.666636
C73	C	0.574385	0.160460	-0.000043
C74	C	0.907719	0.493794	0.333290
C75	C	1.241052	0.827127	0.666624
C76	C	0.591425	0.033193	-0.000025
C77	C	0.924758	0.366526	0.333309
C78	C	1.258091	0.699859	0.666642
C79	C	0.518601	0.032121	-0.000023
C80	C	0.851934	0.365454	0.333310
C81	C	1.185268	0.698787	0.666644
C82	C	0.473673	0.095220	-0.000021
C83	C	0.807006	0.428553	0.333312
C84	C	1.140340	0.761886	0.666645
C85	C	0.829974	-0.034650	-0.000010
C86	C	1.163307	0.298683	0.333323
C87	C	1.496640	0.632017	0.666657
C88	C	0.828833	-0.112154	-0.000001
C89	C	1.162166	0.221179	0.333332
C90	C	1.495500	0.554512	0.666666
C91	C	0.891924	-0.157079	0.000003
C92	C	1.225257	0.176254	0.333337
C93	C	1.558591	0.509587	0.666670
C94	C	0.890852	-0.229903	-0.000013
C95	C	1.224186	0.103430	0.333320
C96	C	1.557519	0.436763	0.666654
C97	C	0.826686	-0.257799	-0.000013
C98	C	1.160020	0.075535	0.333320
C99	C	1.493353	0.408868	0.666653
C100	C	0.763587	-0.212864	-0.000024
C101	C	1.096920	0.120470	0.333310
C102	C	1.430254	0.453803	0.666643
C103	C	0.764660	-0.140041	-0.000018
C104	C	1.097994	0.193292	0.333316
C105	C	1.431327	0.526625	0.666649
N106	N	0.777635	-0.365805	0.058227
N107	N	1.110968	-0.032471	0.391560
N108	N	1.444302	0.300862	0.724894
N109	N	0.776620	-0.434983	0.058223
N110	N	1.109953	-0.101650	0.391557
N111	N	1.443286	0.231683	0.724890
C112	C	0.823448	-0.477207	-0.000034
C113	C	1.156781	-0.143874	0.333299
C114	C	1.490115	0.189459	0.666633
N115	N	0.871341	-0.447641	-0.058275
N116	N	1.204674	-0.114307	0.275058
N117	N	1.538008	0.219026	0.608392
N118	N	0.872359	-0.378456	-0.058267
N119	N	1.205692	-0.045123	0.275067
N120	N	1.539025	0.288211	0.608400
C121	C	0.825515	-0.336761	-0.000021
C122	C	1.158848	-0.003428	0.333313
C123	C	1.492182	0.329906	0.666646
C124	C	0.885381	-0.601097	-0.000049
C125	C	1.218715	-0.267763	0.333284
C126	C	1.552048	0.065570	0.666618
C127	C	0.884307	-0.673922	-0.000072
C128	C	1.217640	-0.340588	0.333262
C129	C	1.550974	-0.007255	0.666595
C130	C	0.757040	-0.656880	-0.000072
C131	C	1.090373	-0.323547	0.333261
C132	C	1.423706	0.009786	0.666595
C133	C	0.758116	-0.584057	-0.000060
C134	C	1.091449	-0.250724	0.333274
C135	C	1.424782	0.082610	0.666607
C136	C	0.822289	-0.556170	-0.000043
C137	C	1.155622	-0.222837	0.333290
C138	C	1.488955	0.110497	0.666624
C139	C	0.952154	0.087527	-0.000036
C140	C	1.285487	0.420861	0.333297
C141	C	1.618820	0.754194	0.666630
C142	C	1.029658	0.088666	-0.000044
C143	C	1.362992	0.422000	0.333289
C144	C	1.696325	0.755333	0.666622
C145	C	0.819000	0.220684	-0.000058
C146	C	1.152333	0.554017	0.333275
C147	C	1.485666	0.887350	0.666608
C148	C	0.820140	0.298188	-0.000074
C149	C	1.153474	0.631522	0.333259
C150	C	1.486807	0.964855	0.666593
N151	N	0.824476	0.093008	0.243507
N152	N	1.157809	0.426341	0.576840
N153	N	1.491143	0.759675	0.910174
N154	N	0.824503	0.093020	-0.243573
N155	N	1.157836	0.426354	0.089761
N156	N	1.491170	0.759687	0.423094
C157	C	0.824492	0.093021	0.663321
C158	C	1.157826	0.426354	0.996655
C159	C	1.491159	0.759688	1.329988
C160	C	0.824486	0.093020	0.546516
C161	C	1.157819	0.426353	0.879849
C162	C	1.491152	0.759687	1.213183
C163	C	0.824484	0.093015	0.453418
C164	C	1.157818	0.426348	0.786751
C165	C	1.491151	0.759682	1.120084
C166	C	0.824477	0.093013	0.336605
C167	C	1.157810	0.426346	0.669939
C168	C	1.491144	0.759679	1.003272
H169	H	0.628010	-0.018178	-0.000021
H170	H	0.961343	0.315155	0.333312
H171	H	1.294676	0.648489	0.666646
Cl172	Cl	0.678797	-0.527576	-0.000061
Cl173	Cl	1.012130	-0.194243	0.333273
Cl174	Cl	1.345463	0.139090	0.666606
H175	H	0.704794	-0.679592	-0.000078
H176	H	1.038128	-0.346258	0.333256
H177	H	1.371461	-0.012925	0.666589
Cl178	Cl	0.609442	0.241132	-0.000053
Cl179	Cl	0.942776	0.574466	0.333280
Cl180	Cl	1.276109	0.907799	0.666613
H181	H	0.495896	-0.020129	-0.000017
H182	H	0.829230	0.313204	0.333316
H183	H	1.162563	0.646537	0.666649
H184	H	0.942230	-0.266488	-0.000013
H185	H	1.275564	0.066845	0.333320
H186	H	1.608897	0.400178	0.666653
Cl187	Cl	0.001068	0.232156	-0.000056
Cl188	Cl	0.334401	0.565489	0.333278
Cl189	Cl	0.667734	0.898822	0.666611
Cl190	Cl	0.966054	-0.566035	-0.000022
Cl191	Cl	1.299387	-0.232702	0.333311
Cl192	Cl	1.632721	0.100631	0.666644
Cl193	Cl	0.685339	-0.083561	-0.000023
Cl194	Cl	1.018672	0.249773	0.333311
Cl195	Cl	1.352006	0.583106	0.666644
Cl196	Cl	0.972598	-0.122025	-0.000005
Cl197	Cl	1.305932	0.211308	0.333328
Cl198	Cl	1.639265	0.544641	0.666662
Cl199	Cl	0.203896	-0.052674	-0.000028
Cl200	Cl	0.537230	0.280660	0.333305
Cl201	Cl	0.870563	0.613993	0.666638
H202	H	0.153078	0.206160	-0.000040
H203	H	0.486411	0.539494	0.333294
H204	H	0.819744	0.872827	0.666627
Cl205	Cl	0.682921	-0.247931	-0.000032
Cl206	Cl	1.016254	0.085402	0.333301
Cl207	Cl	1.349587	0.418736	0.666634
H208	H	0.051883	-0.026685	-0.000047
H209	H	0.385216	0.306649	0.333286
H210	H	0.718549	0.639982	0.666620
Cl211	Cl	0.445077	0.238709	-0.000033
Cl212	Cl	0.778410	0.572042	0.333300
Cl213	Cl	1.111743	0.905375	0.666634
H214	H	0.935686	-0.710500	-0.000074
H215	H	1.269019	-0.377166	0.333260
H216	H	1.602352	-0.043833	0.666593
