data_functionalizedCrystal
_audit_creation_method	'MofGen! by Chris Wilmer'
_symmetry_space_group_name_H-M	'P1'
_symmetry_Int_Tables_number	1
_symmetry_cell_setting	triclinic
loop_
_symmetry_equiv_pos_as_xyz
  x,y,z
_cell_length_a	14.044220
_cell_length_b	18.266242
_cell_length_c	14.044209
_cell_angle_alpha	89.991400
_cell_angle_beta	86.811584
_cell_angle_gamma	90.003954
loop_
_atom_site_label
_atom_site_type_symbol
_atom_site_fract_x
_atom_site_fract_y
_atom_site_fract_z
O1	O	1.277172	0.060811	-0.230170
O2	O	1.777172	0.560811	0.269830
O3	O	1.000501	0.060830	-0.221864
O4	O	1.500501	0.560830	0.278136
O5	O	1.134685	0.060810	-0.087681
O6	O	1.634685	0.560810	0.412319
O7	O	1.142988	0.060831	-0.364353
O8	O	1.642988	0.560831	0.135647
O9	O	1.134659	-0.060952	-0.087671
O10	O	1.634659	0.439048	0.412329
O11	O	1.000475	-0.060932	-0.221854
O12	O	1.500475	0.439068	0.278146
O13	O	1.277147	-0.060951	-0.230160
O14	O	1.777147	0.439049	0.269840
Zn15	Zn	1.138807	-0.080274	-0.226006
Zn16	Zn	1.638807	0.419726	0.273994
Zn17	Zn	1.138841	0.080153	-0.226018
Zn18	Zn	1.638841	0.580153	0.273982
O19	O	1.142963	-0.060931	-0.364343
O20	O	1.642963	0.439069	0.135657
C21	C	0.964866	-0.000049	-0.218223
C22	C	1.464866	0.499951	0.281777
C23	C	0.858724	-0.000043	-0.207379
C24	C	1.358724	0.499957	0.292621
N25	N	1.138791	-0.189761	-0.225997
N26	N	1.638791	0.310239	0.274003
C27	C	0.664386	-0.000059	-0.187553
C28	C	1.164386	0.499941	0.312447
C29	C	0.613256	-0.000056	-0.264467
C30	C	1.113256	0.499944	0.235533
C31	C	0.505120	-0.000065	-0.253435
C32	C	1.005120	0.499935	0.246565
C33	C	0.772532	-0.000050	-0.198583
C34	C	1.272532	0.499950	0.301417
C35	C	1.198232	-0.228078	-0.166614
C36	C	1.698232	0.271922	0.333386
C37	C	1.198237	-0.304723	-0.166610
C38	C	1.698237	0.195277	0.333390
C39	C	1.138813	-0.343048	-0.226006
C40	C	1.638813	0.156952	0.273994
C41	C	1.079361	-0.304721	-0.285393
C42	C	1.579361	0.195279	0.214607
C43	C	1.079350	-0.228078	-0.285388
C44	C	1.579350	0.271922	0.214612
N45	N	1.133803	-0.463373	-0.309456
N46	N	1.633803	0.036627	0.190544
N47	N	1.133819	-0.536182	-0.309458
N48	N	1.633819	-0.036182	0.190542
C49	C	1.138841	-0.573970	-0.226022
C50	C	1.638841	-0.073970	0.273978
N51	N	1.143865	-0.536200	-0.142584
N52	N	1.643865	-0.036200	0.357416
N53	N	1.143854	-0.463385	-0.142583
N54	N	1.643854	0.036615	0.357417
C55	C	1.138818	-0.426155	-0.226018
C56	C	1.638818	0.073845	0.273982
C57	C	1.198291	-0.695395	-0.166631
C58	C	1.698291	-0.195395	0.333369
C59	C	1.198290	-0.772041	-0.166625
C60	C	1.698290	-0.272041	0.333375
C61	C	1.079418	-0.772037	-0.285416
C62	C	1.579418	-0.272037	0.214584
C63	C	1.079414	-0.695393	-0.285413
C64	C	1.579414	-0.195393	0.214587
C65	C	1.138855	-0.657076	-0.226022
C66	C	1.638855	-0.157076	0.273978
C67	C	1.312781	-0.000070	-0.233800
C68	C	1.812781	0.499930	0.266200
C69	C	1.418924	-0.000072	-0.244645
C70	C	1.918924	0.499928	0.255355
C71	C	1.131037	-0.000072	-0.052054
C72	C	1.631037	0.499928	0.447946
C73	C	1.120193	-0.000074	0.054088
C74	C	1.620193	0.499926	0.554088
N75	N	1.138864	0.189640	-0.226020
N76	N	1.638864	0.689640	0.273980
C77	C	1.100368	-0.000067	0.248426
C78	C	1.600368	0.499933	0.748426
C79	C	1.177283	-0.000071	0.299556
C80	C	1.677283	0.499929	0.799556
C81	C	1.166252	-0.000067	0.407692
C82	C	1.666252	0.499933	0.907692
C83	C	1.111398	-0.000071	0.140280
C84	C	1.611398	0.499929	0.640280
C85	C	1.146613	-0.000054	0.600031
C86	C	1.646613	0.499946	1.100031
C87	C	1.157463	-0.000064	0.493888
C88	C	1.657463	0.499936	0.993888
H89	H	0.650694	-0.000047	-0.338601
H90	H	1.150694	0.499953	0.161399
O91	O	0.619580	-0.000031	-0.099186
O92	O	1.119580	0.499969	0.400814
C93	C	0.520022	-0.000055	-0.107707
C94	C	1.020022	0.499945	0.392293
H95	H	0.503063	0.022996	-0.180274
H96	H	1.003063	0.522996	0.319726
H97	H	0.491902	-0.058472	-0.100772
H98	H	0.991902	0.441528	0.399228
C99	C	0.492997	0.019383	0.060772
C100	C	0.992997	0.519383	0.560772
C101	C	0.472166	0.047700	-0.028353
C102	C	0.972166	0.547700	0.471647
H103	H	0.463475	0.048837	0.109723
H104	H	0.963475	0.548837	0.609723
H105	H	0.560070	0.019396	0.066514
H106	H	1.060070	0.519396	0.566514
H107	H	0.469562	-0.029297	0.066537
H108	H	0.969562	0.470703	0.566537
H109	H	0.495611	0.096375	-0.034122
H110	H	0.995611	0.596375	0.465878
H111	H	0.405095	0.047696	-0.034095
H112	H	0.905095	0.547696	0.465905
H113	H	1.026241	-0.000061	0.285863
H114	H	1.526241	0.499939	0.785863
H115	H	1.246630	-0.196883	-0.118252
H116	H	1.746630	0.303117	0.381748
H117	H	1.031030	-0.803241	-0.333773
H118	H	1.531030	-0.303241	0.166227
H119	H	1.246643	-0.335927	-0.118252
H120	H	1.746643	0.164073	0.381748
H121	H	1.246689	-0.664196	-0.118267
H122	H	1.746689	-0.164196	0.381733
H123	H	1.031016	-0.664193	-0.333772
H124	H	1.531016	-0.164193	0.166228
H125	H	1.251416	-0.000026	0.262117
H126	H	1.751416	0.499974	0.762117
H127	H	1.030974	-0.335929	-0.333752
H128	H	1.530974	0.164071	0.166248
H129	H	1.246690	-0.803240	-0.118263
H130	H	1.746690	-0.303240	0.381737
H131	H	1.030945	-0.196879	-0.333745
H132	H	1.530945	0.303121	0.166255
