data_functionalizedCrystal
_audit_creation_method	'MofGen! by Chris Wilmer'
_symmetry_space_group_name_H-M	'P1'
_symmetry_Int_Tables_number	1
_symmetry_cell_setting	triclinic
loop_
_symmetry_equiv_pos_as_xyz
  x,y,z
_cell_length_a	14.395555
_cell_length_b	14.395555
_cell_length_c	14.395555
_cell_angle_alpha	59.998369
_cell_angle_beta	90.000811
_cell_angle_gamma	60.002087
loop_
_atom_site_label
_atom_site_type_symbol
_atom_site_fract_x
_atom_site_fract_y
_atom_site_fract_z
Zr1	Zr	0.894861	1.016881	-0.122003
O2	O	0.746536	1.210673	-0.270338
O3	O	0.940333	0.823079	-0.076520
O4	O	0.940332	1.016876	-0.270327
O5	O	0.746536	1.016883	0.076337
O6	O	1.093199	1.016883	-0.270331
O7	O	0.746537	1.016876	-0.076530
O8	O	1.093201	0.670215	0.076356
O9	O	0.746534	1.363551	-0.270350
O10	O	1.073807	0.902801	-0.057137
O11	O	0.959723	0.902801	0.056949
O12	O	0.959721	1.130972	-0.171235
O13	O	0.845637	1.130972	-0.057149
Zr14	Zr	1.138665	1.016903	0.121797
Zr15	Zr	1.138667	1.016892	-0.122008
Zr16	Zr	0.894859	1.016892	0.121803
Zr17	Zr	0.894858	1.260703	-0.122022
Zr18	Zr	1.138668	0.773080	0.121816
O19	O	1.093194	1.210704	0.076314
O20	O	1.093196	1.210689	-0.270346
O21	O	0.746534	1.210689	0.076322
O22	O	1.286990	0.823110	0.270132
O23	O	1.286993	0.823094	-0.076528
O24	O	0.940330	0.823094	0.270141
O25	O	1.286990	1.016900	-0.076543
O26	O	1.093195	1.016907	0.270122
O27	O	0.940328	1.016900	0.270126
O28	O	1.286989	1.016907	0.076324
O29	O	0.940327	1.363560	-0.270354
O30	O	1.093199	0.670224	0.270149
O31	O	1.286992	0.670232	0.270144
O32	O	1.286994	0.670224	0.076351
O33	O	0.746533	1.363560	-0.076557
O34	O	0.940326	1.363568	-0.076561
O35	O	1.073805	0.902811	0.171029
O36	O	1.187889	0.902811	0.056944
O37	O	1.073804	1.130982	-0.057154
O38	O	0.959720	1.130982	0.056931
C39	C	1.016767	0.711907	-0.000079
C40	C	1.016769	0.608398	-0.000071
C41	C	0.954549	0.485927	0.062095
C42	C	1.061823	0.471654	0.107211
C43	C	0.909515	0.624009	-0.045135
C44	C	1.124095	0.409687	0.045044
C45	C	0.971709	0.562104	-0.107362
C46	C	1.079047	0.547786	-0.062272
C47	C	0.711800	1.016878	-0.000096
C48	C	0.608298	1.016873	-0.000093
C49	C	0.609913	0.892464	0.062116
C50	C	0.516896	0.954660	0.107197
C51	C	0.516886	0.954682	-0.045141
C52	C	0.516644	1.079070	0.045050
C53	C	0.516648	1.079074	-0.107347
C54	C	0.423614	1.141361	-0.062294
C55	C	1.321727	1.016905	-0.000110
C56	C	1.425229	1.016910	-0.000112
C57	C	1.016765	1.016878	-0.305066
C58	C	1.016766	1.016873	-0.408568
C59	C	1.016759	1.321876	-0.000126
C60	C	1.016758	1.425385	-0.000134
C61	C	1.078976	0.892464	-0.406946
C62	C	0.971704	0.954653	-0.499970
C63	C	1.124012	0.954689	-0.499973
C64	C	0.909431	1.079063	-0.500229
C65	C	1.061816	1.079081	-0.500218
C66	C	0.954480	1.141361	-0.593259
C67	C	1.016761	1.016905	0.304861
C68	C	1.016760	1.016910	0.408363
C69	C	1.321731	0.711921	-0.000086
C70	C	1.425234	0.608417	-0.000081
C71	C	1.016765	0.711921	0.304884
C72	C	1.016766	0.608417	0.408394
C73	C	1.321728	0.711935	0.304877
C74	C	1.425231	0.608435	0.408385
C75	C	0.711798	1.321848	-0.305083
C76	C	0.608295	1.425348	-0.408590
C77	C	0.711796	1.321862	-0.000119
C78	C	0.608292	1.425366	-0.000125
C79	C	1.016761	1.321862	-0.305090
C80	C	1.016761	1.425366	-0.408600
C81	C	1.548023	0.547866	0.062091
C82	C	1.578885	0.409754	0.107153
C83	C	1.578790	0.562160	-0.045197
C84	C	1.454732	0.471605	0.045044
C85	C	1.454640	0.624084	-0.107364
C86	C	1.485428	0.485982	-0.062329
C87	C	0.954561	0.547826	0.406786
C88	C	1.061838	0.409726	0.499812
C89	C	0.909527	0.562060	0.499811
C90	C	1.124105	0.471618	0.500057
C91	C	0.971717	0.624025	0.500042
C92	C	1.079058	0.485935	0.593085
C93	C	1.423617	0.547828	0.531179
C94	C	1.516605	0.409731	0.561980
C95	C	1.516672	0.562011	0.562008
C96	C	1.516857	0.471639	0.437823
C97	C	1.516909	0.623992	0.437854
C98	C	1.609915	0.485905	0.468582
H99	H	1.131733	0.574753	-0.114858
F100	F	0.515695	0.885924	-0.094930
H101	H	0.901795	1.246646	-0.672894
F102	F	0.921860	0.610732	-0.225900
H103	H	1.459773	0.458960	-0.114938
H104	H	0.517617	1.131606	-0.198024
F105	F	0.885907	0.583226	0.302536
H106	H	0.933592	0.902070	-0.500896
H107	H	0.689670	0.787264	0.114795
F108	F	1.713997	0.450562	0.435052
H109	H	1.131496	0.787268	-0.327179
F110	F	0.790824	1.147735	-0.499161
F111	F	1.111663	1.147755	-0.498952
F112	F	1.242562	0.885938	-0.501156
H113	H	1.099955	0.318103	0.500745
F114	F	1.385024	0.422688	0.094997
F115	F	1.581272	0.583261	0.130948
F116	F	1.111637	0.423008	0.225772
H117	H	1.632422	0.318116	0.197837
F118	F	1.648695	0.610821	-0.095012
H119	H	1.214845	0.434245	0.499233
F120	F	1.515668	0.743766	0.367941
H121	H	0.343985	1.246646	-0.114898
H122	H	1.401106	0.715745	-0.198029
F123	F	0.790966	0.743740	-0.094917
F124	F	1.147917	0.450614	0.697166
F125	F	1.242701	0.290014	0.094962
F126	F	0.921865	0.743818	0.498762
F127	F	0.885894	0.450299	0.130922
H128	H	0.515970	0.902083	0.197893
F129	F	0.790970	0.610703	0.500981
F130	F	1.319367	0.583247	0.564428
H131	H	1.517509	0.318122	0.615469
F132	F	1.515750	0.422824	0.368045
H133	H	0.517469	1.131615	0.083245
F134	F	1.517894	0.610576	0.631978
