data_functionalizedCrystal
_audit_creation_method	'MofGen! by Chris Wilmer'
_symmetry_space_group_name_H-M	'P1'
_symmetry_Int_Tables_number	1
_symmetry_cell_setting	triclinic
loop_
_symmetry_equiv_pos_as_xyz
  x,y,z
_cell_length_a	8.559649
_cell_length_b	8.559649
_cell_length_c	7.088929
_cell_angle_alpha	84.655815
_cell_angle_beta	84.675669
_cell_angle_gamma	110.221336
loop_
_atom_site_label
_atom_site_type_symbol
_atom_site_fract_x
_atom_site_fract_y
_atom_site_fract_z
O1	O	-2.108181	-0.036315	-0.158989
O2	O	-1.608181	0.463685	0.341011
O3	O	-1.632696	0.047467	-0.158989
O4	O	-1.132696	0.547467	0.341011
O5	O	-1.912330	-0.232167	-0.158987
O6	O	-1.412330	0.267833	0.341013
O7	O	-1.828548	0.243319	-0.158991
O8	O	-1.328548	0.743319	0.341009
O9	O	-1.949709	-0.269612	0.158988
O10	O	-1.449709	0.230388	0.658988
O11	O	-1.670076	0.010021	0.158986
O12	O	-1.170076	0.510021	0.658986
O13	O	-2.145561	-0.073760	0.158986
O14	O	-1.645561	0.426240	0.658986
Cu15	Cu	-1.911231	-0.035289	0.188020
Cu16	Cu	-1.411231	0.464711	0.688020
Cu17	Cu	-1.867026	0.008995	-0.188023
Cu18	Cu	-1.367026	0.508995	0.311977
O19	O	-1.865927	0.205873	0.158984
O20	O	-1.365927	0.705873	0.658984
C21	C	-1.591077	0.035093	-0.000002
C22	C	-1.091077	0.535093	0.499998
C23	C	-1.411378	0.053992	-0.000002
C24	C	-0.911378	0.553992	0.499998
C25	C	-1.937368	-0.311198	-0.000003
C26	C	-1.437368	0.188802	0.499997
C27	C	-1.956266	-0.490896	-0.000014
C28	C	-1.456266	0.009104	0.499986
C29	C	-1.187180	-0.061387	-0.000002
C30	C	-0.687180	0.438613	0.499998
C31	C	-1.366879	-0.080286	-0.000003
C32	C	-0.866879	0.419714	0.499997
C33	C	-1.840888	0.284905	-0.000004
C34	C	-1.340888	0.784905	0.499996
C35	C	-1.821989	0.464604	-0.000006
C36	C	-1.321989	0.964604	0.499994
N37	N	-1.942335	-0.066438	0.452508
N38	N	-1.442335	0.433562	0.952508
N39	N	-1.835937	0.040130	-0.452511
N40	N	-1.335937	0.540130	0.047489
H41	H	-1.311988	0.183421	-0.000012
H42	H	-0.811988	0.683421	0.499988
H43	H	-1.725668	0.150565	0.465842
H44	H	-1.225668	0.650565	0.965842
H45	H	-1.466256	-0.209704	-0.000012
H46	H	-0.966256	0.290296	0.499988
H47	H	-1.692570	-0.436018	-0.000000
H48	H	-1.192570	0.063982	0.500000
H49	H	-2.052621	-0.176871	0.534165
H50	H	-1.552621	0.323129	1.034165
H51	H	-2.085696	-0.590286	0.000002
H52	H	-1.585696	-0.090286	0.500002
