data_functionalizedCrystal
_audit_creation_method	'MofGen! by Chris Wilmer'
_symmetry_space_group_name_H-M	'P1'
_symmetry_Int_Tables_number	1
_symmetry_cell_setting	triclinic
loop_
_symmetry_equiv_pos_as_xyz
  x,y,z
_cell_length_a	10.654554
_cell_length_b	27.731996
_cell_length_c	9.730223
_cell_angle_alpha	89.992740
_cell_angle_beta	89.999030
_cell_angle_gamma	83.554115
loop_
_atom_site_label
_atom_site_type_symbol
_atom_site_fract_x
_atom_site_fract_y
_atom_site_fract_z
O1	O	1.664943	0.067896	-0.114334
O2	O	1.299191	0.074362	-0.114334
O3	O	1.493461	0.000801	-0.114304
O4	O	1.470673	0.141456	-0.114364
O5	O	1.493458	0.000803	0.114276
O6	O	1.299188	0.074364	0.114246
O7	O	1.664941	0.067898	0.114246
Zn8	Zn	1.482064	0.071131	0.150538
Zn9	Zn	1.482067	0.071129	-0.150626
O10	O	1.470671	0.141458	0.114216
C11	C	1.492991	-0.017208	-0.000010
C12	C	1.491581	-0.070873	0.000004
C13	C	1.252412	0.073887	-0.000043
C14	C	1.113029	0.072466	-0.000042
C15	C	0.932423	0.026481	-0.000040
C16	C	1.063388	0.027817	-0.000027
C17	C	1.031698	0.115782	-0.000056
C18	C	0.900736	0.114446	-0.000060
C19	C	0.950720	-0.024305	-0.000029
C20	C	1.081684	-0.022970	-0.000016
C21	C	1.482712	-0.403646	-0.124662
C22	C	1.477358	-0.605337	-0.124686
O23	O	1.476613	-0.631413	-0.230653
N24	N	1.476692	-0.630557	-0.000088
C25	C	1.477356	-0.605351	0.124525
O26	O	1.476653	-0.631430	0.230502
C27	C	1.482701	-0.403660	0.124547
C28	C	1.483380	-0.378443	-0.000059
C29	C	1.483390	-0.378428	-0.249257
C30	C	1.484735	-0.328009	-0.249250
C31	C	1.485403	-0.302806	-0.124647
C32	C	1.484725	-0.328024	-0.000051
C33	C	1.483356	-0.378455	0.249158
C34	C	1.484689	-0.328029	0.249153
C35	C	1.485368	-0.302811	0.124547
C36	C	1.486738	-0.252402	0.124559
N37	N	1.487404	-0.227181	-0.000039
C38	C	1.486737	-0.252384	-0.124642
C39	C	1.474552	-0.711242	0.124504
C40	C	1.473218	-0.761665	0.124498
C41	C	1.473218	-0.761647	-0.124712
C42	C	1.474561	-0.711224	-0.124706
C43	C	1.475218	-0.686022	-0.000094
C44	C	1.489563	-0.146499	-0.124617
C45	C	1.490914	-0.096075	-0.124599
C46	C	1.490907	-0.096097	0.124611
C47	C	1.489563	-0.146517	0.124594
C48	C	1.488887	-0.171716	-0.000032
O49	O	1.487470	-0.226294	0.230471
O50	O	1.487411	-0.226295	-0.230603
C51	C	1.481367	-0.454065	-0.124669
C52	C	1.480689	-0.479282	-0.000073
C53	C	1.481357	-0.454080	0.124530
C54	C	1.479355	-0.529705	-0.000079
C55	C	1.478687	-0.554907	-0.124682
C56	C	1.479354	-0.529687	-0.249279
C57	C	1.480699	-0.479268	-0.249272
C58	C	1.480691	-0.479300	0.249127
C59	C	1.479347	-0.529720	0.249110
C60	C	1.478679	-0.554922	0.124507
C61	C	1.711720	0.068372	-0.000048
C62	C	1.851102	0.069794	-0.000059
C63	C	1.471140	0.159468	-0.000082
C64	C	1.472550	0.213133	-0.000105
N65	N	1.482072	0.071132	0.356074
N66	N	1.482070	0.071123	-0.356162
C67	C	1.568116	0.038571	0.428013
C68	C	1.568113	0.038565	0.571896
C69	C	1.396017	0.103686	0.571888
C70	C	1.396015	0.103690	0.428008
C71	C	1.667478	0.000975	0.428019
C72	C	1.667474	0.000969	0.571902
H73	H	1.072127	0.152136	-0.000055
H74	H	1.124256	-0.042103	-0.095670
C75	C	1.301358	0.139503	0.348869
C76	C	1.206765	0.175339	0.427990
C77	C	1.112104	0.211154	0.348849
C78	C	1.112036	0.211132	0.190586
C79	C	1.206633	0.175295	0.111456
C80	C	1.301294	0.139480	0.190597
H81	H	1.206812	0.175357	0.545154
H82	H	1.042077	0.237683	0.407427
H83	H	1.041962	0.237645	0.132001
H84	H	1.206586	0.175278	-0.005708
H85	H	1.371321	0.112951	0.132019
H86	H	1.485283	-0.307481	-0.350717
H87	H	1.638454	-0.034138	0.616532
H88	H	1.489006	-0.167010	-0.226099
H89	H	0.922200	-0.044167	0.095633
C90	C	0.903505	-0.046156	-0.133343
C91	C	0.761817	-0.050659	-0.152426
C92	C	0.714601	-0.072509	-0.285742
C93	C	0.809073	-0.089855	-0.399974
C94	C	0.950770	-0.085352	-0.380895
C95	C	0.997986	-0.063502	-0.247580
H96	H	0.691875	-0.037818	-0.067861
H97	H	0.609707	-0.075843	-0.299865
H98	H	0.774121	-0.106030	-0.498662
H99	H	1.020712	-0.098193	-0.465460
H100	H	1.102880	-0.060169	-0.233456
H101	H	1.489022	-0.167050	0.226058
H102	H	1.763634	0.009251	0.610948
C103	C	1.475297	-0.683487	-0.261773
C104	C	1.584196	-0.695542	-0.364568
C105	C	1.584928	-0.667808	-0.501641
C106	C	1.476762	-0.628018	-0.535919
C107	C	1.367854	-0.615962	-0.433121
C108	C	1.367122	-0.643696	-0.296048
H109	H	1.664275	-0.724998	-0.339195
H110	H	1.665549	-0.676733	-0.577738
H111	H	1.477304	-0.607488	-0.637389
H112	H	1.287775	-0.586505	-0.458494
H113	H	1.286501	-0.634770	-0.219951
H114	H	1.647614	-0.036176	0.388981
C115	C	1.472496	-0.789399	0.261570
C116	C	1.363601	-0.777343	0.364369
C117	C	1.362875	-0.805075	0.501448
C118	C	1.471046	-0.844862	0.535728
C119	C	1.579950	-0.856920	0.432926
C120	C	1.580675	-0.829189	0.295848
H121	H	1.283519	-0.747888	0.338996
H122	H	1.282257	-0.796148	0.577548
H123	H	1.470509	-0.865390	0.637201
H124	H	1.660031	-0.886375	0.458300
H125	H	1.661293	-0.838115	0.219747
H126	H	1.758161	0.012748	0.383387
C127	C	1.144229	-0.043706	0.133317
C128	C	1.105443	-0.020291	0.272687
C129	C	1.167988	-0.041027	0.406017
C130	C	1.269318	-0.085178	0.399976
C131	C	1.308110	-0.108595	0.260600
C132	C	1.245565	-0.087859	0.127270
H133	H	1.030428	0.012394	0.277164
H134	H	1.139271	-0.023692	0.509192
H135	H	1.315618	-0.100528	0.498674
H136	H	1.383126	-0.141280	0.256123
H137	H	1.274282	-0.105194	0.024095
H138	H	0.834528	0.149716	-0.000059
H139	H	1.491469	-0.075546	-0.226072
H140	H	1.482841	-0.398943	-0.350730
H141	H	1.472675	-0.782176	-0.226169
H142	H	1.475093	-0.690728	0.225983
H143	H	1.482805	-0.398978	0.350626
H144	H	1.325951	0.130193	0.630472
H145	H	1.485205	-0.307511	0.350629
H146	H	1.491456	-0.075569	0.226060
H147	H	1.478816	-0.550216	-0.350736
H148	H	1.478804	-0.550248	0.350587
H149	H	1.481251	-0.458740	-0.350739
H150	H	1.481236	-0.458786	0.350597
