data_functionalizedCrystal
_audit_creation_method	'MofGen! by Chris Wilmer'
_symmetry_space_group_name_H-M	'P1'
_symmetry_Int_Tables_number	1
_symmetry_cell_setting	triclinic
loop_
_symmetry_equiv_pos_as_xyz
  x,y,z
_cell_length_a	15.297475
_cell_length_b	18.050589
_cell_length_c	15.297738
_cell_angle_alpha	99.659269
_cell_angle_beta	72.640597
_cell_angle_gamma	80.331321
loop_
_atom_site_label
_atom_site_type_symbol
_atom_site_fract_x
_atom_site_fract_y
_atom_site_fract_z
Zn1	Zn	1.512611	-0.621396	-0.771452
Zn2	Zn	1.485589	-0.719579	-0.615933
Zn3	Zn	1.330203	-0.569413	-0.589093
Zn4	Zn	1.357040	-0.719517	-0.744535
O5	O	1.421361	-0.657476	-0.680253
O6	O	1.639163	-0.656201	-0.773319
O7	O	1.442437	-0.677930	-0.482235
O8	O	1.354477	-0.472399	-0.613316
O9	O	1.619310	-0.728336	-0.659060
O10	O	1.488492	-0.510591	-0.747294
O11	O	1.328276	-0.567603	-0.462516
O12	O	1.203626	-0.567543	-0.587216
O13	O	1.400217	-0.728230	-0.878244
O14	O	1.223343	-0.677824	-0.701418
O15	O	1.514514	-0.656141	-0.898019
O16	O	1.468460	-0.823480	-0.632961
O17	O	1.374015	-0.823434	-0.727444
C18	C	1.179742	-0.617037	-0.638484
C19	C	1.076380	-0.599758	-0.620637
C20	C	0.826121	-0.780975	-0.807811
C21	C	0.923234	-0.797214	-0.824576
C22	C	0.961525	-0.747851	-0.773593
C23	C	0.902694	-0.682247	-0.705841
C24	C	0.805570	-0.666009	-0.689069
C25	C	0.940975	-0.632886	-0.654851
C26	C	0.882144	-0.567281	-0.587099
C27	C	0.785030	-0.551046	-0.570331
C28	C	0.746738	-0.600409	-0.621314
C29	C	1.038099	-0.649123	-0.671624
C30	C	1.017548	-0.534158	-0.552882
C31	C	0.920435	-0.517919	-0.536116
C32	C	1.421246	-0.850407	-0.680219
C33	C	1.421287	-0.932963	-0.680249
C34	C	1.369985	-1.132422	-0.731618
C35	C	1.332638	-1.163886	-0.642845
C36	C	1.421381	-1.084111	-0.680277
C37	C	1.458775	-1.199737	-0.769069
C38	C	1.421470	-1.230113	-0.680311
C39	C	1.383981	-1.114473	-0.591451
C40	C	1.510167	-1.150335	-0.717739
C41	C	1.472842	-1.181773	-0.628913
C42	C	1.421327	-1.000002	-0.680259
C43	C	1.421523	-1.314219	-0.680321
C44	C	1.663923	-0.698074	-0.722186
C45	C	1.767289	-0.715375	-0.740056
C46	C	1.463373	-0.697977	-0.922818
C47	C	1.481276	-0.715236	-1.026185
C48	C	1.421505	-0.463799	-0.680313
C49	C	1.421567	-0.381266	-0.680339
C50	C	1.549125	-0.780787	-1.085015
C51	C	1.565951	-0.796997	-1.182134
C52	C	1.514925	-0.747662	-1.220432
C53	C	1.447071	-0.682113	-1.161601
C54	C	1.430248	-0.665898	-1.064473
C55	C	1.396048	-0.632773	-1.199890
C56	C	1.328194	-0.567224	-1.141060
C57	C	1.311373	-0.551012	-1.043941
C58	C	1.362399	-0.600347	-1.005644
C59	C	1.412871	-0.648988	-1.297018
C60	C	1.293994	-0.534099	-1.276477
C61	C	1.277168	-0.517889	-1.179357
C62	C	1.379566	-0.617088	-0.438641
C63	C	1.361843	-0.599650	-0.335306
H64	H	0.737129	-0.497633	-0.515153
O65	O	1.345905	-0.584643	-0.911273
C66	C	1.251134	-0.583356	-0.863415
H67	H	1.222358	-0.618629	-0.912735
H68	H	1.207904	-0.521164	-0.839225
C69	C	1.280226	-0.574988	-0.716616
C70	C	1.244885	-0.618317	-0.777189
H71	H	1.276369	-0.596550	-0.663425
H72	H	1.344074	-0.575852	-0.748857
H73	H	1.244196	-0.523164	-0.696468
H74	H	1.280922	-0.670137	-0.797346
H75	H	1.181042	-0.617463	-0.744949
O76	O	1.244323	-0.486268	-1.313688
C77	C	1.193974	-0.527876	-1.359487
H78	H	1.183120	-0.580511	-1.329208
H79	H	1.235470	-0.547535	-1.438065
C80	C	1.110911	-0.411022	-1.381461
C81	C	1.097574	-0.475666	-1.344266
H82	H	1.051448	-0.378816	-1.372076
H83	H	1.144834	-0.382990	-1.350608
H84	H	1.145494	-0.427414	-1.446940
H85	H	1.063001	-0.459273	-1.278786
H86	H	1.063642	-0.503694	-1.375107
O87	O	1.531093	-0.763384	-1.314742
C88	C	1.447577	-0.772975	-1.331775
H89	H	1.384326	-0.741979	-1.266549
H90	H	1.448546	-0.837134	-1.348647
C91	C	1.518163	-0.776724	-1.495812
C92	C	1.440478	-0.738648	-1.415703
H93	H	1.513785	-0.755553	-1.547585
H94	H	1.574432	-0.770266	-1.484338
H95	H	1.518963	-0.830188	-1.509860
H96	H	1.439686	-0.685188	-1.401650
H97	H	1.384209	-0.745097	-1.427177
O98	O	1.631861	-0.860719	-1.239139
C99	C	1.673305	-0.900778	-1.184516
H100	H	1.623220	-0.885415	-1.108699
H101	H	1.742166	-0.883685	-1.186403
C102	C	1.754727	-1.007246	-1.317838
C103	C	1.693209	-0.988383	-1.224719
H104	H	1.767009	-1.061285	-1.342638
H105	H	1.726808	-0.980257	-1.354640
H106	H	1.812104	-0.992996	-1.319398
H107	H	1.635829	-1.002624	-1.223161
H108	H	1.721118	-1.015376	-1.187918
H109	H	1.257597	-1.170451	-0.611186
O110	O	0.863223	-0.454278	-0.470192
C111	C	0.796581	-0.477045	-0.400346
H112	H	0.824806	-0.539437	-0.399524
H113	H	0.727963	-0.472138	-0.416389
C114	C	0.743681	-0.347633	-0.304496
C115	C	0.778352	-0.424261	-0.303482
H116	H	0.732432	-0.315071	-0.244746
H117	H	0.788577	-0.332293	-0.351554
H118	H	0.686503	-0.343554	-0.317869
H119	H	0.835534	-0.428340	-0.290120
H120	H	0.733465	-0.439600	-0.256419
H121	H	1.048724	-0.493963	-0.511366
H122	H	1.326432	-1.110730	-0.774948
H123	H	1.085990	-0.702539	-0.726789
H124	H	1.352304	-1.077691	-0.516340
H125	H	1.516333	-1.203300	-0.585449
H126	H	1.256128	-0.497633	-0.996044
H127	H	1.585199	-1.143777	-0.749436
H128	H	1.590667	-0.820945	-1.053824
H129	H	1.490366	-1.236591	-0.844145
H130	H	0.667662	-0.587189	-0.607669
H131	H	0.794933	-0.821162	-0.849308
O132	O	1.478889	-0.712628	-1.354077
C133	C	1.567479	-0.707942	-1.346385
H134	H	1.557211	-0.667943	-1.276211
H135	H	1.608302	-0.684139	-1.406474
C136	C	1.635587	-0.838136	-1.437796
C137	C	1.622975	-0.789014	-1.351603
H138	H	1.669822	-0.888145	-1.441018
H139	H	1.575903	-0.841293	-1.442981
H140	H	1.669603	-0.818290	-1.487861
H141	H	1.588950	-0.808855	-1.301540
H142	H	1.682655	-0.785862	-1.346409
O143	O	1.211133	-0.454279	-1.122223
C144	C	1.122548	-0.458944	-1.129943
H145	H	1.122432	-0.521934	-1.155821
H146	H	1.108029	-0.424470	-1.182120
C147	C	1.045691	-0.348153	-1.001152
C148	C	1.045547	-0.425519	-1.032928
H149	H	0.998192	-0.327532	-0.941310
H150	H	1.105373	-0.345007	-0.995952
H151	H	1.033595	-0.319434	-1.044641
H152	H	1.057655	-0.454238	-0.989446
H153	H	0.985865	-0.428668	-1.038118
O154	O	1.055860	-0.763757	-0.789877
C155	C	1.084105	-0.836296	-0.771410
H156	H	1.030858	-0.872373	-0.777533
H157	H	1.087958	-0.827763	-0.697217
C158	C	1.247081	-0.834019	-0.835668
C159	C	1.181686	-0.878332	-0.843197
H160	H	1.307275	-0.859948	-0.879946
H161	H	1.228052	-0.785146	-0.848106
H162	H	1.250280	-0.826911	-0.773837
H163	H	1.178479	-0.885431	-0.905022
H164	H	1.200716	-0.927207	-0.830770
O165	O	0.980251	-0.860950	-0.890449
C166	C	0.925629	-0.901047	-0.931836
H167	H	0.856985	-0.859609	-0.923173
H168	H	0.909346	-0.949966	-0.895867
C169	C	1.064997	-0.985636	-1.047977
C170	C	0.980691	-0.934739	-1.037344
H171	H	1.098962	-1.006422	-1.113058
H172	H	1.101797	-0.958624	-1.020092
H173	H	1.051415	-1.026395	-1.017996
H174	H	0.994274	-0.893976	-1.067314
H175	H	0.943894	-0.961745	-1.065236
