data_functionalizedCrystal
_audit_creation_method	'MofGen! by Chris Wilmer'
_symmetry_space_group_name_H-M	'P1'
_symmetry_Int_Tables_number	1
_symmetry_cell_setting	triclinic
loop_
_symmetry_equiv_pos_as_xyz
  x,y,z
_cell_length_a	13.032831
_cell_length_b	21.295417
_cell_length_c	13.033454
_cell_angle_alpha	82.776573
_cell_angle_beta	89.091650
_cell_angle_gamma	82.833712
loop_
_atom_site_label
_atom_site_type_symbol
_atom_site_fract_x
_atom_site_fract_y
_atom_site_fract_z
Zn1	Zn	1.498454	-0.305622	-0.780811
Zn2	Zn	1.520142	-0.425729	-0.608795
Zn3	Zn	1.348293	-0.308977	-0.587041
Zn4	Zn	1.326412	-0.399351	-0.758935
O5	O	1.423325	-0.359920	-0.683895
O6	O	1.645250	-0.331189	-0.776253
O7	O	1.515580	-0.422686	-0.461982
O8	O	1.368293	-0.220445	-0.612796
O9	O	1.661184	-0.419432	-0.649873
O10	O	1.478615	-0.217980	-0.755158
O11	O	1.389323	-0.336908	-0.445999
O12	O	1.201472	-0.311331	-0.591583
O13	O	1.331000	-0.374474	-0.905764
O14	O	1.185396	-0.377728	-0.717873
O15	O	1.457398	-0.305612	-0.921837
O16	O	1.494363	-0.510317	-0.628661
O17	O	1.352031	-0.490937	-0.738967
C18	C	1.156117	-0.342032	-0.649994
C19	C	1.041801	-0.334392	-0.635515
C20	C	1.423201	-0.523467	-0.683827
C21	C	1.423237	-0.593437	-0.683844
C22	C	0.982921	-0.363907	-0.691452
C23	C	0.864769	-0.356012	-0.676489
C24	C	1.480639	-0.624956	-0.758014
C25	C	1.480672	-0.690699	-0.758044
C26	C	1.423317	-0.724922	-0.683887
C27	C	1.365903	-0.693395	-0.609710
C28	C	1.365864	-0.627652	-0.609689
N29	N	1.426973	-0.835434	-0.592892
N30	N	1.427016	-0.897887	-0.592917
C31	C	1.423431	-0.923001	-0.683948
N32	N	1.419821	-0.883304	-0.774960
N33	N	1.419783	-0.820846	-0.774935
C34	C	1.423353	-0.796209	-0.683902
C35	C	1.480871	-1.025806	-0.758157
C36	C	1.480896	-1.091549	-0.758188
C37	C	1.366135	-1.094245	-0.609846
C38	C	1.366103	-1.028501	-0.609823
C39	C	1.423476	-0.994286	-0.683978
C40	C	1.691577	-0.377879	-0.717930
C41	C	1.805890	-0.385532	-0.732433
C42	C	1.389339	-0.336726	-0.952162
C43	C	1.374856	-0.326842	-1.066482
C44	C	1.423476	-0.195734	-0.683990
C45	C	1.423540	-0.125768	-0.684031
C46	C	1.430868	-0.364877	-1.125357
C47	C	1.415901	-0.354662	-1.243512
C48	C	1.457239	-0.382982	-0.416680
C49	C	1.471921	-0.392702	-0.302386
H50	H	0.827711	-0.324893	-0.617521
O51	O	1.509078	-0.418025	-1.076270
H52	H	1.488817	-0.464484	-1.094569
H53	H	1.004739	-0.303275	-0.576552
H54	H	1.527584	-0.997946	-0.818542
O55	O	1.550141	-0.445852	-1.253311
H56	H	1.529883	-0.492311	-1.271612
H57	H	1.527353	-0.597100	-0.818397
H58	H	0.842945	-0.416644	-0.791411
O59	O	1.032008	-0.405106	-0.769585
H60	H	1.086776	-0.444326	-0.729624
O61	O	1.542594	-0.724708	-0.838037
H62	H	1.582487	-0.689872	-0.889592
H63	H	1.319202	-0.721263	-0.549333
H64	H	1.315826	-0.286715	-1.103551
H65	H	1.319120	-0.601989	-0.549289
O66	O	1.542804	-1.125549	-0.838194
H67	H	1.625757	-1.119821	-0.830848
O68	O	1.304276	-1.131147	-0.529853
H69	H	1.313952	-1.182159	-0.542322
H70	H	1.356866	-0.314532	-1.280577
O71	O	1.304213	-0.994502	-0.529808
H72	H	1.264345	-1.029344	-0.478237
