data_functionalizedCrystal
_audit_creation_method	'MofGen! by Chris Wilmer'
_symmetry_space_group_name_H-M	'P1'
_symmetry_Int_Tables_number	1
_symmetry_cell_setting	triclinic
loop_
_symmetry_equiv_pos_as_xyz
  x,y,z
_cell_length_a	15.944551
_cell_length_b	22.010155
_cell_length_c	15.944551
_cell_angle_alpha	89.994557
_cell_angle_beta	96.501262
_cell_angle_gamma	90.011216
loop_
_atom_site_label
_atom_site_type_symbol
_atom_site_fract_x
_atom_site_fract_y
_atom_site_fract_z
O1	O	1.114538	0.050463	-0.108330
O2	O	0.869988	0.050478	-0.121686
O3	O	0.998941	0.050465	0.007267
O4	O	0.985585	0.050477	-0.237283
O5	O	0.998902	-0.050586	0.007267
O6	O	0.869950	-0.050572	-0.121686
O7	O	1.114499	-0.050587	-0.108330
Cu8	Cu	0.992221	-0.059806	-0.115008
Cu9	Cu	0.992267	0.059697	-0.115008
O10	O	0.985546	-0.050574	-0.237283
C11	C	0.838675	-0.000045	-0.121132
C12	C	0.745429	-0.000039	-0.119470
C13	C	0.530572	-0.000055	-0.035565
C14	C	0.469571	0.049770	-0.074528
C15	C	0.574703	-0.000047	-0.116462
C16	C	0.469555	-0.049858	-0.074547
C17	C	0.409790	-0.000056	-0.113551
C18	C	0.514930	0.049820	-0.155447
C19	C	0.514921	-0.049853	-0.155455
C20	C	0.453937	-0.000016	-0.194476
C21	C	0.669705	-0.000040	-0.118137
C22	C	0.314789	-0.000058	-0.111883
N23	N	0.992195	-0.143859	-0.115007
C24	C	1.043213	-0.563639	-0.165976
C25	C	1.043223	-0.627247	-0.165974
O26	O	1.086570	-0.660139	-0.209304
N27	N	0.992283	-0.659066	-0.114999
C28	C	0.941337	-0.627274	-0.064015
O29	O	0.898010	-0.660180	-0.020656
C30	C	0.941332	-0.563668	-0.064014
C31	C	0.992268	-0.531852	-0.114999
C32	C	1.094146	-0.531823	-0.216957
C33	C	1.094135	-0.468220	-0.216960
C34	C	1.043190	-0.436433	-0.165982
C35	C	0.992257	-0.468249	-0.115002
C36	C	0.890390	-0.531877	-0.013026
C37	C	0.890391	-0.468267	-0.013028
C38	C	0.941327	-0.436451	-0.064014
C39	C	0.941301	-0.372858	-0.064028
N40	N	0.992241	-0.341039	-0.115003
C41	C	1.043186	-0.372826	-0.165981
C42	C	0.941352	-0.760852	-0.064022
C43	C	0.941351	-0.824457	-0.064028
C44	C	1.043239	-0.824425	-0.165986
C45	C	1.043234	-0.760819	-0.165984
C46	C	0.992291	-0.729033	-0.114998
C47	C	1.043157	-0.239255	-0.165984
C48	C	1.043139	-0.175646	-0.165985
C49	C	0.941255	-0.175684	-0.064024
C50	C	0.941270	-0.239287	-0.064026
C51	C	0.992228	-0.271071	-0.115008
O52	O	0.897979	-0.339926	-0.020717
O53	O	1.086513	-0.339913	-0.209325
C54	C	1.145813	-0.000063	-0.108885
C55	C	1.239059	-0.000064	-0.110547
C56	C	0.998367	-0.000060	0.038561
C57	C	0.996705	-0.000061	0.131807
N58	N	0.992300	0.143750	-0.115002
C59	C	0.986120	-0.000047	-0.268577
C60	C	0.987782	-0.000043	-0.361823
C61	C	0.912801	-0.000047	0.346663
C62	C	0.951744	-0.049873	0.407681
C63	C	0.993698	-0.000056	0.302533
C64	C	0.951801	0.049754	0.407664
C65	C	0.990787	-0.000048	0.467445
C66	C	1.032663	-0.049923	0.362322
C67	C	1.032709	0.049749	0.362299
C68	C	1.071711	-0.000089	0.423298
C69	C	0.995372	-0.000061	0.207530
C70	C	0.989119	-0.000048	0.562446
H71	H	0.534934	0.091989	-0.189638
H72	H	0.917591	0.091882	0.427741
H73	H	0.848906	-0.442390	0.028492
C74	C	0.885937	-0.726454	-0.008645
C75	C	0.841315	-0.767940	0.035974
C76	C	0.790251	-0.736279	0.086986
H77	H	0.920256	-0.701635	0.030066
H78	H	0.847232	-0.701660	-0.043025
H79	H	0.880014	-0.792723	0.070352
H80	H	0.806979	-0.792761	-0.002715
H81	H	0.751547	-0.711485	0.052606
H82	H	0.824578	-0.711460	0.125692
H83	H	0.759964	-0.764422	0.117261
C84	C	1.098506	-0.273647	-0.221429
C85	C	1.143086	-0.232160	-0.266088
C86	C	1.194067	-0.263819	-0.317184
H87	H	1.137240	-0.298456	-0.187129
H88	H	1.064108	-0.298451	-0.260111
H89	H	1.177481	-0.207366	-0.227410
H90	H	1.104373	-0.207349	-0.300404
H91	H	1.159669	-0.288623	-0.355866
H92	H	1.232796	-0.288627	-0.282877
H93	H	1.224315	-0.235675	-0.347496
C94	C	1.078161	-0.106133	0.335502
C95	C	1.079134	-0.105502	0.247810
C96	C	1.121025	-0.157276	0.223070
H97	H	1.134470	-0.106335	0.362347
H98	H	1.049595	-0.141485	0.351349
H99	H	1.107701	-0.070160	0.231971
H100	H	1.022836	-0.105309	0.220944
H101	H	1.092459	-0.192628	0.238918
H102	H	1.177331	-0.157473	0.249921
H103	H	1.121684	-0.156857	0.163569
C104	C	0.409604	0.000117	-0.284040
C105	C	0.358594	0.051854	-0.296179
C106	C	0.317731	0.051996	-0.378669
H107	H	0.450472	0.000502	-0.323003
H108	H	0.375603	-0.035266	-0.292795
H109	H	0.392592	0.087228	-0.287433
H110	H	0.317711	0.051480	-0.257236
H111	H	0.283731	0.016613	-0.387424
H112	H	0.358605	0.052379	-0.417625
H113	H	0.283111	0.087096	-0.386914
C114	C	1.098395	-0.726247	-0.221448
C115	C	1.047468	-0.689746	-0.278315
C116	C	1.098254	-0.657900	-0.329430
H117	H	1.137064	-0.701382	-0.187151
H118	H	1.128714	-0.754275	-0.251858
H119	H	1.017163	-0.661721	-0.247908
H120	H	1.008800	-0.714596	-0.312630
H121	H	1.128573	-0.685928	-0.359840
H122	H	1.136921	-0.633038	-0.295127
H123	H	1.063707	-0.633134	-0.368026
H124	H	0.917511	-0.091993	0.427789
H125	H	0.899783	-0.265193	-0.022520
C126	C	0.885804	-0.141194	-0.008789
C127	C	0.801161	-0.156662	-0.031906
C128	C	0.750061	-0.124894	0.018955
H129	H	0.901306	-0.151590	0.048698
H130	H	0.893044	-0.098751	-0.016106
H131	H	0.793925	-0.199095	-0.024582
H132	H	0.785633	-0.146264	-0.089385
H133	H	0.757301	-0.082451	0.011638
H134	H	0.765570	-0.135293	0.076440
H135	H	0.692625	-0.135380	0.003272
C136	C	0.541619	-0.105997	-0.201171
C137	C	0.501260	-0.106379	-0.283861
C138	C	0.525828	-0.158098	-0.325988
H139	H	0.601033	-0.105438	-0.202433
H140	H	0.526232	-0.141383	-0.172399
H141	H	0.516652	-0.071002	-0.312626
H142	H	0.441846	-0.106946	-0.282623
H143	H	0.510441	-0.193484	-0.297216
H144	H	0.585242	-0.157536	-0.327244
H145	H	0.498442	-0.158367	-0.382095
H146	H	0.449453	-0.091979	-0.040315
H147	H	1.135616	-0.442321	-0.258474
C148	C	0.823252	-0.000229	0.302289
C149	C	0.781263	-0.052517	0.325143
C150	C	0.698777	-0.052713	0.284272
H151	H	0.794136	0.034767	0.318428
H152	H	0.824898	0.000100	0.242914
H153	H	0.779613	-0.052841	0.384504
H154	H	0.810354	-0.087521	0.309002
H155	H	0.700423	-0.052383	0.224897
H156	H	0.669669	-0.017714	0.300415
H157	H	0.670280	-0.088192	0.299767
H158	H	1.084618	-0.149744	-0.207507
C159	C	1.149486	-0.566218	-0.272404
C160	C	1.194067	-0.524729	-0.317058
C161	C	1.245044	-0.556386	-0.368161
H162	H	1.188220	-0.591031	-0.238108
H163	H	1.115085	-0.591018	-0.311088
H164	H	1.228466	-0.499939	-0.278378
H165	H	1.155355	-0.499914	-0.351369
H166	H	1.210643	-0.581186	-0.406846
H167	H	1.283773	-0.581197	-0.333859
H168	H	1.275293	-0.528240	-0.398471
H169	H	0.563905	0.000003	0.031573
C170	C	0.835067	-0.566303	0.042426
C171	C	0.790477	-0.524842	0.087087
C172	C	0.739512	-0.556532	0.138190
H173	H	0.796338	-0.591125	0.008130
H174	H	0.869477	-0.591096	0.081106
H175	H	0.756069	-0.500059	0.048411
H176	H	0.829184	-0.500018	0.121399
H177	H	0.773923	-0.581325	0.176870
H178	H	0.700789	-0.581354	0.103888
H179	H	0.709258	-0.528406	0.168505
H180	H	1.066912	0.091871	0.342168
C181	C	0.442836	0.105879	-0.028750
C182	C	0.481986	0.105641	0.054409
C183	C	0.457373	0.157312	0.096612
H184	H	0.459124	0.141306	-0.056843
H185	H	0.383289	0.105659	-0.028426
H186	H	0.541520	0.105867	0.054080
H187	H	0.465703	0.070225	0.082524
H188	H	0.397826	0.157091	0.096936
H189	H	0.473662	0.192735	0.068513
H190	H	0.483926	0.157154	0.153042
C191	C	1.098699	-0.858866	-0.221272
C192	C	1.183333	-0.843368	-0.198166
C193	C	1.234442	-0.875077	-0.249081
H194	H	1.091519	-0.901313	-0.214013
H195	H	1.083147	-0.848431	-0.278749
H196	H	1.198880	-0.853807	-0.140704
H197	H	1.190540	-0.800927	-0.205429
H198	H	1.218889	-0.864643	-0.306558
H199	H	1.227254	-0.917523	-0.241819
H200	H	1.291870	-0.864562	-0.233416
C201	C	1.161389	-0.000168	0.467351
C202	C	1.218493	-0.000708	0.406800
C203	C	1.301111	-0.000795	0.447345
H204	H	1.170276	0.035220	0.501292
H205	H	1.169813	-0.035259	0.501980
H206	H	1.210072	0.034380	0.372185
H207	H	1.209634	-0.036093	0.372856
H208	H	1.309536	-0.035886	0.481974
H209	H	1.309989	0.034594	0.481285
H210	H	1.339866	-0.001167	0.406268
H211	H	0.899864	-0.850357	-0.022520
