data_functionalizedCrystal
_audit_creation_method	'MofGen! by Chris Wilmer'
_symmetry_space_group_name_H-M	'P1'
_symmetry_Int_Tables_number	1
_symmetry_cell_setting	triclinic
loop_
_symmetry_equiv_pos_as_xyz
  x,y,z
_cell_length_a	16.109301
_cell_length_b	19.188930
_cell_length_c	14.586319
_cell_angle_alpha	89.991095
_cell_angle_beta	89.998857
_cell_angle_gamma	83.303183
loop_
_atom_site_label
_atom_site_type_symbol
_atom_site_fract_x
_atom_site_fract_y
_atom_site_fract_z
O1	O	1.102833	0.089745	-0.076200
O2	O	0.860734	0.100913	-0.076215
O3	O	0.988770	-0.006310	-0.076189
O4	O	0.974797	0.196968	-0.076226
O5	O	0.988761	-0.006312	0.076292
O6	O	0.860725	0.100912	0.076266
O7	O	1.102824	0.089743	0.076280
Cu8	Cu	0.981774	0.095327	0.090196
Cu9	Cu	0.981785	0.095329	-0.090130
O10	O	0.974788	0.196967	0.076255
C11	C	0.829757	0.100460	0.000024
C12	C	0.737466	0.099103	0.000020
C13	C	0.428271	0.158294	0.000025
C14	C	0.514987	0.159575	0.000019
C15	C	0.535282	0.032358	0.000030
C16	C	0.448568	0.031077	0.000029
C17	C	0.395064	0.094048	0.000031
C18	C	0.568495	0.096609	0.000027
C19	C	0.662516	0.097997	0.000021
C20	C	0.301037	0.092659	0.000035
C21	C	0.988313	-0.032323	0.000054
C22	C	0.986955	-0.109831	0.000062
C23	C	1.062082	-0.154579	0.000070
C24	C	1.060806	-0.227406	0.000056
C25	C	0.984398	-0.255481	0.000050
C26	C	0.909261	-0.210723	0.000036
C27	C	0.910540	-0.137898	0.000042
N28	N	0.925991	-0.363623	0.051939
N29	N	0.924782	-0.432805	0.051936
C30	C	0.980543	-0.474899	0.000032
N31	N	1.037571	-0.445200	-0.051858
N32	N	1.038783	-0.376012	-0.051850
C33	C	0.983004	-0.334447	0.000044
C34	C	1.054291	-0.598615	0.000023
C35	C	1.053012	-0.671443	0.000003
C36	C	0.901465	-0.654758	-0.000007
C37	C	0.902747	-0.581932	0.000004
C38	C	0.979162	-0.553865	0.000024
C39	C	1.133802	0.090196	0.000039
C40	C	1.226093	0.091553	0.000038
C41	C	0.975245	0.222980	0.000010
C42	C	0.976604	0.300487	-0.000004
N43	N	0.981773	0.095325	0.217028
N44	N	0.981793	0.095325	-0.216962
C45	C	1.038486	0.047863	0.452045
C46	C	1.038488	0.047861	0.548027
C47	C	0.925074	0.142790	0.548014
C48	C	0.925068	0.142788	0.452034
C49	C	0.981779	0.095325	0.404052
C50	C	0.981787	0.095326	0.596013
C51	C	0.981789	0.095324	0.700080
C52	C	0.981776	0.095326	0.299979
H53	H	1.124306	-0.131732	0.000083
O54	O	1.093436	0.001698	0.405355
C55	C	1.049035	-0.041396	0.349898
H56	H	0.983896	-0.013576	0.335497
H57	H	1.083772	-0.052481	0.282414
H58	H	1.043535	-0.092976	0.386939
H59	H	0.542020	0.211890	0.000013
H60	H	0.839252	-0.677616	-0.000016
H61	H	0.384711	0.209568	0.000026
H62	H	1.121986	-0.263847	0.000059
H63	H	0.878902	0.181434	0.587090
H64	H	1.114192	-0.707877	0.000005
O65	O	0.835091	-0.238075	-0.000089
C66	C	0.829816	-0.279677	-0.079074
H67	H	0.895414	-0.297824	-0.105396
H68	H	0.796848	-0.327360	-0.061317
H69	H	0.792921	-0.247488	-0.134375
H70	H	0.841570	-0.545497	0.000002
O71	O	1.093656	0.001731	0.594504
C72	C	1.143690	-0.040171	0.531569
H73	H	1.144520	-0.011543	0.463146
H74	H	1.210123	-0.050806	0.559297
H75	H	1.116887	-0.092045	0.521373
H76	H	0.878886	0.181438	0.412956
H77	H	0.849360	-0.101463	0.000035
O78	O	1.128590	-0.571461	-0.000015
C79	C	1.194628	-0.626578	-0.000001
H80	H	1.171503	-0.676041	-0.028871
H81	H	1.247989	-0.611363	-0.044271
H82	H	1.217794	-0.636901	0.073150
H83	H	0.578855	-0.018910	0.000030
H84	H	0.421531	-0.021243	0.000031
