data_functionalizedCrystal
_audit_creation_method	'MofGen! by Chris Wilmer'
_symmetry_space_group_name_H-M	'P1'
_symmetry_Int_Tables_number	1
_symmetry_cell_setting	triclinic
loop_
_symmetry_equiv_pos_as_xyz
  x,y,z
_cell_length_a	17.038278
_cell_length_b	10.066323
_cell_length_c	11.026607
_cell_angle_alpha	100.716828
_cell_angle_beta	99.848259
_cell_angle_gamma	80.599741
loop_
_atom_site_label
_atom_site_type_symbol
_atom_site_fract_x
_atom_site_fract_y
_atom_site_fract_z
O1	O	1.065954	0.113492	0.284248
O2	O	0.837726	0.113492	0.280005
O3	O	0.932925	0.113487	0.103520
O4	O	0.970755	0.113497	0.460733
O5	O	0.951094	-0.113488	0.069796
O6	O	0.855895	-0.113482	0.246281
O7	O	1.084124	-0.113483	0.250523
Zn8	Zn	0.972894	-0.149520	0.243048
Zn9	Zn	0.948955	0.149529	0.287481
O10	O	0.988924	-0.113478	0.427008
C11	C	0.817138	0.000005	0.259282
C12	C	0.728722	0.000005	0.247761
N13	N	0.989237	-0.353613	0.212723
C14	C	0.228337	0.000009	0.176985
C15	C	0.311414	0.000001	0.187818
C16	C	0.359280	0.000010	0.304438
C17	C	0.324065	0.000013	0.410230
C18	C	0.240990	0.000012	0.399394
C19	C	0.610431	0.000007	0.342717
C20	C	0.693512	0.000013	0.353545
C21	C	0.680855	-0.000003	0.131132
C22	C	0.597778	0.000004	0.120308
C23	C	0.562571	0.000000	0.226099
C24	C	0.444198	0.000006	0.315515
C25	C	0.477655	-0.000006	0.215019
C26	C	0.967223	-0.578572	0.253590
C27	C	0.954626	-0.421415	0.276939
C28	C	1.104711	0.000007	0.271248
C29	C	1.193127	0.000016	0.282769
C30	C	0.935030	0.000001	0.040727
C31	C	0.914225	0.000006	-0.096134
N32	N	0.932617	0.353622	0.317797
C33	C	0.971671	0.000008	-0.164009
C34	C	0.950169	0.000013	-0.305462
C35	C	0.986819	0.000011	0.489802
C36	C	1.007623	0.000015	0.626664
H37	H	0.189369	0.000009	0.082022
H38	H	0.581776	0.000011	0.428861
Cl39	Cl	0.813712	0.000020	-0.168085
Cl40	Cl	1.108140	0.000021	-0.301390
H41	H	1.036771	-0.000000	-0.117399
Cl42	Cl	1.049387	-0.443602	0.101163
H43	H	0.483180	0.000018	0.410468
Cl44	Cl	0.849651	0.000027	-0.377408
H45	H	0.340078	-0.000011	0.101676
H46	H	0.438678	0.000002	0.120070
Cl47	Cl	0.537606	0.000041	-0.026299
H48	H	0.709530	-0.000001	0.045004
Cl49	Cl	0.894486	-0.331425	0.388513
H50	H	0.212324	0.000013	0.485535
H51	H	0.893667	-0.588082	0.390058
H52	H	0.732484	0.000001	0.448513
H53	H	1.006180	-0.636866	0.181337
Cl54	Cl	0.384239	0.000023	0.556839
