data_functionalizedCrystal
_audit_creation_method	'MofGen! by Chris Wilmer'
_symmetry_space_group_name_H-M	'P1'
_symmetry_Int_Tables_number	1
_symmetry_cell_setting	triclinic
loop_
_symmetry_equiv_pos_as_xyz
  x,y,z
_cell_length_a	16.974800
_cell_length_b	17.019294
_cell_length_c	15.455313
_cell_angle_alpha	88.788101
_cell_angle_beta	90.973911
_cell_angle_gamma	83.640951
loop_
_atom_site_label
_atom_site_type_symbol
_atom_site_fract_x
_atom_site_fract_y
_atom_site_fract_z
O1	O	1.049320	0.100201	-0.005927
O2	O	1.382654	0.433534	0.327407
O3	O	1.715987	0.766867	0.660740
O4	O	0.819917	0.112205	-0.022934
O5	O	1.153250	0.445538	0.310399
O6	O	1.486584	0.778871	0.643732
O7	O	0.940610	-0.008208	-0.005460
O8	O	1.273943	0.325125	0.327873
O9	O	1.607276	0.658459	0.661206
O10	O	0.928628	0.220613	-0.023401
O11	O	1.261961	0.553946	0.309932
O12	O	1.595294	0.887280	0.643266
O13	O	0.933708	-0.001351	0.137805
O14	O	1.267041	0.331983	0.471138
O15	O	1.600374	0.665316	0.804471
O16	O	0.813015	0.119062	0.120331
O17	O	1.146349	0.452395	0.453664
O18	O	1.479682	0.785729	0.786997
O19	O	1.042418	0.107058	0.137338
O20	O	1.375752	0.440391	0.470671
O21	O	1.709085	0.773725	0.804005
Cu22	Cu	0.927087	0.113686	0.141916
Cu23	Cu	1.260420	0.447019	0.475249
Cu24	Cu	1.593753	0.780353	0.808582
Cu25	Cu	0.935249	0.105576	-0.027512
Cu26	Cu	1.268582	0.438910	0.305821
Cu27	Cu	1.601916	0.772243	0.639155
O28	O	0.921726	0.227470	0.119864
O29	O	1.255059	0.560804	0.453197
O30	O	1.588393	0.894137	0.786531
C31	C	0.787105	0.115051	0.046680
C32	C	1.120439	0.448384	0.380013
C33	C	1.453772	0.781718	0.713346
C34	C	0.699619	0.113307	0.040666
C35	C	1.032953	0.446640	0.373999
C36	C	1.366286	0.779974	0.707332
C37	C	0.654761	0.116223	0.115936
C38	C	0.988094	0.449557	0.449270
C39	C	1.321428	0.782890	0.782603
C40	C	0.572560	0.114572	0.110289
C41	C	0.905893	0.447905	0.443622
C42	C	1.239227	0.781239	0.776956
C43	C	0.535219	0.110010	0.029370
C44	C	0.868552	0.443343	0.362703
C45	C	1.201885	0.776677	0.696037
C46	C	0.580084	0.107091	-0.045906
C47	C	0.913417	0.440424	0.287427
C48	C	1.246750	0.773757	0.620761
C49	C	0.662284	0.108736	-0.040258
C50	C	0.995617	0.442070	0.293076
C51	C	1.328950	0.775403	0.626409
C52	C	0.289781	0.104682	0.004103
C53	C	0.623115	0.438015	0.337436
C54	C	0.956448	0.771348	0.670770
C55	C	0.207575	0.103039	-0.001540
C56	C	0.540908	0.436372	0.331793
C57	C	0.874242	0.769705	0.665127
C58	C	0.200057	0.110519	0.154656
C59	C	0.533391	0.443852	0.487989
C60	C	0.866724	0.777185	0.821322
C61	C	0.282259	0.112169	0.160297
C62	C	0.615592	0.445502	0.493630
C63	C	0.948925	0.778836	0.826963
C64	C	0.327117	0.109245	0.085021
C65	C	0.660450	0.442579	0.418354
C66	C	0.993784	0.775912	0.751688
N67	N	0.451196	0.108324	0.023596
N68	N	0.784529	0.441658	0.356929
N69	N	1.117863	0.774991	0.690262
N70	N	0.411139	0.110925	0.090797
N71	N	0.744472	0.444259	0.424130
N72	N	1.077805	0.777592	0.757464
C73	C	0.936568	-0.034065	0.068317
C74	C	1.269902	0.299268	0.401651
C75	C	1.603235	0.632601	0.734984
C76	C	0.934800	-0.121328	0.074709
C77	C	1.268133	0.212005	0.408042
C78	C	1.601466	0.545339	0.741375
C79	C	0.937733	-0.166057	-0.000382
C80	C	1.271066	0.167276	0.332952
C81	C	1.604399	0.500609	0.666285
C82	C	0.936066	-0.248049	0.005626
C83	C	1.269399	0.085284	0.338959
C84	C	1.602732	0.418617	0.672293
C85	C	0.931471	-0.285311	0.086725
C86	C	1.264805	0.048023	0.420058
C87	C	1.598138	0.381356	0.753392
C88	C	0.928536	-0.240575	0.161821
C89	C	1.261869	0.092759	0.495154
C90	C	1.595202	0.426092	0.828488
C91	C	0.930197	-0.158584	0.155812
C92	C	1.263530	0.174750	0.489145
C93	C	1.596864	0.508083	0.822479
C94	C	0.926262	-0.532683	0.108774
C95	C	1.259595	-0.199350	0.442108
C96	C	1.592929	0.133984	0.775441
C97	C	0.924603	-0.614680	0.114778
C98	C	1.257936	-0.281347	0.448111
C99	C	1.591270	0.051986	0.781445
C100	C	0.932132	-0.622149	-0.041418
C101	C	1.265465	-0.288816	0.291915
C102	C	1.598798	0.044518	0.625249
C103	C	0.933798	-0.540157	-0.047419
C104	C	1.267131	-0.206823	0.285914
C105	C	1.600464	0.126510	0.619247
C106	C	0.930858	-0.495427	0.027676
C107	C	1.264191	-0.162094	0.361009
C108	C	1.597524	0.171239	0.694343
C109	C	0.929770	-0.369120	0.092868
C110	C	1.263103	-0.035786	0.426201
C111	C	1.596437	0.297547	0.759535
C112	C	0.932553	-0.411619	0.021532
C113	C	1.265887	-0.078286	0.354865
C114	C	1.599220	0.255047	0.688199
C115	C	1.075230	0.104211	0.067722
C116	C	1.408564	0.437545	0.401056
C117	C	1.741897	0.770878	0.734389
C118	C	1.162716	0.105955	0.073730
C119	C	1.496050	0.439289	0.407064
C120	C	1.829383	0.772622	0.740397
C121	C	0.925767	0.253328	0.046084
C122	C	1.259101	0.586661	0.379418
C123	C	1.592434	0.919994	0.712751
C124	C	0.927536	0.340590	0.039687
C125	C	1.260870	0.673923	0.373021
C126	C	1.594203	1.007257	0.706354
N127	N	0.921352	0.119389	0.261082
N128	N	1.254685	0.452723	0.594415
N129	N	1.588018	0.786056	0.927749
N130	N	0.940990	0.099867	-0.146678
N131	N	1.274324	0.433200	0.186656
N132	N	1.607657	0.766534	0.519989
C133	C	0.972644	0.068253	0.313900
C134	C	1.305977	0.401586	0.647233
C135	C	1.639311	0.734919	0.980566
C136	C	0.968314	0.072573	0.404081
C137	C	1.301647	0.405907	0.737414
C138	C	1.634981	0.739240	1.070747
C139	C	0.912695	0.128035	0.441442
C140	C	1.246028	0.461368	0.774776
C141	C	1.579362	0.794701	1.108109
C142	C	0.861397	0.179173	0.388618
C143	C	1.194731	0.512507	0.721951
C144	C	1.528064	0.845840	1.055284
C145	C	0.865724	0.174849	0.298439
C146	C	1.199057	0.508182	0.631772
C147	C	1.532391	0.841515	0.965105
C148	C	0.894019	0.146681	0.710319
C149	C	1.227352	0.480014	1.043652
C150	C	1.560686	0.813348	1.376985
C151	C	0.889698	0.151003	0.800505
C152	C	1.223031	0.484337	1.133838
C153	C	1.556365	0.817670	1.467172
C154	C	0.996614	0.044402	0.815962
C155	C	1.329947	0.377735	1.149295
C156	C	1.663281	0.711068	1.482628
C157	C	1.000939	0.040085	0.725780
C158	C	1.334272	0.373418	1.059113
C159	C	1.667606	0.706752	1.392447
C160	C	0.949639	0.091221	0.672963
C161	C	1.282972	0.424554	1.006297
C162	C	1.616305	0.757888	1.339630
N163	N	0.908269	0.132454	0.533621
N164	N	1.241603	0.465787	0.866955
N165	N	1.574936	0.799121	1.200288
N166	N	0.954061	0.086798	0.580786
N167	N	1.287394	0.420131	0.914119
N168	N	1.620728	0.753464	1.247453
H169	H	0.312657	0.115880	0.226190
H170	H	0.645990	0.449214	0.559523
H171	H	0.979323	0.782547	0.892857
H172	H	0.937540	-0.509825	-0.113459
H173	H	1.270873	-0.176491	0.219874
H174	H	1.604206	0.156842	0.553208
N175	N	0.695036	0.121142	0.203213
N176	N	1.028370	0.454475	0.536546
N177	N	1.361703	0.787808	0.869879
H178	H	0.722700	0.170673	0.204960
H179	H	1.056033	0.504007	0.538294
H180	H	1.389366	0.837340	0.871627
H181	H	0.654101	0.122703	0.249990
H182	H	0.987434	0.456037	0.583323
H183	H	1.320768	0.789370	0.916657
N184	N	0.838685	0.201836	0.653370
N185	N	1.172018	0.535169	0.986703
N186	N	1.505351	0.868503	1.320036
H187	H	0.847141	0.258402	0.665531
H188	H	1.180475	0.591735	0.998864
H189	H	1.513808	0.925069	1.332198
H190	H	0.849880	0.190619	0.590592
H191	H	1.183214	0.523952	0.923925
H192	H	1.516547	0.857286	1.257258
H193	H	0.938458	-0.284465	-0.055521
H194	H	1.271791	0.048868	0.277813
H195	H	1.605124	0.382201	0.611146
H196	H	0.536041	0.116934	0.171584
H197	H	0.869375	0.450267	0.504917
H198	H	1.202708	0.783601	0.838250
N199	N	0.927045	-0.110340	0.236805
N200	N	1.260379	0.222993	0.570138
N201	N	1.593712	0.556327	0.903471
H202	H	0.928794	-0.052745	0.220693
H203	H	1.262127	0.280588	0.554026
H204	H	1.595461	0.613922	0.887360
H205	H	0.876307	-0.116776	0.268065
H206	H	1.209640	0.216557	0.601398
H207	H	1.542974	0.549891	0.934731
H208	H	0.936289	-0.381277	-0.044499
H209	H	1.269622	-0.047944	0.288834
H210	H	1.602956	0.285390	0.622168
H211	H	1.010080	0.030933	0.447085
H212	H	1.343413	0.364267	0.780418
H213	H	1.676746	0.697600	1.113752
N214	N	1.060929	-0.019733	0.685484
N215	N	1.394262	0.313600	1.018818
N216	N	1.727596	0.646934	1.352151
H217	H	1.092766	-0.051474	0.732629
H218	H	1.426099	0.281859	1.065963
H219	H	1.759433	0.615193	1.399296
H220	H	1.032472	-0.056361	0.648558
H221	H	1.365806	0.276973	0.981892
H222	H	1.699139	0.610306	1.315225
H223	H	1.038380	0.002768	0.858973
H224	H	1.371713	0.336102	1.192306
H225	H	1.705046	0.669435	1.525640
N226	N	0.829698	0.210826	0.840792
N227	N	1.163032	0.544159	1.174125
N228	N	1.496365	0.877492	1.507459
H229	H	0.792945	0.182484	0.878021
H230	H	1.126278	0.515818	1.211354
H231	H	1.459611	0.849151	1.544688
H232	H	0.858156	0.247497	0.877659
H233	H	1.191489	0.580830	1.210993
H234	H	1.524823	0.914164	1.544326
N235	N	0.810405	0.230009	0.241469
N236	N	1.143739	0.563342	0.574803
N237	N	1.477072	0.896675	0.908136
H238	H	0.821584	0.218852	0.178672
H239	H	1.154917	0.552185	0.512006
H240	H	1.488250	0.885519	0.845339
H241	H	0.753726	0.221527	0.254012
H242	H	1.087059	0.554860	0.587345
H243	H	1.420393	0.888193	0.920679
N244	N	0.801401	0.238988	0.428910
N245	N	1.134735	0.572322	0.762243
N246	N	1.468068	0.905655	1.095576
H247	H	0.806444	0.233971	0.494053
H248	H	1.139777	0.567304	0.827386
H249	H	1.473110	0.900637	1.160719
H250	H	0.811392	0.294021	0.409615
H251	H	1.144726	0.627354	0.742949
H252	H	1.478059	0.960687	1.076282
H253	H	0.923884	-0.496276	0.169924
H254	H	1.257217	-0.162943	0.503257
H255	H	1.590550	0.170391	0.836591
N256	N	0.151675	0.113671	0.235842
N257	N	0.485009	0.447004	0.569175
N258	N	0.818342	0.780337	0.902508
H259	H	0.093805	0.113020	0.219903
H260	H	0.427138	0.446353	0.553236
H261	H	0.760472	0.779687	0.886570
H262	H	0.169955	0.066333	0.274484
H263	H	0.503288	0.399666	0.607817
H264	H	0.836622	0.733000	0.941151
N265	N	0.919661	-0.654871	0.202256
N266	N	1.252994	-0.321538	0.535589
N267	N	1.586327	0.011796	0.868922
H268	H	0.919066	-0.713600	0.194665
H269	H	1.252399	-0.380267	0.527998
H270	H	1.585733	-0.046934	0.861331
H271	H	0.967119	-0.645163	0.239192
H272	H	1.300452	-0.311829	0.572526
H273	H	1.633786	0.021504	0.905859
H274	H	0.549674	0.103370	-0.111792
H275	H	0.883008	0.436704	0.221542
H276	H	1.216341	0.770037	0.554875
H277	H	1.017938	0.023094	0.283487
H278	H	1.351271	0.356427	0.616820
H279	H	1.684605	0.689760	0.950153
N280	N	0.710673	0.105596	-0.121440
N281	N	1.044006	0.438929	0.211894
N282	N	1.377339	0.772263	0.545227
H283	H	0.751215	0.057429	-0.118497
H284	H	1.084549	0.390763	0.214837
H285	H	1.417882	0.724096	0.548170
H286	H	0.674492	0.102489	-0.173518
H287	H	1.007825	0.435822	0.159816
H288	H	1.341159	0.769156	0.493149
H289	H	0.934524	-0.658576	-0.102557
H290	H	1.267857	-0.325243	0.230777
H291	H	1.601190	0.008091	0.564110
H292	H	0.177174	0.099326	-0.067438
H293	H	0.510507	0.432659	0.265896
H294	H	0.843841	0.765992	0.599229
N295	N	0.923590	-0.280761	0.249294
N296	N	1.256923	0.052572	0.582628
N297	N	1.590256	0.385905	0.915961
H298	H	0.873933	-0.308357	0.251379
H299	H	1.207266	0.024976	0.584712
H300	H	1.540600	0.358310	0.918046
H301	H	0.971578	-0.320832	0.259103
H302	H	1.304912	0.012501	0.592436
H303	H	1.638245	0.345835	0.925770
N304	N	0.338159	0.101523	-0.077083
N305	N	0.671492	0.434856	0.256251
N306	N	1.004825	0.768189	0.589584
H307	H	0.302027	0.098384	-0.129199
H308	H	0.635361	0.431717	0.204134
H309	H	0.968694	0.765051	0.537468
H310	H	0.366161	0.150721	-0.082228
H311	H	0.699494	0.484055	0.251106
H312	H	1.032828	0.817388	0.584439
H313	H	0.941478	-0.135726	-0.066421
H314	H	1.274812	0.197607	0.266912
H315	H	1.608145	0.530941	0.600245
H316	H	0.926032	-0.399467	0.158900
H317	H	1.259365	-0.066134	0.492233
H318	H	1.592698	0.267199	0.825566
