data_functionalizedCrystal
_audit_creation_method	'MofGen! by Chris Wilmer'
_symmetry_space_group_name_H-M	'P1'
_symmetry_Int_Tables_number	1
_symmetry_cell_setting	triclinic
loop_
_symmetry_equiv_pos_as_xyz
  x,y,z
_cell_length_a	17.699083
_cell_length_b	17.699104
_cell_length_c	16.776229
_cell_angle_alpha	90.004353
_cell_angle_beta	90.000273
_cell_angle_gamma	96.712734
loop_
_atom_site_label
_atom_site_type_symbol
_atom_site_fract_x
_atom_site_fract_y
_atom_site_fract_z
O1	O	-1.004085	0.095709	0.066178
O2	O	-0.783707	0.108161	0.066204
O3	O	-0.900114	-0.008253	0.066183
O4	O	-0.887678	0.212123	0.066199
O5	O	-0.900101	-0.008254	-0.066393
O6	O	-0.783694	0.108161	-0.066372
O7	O	-1.004071	0.095708	-0.066398
Zn8	Zn	-0.893881	0.101934	-0.087435
Zn9	Zn	-0.893898	0.101935	0.087241
O10	O	-0.887665	0.212123	-0.066377
C11	C	-0.755503	0.107715	-0.000081
C12	C	-0.671485	0.106376	-0.000071
C13	C	-0.899659	-0.036450	-0.000105
C14	C	-0.898314	-0.120467	-0.000105
C15	C	-1.032275	0.096155	-0.000112
C16	C	-1.116293	0.097493	-0.000116
C17	C	-0.622869	0.174709	-0.000066
C18	C	-0.543926	0.173446	-0.000076
C19	C	-0.513600	0.103851	-0.000086
C20	C	-0.562222	0.035513	-0.000093
C21	C	-0.641164	0.036776	-0.000088
C22	C	-0.243859	0.030418	-0.000113
C23	C	-0.164911	0.029160	-0.000115
C24	C	-0.146621	0.167088	-0.000101
C25	C	-0.225563	0.168351	-0.000097
C26	C	-0.274178	0.100014	-0.000108
C27	C	-0.359777	0.101383	-0.000098
C28	C	-0.428002	0.102480	-0.000090
C29	C	-0.959058	-0.645338	-0.000090
C30	C	-0.960317	-0.566395	-0.000097
C31	C	-0.891982	-0.517777	-0.000091
C32	C	-0.822383	-0.548107	-0.000085
C33	C	-0.821125	-0.627049	-0.000084
C34	C	-0.827456	-0.229741	-0.000092
C35	C	-0.828720	-0.150794	-0.000092
C36	C	-0.966648	-0.169086	-0.000106
C37	C	-0.965390	-0.248029	-0.000104
C38	C	-0.895792	-0.278352	-0.000103
C39	C	-0.894427	-0.363951	-0.000097
C40	C	-0.893345	-0.432179	-0.000091
C41	C	-0.888120	0.240319	-0.000087
C42	C	-0.889464	0.324337	-0.000082
N43	N	-0.893874	0.101934	-0.206646
C44	C	-0.939693	0.147782	-0.248362
C45	C	-0.939701	0.147779	-0.331814
C46	C	-0.893887	0.101931	-0.373549
C47	C	-0.848066	0.056078	-0.331827
C48	C	-0.848062	0.056077	-0.248376
C49	C	-0.848082	0.056079	-0.668374
C50	C	-0.848087	0.056085	-0.751831
C51	C	-0.939720	0.147781	-0.751812
C52	C	-0.939716	0.147780	-0.668361
C53	C	-0.893899	0.101924	-0.626647
C54	C	-0.893892	0.101926	-0.536158
C55	C	-0.893889	0.101932	-0.464036
N56	N	-0.893910	0.101930	0.206452
H57	H	-0.647554	0.231382	-0.000058
H58	H	-0.283432	-0.025227	-0.000123
N59	N	-1.032765	-0.697771	-0.000106
H60	H	-1.021410	-0.752383	-0.000104
H61	H	-1.063109	-0.687962	0.049035
H62	H	-0.810752	0.018743	-0.214412
H63	H	-0.977012	0.185112	-0.365775
N64	N	-1.039095	-0.300463	-0.000121
H65	H	-1.027738	-0.355075	-0.000119
H66	H	-1.069440	-0.290657	0.049021
H67	H	-0.107028	0.222732	-0.000096
H68	H	-1.016987	-0.541708	-0.000104
H69	H	-0.504346	0.229090	-0.000072
N70	N	-0.258272	0.243414	-0.000076
H71	H	-0.215494	0.286513	-0.000074
H72	H	-0.290631	0.246945	-0.049220
H73	H	-0.977020	0.185117	-0.634385
N74	N	-0.132199	-0.045907	-0.000126
H75	H	-0.174975	-0.089008	-0.000135
H76	H	-0.099844	-0.049428	-0.049275
N77	N	-0.989115	0.197227	-0.203354
H78	H	-0.982161	0.190272	-0.144157
H79	H	-0.974065	0.252293	-0.217936
N80	N	-0.529518	-0.039553	-0.000116
H81	H	-0.472131	-0.029986	-0.000118
H82	H	-0.547308	-0.069454	0.049027
H83	H	-1.023319	-0.144388	-0.000096
N84	N	-0.798680	0.006621	-0.796845
H85	H	-0.805635	0.013584	-0.856040
H86	H	-0.743607	0.021635	-0.782261
H87	H	-0.680747	-0.018868	-0.000091
H88	H	-0.773070	-0.111210	-0.000088
N89	N	-0.752393	-0.262441	-0.000102
H90	H	-0.709297	-0.219662	-0.000099
H91	H	-0.748860	-0.294798	0.049041
H92	H	-0.766743	-0.508516	-0.000085
H93	H	-0.764455	-0.651738	-0.000084
N94	N	-0.989141	0.197240	-0.796804
H95	H	-0.982197	0.190285	-0.856002
H96	H	-1.044210	0.182221	-0.782213
H97	H	-0.810775	0.018740	-0.634420
N98	N	-0.798656	0.006621	-0.376836
H99	H	-0.805609	0.013579	-0.436032
H100	H	-0.743585	0.021642	-0.362250
