data_functionalizedCrystal
_audit_creation_method	'MofGen! by Chris Wilmer'
_symmetry_space_group_name_H-M	'P1'
_symmetry_Int_Tables_number	1
_symmetry_cell_setting	triclinic
loop_
_symmetry_equiv_pos_as_xyz
  x,y,z
_cell_length_a	6.394989
_cell_length_b	10.723023
_cell_length_c	9.798715
_cell_angle_alpha	89.996449
_cell_angle_beta	89.999935
_cell_angle_gamma	85.482629
loop_
_atom_site_label
_atom_site_type_symbol
_atom_site_fract_x
_atom_site_fract_y
_atom_site_fract_z
O1	O	0.293014	1.660298	-0.113477
O2	O	0.793014	2.160298	0.386523
O3	O	0.321064	1.297443	-0.113480
O4	O	0.821064	1.797443	0.386520
O5	O	0.003048	1.484021	-0.113480
O6	O	0.503048	1.984021	0.386520
O7	O	0.611029	1.473720	-0.113477
O8	O	1.111029	1.973720	0.386523
O9	O	0.003047	1.484006	0.113502
O10	O	0.503047	1.984006	0.613502
O11	O	0.321063	1.297429	0.113502
O12	O	0.821063	1.797429	0.613502
O13	O	0.293013	1.660283	0.113505
O14	O	0.793013	2.160283	0.613505
Zn15	Zn	0.307038	1.478854	0.149542
Zn16	Zn	0.807038	1.978854	0.649542
Zn17	Zn	0.307039	1.478873	-0.149517
Zn18	Zn	0.807039	1.978873	0.350483
O19	O	0.611028	1.473706	0.113505
O20	O	1.111028	1.973706	0.613505
C21	C	0.319022	1.250914	0.000011
C22	C	0.819022	1.750914	0.500011
C23	C	0.312916	1.112295	0.000009
C24	C	0.812916	1.612295	0.500009
C25	C	0.303882	0.907224	0.117588
C26	C	0.803882	1.407224	0.617588
C27	C	0.310194	1.050494	0.117592
C28	C	0.810194	1.550494	0.617592
C29	C	0.688879	1.475749	0.000008
C30	C	1.188879	1.975749	0.500008
C31	C	0.925203	1.481974	0.000004
C32	C	1.425203	1.981974	0.500004
C33	C	0.295054	1.706812	0.000011
C34	C	0.795054	2.206812	0.500011
C35	C	0.301161	1.845431	0.000004
C36	C	0.801161	2.345431	0.500004
N37	N	0.307036	1.478850	0.353642
N38	N	0.807036	1.978850	0.853642
N39	N	0.307024	1.478886	-0.353617
N40	N	0.807024	1.978886	0.146383
C41	C	0.172922	1.557183	0.421418
C42	C	0.672922	2.057183	0.921418
C43	C	0.172914	1.557203	0.578581
C44	C	0.672914	2.057203	1.078581
H45	H	0.312525	1.103635	0.218260
H46	H	0.812525	1.603635	0.718260
H47	H	0.058101	1.624271	0.636866
H48	H	0.558101	2.124271	1.136866
H49	H	0.303515	0.898594	-0.100661
H50	H	0.803515	1.398594	0.399339
H51	H	0.421844	1.411796	0.411966
H52	H	0.921844	1.911796	0.911966
H53	H	0.058097	1.624228	0.363096
H54	H	0.558097	2.124228	0.863096
H55	H	0.421859	1.411823	0.588107
H56	H	0.921859	1.911823	1.088107
H57	H	0.310570	1.059163	-0.100664
H58	H	0.810570	1.559163	0.399336
H59	H	0.301552	0.854060	0.218253
H60	H	0.801552	1.354060	0.718253
