data_functionalizedCrystal
_audit_creation_method	'MofGen! by Chris Wilmer'
_symmetry_space_group_name_H-M	'P1'
_symmetry_Int_Tables_number	1
_symmetry_cell_setting	triclinic
loop_
_symmetry_equiv_pos_as_xyz
  x,y,z
_cell_length_a	29.839135
_cell_length_b	29.839131
_cell_length_c	29.839125
_cell_angle_alpha	90.017709
_cell_angle_beta	90.015488
_cell_angle_gamma	90.043950
loop_
_atom_site_label
_atom_site_type_symbol
_atom_site_fract_x
_atom_site_fract_y
_atom_site_fract_z
Zn1	Zn	0.686720	-0.178886	0.254047
Zn2	Zn	0.686652	-0.253998	0.178917
Zn3	Zn	0.611602	-0.178886	0.178925
Zn4	Zn	0.611550	-0.253993	0.254014
O5	O	0.649131	-0.216441	0.216476
O6	O	0.749578	-0.188852	0.244092
O7	O	0.676690	-0.244036	0.116051
O8	O	0.621617	-0.116019	0.188908
O9	O	0.749528	-0.244036	0.188894
O10	O	0.676805	-0.116019	0.244099
O11	O	0.621551	-0.188852	0.116057
O12	O	0.548728	-0.188847	0.188876
O13	O	0.621528	-0.244028	0.316886
O14	O	0.548690	-0.244028	0.244043
O15	O	0.676755	-0.188847	0.316910
O16	O	0.676639	-0.316865	0.188862
O17	O	0.621462	-0.316861	0.244035
C18	C	0.532408	-0.216437	0.216457
C19	C	0.482474	-0.216447	0.216459
C20	C	0.172854	-0.187750	0.245260
C21	C	-0.014819	-0.187753	0.245273
O22	O	-0.039065	-0.163344	0.269738
N23	N	-0.038311	-0.216441	0.216492
C24	C	-0.014882	-0.245129	0.187705
O25	O	-0.039169	-0.269527	0.163223
C26	C	0.172791	-0.245123	0.187690
C27	C	0.196280	-0.216436	0.216475
C28	C	0.196343	-0.159065	0.274042
C29	C	0.243258	-0.159066	0.274040
C30	C	0.266684	-0.187752	0.245256
C31	C	0.243195	-0.216437	0.216474
C32	C	0.196219	-0.273808	0.158901
C33	C	0.243140	-0.273803	0.158899
C34	C	0.266630	-0.245116	0.187684
C35	C	0.313537	-0.245125	0.187688
N36	N	0.337029	-0.216437	0.216468
C37	C	0.313602	-0.187750	0.245252
C38	C	-0.113412	-0.245130	0.187715
C39	C	-0.160330	-0.245133	0.187720
C40	C	-0.160265	-0.187756	0.245287
C41	C	-0.113346	-0.187756	0.245284
C42	C	-0.089921	-0.216442	0.216495
C43	C	0.412128	-0.187755	0.245246
C44	C	0.459048	-0.187760	0.245243
C45	C	0.458978	-0.245135	0.187675
C46	C	0.412063	-0.245132	0.187679
C47	C	0.388639	-0.216438	0.216467
O48	O	0.337811	-0.269518	0.163231
O49	O	0.337898	-0.163349	0.269724
C50	C	0.125938	-0.187749	0.245262
C51	C	0.102449	-0.216434	0.216479
C52	C	0.125875	-0.245120	0.187695
C53	C	0.055531	-0.216436	0.216483
C54	C	0.032105	-0.187749	0.245267
C55	C	0.055596	-0.159061	0.274048
C56	C	0.102512	-0.159062	0.274046
C57	C	0.102384	-0.273808	0.158915
C58	C	0.055468	-0.273805	0.158919
C59	C	0.032042	-0.245119	0.187703
C60	C	0.649050	-0.333163	0.216454
C61	C	0.649056	-0.383098	0.216459
C62	C	0.677914	-0.692730	0.187789
C63	C	0.677969	-0.880403	0.187807
O64	O	0.702441	-0.904659	0.163413
N65	N	0.649224	-0.903883	0.216510
C66	C	0.620465	-0.880441	0.245213
O67	O	0.596020	-0.904718	0.269630
C68	C	0.620412	-0.692769	0.245197
C69	C	0.649156	-0.669292	0.216489
C70	C	0.706656	-0.669253	0.159084
C71	C	0.706640	-0.622338	0.159078
C72	C	0.677882	-0.598900	0.187778
C73	C	0.649140	-0.622377	0.216483
C74	C	0.591656	-0.669328	0.273902
C75	C	0.591646	-0.622407	0.273897
C76	C	0.620390	-0.598930	0.245188
C77	C	0.620367	-0.552023	0.245177
N78	N	0.649112	-0.528543	0.216474
C79	C	0.677869	-0.551982	0.187774
C80	C	0.620494	-0.978972	0.245218
C81	C	0.620507	-1.025889	0.245222
C82	C	0.678012	-1.025849	0.187816
C83	C	0.677997	-0.978930	0.187811
C84	C	0.649239	-0.955492	0.216515
C85	C	0.677834	-0.453456	0.187764
C86	C	0.677814	-0.406536	0.187759
C87	C	0.620311	-0.406581	0.245167
C88	C	0.620329	-0.453497	0.245170
C89	C	0.649094	-0.476933	0.216467
O90	O	0.595912	-0.527738	0.269561
O91	O	0.702318	-0.527697	0.163367
C92	C	0.677930	-0.739646	0.187795
C93	C	0.649188	-0.763123	0.216501
C94	C	0.620430	-0.739684	0.245200
C95	C	0.649200	-0.810041	0.216504
C96	C	0.677958	-0.833479	0.187804
C97	C	0.706703	-0.810000	0.159101
C98	C	0.706687	-0.763084	0.159095
C99	C	0.591685	-0.763164	0.273904
C100	C	0.591703	-0.810079	0.273907
C101	C	0.620461	-0.833518	0.245207
C102	C	0.766309	-0.216445	0.216495
C103	C	0.816244	-0.216446	0.216504
C104	C	0.649143	-0.216437	0.333654
C105	C	0.649148	-0.216435	0.383589
C106	C	0.649225	-0.099262	0.216508
C107	C	0.649265	-0.049328	0.216522
C108	C	0.649145	-0.216412	0.099753
C109	C	0.649227	-0.216288	0.049819
C110	C	0.677935	-0.187627	0.693248
C111	C	0.677957	-0.187589	0.880921
O112	O	0.702400	-0.163138	0.905199
N113	N	0.649208	-0.216315	0.904374
C114	C	0.620449	-0.245050	0.880906
O115	O	0.595993	-0.269479	0.905160
C116	C	0.620425	-0.245086	0.693234
C117	C	0.649179	-0.216361	0.669783
C118	C	0.706687	-0.158905	0.669797
C119	C	0.706683	-0.158916	0.622882
C120	C	0.677927	-0.187650	0.599417
C121	C	0.649175	-0.216373	0.622868
C122	C	0.591663	-0.273819	0.669766
C123	C	0.591659	-0.273824	0.622845
C124	C	0.620414	-0.245100	0.599395
C125	C	0.620415	-0.245119	0.552487
N126	N	0.649164	-0.216393	0.529034
C127	C	0.677920	-0.187659	0.552499
C128	C	0.620464	-0.245030	0.979437
C129	C	0.620471	-0.245022	1.026354
C130	C	0.677979	-0.187560	1.026366
C131	C	0.677974	-0.187571	0.979448
C132	C	0.649214	-0.216304	0.955984
C133	C	0.677910	-0.187685	0.453973
C134	C	0.677904	-0.187701	0.407054
C135	C	0.620395	-0.245161	0.407046
C136	C	0.620402	-0.245147	0.453961
C137	C	0.649161	-0.216406	0.477424
O138	O	0.595982	-0.269553	0.528180
O139	O	0.702366	-0.163226	0.528237
C140	C	0.677939	-0.187616	0.740163
C141	C	0.649187	-0.216338	0.763614
C142	C	0.620431	-0.245072	0.740149
C143	C	0.649194	-0.216330	0.810532
C144	C	0.677950	-0.187596	0.833997
C145	C	0.706699	-0.158870	0.810544
C146	C	0.706695	-0.158881	0.763628
C147	C	0.591682	-0.273798	0.763602
C148	C	0.591689	-0.273785	0.810518
C149	C	0.620445	-0.245050	0.833983
H150	H	0.121633	-0.135702	0.297485
H151	H	0.036515	-0.135705	0.297486
O152	O	0.592527	-0.273093	0.384194
C153	C	0.618084	-0.302119	0.357064
H154	H	0.652144	-0.286277	0.350053
H155	H	0.599784	-0.308138	0.324062
H156	H	0.622990	-0.335412	0.375137
O157	O	0.705974	-0.159693	1.049146
C158	C	0.750744	-0.169497	1.037684
H159	H	0.752991	-0.205388	1.024779
H160	H	0.772940	-0.165621	1.068547
H161	H	0.762503	-0.145412	1.010460
H162	H	0.597061	-0.268417	1.045444
H163	H	-0.179346	-0.164399	0.268724
O164	O	0.705716	-0.383781	0.159809
C165	C	0.695926	-0.395269	0.115025
H166	H	0.678666	-0.429353	0.114083
H167	H	0.728364	-0.396850	0.094913
H168	H	0.672832	-0.368895	0.099866
H169	H	0.568229	-0.603326	0.297273
O170	O	0.563764	-0.832812	0.301838
C171	C	0.538374	-0.802058	0.327159
H172	H	0.556764	-0.768593	0.328722
H173	H	0.533564	-0.815599	0.362554
H174	H	0.504262	-0.797114	0.310676
O175	O	0.705840	-0.159641	0.956621
C176	C	0.680281	-0.130618	0.929495
H177	H	0.646223	-0.146464	0.922455
H178	H	0.698582	-0.124597	0.896507
H179	H	0.675371	-0.097326	0.947586
O180	O	-0.090600	-0.159846	0.273259
C181	C	-0.121343	-0.134540	0.298673
H182	H	-0.154792	-0.132960	0.280276
H183	H	-0.107764	-0.099149	0.303531
H184	H	-0.126334	-0.151045	0.332762
O185	O	0.173660	-0.131183	0.302049
C186	C	0.204463	-0.105860	0.327440
H187	H	0.237893	-0.124267	0.328950
H188	H	0.190930	-0.101124	0.362849
H189	H	0.209472	-0.071714	0.311052
H190	H	0.478171	-0.164399	0.268685
O191	O	0.592392	-0.476235	0.273097
C192	C	0.566998	-0.445485	0.298417
H193	H	0.585384	-0.412018	0.299981
H194	H	0.562188	-0.459027	0.333812
H195	H	0.532886	-0.440543	0.281933
O196	O	0.592444	-0.383786	0.273093
C197	C	0.618001	-0.356601	0.302117
H198	H	0.653384	-0.370707	0.304925
H199	H	0.601733	-0.356065	0.336677
H200	H	0.619552	-0.321049	0.288221
H201	H	0.262379	-0.135705	0.297480
H202	H	0.597044	-0.268431	0.960336
H203	H	0.730110	-0.135491	0.744539
H204	H	0.701321	-0.164310	0.387962
O205	O	0.563690	-0.692147	0.301729
C206	C	0.534701	-0.719339	0.276137
H207	H	0.531940	-0.705224	0.240748
H208	H	0.500119	-0.719897	0.292360
H209	H	0.548601	-0.754884	0.274610
H210	H	-0.179451	-0.268497	0.164285
H211	H	0.036347	-0.297170	0.135480
O212	O	0.563786	-0.301760	0.600001
C213	C	0.589339	-0.330791	0.572874
H214	H	0.623397	-0.314949	0.565854
H215	H	0.571033	-0.336819	0.539877
H216	H	0.594249	-0.364080	0.590955
H217	H	0.596991	-0.268541	0.473056
O218	O	0.481790	-0.273021	0.159777
C219	C	0.508908	-0.302082	0.185300
H220	H	0.515954	-0.286292	0.219377
H221	H	0.541893	-0.308068	0.166991
H222	H	0.490807	-0.335386	0.190170
H223	H	0.730093	-0.743973	0.135718
H224	H	0.568248	-0.297209	0.688852
H225	H	-0.094343	-0.268491	0.164271
H226	H	0.730115	-0.135475	0.829657
H227	H	0.597076	-0.959892	0.268594
H228	H	0.568274	-0.297180	0.829607
O229	O	0.705890	-0.159754	0.476691
C230	C	0.731255	-0.134401	0.445924
H231	H	0.732786	-0.152813	0.412480
H232	H	0.766658	-0.129607	0.459481
H233	H	0.714832	-0.100281	0.440933
H234	H	0.568265	-0.297198	0.744502
O235	O	0.173479	-0.301687	0.130893
C236	C	0.204225	-0.327006	0.105496
H237	H	0.237682	-0.308599	0.103982
H238	H	0.190662	-0.331740	0.070088
H239	H	0.209195	-0.361153	0.121880
H240	H	0.262211	-0.297163	0.135454
H241	H	0.730118	-0.829092	0.135731
H242	H	0.701402	-0.959818	0.164434
H243	H	0.597097	-1.045000	0.268595
H244	H	0.393062	-0.164389	0.268686
O245	O	0.125115	-0.301742	0.131001
C246	C	0.113604	-0.346529	0.140736
H247	H	0.100719	-0.348846	0.176623
H248	H	0.144436	-0.368724	0.136823
H249	H	0.086349	-0.358233	0.116633
O250	O	0.389312	-0.273016	0.159680
C251	C	0.420052	-0.298346	0.134285
H252	H	0.453511	-0.279944	0.132764
H253	H	0.406484	-0.303086	0.098880
H254	H	0.425019	-0.332491	0.150676
H255	H	0.730097	-0.135525	0.603793
H256	H	0.701258	-0.472532	0.164392
H257	H	0.730047	-0.603226	0.135702
H258	H	0.730076	-0.688332	0.135713
O259	O	0.705960	-1.048690	0.160006
C260	C	0.699810	-1.095134	0.166175
H261	H	0.685033	-1.101530	0.200816
H262	H	0.733478	-1.112921	0.163214
H263	H	0.675946	-1.108508	0.139483
O264	O	0.563811	-0.740380	0.301831
C265	C	0.589350	-0.713190	0.330866
H266	H	0.624738	-0.727284	0.333680
H267	H	0.573074	-0.712667	0.365422
H268	H	0.590891	-0.677635	0.316977
H269	H	0.730104	-0.135503	0.688898
