data_functionalizedCrystal
_audit_creation_method	'MofGen! by Chris Wilmer'
_symmetry_space_group_name_H-M	'P1'
_symmetry_Int_Tables_number	1
_symmetry_cell_setting	triclinic
loop_
_symmetry_equiv_pos_as_xyz
  x,y,z
_cell_length_a	10.723024
_cell_length_b	10.723024
_cell_length_c	14.586319
_cell_angle_alpha	90.004820
_cell_angle_beta	90.000220
_cell_angle_gamma	84.467869
loop_
_atom_site_label
_atom_site_type_symbol
_atom_site_fract_x
_atom_site_fract_y
_atom_site_fract_z
O1	O	1.657181	0.175030	0.076232
O2	O	2.157181	0.675030	0.576232
O3	O	1.294029	0.191784	0.076235
O4	O	1.794029	0.691784	0.576235
O5	O	1.483981	0.001831	0.076230
O6	O	1.983981	0.501831	0.576230
O7	O	1.467228	0.364983	0.076237
O8	O	1.967228	0.864983	0.576237
O9	O	1.483980	0.001819	-0.076251
O10	O	1.983980	0.501819	0.423749
O11	O	1.294027	0.191772	-0.076246
O12	O	1.794027	0.691772	0.423754
O13	O	1.657179	0.175018	-0.076249
O14	O	2.157179	0.675018	0.423751
Cu15	Cu	1.475603	0.183394	-0.090170
Cu16	Cu	1.975603	0.683394	0.409830
Cu17	Cu	1.475605	0.183408	0.090156
Cu18	Cu	1.975605	0.683408	0.590156
O19	O	1.467227	0.364971	-0.076244
O20	O	1.967227	0.864971	0.423756
C21	C	1.247528	0.190558	-0.000005
C22	C	1.747528	0.690558	0.499995
C23	C	1.108974	0.186911	-0.000004
C24	C	1.608974	0.686911	0.499996
C25	C	1.033991	0.293198	-0.000002
C26	C	1.533991	0.793198	0.499998
C27	C	0.890788	0.289431	-0.000000
C28	C	1.390788	0.789431	0.500000
C29	C	1.482762	-0.044675	-0.000009
C30	C	1.982762	0.455325	0.499991
C31	C	1.479114	-0.183229	-0.000006
C32	C	1.979114	0.316771	0.499994
C33	C	1.585401	-0.258212	-0.000006
C34	C	2.085401	0.241788	0.499994
C35	C	1.581634	-0.401415	-0.000002
C36	C	2.081634	0.098585	0.499998
C37	C	1.703680	0.176243	-0.000007
C38	C	2.203680	0.676243	0.499993
C39	C	1.842234	0.179891	-0.000002
C40	C	2.342234	0.679891	0.499998
C41	C	1.468447	0.411477	-0.000003
C42	C	1.968447	0.911477	0.499997
C43	C	1.472094	0.550031	0.000000
C44	C	1.972094	1.050031	0.500000
N45	N	1.475607	0.183409	0.216988
N46	N	1.975607	0.683409	0.716988
N47	N	1.475611	0.183383	-0.217002
N48	N	1.975611	0.683383	0.282998
C49	C	1.559883	0.099464	0.451992
C50	C	2.059883	0.599464	0.951992
C51	C	1.559887	0.099461	0.547973
C52	C	2.059887	0.599461	1.047973
C53	C	1.391330	0.267337	0.547987
C54	C	1.891330	0.767337	1.047987
C55	C	1.391334	0.267345	0.452008
C56	C	1.891334	0.767345	0.952008
C57	C	1.475609	0.183401	0.404013
C58	C	1.975609	0.683401	0.904013
C59	C	1.475609	0.183390	0.595973
C60	C	1.975609	0.683390	1.095973
C61	C	1.475612	0.183388	0.700040
C62	C	1.975612	0.683388	1.200040
C63	C	1.475607	0.183405	0.299939
C64	C	1.975607	0.683405	0.799939
H65	H	0.906659	0.088896	0.000002
H66	H	1.406659	0.588896	0.500002
H67	H	1.381099	-0.385544	-0.000007
H68	H	1.881099	0.114456	0.499993
H69	H	1.679187	-0.216390	-0.000012
H70	H	2.179187	0.283610	0.499988
Cl71	Cl	1.285385	0.372857	0.608328
Cl72	Cl	1.785385	0.872857	1.108328
Cl73	Cl	1.334308	-0.247788	0.000004
Cl74	Cl	1.834308	0.252212	0.500004
H75	H	1.628507	0.031113	0.412917
H76	H	2.128507	0.531113	0.912917
H77	H	1.628512	0.031113	0.587036
H78	H	2.128512	0.531113	1.087036
Cl79	Cl	1.285386	0.372881	0.391684
Cl80	Cl	1.785386	0.872881	0.891684
Cl81	Cl	0.791315	0.429921	0.000010
Cl82	Cl	1.291315	0.929921	0.500010
Cl83	Cl	1.098550	0.438004	-0.000001
Cl84	Cl	1.598550	0.938004	0.499999
H85	H	1.067152	0.093125	0.000018
H86	H	1.567152	0.593125	0.500018
H87	H	1.672624	-0.465848	-0.000006
H88	H	2.172624	0.034152	0.499994
