data_functionalizedCrystal
_audit_creation_method	'MofGen! by Chris Wilmer'
_symmetry_space_group_name_H-M	'P1'
_symmetry_Int_Tables_number	1
_symmetry_cell_setting	triclinic
loop_
_symmetry_equiv_pos_as_xyz
  x,y,z
_cell_length_a	17.077404
_cell_length_b	16.120484
_cell_length_c	17.077396
_cell_angle_alpha	92.868746
_cell_angle_beta	89.978556
_cell_angle_gamma	92.923903
loop_
_atom_site_label
_atom_site_type_symbol
_atom_site_fract_x
_atom_site_fract_y
_atom_site_fract_z
Zn1	Zn	1.184192	-0.331946	-0.459715
Zn2	Zn	1.177437	-0.471370	-0.335099
Zn3	Zn	1.052923	-0.331970	-0.328460
Zn4	Zn	1.046232	-0.471315	-0.466315
O5	O	1.115196	-0.401650	-0.397397
O6	O	1.293142	-0.350453	-0.443201
O7	O	1.160893	-0.452911	-0.224373
O8	O	1.075963	-0.215301	-0.340331
O9	O	1.288179	-0.452887	-0.351646
O10	O	1.172406	-0.215284	-0.436763
O11	O	1.069413	-0.350495	-0.219495
O12	O	0.942189	-0.350442	-0.346730
O13	O	1.064560	-0.452795	-0.575285
O14	O	0.937273	-0.452818	-0.448012
O15	O	1.165919	-0.350401	-0.570436
O16	O	1.154405	-0.588028	-0.358046
O17	O	1.058009	-0.587988	-0.454450
C18	C	0.911249	-0.401628	-0.397368
C19	C	0.823999	-0.401638	-0.397375
C20	C	0.450760	-0.348432	-0.445185
C21	C	0.532740	-0.348426	-0.445176
C22	C	0.571149	-0.401668	-0.397418
C23	C	0.527571	-0.454925	-0.349672
C24	C	0.445592	-0.454935	-0.349686
C25	C	0.698443	-0.454900	-0.349645
C26	C	0.780428	-0.454890	-0.349631
C27	C	0.785591	-0.348391	-0.445135
C28	C	0.703612	-0.348401	-0.445149
C29	C	0.660040	-0.401657	-0.397402
C30	C	1.104769	-0.618258	-0.407702
C31	C	1.100381	-0.710924	-0.412136
C32	C	1.092372	-0.880585	-0.420248
C33	C	1.138160	-0.921875	-0.374559
C34	C	1.133704	-1.016280	-0.379073
C35	C	1.096827	-0.786171	-0.415735
C36	C	1.319939	-0.401674	-0.397428
C37	C	1.407188	-0.401683	-0.397440
C38	C	1.115246	-0.401589	-0.602139
C39	C	1.115268	-0.401563	-0.689387
C40	C	1.125685	-0.184197	-0.387070
C41	C	1.130154	-0.091531	-0.382669
C42	C	1.168047	-0.348242	-0.727854
C43	C	1.168058	-0.348214	-0.809833
C44	C	1.115293	-0.401512	-0.853344
C45	C	1.062507	-0.454835	-0.814873
C46	C	1.062494	-0.454858	-0.732895
C47	C	1.062541	-0.454785	-0.985740
C48	C	1.062556	-0.454764	-1.067724
C49	C	1.168106	-0.348141	-1.062678
C50	C	1.168092	-0.348164	-0.980701
C51	C	1.115308	-0.401488	-0.942234
C52	C	1.115194	-0.401651	-0.193450
C53	C	1.115336	-0.401443	-0.106190
H54	H	0.662969	-0.498271	-0.310768
F55	F	1.224259	-0.291491	-0.850769
H56	H	0.811697	-0.498247	-0.310744
F57	F	1.224256	-0.291443	-0.934394
F58	F	0.399220	-0.511618	-0.298875
F59	F	1.224213	-0.291518	-0.681553
H60	H	1.019507	-0.498269	-0.701576
H61	H	1.180706	-0.886323	-0.332054
H62	H	1.211084	-0.304721	-1.094001
H63	H	1.019542	-0.498229	-0.850306
F64	F	1.036764	-0.927051	-0.475801
H65	H	1.019588	-0.498162	-1.103149
H66	H	0.419494	-0.305071	-0.484069
F67	F	0.579109	-0.291752	-0.495995
H68	H	0.821071	-0.305026	-0.484012
F69	F	0.662737	-0.291731	-0.495974
F70	F	0.568450	-0.511594	-0.298848
F71	F	1.006360	-0.511538	-0.944804
