data_functionalizedCrystal
_audit_creation_method	'MofGen! by Chris Wilmer'
_symmetry_space_group_name_H-M	'P1'
_symmetry_Int_Tables_number	1
_symmetry_cell_setting	triclinic
loop_
_symmetry_equiv_pos_as_xyz
  x,y,z
_cell_length_a	11.792254
_cell_length_b	11.792241
_cell_length_c	16.176319
_cell_angle_alpha	89.993071
_cell_angle_beta	89.992652
_cell_angle_gamma	84.196007
loop_
_atom_site_label
_atom_site_type_symbol
_atom_site_fract_x
_atom_site_fract_y
_atom_site_fract_z
O1	O	1.506905	0.155639	-0.068746
O2	O	2.006905	0.655639	0.431254
O3	O	1.176565	0.171657	-0.068748
O4	O	1.676565	0.671657	0.431252
O5	O	1.349751	-0.001522	-0.068741
O6	O	1.849751	0.498478	0.431259
O7	O	1.333719	0.328818	-0.068753
O8	O	1.833719	0.828818	0.431247
O9	O	1.349727	-0.001533	0.068752
O10	O	1.849727	0.498467	0.568752
O11	O	1.176541	0.171646	0.068745
O12	O	1.676541	0.671646	0.568745
O13	O	1.506881	0.155628	0.068747
O14	O	2.006881	0.655628	0.568747
Cu15	Cu	1.341709	0.163636	0.081300
Cu16	Cu	1.841709	0.663636	0.581300
Cu17	Cu	1.341737	0.163649	-0.081301
Cu18	Cu	1.841737	0.663649	0.418699
O19	O	1.333695	0.328807	0.068740
O20	O	1.833695	0.828807	0.568740
C21	C	1.134263	0.170642	-0.000002
C22	C	1.634263	0.670642	0.499998
C23	C	1.008250	0.167622	-0.000002
C24	C	1.508250	0.667622	0.499998
C25	C	0.905913	0.165168	-0.000006
C26	C	1.405913	0.665168	0.499994
C27	C	0.777527	0.162100	-0.000006
C28	C	1.277527	0.662100	0.499994
C29	C	1.348732	-0.043819	0.000005
C30	C	1.848732	0.456181	0.500005
C31	C	1.345718	-0.169832	0.000004
C32	C	1.845718	0.330168	0.500004
C33	C	1.340175	-0.400545	-0.000010
C34	C	1.840175	0.099455	0.499990
C35	C	1.343255	-0.272160	-0.000002
C36	C	1.843255	0.227840	0.499998
C37	C	1.549183	0.156643	-0.000001
C38	C	2.049183	0.656643	0.499999
C39	C	1.675196	0.159663	-0.000006
C40	C	2.175196	0.659663	0.499994
C41	C	1.334714	0.371104	-0.000008
C42	C	1.834714	0.871104	0.499992
C43	C	1.337728	0.497118	-0.000013
C44	C	1.837728	0.997118	0.499987
N45	N	1.341697	0.163626	0.195666
N46	N	1.841697	0.663626	0.695666
N47	N	1.341758	0.163650	-0.195667
N48	N	1.841758	0.663650	0.304333
C49	C	1.418407	0.086974	0.238933
C50	C	1.918407	0.586974	0.738933
C51	C	1.418413	0.086973	0.325480
C52	C	1.918413	0.586973	0.825480
C53	C	1.341713	0.163630	0.368758
C54	C	1.841713	0.663630	0.868758
C55	C	1.264995	0.240285	0.325485
C56	C	1.764995	0.740285	0.825485
C57	C	1.264984	0.240280	0.238939
C58	C	1.764984	0.740280	0.738939
C59	C	1.265034	0.240307	0.674513
C60	C	1.765034	0.740307	1.174513
C61	C	1.265052	0.240309	0.761065
C62	C	1.765052	0.740309	1.261065
C63	C	1.418462	0.086999	0.761054
C64	C	1.918462	0.586999	1.261054
C65	C	1.418452	0.086994	0.674508
C66	C	1.918452	0.586994	1.174508
C67	C	1.341730	0.163645	0.631242
C68	C	1.841730	0.663645	1.131242
C69	C	1.341723	0.163644	0.537398
C70	C	1.841723	0.663644	1.037398
C71	C	1.341725	0.163637	0.462601
C72	C	1.841725	0.663637	0.962601
H73	H	1.480870	0.024556	0.203701
H74	H	1.980870	0.524556	0.703701
Br75	Br	1.160866	0.344305	0.180219
Br76	Br	1.660866	0.844305	0.680219
Br77	Br	1.522517	-0.017060	0.384202
Br78	Br	2.022517	0.482940	0.884202
Br79	Br	1.160954	0.344352	0.819800
Br80	Br	1.660954	0.844352	1.319800
H81	H	1.480912	0.024577	0.639273
H82	H	1.980912	0.524577	1.139273
Br83	Br	1.522586	-0.017031	0.819775
Br84	Br	2.022586	0.482969	1.319775
Br85	Br	1.160917	0.344332	0.615800
Br86	Br	1.660917	0.844332	1.115800
H87	H	1.202539	0.302697	0.360727
H88	H	1.702539	0.802697	0.860727
