data_functionalizedCrystal
_audit_creation_method	'MofGen! by Chris Wilmer'
_symmetry_space_group_name_H-M	'P1'
_symmetry_Int_Tables_number	1
_symmetry_cell_setting	triclinic
loop_
_symmetry_equiv_pos_as_xyz
  x,y,z
_cell_length_a	10.723022
_cell_length_b	22.610064
_cell_length_c	10.723023
_cell_angle_alpha	90.003012
_cell_angle_beta	84.467387
_cell_angle_gamma	90.014988
loop_
_atom_site_label
_atom_site_type_symbol
_atom_site_fract_x
_atom_site_fract_y
_atom_site_fract_z
O1	O	1.657209	0.049179	0.175015
O2	O	1.294056	0.049181	0.191771
O3	O	1.484010	0.049178	0.001817
O4	O	1.467255	0.049182	0.364969
O5	O	1.483954	-0.049191	0.001816
O6	O	1.294000	-0.049188	0.191770
O7	O	1.657153	-0.049190	0.175015
Zn8	Zn	1.475568	-0.064808	0.183392
Zn9	Zn	1.475642	0.064798	0.183393
O10	O	1.467199	-0.049187	0.364969
C11	C	1.247529	-0.000004	0.190551
C12	C	1.108974	-0.000003	0.186904
C13	C	0.890796	-0.000001	0.289421
C14	C	1.033998	-0.000001	0.293192
N15	N	1.475526	-0.153260	0.183391
C16	C	1.551973	-0.561901	0.259758
C17	C	1.551988	-0.623821	0.259755
O18	O	1.616936	-0.655839	0.324677
N19	N	1.475665	-0.654797	0.183379
C20	C	1.399331	-0.623850	0.106991
O21	O	1.334415	-0.655884	0.042026
C22	C	1.399323	-0.561932	0.106988
C23	C	1.475642	-0.530959	0.183379
C24	C	1.628286	-0.530928	0.336142
C25	C	1.628269	-0.469012	0.336146
C26	C	1.551937	-0.438070	0.259767
C27	C	1.475624	-0.469043	0.183384
C28	C	1.322996	-0.530986	0.030595
C29	C	1.322995	-0.469063	0.030598
C30	C	1.399314	-0.438090	0.106989
C31	C	1.399275	-0.376185	0.107009
N32	N	1.475598	-0.345208	0.183385
C33	C	1.551929	-0.376151	0.259764
C34	C	1.399356	-0.753884	0.107001
C35	C	1.399356	-0.815802	0.107010
C36	C	1.552016	-0.815768	0.259773
C37	C	1.552008	-0.753849	0.259770
C38	C	1.475679	-0.722908	0.183378
C39	C	1.551886	-0.246124	0.259768
C40	C	1.551857	-0.184203	0.259770
C41	C	1.399203	-0.184242	0.107003
C42	C	1.399226	-0.246157	0.107006
C43	C	1.475577	-0.277097	0.183392
O44	O	1.334364	-0.344127	0.042116
O45	O	1.616847	-0.344110	0.324706
C46	C	1.703681	-0.000005	0.176234
C47	C	1.842235	-0.000002	0.179881
C48	C	1.482763	-0.000006	-0.044683
C49	C	1.479115	-0.000004	-0.183238
N50	N	1.475693	0.153250	0.183385
C51	C	1.477460	-0.050961	-0.245016
C52	C	1.473690	-0.050960	-0.388219
C53	C	1.468446	-0.000002	0.411469
C54	C	1.472094	-0.000001	0.550023
H55	H	0.906677	0.000001	0.088892
C56	C	1.712242	-0.434950	0.420167
N57	N	1.775501	-0.409298	0.483450
C58	C	1.712240	-0.564955	0.420197
N59	N	1.775464	-0.590580	0.483528
H60	H	1.614005	-0.158987	0.321982
C61	C	1.315443	-0.150193	0.022790
N62	N	1.252433	-0.124546	-0.040718
C63	C	1.471764	-0.109899	-0.459988
N64	N	1.470314	-0.154294	-0.514048
H65	H	1.075810	-0.000004	0.386980
H66	H	1.477748	0.043623	-0.236365
C67	C	0.803742	0.000000	0.412348
N68	N	0.738174	-0.000001	0.504940
H69	H	1.473507	0.043628	-0.396856
C70	C	1.052501	-0.000004	0.060192
N71	N	1.009957	-0.000004	-0.035248
H72	H	1.614059	-0.271307	0.321969
C73	C	1.635972	-0.719785	0.343795
N74	N	1.699223	-0.694130	0.407083
C75	C	1.635992	-0.849817	0.343782
N76	N	1.699240	-0.875464	0.407053
C77	C	1.315385	-0.849865	0.022989
N78	N	1.252140	-0.875519	-0.040304
C79	C	1.479309	-0.109902	-0.173249
N80	N	1.480698	-0.154297	-0.119196
H81	H	1.337187	-0.728695	0.044798
C82	C	1.239038	-0.565042	-0.053442
N83	N	1.175796	-0.590693	-0.116745
C84	C	1.239021	-0.435031	-0.053438
N85	N	1.175768	-0.409400	-0.116729
H86	H	1.337065	-0.271377	0.044818
