data_functionalizedCrystal
_audit_creation_method	'MofGen! by Chris Wilmer'
_symmetry_space_group_name_H-M	'P1'
_symmetry_Int_Tables_number	1
_symmetry_cell_setting	triclinic
loop_
_symmetry_equiv_pos_as_xyz
  x,y,z
_cell_length_a	16.120484
_cell_length_b	16.625548
_cell_length_c	16.625539
_cell_angle_alpha	90.022345
_cell_angle_beta	92.868615
_cell_angle_gamma	87.074492
loop_
_atom_site_label
_atom_site_type_symbol
_atom_site_fract_x
_atom_site_fract_y
_atom_site_fract_z
Zn1	Zn	-0.331909	-1.216387	-0.472206
Zn2	Zn	0.168091	-0.716387	0.027794
Zn3	Zn	-0.471333	-1.209445	-0.344203
Zn4	Zn	0.028667	-0.709445	0.155797
Zn5	Zn	-0.331938	-1.081547	-0.337384
Zn6	Zn	0.168062	-0.581547	0.162616
Zn7	Zn	-0.471282	-1.074677	-0.478986
Zn8	Zn	0.028718	-0.574677	0.021014
O9	O	-0.401616	-1.145514	-0.408194
O10	O	0.098384	-0.645514	0.091806
O11	O	-0.350413	-1.328298	-0.455242
O12	O	0.149587	-0.828298	0.044758
O13	O	-0.452875	-1.192450	-0.230467
O14	O	0.047125	-0.692450	0.269533
O15	O	-0.215268	-1.105214	-0.349577
O16	O	0.284732	-0.605214	0.150423
O17	O	-0.452848	-1.323198	-0.361199
O18	O	0.047152	-0.823198	0.138801
O19	O	-0.215247	-1.204280	-0.448630
O20	O	0.284753	-0.704280	0.051370
O21	O	-0.350462	-1.098483	-0.225457
O22	O	0.149538	-0.598483	0.274543
O23	O	-0.350413	-0.967804	-0.356151
O24	O	0.149587	-0.467804	0.143849
O25	O	-0.452761	-1.093505	-0.590917
O26	O	0.047239	-0.593505	-0.090917
O27	O	-0.452789	-0.962756	-0.460186
O28	O	0.047211	-0.462756	0.039814
O29	O	-0.350364	-1.197618	-0.585936
O30	O	0.149636	-0.697618	-0.085936
O31	O	-0.587992	-1.185788	-0.367773
O32	O	-0.087992	-0.685788	0.132227
O33	O	-0.587955	-1.086774	-0.466798
O34	O	-0.087955	-0.586774	0.033202
C35	C	-0.401599	-0.936024	-0.408165
C36	C	0.098401	-0.436024	0.091835
C37	C	-0.401612	-0.846402	-0.408172
C38	C	0.098388	-0.346402	0.091828
C39	C	-0.401610	-0.518227	-0.408196
C40	C	0.098390	-0.018227	0.091804
C41	C	-0.401609	-0.609535	-0.408187
C42	C	0.098391	-0.109535	0.091813
C43	C	-0.401612	-0.682312	-0.408183
C44	C	0.098388	-0.182312	0.091817
C45	C	-0.401609	-0.773626	-0.408175
C46	C	0.098391	-0.273626	0.091825
C47	C	-0.618224	-1.134804	-0.418779
C48	C	-0.118224	-0.634804	0.081221
C49	C	-0.710890	-1.130296	-0.423334
C50	C	-0.210890	-0.630296	0.076666
C51	C	-0.880551	-1.122071	-0.431666
C52	C	-0.380551	-0.622071	0.068334
C53	C	-0.921839	-1.169102	-0.384736
C54	C	-0.421839	-0.669102	0.115264
C55	C	-1.016245	-1.164525	-0.389372
C56	C	-0.516245	-0.664525	0.110628
C57	C	-0.786137	-1.126646	-0.427031
C58	C	-0.286137	-0.626646	0.072969
C59	C	-0.184162	-1.156288	-0.397587
C60	C	0.315838	-0.656288	0.102413
C61	C	-0.091496	-1.160879	-0.393066
C62	C	0.408504	-0.660879	0.106934
C63	C	-0.401554	-1.145569	-0.618500
C64	C	0.098446	-0.645569	-0.118500
C65	C	-0.401527	-1.145593	-0.708120
C66	C	0.098473	-0.645593	-0.208120
C67	C	-0.401627	-0.355822	-0.408217
C68	C	0.098373	0.144178	0.091783
C69	C	-0.401618	-0.445444	-0.408206
C70	C	0.098382	0.054556	0.091794
C71	C	-0.401434	-1.145635	-1.036292
C72	C	0.098566	-0.645635	-0.536292
C73	C	-0.401462	-1.145621	-0.944984
C74	C	0.098538	-0.645621	-0.444984
C75	C	-0.401481	-1.145614	-0.872209
C76	C	0.098519	-0.645614	-0.372209
C77	C	-0.401508	-1.145600	-0.780896
C78	C	0.098492	-0.645600	-0.280896
C79	C	-0.401617	-1.145508	-0.198704
C80	C	0.098383	-0.645508	0.301296
C81	C	-0.401409	-1.145652	-0.109073
C82	C	0.098591	-0.645652	0.390927
H83	H	-0.916102	-1.078371	-0.475323
H84	H	-0.416102	-0.578371	0.024677
H85	H	-0.886286	-1.212803	-0.341075
H86	H	-0.386286	-0.712803	0.158925
