data_functionalizedCrystal
_audit_creation_method	'MofGen! by Chris Wilmer'
_symmetry_space_group_name_H-M	'P1'
_symmetry_Int_Tables_number	1
_symmetry_cell_setting	triclinic
loop_
_symmetry_equiv_pos_as_xyz
  x,y,z
_cell_length_a	21.606444
_cell_length_b	14.560438
_cell_length_c	21.606444
_cell_angle_alpha	89.999004
_cell_angle_beta	119.998833
_cell_angle_gamma	60.010997
loop_
_atom_site_label
_atom_site_type_symbol
_atom_site_fract_x
_atom_site_fract_y
_atom_site_fract_z
Zr1	Zr	0.677330	0.885018	0.081145
O2	O	0.806426	0.738421	0.179960
O3	O	0.548232	0.929926	0.050860
O4	O	0.677325	0.929978	0.179967
O5	O	0.677337	0.738364	-0.050996
O6	O	0.677323	1.081119	0.179963
O7	O	0.677333	0.738368	0.050854
O8	O	0.446399	1.081026	-0.050985
O9	O	0.908262	0.738458	0.179952
O10	O	0.601331	1.061913	0.037933
O11	O	0.601336	0.949115	-0.038074
O12	O	0.753326	0.949176	0.113932
O13	O	0.753331	0.836378	0.037925
Zr14	Zr	0.677334	1.126064	-0.081299
Zr15	Zr	0.677327	1.126071	0.081140
Zr16	Zr	0.677337	0.885012	-0.081293
Zr17	Zr	0.839745	0.885078	0.081132
Zr18	Zr	0.514918	1.126005	-0.081286
O19	O	0.806432	1.081157	-0.051014
O20	O	0.806422	1.081166	0.179953
O21	O	0.806436	0.738411	-0.051006
O22	O	0.548237	1.272662	-0.180114
O23	O	0.548228	1.272671	0.050852
O24	O	0.548242	0.929917	-0.180107
O25	O	0.677326	1.272718	0.050842
O26	O	0.677339	1.081104	-0.180120
O27	O	0.677341	0.929964	-0.180117
O28	O	0.677331	1.272714	-0.051008
O29	O	0.908259	0.930062	0.179948
O30	O	0.446405	1.081020	-0.180102
O31	O	0.446402	1.272625	-0.180106
O32	O	0.446397	1.272630	-0.050989
O33	O	0.908267	0.738453	0.050835
O34	O	0.908265	0.930057	0.050831
O35	O	0.601337	1.061906	-0.114086
O36	O	0.601333	1.174704	-0.038079
O37	O	0.753328	1.061968	0.037920
O38	O	0.753333	0.949170	-0.038086
C39	C	0.474175	1.005467	-0.000060
C40	C	0.405225	1.005442	-0.000055
C41	C	0.677336	0.704022	-0.000070
C42	C	0.677337	0.601689	-0.000068
C43	C	-0.074242	1.088869	-0.056206
C44	C	-0.009434	1.088844	-0.056198
C45	C	0.079054	1.005587	-0.000086
C46	C	0.102734	0.922354	0.056027
C47	C	0.037927	0.922384	0.056021
C48	C	0.364097	0.922234	0.056050
C49	C	0.428905	0.922209	0.056049
C50	C	0.316737	1.088694	-0.056169
C51	C	0.251929	1.088724	-0.056175
C52	C	0.275614	1.005495	-0.000060
C53	C	0.205342	1.005524	-0.000069
C54	C	0.149327	1.005553	-0.000080
C55	C	0.677336	0.553607	0.056041
C56	C	0.677328	0.457462	0.056030
C57	C	0.677325	0.457484	-0.056200
C58	C	0.677327	0.553633	-0.056192
C59	C	0.677341	0.553591	0.120838
C60	C	0.677333	0.457445	0.120828
C61	C	0.880489	1.005615	-0.000093
C62	C	0.949439	1.005640	-0.000099
C63	C	0.677323	1.005550	0.203109
C64	C	0.677320	1.005552	0.272068
C65	C	0.677328	1.307061	-0.000084
C66	C	0.677327	1.409394	-0.000086
C67	C	0.756683	0.946693	0.735050
C68	C	0.756680	0.946690	0.670252
C69	C	0.677338	1.005539	0.598184
C70	C	0.597992	1.064385	0.590914
C71	C	0.597996	1.064380	0.655710
C72	C	0.597977	1.064402	0.329596
C73	C	0.597980	1.064404	0.264797
C74	C	0.756662	0.946711	0.344137
C75	C	0.756665	0.946707	0.408934
C76	C	0.677320	1.005548	0.401658
C77	C	0.677324	1.005549	0.471919
C78	C	0.677333	1.005545	0.527924
C79	C	0.677341	1.005535	0.796737
C80	C	0.677344	1.005537	0.727778
C81	C	0.474171	1.306987	-0.000067
C82	C	0.405220	1.409295	-0.000064
C83	C	0.474183	1.005459	-0.203246
C84	C	0.405237	1.005431	-0.272200
C85	C	0.474180	1.306979	-0.203253
C86	C	0.405232	1.409284	-0.272209
C87	C	0.880484	0.704104	0.203099
C88	C	0.949432	0.601799	0.272055
C89	C	0.880493	0.704096	-0.000087
C90	C	0.949444	0.601788	-0.000090
C91	C	0.880480	1.005624	0.203093
C92	C	0.949427	1.005652	0.272046
C93	C	0.372839	1.398464	0.039622
C94	C	0.308061	1.494584	0.039640
C95	C	0.275661	1.601534	-0.000032
C96	C	0.308049	1.612363	-0.039719
C97	C	0.372830	1.516244	-0.039733
C98	C	0.372860	1.064294	-0.344266
C99	C	0.308086	1.064264	-0.409062
C100	C	0.275686	1.005376	-0.401790
C101	C	0.308070	0.946506	-0.329717
C102	C	0.372847	0.946530	-0.264923
C103	C	0.372850	1.516217	-0.264917
C104	C	0.308076	1.612353	-0.329702
C105	C	0.275678	1.601553	-0.401779
C106	C	0.308066	1.494609	-0.409070
C107	C	0.372844	1.398475	-0.344285
C108	C	0.981821	0.494866	0.264763
C109	C	1.046616	0.398730	0.329549
C110	C	1.079017	0.409530	0.401625
C111	C	1.046625	0.516474	0.408916
C112	C	0.981835	0.612607	0.344132
C113	C	0.981832	0.612619	-0.039769
C114	C	1.046627	0.516499	-0.039769
C115	C	1.079029	0.409549	-0.000095
C116	C	1.046639	0.398720	0.039589
C117	C	0.981849	0.494839	0.039594
C118	C	0.981806	1.064551	0.264751
C119	C	1.046580	1.064599	0.329534
C120	C	1.078978	1.005741	0.401612
C121	C	1.046593	0.946840	0.408907
C122	C	0.981815	0.946799	0.344124
H123	H	-0.146290	1.156662	-0.101901
H124	H	0.677317	0.592788	-0.101886
N125	N	0.156491	1.178531	-0.116695
H126	H	0.127116	1.222291	-0.092212
H127	H	0.127162	1.142137	-0.146163
H128	H	0.955481	0.486004	0.071903
H129	H	0.222941	1.005365	-0.454556
N130	N	0.842243	0.883224	0.486663
H131	H	0.830206	0.892150	0.526608
H132	H	0.876894	0.914148	0.492663
N133	N	0.512421	1.127861	0.647868
H134	H	0.524462	1.118927	0.699851
H135	H	0.477773	1.096933	0.619219
N136	N	0.273139	1.727695	-0.321837
H137	H	0.322567	1.736716	-0.293208
H138	H	0.246242	1.736612	-0.293239
N139	N	0.273162	1.127780	-0.486787
H140	H	0.208130	1.187003	-0.515438
H141	H	0.284504	1.073720	-0.515385
H142	H	1.073031	0.311628	0.071891
N143	N	0.596658	0.647995	0.113449
H144	H	0.560654	0.713253	0.066091
H145	H	0.614684	0.673117	0.159199
N146	N	1.148899	0.305878	-0.000111
H147	H	1.202663	0.259612	0.053618
H148	H	1.164421	0.329064	-0.031308
N149	N	0.760579	0.531363	0.189092
H150	H	0.812223	0.471660	0.189553
H151	H	0.767664	0.504688	0.236810
H152	H	0.955455	0.699694	-0.072082
H153	H	0.281699	1.485745	0.071958
H154	H	0.222911	1.679791	-0.000016
N155	N	0.758011	0.363010	0.194110
H156	H	0.758050	0.386076	0.238208
H157	H	0.811961	0.346096	0.199021
H158	H	0.955438	1.112480	0.206066
N159	N	0.273108	1.482980	-0.486815
H160	H	0.246220	1.440507	-0.492888
H161	H	0.322563	1.440558	-0.492856
H162	H	0.399200	0.898601	-0.206246
N163	N	1.081547	0.883358	0.486652
H164	H	1.108435	0.800998	0.492730
H165	H	1.032088	0.914305	0.492689
N166	N	0.407774	1.527896	-0.187186
H167	H	0.434655	1.570376	-0.181121
H168	H	0.453690	1.450743	-0.147287
N169	N	0.512402	1.127903	0.321746
H170	H	0.462141	1.165199	0.266258
H171	H	0.508970	1.187086	0.346904
N172	N	0.389636	0.832464	0.116559
H173	H	0.365259	0.868806	0.146041
H174	H	0.455529	0.779738	0.152054
N175	N	0.946895	0.483196	0.187030
H176	H	0.900935	0.560316	0.147087
H177	H	0.920073	0.440657	0.181031
N178	N	0.273115	0.883002	-0.321880
H179	H	0.227163	0.891932	-0.373866
H180	H	0.246273	0.913920	-0.293235
N181	N	1.081500	1.128133	0.321657
H182	H	1.051149	1.165401	0.266164
H183	H	1.146535	1.074105	0.346809
H184	H	0.614485	0.474239	0.109510
H185	H	1.072978	0.311661	0.323597
N186	N	1.148892	0.305842	0.471500
H187	H	1.202646	0.259587	0.471519
H188	H	1.126264	0.259647	0.471483
N189	N	0.205794	1.705248	-0.471649
H190	H	0.190175	1.682189	-0.518420
H191	H	0.228388	1.751497	-0.471611
N192	N	0.407749	1.527934	-0.082542
H193	H	0.377387	1.610274	-0.107671
H194	H	0.396467	1.490612	-0.122435
H195	H	0.533390	1.112294	0.532230
H196	H	1.131725	1.005783	0.454356
H197	H	0.399201	1.311409	-0.350233
N198	N	0.273084	1.727725	-0.082512
H199	H	0.246197	1.736729	-0.138017
H200	H	0.322535	1.736707	-0.061655
N201	N	0.063464	0.832622	0.116539
H202	H	0.129354	0.779873	0.152087
H203	H	0.039010	0.788963	0.092003
H204	H	0.500959	0.854402	0.101743
H205	H	1.073014	0.525254	0.467609
H206	H	0.174787	0.854568	0.101717
N207	N	0.946901	0.727941	0.352002
H208	H	0.977260	0.720184	0.407495
H209	H	0.881870	0.770369	0.326861
N210	N	1.081553	0.528193	-0.082574
H211	H	1.051185	0.610532	-0.107711
H212	H	1.070287	0.490856	-0.122459
N213	N	0.677307	0.405657	-0.116735
H214	H	0.677301	0.337454	-0.108230
H215	H	0.731264	0.382441	-0.114264
N216	N	0.842253	0.883233	0.678094
H217	H	0.892516	0.845962	0.733581
H218	H	0.845697	0.937309	0.652934
H219	H	0.399232	1.112248	-0.350201
H220	H	0.955459	0.898831	0.350075
H221	H	0.821293	0.898777	0.793728
H222	H	0.533366	1.112326	0.206115
N223	N	-0.034973	1.178617	-0.116709
H224	H	-0.100863	1.231362	-0.152257
H225	H	-0.010534	1.142192	-0.146132
H226	H	0.821268	0.898796	0.350055
H227	H	0.399218	1.311388	0.071937
H228	H	0.297457	1.156466	-0.101859
