data_functionalizedCrystal
_audit_creation_method	'MofGen! by Chris Wilmer'
_symmetry_space_group_name_H-M	'P1'
_symmetry_Int_Tables_number	1
_symmetry_cell_setting	triclinic
loop_
_symmetry_equiv_pos_as_xyz
  x,y,z
_cell_length_a	15.944551
_cell_length_b	17.699104
_cell_length_c	16.176319
_cell_angle_alpha	89.991696
_cell_angle_beta	90.001912
_cell_angle_gamma	96.604872
loop_
_atom_site_label
_atom_site_type_symbol
_atom_site_fract_x
_atom_site_fract_y
_atom_site_fract_z
O1	O	-0.106305	1.004250	-0.068754
O2	O	-0.120107	0.783898	-0.068751
O3	O	0.009081	0.900091	-0.068758
O4	O	-0.235493	0.888057	-0.068748
O5	O	0.009089	0.900075	0.068736
O6	O	-0.120098	0.783882	0.068742
O7	O	-0.106297	1.004234	0.068739
Cu8	Cu	-0.113197	0.894057	0.081295
Cu9	Cu	-0.113207	0.894076	-0.081307
O10	O	-0.235485	0.888041	0.068745
C11	C	-0.119605	0.755692	-0.000004
C12	C	-0.118113	0.671672	-0.000004
C13	C	-0.185526	0.146917	-0.000010
C14	C	-0.186923	0.225863	-0.000012
C15	C	-0.111085	0.274351	-0.000015
C16	C	-0.033845	0.243889	-0.000024
C17	C	-0.032448	0.164944	-0.000027
C18	C	-0.039475	0.562265	-0.000010
C19	C	-0.040877	0.641214	-0.000004
C20	C	-0.193950	0.623183	0.000005
C21	C	-0.192553	0.544238	0.000002
C22	C	-0.115313	0.513783	-0.000012
C23	C	-0.113799	0.428181	-0.000011
C24	C	-0.112598	0.359952	-0.000010
C25	C	-0.266782	0.888548	-0.000000
C26	C	-0.360025	0.890046	0.000003
C27	C	-0.574729	0.965649	-0.000010
C28	C	-0.635812	0.930533	0.067782
C29	C	-0.530745	0.892756	-0.000004
C30	C	-0.635806	0.930532	-0.067775
C31	C	-0.695653	0.895379	-0.000015
C32	C	-0.590600	0.857621	0.067845
C33	C	-0.590587	0.857629	-0.067774
C34	C	-0.651653	0.822461	0.000035
C35	C	-0.435746	0.891247	0.000003
C36	C	-0.790651	0.896882	-0.000016
C37	C	0.040378	0.899584	-0.000014
C38	C	0.133621	0.898086	-0.000023
C39	C	-0.106799	1.032440	-0.000010
C40	C	-0.108291	1.116460	-0.000016
N41	N	-0.113190	0.894049	0.195660
N42	N	-0.113207	0.894089	-0.195672
C43	C	-0.056009	0.945515	0.238921
C44	C	-0.056008	0.945519	0.325468
C45	C	-0.113193	0.894060	0.368752
C46	C	-0.170376	0.842588	0.325485
C47	C	-0.170372	0.842581	0.238940
C48	C	-0.170392	0.842614	0.674513
C49	C	-0.170393	0.842626	0.761065
C50	C	-0.056027	0.945551	0.761042
C51	C	-0.056024	0.945545	0.674497
C52	C	-0.113204	0.894071	0.631237
C53	C	-0.113203	0.894066	0.537393
C54	C	-0.113198	0.894067	0.462595
H55	H	0.030444	0.140148	-0.000034
Br56	Br	-0.669225	0.981908	0.163303
Br57	Br	0.021599	1.015364	0.384183
H58	H	-0.009465	0.987462	0.796273
Br59	Br	-0.669197	0.981951	-0.163294
H60	H	-0.249815	0.250656	-0.000014
H61	H	-0.541301	1.026154	0.000056
H62	H	-0.570668	0.826807	0.125220
H63	H	-0.570524	0.826832	-0.125089
Br64	Br	-0.295480	0.478437	0.000010
H65	H	-0.684934	0.761904	0.000074
Br66	Br	-0.298778	0.664518	0.000020
Br67	Br	0.021598	1.015362	0.180187
Br68	Br	-0.248007	0.772785	0.819808
H69	H	-0.216934	0.800671	0.203717
Br70	Br	-0.288455	0.081118	0.000004
H71	H	0.020883	0.680692	-0.000009
H72	H	0.023419	0.537478	-0.000019
Br73	Br	0.069080	0.309693	-0.000032
H74	H	-0.009461	0.987450	0.639257
Br75	Br	-0.247993	0.772760	0.615808
H76	H	-0.216934	0.800685	0.360732
