data_functionalizedCrystal
_audit_creation_method	'MofGen! by Chris Wilmer'
_symmetry_space_group_name_H-M	'P1'
_symmetry_Int_Tables_number	1
_symmetry_cell_setting	triclinic
loop_
_symmetry_equiv_pos_as_xyz
  x,y,z
_cell_length_a	13.033293
_cell_length_b	16.120531
_cell_length_c	16.120256
_cell_angle_alpha	84.387676
_cell_angle_beta	85.311795
_cell_angle_gamma	79.562967
loop_
_atom_site_label
_atom_site_type_symbol
_atom_site_fract_x
_atom_site_fract_y
_atom_site_fract_z
Zn1	Zn	1.543876	0.208073	-0.638603
Zn2	Zn	1.543726	0.340772	-0.505890
Zn3	Zn	1.378441	0.216937	-0.482865
Zn4	Zn	1.359708	0.365540	-0.627834
O5	O	1.456438	0.282831	-0.563798
O6	O	1.690103	0.211600	-0.635142
O7	O	1.529577	0.317690	-0.386625
O8	O	1.408289	0.098035	-0.498395
O9	O	1.689993	0.309094	-0.537639
O10	O	1.529834	0.091522	-0.612815
O11	O	1.408144	0.226709	-0.369708
O12	O	1.229709	0.250725	-0.487952
O13	O	1.376361	0.351308	-0.745473
O14	O	1.215945	0.359903	-0.594460
O15	O	1.511669	0.235617	-0.753385
O16	O	1.511412	0.461784	-0.527196
O17	O	1.376215	0.479981	-0.616787
C18	C	1.184907	0.308964	-0.537539
C19	C	1.068742	0.320166	-0.526326
C20	C	1.016996	0.277006	-0.569651
C21	C	0.896934	0.288582	-0.558063
C22	C	1.441792	0.501406	-0.573342
C23	C	1.435620	0.594906	-0.577462
C24	C	1.424356	0.766090	-0.585001
C25	C	1.488561	0.798724	-0.542552
C26	C	1.482294	0.893977	-0.546747
C27	C	1.430622	0.670829	-0.580807
C28	C	1.729029	0.256595	-0.590160
C29	C	1.845191	0.245416	-0.601394
C30	C	1.471132	1.063403	-0.554219
C31	C	1.477301	0.969903	-0.550089
C32	C	1.441942	0.295236	-0.780404
C33	C	1.435765	0.300523	-0.872708
C34	C	1.488651	0.255241	-1.086746
C35	C	1.424454	0.310143	-1.041700
C36	C	1.430749	0.304788	-0.947664
C37	C	1.482357	0.260594	-1.180791
C38	C	1.470941	0.270407	-0.348038
C39	C	1.477337	0.264864	-0.255743
H40	H	0.852354	0.334104	-0.512386
Cl41	Cl	1.085822	0.206719	-0.640165
H42	H	1.548335	0.204221	-1.054691
H43	H	1.024158	0.365685	-0.480653
Cl44	Cl	1.580691	0.731415	-0.481573
Cl45	Cl	1.332300	0.388923	-1.091191
Cl46	Cl	0.914010	0.175121	-0.671907
Cl47	Cl	1.332226	0.833400	-0.645969
