data_functionalizedCrystal
_audit_creation_method	'MofGen! by Chris Wilmer'
_symmetry_space_group_name_H-M	'P1'
_symmetry_Int_Tables_number	1
_symmetry_cell_setting	triclinic
loop_
_symmetry_equiv_pos_as_xyz
  x,y,z
_cell_length_a	12.759401
_cell_length_b	12.759399
_cell_length_c	12.759393
_cell_angle_alpha	90.030906
_cell_angle_beta	89.979062
_cell_angle_gamma	89.983359
loop_
_atom_site_label
_atom_site_type_symbol
_atom_site_fract_x
_atom_site_fract_y
_atom_site_fract_z
Zn1	Zn	1.606263	0.418173	-0.594017
Zn2	Zn	1.606153	0.593888	-0.418336
Zn3	Zn	1.430562	0.418229	-0.418352
Zn4	Zn	1.430553	0.593815	-0.593973
O5	O	1.518383	0.506026	-0.506170
O6	O	1.753270	0.441489	-0.570724
O7	O	1.582818	0.570641	-0.271317
O8	O	1.453919	0.271200	-0.441680
O9	O	1.753189	0.570587	-0.441652
O10	O	1.583006	0.271159	-0.570740
O11	O	1.453812	0.441584	-0.271329
O12	O	1.283540	0.441513	-0.441637
O13	O	1.453903	0.570461	-0.741000
O14	O	1.283533	0.570516	-0.570665
O15	O	1.582997	0.441418	-0.741032
O16	O	1.582809	0.740900	-0.441609
O17	O	1.453796	0.740846	-0.570649
C18	C	1.245415	0.506013	-0.506149
C19	C	1.128639	0.506033	-0.506165
C20	C	1.518318	0.778994	-0.506146
C21	C	1.518387	0.895770	-0.506171
C22	C	1.518461	0.505925	-0.780203
C23	C	1.518495	0.505882	-0.896980
C24	C	1.073801	0.573307	-0.573244
C25	C	0.964077	0.573311	-0.573265
C26	C	0.964038	0.438764	-0.439118
C27	C	1.073760	0.438756	-0.439104
C28	C	0.814180	0.611009	-0.697125
C29	C	0.759339	0.678300	-0.764195
C30	C	0.794936	0.780830	-0.780142
C31	C	0.885373	0.816092	-0.729004
C32	C	0.940209	0.748807	-0.661926
C33	C	0.904613	0.646262	-0.645999
C34	C	1.223659	0.401068	-0.315242
C35	C	1.278497	0.333788	-0.248158
C36	C	1.242902	0.231255	-0.232200
C37	C	1.152461	0.195998	-0.283320
C38	C	1.097623	0.263278	-0.350404
C39	C	1.133226	0.365809	-0.366363
C40	C	1.792416	0.506040	-0.506191
C41	C	1.909193	0.506046	-0.506200
C42	C	1.518476	0.231993	-0.506217
C43	C	1.518516	0.115216	-0.506237
C44	C	1.585641	0.950625	-0.439056
C45	C	1.585708	1.060349	-0.439091
C46	C	1.451259	1.060353	-0.573359
C47	C	1.451198	0.950631	-0.573328
C48	C	1.585719	0.438679	-0.951860
C49	C	1.585737	0.438633	-1.061584
C50	C	1.451303	0.573004	-1.061538
C51	C	1.451281	0.573044	-0.951816
C52	C	1.518365	0.506051	-0.233202
C53	C	1.518535	0.505798	-0.116426
H54	H	1.118479	0.628086	-0.627852
C55	C	0.998139	0.224487	-0.406643
N56	N	0.923210	0.195270	-0.449003
H57	H	1.396555	1.105035	-0.628034
C58	C	1.377370	0.646876	-1.121868
N59	N	1.321682	0.702517	-1.167307
C60	C	1.377322	0.646974	-0.891444
N61	N	1.321616	0.702653	-0.845972
H62	H	1.396432	0.905965	-0.627986
H63	H	1.640446	0.383989	-0.907216
H64	H	1.640476	0.383908	-1.106263
C65	C	1.659688	1.120685	-0.365255
N66	N	1.715413	1.166129	-0.309638
C67	C	0.924515	0.928890	-0.746540
N68	N	0.954001	1.013851	-0.759751
C69	C	1.039687	0.787588	-0.605680
N70	N	1.114620	0.816798	-0.563322
H71	H	0.750276	0.835618	-0.834753
H72	H	0.785196	0.527517	-0.684158
C73	C	0.659865	0.639505	-0.820452
N74	N	0.584942	0.610290	-0.862823
C75	C	1.113304	0.083205	-0.265768
N76	N	1.083813	-0.001752	-0.252544
C77	C	1.303209	0.157260	-0.158374
N78	N	1.348624	0.101529	-0.102764
C79	C	0.903662	0.364769	-0.365349
N80	N	0.858187	0.309037	-0.309782
H81	H	1.252656	0.484556	-0.328239
C82	C	1.377994	0.372571	-0.191938
N83	N	1.452940	0.401779	-0.149602
H84	H	1.640352	0.905960	-0.384374
