data_functionalizedCrystal
_audit_creation_method	'MofGen! by Chris Wilmer'
_symmetry_space_group_name_H-M	'P1'
_symmetry_Int_Tables_number	1
_symmetry_cell_setting	triclinic
loop_
_symmetry_equiv_pos_as_xyz
  x,y,z
_cell_length_a	10.686220
_cell_length_b	13.897448
_cell_length_c	10.686551
_cell_angle_alpha	94.407384
_cell_angle_beta	89.691918
_cell_angle_gamma	94.399460
loop_
_atom_site_label
_atom_site_type_symbol
_atom_site_fract_x
_atom_site_fract_y
_atom_site_fract_z
Zn1	Zn	1.972272	-0.235165	0.562377
Zn2	Zn	2.472272	0.264835	1.062377
Zn3	Zn	1.956032	-0.409754	0.352612
Zn4	Zn	2.456032	0.090246	0.852612
Zn5	Zn	1.746389	-0.259840	0.368693
Zn6	Zn	2.246389	0.240160	0.868693
Zn7	Zn	1.762462	-0.407799	0.578389
Zn8	Zn	2.262462	0.092201	1.078389
O9	O	1.859289	-0.328139	0.465518
O10	O	2.359289	0.171861	0.965518
O11	O	2.145660	-0.248816	0.521120
O12	O	2.645660	0.251184	1.021120
O13	O	1.914699	-0.401012	0.179199
O14	O	2.414699	0.098988	0.679199
O15	O	1.776423	-0.121579	0.394415
O16	O	2.276423	0.378421	0.894415
O17	O	2.133728	-0.377086	0.367006
O18	O	2.633728	0.122914	0.867006
O19	O	1.942379	-0.103450	0.536713
O20	O	2.442379	0.396550	1.036713
O21	O	1.760675	-0.290871	0.191014
O22	O	2.260675	0.209129	0.691014
O23	O	1.572979	-0.288976	0.409942
O24	O	2.072979	0.211024	0.909942
O25	O	1.803817	-0.373754	0.751811
O26	O	2.303817	0.126246	1.251811
O27	O	1.584787	-0.397681	0.564004
O28	O	2.084787	0.102319	1.064004
O29	O	1.957964	-0.246920	0.740047
O30	O	2.457964	0.253080	1.240047
O31	O	1.930284	-0.544482	0.382532
O32	O	2.430284	-0.044482	0.882532
O33	O	1.788069	-0.543046	0.548410
O34	O	2.288069	-0.043046	1.048410
C35	C	1.533367	-0.345794	0.490456
C36	C	2.033367	0.154206	0.990456
C37	C	1.393938	-0.353368	0.501155
C38	C	1.893938	0.146632	1.001155
C39	C	1.859194	-0.578761	0.465489
C40	C	2.359194	-0.078761	0.965489
C41	C	1.859272	-0.685969	0.465509
C42	C	2.359272	-0.185969	0.965509
C43	C	1.859410	-0.882252	0.465578
C44	C	2.359410	-0.382252	0.965578
C45	C	1.859330	-0.773026	0.465544
C46	C	2.359330	-0.273026	0.965544
C47	C	2.186483	-0.310416	0.440483
C48	C	2.686483	0.189584	0.940483
C49	C	2.325914	-0.302864	0.429814
C50	C	2.825914	0.197136	0.929814
C51	C	1.884495	-0.307367	0.792719
C52	C	2.384495	0.192633	1.292719
C53	C	1.895236	-0.298514	0.932152
C54	C	2.395236	0.201486	1.432152
C55	C	1.859420	-0.076535	0.465572
C56	C	2.359420	0.423465	0.965572
C57	C	1.859475	0.030683	0.465595
C58	C	2.359475	0.530683	0.965595
C59	C	1.834253	-0.348758	0.139584
C60	C	2.334253	0.151242	0.639584
C61	C	1.823755	-0.357325	0.000133
C62	C	2.323755	0.142675	0.500133
H63	H	1.374343	-0.253831	0.360550
H64	H	1.874343	0.246169	0.860550
O65	O	1.335971	-0.411796	0.583764
O66	O	1.835971	0.088204	1.083764
C67	C	1.204992	-0.406626	0.576399
C68	C	1.704992	0.093374	1.076399
H69	H	1.184071	-0.335690	0.536829
H70	H	1.684071	0.164310	1.036829
H71	H	1.162629	-0.470011	0.512287
H72	H	1.662629	0.029989	1.012287
C73	C	1.173098	-0.498304	0.757013
C74	C	1.673098	0.001696	1.257013
C75	C	1.147403	-0.411175	0.708423
C76	C	1.647403	0.088825	1.208423
H77	H	1.137572	-0.501114	0.838450
H78	H	1.637572	-0.001114	1.338450
H79	H	1.261341	-0.501791	0.761973
H80	H	1.761341	-0.001791	1.261973
H81	H	1.137795	-0.551115	0.703575
H82	H	1.637795	-0.051115	1.203575
H83	H	1.182719	-0.358366	0.761852
H84	H	1.682719	0.141634	1.261852
H85	H	1.059164	-0.407679	0.703475
H86	H	1.559164	0.092321	1.203475
H87	H	1.964657	-0.241396	0.980622
H88	H	2.464657	0.258604	1.480622
H89	H	1.754338	-0.414454	0.951656
H90	H	2.254338	0.085546	1.451656
