data_functionalizedCrystal
_audit_creation_method	'MofGen! by Chris Wilmer'
_symmetry_space_group_name_H-M	'P1'
_symmetry_Int_Tables_number	1
_symmetry_cell_setting	triclinic
loop_
_symmetry_equiv_pos_as_xyz
  x,y,z
_cell_length_a	11.169409
_cell_length_b	17.077404
_cell_length_c	17.077402
_cell_angle_alpha	90.020853
_cell_angle_beta	89.962008
_cell_angle_gamma	89.978063
loop_
_atom_site_label
_atom_site_type_symbol
_atom_site_fract_x
_atom_site_fract_y
_atom_site_fract_z
Zn1	Zn	-0.678563	1.200082	-0.312487
Zn2	Zn	-0.477860	1.199981	-0.443781
Zn3	Zn	-0.477890	1.068806	-0.312528
Zn4	Zn	-0.678498	1.068782	-0.443710
O5	O	-0.578203	1.134413	-0.378127
O6	O	-0.651954	1.309916	-0.329916
O7	O	-0.309914	1.182548	-0.426417
O8	O	-0.504550	1.086272	-0.202676
O9	O	-0.504499	1.309842	-0.426377
O10	O	-0.651983	1.182721	-0.202646
O11	O	-0.309936	1.086174	-0.329986
O12	O	-0.504486	0.958956	-0.329918
O13	O	-0.846456	1.086232	-0.426256
O14	O	-0.651872	0.958938	-0.426296
O15	O	-0.846504	1.182697	-0.329847
O16	O	-0.504435	1.182525	-0.553618
O17	O	-0.651843	1.086134	-0.553566
C18	C	-0.578176	0.930465	-0.378104
C19	C	-0.578193	0.843215	-0.378114
C20	C	-0.655090	0.802265	-0.327976
C21	C	-0.655096	0.720284	-0.327981
C22	C	-0.578209	0.679256	-0.378128
C23	C	-0.501303	0.720212	-0.428268
C24	C	-0.501293	0.802191	-0.428259
C25	C	-0.501333	0.549342	-0.428286
C26	C	-0.501345	0.467358	-0.428297
C27	C	-0.655136	0.467435	-0.328008
C28	C	-0.655125	0.549414	-0.327999
C29	C	-0.578221	0.590365	-0.378140
C30	C	-0.891245	1.134473	-0.378039
C31	C	-1.024646	1.134499	-0.378002
C32	C	-0.266378	1.134398	-0.378157
C33	C	-0.132979	1.134524	-0.377973
C34	C	-0.578155	1.134337	-0.582074
C35	C	-0.578175	1.134377	-0.669324
C36	C	-0.578231	1.339157	-0.378149
C37	C	-0.578242	1.426407	-0.378159
C38	C	-0.501502	1.184619	-0.710315
C39	C	-0.501532	1.184657	-0.792296
C40	C	-0.578231	1.134449	-0.833284
C41	C	-0.654912	1.084204	-0.792287
C42	C	-0.654886	1.084170	-0.710308
C43	C	-0.654957	1.084277	-0.963157
C44	C	-0.654982	1.084310	-1.045141
C45	C	-0.501604	1.184764	-1.045145
C46	C	-0.501578	1.184730	-0.963166
C47	C	-0.578258	1.134484	-0.922175
C48	C	-0.578277	1.134510	-0.173382
C49	C	-0.578309	1.134552	-0.086132
H50	H	-0.438695	0.686801	-0.469096
N51	N	-0.738046	0.676130	-0.273899
H52	H	-0.793584	0.642123	-0.305840
H53	H	-0.689299	0.642160	-0.237492
H54	H	-0.438674	0.835532	-0.469086
H55	H	-0.717322	1.043259	-0.676934
H56	H	-0.717740	0.582817	-0.287169
N57	N	-0.418862	1.238885	-0.918954
H58	H	-0.333094	1.226734	-0.933275
H59	H	-0.437693	1.294947	-0.933185
H60	H	-0.439172	1.225678	-1.078524
H61	H	-0.717703	0.835664	-0.287142
N62	N	-0.418836	1.238847	-0.836509
H63	H	-0.370239	1.270644	-0.798103
H64	H	-0.363266	1.206924	-0.870580
H65	H	-0.438738	0.433955	-0.469132
H66	H	-0.439040	1.225501	-0.676948
H67	H	-0.717752	0.434089	-0.287180
N68	N	-0.418383	0.593513	-0.482362
H69	H	-0.369679	0.555084	-0.514134
H70	H	-0.467134	0.627533	-0.518720
N71	N	-0.737707	1.030161	-1.089353
H72	H	-0.786288	0.998330	-1.050947
H73	H	-0.793292	1.062116	-1.123311
H74	H	-0.717403	1.043364	-0.929785
H75	H	-0.717366	1.043327	-0.825666
