data_functionalizedCrystal
_audit_creation_method	'MofGen! by Chris Wilmer'
_symmetry_space_group_name_H-M	'P1'
_symmetry_Int_Tables_number	1
_symmetry_cell_setting	triclinic
loop_
_symmetry_equiv_pos_as_xyz
  x,y,z
_cell_length_a	18.050591
_cell_length_b	25.639239
_cell_length_c	18.050582
_cell_angle_alpha	89.975362
_cell_angle_beta	89.979078
_cell_angle_gamma	90.034692
loop_
_atom_site_label
_atom_site_type_symbol
_atom_site_fract_x
_atom_site_fract_y
_atom_site_fract_z
Zn1	Zn	1.135238	-0.208240	-0.420021
Zn2	Zn	1.635238	0.291760	0.079979
Zn3	Zn	1.135126	-0.295667	-0.295826
Zn4	Zn	1.635126	0.204333	0.204174
Zn5	Zn	1.011058	-0.208242	-0.295832
Zn6	Zn	1.511058	0.291758	0.204168
Zn7	Zn	1.010983	-0.295640	-0.419962
Zn8	Zn	1.510983	0.204360	0.080038
O9	O	1.073101	-0.251947	-0.357910
O10	O	1.573101	0.248053	0.142090
O11	O	1.239148	-0.219848	-0.403568
O12	O	1.739148	0.280152	0.096432
O13	O	1.118653	-0.284083	-0.191902
O14	O	1.618653	0.215917	0.308098
O15	O	1.027609	-0.135076	-0.312333
O16	O	1.527609	0.364924	0.187667
O17	O	1.239066	-0.284081	-0.312323
O18	O	1.739066	0.215919	0.187677
O19	O	1.118844	-0.135075	-0.403574
O20	O	1.618844	0.364925	0.096426
O21	O	1.027500	-0.219851	-0.191906
O22	O	1.527500	0.280149	0.308094
O23	O	0.907123	-0.219825	-0.312276
O24	O	1.407123	0.280175	0.187724
O25	O	1.027481	-0.284034	-0.523894
O26	O	1.527481	0.215966	-0.023894
O27	O	0.907068	-0.284036	-0.403473
O28	O	1.407068	0.215964	0.096527
O29	O	1.118771	-0.219821	-0.523938
O30	O	1.618771	0.280179	-0.023938
O31	O	1.118580	-0.368829	-0.312266
O32	O	1.618580	0.131171	0.187734
O33	O	1.027373	-0.368809	-0.403468
O34	O	1.527373	0.131191	0.096532
C35	C	0.880149	-0.251928	-0.357869
C36	C	1.380149	0.248072	0.142131
C37	C	0.797604	-0.251932	-0.357869
C38	C	1.297604	0.248068	0.142131
C39	C	0.598161	-0.216974	-0.308390
C40	C	1.098161	0.283026	0.191610
C41	C	0.548729	-0.264661	-0.290112
C42	C	1.048729	0.235339	0.209888
C43	C	0.646473	-0.251948	-0.357903
C44	C	1.146473	0.248052	0.142097
C45	C	0.548824	-0.204277	-0.376179
C46	C	1.048824	0.295723	0.123821
C47	C	0.500488	-0.251959	-0.357934
C48	C	1.000488	0.248041	0.142066
C49	C	0.598128	-0.299660	-0.339589
C50	C	1.098128	0.200340	0.160411
C51	C	0.598227	-0.239244	-0.425688
C52	C	1.098227	0.260756	0.074312
C53	C	0.548817	-0.286965	-0.407435
C54	C	1.048817	0.213035	0.092565
C55	C	0.730571	-0.251941	-0.357883
C56	C	1.230571	0.248059	0.142117
C57	C	0.416392	-0.251971	-0.357954
C58	C	0.916392	0.248029	0.142046
C59	C	1.072977	-0.387790	-0.357876
C60	C	1.572977	0.112210	0.142124
C61	C	1.072991	-0.445904	-0.357886
C62	C	1.572991	0.054096	0.142114
C63	C	1.120717	-0.806265	-0.310502
C64	C	1.620717	-0.306265	0.189498
C65	C	1.120746	-0.860869	-0.310512
C66	C	1.620746	-0.360869	0.189488
O67	O	1.161195	-0.889104	-0.270187
O68	O	1.661195	-0.389104	0.229813
N69	N	1.073232	-0.888186	-0.357959
N70	N	1.573232	-0.388186	0.142041
C71	C	1.025691	-0.860896	-0.405405
C72	C	1.525691	-0.360896	0.094595
O73	O	0.985280	-0.889145	-0.445764
O74	O	1.485280	-0.389145	0.054236
C75	C	1.025667	-0.806293	-0.405398
C76	C	1.525667	-0.306293	0.094602
C77	C	1.073179	-0.778979	-0.357943
C78	C	1.573179	-0.278979	0.142057
C79	C	1.168226	-0.778951	-0.263051
C80	C	1.668226	-0.278951	0.236949
C81	C	1.168196	-0.724350	-0.263040
C82	C	1.668196	-0.224350	0.236960
C83	C	1.120657	-0.697064	-0.310481
C84	C	1.620657	-0.197064	0.189519
C85	C	1.073149	-0.724378	-0.357932
C86	C	1.573149	-0.224378	0.142068
C87	C	0.978131	-0.779004	-0.452847
C88	C	1.478131	-0.279004	0.047153
C89	C	0.978111	-0.724397	-0.452837
C90	C	1.478111	-0.224397	0.047163
C91	C	1.025622	-0.697083	-0.405381
C92	C	1.525622	-0.197083	0.094619
C93	C	1.025580	-0.642491	-0.405362
C94	C	1.525580	-0.142491	0.094638
N95	N	1.073094	-0.615174	-0.357914
N96	N	1.573094	-0.115174	0.142086
C97	C	1.120633	-0.642460	-0.310474
C98	C	1.620633	-0.142460	0.189526
C99	C	1.025747	-0.975567	-0.405416
C100	C	1.525747	-0.475567	0.094584
C101	C	1.025768	-1.030169	-0.405420
C102	C	1.525768	-0.530169	0.094580
C103	C	1.120823	-1.030138	-0.310528
C104	C	1.620823	-0.530138	0.189472
C105	C	1.120799	-0.975535	-0.310521
C106	C	1.620799	-0.475535	0.189479
C107	C	1.073261	-0.948250	-0.357969
C108	C	1.573261	-0.448250	0.142031
C109	C	1.120566	-0.527795	-0.310455
C110	C	1.620566	-0.027795	0.189545
C111	C	1.120530	-0.473190	-0.310446
C112	C	1.620530	0.026810	0.189554
C113	C	1.025477	-0.473226	-0.405340
C114	C	1.525477	0.026774	0.094660
C115	C	1.025510	-0.527826	-0.405347
C116	C	1.525510	-0.027826	0.094653
C117	C	1.073061	-0.555110	-0.357901
C118	C	1.573061	-0.055110	0.142099
O119	O	0.985154	-0.614222	-0.445668
O120	O	1.485154	-0.114222	0.054332
O121	O	1.161044	-0.614205	-0.270129
O122	O	1.661044	-0.114205	0.229871
C123	C	1.266807	-0.251967	-0.357952
C124	C	1.766807	0.248033	0.142048
C125	C	1.349353	-0.251976	-0.357970
C126	C	1.849353	0.248024	0.142030
C127	C	1.073131	-0.251924	-0.551616
C128	C	1.573131	0.248076	-0.051616
C129	C	1.073143	-0.251914	-0.634162
C130	C	1.573143	0.248086	-0.134162
C131	C	1.073247	-0.115574	-0.357961
C132	C	1.573247	0.384426	0.142039
C133	C	1.073309	-0.057460	-0.357982
C134	C	1.573309	0.442540	0.142018
C135	C	1.023537	-0.286785	-0.833589
C136	C	1.523537	0.213215	-0.333589
C137	C	1.091289	-0.299569	-0.882987
C138	C	1.591289	0.200431	-0.382987
C139	C	1.073180	-0.251874	-0.785292
C140	C	1.573180	0.248126	-0.285292
C141	C	1.005465	-0.239076	-0.882976
C142	C	1.505465	0.260924	-0.382976
C143	C	1.073209	-0.251837	-0.931277
C144	C	1.573209	0.248163	-0.431277
C145	C	1.140967	-0.264683	-0.833603
C146	C	1.640967	0.235317	-0.333603
C147	C	1.055097	-0.204168	-0.833588
C148	C	1.555097	0.295832	-0.333588
C149	C	1.122896	-0.216933	-0.882963
C150	C	1.622896	0.283067	-0.382963
C151	C	1.073162	-0.251897	-0.701194
C152	C	1.573162	0.248103	-0.201194
C153	C	1.073235	-0.251814	-1.015374
C154	C	1.573235	0.248186	-0.515374
C155	C	1.073115	-0.251933	-0.164958
C156	C	1.573115	0.248067	0.335042
C157	C	1.073247	-0.251795	-0.082413
C158	C	1.573247	0.248205	0.417587
H159	H	1.159219	-0.450952	-0.271799
H160	H	1.659219	0.049048	0.228201
C161	C	0.519567	-0.149807	-0.397049
C162	C	1.019567	0.350193	0.102951
N163	N	0.497534	-0.108779	-0.412763
N164	N	0.997534	0.391221	0.087237
H165	H	0.619827	-0.187429	-0.266473
H166	H	1.119827	0.312571	0.233527
C167	C	0.627263	-0.354145	-0.318627
C168	C	1.127263	0.145855	0.181373
N169	N	0.649209	-0.395182	-0.302836
N170	N	1.149209	0.104818	0.197164
C171	C	1.220457	-0.694311	-0.210829
C172	C	1.720457	-0.194311	0.289171
N173	N	1.259821	-0.671690	-0.171499
N174	N	1.759821	-0.171690	0.328501
H175	H	0.527288	-0.316580	-0.449320
H176	H	1.027288	0.183420	0.050680
H177	H	0.939401	-0.702184	-0.491477
H178	H	1.439401	-0.202184	0.008523
C179	C	1.179690	-0.177027	-0.912068
C180	C	1.679690	0.322973	-0.412068
N181	N	1.222470	-0.146972	-0.933992
N182	N	1.722470	0.353028	-0.433992
H183	H	0.948187	-0.228267	-0.904665
H184	H	1.448187	0.271733	-0.404665
C185	C	0.627630	-0.224695	-0.503088
C186	C	1.127630	0.275305	-0.003088
N187	N	0.649779	-0.213730	-0.561385
N188	N	1.149779	0.286270	-0.061385
H189	H	1.198261	-0.275538	-0.812006
H190	H	1.698261	0.224462	-0.312006
H191	H	1.159288	-0.550003	-0.271822
H192	H	1.659288	-0.050003	0.228178
H193	H	0.987072	-1.052404	-0.444056
H194	H	1.487072	-0.552404	0.055944
C195	C	1.220523	-0.808957	-0.210854
C196	C	1.720523	-0.308957	0.289146
N197	N	1.259911	-0.831554	-0.171531
N198	N	1.759911	-0.331554	0.328469
C199	C	1.111974	-0.354050	-0.912305
C200	C	1.611974	0.145950	-0.412305
N201	N	1.127549	-0.395086	-0.934385
N202	N	1.627549	0.104914	-0.434385
C203	C	0.966887	-0.326722	-0.804284
C204	C	1.466887	0.173278	-0.304284
N205	N	0.924226	-0.356804	-0.782205
N206	N	1.424226	0.143196	-0.282205
C207	C	1.173067	-0.945494	-0.258319
C208	C	1.673067	-0.445494	0.241681
N209	N	1.212439	-0.922871	-0.219000
N210	N	1.712439	-0.422871	0.281000
H211	H	1.159534	-1.052365	-0.271902
H212	H	1.659534	-0.552365	0.228098
C213	C	0.519352	-0.279186	-0.212688
C214	C	1.019352	0.220814	0.287312
N215	N	0.497226	-0.290123	-0.154371
N216	N	0.997226	0.209877	0.345629
C217	C	0.973452	-0.945558	-0.457620
C218	C	1.473452	-0.445558	0.042380
N219	N	0.934067	-0.922958	-0.496943
N220	N	1.434067	-0.422958	0.003057
H221	H	1.039765	-0.163851	-0.811873
H222	H	1.539765	0.336149	-0.311873
H223	H	0.939438	-0.801234	-0.491487
H224	H	1.439438	-0.301234	0.008513
H225	H	0.986824	-0.550067	-0.443991
H226	H	1.486824	-0.050067	0.056009
H227	H	0.986769	-0.451001	-0.443964
H228	H	1.486769	0.048999	0.056036
