data_functionalizedCrystal
_audit_creation_method	'MofGen! by Chris Wilmer'
_symmetry_space_group_name_H-M	'P1'
_symmetry_Int_Tables_number	1
_symmetry_cell_setting	triclinic
loop_
_symmetry_equiv_pos_as_xyz
  x,y,z
_cell_length_a	17.077404
_cell_length_b	16.959454
_cell_length_c	17.077396
_cell_angle_alpha	90.023780
_cell_angle_beta	89.981638
_cell_angle_gamma	89.979095
loop_
_atom_site_label
_atom_site_type_symbol
_atom_site_fract_x
_atom_site_fract_y
_atom_site_fract_z
Zn1	Zn	1.200054	0.314724	-0.443844
Zn2	Zn	1.700054	0.814724	0.056156
Zn3	Zn	1.199961	0.446912	-0.312589
Zn4	Zn	1.699961	0.946912	0.187411
Zn5	Zn	1.068786	0.314747	-0.312595
Zn6	Zn	1.568786	0.814747	0.187405
Zn7	Zn	1.068754	0.446860	-0.443815
Zn8	Zn	1.568754	0.946860	0.056185
O9	O	1.134389	0.380811	-0.378211
O10	O	1.634389	0.880811	0.121789
O11	O	1.309889	0.332272	-0.426443
O12	O	1.809889	0.832272	0.073557
O13	O	1.182535	0.429411	-0.202743
O14	O	1.682535	0.929411	0.297257
O15	O	1.086252	0.204133	-0.330020
O16	O	1.586252	0.704133	0.169980
O17	O	1.309821	0.429390	-0.330010
O18	O	1.809821	0.929390	0.169990
O19	O	1.182694	0.204116	-0.426449
O20	O	1.682694	0.704116	0.073551
O21	O	1.086161	0.332310	-0.202747
O22	O	1.586161	0.832310	0.297253
O23	O	0.958935	0.332260	-0.329992
O24	O	1.458935	0.832260	0.170008
O25	O	1.086197	0.429301	-0.553666
O26	O	1.586197	0.929301	-0.053666
O27	O	0.958911	0.429323	-0.426399
O28	O	1.458911	0.929323	0.073601
O29	O	1.182663	0.332221	-0.553688
O30	O	1.682663	0.832221	-0.053688
O31	O	1.182504	0.557516	-0.329982
O32	O	1.682504	1.057516	0.170018
O33	O	1.086107	0.557478	-0.426393
O34	O	1.586107	1.057478	0.073607
C35	C	0.930441	0.380788	-0.378193
C36	C	1.430441	0.880788	0.121807
C37	C	0.843191	0.380798	-0.378205
C38	C	1.343191	0.880798	0.121795
C39	C	0.802237	0.330319	-0.428494
C40	C	1.302237	0.830319	0.071506
C41	C	0.720257	0.330324	-0.428497
C42	C	1.220257	0.830324	0.071503
C43	C	0.679232	0.380813	-0.378215
C44	C	1.179232	0.880813	0.121785
C45	C	0.720191	0.431294	-0.327920
C46	C	1.220191	0.931294	0.172080
C47	C	0.802170	0.431285	-0.327913
C48	C	1.302170	0.931285	0.172087
C49	C	0.549321	0.431312	-0.327940
C50	C	1.049321	0.931312	0.172060
C51	C	0.467337	0.431323	-0.327948
C52	C	0.967337	0.931323	0.172052
C53	C	0.467408	0.330351	-0.428524
C54	C	0.967408	0.830351	0.071476
C55	C	0.549387	0.330342	-0.428517
C56	C	1.049387	0.830342	0.071483
C57	C	0.590341	0.380824	-0.378223
C58	C	1.090341	0.880824	0.121777
C59	C	1.134313	0.586177	-0.378201
C60	C	1.634313	1.086177	0.121799
C61	C	1.134352	0.674034	-0.378223
C62	C	1.634352	1.174034	0.121777
C63	C	1.084235	1.045519	-0.428418
C64	C	1.584235	1.545519	0.071582
C65	C	1.184696	1.045499	-0.328106
C66	C	1.684696	1.545499	0.171894
C67	C	1.184673	0.962953	-0.328097
C68	C	1.684673	1.462953	0.171903
C69	C	1.134429	0.921687	-0.378249
C70	C	1.634429	1.421687	0.121751
C71	C	1.084208	0.962966	-0.428409
C72	C	1.584208	1.462966	0.071591
C73	C	1.234887	0.921668	-0.277932
C74	C	1.734887	1.421668	0.222068
C75	C	1.234865	0.839117	-0.277921
C76	C	1.734865	1.339117	0.222079
C77	C	1.184624	0.797849	-0.328077
C78	C	1.684624	1.297849	0.171923
C79	C	1.134402	0.839133	-0.378240
C80	C	1.634402	1.339133	0.121760
C81	C	1.084158	0.797866	-0.428392
C82	C	1.584158	1.297866	0.071608
C83	C	1.033940	0.839149	-0.478560
C84	C	1.533940	1.339149	0.021440
C85	C	1.033968	0.921698	-0.478566
C86	C	1.533968	1.421698	0.021434
C87	C	1.184596	0.715300	-0.328071
C88	C	1.684596	1.215300	0.171929
C89	C	1.084132	0.715313	-0.428383
C90	C	1.584132	1.215313	0.071617
C91	C	1.339133	0.380834	-0.378229
C92	C	1.839133	0.880834	0.121771
C93	C	1.426383	0.380844	-0.378237
C94	C	1.926383	0.880844	0.121763
C95	C	1.134436	0.380753	-0.582955
C96	C	1.634436	0.880753	-0.082955
C97	C	1.134457	0.380728	-0.670205
C98	C	1.634457	0.880728	-0.170205
C99	C	1.134474	1.174643	-0.378242
C100	C	1.634474	1.674643	0.121758
C101	C	1.134479	1.086786	-0.378266
C102	C	1.634479	1.586786	0.121734
C103	C	1.184688	0.330174	-0.711208
C104	C	1.684688	0.830174	-0.211208
C105	C	1.184698	0.330148	-0.793188
C106	C	1.684698	0.830148	-0.293188
C107	C	1.134479	0.380680	-0.834165
C108	C	1.634479	0.880680	-0.334165
C109	C	1.084242	0.431236	-0.793156
C110	C	1.584242	0.931236	-0.293156
C111	C	1.084229	0.431257	-0.711177
C112	C	1.584229	0.931257	-0.211177
C113	C	1.084273	0.431188	-0.964027
C114	C	1.584273	0.931188	-0.464027
C115	C	1.084287	0.431168	-1.046011
C116	C	1.584287	0.931168	-0.546011
C117	C	1.184742	0.330079	-1.046037
C118	C	1.684742	0.830079	-0.546037
C119	C	1.184729	0.330100	-0.964058
C120	C	1.684729	0.830100	-0.464058
C121	C	1.134493	0.380657	-0.923056
C122	C	1.634493	0.880657	-0.423056
C123	C	1.134387	0.380812	-0.174263
C124	C	1.634387	0.880812	0.325737
C125	C	1.134519	0.380614	-0.087014
C126	C	1.634519	0.880614	0.412986
H127	H	0.434059	0.289245	-0.469473
H128	H	0.934059	0.789245	0.030527
H129	H	0.835514	0.472390	-0.286962
H130	H	1.335514	0.972390	0.213038
N131	N	1.030069	1.090034	-0.482526
N132	N	1.530069	1.590034	0.017474
H133	H	1.061959	1.124241	-0.518937
H134	H	1.561959	1.624241	-0.018937
H135	H	0.993731	1.124282	-0.450543
H136	H	1.493731	1.624282	0.049457
H137	H	1.225626	0.288957	-0.930698
H138	H	1.725626	0.788957	-0.430698
N139	N	0.979749	0.794641	-0.532654
N140	N	1.479749	1.294641	-0.032654
H141	H	0.923675	0.809053	-0.520416
H142	H	1.423675	1.309053	-0.020416
H143	H	0.987418	0.736097	-0.525007
H144	H	1.487418	1.236097	-0.025007
H145	H	0.993082	0.955317	-0.519408
H146	H	1.493082	1.455317	-0.019408
H147	H	1.043220	0.681718	-0.469226
H148	H	1.543220	1.181718	0.030774
H149	H	1.225480	0.681692	-0.287222
H150	H	1.725480	1.181692	0.212778
H151	H	1.225598	1.079104	-0.287270
H152	H	1.725598	1.579104	0.212730
H153	H	1.043317	0.472415	-0.677794
H154	H	1.543317	0.972415	-0.177794
N155	N	1.289059	0.966174	-0.223828
N156	N	1.789059	1.466174	0.276172
H157	H	1.281454	1.024732	-0.231446
H158	H	1.781454	1.524732	0.268554
H159	H	1.345114	0.951705	-0.236079
H160	H	1.845114	1.451705	0.263921
N161	N	1.289033	0.794594	-0.223823
N162	N	1.789033	1.294594	0.276177
H163	H	1.320867	0.833263	-0.192056
H164	H	1.820867	1.333263	0.307944
H165	H	1.325329	0.760309	-0.255814
H166	H	1.825329	1.260309	0.244186
N167	N	0.593639	0.275894	-0.482754
N168	N	1.093639	0.775894	0.017246
H169	H	0.555257	0.243914	-0.514616
H170	H	1.055257	0.743914	-0.014616
H171	H	0.627650	0.239271	-0.450860
H172	H	1.127650	0.739271	0.049140
N173	N	1.030091	0.485722	-0.919807
N174	N	1.530091	0.985722	-0.419807
H175	H	1.061971	0.522363	-0.885794
H176	H	1.561971	1.022363	-0.385794
H177	H	0.993731	0.453552	-0.885838
H178	H	1.493731	0.953552	-0.385838
H179	H	1.225585	0.289028	-0.677851
H180	H	1.725585	0.789028	-0.177851
H181	H	1.043350	0.472376	-0.826526
H182	H	1.543350	0.972376	-0.326526
H183	H	1.225603	0.288984	-0.826569
H184	H	1.725603	0.788984	-0.326569
H185	H	0.835634	0.289207	-0.469441
H186	H	1.335634	0.789207	0.030559
H187	H	1.225645	0.288912	-1.079426
H188	H	1.725645	0.788912	-0.579426
N189	N	1.030122	0.485651	-1.090228
N190	N	1.530122	0.985651	-0.590228
H191	H	1.042267	0.542140	-1.075967
H192	H	1.542267	1.042140	-0.575967
H193	H	0.974061	0.473295	-1.075947
H194	H	1.474061	0.973295	-0.575947
N195	N	0.423085	0.485779	-0.273718
N196	N	0.923085	0.985779	0.226282
H197	H	0.461467	0.517755	-0.241853
H198	H	0.961467	1.017755	0.258147
H199	H	0.389061	0.453558	-0.237454
H200	H	0.889061	0.953558	0.262546
N201	N	0.593496	0.485757	-0.273692
N202	N	1.093496	0.985757	0.226308
H203	H	0.555069	0.517745	-0.241841
H204	H	1.055069	1.017745	0.258159
H205	H	0.627514	0.522372	-0.305582
H206	H	1.127514	1.022372	0.194418
N207	N	0.676084	0.275863	-0.482722
N208	N	1.176084	0.775863	0.017278
H209	H	0.714513	0.243876	-0.514573
H210	H	1.214513	0.743876	-0.014573
H211	H	0.642067	0.308075	-0.519001
H212	H	1.142067	0.808075	-0.019001
N213	N	0.675938	0.485749	-0.273691
N214	N	1.175938	0.985749	0.226309
H215	H	0.690197	0.542239	-0.285785
H216	H	1.190197	1.042239	0.214215
H217	H	0.690198	0.473332	-0.217645
H218	H	1.190198	0.973332	0.282355
