data_functionalizedCrystal
_audit_creation_method	'MofGen! by Chris Wilmer'
_symmetry_space_group_name_H-M	'P1'
_symmetry_Int_Tables_number	1
_symmetry_cell_setting	triclinic
loop_
_symmetry_equiv_pos_as_xyz
  x,y,z
_cell_length_a	23.532361
_cell_length_b	23.532407
_cell_length_c	22.610064
_cell_angle_alpha	89.999397
_cell_angle_beta	89.996103
_cell_angle_gamma	82.839173
loop_
_atom_site_label
_atom_site_type_symbol
_atom_site_fract_x
_atom_site_fract_y
_atom_site_fract_z
O1	O	0.755281	0.069001	-0.049131
O2	O	1.005281	0.319001	0.200869
O3	O	1.255281	0.569001	0.450869
O4	O	1.505281	0.819001	0.700869
O5	O	0.589414	0.079032	-0.049146
O6	O	0.839414	0.329032	0.200854
O7	O	1.089414	0.579032	0.450854
O8	O	1.339414	0.829032	0.700854
O9	O	0.677349	-0.008916	-0.049127
O10	O	0.927349	0.241084	0.200873
O11	O	1.177349	0.491084	0.450873
O12	O	1.427349	0.741084	0.700873
O13	O	0.667345	0.156949	-0.049150
O14	O	0.917345	0.406949	0.200850
O15	O	1.167345	0.656949	0.450850
O16	O	1.417345	0.906949	0.700850
O17	O	0.677333	-0.008903	0.049242
O18	O	0.927333	0.241097	0.299242
O19	O	1.177333	0.491097	0.549242
O20	O	1.427333	0.741097	0.799242
O21	O	0.589398	0.079045	0.049223
O22	O	0.839398	0.329045	0.299223
O23	O	1.089398	0.579045	0.549223
O24	O	1.339398	0.829045	0.799223
O25	O	0.755265	0.069014	0.049238
O26	O	1.005265	0.319014	0.299238
O27	O	1.255265	0.569014	0.549238
O28	O	1.505265	0.819014	0.799238
Zn29	Zn	0.672329	0.074031	0.064849
Zn30	Zn	0.922329	0.324031	0.314849
Zn31	Zn	1.172329	0.574031	0.564849
Zn32	Zn	1.422329	0.824031	0.814849
Zn33	Zn	0.672350	0.074014	-0.064757
Zn34	Zn	0.922350	0.324014	0.185243
Zn35	Zn	1.172350	0.574014	0.435243
Zn36	Zn	1.422350	0.824014	0.685243
O37	O	0.667330	0.156962	0.049219
O38	O	0.917330	0.406962	0.299219
O39	O	1.167330	0.656962	0.549219
O40	O	1.417330	0.906962	0.799219
C41	C	0.568189	0.078787	0.000037
C42	C	0.818189	0.328787	0.250037
C43	C	1.068189	0.578787	0.500037
C44	C	1.318189	0.828787	0.750037
C45	C	0.504971	0.078032	0.000031
C46	C	0.754971	0.328032	0.250031
C47	C	1.004971	0.578032	0.500031
C48	C	1.254971	0.828032	0.750031
C49	C	0.677086	-0.030126	0.000059
C50	C	0.927086	0.219874	0.250059
C51	C	1.177086	0.469874	0.500059
C52	C	1.427086	0.719874	0.750059
C53	C	0.676320	-0.093343	0.000063
C54	C	0.926320	0.156657	0.250063
C55	C	1.176320	0.406657	0.500063
C56	C	1.426320	0.656657	0.750063
C57	C	0.231736	0.074721	-0.053586
C58	C	0.481736	0.324721	0.196414
C59	C	0.731736	0.574721	0.446414
C60	C	0.981736	0.824721	0.696414
C61	C	0.291135	0.075436	-0.053587
C62	C	0.541135	0.325436	0.196413
C63	C	0.791135	0.575436	0.446413
C64	C	1.041135	0.825436	0.696413
O65	O	0.321868	0.075780	-0.099189
O66	O	0.571868	0.325780	0.150811
O67	O	0.821868	0.575780	0.400811
O68	O	1.071868	0.825780	0.650811
N69	N	0.320832	0.075804	0.000034
N70	N	0.570832	0.325804	0.250034
N71	N	0.820832	0.575804	0.500034
N72	N	1.070832	0.825804	0.750034
C73	C	0.291128	0.075452	0.053660
C74	C	0.541128	0.325452	0.303660
C75	C	0.791128	0.575452	0.553660
C76	C	1.041128	0.825452	0.803660
O77	O	0.321842	0.075830	0.099269
O78	O	0.571842	0.325830	0.349269
O79	O	0.821842	0.575830	0.599269
O80	O	1.071842	0.825830	0.849269
C81	C	0.231730	0.074733	0.053661
C82	C	0.481730	0.324733	0.303661
C83	C	0.731730	0.574733	0.553661
C84	C	0.981730	0.824733	0.803661
C85	C	0.202035	0.074370	0.000036
C86	C	0.452035	0.324370	0.250036
C87	C	0.702035	0.574370	0.500036
C88	C	0.952035	0.824370	0.750036
C89	C	0.202041	0.074358	-0.107206
C90	C	0.452041	0.324358	0.142794
C91	C	0.702041	0.574358	0.392794
C92	C	0.952041	0.824358	0.642794
C93	C	0.142645	0.073644	-0.107204
C94	C	0.392645	0.323644	0.142796
C95	C	0.642645	0.573644	0.392796
C96	C	0.892645	0.823644	0.642796
C97	C	0.112944	0.073294	-0.053582
C98	C	0.362944	0.323294	0.196418
C99	C	0.612944	0.573294	0.446418
C100	C	0.862944	0.823294	0.696418
C101	C	0.142639	0.073657	0.000038
C102	C	0.392639	0.323657	0.250038
C103	C	0.642639	0.573657	0.500038
C104	C	0.892639	0.823657	0.750038
C105	C	0.202026	0.074376	0.107287
C106	C	0.452026	0.324376	0.357287
C107	C	0.702026	0.574376	0.607287
C108	C	0.952026	0.824376	0.857287
C109	C	0.142624	0.073656	0.107283
C110	C	0.392624	0.323656	0.357283
C111	C	0.642624	0.573656	0.607283
C112	C	0.892624	0.823656	0.857283
C113	C	0.112929	0.073294	0.053658
C114	C	0.362929	0.323294	0.303658
C115	C	0.612929	0.573294	0.553658
C116	C	0.862929	0.823294	0.803658
C117	C	0.053542	0.072592	0.053662
C118	C	0.303542	0.322592	0.303662
C119	C	0.553542	0.572592	0.553662
C120	C	0.803542	0.822592	0.803662
N121	N	0.023845	0.072224	0.000041
N122	N	0.273845	0.322224	0.250041
N123	N	0.523845	0.572224	0.500041
N124	N	0.773845	0.822224	0.750041
C125	C	0.053546	0.072575	-0.053581
C126	C	0.303546	0.322575	0.196419
C127	C	0.553546	0.572575	0.446419
C128	C	0.803546	0.822575	0.696419
C129	C	0.415868	0.076961	0.053654
C130	C	0.665868	0.326961	0.303654
C131	C	0.915868	0.576961	0.553654
C132	C	1.165868	0.826961	0.803654
C133	C	0.475264	0.077684	0.053654
C134	C	0.725264	0.327684	0.303654
C135	C	0.975264	0.577684	0.553654
C136	C	1.225264	0.827684	0.803654
C137	C	0.475268	0.077667	-0.053594
C138	C	0.725268	0.327667	0.196406
C139	C	0.975268	0.577667	0.446406
C140	C	1.225268	0.827667	0.696406
C141	C	0.415870	0.076948	-0.053593
C142	C	0.665870	0.326948	0.196407
C143	C	0.915870	0.576948	0.446407
C144	C	1.165870	0.826948	0.696407
C145	C	0.386171	0.076593	0.000033
C146	C	0.636171	0.326593	0.250033
C147	C	0.886171	0.576593	0.500033
C148	C	1.136171	0.826593	0.750033
C149	C	-0.071190	0.071076	-0.053573
C150	C	0.178810	0.321076	0.196427
C151	C	0.428810	0.571076	0.446427
C152	C	0.678810	0.821076	0.696427
C153	C	-0.130591	0.070365	-0.053567
C154	C	0.119409	0.320365	0.196433
C155	C	0.369409	0.570365	0.446433
C156	C	0.619409	0.820365	0.696433
C157	C	-0.130589	0.070378	0.053680
C158	C	0.119411	0.320378	0.303680
C159	C	0.369411	0.570378	0.553680
C160	C	0.619411	0.820378	0.803680
C161	C	-0.071193	0.071093	0.053674
C162	C	0.178807	0.321093	0.303674
C163	C	0.428807	0.571093	0.553674
C164	C	0.678807	0.821093	0.803674
C165	C	-0.041495	0.071440	0.000043
C166	C	0.208505	0.321440	0.250043
C167	C	0.458505	0.571440	0.500043
C168	C	0.708505	0.821440	0.750043
O169	O	0.022772	0.072245	0.099240
O170	O	0.272772	0.322245	0.349240
O171	O	0.522772	0.572245	0.599240
O172	O	0.772772	0.822245	0.849240
O173	O	0.022825	0.072189	-0.099182
O174	O	0.272825	0.322189	0.150818
O175	O	0.522825	0.572189	0.400818
O176	O	0.772825	0.822189	0.650818
C177	C	0.723555	-0.492454	0.000035
C178	C	0.973555	-0.242454	0.250035
C179	C	1.223555	0.007546	0.500035
C180	C	1.473555	0.257546	0.750035
C181	C	0.722844	-0.551854	0.000030
C182	C	0.972844	-0.301854	0.250030
C183	C	1.222844	-0.051854	0.500030
C184	C	1.472844	0.198146	0.750030
O185	O	0.766630	-0.588606	0.000013
O186	O	1.016630	-0.338606	0.250013
O187	O	1.266630	-0.088606	0.500013
O188	O	1.516630	0.161394	0.750013
N189	N	0.670566	-0.574471	0.000026
N190	N	0.920566	-0.324471	0.250026
N191	N	1.170566	-0.074471	0.500026
N192	N	1.420566	0.175529	0.750026
C193	C	0.618997	-0.537685	0.000020
C194	C	0.868997	-0.287685	0.250020
C195	C	1.118997	-0.037685	0.500020
C196	C	1.368997	0.212315	0.750020
O197	O	0.574465	-0.562377	0.000016
O198	O	0.824465	-0.312377	0.250016
O199	O	1.074465	-0.062377	0.500016
O200	O	1.324465	0.187623	0.750016
C201	C	0.619709	-0.478286	0.000021
C202	C	0.869709	-0.228286	0.250021
C203	C	1.119709	0.021714	0.500021
C204	C	1.369709	0.271714	0.750021
C205	C	0.671990	-0.455672	0.000031
C206	C	0.921990	-0.205672	0.250031
C207	C	1.171990	0.044328	0.500031
C208	C	1.421990	0.294328	0.750031
C209	C	0.775832	-0.469839	0.000045
C210	C	1.025832	-0.219839	0.250045
C211	C	1.275832	0.030161	0.500045
C212	C	1.525832	0.280161	0.750045
C213	C	0.776543	-0.410443	0.000050
C214	C	1.026543	-0.160443	0.250050
C215	C	1.276543	0.089557	0.500050
C216	C	1.526543	0.339557	0.750050
C217	C	0.724977	-0.373662	0.000046
C218	C	0.974977	-0.123662	0.250046
C219	C	1.224977	0.126338	0.500046
C220	C	1.474977	0.376338	0.750046
C221	C	0.672701	-0.396276	0.000037
C222	C	0.922701	-0.146276	0.250037
C223	C	1.172701	0.103724	0.500037
C224	C	1.422701	0.353724	0.750037
C225	C	0.568140	-0.441501	0.000011
C226	C	0.818140	-0.191501	0.250011
C227	C	1.068140	0.058499	0.500011
C228	C	1.318140	0.308499	0.750011
C229	C	0.568857	-0.382099	0.000011
C230	C	0.818857	-0.132099	0.250011
C231	C	1.068857	0.117901	0.500011
C232	C	1.318857	0.367901	0.750011
C233	C	0.621137	-0.359485	0.000021
C234	C	0.871137	-0.109485	0.250021
C235	C	1.121137	0.140515	0.500021
C236	C	1.371137	0.390515	0.750021
C237	C	0.621847	-0.300099	0.000038
C238	C	0.871847	-0.050099	0.250038
C239	C	1.121847	0.199901	0.500038
C240	C	1.371847	0.449901	0.750038
N241	N	0.674124	-0.277481	0.000043
N242	N	0.924124	-0.027481	0.250043
N243	N	1.174124	0.222519	0.500043
N244	N	1.424124	0.472519	0.750043
C245	C	0.725690	-0.314263	0.000047
C246	C	0.975690	-0.064263	0.250047
C247	C	1.225690	0.185737	0.500047
C248	C	1.475690	0.435737	0.750047
C249	C	0.617505	-0.662427	0.000019
C250	C	0.867505	-0.412427	0.250019
C251	C	1.117505	-0.162427	0.500019
C252	C	1.367505	0.087573	0.750019
C253	C	0.616793	-0.721825	0.000023
C254	C	0.866793	-0.471825	0.250023
C255	C	1.116793	-0.221825	0.500023
C256	C	1.366793	0.028175	0.750023
C257	C	0.720640	-0.735990	0.000032
C258	C	0.970640	-0.485990	0.250032
C259	C	1.220640	-0.235990	0.500032
C260	C	1.470640	0.014010	0.750032
C261	C	0.721352	-0.676591	0.000032
C262	C	0.971352	-0.426591	0.250032
C263	C	1.221352	-0.176591	0.500032
C264	C	1.471352	0.073409	0.750032
C265	C	0.669783	-0.639810	0.000023
C266	C	0.919783	-0.389810	0.250023
C267	C	1.169783	-0.139810	0.500023
C268	C	1.419783	0.110190	0.750023
C269	C	0.727179	-0.189526	0.000059
C270	C	0.977179	0.060474	0.250059
C271	C	1.227179	0.310474	0.500059
C272	C	1.477179	0.560474	0.750059
C273	C	0.727886	-0.130124	0.000067
C274	C	0.977886	0.119876	0.250067
C275	C	1.227886	0.369876	0.500067
C276	C	1.477886	0.619876	0.750067
C277	C	0.624039	-0.115965	0.000055
C278	C	0.874039	0.134035	0.250055
C279	C	1.124039	0.384035	0.500055
C280	C	1.374039	0.634035	0.750055
C281	C	0.623332	-0.175361	0.000050
C282	C	0.873332	0.074639	0.250050
C283	C	1.123332	0.324639	0.500050
C284	C	1.373332	0.574639	0.750050
C285	C	0.674907	-0.212141	0.000050
C286	C	0.924907	0.037859	0.250050
C287	C	1.174907	0.287859	0.500050
C288	C	1.424907	0.537859	0.750050
O289	O	0.578083	-0.263312	0.000054
O290	O	0.828083	-0.013312	0.250054
O291	O	1.078083	0.236688	0.500054
O292	O	1.328083	0.486688	0.750054
O293	O	0.770214	-0.289562	0.000043
O294	O	1.020214	-0.039562	0.250043
O295	O	1.270214	0.210438	0.500043
O296	O	1.520214	0.460438	0.750043
C297	C	0.776489	0.069258	0.000054
C298	C	1.026489	0.319258	0.250054
C299	C	1.276489	0.569258	0.500054
C300	C	1.526489	0.819258	0.750054
C301	C	0.839708	0.070014	0.000055
C302	C	1.089708	0.320014	0.250055
C303	C	1.339708	0.570014	0.500055
C304	C	1.589708	0.820014	0.750055
C305	C	0.667592	0.178171	0.000032
C306	C	0.917592	0.428171	0.250032
C307	C	1.167592	0.678171	0.500032
C308	C	1.417592	0.928171	0.750032
C309	C	0.668358	0.241388	0.000023
C310	C	0.918358	0.491388	0.250023
C311	C	1.168358	0.741388	0.500023
C312	C	1.418358	0.991388	0.750023
N313	N	0.672319	0.074042	0.153301
N314	N	0.922319	0.324042	0.403301
N315	N	1.172319	0.574042	0.653301
N316	N	1.422319	0.824042	0.903301
N317	N	0.672364	0.073998	-0.153209
N318	N	0.922364	0.323998	0.096791
N319	N	1.172364	0.573998	0.346791
N320	N	1.422364	0.823998	0.596791
C321	C	0.711289	0.035077	0.561951
C322	C	0.961289	0.285077	0.811951
C323	C	1.211289	0.535077	1.061951
C324	C	1.461289	0.785077	1.311951
C325	C	0.711292	0.035073	0.623871
C326	C	0.961292	0.285073	0.873871
C327	C	1.211292	0.535073	1.123871
C328	C	1.461292	0.785073	1.373871
O329	O	0.744401	0.001951	0.655897
O330	O	0.994401	0.251951	0.905897
O331	O	1.244401	0.501951	1.155897
O332	O	1.494401	0.751951	1.405897
N333	N	0.672349	0.074002	0.654838
N334	N	0.922349	0.324002	0.904838
N335	N	1.172349	0.574002	1.154838
N336	N	1.422349	0.824002	1.404838
C337	C	0.633397	0.112935	0.623883
C338	C	0.883397	0.362935	0.873883
C339	C	1.133397	0.612935	1.123883
C340	C	1.383397	0.862935	1.373883
O341	O	0.600273	0.146047	0.655909
O342	O	0.850273	0.396047	0.905909
O343	O	1.100273	0.646047	1.155909
O344	O	1.350273	0.896047	1.405909
C345	C	0.633392	0.112936	0.561964
C346	C	0.883392	0.362936	0.811964
C347	C	1.133392	0.612936	1.061964
C348	C	1.383392	0.862936	1.311964
C349	C	0.672341	0.074007	0.531000
C350	C	0.922341	0.324007	0.781000
C351	C	1.172341	0.574007	1.031000
C352	C	1.422341	0.824007	1.281000
C353	C	0.750235	-0.003849	0.530986
C354	C	1.000235	0.246151	0.780986
C355	C	1.250235	0.496151	1.030986
C356	C	1.500235	0.746151	1.280986
C357	C	0.750232	-0.003844	0.469071
C358	C	1.000232	0.246156	0.719071
C359	C	1.250232	0.496156	0.969071
C360	C	1.500232	0.746156	1.219071
C361	C	0.711284	0.035087	0.438120
C362	C	0.961284	0.285087	0.688120
C363	C	1.211284	0.535087	0.938120
C364	C	1.461284	0.785087	1.188120
C365	C	0.672339	0.074013	0.469084
C366	C	0.922339	0.324013	0.719084
C367	C	1.172339	0.574013	0.969084
C368	C	1.422339	0.824013	1.219084
C369	C	0.594438	0.151865	0.531009
C370	C	0.844438	0.401865	0.781009
C371	C	1.094438	0.651865	1.031009
C372	C	1.344438	0.901865	1.281009
C373	C	0.594435	0.151863	0.469086
C374	C	0.844435	0.401863	0.719086
C375	C	1.094435	0.651863	0.969086
C376	C	1.344435	0.901863	1.219086
C377	C	0.633385	0.112934	0.438122
C378	C	0.883385	0.362934	0.688122
C379	C	1.133385	0.612934	0.938122
C380	C	1.383385	0.862934	1.188122
C381	C	0.633388	0.112948	0.376217
C382	C	0.883388	0.362948	0.626217
C383	C	1.133388	0.612948	0.876217
C384	C	1.383388	0.862948	1.126217
N385	N	0.672331	0.074018	0.345250
N386	N	0.922331	0.324018	0.595250
N387	N	1.172331	0.574018	0.845250
N388	N	1.422331	0.824018	1.095250
C389	C	0.711279	0.035088	0.376201
C390	C	0.961279	0.285088	0.626201
C391	C	1.211279	0.535088	0.876201
C392	C	1.461279	0.785088	1.126201
C393	C	0.633410	0.112929	0.753916
C394	C	0.883410	0.362929	1.003916
C395	C	1.133410	0.612929	1.253916
C396	C	1.383410	0.862929	1.503916
C397	C	0.633418	0.112932	0.815834
C398	C	0.883418	0.362932	1.065834
C399	C	1.133418	0.612932	1.315834
C400	C	1.383418	0.862932	1.565834
C401	C	0.711312	0.035068	0.815818
C402	C	0.961312	0.285068	1.065818
C403	C	1.211312	0.535068	1.315818
C404	C	1.461312	0.785068	1.565818
C405	C	0.711307	0.035069	0.753899
C406	C	0.961307	0.285069	1.003899
C407	C	1.211307	0.535069	1.253899
C408	C	1.461307	0.785069	1.503899
C409	C	0.672353	0.074000	0.722949
C410	C	0.922353	0.324000	0.972949
C411	C	1.172353	0.574000	1.222949
C412	C	1.422353	0.824000	1.472949
C413	C	0.711272	0.035102	0.246173
C414	C	0.961272	0.285102	0.496173
C415	C	1.211272	0.535102	0.746173
C416	C	1.461272	0.785102	0.996173
C417	C	0.711267	0.035112	0.184252
C418	C	0.961267	0.285112	0.434252
C419	C	1.211267	0.535112	0.684252
C420	C	1.461267	0.785112	0.934252
C421	C	0.633371	0.112973	0.184274
C422	C	0.883371	0.362973	0.434274
C423	C	1.133371	0.612973	0.684274
C424	C	1.383371	0.862973	0.934274
C425	C	0.633377	0.112965	0.246190
C426	C	0.883377	0.362965	0.496190
C427	C	1.133377	0.612965	0.746190
C428	C	1.383377	0.862965	0.996190
C429	C	0.672330	0.074024	0.277138
C430	C	0.922330	0.324024	0.527138
C431	C	1.172330	0.574024	0.777138
C432	C	1.422330	0.824024	1.027138
O433	O	0.600295	0.146051	0.344152
O434	O	0.850295	0.396051	0.594152
O435	O	1.100295	0.646051	0.844152
O436	O	1.350295	0.896051	1.094152
O437	O	0.744393	0.001976	0.344167
O438	O	0.994393	0.251976	0.594167
O439	O	1.244393	0.501976	0.844167
O440	O	1.494393	0.751976	1.094167
H441	H	-0.154766	0.070071	-0.097237
H442	H	0.095234	0.320071	0.152763
H443	H	0.345234	0.570071	0.402763
H444	H	0.595234	0.820071	0.652763
H445	H	0.226194	0.074669	0.150954
H446	H	0.476194	0.324669	0.400954
H447	H	0.726194	0.574669	0.650954
H448	H	0.976194	0.824669	0.900954
H449	H	0.526862	-0.352154	0.000002
H450	H	0.776862	-0.102154	0.250002
H451	H	1.026862	0.147846	0.500002
H452	H	1.276862	0.397846	0.750002
H453	H	0.742989	0.003392	0.271365
H454	H	0.992989	0.253392	0.521365
H455	H	1.242989	0.503392	0.771365
H456	H	1.492989	0.753392	1.021365
H457	H	0.817825	-0.499782	0.000046
H458	H	1.067825	-0.249782	0.250046
H459	H	1.317825	0.000218	0.500046
H460	H	1.567825	0.250218	0.750046
H461	H	0.562713	0.183564	0.443890
H462	H	0.812713	0.433564	0.693890
H463	H	1.062713	0.683564	0.943890
H464	H	1.312713	0.933564	1.193890
H465	H	0.562721	0.183564	0.556212
H466	H	0.812721	0.433564	0.806212
H467	H	1.062721	0.683564	1.056212
H468	H	1.312721	0.933564	1.306212
Br469	Br	-0.030893	0.071594	0.126451
Br470	Br	0.219107	0.321594	0.376451
Br471	Br	0.469107	0.571594	0.626451
Br472	Br	0.719107	0.821594	0.876451
H473	H	0.391696	0.076653	-0.097259
H474	H	0.641696	0.326653	0.152741
H475	H	0.891696	0.576653	0.402741
H476	H	1.141696	0.826653	0.652741
Br477	Br	0.580524	0.165805	0.288211
Br478	Br	0.830524	0.415805	0.538211
Br479	Br	1.080524	0.665805	0.788211
Br480	Br	1.330524	0.915805	1.038211
H481	H	0.743022	0.003370	0.728691
H482	H	0.993022	0.253370	0.978691
H483	H	1.243022	0.503370	1.228691
H484	H	1.493022	0.753370	1.478691
Br485	Br	0.764170	-0.017766	0.857836
Br486	Br	1.014170	0.232234	1.107836
Br487	Br	1.264170	0.482234	1.357836
Br488	Br	1.514170	0.732234	1.607836
H489	H	0.601662	0.144671	0.159064
H490	H	0.851662	0.394671	0.409064
H491	H	1.101662	0.644671	0.659064
H492	H	1.351662	0.894671	0.909064
Br493	Br	0.792306	-0.645907	0.000047
Br494	Br	1.042306	-0.395907	0.250047
Br495	Br	1.292306	-0.145907	0.500047
Br496	Br	1.542306	0.104093	0.750047
H497	H	0.601708	0.144637	0.841041
H498	H	0.851708	0.394637	1.091041
H499	H	1.101708	0.644637	1.341041
H500	H	1.351708	0.894637	1.591041
Br501	Br	-0.030894	0.071547	-0.126360
Br502	Br	0.219106	0.321547	0.123640
Br503	Br	0.469106	0.571547	0.373640
Br504	Br	0.719106	0.821547	0.623640
H505	H	0.525567	-0.459902	-0.000001
H506	H	0.775567	-0.209902	0.249999
H507	H	1.025567	0.040098	0.499999
H508	H	1.275567	0.290098	0.749999
H509	H	0.781946	-0.035544	0.443863
H510	H	1.031946	0.214456	0.693863
H511	H	1.281946	0.464456	0.943863
H512	H	1.531946	0.714456	1.193863
Br513	Br	0.790622	-0.785919	0.000035
Br514	Br	1.040622	-0.535919	0.250035
Br515	Br	1.290622	-0.285919	0.500035
Br516	Br	1.540622	-0.035919	0.750035
Br517	Br	0.552379	-0.206053	0.000050
Br518	Br	0.802379	0.043947	0.250050
Br519	Br	1.052379	0.293947	0.500050
Br520	Br	1.302379	0.543947	0.750050
Br521	Br	0.580543	0.165772	0.711918
Br522	Br	0.830543	0.415772	0.961918
Br523	Br	1.080543	0.665772	1.211918
Br524	Br	1.330543	0.915772	1.461918
Br525	Br	0.545837	-0.752508	0.000023
Br526	Br	0.795837	-0.502508	0.250023
Br527	Br	1.045837	-0.252508	0.500023
Br528	Br	1.295837	-0.002508	0.750023
Br529	Br	0.797174	-0.239433	0.000058
Br530	Br	1.047174	0.010567	0.250058
Br531	Br	1.297174	0.260567	0.500058
Br532	Br	1.547174	0.510567	0.750058
H533	H	0.819115	-0.392037	0.000056
H534	H	1.069115	-0.142037	0.250056
H535	H	1.319115	0.107963	0.500056
H536	H	1.569115	0.357963	0.750056
Br537	Br	0.554061	-0.066036	0.000050
Br538	Br	0.804061	0.183964	0.250050
Br539	Br	1.054061	0.433964	0.500050
Br540	Br	1.304061	0.683964	0.750050
Br541	Br	0.102354	0.073148	-0.179985
Br542	Br	0.352354	0.323148	0.070015
Br543	Br	0.602354	0.573148	0.320015
Br544	Br	0.852354	0.823148	0.570015
H545	H	0.226217	0.074642	-0.150874
H546	H	0.476217	0.324642	0.099126
H547	H	0.726217	0.574642	0.349126
H548	H	0.976217	0.824642	0.599126
H549	H	0.575509	-0.632483	0.000016
H550	H	0.825509	-0.382483	0.250016
H551	H	1.075509	-0.132483	0.500016
H552	H	1.325509	0.117517	0.750016
H553	H	0.770461	-0.111716	0.000077
H554	H	1.020461	0.138284	0.250077
H555	H	1.270461	0.388284	0.500077
H556	H	1.520461	0.638284	0.750077
H557	H	0.499461	0.077952	-0.097256
H558	H	0.749461	0.327952	0.152744
H559	H	0.999461	0.577952	0.402744
H560	H	1.249461	0.827952	0.652744
H561	H	0.781951	-0.035554	0.556182
H562	H	1.031951	0.214446	0.806182
H563	H	1.281951	0.464446	1.056182
H564	H	1.531951	0.714446	1.306182
Br565	Br	0.764132	-0.017721	0.142232
Br566	Br	1.014132	0.232279	0.392232
Br567	Br	1.264132	0.482279	0.642232
Br568	Br	1.514132	0.732279	0.892232
Br569	Br	0.375567	0.076485	0.126439
Br570	Br	0.625567	0.326485	0.376439
Br571	Br	0.875567	0.576485	0.626439
Br572	Br	1.125567	0.826485	0.876439
H573	H	0.499436	0.077988	0.097321
H574	H	0.749436	0.327988	0.347321
H575	H	0.999436	0.577988	0.597321
H576	H	1.249436	0.827988	0.847321
H577	H	-0.154783	0.070095	0.097338
H578	H	0.095217	0.320095	0.347338
H579	H	0.345217	0.570095	0.597338
H580	H	0.595217	0.820095	0.847338
Br581	Br	0.102322	0.073168	0.180065
Br582	Br	0.352322	0.323168	0.430065
Br583	Br	0.602322	0.573168	0.680065
Br584	Br	0.852322	0.823168	0.930065
