data_functionalizedCrystal
_audit_creation_method	'MofGen! by Chris Wilmer'
_symmetry_space_group_name_H-M	'P1'
_symmetry_Int_Tables_number	1
_symmetry_cell_setting	triclinic
loop_
_symmetry_equiv_pos_as_xyz
  x,y,z
_cell_length_a	16.120490
_cell_length_b	18.050589
_cell_length_c	16.120256
_cell_angle_alpha	92.877403
_cell_angle_beta	90.129807
_cell_angle_gamma	87.120764
loop_
_atom_site_label
_atom_site_type_symbol
_atom_site_fract_x
_atom_site_fract_y
_atom_site_fract_z
Zn1	Zn	1.247411	-0.376323	-0.534559
Zn2	Zn	1.497411	-0.126323	-0.284559
Zn3	Zn	1.747411	0.123677	-0.034559
Zn4	Zn	1.997411	0.373677	0.215441
Zn5	Zn	1.254350	-0.494544	-0.395508
Zn6	Zn	1.504350	-0.244544	-0.145508
Zn7	Zn	1.754350	0.005456	0.104492
Zn8	Zn	2.004350	0.255456	0.354492
Zn9	Zn	1.115402	-0.363763	-0.388479
Zn10	Zn	1.365402	-0.113763	-0.138479
Zn11	Zn	1.615402	0.136237	0.111521
Zn12	Zn	1.865402	0.386237	0.361521
Zn13	Zn	1.108306	-0.493857	-0.527481
Zn14	Zn	1.358306	-0.243857	-0.277481
Zn15	Zn	1.608306	0.006143	-0.027481
Zn16	Zn	1.858306	0.256143	0.222519
O17	O	1.181367	-0.432122	-0.461507
O18	O	1.431367	-0.182122	-0.211507
O19	O	1.681367	0.067878	0.038493
O20	O	1.931367	0.317878	0.288493
O21	O	1.364698	-0.397549	-0.522017
O22	O	1.614698	-0.147549	-0.272017
O23	O	1.864698	0.102451	-0.022017
O24	O	2.114698	0.352451	0.227983
O25	O	1.241792	-0.472227	-0.278209
O26	O	1.491792	-0.222227	-0.028209
O27	O	1.741792	0.027773	0.221791
O28	O	1.991792	0.277773	0.471791
O29	O	1.132978	-0.261508	-0.407877
O30	O	1.382978	-0.011508	-0.157877
O31	O	1.632978	0.238492	0.092123
O32	O	1.882978	0.488492	0.342123
O33	O	1.369796	-0.484406	-0.419857
O34	O	1.619796	-0.234406	-0.169857
O35	O	1.869796	0.015594	0.080143
O36	O	2.119796	0.265594	0.330143
O37	O	1.229965	-0.270736	-0.515202
O38	O	1.479965	-0.020736	-0.265202
O39	O	1.729965	0.229264	-0.015202
O40	O	1.979965	0.479264	0.234798
O41	O	1.139707	-0.376143	-0.273045
O42	O	1.389707	-0.126143	-0.023045
O43	O	1.639707	0.123857	0.226955
O44	O	1.889707	0.373857	0.476955
O45	O	0.998094	-0.375476	-0.401014
O46	O	1.248094	-0.125476	-0.151014
O47	O	1.498094	0.124524	0.098986
O48	O	1.748094	0.374524	0.348986
O49	O	1.120885	-0.483234	-0.644786
O50	O	1.370885	-0.233234	-0.394786
O51	O	1.620885	0.016766	-0.144786
O52	O	1.870885	0.266766	0.105214
O53	O	0.992881	-0.471055	-0.503138
O54	O	1.242881	-0.221055	-0.253138
O55	O	1.492881	0.028945	-0.003138
O56	O	1.742881	0.278945	0.246862
O57	O	1.223084	-0.396882	-0.649987
O58	O	1.473084	-0.146882	-0.399987
O59	O	1.723084	0.103118	-0.149987
O60	O	1.973084	0.353118	0.100013
O61	O	1.234912	-0.598374	-0.412994
O62	O	1.484912	-0.348374	-0.162994
O63	O	1.734912	-0.098374	0.087006
O64	O	1.984912	0.151626	0.337006
O65	O	1.127614	-0.597869	-0.509954
O66	O	1.377614	-0.347869	-0.259954
O67	O	1.627614	-0.097869	-0.009954
O68	O	1.877614	0.152131	0.240046
C69	C	0.965315	-0.421829	-0.450546
C70	C	1.215315	-0.171829	-0.200546
C71	C	1.465315	0.078171	0.049454
C72	C	1.715315	0.328171	0.299454
C73	C	0.872886	-0.417444	-0.445877
C74	C	1.122886	-0.167444	-0.195877
C75	C	1.372886	0.082556	0.054123
C76	C	1.622886	0.332556	0.304123
C77	C	0.659920	-0.454859	-0.485729
C78	C	0.909920	-0.204859	-0.235729
C79	C	1.159920	0.045141	0.014271
C80	C	1.409920	0.295141	0.264271
C81	C	0.703662	-0.409446	-0.437351
C82	C	0.953662	-0.159446	-0.187351
C83	C	1.203662	0.090554	0.062649
C84	C	1.453662	0.340554	0.312649
C85	C	0.797827	-0.413898	-0.442096
C86	C	1.047827	-0.163898	-0.192096
C87	C	1.297827	0.086102	0.057904
C88	C	1.547827	0.336102	0.307904
C89	C	0.565747	-0.450409	-0.480984
C90	C	0.815747	-0.200409	-0.230984
C91	C	1.065747	0.049591	0.019016
C92	C	1.315747	0.299591	0.269016
C93	C	1.181267	-0.625068	-0.461488
C94	C	1.431267	-0.375068	-0.211488
C95	C	1.681267	-0.125068	0.038512
C96	C	1.931267	0.124932	0.288512
C97	C	1.181299	-0.707617	-0.461511
C98	C	1.431299	-0.457617	-0.211511
C99	C	1.681299	-0.207617	0.038489
C100	C	1.931299	0.042383	0.288489
C101	C	1.123006	-0.906821	-0.514222
C102	C	1.373006	-0.656821	-0.264222
C103	C	1.623006	-0.406821	-0.014222
C104	C	1.873006	-0.156821	0.235778
C105	C	1.106583	-0.952040	-0.437316
C106	C	1.356583	-0.702040	-0.187316
C107	C	1.606583	-0.452040	0.062684
C108	C	1.856583	-0.202040	0.312684
C109	C	1.181381	-0.858751	-0.461526
C110	C	1.431381	-0.608751	-0.211526
C111	C	1.681381	-0.358751	0.038474
C112	C	1.931381	-0.108751	0.288474
C113	C	1.197844	-0.960616	-0.538443
C114	C	1.447844	-0.710616	-0.288443
C115	C	1.697844	-0.460616	-0.038443
C116	C	1.947844	-0.210616	0.211557
C117	C	1.181457	-1.004741	-0.461548
C118	C	1.431457	-0.754741	-0.211548
C119	C	1.681457	-0.504741	0.038452
C120	C	1.931457	-0.254741	0.288452
C121	C	1.164920	-0.902880	-0.384579
C122	C	1.414920	-0.652880	-0.134579
C123	C	1.664920	-0.402880	0.115421
C124	C	1.914920	-0.152880	0.365421
C125	C	1.256213	-0.911455	-0.485758
C126	C	1.506213	-0.661455	-0.235758
C127	C	1.756213	-0.411455	0.014242
C128	C	2.006213	-0.161455	0.264242
C129	C	1.239822	-0.956651	-0.408802
C130	C	1.489822	-0.706651	-0.158802
C131	C	1.739822	-0.456651	0.091198
C132	C	1.989822	-0.206651	0.341198
C133	C	1.181334	-0.774650	-0.461515
C134	C	1.431334	-0.524650	-0.211515
C135	C	1.681334	-0.274650	0.038485
C136	C	1.931334	-0.024650	0.288485
C137	C	1.181504	-1.088840	-0.461550
C138	C	1.431504	-0.838840	-0.211550
C139	C	1.681504	-0.588840	0.038450
C140	C	1.931504	-0.338840	0.288450
C141	C	1.398263	-0.442455	-0.472511
C142	C	1.648263	-0.192455	-0.222511
C143	C	1.898263	0.057545	0.027489
C144	C	2.148263	0.307545	0.277489
C145	C	1.490691	-0.446859	-0.477200
C146	C	1.740691	-0.196859	-0.227200
C147	C	1.990691	0.053141	0.022800
C148	C	2.240691	0.303141	0.272800
C149	C	1.170419	-0.441383	-0.678403
C150	C	1.420419	-0.191383	-0.428403
C151	C	1.670419	0.058617	-0.178403
C152	C	1.920419	0.308617	0.071597
C153	C	1.165753	-0.445329	-0.770831
C154	C	1.415753	-0.195329	-0.520831
C155	C	1.665753	0.054671	-0.270831
C156	C	1.915753	0.304671	-0.020831
C157	C	1.181489	-0.238423	-0.461545
C158	C	1.431489	0.011577	-0.211545
C159	C	1.681489	0.261577	0.038455
C160	C	1.931489	0.511577	0.288455
C161	C	1.181541	-0.155880	-0.461561
C162	C	1.431541	0.094120	-0.211561
C163	C	1.681541	0.344120	0.038439
C164	C	1.931541	0.594120	0.288439
C165	C	1.205696	-0.411522	-0.983812
C166	C	1.455696	-0.161522	-0.733812
C167	C	1.705696	0.088478	-0.483812
C168	C	1.955696	0.338478	-0.233812
C169	C	1.157208	-0.452502	-0.940051
C170	C	1.407208	-0.202502	-0.690051
C171	C	1.657208	0.047498	-0.440051
C172	C	1.907208	0.297498	-0.190051
C173	C	1.161964	-0.448510	-0.845888
C174	C	1.411964	-0.198510	-0.595888
C175	C	1.661964	0.051490	-0.345888
C176	C	1.911964	0.301490	-0.095888
C177	C	1.200940	-0.415513	-1.077983
C178	C	1.450940	-0.165513	-0.827983
C179	C	1.700940	0.084487	-0.577983
C180	C	1.950940	0.334487	-0.327983
C181	C	1.192321	-0.422845	-0.245457
C182	C	1.442321	-0.172845	0.004543
C183	C	1.692321	0.077155	0.254543
C184	C	1.942321	0.327155	0.504543
C185	C	1.197147	-0.418697	-0.153038
C186	C	1.447147	-0.168697	0.096962
C187	C	1.697147	0.081303	0.346962
C188	C	1.947147	0.331303	0.596962
H189	H	0.693190	-0.497079	-0.530706
H190	H	0.943190	-0.247079	-0.280706
H191	H	1.193190	0.002921	-0.030706
H192	H	1.443190	0.252921	0.219294
H193	H	1.043335	-0.970032	-0.416839
H194	H	1.293335	-0.720032	-0.166839
H195	H	1.543335	-0.470032	0.083161
H196	H	1.793335	-0.220032	0.333161
H197	H	1.112119	-0.490581	-0.973306
H198	H	1.362119	-0.240581	-0.723306
H199	H	1.612119	0.009419	-0.473306
H200	H	1.862119	0.259419	-0.223306
H201	H	1.250777	-0.373442	-0.950559
H202	H	1.500777	-0.123442	-0.700559
H203	H	1.750777	0.126558	-0.450559
H204	H	2.000777	0.376558	-0.200559
C205	C	0.978006	-0.897597	-0.548715
C206	C	1.228006	-0.647597	-0.298715
C207	C	1.478006	-0.397597	-0.048715
C208	C	1.728006	-0.147597	0.201285
C209	C	1.056281	-0.877279	-0.574284
C210	C	1.306281	-0.627279	-0.324284
C211	C	1.556281	-0.377279	-0.074284
C212	C	1.806281	-0.127279	0.175716
H213	H	0.936814	-0.879353	-0.585790
H214	H	1.186814	-0.629353	-0.335790
H215	H	1.436814	-0.379353	-0.085790
H216	H	1.686814	-0.129353	0.164210
H217	H	0.977247	-0.950181	-0.548771
H218	H	1.227247	-0.700181	-0.298771
H219	H	1.477247	-0.450181	-0.048771
H220	H	1.727247	-0.200181	0.201229
H221	H	0.966868	-0.877024	-0.494246
H222	H	1.216868	-0.627024	-0.244246
H223	H	1.466868	-0.377024	0.005754
H224	H	1.716868	-0.127024	0.255754
H225	H	1.067422	-0.897856	-0.628751
H226	H	1.317422	-0.647856	-0.378751
H227	H	1.567422	-0.397856	-0.128751
H228	H	1.817422	-0.147856	0.121249
H229	H	1.057043	-0.824685	-0.574237
H230	H	1.307043	-0.574685	-0.324237
H231	H	1.557043	-0.324685	-0.074237
H232	H	1.807043	-0.074685	0.175763
H233	H	1.150952	-0.877744	-0.319518
H234	H	1.400952	-0.627744	-0.069518
H235	H	1.650952	-0.377744	0.180482
H236	H	1.900952	-0.127744	0.430482
H237	H	0.670390	-0.367223	-0.392369
H238	H	0.920390	-0.117223	-0.142369
H239	H	1.170390	0.132777	0.107631
H240	H	1.420390	0.382777	0.357631
C241	C	1.289107	-0.956559	-0.268133
C242	C	1.539107	-0.706559	-0.018133
C243	C	1.789107	-0.456559	0.231867
C244	C	2.039107	-0.206559	0.481867
C245	C	1.306509	-0.986000	-0.348587
C246	C	1.556509	-0.736000	-0.098587
C247	C	1.806509	-0.486000	0.151413
C248	C	2.056509	-0.236000	0.401413
H249	H	1.330272	-0.974684	-0.230959
H250	H	1.580272	-0.724684	0.019041
H251	H	1.830272	-0.474684	0.269041
H252	H	2.080272	-0.224684	0.519041
H253	H	1.289137	-0.903914	-0.267470
H254	H	1.539137	-0.653914	-0.017470
H255	H	1.789137	-0.403914	0.232530
H256	H	2.039137	-0.153914	0.482530
H257	H	1.236112	-0.971124	-0.251403
H258	H	1.486112	-0.721124	-0.001403
H259	H	1.736112	-0.471124	0.248597
H260	H	1.986112	-0.221124	0.498597
H261	H	1.359501	-0.971431	-0.365320
H262	H	1.609501	-0.721431	-0.115320
H263	H	1.859501	-0.471431	0.134680
H264	H	2.109501	-0.221431	0.384680
H265	H	1.306487	-1.038657	-0.349253
H266	H	1.556487	-0.788657	-0.099253
H267	H	1.806487	-0.538657	0.150747
H268	H	2.056487	-0.288657	0.400747
C269	C	1.358646	-0.916412	-0.594044
C270	C	1.608646	-0.666412	-0.344044
C271	C	1.858646	-0.416412	-0.094044
C272	C	2.108646	-0.166412	0.155956
C273	C	1.341571	-0.887161	-0.513449
C274	C	1.591571	-0.637161	-0.263449
C275	C	1.841571	-0.387161	-0.013449
C276	C	2.091571	-0.137161	0.236551
H277	H	1.411340	-0.901408	-0.611146
H278	H	1.661340	-0.651408	-0.361146
H279	H	1.911340	-0.401408	-0.111146
H280	H	2.161340	-0.151408	0.138854
H281	H	1.359148	-0.969080	-0.594743
H282	H	1.609148	-0.719080	-0.344743
H283	H	1.859148	-0.469080	-0.094743
H284	H	2.109148	-0.219080	0.155257
H285	H	1.317035	-0.898574	-0.630904
H286	H	1.567035	-0.648574	-0.380904
H287	H	1.817035	-0.398574	-0.130904
H288	H	2.067035	-0.148574	0.119096
H289	H	1.383179	-0.905003	-0.476588
H290	H	1.633179	-0.655003	-0.226588
H291	H	1.883179	-0.405003	0.023412
H292	H	2.133179	-0.155003	0.273412
H293	H	1.341076	-0.834481	-0.512744
H294	H	1.591076	-0.584481	-0.262744
H295	H	1.841076	-0.334481	-0.012744
H296	H	2.091076	-0.084481	0.237256
H297	H	1.211739	-0.985837	-0.603482
H298	H	1.461739	-0.735837	-0.353482
H299	H	1.711739	-0.485837	-0.103482
H300	H	1.961739	-0.235837	0.146518
