data_functionalizedCrystal
_audit_creation_method	'MofGen! by Chris Wilmer'
_symmetry_space_group_name_H-M	'P1'
_symmetry_Int_Tables_number	1
_symmetry_cell_setting	triclinic
loop_
_symmetry_equiv_pos_as_xyz
  x,y,z
_cell_length_a	10.654554
_cell_length_b	10.540539
_cell_length_c	9.730223
_cell_angle_alpha	90.000775
_cell_angle_beta	89.999646
_cell_angle_gamma	84.506118
loop_
_atom_site_label
_atom_site_type_symbol
_atom_site_fract_x
_atom_site_fract_y
_atom_site_fract_z
O1	O	1.667893	0.178322	-0.114288
O2	O	1.302422	0.195304	-0.114289
O3	O	1.493496	0.002104	-0.114286
O4	O	1.476820	0.371522	-0.114290
O5	O	1.493493	0.002108	0.114293
O6	O	1.302419	0.195309	0.114291
O7	O	1.667891	0.178327	0.114292
Zn8	Zn	1.485155	0.186819	0.150584
Zn9	Zn	1.485158	0.186812	-0.150580
O10	O	1.476817	0.371527	0.114290
C11	C	1.255622	0.194058	0.000001
C12	C	1.116178	0.190324	0.000000
C13	C	0.905708	0.300573	-0.000004
C14	C	1.036731	0.304082	-0.000004
C15	C	1.064597	0.073049	-0.000009
C16	C	0.933576	0.069541	-0.000019
C17	C	0.889621	0.433959	0.000005
C18	C	1.020644	0.437468	0.000005
C19	C	1.492244	-0.045197	0.000001
C20	C	1.488502	-0.186143	-0.000006
C21	C	1.345131	-0.369521	-0.000520
C22	C	1.348924	-0.222904	-0.000005
C23	C	1.555672	-0.247821	0.130524
C24	C	1.550909	-0.394364	0.130634
C25	C	1.553750	-0.394889	-0.129304
C26	C	1.555036	-0.247907	-0.131030
C27	C	1.714691	0.179573	-0.000001
C28	C	1.854135	0.183307	-0.000009
C29	C	1.478069	0.418827	-0.000001
C30	C	1.481811	0.559774	-0.000002
N31	N	1.485162	0.186822	0.356120
N32	N	1.485161	0.186799	-0.356117
C33	C	1.569792	0.101303	0.428047
C34	C	1.569788	0.101287	0.571930
C35	C	1.400522	0.272322	0.571946
C36	C	1.400520	0.272331	0.428066
C37	C	1.667520	0.002560	0.428039
C38	C	1.667517	0.002545	0.571922
H39	H	0.843984	0.474260	0.098697
N40	N	1.640535	-0.119833	0.379056
N41	N	1.621514	-0.206070	0.462538
H42	H	1.602438	-0.292504	0.427945
N43	N	1.781907	0.041394	0.372065
N44	N	1.867571	0.070464	0.450465
H45	H	1.948351	0.097909	0.410934
N46	N	1.629215	-0.113124	0.627915
N47	N	1.702563	-0.181105	0.703819
H48	H	1.675507	-0.262791	0.743371
N49	N	1.065300	0.490815	-0.123806
N50	N	1.027157	0.602329	-0.157443
H51	H	1.058675	0.640016	-0.244888
N52	N	1.057527	0.502585	0.120212
N53	N	0.976067	0.545586	0.204902
H54	H	1.002129	0.591449	0.289873
H55	H	1.764036	0.024297	0.610973
N56	N	1.282614	-0.169448	-0.117388
N57	N	1.233202	-0.240418	-0.200263
H58	H	1.186361	-0.202671	-0.283166
N59	N	1.676836	-0.454577	0.138107
N60	N	1.745184	-0.433931	0.238511
H61	H	1.834118	-0.476451	0.243801
H62	H	1.658175	-0.225502	0.135378
H63	H	1.289996	-0.398104	-0.094125
H64	H	0.891591	-0.025949	-0.000041
H65	H	1.501265	-0.422545	0.228208
H66	H	1.656799	-0.223721	-0.138912
H67	H	1.290218	-0.399708	0.092561
H68	H	0.847895	0.484222	-0.095652
N69	N	1.145763	-0.043143	-0.000026
N70	N	1.262743	-0.039997	-0.000028
H71	H	1.320068	-0.122059	-0.000040
H72	H	1.331598	0.341956	0.369504
N73	N	1.282153	-0.170505	0.117577
N74	N	1.232611	-0.242235	0.199520
H75	H	1.185453	-0.205231	0.282570
N76	N	1.314052	0.359663	0.645420
N77	N	1.197959	0.356822	0.629342
H78	H	1.136885	0.418509	0.681230
H79	H	1.509011	-0.205204	0.227660
N80	N	1.497081	-0.434473	-0.253407
N81	N	1.402973	-0.496588	-0.248059
H82	H	1.362940	-0.524549	-0.335700
H83	H	1.505888	-0.207034	-0.227593
N84	N	1.680221	-0.454179	-0.130448
N85	N	1.753595	-0.430663	-0.225352
H86	H	1.842912	-0.472542	-0.226155
