data_functionalizedCrystal
_audit_creation_method	'MofGen! by Chris Wilmer'
_symmetry_space_group_name_H-M	'P1'
_symmetry_Int_Tables_number	1
_symmetry_cell_setting	triclinic
loop_
_symmetry_equiv_pos_as_xyz
  x,y,z
_cell_length_a	12.837943
_cell_length_b	19.188930
_cell_length_c	11.892095
_cell_angle_alpha	93.870839
_cell_angle_beta	85.689438
_cell_angle_gamma	88.986861
loop_
_atom_site_label
_atom_site_type_symbol
_atom_site_fract_x
_atom_site_fract_y
_atom_site_fract_z
O1	O	1.381278	0.177430	-0.094009
O2	O	1.079513	0.168466	-0.094014
O3	O	1.239102	0.071891	-0.093990
O4	O	1.221689	0.274006	-0.094034
O5	O	1.225796	0.079929	0.094016
O6	O	1.066207	0.176505	0.093991
O7	O	1.367972	0.185469	0.093996
Zn8	Zn	1.214977	0.182263	0.123844
Zn9	Zn	1.232508	0.171672	-0.123862
O10	O	1.208383	0.282044	0.093971
C11	C	1.034253	0.169458	-0.000012
C12	C	0.919217	0.160427	-0.000013
C13	C	1.231885	0.049861	0.000016
C14	C	1.230191	-0.027760	0.000026
C15	C	0.677767	0.268994	-0.000021
C16	C	0.569680	0.260512	-0.000021
C17	C	0.594952	0.134982	-0.000005
C18	C	0.703040	0.143464	-0.000005
C19	C	0.744443	0.210472	-0.000015
C20	C	0.852533	0.218953	-0.000023
C21	C	0.877803	0.093423	0.000001
C22	C	0.769716	0.084941	0.000001
C23	C	1.323833	-0.066260	0.000033
C24	C	1.322244	-0.139194	0.000015
C25	C	1.227006	-0.173623	0.000012
C26	C	1.133352	-0.135114	-0.000001
C27	C	1.134944	-0.062182	0.000006
N28	N	1.149679	-0.283886	0.063993
N29	N	1.148172	-0.353168	0.063989
C30	C	1.222201	-0.393362	-0.000010
N31	N	1.297809	-0.361657	-0.063992
N32	N	1.299318	-0.292369	-0.063982
C33	C	1.225268	-0.252705	0.000004
C34	C	1.314126	-0.510946	-0.000025
C35	C	1.312534	-0.583882	-0.000050
C36	C	1.123638	-0.579799	-0.000054
C37	C	1.125234	-0.506866	-0.000041
C38	C	1.220481	-0.472444	-0.000020
C39	C	1.413232	0.184477	-0.000009
C40	C	1.528268	0.193508	-0.000015
C41	C	1.215600	0.304074	-0.000037
C42	C	1.217294	0.381694	-0.000054
N43	N	1.203020	0.189491	0.292896
N44	N	1.244474	0.164439	-0.292914
C45	C	1.327677	0.114101	0.529563
C46	C	1.319327	0.119160	0.647904
C47	C	1.177964	0.204661	0.647920
C48	C	1.186314	0.199603	0.529579
C49	C	1.261175	0.154323	0.470405
C50	C	1.269529	0.149269	0.352062
C51	C	1.128162	0.234767	0.352080
C52	C	1.119812	0.239825	0.470421
H53	H	0.886241	0.273515	-0.000028
H54	H	0.735989	0.030385	0.000021
O55	O	1.105104	0.248554	0.705367
C56	C	0.922174	0.278954	0.741577
C57	C	1.004580	0.229190	0.676464
H58	H	0.840883	0.263326	0.718215
H59	H	0.927542	0.275644	0.836331
H60	H	0.937104	0.334771	0.718331
H61	H	0.989703	0.173351	0.699615
H62	H	0.999192	0.232561	0.581726
O63	O	1.400291	0.070027	0.472112
C64	C	1.464189	-0.048810	0.435915
C65	C	1.381874	0.001019	0.501034
H66	H	1.449341	-0.104612	0.459292
H67	H	1.458723	-0.045568	0.341162
H68	H	1.545496	-0.033127	0.459141
H69	H	1.300530	-0.014631	0.477902
H70	H	1.387431	-0.002231	0.595771
H71	H	0.932104	0.045770	-0.000002
O72	O	1.416448	-0.032936	-0.000005
C73	C	1.603628	-0.044682	0.000081
C74	C	1.498819	-0.082513	0.000098
H75	H	1.670252	-0.084747	0.000187
H76	H	1.614744	-0.014017	-0.078615
H77	H	1.603469	-0.007265	0.078745
H78	H	1.498904	-0.119964	-0.078514
H79	H	1.487745	-0.113133	0.078845
H80	H	1.330487	0.112401	0.303884
H81	H	0.711478	0.323555	-0.000030
O82	O	1.046957	0.283725	0.527859
C83	C	0.864034	0.314149	0.564053
C84	C	0.946429	0.264370	0.498957
H85	H	0.782740	0.298527	0.540692
H86	H	0.869396	0.310848	0.658810
H87	H	0.878980	0.369961	0.540791
H88	H	0.931537	0.208536	0.522124
H89	H	0.941047	0.267732	0.404216
O90	O	1.063653	0.273947	0.294668
C91	C	1.004899	0.389710	0.258523
C92	C	1.078019	0.345420	0.323589
H93	H	1.016472	0.447503	0.281900
H94	H	1.023722	0.378383	0.163762
H95	H	0.920308	0.376023	0.281797
H96	H	1.162634	0.359081	0.300410
H97	H	1.059106	0.356752	0.418335
H98	H	1.373479	0.086407	0.696067
H99	H	0.561216	0.080430	0.000095
O100	O	0.505062	0.317433	-0.000082
C101	C	0.491401	0.442840	-0.000031
C102	C	0.564701	0.378434	0.000010
H103	H	0.539588	0.492176	0.000067
H104	H	0.445755	0.438695	-0.078731
H105	H	0.434577	0.445328	0.078629
H106	H	0.621587	0.375906	-0.078597
H107	H	0.610273	0.382605	0.078762
O108	O	1.413197	-0.176644	-0.000170
C109	C	1.527887	-0.265546	-0.097514
C110	C	1.424869	-0.223174	-0.097462
H111	H	1.537346	-0.303186	-0.176154
H112	H	1.596281	-0.228452	-0.097573
H113	H	1.526262	-0.296402	-0.018798
H114	H	1.426391	-0.192314	-0.176165
H115	H	1.356519	-0.260304	-0.097345
O116	O	1.040912	-0.168639	-0.000152
C117	C	0.936363	-0.252738	-0.097597
C118	C	1.041108	-0.214833	-0.097545
H119	H	0.936477	-0.290084	-0.176342
H120	H	0.925311	-0.283473	-0.018972
H121	H	0.869717	-0.212674	-0.097545
H122	H	1.107816	-0.254850	-0.097636
H123	H	1.052068	-0.184085	-0.176163
O124	O	1.043876	-0.024882	0.000055
C125	C	0.856358	-0.028532	-0.000024
C126	C	0.959413	-0.070860	-0.000056
H127	H	0.788045	-0.065688	-0.000138
H128	H	0.846739	0.009050	0.078680
H129	H	0.858010	0.002381	-0.078680
H130	H	0.957834	-0.101815	0.078546
H131	H	0.968993	-0.108399	-0.078813
H132	H	1.391682	-0.482919	-0.000013
O133	O	1.031109	-0.613210	-0.000258
C134	C	0.876042	-0.636151	-0.097634
C135	C	0.980817	-0.598285	-0.097551
H136	H	0.835340	-0.624086	-0.176274
H137	H	0.890928	-0.694902	-0.097714
H138	H	0.824253	-0.617459	-0.018918
H139	H	1.032658	-0.616919	-0.176253
H140	H	0.965853	-0.539539	-0.097412
O141	O	1.034309	-0.469441	-0.000235
C142	C	0.933400	-0.388852	-0.097596
C143	C	1.036415	-0.431210	-0.097524
H144	H	0.935078	-0.357921	-0.176233
H145	H	0.865021	-0.425957	-0.097674
H146	H	0.923864	-0.351280	-0.018877
H147	H	1.046052	-0.468785	-0.176229
H148	H	1.104741	-0.394064	-0.097387
H149	H	1.388792	-0.615228	-0.000050
