data_functionalizedCrystal
_audit_creation_method	'MofGen! by Chris Wilmer'
_symmetry_space_group_name_H-M	'P1'
_symmetry_Int_Tables_number	1
_symmetry_cell_setting	triclinic
loop_
_symmetry_equiv_pos_as_xyz
  x,y,z
_cell_length_a	10.540510
_cell_length_b	14.044220
_cell_length_c	13.101039
_cell_angle_alpha	93.667477
_cell_angle_beta	86.608574
_cell_angle_gamma	88.851094
loop_
_atom_site_label
_atom_site_type_symbol
_atom_site_fract_x
_atom_site_fract_y
_atom_site_fract_z
O1	O	1.705807	0.128358	-0.085224
O2	O	1.337666	0.140983	-0.085225
O3	O	1.516210	-0.003350	-0.085215
O4	O	1.527263	0.272692	-0.085235
O5	O	1.503401	0.007023	0.085215
O6	O	1.324857	0.151356	0.085204
O7	O	1.692999	0.138731	0.085205
Zn8	Zn	1.506894	0.146691	0.112264
Zn9	Zn	1.523770	0.133024	-0.112284
O10	O	1.514455	0.283065	0.085194
C11	C	1.283863	0.145229	-0.000011
C12	C	1.142628	0.142414	-0.000011
C13	C	1.504968	-0.033510	0.000000
C14	C	1.490538	-0.138833	0.000002
C15	C	1.464158	-0.331671	-0.000013
C16	C	1.566501	-0.388620	-0.000016
C17	C	1.551823	-0.495922	-0.000024
C18	C	1.478834	-0.224359	-0.000005
C19	C	0.935340	0.242658	-0.000410
C20	C	1.082210	0.245684	-0.000019
C21	C	1.085210	0.095473	0.097314
C22	C	0.938213	0.093207	0.097390
C23	C	0.952755	0.079260	-0.096420
C24	C	1.099688	0.084080	-0.097700
C25	C	1.746802	0.134486	-0.000012
C26	C	1.888037	0.137300	-0.000019
C27	C	1.525697	0.313225	-0.000023
C28	C	1.540127	0.418547	-0.000031
N29	N	1.495386	0.156018	0.265512
N30	N	1.535287	0.123690	-0.265532
C31	C	1.479730	0.168716	0.474553
C32	C	1.550939	0.110995	0.525433
C33	C	1.542228	0.118060	0.641751
C34	C	1.488440	0.161652	0.358225
H35	H	1.665149	-0.356793	-0.000085
H36	H	1.412230	0.223436	0.518346
H37	H	0.922811	0.001685	-0.097072
H38	H	1.120980	0.282795	-0.069789
H39	H	1.618446	0.056272	0.481635
H40	H	1.365524	-0.363501	-0.000016
H41	H	0.902699	0.278643	-0.070207
H42	H	1.109568	0.291546	0.069858
H43	H	0.890661	0.286883	0.068986
H44	H	0.907077	0.016236	0.101816
H45	H	0.896182	0.133762	0.170136
H46	H	0.919043	0.107337	-0.170187
H47	H	1.114333	0.136595	0.169738
H48	H	1.124641	0.019668	0.100939
H49	H	1.141574	0.008328	-0.103572
H50	H	1.137606	0.118162	-0.169701
