data_functionalizedCrystal
_audit_creation_method	'MofGen! by Chris Wilmer'
_symmetry_space_group_name_H-M	'P1'
_symmetry_Int_Tables_number	1
_symmetry_cell_setting	triclinic
loop_
_symmetry_equiv_pos_as_xyz
  x,y,z
_cell_length_a	15.944551
_cell_length_b	15.944545
_cell_length_c	14.421503
_cell_angle_alpha	90.002190
_cell_angle_beta	90.003141
_cell_angle_gamma	96.502544
loop_
_atom_site_label
_atom_site_type_symbol
_atom_site_fract_x
_atom_site_fract_y
_atom_site_fract_z
O1	O	-1.114527	0.108321	-0.077019
O2	O	-0.869977	0.121677	-0.077043
O3	O	-0.998933	-0.007276	-0.077019
O4	O	-0.985571	0.237274	-0.077043
O5	O	-0.998911	-0.007257	0.077204
O6	O	-0.869956	0.121696	0.077180
O7	O	-1.114505	0.108340	0.077204
Cu8	Cu	-0.992229	0.115020	0.091274
Cu9	Cu	-0.992254	0.114997	-0.091113
O10	O	-0.985550	0.237293	0.077181
C11	C	-0.998368	-0.038561	0.000093
C12	C	-0.996708	-0.131807	0.000095
C13	C	-0.838672	0.121132	0.000066
C14	C	-0.745426	0.119470	0.000057
C15	C	-1.145810	0.108885	0.000093
C16	C	-1.239056	0.110547	0.000096
C17	C	-0.911814	-0.402440	0.000069
C18	C	-0.952754	-0.351864	-0.075968
C19	C	-0.990787	-0.467451	0.000069
C20	C	-0.952754	-0.351872	0.076084
C21	C	-0.993692	-0.302537	0.000083
C22	C	-1.031706	-0.418103	-0.076031
C23	C	-1.031694	-0.418115	0.076090
C24	C	-1.072692	-0.367571	0.000034
C25	C	-0.989112	-0.562453	0.000059
C26	C	-0.995374	-0.207538	0.000086
C27	C	-0.530571	0.035565	0.000083
C28	C	-0.469561	0.074518	-0.075961
C29	C	-0.574700	0.116463	0.000068
C30	C	-0.469562	0.074556	0.076091
C31	C	-0.409788	0.113552	0.000083
C32	C	-0.514918	0.155438	-0.076038
C33	C	-0.514926	0.155465	0.076082
C34	C	-0.453933	0.194476	0.000020
C35	C	-0.669703	0.118137	0.000059
C36	C	-0.314787	0.111884	0.000086
C37	C	-0.986114	0.268578	0.000066
C38	C	-0.987774	0.361824	0.000057
N39	N	-0.992217	0.115035	0.219555
N40	N	-0.992272	0.114975	-0.219394
C41	C	-0.932577	0.174637	0.469198
C42	C	-1.008477	0.190944	0.531006
C43	C	-0.992237	0.115015	0.408717
C44	C	-0.916357	0.098728	0.531002
C45	C	-0.992250	0.114998	0.591438
C46	C	-1.068175	0.131360	0.469164
C47	C	-0.976006	0.039111	0.469155
C48	C	-1.051960	0.055386	0.530935
C49	C	-0.992229	0.115027	0.303456
C50	C	-0.992268	0.114985	0.696697
H51	H	-0.843802	-0.418092	-0.000012
H52	H	-0.534914	0.189620	-0.140398
H53	H	-0.919379	-0.322950	0.140365
C54	C	-0.575597	-0.055133	-0.000023
H55	H	-0.560187	-0.083745	-0.054122
H56	H	-0.559436	-0.084169	0.053446
H57	H	-0.634960	-0.053431	0.000516
H58	H	-0.882176	0.225097	0.442091
C59	C	-0.409127	0.285262	-0.000039
H60	H	-0.375184	0.294004	0.054001
H61	H	-0.374477	0.293651	-0.053568
H62	H	-0.450085	0.324140	-0.000573
C63	C	-0.542119	0.201657	0.162924
H64	H	-0.526772	0.172839	0.216907
H65	H	-0.514822	0.257792	0.163466
H66	H	-0.601552	0.202818	0.161988
C67	C	-1.076695	-0.457223	0.162940
H68	H	-1.048535	-0.434434	0.216917
H69	H	-1.133532	-0.444683	0.163493
H70	H	-1.075759	-0.516685	0.162002
H71	H	-0.919410	-0.322937	-0.140258
H72	H	-0.962241	-0.025051	0.441965
C73	C	-0.442418	0.028330	0.162940
H74	H	-0.468936	-0.028115	0.162844
H75	H	-0.382874	0.028053	0.162620
H76	H	-0.458719	0.056526	0.216936
C77	C	-0.442404	0.028294	-0.162805
H78	H	-0.404736	0.065733	-0.198611
H79	H	-0.414945	-0.018914	-0.144531
H80	H	-0.490788	0.009556	-0.198860
C81	C	-0.829663	0.080116	0.567688
H82	H	-0.787339	0.122534	0.546535
H83	H	-0.830435	0.079728	0.633550
H84	H	-0.817723	0.026607	0.545587
C85	C	-1.027035	0.277643	0.567722
H86	H	-0.984590	0.319951	0.546592
H87	H	-1.080534	0.289623	0.545644
H88	H	-1.027410	0.276847	0.633590
H89	H	-1.065042	-0.446917	-0.140385
H90	H	-1.132365	0.145206	0.442115
C91	C	-1.120194	-0.012737	0.567336
H92	H	-1.174044	-0.001032	0.546047
H93	H	-1.109117	-0.066513	0.545222
H94	H	-1.119527	-0.012679	0.633206
H95	H	-1.140757	-0.352081	-0.000002
