data_functionalizedCrystal
_audit_creation_method	'MofGen! by Chris Wilmer'
_symmetry_space_group_name_H-M	'P1'
_symmetry_Int_Tables_number	1
_symmetry_cell_setting	triclinic
loop_
_symmetry_equiv_pos_as_xyz
  x,y,z
_cell_length_a	16.109301
_cell_length_b	14.519709
_cell_length_c	15.186229
_cell_angle_alpha	89.995307
_cell_angle_beta	89.999362
_cell_angle_gamma	83.570813
loop_
_atom_site_label
_atom_site_type_symbol
_atom_site_fract_x
_atom_site_fract_y
_atom_site_fract_z
O1	O	1.103336	0.118540	-0.073175
O2	O	0.861299	0.133292	-0.073189
O3	O	0.988735	-0.008336	-0.073174
O4	O	0.975900	0.260168	-0.073190
O5	O	0.988726	-0.008338	0.073284
O6	O	0.861291	0.133290	0.073268
O7	O	1.103327	0.118538	0.073282
Zn8	Zn	0.982308	0.125914	0.096529
Zn9	Zn	0.982319	0.125916	-0.096435
O10	O	0.975892	0.260166	0.073267
C11	C	0.830319	0.132693	0.000038
C12	C	0.738021	0.130902	0.000033
C13	C	0.515887	0.210775	0.000038
C14	C	0.429163	0.209085	0.000044
C15	C	0.448747	0.041048	0.000050
C16	C	0.535468	0.042739	0.000051
C17	C	0.569036	0.127606	0.000040
C18	C	0.395591	0.124224	0.000045
C19	C	0.301562	0.122390	0.000052
C20	C	0.663071	0.129440	0.000036
C21	C	0.988132	-0.042696	0.000055
C22	C	0.986340	-0.145073	0.000056
C23	C	0.979741	-0.519955	0.000032
C24	C	0.981574	-0.415651	0.000039
C25	C	0.983041	-0.332517	0.000045
C26	C	0.984873	-0.228207	0.000050
C27	C	1.134307	0.119136	0.000054
C28	C	1.226606	0.120928	0.000053
C29	C	0.976494	0.294526	0.000036
C30	C	0.978287	0.396903	0.000030
N31	N	0.982306	0.125911	0.228221
N32	N	0.982327	0.125911	-0.228128
C33	C	1.038754	0.063219	0.453951
C34	C	1.038756	0.063217	0.546141
C35	C	0.925873	0.188606	0.546136
C36	C	0.925867	0.188603	0.453948
C37	C	0.982312	0.125911	0.407858
C38	C	0.982321	0.125912	0.592236
C39	C	0.982323	0.125910	0.692192
C40	C	0.982309	0.125911	0.307895
H41	H	0.421405	-0.028048	0.000064
O42	O	0.870968	0.249539	0.590773
C43	C	0.821161	0.304885	0.530318
H44	H	0.820164	0.267071	0.464608
H45	H	0.848252	0.373405	0.520504
C46	C	0.732729	0.370304	0.647009
C47	C	0.731499	0.323858	0.566304
H48	H	0.677422	0.382012	0.669207
H49	H	0.766286	0.333020	0.687740
H50	H	0.755308	0.427399	0.638820
H51	H	0.708930	0.266759	0.574496
H52	H	0.697936	0.361133	0.525575
H53	H	1.084715	0.012167	0.583667
O54	O	0.548396	0.293269	-0.000082
C55	C	0.521263	0.343964	-0.075945
H56	H	0.461082	0.318845	-0.101233
H57	H	0.571428	0.333276	-0.129059
C58	C	0.579065	0.478560	-0.021844
C59	C	0.505147	0.447714	-0.052899
H60	H	0.569128	0.542558	-0.007630
H61	H	0.597349	0.444406	0.029265
H62	H	0.620863	0.469646	-0.066111
H63	H	0.463355	0.456618	-0.008628
H64	H	0.486856	0.481872	-0.104000
O65	O	0.586985	-0.038142	0.000013
C66	C	0.538764	-0.113410	0.000037
H67	H	0.474075	-0.089989	-0.027694
H68	H	0.532550	-0.139426	0.070301
C69	C	0.661318	-0.220890	-0.023335
C70	C	0.581868	-0.192125	-0.057401
H71	H	0.687908	-0.269447	-0.058761
H72	H	0.693807	-0.170181	-0.023347
H73	H	0.656129	-0.242564	0.035218
H74	H	0.587059	-0.170441	-0.115948
H75	H	0.549381	-0.242832	-0.057399
O76	O	0.377416	0.289791	0.000074
C77	C	0.293674	0.270105	0.000055
H78	H	0.290242	0.197670	0.027791
H79	H	0.268600	0.273605	-0.070209
C80	C	0.244919	0.430688	0.023416
C81	C	0.240703	0.341725	0.057489
H82	H	0.212242	0.474868	0.058840
H83	H	0.301337	0.443952	0.023425
H84	H	0.224026	0.433591	-0.035136
H85	H	0.261606	0.338819	0.116035
H86	H	0.184287	0.328462	0.057490
O87	O	0.871153	0.249548	0.409072
C88	C	0.915759	0.306468	0.355753
H89	H	0.980759	0.269755	0.341943
H90	H	0.921510	0.374632	0.391272
C91	C	0.789078	0.371253	0.285146
C92	C	0.868909	0.326158	0.268178
H93	H	0.760178	0.383402	0.231127
H94	H	0.759025	0.332907	0.321070
H95	H	0.793882	0.428051	0.314747
H96	H	0.864104	0.269356	0.238587
H97	H	0.898961	0.364494	0.232247
H98	H	1.084714	0.012170	0.416427
