data_functionalizedCrystal
_audit_creation_method	'MofGen! by Chris Wilmer'
_symmetry_space_group_name_H-M	'P1'
_symmetry_Int_Tables_number	1
_symmetry_cell_setting	triclinic
loop_
_symmetry_equiv_pos_as_xyz
  x,y,z
_cell_length_a	13.032127
_cell_length_b	13.897449
_cell_length_c	13.032268
_cell_angle_alpha	97.160711
_cell_angle_beta	89.069017
_cell_angle_gamma	97.191079
loop_
_atom_site_label
_atom_site_type_symbol
_atom_site_fract_x
_atom_site_fract_y
_atom_site_fract_z
Zn1	Zn	-0.483304	1.355980	-0.529475
Zn2	Zn	-0.633490	1.361019	-0.335648
Zn3	Zn	-0.461511	1.217394	-0.357516
Zn4	Zn	-0.655255	1.177080	-0.507563
O5	O	-0.558390	1.277868	-0.432550
O6	O	-0.503238	1.491626	-0.503782
O7	O	-0.592447	1.360948	-0.194636
O8	O	-0.320466	1.250540	-0.398649
O9	O	-0.613579	1.495329	-0.361378
O10	O	-0.336477	1.352359	-0.524987
O11	O	-0.466095	1.255427	-0.210702
O12	O	-0.487200	1.077068	-0.377401
O13	O	-0.650675	1.181831	-0.654382
O14	O	-0.629543	1.047449	-0.487640
O15	O	-0.524343	1.313268	-0.670481
O16	O	-0.780313	1.321857	-0.340131
O17	O	-0.796304	1.186717	-0.466436
C18	C	-0.558370	1.027260	-0.432517
C19	C	-0.558389	0.920043	-0.432523
C20	C	-0.558394	0.832971	-0.432540
C21	C	-0.558406	0.723734	-0.432570
C22	C	-0.825632	1.250483	-0.398555
C23	C	-0.939963	1.238851	-0.384046
C24	C	-1.116955	1.271968	-0.425155
C25	C	-0.998788	1.283998	-0.440153
C26	C	-0.290107	1.305384	-0.466701
C27	C	-0.175781	1.317110	-0.481254
C28	C	-0.592368	1.242490	-0.700790
C29	C	-0.606847	1.227414	-0.815098
C30	C	-0.558411	1.529455	-0.432585
C31	C	-0.558420	1.636666	-0.432600
C32	C	-0.550796	1.285725	-0.874025
C33	C	-0.565760	1.270145	-0.992168
C34	C	-0.524470	1.313172	-0.165364
C35	C	-0.509701	1.328464	-0.051094
H36	H	-1.154075	1.224412	-0.366026
H37	H	-1.138663	1.364659	-0.540391
C38	C	-0.431009	1.410544	-1.001870
C39	C	-0.456665	1.500276	-1.025097
C40	C	-0.384191	1.575903	-0.979777
H41	H	-0.431357	1.410255	-0.929016
H42	H	-0.364092	1.401271	-1.028243
H43	H	-0.523565	1.509547	-0.998720
H44	H	-0.456310	1.500597	-1.097942
H45	H	-0.317273	1.566631	-1.006149
H46	H	-0.384544	1.575605	-0.906925
H47	H	-0.401583	1.636794	-0.995538
H48	H	-0.491727	1.347179	-0.837010
C49	C	-0.644513	1.188280	-1.041697
C50	C	-0.643727	1.189124	-1.149027
C51	C	-0.716270	1.113737	-1.194686
H52	H	-0.627335	1.127249	-1.026167
H53	H	-0.711445	1.197612	-1.015403
H54	H	-0.576810	1.179785	-1.175312
H55	H	-0.660916	1.250138	-1.164586
H56	H	-0.783201	1.123069	-1.168392
H57	H	-0.699085	1.052711	-1.179148
H58	H	-0.715752	1.114305	-1.267512
H59	H	-0.961675	1.331551	-0.499294
H60	H	-0.665906	1.165952	-0.852113
H61	H	-0.977078	1.191287	-0.324915
