data_functionalizedCrystal
_audit_creation_method	'MofGen! by Chris Wilmer'
_symmetry_space_group_name_H-M	'P1'
_symmetry_Int_Tables_number	1
_symmetry_cell_setting	triclinic
loop_
_symmetry_equiv_pos_as_xyz
  x,y,z
_cell_length_a	11.792241
_cell_length_b	16.109301
_cell_length_c	14.586319
_cell_angle_alpha	90.005214
_cell_angle_beta	89.999304
_cell_angle_gamma	83.827448
loop_
_atom_site_label
_atom_site_type_symbol
_atom_site_fract_x
_atom_site_fract_y
_atom_site_fract_z
O1	O	-1.505908	-0.113953	-0.076154
O2	O	-1.005908	0.386047	0.423846
O3	O	-1.175464	-0.125697	-0.076176
O4	O	-0.675464	0.374303	0.423824
O5	O	-1.349763	0.001163	-0.076155
O6	O	-0.849763	0.501163	0.423845
O7	O	-1.331608	-0.240814	-0.076175
O8	O	-0.831608	0.259186	0.423825
O9	O	-1.349751	0.001165	0.076325
O10	O	-0.849751	0.501165	0.576325
O11	O	-1.175452	-0.125695	0.076305
O12	O	-0.675452	0.374305	0.576305
O13	O	-1.505896	-0.113951	0.076326
O14	O	-1.005896	0.386049	0.576326
Cu15	Cu	-1.340673	-0.119823	0.090238
Cu16	Cu	-0.840673	0.380177	0.590238
Cu17	Cu	-1.340687	-0.119825	-0.090088
Cu18	Cu	-0.840687	0.380175	0.409912
O19	O	-1.331596	-0.240812	0.076306
O20	O	-0.831596	0.259188	0.576306
C21	C	-1.133173	-0.124959	0.000062
C22	C	-0.633173	0.375041	0.500062
C23	C	-1.007179	-0.122751	0.000054
C24	C	-0.507179	0.377249	0.500054
C25	C	-1.349022	0.032142	0.000085
C26	C	-0.849022	0.532142	0.500085
C27	C	-1.346817	0.124448	0.000087
C28	C	-0.846817	0.624448	0.500087
C29	C	-1.548186	-0.114690	0.000087
C30	C	-1.048186	0.385310	0.500087
C31	C	-1.674181	-0.116898	0.000088
C32	C	-1.174181	0.383102	0.500088
C33	C	-0.776502	-0.118690	0.000080
C34	C	-0.276502	0.381310	0.500080
C35	C	-0.904868	-0.120946	0.000066
C36	C	-0.404868	0.379054	0.500066
C37	C	-1.332338	-0.271791	0.000063
C38	C	-0.832338	0.228209	0.500063
C39	C	-1.334542	-0.364097	0.000055
C40	C	-0.834542	0.135903	0.500055
N41	N	-1.340671	-0.119821	0.217070
N42	N	-0.840671	0.380179	0.717070
C43	C	-1.445116	0.346258	0.000078
C44	C	-0.945116	0.846258	0.500078
C45	C	-1.443036	0.432988	0.000071
C46	C	-0.943036	0.932988	0.500071
C47	C	-1.236235	0.414087	0.000061
C48	C	-0.736235	0.914087	0.500061
C49	C	-1.238317	0.327358	0.000062
C50	C	-0.738317	0.827358	0.500062
C51	C	-1.342761	0.293446	0.000075
C52	C	-0.842761	0.793446	0.500075
C53	C	-1.338599	0.466905	0.000067
C54	C	-0.838599	0.966905	0.500067
C55	C	-1.336342	0.560942	0.000058
C56	C	-0.836342	1.060942	0.500058
C57	C	-1.345018	0.199404	0.000082
C58	C	-0.845018	0.699404	0.500082
N59	N	-1.340698	-0.119821	-0.216920
N60	N	-0.840698	0.380179	0.283080
C61	C	-1.417876	-0.063666	0.452086
C62	C	-0.917876	0.436334	0.952086
C63	C	-1.417879	-0.063664	0.548067
C64	C	-0.917879	0.436336	1.048067
C65	C	-1.263484	-0.175978	0.548058
C66	C	-0.763484	0.324022	1.048058
C67	C	-1.263476	-0.175976	0.452078
C68	C	-0.763476	0.324024	0.952078
C69	C	-1.340679	-0.119821	0.404095
C70	C	-0.840679	0.380179	0.904095
C71	C	-1.340690	-0.119821	0.596055
C72	C	-0.840690	0.380179	1.096055
C73	C	-1.340693	-0.119820	0.700123
C74	C	-0.840693	0.380180	1.200123
C75	C	-1.340675	-0.119821	0.300021
C76	C	-0.840675	0.380179	0.800021
H77	H	-1.530161	0.318650	0.000088
H78	H	-1.030161	0.818650	0.500088
N79	N	-1.184617	-0.233352	0.403066
N80	N	-0.684617	0.266648	0.903066
N81	N	-1.186141	-0.310209	0.413774
N82	N	-0.686141	0.189791	0.913774
H83	H	-1.130447	-0.350729	0.379161
H84	H	-0.630447	0.149271	0.879161
N85	N	-1.184619	-0.233328	0.597076
N86	N	-0.684619	0.266672	1.097076
N87	N	-1.114189	-0.206601	0.650640
N88	N	-0.614189	0.293399	1.150640
H89	H	-1.058489	-0.247105	0.685259
H90	H	-0.558489	0.252895	1.185259
N91	N	-1.133768	0.273394	0.000050
N92	N	-0.633768	0.773394	0.500050
N93	N	-1.111871	0.222885	-0.064227
N94	N	-0.611871	0.722885	0.435773
H95	H	-1.038037	0.184771	-0.064240
H96	H	-0.538037	0.684771	0.435760
H97	H	-1.526384	0.475984	0.000071
H98	H	-1.026384	0.975984	0.500071
H99	H	-1.151201	0.441709	0.000052
H100	H	-0.651201	0.941709	0.500052
H101	H	-1.480738	-0.017940	0.413019
H102	H	-0.980738	0.482060	0.913019
H103	H	-1.480739	-0.017937	0.587138
H104	H	-0.980739	0.482063	1.087138
