data_functionalizedCrystal
_audit_creation_method	'MofGen! by Chris Wilmer'
_symmetry_space_group_name_H-M	'P1'
_symmetry_Int_Tables_number	1
_symmetry_cell_setting	triclinic
loop_
_symmetry_equiv_pos_as_xyz
  x,y,z
_cell_length_a	17.699083
_cell_length_b	14.044220
_cell_length_c	16.176319
_cell_angle_alpha	89.992517
_cell_angle_beta	89.998611
_cell_angle_gamma	88.235946
loop_
_atom_site_label
_atom_site_type_symbol
_atom_site_fract_x
_atom_site_fract_y
_atom_site_fract_z
O1	O	1.012346	0.119850	-0.068632
O2	O	0.793044	0.135443	-0.068659
O3	O	0.899403	-0.010330	-0.068638
O4	O	0.905987	0.265624	-0.068653
O5	O	0.899387	-0.010340	0.068855
O6	O	0.793027	0.135434	0.068834
O7	O	1.012330	0.119841	0.068861
Cu8	Cu	0.902677	0.127637	0.081402
Cu9	Cu	0.902696	0.127648	-0.081200
O10	O	0.905970	0.265614	0.068840
C11	C	0.764800	0.134880	0.000084
C12	C	0.680666	0.133204	0.000074
C13	C	0.637948	0.218769	0.000069
C14	C	0.558895	0.217189	0.000080
C15	C	0.522563	0.130041	0.000089
C16	C	0.565287	0.044469	0.000096
C17	C	0.644338	0.046050	0.000092
C18	C	0.246484	0.038089	0.000117
C19	C	0.167427	0.036514	0.000120
C20	C	0.161041	0.209227	0.000106
C21	C	0.240092	0.210809	0.000101
C22	C	0.282809	0.125237	0.000112
C23	C	0.368527	0.126952	0.000102
C24	C	0.436847	0.128325	0.000094
C25	C	0.896513	-0.045643	0.000109
C26	C	0.887917	-0.150849	0.000109
C27	C	0.872202	-0.343474	0.000095
C28	C	0.933168	-0.401248	0.000100
C29	C	0.924424	-0.508431	0.000092
C30	C	0.880945	-0.236281	0.000102
C31	C	1.040574	0.120404	0.000116
C32	C	1.124707	0.122081	0.000121
C33	C	0.908860	0.300927	0.000091
C34	C	0.917456	0.406133	0.000086
N35	N	0.902668	0.127628	0.195767
N36	N	0.902710	0.127648	-0.195565
C37	C	0.949782	0.063106	0.239041
C38	C	0.949786	0.063105	0.325588
C39	C	0.902679	0.127632	0.368860
C40	C	0.855561	0.192157	0.325580
C41	C	0.855554	0.192153	0.239034
C42	C	0.855588	0.192175	0.674608
C43	C	0.855600	0.192176	0.761160
C44	C	0.949820	0.063127	0.761161
C45	C	0.949813	0.063123	0.674616
C46	C	0.902692	0.127644	0.631344
C47	C	0.902687	0.127643	0.537500
C48	C	0.902687	0.127638	0.462702
H49	H	0.524117	0.286865	0.000075
O50	O	1.003217	-0.364073	0.000153
C51	C	1.075910	-0.221792	0.000132
C52	C	0.996541	-0.263771	0.000087
H53	H	1.070540	-0.140693	0.000061
H54	H	1.107975	-0.246760	0.057692
H55	H	1.107980	-0.246858	-0.057389
H56	H	0.964408	-0.238724	0.057570
H57	H	0.964533	-0.238808	-0.057511
H58	H	0.817238	0.244723	0.796390
H59	H	0.535699	-0.026488	0.000116
O60	O	0.802143	-0.380604	-0.000021
C61	C	0.714010	-0.479043	-0.071281
C62	C	0.793378	-0.437059	-0.071247
H63	H	0.706893	-0.524680	-0.128870
H64	H	0.706864	-0.524840	-0.013781
H65	H	0.669493	-0.418625	-0.071239
H66	H	0.837944	-0.497416	-0.071318
H67	H	0.800460	-0.391237	-0.128742
O68	O	0.995656	0.000401	0.803069
C69	C	1.089071	-0.127648	0.793934
C70	C	1.037216	-0.056651	0.746374
H71	H	1.122674	-0.173806	0.748116
H72	H	1.129689	-0.086843	0.834423
H73	H	1.053194	-0.174900	0.834481
H74	H	1.073032	-0.009380	0.705782
H75	H	0.996594	-0.097514	0.705937
O76	O	0.288086	-0.044945	0.000152
C77	C	0.412697	-0.119069	0.000089
C78	C	0.365669	-0.024959	0.000074
H79	H	0.475431	-0.102944	0.000008
H80	H	0.398787	-0.161988	0.057643
H81	H	0.398678	-0.161954	-0.057438
H82	H	0.379662	0.018002	0.057562
H83	H	0.379585	0.017888	-0.057518
H84	H	0.817222	0.244712	0.639383
H85	H	0.126251	0.278904	0.000101
H86	H	0.269670	0.281773	0.000089
O87	O	0.809872	0.254803	0.367740
C88	C	0.768094	0.311971	0.501064
C89	C	0.819885	0.240985	0.453424
H90	H	0.776160	0.300811	0.570348
H91	H	0.783076	0.387886	0.484093
H92	H	0.706656	0.299725	0.484009
H93	H	0.881339	0.253144	0.470453
H94	H	0.804839	0.165095	0.470398
H95	H	0.667523	0.289735	0.000061
H96	H	0.988144	0.010565	0.203814
H97	H	0.988148	0.010566	0.360821
H98	H	0.137848	-0.034456	0.000128
O99	O	0.995399	0.000264	0.632560
C100	C	1.002537	-0.129470	0.535124
C101	C	0.950871	-0.058226	0.582639
H102	H	0.966557	-0.176791	0.494765
H103	H	1.043162	-0.088873	0.494469
H104	H	1.036146	-0.175534	0.581015
H105	H	0.917213	-0.012144	0.536808
H106	H	0.910295	-0.098882	0.623307
O107	O	0.685723	-0.037156	0.000055
C108	C	0.683720	-0.208637	0.000115
C109	C	0.636761	-0.114475	0.000134
H110	H	0.644154	-0.271174	0.000197
H111	H	0.720869	-0.212277	-0.057440
H112	H	0.720909	-0.212166	0.057641
H113	H	0.599528	-0.110884	-0.057352
H114	H	0.599660	-0.110875	0.057728
O115	O	0.809768	0.254923	0.197124
C116	C	0.716279	0.382889	0.206250
C117	C	0.768111	0.311869	0.253815
H118	H	0.682574	0.428935	0.252064
H119	H	0.752105	0.430248	0.165741
H120	H	0.675744	0.342007	0.165722
H121	H	0.808654	0.352674	0.294388
H122	H	0.732237	0.264511	0.294271
