data_functionalizedCrystal
_audit_creation_method	'MofGen! by Chris Wilmer'
_symmetry_space_group_name_H-M	'P1'
_symmetry_Int_Tables_number	1
_symmetry_cell_setting	triclinic
loop_
_symmetry_equiv_pos_as_xyz
  x,y,z
_cell_length_a	13.032781
_cell_length_b	13.033409
_cell_length_c	17.077396
_cell_angle_alpha	82.826628
_cell_angle_beta	82.846518
_cell_angle_gamma	89.137561
loop_
_atom_site_label
_atom_site_type_symbol
_atom_site_fract_x
_atom_site_fract_y
_atom_site_fract_z
Zn1	Zn	-0.608883	1.520132	0.356583
Zn2	Zn	-0.108883	2.020132	0.856583
Zn3	Zn	-0.780862	1.498175	0.243819
Zn4	Zn	-0.280862	1.998175	0.743819
Zn5	Zn	-0.587102	1.348162	0.239695
Zn6	Zn	-0.087102	1.848162	0.739695
Zn7	Zn	-0.758995	1.326297	0.389389
Zn8	Zn	-0.258995	1.826297	0.889389
O9	O	-0.683961	1.423192	0.307371
O10	O	-0.183961	1.923192	0.807371
O11	O	-0.649963	1.661121	0.329621
O12	O	-0.149963	2.161121	0.829621
O13	O	-0.755196	1.478237	0.133432
O14	O	-0.255196	1.978237	0.633432
O15	O	-0.446080	1.389313	0.239745
O16	O	0.053920	1.889313	0.739745
O17	O	-0.776315	1.644990	0.246773
O18	O	-0.276315	2.144990	0.746773
O19	O	-0.462082	1.515659	0.325622
O20	O	0.037918	2.015659	0.825622
O21	O	-0.612842	1.368023	0.130402
O22	O	-0.112842	1.868023	0.630402
O23	O	-0.591638	1.201360	0.271556
O24	O	-0.091638	1.701360	0.771556
O25	O	-0.739046	1.352048	0.494877
O26	O	-0.239046	1.852048	0.994877
O27	O	-0.717927	1.185296	0.381535
O28	O	-0.217927	1.685296	0.881535
O29	O	-0.628759	1.494458	0.470775
O30	O	-0.128759	1.994458	0.970775
O31	O	-0.921873	1.457036	0.278584
O32	O	-0.421873	1.957036	0.778584
O33	O	-0.905807	1.330758	0.385534
O34	O	-0.405807	1.830758	0.885534
C35	C	-0.650047	1.156016	0.329659
C36	C	-0.150047	1.656016	0.829659
C37	C	-0.635563	1.041713	0.339214
C38	C	-0.135563	1.541713	0.839214
C39	C	-0.676557	0.864644	0.312276
C40	C	-0.176557	1.364644	0.812276
C41	C	-0.691530	0.982781	0.302396
C42	C	-0.191530	1.482781	0.802396
C43	C	-0.951158	1.389170	0.336081
C44	C	-0.451158	1.889170	0.836081
C45	C	-1.065479	1.374709	0.348382
C46	C	-0.565479	1.874709	0.848382
C47	C	-1.242524	1.415855	0.313689
C48	C	-0.742524	1.915855	0.813689
C49	C	-1.124369	1.430803	0.300975
C50	C	-0.624369	1.930803	0.800975
C51	C	-0.415723	1.457374	0.278564
C52	C	0.084277	1.957374	0.778564
C53	C	-0.301416	1.471941	0.266288
C54	C	0.198584	1.971941	0.766288
C55	C	-0.683893	1.423263	0.512102
C56	C	-0.183893	1.923263	1.012102
C57	C	-0.683864	1.423294	0.599347
C58	C	-0.183864	1.923294	1.099347
C59	C	-0.718008	1.691411	0.284998
C60	C	-0.218008	2.191411	0.784998
C61	C	-0.732516	1.805710	0.275463
C62	C	-0.232516	2.305710	0.775463
C63	C	-0.683961	1.423189	0.103424
C64	C	-0.183961	1.923189	0.603424
C65	C	-0.683726	1.423394	0.016132
C66	C	-0.183726	1.923394	0.516132
C67	C	-0.626432	1.497450	0.627787
C68	C	-0.126432	1.997450	1.127787
C69	C	-0.626399	1.497466	0.709763
C70	C	-0.126399	1.997466	1.209763
C71	C	-0.683805	1.423331	0.763297
C72	C	-0.183805	1.923331	1.263297
C73	C	-0.741238	1.349168	0.734852
C74	C	-0.241238	1.849168	1.234852
C75	C	-0.741265	1.349147	0.652877
C76	C	-0.241265	1.849147	1.152877
C77	C	-0.741182	1.349217	0.905712
C78	C	-0.241182	1.849217	1.405712
C79	C	-0.741157	1.349238	0.987692
C80	C	-0.241157	1.849238	1.487692
C81	C	-0.626317	1.497536	0.962597
C82	C	-0.126317	1.997536	1.462597
C83	C	-0.626343	1.497516	0.880623
C84	C	-0.126343	1.997516	1.380623
C85	C	-0.683778	1.423353	0.852183
C86	C	-0.183778	1.923353	1.352183
H87	H	-0.791516	0.842713	0.236637
H88	H	-0.291516	1.342713	0.736637
H89	H	-1.087320	1.489895	0.250980
H90	H	-0.587320	1.989895	0.750980
H91	H	-1.279579	1.356775	0.363685
H92	H	-0.779579	1.856775	0.863685
C93	C	-0.563222	1.579045	0.741043
C94	C	-0.063222	2.079045	1.241043
N95	N	-0.515634	1.640494	0.764601
N96	N	-0.015634	2.140494	1.264601
C97	C	-1.115525	1.294883	0.415928
C98	C	-0.615525	1.794883	0.915928
N99	N	-1.153222	1.234757	0.466802
N100	N	-0.653222	1.734757	0.966802
H101	H	-0.579689	1.557822	0.584204
H102	H	-0.079689	2.057822	1.084204
C103	C	-0.804368	1.267637	0.874431
C104	C	-0.304368	1.767637	1.374431
N105	N	-0.851965	1.206197	0.850870
N106	N	-0.351965	1.706197	1.350870
C107	C	-0.771233	1.032762	0.249931
C108	C	-0.271233	1.532762	0.749931
N109	N	-0.831263	1.070410	0.210414
N110	N	-0.331263	1.570410	0.710414
H111	H	-0.787899	1.288869	1.031278
H112	H	-0.287899	1.788869	1.531278
H113	H	-1.264363	1.531029	0.216297
H114	H	-0.764363	2.031029	0.716297
H115	H	-0.787975	1.288802	0.778446
H116	H	-0.287975	1.788802	1.278446
C117	C	-0.563136	1.579115	0.993882
C118	C	-0.063136	2.079115	1.493882
N119	N	-0.515554	1.640561	1.017450
N120	N	-0.015554	2.140561	1.517450
C121	C	-0.555860	0.991734	0.391681
C122	C	-0.055860	1.491734	0.891681
N123	N	-0.495829	0.954089	0.431198
N124	N	0.004171	1.454089	0.931198
C125	C	-0.804446	1.267572	0.621594
C126	C	-0.304446	1.767572	1.121594
N127	N	-0.852034	1.206125	0.598033
N128	N	-0.352034	1.706125	1.098033
H129	H	-0.579605	1.557888	0.837037
H130	H	-0.079605	2.057888	1.337037
H131	H	-0.617567	0.827639	0.351111
H132	H	-0.117567	1.327639	0.851111
