data_functionalizedCrystal
_audit_creation_method	'MofGen! by Chris Wilmer'
_symmetry_space_group_name_H-M	'P1'
_symmetry_Int_Tables_number	1
_symmetry_cell_setting	triclinic
loop_
_symmetry_equiv_pos_as_xyz
  x,y,z
_cell_length_a	18.215407
_cell_length_b	18.101397
_cell_length_c	18.215399
_cell_angle_alpha	90.031052
_cell_angle_beta	90.016885
_cell_angle_gamma	90.017909
loop_
_atom_site_label
_atom_site_type_symbol
_atom_site_fract_x
_atom_site_fract_y
_atom_site_fract_z
Zn1	Zn	1.125091	-0.294885	0.416054
Zn2	Zn	1.375091	-0.044885	0.666054
Zn3	Zn	1.625091	0.205115	0.916054
Zn4	Zn	1.875091	0.455115	1.166054
Zn5	Zn	1.125010	-0.418732	0.292982
Zn6	Zn	1.375010	-0.168732	0.542982
Zn7	Zn	1.625010	0.081268	0.792982
Zn8	Zn	1.875010	0.331268	1.042982
Zn9	Zn	1.002025	-0.294903	0.293006
Zn10	Zn	1.252025	-0.044903	0.543006
Zn11	Zn	1.502025	0.205097	0.793006
Zn12	Zn	1.752025	0.455097	1.043006
Zn13	Zn	1.001999	-0.418683	0.416012
Zn14	Zn	1.251999	-0.168683	0.666012
Zn15	Zn	1.501999	0.081317	0.916012
Zn16	Zn	1.751999	0.331317	1.166012
O17	O	1.063531	-0.356801	0.354513
O18	O	1.313531	-0.106801	0.604513
O19	O	1.563531	0.143199	0.854513
O20	O	1.813531	0.393199	1.104513
O21	O	1.228065	-0.311326	0.399735
O22	O	1.478065	-0.061326	0.649735
O23	O	1.728065	0.188674	0.899735
O24	O	1.978065	0.438674	1.149735
O25	O	1.108672	-0.402334	0.190001
O26	O	1.358672	-0.152334	0.440001
O27	O	1.608672	0.097666	0.690001
O28	O	1.858672	0.347666	0.940001
O29	O	1.018394	-0.191268	0.309357
O30	O	1.268394	0.058732	0.559357
O31	O	1.518394	0.308732	0.809357
O32	O	1.768394	0.558732	1.059357
O33	O	1.228005	-0.402316	0.309315
O34	O	1.478005	-0.152316	0.559315
O35	O	1.728005	0.097684	0.809315
O36	O	1.978005	0.347684	1.059315
O37	O	1.108811	-0.191254	0.399759
O38	O	1.358811	0.058746	0.649759
O39	O	1.608811	0.308746	0.899759
O40	O	1.858811	0.558746	1.149759
O41	O	1.018316	-0.311358	0.190019
O42	O	1.268316	-0.061358	0.440019
O43	O	1.518316	0.188642	0.690019
O44	O	1.768316	0.438642	0.940019
O45	O	0.899037	-0.311310	0.309316
O46	O	1.149037	-0.061310	0.559316
O47	O	1.399037	0.188690	0.809316
O48	O	1.649037	0.438690	1.059316
O49	O	1.018351	-0.402233	0.519002
O50	O	1.268351	-0.152233	0.769002
O51	O	1.518351	0.097767	1.019002
O52	O	1.768351	0.347767	1.269002
O53	O	0.899018	-0.402251	0.399688
O54	O	1.149018	-0.152251	0.649688
O55	O	1.399018	0.097749	0.899688
O56	O	1.649018	0.347749	1.149688
O57	O	1.108786	-0.311279	0.519032
O58	O	1.358786	-0.061279	0.769032
O59	O	1.608786	0.188721	1.019032
O60	O	1.858786	0.438721	1.269032
O61	O	1.108648	-0.522358	0.309274
O62	O	1.358648	-0.272358	0.559274
O63	O	1.608648	-0.022358	0.809274
O64	O	1.858648	0.227642	1.059274
O65	O	1.018272	-0.522323	0.399664
O66	O	1.268272	-0.272323	0.649664
O67	O	1.518272	-0.022323	0.899664
O68	O	1.768272	0.227677	1.149664
C69	C	0.872325	-0.356778	0.354501
C70	C	1.122325	-0.106778	0.604501
C71	C	1.372325	0.143222	0.854501
C72	C	1.622325	0.393222	1.104501
C73	C	0.790526	-0.356786	0.354512
C74	C	1.040526	-0.106786	0.604512
C75	C	1.290526	0.143214	0.854512
C76	C	1.540526	0.393214	1.104512
C77	C	0.602362	-0.309505	0.401669
C78	C	0.852362	-0.059505	0.651669
C79	C	1.102362	0.190495	0.901669
C80	C	1.352362	0.440495	1.151669
C81	C	0.525503	-0.309511	0.401671
C82	C	0.775503	-0.059511	0.651671
C83	C	1.025503	0.190489	0.901671
C84	C	1.275503	0.440489	1.151671
C85	C	0.525452	-0.404117	0.307371
C86	C	0.775452	-0.154117	0.557371
C87	C	1.025452	0.095883	0.807371
C88	C	1.275452	0.345883	1.057371
C89	C	0.602310	-0.404107	0.307365
C90	C	0.852310	-0.154107	0.557365
C91	C	1.102310	0.095893	0.807365
C92	C	1.352310	0.345893	1.057365
C93	C	0.640762	-0.356802	0.354518
C94	C	0.890762	-0.106802	0.604518
C95	C	1.140762	0.143198	0.854518
C96	C	1.390762	0.393198	1.104518
C97	C	0.487046	-0.356819	0.354527
C98	C	0.737046	-0.106819	0.604527
C99	C	0.987046	0.143181	0.854527
C100	C	1.237046	0.393181	1.104527
C101	C	0.403713	-0.356826	0.354529
C102	C	0.653713	-0.106826	0.604529
C103	C	0.903713	0.143174	0.854529
C104	C	1.153713	0.393174	1.104529
C105	C	0.724101	-0.356793	0.354515
C106	C	0.974101	-0.106793	0.604515
C107	C	1.224101	0.143207	0.854515
C108	C	1.474101	0.393207	1.104515
C109	C	1.063468	-0.549211	0.354478
C110	C	1.313468	-0.299211	0.604478
C111	C	1.563468	-0.049211	0.854478
C112	C	1.813468	0.200789	1.104478
C113	C	1.063509	-0.631525	0.354487
C114	C	1.313509	-0.381525	0.604487
C115	C	1.563509	-0.131525	0.854487
C116	C	1.813509	0.118475	1.104487
C117	C	1.063602	-0.930616	0.354554
C118	C	1.313602	-0.680616	0.604554
C119	C	1.563602	-0.430616	0.854554
C120	C	1.813602	-0.180616	1.104554
C121	C	1.120306	-0.899283	0.297531
C122	C	1.370306	-0.649283	0.547531
C123	C	1.620306	-0.399283	0.797531
C124	C	1.870306	-0.149283	1.047531
C125	C	1.120502	-0.813664	0.297679
C126	C	1.370502	-0.563664	0.547679
C127	C	1.620502	-0.313664	0.797679
C128	C	1.870502	-0.063664	1.047679
C129	C	1.063556	-0.782234	0.354520
C130	C	1.313556	-0.532234	0.604520
C131	C	1.563556	-0.282234	0.854520
C132	C	1.813556	-0.032234	1.104520
C133	C	1.084580	-0.813241	0.432092
C134	C	1.334580	-0.563241	0.682092
C135	C	1.584580	-0.313241	0.932092
C136	C	1.834580	-0.063241	1.182092
C137	C	1.085018	-0.898886	0.431781
C138	C	1.335018	-0.648886	0.681781
C139	C	1.585018	-0.398886	0.931781
C140	C	1.835018	-0.148886	1.181781
C141	C	0.985724	-0.899122	0.334677
C142	C	1.235724	-0.649122	0.584677
C143	C	1.485724	-0.399122	0.834677
C144	C	1.735724	-0.149122	1.084677
C145	C	0.986109	-0.813473	0.332946
C146	C	1.236109	-0.563473	0.582946
C147	C	1.486109	-0.313473	0.832946
C148	C	1.736109	-0.063473	1.082946
C149	C	1.063528	-0.698374	0.354506
C150	C	1.313528	-0.448374	0.604506
C151	C	1.563528	-0.198374	0.854506
C152	C	1.813528	0.051626	1.104506
C153	C	1.063632	-1.014476	0.354574
C154	C	1.313632	-0.764476	0.604574
C155	C	1.563632	-0.514476	0.854574
C156	C	1.813632	-0.264476	1.104574
C157	C	1.255484	-0.356824	0.354527
C158	C	1.505484	-0.106824	0.604527
C159	C	1.755484	0.143176	0.854527
C160	C	2.005484	0.393176	1.104527
C161	C	1.337283	-0.356834	0.354532
C162	C	1.587283	-0.106834	0.604532
C163	C	1.837283	0.143166	0.854532
C164	C	2.087283	0.393166	1.104532
C165	C	1.063574	-0.356748	0.546466
C166	C	1.313574	-0.106748	0.796466
C167	C	1.563574	0.143252	1.046466
C168	C	1.813574	0.393252	1.296466
C169	C	1.063593	-0.356726	0.628265
C170	C	1.313593	-0.106726	0.878265
C171	C	1.563593	0.143274	1.128265
C172	C	1.813593	0.393274	1.378265
C173	C	1.063614	-0.163639	0.354565
C174	C	1.313614	0.086361	0.604565
C175	C	1.563614	0.336361	0.854565
C176	C	1.813614	0.586361	1.104565
C177	C	1.063650	-0.081325	0.354587
C178	C	1.313650	0.168675	0.604587
C179	C	1.563650	0.418675	0.854587
C180	C	1.813650	0.668675	1.104587
C181	C	1.063530	-0.356800	0.163307
C182	C	1.313530	-0.106800	0.413307
C183	C	1.563530	0.143200	0.663307
C184	C	1.813530	0.393200	0.913307
C185	C	1.063655	-0.356613	0.081509
C186	C	1.313655	-0.106613	0.331509
C187	C	1.563655	0.143387	0.581509
C188	C	1.813655	0.393387	0.831509
C189	C	1.110710	-0.309302	0.893340
C190	C	1.360710	-0.059302	1.143340
C191	C	1.610710	0.190698	1.393340
C192	C	1.860710	0.440698	1.643340
C193	C	1.110701	-0.309322	0.816481
C194	C	1.360701	-0.059322	1.066481
C195	C	1.610701	0.190678	1.316481
C196	C	1.860701	0.440678	1.566481
C197	C	1.016536	-0.404042	0.816439
C198	C	1.266536	-0.154042	1.066439
C199	C	1.516536	0.095958	1.316439
C200	C	1.766536	0.345958	1.566439
C201	C	1.016549	-0.404026	0.893297
C202	C	1.266549	-0.154026	1.143297
C203	C	1.516549	0.095974	1.393297
C204	C	1.766549	0.345974	1.643297
C205	C	1.063634	-0.356651	0.931745
C206	C	1.313634	-0.106651	1.181745
C207	C	1.563634	0.143349	1.431745
C208	C	1.813634	0.393349	1.681745
C209	C	1.063613	-0.356688	0.778029
C210	C	1.313613	-0.106688	1.028029
C211	C	1.563613	0.143312	1.278029
C212	C	1.813613	0.393312	1.528029
C213	C	1.063603	-0.356710	0.694695
C214	C	1.313603	-0.106710	0.944695
C215	C	1.563603	0.143290	1.194695
C216	C	1.813603	0.393290	1.444695
C217	C	1.063645	-0.356630	1.015084
C218	C	1.313645	-0.106630	1.265084
C219	C	1.563645	0.143370	1.515084
C220	C	1.813645	0.393370	1.765084
H221	H	1.107349	-0.792703	0.240161
H222	H	1.357349	-0.542703	0.490161
H223	H	1.607349	-0.292703	0.740161
H224	H	1.857349	-0.042703	0.990161
Br225	Br	1.179897	-0.932094	0.459844
Br226	Br	1.429897	-0.682094	0.709844
Br227	Br	1.679897	-0.432094	0.959844
Br228	Br	1.929897	-0.182094	1.209844
Br229	Br	0.915307	-0.932895	0.403899
Br230	Br	1.165307	-0.682895	0.653899
Br231	Br	1.415307	-0.432895	0.903899
Br232	Br	1.665307	-0.182895	1.153899
H233	H	1.149035	-0.270767	0.785216
H234	H	1.399035	-0.020767	1.035216
H235	H	1.649035	0.229233	1.285216
H236	H	1.899035	0.479233	1.535216
H237	H	1.149049	-0.270726	0.924643
H238	H	1.399049	-0.020726	1.174643
H239	H	1.649049	0.229274	1.424643
H240	H	1.899049	0.479274	1.674643
Br241	Br	0.952633	-0.468329	0.764254
Br242	Br	1.202633	-0.218329	1.014254
Br243	Br	1.452633	0.031671	1.264254
Br244	Br	1.702633	0.281671	1.514254
Br245	Br	0.654546	-0.245304	0.465660
Br246	Br	0.904546	0.004696	0.715660
Br247	Br	1.154546	0.254696	0.965660
Br248	Br	1.404546	0.504696	1.215660
H249	H	0.978214	-0.442587	0.924567
H250	H	1.228214	-0.192587	1.174567
H251	H	1.478214	0.057413	1.424567
H252	H	1.728214	0.307413	1.674567
H253	H	0.494241	-0.270997	0.440065
H254	H	0.744241	-0.020997	0.690065
H255	H	0.994241	0.229003	0.940065
H256	H	1.244241	0.479003	1.190065
H257	H	0.970256	-0.793214	0.275860
H258	H	1.220256	-0.543214	0.525860
H259	H	1.470256	-0.293214	0.775860
H260	H	1.720256	-0.043214	1.025860
Br261	Br	1.017843	-0.779319	0.504812
Br262	Br	1.267843	-0.529319	0.754812
Br263	Br	1.517843	-0.279319	1.004812
Br264	Br	1.767843	-0.029319	1.254812
Br265	Br	0.911900	-0.777827	0.397100
Br266	Br	1.161900	-0.527827	0.647100
Br267	Br	1.411900	-0.277827	0.897100
Br268	Br	1.661900	-0.027827	1.147100
Br269	Br	0.473262	-0.468315	0.243382
Br270	Br	0.723262	-0.218315	0.493382
Br271	Br	0.973262	0.031685	0.743382
Br272	Br	1.223262	0.281685	0.993382
Br273	Br	1.098655	-0.933691	0.201372
Br274	Br	1.348655	-0.683691	0.451372
Br275	Br	1.598655	-0.433691	0.701372
Br276	Br	1.848655	-0.183691	0.951372
Br277	Br	0.654429	-0.468289	0.243360
Br278	Br	0.904429	-0.218289	0.493360
Br279	Br	1.154429	0.031711	0.743360
Br280	Br	1.404429	0.281711	0.993360
H281	H	1.178190	-0.793123	0.310830
H282	H	1.428190	-0.543123	0.560830
H283	H	1.678190	-0.293123	0.810830
H284	H	1.928190	-0.043123	1.060830
Br285	Br	1.215933	-0.935064	0.319195
Br286	Br	1.465933	-0.685064	0.569195
Br287	Br	1.715933	-0.435064	0.819195
Br288	Br	1.965933	-0.185064	1.069195
H289	H	1.045527	-0.919611	0.475732
H290	H	1.295527	-0.669611	0.725732
H291	H	1.545527	-0.419611	0.975732
H292	H	1.795527	-0.169611	1.225732
Br293	Br	1.178397	-0.777401	0.460634
Br294	Br	1.428397	-0.527401	0.710634
Br295	Br	1.678397	-0.277401	0.960634
Br296	Br	1.928397	-0.027401	1.210634
H297	H	0.966598	-0.920782	0.279094
H298	H	1.216598	-0.670782	0.529094
H299	H	1.466598	-0.420782	0.779094
H300	H	1.716598	-0.170782	1.029094
