data_functionalizedCrystal
_audit_creation_method	'MofGen! by Chris Wilmer'
_symmetry_space_group_name_H-M	'P1'
_symmetry_Int_Tables_number	1
_symmetry_cell_setting	triclinic
loop_
_symmetry_equiv_pos_as_xyz
  x,y,z
_cell_length_a	18.215405
_cell_length_b	11.169417
_cell_length_c	11.169409
_cell_angle_alpha	90.019513
_cell_angle_beta	90.039798
_cell_angle_gamma	90.026135
loop_
_atom_site_label
_atom_site_type_symbol
_atom_site_fract_x
_atom_site_fract_y
_atom_site_fract_z
Zn1	Zn	-0.292900	1.834841	0.678471
Zn2	Zn	0.207100	2.334841	1.178471
Zn3	Zn	-0.415991	1.834679	0.477761
Zn4	Zn	0.084009	2.334679	0.977761
Zn5	Zn	-0.292946	1.634127	0.477806
Zn6	Zn	0.207054	2.134127	0.977806
Zn7	Zn	-0.415932	1.634083	0.678407
Zn8	Zn	0.084068	2.134083	1.178407
O9	O	-0.354442	1.734433	0.578111
O10	O	0.145558	2.234433	1.078111
O11	O	-0.309234	2.002769	0.651854
O12	O	0.190766	2.502769	1.151854
O13	O	-0.399713	1.808026	0.309817
O14	O	0.100287	2.308026	0.809817
O15	O	-0.189955	1.660838	0.504470
O16	O	0.310045	2.160838	1.004470
O17	O	-0.399669	2.002651	0.504394
O18	O	0.100331	2.502651	1.004394
O19	O	-0.189922	1.808302	0.651897
O20	O	0.310078	2.308302	1.151897
O21	O	-0.309312	1.660681	0.309850
O22	O	0.190688	2.160681	0.809850
O23	O	-0.309255	1.466171	0.504408
O24	O	0.190745	1.966171	1.004408
O25	O	-0.399568	1.660764	0.846365
O26	O	0.100432	2.160764	1.346365
O27	O	-0.399612	1.466140	0.651789
O28	O	0.100388	1.966140	1.151789
O29	O	-0.309177	1.808260	0.846412
O30	O	0.190823	2.308260	1.346412
O31	O	-0.518968	1.807984	0.504332
O32	O	-0.018968	2.307984	1.004332
O33	O	-0.518924	1.660607	0.651746
O34	O	-0.018924	2.160607	1.151746
C35	C	-0.354432	1.422608	0.578098
C36	C	0.145568	1.922608	1.078098
C37	C	-0.354446	1.289208	0.578120
C38	C	0.145554	1.789208	1.078120
C39	C	-0.545649	1.734306	0.578054
C40	C	-0.045649	2.234306	1.078054
C41	C	-0.627448	1.734362	0.578069
C42	C	-0.127448	2.234362	1.078069
C43	C	-0.815640	1.811281	0.501452
C44	C	-0.315640	2.311281	1.001452
C45	C	-0.892498	1.811335	0.501481
C46	C	-0.392498	2.311335	1.001481
C47	C	-0.892493	1.657738	0.654857
C48	C	-0.392493	2.157738	1.154857
C49	C	-0.815636	1.657691	0.654833
C50	C	-0.315636	2.157691	1.154833
C51	C	-0.777211	1.734461	0.578124
C52	C	-0.277211	2.234461	1.078124
C53	C	-0.930927	1.734561	0.578177
C54	C	-0.430927	2.234561	1.078177
C55	C	-1.014261	1.734619	0.578209
C56	C	-0.514261	2.234619	1.078209
C57	C	-0.693872	1.734405	0.578093
C58	C	-0.193872	2.234405	1.078093
C59	C	-0.162489	1.734593	0.578195
C60	C	0.337511	2.234593	1.078195
C61	C	-0.080690	1.734661	0.578231
C62	C	0.419310	2.234661	1.078231
C63	C	-0.354361	1.734525	0.891154
C64	C	0.145639	2.234525	1.391154
C65	C	-0.354326	1.734564	1.024554
C66	C	0.145674	2.234564	1.524554
C67	C	-0.354453	2.047475	0.578126
C68	C	0.145547	2.547475	1.078126
C69	C	-0.354457	2.180875	0.578132
C70	C	0.145543	2.680875	1.078132
C71	C	-0.354471	1.734410	0.266287
C72	C	0.145529	2.234410	0.766287
C73	C	-0.354298	1.734603	0.132887
C74	C	0.145702	2.234603	0.632887
H75	H	-0.923783	1.873891	0.439049
H76	H	-0.423783	2.373891	0.939049
O77	O	-0.929934	1.583198	0.729247
O78	O	-0.429934	2.083198	1.229247
C79	C	-1.048334	1.515240	0.797303
C80	C	-0.548334	2.015240	1.297303
C81	C	-1.006027	1.599702	0.712978
C82	C	-0.506027	2.099702	1.212978
H83	H	-1.109862	1.528572	0.784197
H84	H	-0.609862	2.028572	1.284197
H85	H	-1.033336	1.418442	0.776131
H86	H	-0.533336	1.918442	1.276131
H87	H	-1.033117	1.536237	0.894081
H88	H	-0.533117	2.036237	1.394081
H89	H	-1.021221	1.578813	0.616172
H90	H	-0.521221	2.078813	1.116172
H91	H	-1.021028	1.696476	0.734253
H92	H	-0.521028	2.196476	1.234253
H93	H	-0.784345	1.595135	0.717274
H94	H	-0.284345	2.095135	1.217274
H95	H	-0.784356	1.873793	0.438992
H96	H	-0.284356	2.373793	0.938992
