data_functionalizedCrystal
_audit_creation_method	'MofGen! by Chris Wilmer'
_symmetry_space_group_name_H-M	'P1'
_symmetry_Int_Tables_number	1
_symmetry_cell_setting	triclinic
loop_
_symmetry_equiv_pos_as_xyz
  x,y,z
_cell_length_a	18.101398
_cell_length_b	18.101397
_cell_length_c	12.759393
_cell_angle_alpha	89.963423
_cell_angle_beta	89.971456
_cell_angle_gamma	90.018196
loop_
_atom_site_label
_atom_site_type_symbol
_atom_site_fract_x
_atom_site_fract_y
_atom_site_fract_z
Zn1	Zn	1.132203	-0.294839	-0.594189
Zn2	Zn	1.132114	-0.418698	-0.418490
Zn3	Zn	1.008354	-0.294870	-0.418501
Zn4	Zn	1.008336	-0.418638	-0.594104
O5	O	1.070252	-0.356761	-0.506321
O6	O	1.235824	-0.311281	-0.570913
O7	O	1.115667	-0.402310	-0.271471
O8	O	1.024828	-0.191233	-0.441846
O9	O	1.235759	-0.402280	-0.441828
O10	O	1.115819	-0.191210	-0.570923
O11	O	1.024741	-0.311334	-0.271478
O12	O	0.904719	-0.311276	-0.441764
O13	O	1.024797	-0.402177	-0.741137
O14	O	0.904705	-0.402208	-0.570779
O15	O	1.115802	-0.311223	-0.741199
O16	O	1.115650	-0.522323	-0.441746
O17	O	1.024710	-0.522279	-0.570769
C18	C	0.877841	-0.356739	-0.506264
C19	C	0.795527	-0.356748	-0.506264
C20	C	0.644819	-0.356763	-0.506312
C21	C	0.613449	-0.299469	-0.425274
C22	C	0.527830	-0.299253	-0.425540
C23	C	0.496436	-0.356778	-0.506356
C24	C	0.527577	-0.335937	-0.617206
C25	C	0.613222	-0.335513	-0.616711
C26	C	0.613228	-0.435045	-0.477477
C27	C	0.527577	-0.434633	-0.475062
C28	C	0.412577	-0.356787	-0.506388
C29	C	0.728678	-0.356751	-0.506287
C30	C	1.070188	-0.549172	-0.506270
C31	C	1.070229	-0.631486	-0.506283
C32	C	1.070324	-0.930577	-0.506379
C33	C	1.127380	-0.899248	-0.424984
C34	C	1.127578	-0.813630	-0.425195
C35	C	1.070277	-0.782194	-0.506331
C36	C	1.091438	-0.813194	-0.617076
C37	C	1.091879	-0.898839	-0.616633
C38	C	0.991953	-0.899084	-0.477987
C39	C	0.992340	-0.813435	-0.475515
C40	C	1.070249	-0.698335	-0.506310
C41	C	1.070353	-1.014436	-0.506407
C42	C	1.263414	-0.356783	-0.506379
C43	C	1.345728	-0.356793	-0.506404
C44	C	1.070307	-0.356690	-0.780355
C45	C	1.070331	-0.356660	-0.897131
C46	C	1.070336	-0.163599	-0.506395
C47	C	1.070371	-0.081285	-0.506427
C48	C	1.117720	-0.309292	-0.952027
C49	C	1.117733	-0.309260	-1.061751
C50	C	1.022964	-0.403970	-1.061674
C51	C	1.022948	-0.403997	-0.951952
C52	C	1.144254	-0.221887	-1.211748
C53	C	1.191655	-0.174525	-1.266647
C54	C	1.263916	-0.163174	-1.231071
C55	C	1.288790	-0.199195	-1.140597
C56	C	1.241393	-0.246561	-1.085703
C57	C	1.169122	-0.257899	-1.121278
C58	C	0.996435	-0.491372	-0.801954
C59	C	0.949041	-0.538743	-0.747057
C60	C	0.876779	-0.550102	-0.782631
C61	C	0.851907	-0.514094	-0.873109
C62	C	0.899301	-0.466723	-0.928005
C63	C	0.971563	-0.455363	-0.892423
C64	C	1.070239	-0.356778	-0.233354
C65	C	1.070359	-0.356600	-0.116578
H66	H	0.506200	-0.479584	-0.529742
H67	H	0.793066	-0.523345	-0.902077
H68	H	1.052142	-0.919559	-0.679369
H69	H	0.507220	-0.450353	-0.393481
H70	H	1.051151	-0.792828	-0.679353
N71	N	0.502085	-0.386694	-0.695054
N72	N	0.517125	-0.453867	-0.687307
H73	H	0.499121	-0.489716	-0.742286
H74	H	1.114339	-0.792674	-0.343079
N75	N	1.266777	-0.283351	-0.993282
N76	N	1.224447	-0.325632	-0.944272
H77	H	1.242373	-0.351612	-0.878993
H78	H	0.949442	-0.919344	-0.537271
H79	H	0.633513	-0.477728	-0.536501
N80	N	0.638325	-0.263743	-0.647265
N81	N	0.705996	-0.250451	-0.652418
H82	H	0.723723	-0.199761	-0.673994
N83	N	1.162491	-0.786210	-0.647772
N84	N	1.173260	-0.718269	-0.656460
H85	H	1.223442	-0.699211	-0.678136
H86	H	1.156300	-0.270744	-0.907396
N87	N	0.972328	-0.788013	-0.373281
N88	N	0.966913	-0.720309	-0.355672
H89	H	0.952782	-0.702349	-0.283468
N90	N	0.500687	-0.264965	-0.648334
N91	N	0.432764	-0.254207	-0.657125
H92	H	0.413773	-0.204082	-0.679105
N93	N	1.362613	-0.187603	-1.104285
N94	N	1.404924	-0.145312	-1.153309
H95	H	1.457063	-0.137123	-1.127662
N96	N	1.166185	-0.137681	-1.358984
N97	N	1.165513	-0.068677	-1.362679
H98	H	1.147507	-0.042643	-1.427870
H99	H	0.634789	-0.454075	-0.397995
N100	N	1.110975	-0.925150	-0.321659
N101	N	1.049985	-0.910579	-0.280613
H102	H	1.038396	-0.928876	-0.207637
H103	H	0.879045	-0.437404	-1.001677
H104	H	0.506772	-0.312256	-0.343360
H105	H	0.969300	-0.568069	-0.673393
N106	N	0.828378	-0.598500	-0.726551
N107	N	0.850591	-0.630655	-0.645777
H108	H	0.816407	-0.664834	-0.606171
H109	H	1.302510	-0.124611	-1.275779
H110	H	1.085412	-0.231119	-1.240717
H111	H	1.185115	-0.920717	-0.443554
H112	H	0.984389	-0.442512	-1.106322
N113	N	0.502125	-0.226497	-0.449552
N114	N	0.462517	-0.192516	-0.385415
H115	H	0.444360	-0.141129	-0.402377
H116	H	0.633978	-0.375446	-0.679182
N117	N	1.070246	-0.479767	-0.765590
N118	N	1.092444	-0.511924	-0.684809
H119	H	1.144573	-0.503730	-0.659124
H120	H	1.185630	-0.793087	-0.443981
H121	H	0.633988	-0.312324	-0.342821
N122	N	1.163744	-0.923822	-0.646804
N123	N	1.213225	-0.878005	-0.668038
H124	H	1.263982	-0.895645	-0.689346
H125	H	0.972703	-0.920750	-0.398632
N126	N	0.936145	-0.786595	-0.544443
N127	N	0.952695	-0.743817	-0.617731
H128	H	0.913009	-0.724862	-0.666421
H129	H	0.634986	-0.241791	-0.444173
