data_functionalizedCrystal
_audit_creation_method	'MofGen! by Chris Wilmer'
_symmetry_space_group_name_H-M	'P1'
_symmetry_Int_Tables_number	1
_symmetry_cell_setting	triclinic
loop_
_symmetry_equiv_pos_as_xyz
  x,y,z
_cell_length_a	19.377372
_cell_length_b	16.704486
_cell_length_c	16.704493
_cell_angle_alpha	60.347015
_cell_angle_beta	94.030349
_cell_angle_gamma	69.248538
loop_
_atom_site_label
_atom_site_type_symbol
_atom_site_fract_x
_atom_site_fract_y
_atom_site_fract_z
Zr1	Zr	0.500592	1.169784	-0.293528
O2	O	0.390862	1.301671	-0.408709
O3	O	0.541309	1.007261	-0.250787
O4	O	0.522277	1.179413	-0.426856
O5	O	0.416854	1.132607	-0.102208
O6	O	0.617888	1.221858	-0.449625
O7	O	0.409893	1.129519	-0.232640
O8	O	0.651932	0.913909	-0.134669
O9	O	0.382810	1.440556	-0.417163
O10	O	0.621475	1.117132	-0.258529
O11	O	0.555316	1.087760	-0.144197
O12	O	0.532909	1.290447	-0.351496
O13	O	0.466751	1.261076	-0.237164
Zr14	Zr	0.664181	1.242405	-0.121817
Zr15	Zr	0.653080	1.237480	-0.329841
Zr16	Zr	0.511693	1.174709	-0.085503
Zr17	Zr	0.487750	1.391289	-0.307011
Zr18	Zr	0.677023	1.020900	-0.108334
O19	O	0.623465	1.404928	-0.164558
O20	O	0.607681	1.397925	-0.460342
O21	O	0.406646	1.308674	-0.112925
O22	O	0.773911	1.110518	-0.006635
O23	O	0.758127	1.103515	-0.302420
O24	O	0.557093	1.014264	0.044997
O25	O	0.747920	1.279582	-0.313137
O26	O	0.642496	1.232776	0.011512
O27	O	0.546885	1.190331	0.034280
O28	O	0.754880	1.282670	-0.182705
O29	O	0.504018	1.494365	-0.446027
O30	O	0.660755	0.917824	0.030683
O31	O	0.781963	0.971633	0.001818
O32	O	0.773139	0.967718	-0.163534
O33	O	0.391634	1.444471	-0.251811
O34	O	0.512842	1.498280	-0.280675
O35	O	0.631864	1.121741	-0.063849
O36	O	0.698023	1.151113	-0.178181
O37	O	0.609457	1.324429	-0.271148
O38	O	0.543298	1.295057	-0.156815
C39	C	0.598450	0.929025	-0.190807
C40	C	0.603901	0.834990	-0.185083
C41	C	0.492251	0.761162	-0.302298
C42	C	0.497370	0.672811	-0.296925
C43	C	0.619260	0.569939	-0.168969
C44	C	0.614141	0.658289	-0.174342
C45	C	0.550634	0.753900	-0.241008
C46	C	0.545513	0.842250	-0.246376
C47	C	0.667405	0.739378	-0.118425
C48	C	0.672524	0.651027	-0.113052
C49	C	0.391647	1.121418	-0.162250
C50	C	0.326912	1.092679	-0.146834
C51	C	-0.117140	1.450495	-0.338771
C52	C	-0.177957	1.423467	-0.324272
C53	C	-0.085492	1.242539	-0.227222
C54	C	-0.024666	1.269552	-0.241710
C55	C	-0.040497	1.373532	-0.297486
C56	C	0.051978	1.192589	-0.200424
C57	C	0.112798	1.219600	-0.214915
C58	C	0.096974	1.323574	-0.270691
C59	C	0.020323	1.400543	-0.311977
C60	C	0.067807	1.088609	-0.144654
C61	C	0.144450	1.011646	-0.103368
C62	C	0.205272	1.038657	-0.117853
C63	C	0.189449	1.142631	-0.173629
C64	C	0.281923	0.961688	-0.076567
C65	C	0.342743	0.988700	-0.091058
C66	C	0.250269	1.169642	-0.188120
C67	C	0.773126	1.290771	-0.253095
C68	C	0.837861	1.319510	-0.268511
C69	C	0.568501	1.199934	-0.467880
C70	C	0.563788	1.197843	-0.556192
C71	C	0.566324	1.483164	-0.224538
C72	C	0.560872	1.577198	-0.230261
C73	C	0.660300	1.240668	-0.747221
C74	C	0.655875	1.238705	-0.830198
C75	C	0.550517	1.191946	-0.805122
C76	C	0.554942	1.193909	-0.722145
C77	C	0.609835	1.218273	-0.693198
C78	C	0.614256	1.220243	-0.610223
C79	C	0.508902	1.173477	-0.585144
C80	C	0.504477	1.171514	-0.668122
C81	C	0.596272	1.212255	0.052535
C82	C	0.600985	1.214346	0.140847
C83	C	0.789189	1.013702	-0.236230
C84	C	0.859376	0.948406	-0.245922
C85	C	0.612335	0.935186	0.069400
C86	C	0.622500	0.843242	0.163436
C87	C	0.803075	1.019863	0.023978
C88	C	0.877974	0.956657	0.102598
C89	C	0.361699	1.392326	-0.439323
C90	C	0.286799	1.455532	-0.517942
C91	C	0.375584	1.398487	-0.179115
C92	C	0.305397	1.463783	-0.169423
C93	C	0.552438	1.477003	-0.484745
C94	C	0.542274	1.568947	-0.578781
C95	C	0.852379	0.900004	-0.292423
C96	C	0.918319	0.838660	-0.301548
C97	C	0.991257	0.825714	-0.264166
C98	C	0.998252	0.874124	-0.217663
C99	C	0.932312	0.935472	-0.208545
C100	C	0.667230	0.817802	0.249546
C101	C	0.676778	0.731422	0.337910
C102	C	0.641599	0.670480	0.340162
C103	C	0.596862	0.695926	0.254043
C104	C	0.587311	0.782308	0.165681
C105	C	0.947688	0.942310	0.079837
C106	C	1.018069	0.882936	0.153698
C107	C	1.018734	0.837905	0.250321
C108	C	0.949012	0.852258	0.273081
C109	C	0.878633	0.911636	0.199220
C110	C	0.217084	1.469890	-0.495182
C111	C	0.146702	1.529291	-0.569045
C112	C	0.146037	1.574327	-0.665668
C113	C	0.215759	1.559968	-0.688428
C114	C	0.286139	1.500574	-0.614566
C115	C	0.312393	1.512194	-0.122931
C116	C	0.246450	1.573562	-0.113830
C117	C	0.173513	1.586511	-0.151216
C118	C	0.166518	1.538097	-0.197714
C119	C	0.232460	1.476737	-0.206820
C120	C	0.577464	1.629866	-0.581001
C121	C	0.567928	1.716251	-0.669353
C122	C	0.523198	1.741721	-0.755482
C123	C	0.488007	1.680793	-0.753258
C124	C	0.497548	1.594405	-0.664909
H125	H	0.449830	0.678733	-0.346835
Br126	Br	0.067525	1.555678	-0.248443
Br127	Br	0.411372	1.494640	-0.072188
H128	H	0.670971	0.492084	-0.114704
H129	H	0.649382	0.600144	0.412119
Br130	Br	0.222951	1.411036	-0.269916
Br131	Br	0.549124	0.613206	0.257116
Br132	Br	1.097245	0.856540	-0.166932
Br133	Br	0.638173	1.595323	-0.464125
Br134	Br	0.449776	1.511744	-0.661911
Br135	Br	0.941822	1.001150	-0.145425
Br136	Br	0.949928	0.791137	0.404217
H137	H	0.724231	0.573172	-0.058777
H138	H	0.714942	0.733469	-0.068513
H139	H	0.658950	1.240085	-0.586658
Br140	Br	0.510257	1.858968	-0.875378
Br141	Br	0.714987	0.900490	0.246516
H142	H	0.451588	1.701544	-0.823396
H143	H	0.596585	1.765851	-0.671144
Br144	Br	0.228791	1.310760	-0.263802
Br145	Br	0.784025	0.931093	0.230128
H146	H	0.493796	0.920095	-0.300649
H147	H	0.146500	1.345564	-0.282490
Br148	Br	0.908808	0.772970	-0.364658
H149	H	0.405152	0.926029	-0.057423
Br150	Br	1.114257	0.757322	0.350551
H151	H	1.044944	0.775757	-0.271597
H152	H	0.713208	0.710717	0.408022
H153	H	0.440531	0.839006	-0.356562
Br154	Br	0.526603	0.816817	0.048822
Br155	Br	0.946807	1.003420	-0.051287
H156	H	1.074833	0.871258	0.135149
H157	H	0.217612	1.433220	-0.416512
H158	H	0.089939	1.540968	-0.550495
H159	H	0.007432	1.485214	-0.357367
Br160	Br	0.440404	1.143095	-0.511827
H161	H	0.088723	1.622686	-0.725802
H162	H	0.704991	1.260516	-0.723658
H163	H	0.342902	1.488885	-0.633109
Br164	Br	0.255962	1.639252	-0.050720
Br165	Br	0.084027	1.669790	-0.138848
Br166	Br	-0.138618	1.591612	-0.414454
Br167	Br	-0.281979	1.527929	-0.380323
H168	H	0.792994	0.910544	-0.322878
H169	H	0.215207	1.596644	-0.767107
H170	H	-0.072612	1.157879	-0.181812
H171	H	0.018280	1.066621	-0.132864
H172	H	0.157330	0.926986	-0.057958
H173	H	0.294801	0.877029	-0.031162
H174	H	0.505830	1.172100	-0.828697
Br175	Br	0.429987	1.138443	-0.707409
Br176	Br	0.724370	1.269093	-0.903510
