data_functionalizedCrystal
_audit_creation_method	'MofGen! by Chris Wilmer'
_symmetry_space_group_name_H-M	'P1'
_symmetry_Int_Tables_number	1
_symmetry_cell_setting	triclinic
loop_
_symmetry_equiv_pos_as_xyz
  x,y,z
_cell_length_a	15.995343
_cell_length_b	15.995292
_cell_length_c	15.186229
_cell_angle_alpha	89.999448
_cell_angle_beta	90.000963
_cell_angle_gamma	83.478900
loop_
_atom_site_label
_atom_site_type_symbol
_atom_site_fract_x
_atom_site_fract_y
_atom_site_fract_z
O1	O	1.110966	0.107897	-0.073134
O2	O	1.360966	0.357897	0.176866
O3	O	1.610966	0.607897	0.426866
O4	O	1.860966	0.857897	0.676866
O5	O	0.867187	0.121232	-0.073154
O6	O	1.117187	0.371232	0.176846
O7	O	1.367187	0.621232	0.426846
O8	O	1.617187	0.871232	0.676846
O9	O	0.995766	-0.007326	-0.073145
O10	O	1.245766	0.242674	0.176855
O11	O	1.495766	0.492674	0.426855
O12	O	1.745766	0.742674	0.676855
O13	O	0.982387	0.236456	-0.073143
O14	O	1.232387	0.486456	0.176857
O15	O	1.482387	0.736456	0.426857
O16	O	1.732387	0.986456	0.676857
O17	O	0.995757	-0.007328	0.073312
O18	O	1.245757	0.242672	0.323312
O19	O	1.495757	0.492672	0.573312
O20	O	1.745757	0.742672	0.823312
O21	O	0.867178	0.121230	0.073303
O22	O	1.117178	0.371230	0.323303
O23	O	1.367178	0.621230	0.573303
O24	O	1.617178	0.871230	0.823303
O25	O	1.110957	0.107896	0.073323
O26	O	1.360957	0.357896	0.323323
O27	O	1.610957	0.607896	0.573323
O28	O	1.860957	0.857896	0.823323
Zn29	Zn	0.989066	0.114563	0.096566
Zn30	Zn	1.239066	0.364563	0.346566
Zn31	Zn	1.489066	0.614563	0.596566
Zn32	Zn	1.739066	0.864563	0.846566
Zn33	Zn	0.989078	0.114565	-0.096397
Zn34	Zn	1.239078	0.364565	0.153603
Zn35	Zn	1.489078	0.614565	0.403603
Zn36	Zn	1.739078	0.864565	0.653603
O37	O	0.982379	0.236454	0.073314
O38	O	1.232379	0.486454	0.323314
O39	O	1.482379	0.736454	0.573314
O40	O	1.732379	0.986454	0.823314
C41	C	0.835988	0.120681	0.000072
C42	C	1.085988	0.370681	0.250072
C43	C	1.335988	0.620681	0.500072
C44	C	1.585988	0.870681	0.750072
C45	C	0.743037	0.119032	0.000064
C46	C	0.993037	0.369032	0.250064
C47	C	1.243037	0.619032	0.500064
C48	C	1.493037	0.869032	0.750064
C49	C	0.995217	-0.038523	0.000082
C50	C	1.245217	0.211477	0.250082
C51	C	1.495217	0.461477	0.500082
C52	C	1.745217	0.711477	0.750082
C53	C	0.993584	-0.131476	0.000075
C54	C	1.243584	0.118524	0.250075
C55	C	1.493584	0.368524	0.500075
C56	C	1.743584	0.618524	0.750075
C57	C	0.572852	0.116038	0.000075
C58	C	0.822852	0.366038	0.250075
C59	C	1.072852	0.616038	0.500075
C60	C	1.322852	0.866038	0.750075
C61	C	0.549525	0.023238	0.000075
C62	C	0.799525	0.273238	0.250075
C63	C	1.049525	0.523238	0.500075
C64	C	1.299525	0.773238	0.750075
C65	C	0.452848	0.021493	0.000412
C66	C	0.702848	0.271493	0.250412
C67	C	0.952848	0.521493	0.500412
C68	C	1.202848	0.771493	0.750412
C69	C	0.405292	0.113089	0.000086
C70	C	0.655292	0.363089	0.250086
C71	C	0.905292	0.613089	0.500086
C72	C	1.155292	0.863089	0.750086
C73	C	0.434369	0.159750	0.083554
C74	C	0.684369	0.409750	0.333554
C75	C	0.934369	0.659750	0.583554
C76	C	1.184369	0.909750	0.833554
C77	C	0.531162	0.160850	0.083619
C78	C	0.781162	0.410850	0.333619
C79	C	1.031162	0.660850	0.583619
C80	C	1.281162	0.910850	0.833619
C81	C	0.531082	0.162211	-0.082936
C82	C	0.781082	0.412211	0.167064
C83	C	1.031082	0.662211	0.417064
C84	C	1.281082	0.912211	0.667064
C85	C	0.434587	0.158785	-0.084028
C86	C	0.684587	0.408785	0.165972
C87	C	0.934587	0.658785	0.415972
C88	C	1.184587	0.908785	0.665972
C89	C	0.310595	0.111428	0.000095
C90	C	0.560595	0.361428	0.250095
C91	C	0.810595	0.611428	0.500095
C92	C	1.060595	0.861428	0.750095
C93	C	0.667549	0.117702	0.000072
C94	C	0.917549	0.367702	0.250072
C95	C	1.167549	0.617702	0.500072
C96	C	1.417549	0.867702	0.750072
C97	C	0.987583	-0.469214	0.000082
C98	C	1.237583	-0.219214	0.250082
C99	C	1.487583	0.030786	0.500082
C100	C	1.737583	0.280786	0.750082
C101	C	1.080388	-0.445904	0.000417
C102	C	1.330388	-0.195904	0.250417
C103	C	1.580388	0.054096	0.500417
C104	C	1.830388	0.304096	0.750417
C105	C	1.082152	-0.349229	0.000084
C106	C	1.332152	-0.099229	0.250084
C107	C	1.582152	0.150771	0.500084
C108	C	1.832152	0.400771	0.750084
C109	C	0.990561	-0.301658	0.000079
C110	C	1.240561	-0.051658	0.250079
C111	C	1.490561	0.198342	0.500079
C112	C	1.740561	0.448342	0.750079
C113	C	0.944168	-0.330757	-0.083556
C114	C	1.194168	-0.080757	0.166444
C115	C	1.444168	0.169243	0.416444
C116	C	1.694168	0.419243	0.666444
C117	C	0.943051	-0.427547	-0.083623
C118	C	1.193051	-0.177547	0.166377
C119	C	1.443051	0.072453	0.416377
C120	C	1.693051	0.322453	0.666377
C121	C	0.941146	-0.427407	0.082926
C122	C	1.191146	-0.177407	0.332926
C123	C	1.441146	0.072593	0.582926
C124	C	1.691146	0.322593	0.832926
C125	C	0.944585	-0.330914	0.084028
C126	C	1.194585	-0.080914	0.334028
C127	C	1.444585	0.169086	0.584028
C128	C	1.694585	0.419086	0.834028
C129	C	0.992239	-0.206962	0.000074
C130	C	1.242239	0.043038	0.250074
C131	C	1.492239	0.293038	0.500074
C132	C	1.742239	0.543038	0.750074
C133	C	0.985902	-0.563910	0.000081
C134	C	1.235902	-0.313910	0.250081
C135	C	1.485902	-0.063910	0.500081
C136	C	1.735902	0.186090	0.750081
C137	C	1.142156	0.108447	0.000095
C138	C	1.392156	0.358447	0.250095
C139	C	1.642156	0.608447	0.500095
C140	C	1.892156	0.858447	0.750095
C141	C	1.235107	0.110096	0.000098
C142	C	1.485107	0.360096	0.250098
C143	C	1.735107	0.610096	0.500098
C144	C	1.985107	0.860096	0.750098
C145	C	0.982927	0.267650	0.000086
C146	C	1.232927	0.517650	0.250086
C147	C	1.482927	0.767650	0.500086
C148	C	1.732927	1.017650	0.750086
C149	C	0.984560	0.360603	0.000087
C150	C	1.234560	0.610603	0.250087
C151	C	1.484560	0.860603	0.500087
C152	C	1.734560	1.110603	0.750087
N153	N	0.989065	0.114560	0.228259
N154	N	1.239065	0.364560	0.478259
N155	N	1.489065	0.614560	0.728259
N156	N	1.739065	0.864560	0.978259
N157	N	0.989086	0.114560	-0.228090
N158	N	1.239086	0.364560	0.021910
N159	N	1.489086	0.614560	0.271910
N160	N	1.739086	0.864560	0.521910
C161	C	1.046019	0.057654	0.453986
C162	C	1.296019	0.307654	0.703986
C163	C	1.546019	0.557654	0.953986
C164	C	1.796019	0.807654	1.203986
C165	C	1.046021	0.057652	0.546176
C166	C	1.296021	0.307652	0.796176
C167	C	1.546021	0.557652	1.046176
C168	C	1.796021	0.807652	1.296176
C169	C	0.932126	0.171470	0.546177
C170	C	1.182126	0.421470	0.796177
C171	C	1.432126	0.671470	1.046177
C172	C	1.682126	0.921470	1.296177
C173	C	0.932120	0.171467	0.453989
C174	C	1.182120	0.421467	0.703989
C175	C	1.432120	0.671467	0.953989
C176	C	1.682120	0.921467	1.203989
C177	C	0.989071	0.114560	0.407896
C178	C	1.239071	0.364560	0.657896
C179	C	1.489071	0.614560	0.907896
C180	C	1.739071	0.864560	1.157896
C181	C	0.989080	0.114561	0.592273
C182	C	1.239080	0.364561	0.842273
C183	C	1.489080	0.614561	1.092273
C184	C	1.739080	0.864561	1.342273
C185	C	0.989082	0.114559	0.692229
C186	C	1.239082	0.364559	0.942229
C187	C	1.489082	0.614559	1.192229
C188	C	1.739082	0.864559	1.442229
C189	C	0.989068	0.114561	0.307933
C190	C	1.239068	0.364561	0.557933
C191	C	1.489068	0.614561	0.807933
C192	C	1.739068	0.864561	1.057933
H193	H	0.433840	-0.015033	-0.059409
H194	H	0.683840	0.234967	0.190591
H195	H	0.933840	0.484967	0.440591
H196	H	1.183840	0.734967	0.690591
H197	H	0.876769	-0.298887	-0.086669
H198	H	1.126769	-0.048887	0.163331
H199	H	1.376769	0.201113	0.413331
H200	H	1.626769	0.451113	0.663331
H201	H	1.092392	0.011313	0.583700
H202	H	1.342392	0.261313	0.833700
H203	H	1.592392	0.511313	1.083700
H204	H	1.842392	0.761313	1.333700
H205	H	0.875006	-0.442096	-0.087416
H206	H	1.125006	-0.192096	0.162584
H207	H	1.375006	0.057904	0.412584
H208	H	1.625006	0.307904	0.662584
H209	H	0.976392	-0.310697	-0.145793
H210	H	1.226392	-0.060697	0.104207
H211	H	1.476392	0.189303	0.354207
H212	H	1.726392	0.439303	0.604207
H213	H	0.557950	0.128912	0.146250
H214	H	0.807950	0.378912	0.396250
H215	H	1.057950	0.628912	0.646250
H216	H	1.307950	0.878912	0.896250
H217	H	0.577544	-0.012730	-0.059772
H218	H	0.827544	0.237270	0.190228
H219	H	1.077544	0.487270	0.440228
H220	H	1.327544	0.737270	0.690228
H221	H	0.885759	0.217803	0.583714
H222	H	1.135759	0.467803	0.833714
H223	H	1.385759	0.717803	1.083714
H224	H	1.635759	0.967803	1.333714
H225	H	0.885742	0.217807	0.416459
H226	H	1.135742	0.467807	0.666459
H227	H	1.385742	0.717807	0.916459
H228	H	1.635742	0.967807	1.166459
H229	H	1.118707	-0.330825	-0.059968
H230	H	1.368707	-0.080825	0.190032
H231	H	1.618707	0.169175	0.440032
H232	H	1.868707	0.419175	0.690032
H233	H	0.970368	-0.455497	0.146321
H234	H	1.220368	-0.205497	0.396321
H235	H	1.470368	0.044503	0.646321
H236	H	1.720368	0.294503	0.896321
H237	H	0.545721	0.228902	0.087189
H238	H	0.795721	0.478902	0.337189
H239	H	1.045721	0.728902	0.587189
H240	H	1.295721	0.978902	0.837189
H241	H	1.118486	-0.330206	0.060036
H242	H	1.368486	-0.080206	0.310036
H243	H	1.618486	0.169794	0.560036
H244	H	1.868486	0.419794	0.810036
H245	H	0.414281	0.127733	0.145907
H246	H	0.664281	0.377733	0.395907
H247	H	0.914281	0.627733	0.645907
H248	H	1.164281	0.877733	0.895907
H249	H	0.872835	-0.441395	0.083485
H250	H	1.122835	-0.191395	0.333485
H251	H	1.372835	0.058605	0.583485
H252	H	1.622835	0.308605	0.833485
H253	H	0.402509	0.227162	0.086424
H254	H	0.652509	0.477162	0.336424
H255	H	0.902509	0.727162	0.586424
H256	H	1.152509	0.977162	0.836424
H257	H	0.578514	-0.012146	0.059841
H258	H	0.828514	0.237854	0.309841
H259	H	1.078514	0.487854	0.559841
H260	H	1.328514	0.737854	0.809841
H261	H	0.416041	0.124805	-0.145779
H262	H	0.666041	0.374805	0.104221
H263	H	0.916041	0.624805	0.354221
H264	H	1.166041	0.874805	0.604221
H265	H	0.434415	-0.014863	0.060595
H266	H	0.684415	0.235137	0.310595
H267	H	0.934415	0.485137	0.560595
H268	H	1.184415	0.735137	0.810595
H269	H	0.545081	0.230517	-0.083740
H270	H	0.795081	0.480517	0.166260
H271	H	1.045081	0.730517	0.416260
H272	H	1.295081	0.980517	0.666260
H273	H	1.115964	-0.474922	-0.059219
H274	H	1.365964	-0.224922	0.190781
H275	H	1.615964	0.025078	0.440781
H276	H	1.865964	0.275078	0.690781
H277	H	0.978366	-0.312350	0.145901
H278	H	1.228366	-0.062350	0.395901
H279	H	1.478366	0.187650	0.645901
H280	H	1.728366	0.437650	0.895901
H281	H	1.092391	0.011316	0.416460
H282	H	1.342391	0.261316	0.666460
H283	H	1.592391	0.511316	0.916460
H284	H	1.842391	0.761316	1.166460
H285	H	0.559361	0.132933	-0.146222
H286	H	0.809361	0.382933	0.103778
H287	H	1.059361	0.632933	0.353778
H288	H	1.309361	0.882933	0.603778
H289	H	0.877733	-0.297943	0.089075
H290	H	1.127733	-0.047943	0.339075
H291	H	1.377733	0.202057	0.589075
H292	H	1.627733	0.452057	0.839075
H293	H	0.401617	0.225620	-0.089326
H294	H	0.651617	0.475620	0.160674
H295	H	0.901617	0.725620	0.410674
H296	H	1.151617	0.975620	0.660674
H297	H	0.975188	-0.454364	-0.146139
H298	H	1.225188	-0.204364	0.103861
H299	H	1.475188	0.045636	0.353861
H300	H	1.725188	0.295636	0.603861
H301	H	1.116156	-0.473903	0.060396
H302	H	1.366156	-0.223903	0.310396
H303	H	1.616156	0.026097	0.560396
H304	H	1.866156	0.276097	0.810396
