data_functionalizedCrystal
_audit_creation_method	'MofGen! by Chris Wilmer'
_symmetry_space_group_name_H-M	'P1'
_symmetry_Int_Tables_number	1
_symmetry_cell_setting	triclinic
loop_
_symmetry_equiv_pos_as_xyz
  x,y,z
_cell_length_a	15.944551
_cell_length_b	23.532407
_cell_length_c	15.021413
_cell_angle_alpha	89.999348
_cell_angle_beta	89.997174
_cell_angle_gamma	83.173708
loop_
_atom_site_label
_atom_site_type_symbol
_atom_site_fract_x
_atom_site_fract_y
_atom_site_fract_z
O1	O	1.113910	0.073442	-0.073949
O2	O	0.869284	0.082498	-0.073972
O3	O	0.998974	-0.004933	-0.073943
O4	O	0.984220	0.160873	-0.073977
O5	O	0.998953	-0.004921	0.074121
O6	O	0.869263	0.082510	0.074092
O7	O	1.113889	0.073455	0.074116
Zn8	Zn	0.991573	0.077985	0.097612
Zn9	Zn	0.991600	0.077968	-0.097469
O10	O	0.984200	0.160886	0.074087
C11	C	0.837983	0.082128	0.000057
C12	C	0.744746	0.081001	0.000049
C13	C	0.530369	0.024113	0.000078
C14	C	0.469137	0.050524	-0.072931
C15	C	0.574038	0.078962	0.000060
C16	C	0.469138	0.050549	0.073049
C17	C	0.409142	0.076989	0.000075
C18	C	0.514033	0.105388	-0.073009
C19	C	0.514041	0.105405	0.073036
C20	C	0.452826	0.131856	0.000010
C21	C	0.669030	0.080097	0.000051
C22	C	0.314150	0.075858	0.000077
C23	C	0.998588	-0.026144	0.000091
C24	C	0.997458	-0.089366	0.000098
C25	C	1.067121	-0.488199	0.000056
C26	C	1.066072	-0.547603	0.000049
O27	O	1.130650	-0.584098	0.000022
N28	N	0.988971	-0.570528	0.000042
C29	C	0.912915	-0.534045	0.000033
O30	O	0.847239	-0.558999	0.000026
C31	C	0.913965	-0.474642	0.000034
C32	C	0.991071	-0.451721	0.000049
C33	C	1.144220	-0.465277	0.000070
C34	C	1.145269	-0.405877	0.000079
C35	C	1.069219	-0.369399	0.000073
C36	C	0.992120	-0.392320	0.000058
C37	C	0.837910	-0.438160	0.000018
C38	C	0.838967	-0.378754	0.000018
C39	C	0.916072	-0.355832	0.000034
C40	C	0.917118	-0.296442	0.000060
N41	N	0.994219	-0.273517	0.000067
C42	C	1.070269	-0.309995	0.000073
C43	C	0.910716	-0.658796	0.000031
C44	C	0.909664	-0.718198	0.000037
C45	C	1.062821	-0.731752	0.000050
C46	C	1.063872	-0.672349	0.000051
C47	C	0.987816	-0.635871	0.000037
C48	C	1.072466	-0.185250	0.000092
C49	C	1.073508	-0.125844	0.000104
C50	C	0.920352	-0.112295	0.000085
C51	C	0.919309	-0.171696	0.000078
C52	C	0.995373	-0.208173	0.000078
O53	O	0.852574	-0.259913	0.000083
O54	O	1.135935	-0.285033	0.000069
C55	C	1.145190	0.073824	0.000084
C56	C	1.238427	0.074951	0.000087
C57	C	0.984586	0.182097	0.000051
C58	C	0.985715	0.245318	0.000038
N59	N	0.991561	0.077995	0.230750
N60	N	0.991619	0.077953	-0.230606
C61	C	0.931583	0.118404	0.470420
C62	C	1.007390	0.129461	0.529759
C63	C	0.991582	0.077981	0.412357
C64	C	0.915796	0.066938	0.529760
C65	C	0.991596	0.077969	0.587781
C66	C	1.067428	0.089063	0.470389
C67	C	0.975783	0.026518	0.470385
C68	C	1.051645	0.037552	0.529697
C69	C	0.991573	0.077990	0.311300
C70	C	0.991614	0.077960	0.688836
H71	H	0.533969	0.128590	0.134754
N72	N	0.835394	0.055208	0.562473
N73	N	0.830188	0.012192	0.610055
H74	H	0.773403	0.003911	0.633157
N75	N	0.444139	0.021424	-0.150348
N76	N	0.394114	0.047172	-0.204999
H77	H	0.376461	0.026619	-0.259673
H78	H	1.020766	0.172977	0.555839
H79	H	0.533834	0.128564	-0.134800
N80	N	0.444172	0.021456	0.150490
N81	N	0.394156	0.047204	0.205154
H82	H	0.376526	0.026654	0.259844
N83	N	0.410753	0.189020	-0.000058
N84	N	0.422193	0.222130	-0.062803
H85	H	0.392478	0.262502	-0.062855
H86	H	0.564086	-0.021407	-0.000003
H87	H	1.136300	-0.107185	0.000119
H88	H	1.134405	-0.214943	0.000089
H89	H	0.962383	-0.016985	0.444284
H90	H	1.208056	-0.387220	0.000088
N91	N	1.142632	-0.648938	0.000080
N92	N	1.193774	-0.660112	0.062502
H93	H	1.249402	-0.643580	0.062523
H94	H	1.206153	-0.494973	0.000072
N95	N	0.840547	-0.195110	0.000052
N96	N	0.822880	-0.226735	-0.062374
H97	H	0.767252	-0.243267	-0.062401
H98	H	1.124746	-0.761464	0.000052
N99	N	0.830896	-0.741598	0.000041
N100	N	0.763004	-0.709015	0.000041
H101	H	0.707369	-0.725539	0.000041
N102	N	0.867984	0.161311	0.437758
N103	N	0.792267	0.159526	0.457857
H104	H	0.747352	0.189828	0.434788
H105	H	1.131539	0.098450	0.444420
N106	N	0.833013	-0.621545	0.000020
N107	N	0.764184	-0.642027	0.000012
H108	H	0.709306	-0.615722	0.000003
N109	N	1.115378	-0.005340	0.562136
N110	N	1.191170	-0.003015	0.542918
H111	H	1.236184	-0.033306	0.565829
N112	N	0.759146	-0.461562	0.000011
N113	N	0.707974	-0.450385	0.062411
H114	H	0.652342	-0.466911	0.062405
N115	N	0.761268	-0.341501	-0.000006
N116	N	0.692436	-0.361980	-0.000025
H117	H	0.637560	-0.335672	-0.000043
H118	H	0.858434	-0.082584	0.000084
