data_functionalizedCrystal
_audit_creation_method	'MofGen! by Chris Wilmer'
_symmetry_space_group_name_H-M	'P1'
_symmetry_Int_Tables_number	1
_symmetry_cell_setting	triclinic
loop_
_symmetry_equiv_pos_as_xyz
  x,y,z
_cell_length_a	9.065215
_cell_length_b	16.109304
_cell_length_c	7.540329
_cell_angle_alpha	89.999220
_cell_angle_beta	89.997574
_cell_angle_gamma	84.238668
loop_
_atom_site_label
_atom_site_type_symbol
_atom_site_fract_x
_atom_site_fract_y
_atom_site_fract_z
O1	O	1.957454	0.121893	-0.147449
O2	O	2.290787	0.455227	0.185884
O3	O	2.624120	0.788560	0.519217
O4	O	1.527927	0.131895	-0.147456
O5	O	1.861260	0.465229	0.185877
O6	O	2.194593	0.798562	0.519210
O7	O	1.754487	0.005954	-0.147454
O8	O	2.087821	0.339287	0.185880
O9	O	2.421154	0.672621	0.519213
O10	O	1.730893	0.247835	-0.147452
O11	O	2.064226	0.581168	0.185881
O12	O	2.397559	0.914501	0.519215
O13	O	1.754474	0.005952	0.147511
O14	O	2.087807	0.339286	0.480845
O15	O	2.421141	0.672619	0.814178
O16	O	1.527913	0.131894	0.147509
O17	O	1.861246	0.465227	0.480842
O18	O	2.194580	0.798560	0.814175
O19	O	1.957440	0.121892	0.147516
O20	O	2.290774	0.455225	0.480849
O21	O	2.624107	0.788559	0.814182
Cu22	Cu	1.742675	0.126893	0.174445
Cu23	Cu	2.076009	0.460226	0.507778
Cu24	Cu	2.409342	0.793559	0.841112
Cu25	Cu	1.742691	0.126895	-0.174385
Cu26	Cu	2.076025	0.460228	0.158948
Cu27	Cu	2.409358	0.793561	0.492281
O28	O	1.730879	0.247833	0.147513
O29	O	2.064213	0.581166	0.480846
O30	O	2.397546	0.914500	0.814180
C31	C	1.472956	0.130934	0.000025
C32	C	1.806290	0.464267	0.333359
C33	C	2.139623	0.797600	0.666692
C34	C	1.309183	0.128061	0.000022
C35	C	1.642516	0.461395	0.333355
C36	C	1.975849	0.794728	0.666689
C37	C	1.753524	-0.025029	0.000025
C38	C	2.086858	0.308304	0.333358
C39	C	2.420191	0.641638	0.666692
C40	C	1.750657	-0.117346	0.000013
C41	C	2.083990	0.215987	0.333346
C42	C	2.417323	0.549321	0.666680
C43	C	1.744039	-0.329733	-0.160766
C44	C	2.077372	0.003600	0.172567
C45	C	2.410706	0.336933	0.505900
C46	C	1.741331	-0.416474	-0.160765
C47	C	2.074664	-0.083141	0.172569
C48	C	2.407998	0.250192	0.505902
C49	C	1.741324	-0.416473	0.160823
C50	C	2.074657	-0.083140	0.494156
C51	C	2.407990	0.250194	0.827489
C52	C	1.744021	-0.329733	0.160819
C53	C	2.077354	0.003600	0.494152
C54	C	2.410688	0.336934	0.827486
C55	C	1.745386	-0.286366	0.000019
C56	C	2.078719	0.046967	0.333353
C57	C	2.412053	0.380301	0.666686
C58	C	1.739981	-0.459847	0.000024
C59	C	2.073314	-0.126514	0.333358
C60	C	2.406647	0.206820	0.666691
C61	C	1.737045	-0.553895	0.000027
C62	C	2.070378	-0.220562	0.333361
C63	C	2.403711	0.112771	0.666694
C64	C	1.748320	-0.192311	0.000016
C65	C	2.081653	0.141022	0.333349
C66	C	2.414986	0.474355	0.666682
C67	C	2.012410	0.122853	0.000030
C68	C	2.345744	0.456187	0.333364
C69	C	2.679077	0.789520	0.666697
C70	C	2.176184	0.125726	0.000022
C71	C	2.509517	0.459059	0.333355
C72	C	2.842851	0.792392	0.666688
C73	C	1.731843	0.278816	0.000031
C74	C	2.065176	0.612149	0.333364
C75	C	2.398509	0.945483	0.666697
C76	C	1.734710	0.371133	0.000031
C77	C	2.068044	0.704467	0.333364
C78	C	2.401377	1.037800	0.666698
N79	N	1.742675	0.126891	0.419793
N80	N	2.076008	0.460224	0.753127
N81	N	2.409342	0.793557	1.086460
N82	N	1.742703	0.126890	-0.419734
N83	N	2.076037	0.460223	-0.086401
N84	N	2.409370	0.793556	0.246933
H85	H	1.745146	-0.294426	-0.291700
H86	H	2.078480	0.038907	0.041634
H87	H	2.411813	0.372240	0.374967
H88	H	1.740231	-0.451780	-0.291692
H89	H	2.073564	-0.118447	0.041641
H90	H	2.406897	0.214887	0.374974
H91	H	1.740215	-0.451793	0.291740
H92	H	2.073549	-0.118460	0.625073
H93	H	2.406882	0.214873	0.958406
H94	H	1.745110	-0.294422	0.291758
H95	H	2.078443	0.038912	0.625091
H96	H	2.411776	0.372245	0.958425
