data_functionalizedCrystal
_audit_creation_method	'MofGen! by Chris Wilmer'
_symmetry_space_group_name_H-M	'P1'
_symmetry_Int_Tables_number	1
_symmetry_cell_setting	triclinic
loop_
_symmetry_equiv_pos_as_xyz
  x,y,z
_cell_length_a	19.288864
_cell_length_b	10.654550
_cell_length_c	17.766277
_cell_angle_alpha	89.994852
_cell_angle_beta	89.976791
_cell_angle_gamma	83.810575
loop_
_atom_site_label
_atom_site_type_symbol
_atom_site_fract_x
_atom_site_fract_y
_atom_site_fract_z
O1	O	0.922379	0.156657	-0.062834
O2	O	0.720257	0.177789	-0.062782
O3	O	0.825965	-0.015616	-0.062807
O4	O	0.816670	0.350062	-0.062810
O5	O	0.825946	-0.015625	0.062382
O6	O	0.720238	0.177780	0.062406
O7	O	0.922360	0.156647	0.062355
Cu8	Cu	0.821297	0.167212	0.073811
Cu9	Cu	0.821319	0.167224	-0.074239
O10	O	0.816652	0.350052	0.062379
C11	C	0.694366	0.177105	-0.000181
C12	C	0.617249	0.175063	-0.000162
C13	C	0.573296	0.288545	-0.000175
C14	C	0.500836	0.286627	-0.000183
C15	C	0.472333	0.171222	-0.000193
C16	C	0.516296	0.057725	-0.000176
C17	C	0.588754	0.059646	-0.000160
C18	C	0.363484	0.080503	-0.044077
C19	C	0.291027	0.078587	-0.044098
C20	C	0.248849	0.165292	-0.000239
C21	C	0.279135	0.253934	0.043630
C22	C	0.351593	0.255855	0.043646
C23	C	0.393766	0.169126	-0.000210
C24	C	0.126326	0.276702	-0.000260
C25	C	0.053865	0.274779	-0.000263
C26	C	0.069327	0.045875	-0.000264
C27	C	0.141786	0.047800	-0.000253
C28	C	0.170281	0.163217	-0.000254
C29	C	0.825273	-0.062404	-0.000213
C30	C	0.823231	-0.201803	-0.000215
C31	C	0.885471	-0.282621	-0.000229
C32	C	0.883548	-0.413601	-0.000234
C33	C	0.757141	-0.382932	-0.000208
C34	C	0.759065	-0.251955	-0.000208
C35	C	0.949637	-0.232470	-0.000235
C36	C	1.011882	-0.313290	-0.000248
C37	C	1.009959	-0.444269	-0.000253
C38	C	0.945792	-0.494429	-0.000245
C39	C	0.948250	0.157332	-0.000248
C40	C	1.025367	0.159373	-0.000273
C41	C	0.817344	0.396840	-0.000216
C42	C	0.819385	0.536240	-0.000219
N43	N	0.821287	0.167203	0.177941
N44	N	0.821335	0.167223	-0.178369
C45	C	0.868110	0.081606	0.217318
C46	C	0.868114	0.081600	0.296119
C47	C	0.821301	0.167213	0.335542
C48	C	0.774469	0.252818	0.296156
C49	C	0.774462	0.252813	0.217356
C50	C	0.812752	0.281634	0.460380
C51	C	0.812764	0.281641	0.539179
C52	C	0.821320	0.167229	0.578588
C53	C	0.829879	0.052804	0.539189
C54	C	0.829871	0.052799	0.460389
C55	C	0.821304	0.167228	0.420988
C56	C	0.868150	0.081617	0.703410
C57	C	0.868149	0.081610	0.782214
C58	C	0.774508	0.252839	0.782249
C59	C	0.774506	0.252835	0.703447
C60	C	0.821330	0.167226	0.664033
H61	H	0.149528	0.370681	-0.000250
N62	N	0.189198	-0.074598	-0.000239
H63	H	0.160149	-0.148000	-0.000246
H64	H	0.219626	-0.078787	-0.046640
N65	N	0.258361	-0.017013	-0.091409
H66	H	0.270214	-0.004992	-0.146135
H67	H	0.276940	-0.104988	-0.074962
H68	H	0.906244	0.011893	0.328185
H69	H	0.906235	0.011895	0.185229
N70	N	0.724003	0.345159	0.660971
H71	H	0.694346	0.399394	0.697900
H72	H	0.750852	0.400555	0.628255
N73	N	0.839124	-0.070613	0.581677
H74	H	0.800274	-0.122812	0.567987
H75	H	0.885489	-0.118346	0.567914
N76	N	0.038595	-0.078602	-0.000267
H77	H	-0.013977	-0.062601	-0.000277
H78	H	0.054660	-0.128243	-0.046673
H79	H	0.836838	-0.040369	0.428313
N80	N	0.803528	0.405047	0.581671
H81	H	0.842378	0.457242	0.567930
H82	H	0.757161	0.452789	0.567960
H83	H	0.906275	0.011905	0.671318
N84	N	0.453421	0.409033	-0.000200
H85	H	0.462679	0.459395	-0.046609
H86	H	0.403215	0.390198	-0.000183
N87	N	0.918665	-0.010697	0.824688
H88	H	0.948331	-0.064916	0.787759
H89	H	0.949592	0.037276	0.857355
N90	N	0.943726	-0.635702	-0.000248
H91	H	0.918442	-0.661239	0.046166
H92	H	0.918472	-0.661134	-0.046680
H93	H	0.736390	0.322542	0.814346
N94	N	0.691943	-0.164761	-0.000173
H95	H	0.689929	-0.109721	-0.046576
H96	H	0.651034	-0.216477	-0.000129
N97	N	0.485552	-0.066743	-0.000182
H98	H	0.455860	-0.072642	-0.046596
H99	H	0.524431	-0.138276	-0.000141
H100	H	0.704899	-0.423784	-0.000200
H101	H	0.244795	0.324537	0.079345
N102	N	0.408973	-0.013023	-0.091382
H103	H	0.378794	-0.069459	-0.119179
H104	H	0.435936	0.033989	-0.128837
H105	H	0.805772	0.374809	0.428300
H106	H	0.736353	0.322524	0.328258
H107	H	0.736332	0.322518	0.185295
H108	H	1.064124	-0.272440	-0.000274
N109	N	0.604030	0.413024	-0.000181
H110	H	0.565186	0.484624	-0.000193
H111	H	0.633732	0.418817	0.046232
H112	H	0.951210	-0.125822	-0.000229
N113	N	0.384262	0.351448	0.090961
H114	H	0.346553	0.406088	0.118745
H115	H	0.417425	0.306024	0.128428
N116	N	1.077089	-0.531441	-0.000274
H117	H	1.118027	-0.479791	-0.000277
H118	H	1.079034	-0.586460	0.046134
N119	N	0.006477	0.397210	-0.000265
H120	H	-0.023913	0.401548	-0.046673
H121	H	-0.023903	0.401456	0.046172
N122	N	0.636161	-0.062762	-0.000145
H123	H	0.626955	-0.113131	-0.046554
H124	H	0.686368	-0.043934	-0.000107
