data_functionalizedCrystal
_audit_creation_method	'MofGen! by Chris Wilmer'
_symmetry_space_group_name_H-M	'P1'
_symmetry_Int_Tables_number	1
_symmetry_cell_setting	triclinic
loop_
_symmetry_equiv_pos_as_xyz
  x,y,z
_cell_length_a	29.917948
_cell_length_b	29.917021
_cell_length_c	29.913391
_cell_angle_alpha	60.005297
_cell_angle_beta	60.010472
_cell_angle_gamma	59.993667
loop_
_atom_site_label
_atom_site_type_symbol
_atom_site_fract_x
_atom_site_fract_y
_atom_site_fract_z
O1	O	0.061938	-0.653075	0.546110
O2	O	0.023328	-0.508466	0.440017
O3	O	0.114898	-0.599963	0.439941
O4	O	-0.029633	-0.561578	0.546186
O5	O	0.145278	-0.569587	0.470242
O6	O	0.053708	-0.478090	0.470318
O7	O	0.092318	-0.622699	0.576411
Zn8	Zn	0.077836	-0.545572	0.528175
Zn9	Zn	0.037809	-0.585593	0.488253
O10	O	0.000747	-0.531202	0.576487
N11	N	0.105154	-0.518262	0.555424
N12	N	0.010496	-0.612908	0.461004
C13	C	0.164136	-0.309209	0.614352
C14	C	0.164251	-0.459335	0.764424
C15	C	0.164150	-0.459313	0.614341
C16	C	0.314282	-0.459305	0.614278
C17	C	0.180666	-0.358742	0.630849
C18	C	0.180732	-0.442815	0.714891
C19	C	0.264747	-0.442797	0.630809
C20	C	0.180676	-0.442802	0.630843
C21	C	0.143097	-0.246161	0.593354
C22	C	0.143120	-0.480326	0.593337
C23	C	0.201706	-0.421790	0.651848
C24	C	0.405963	-0.443499	0.565998
C25	C	0.463273	-0.462598	0.546874
C26	C	0.463297	-0.555329	0.582235
C27	C	0.405988	-0.536228	0.601360
C28	C	0.156905	-0.217495	0.537012
C29	C	0.137776	-0.160180	0.517926
C30	C	0.091035	-0.160201	0.611524
C31	C	0.110164	-0.217516	0.630611
C32	C	0.086772	-0.466488	0.607209
C33	C	0.067659	-0.485590	0.588108
C34	C	0.161236	-0.532368	0.541277
C35	C	0.180352	-0.513266	0.560371
C36	C	0.086942	-0.466529	0.856152
C37	C	0.067877	-0.485647	0.913465
C38	C	0.161489	-0.532436	0.913415
C39	C	0.180552	-0.513318	0.856101
C40	C	0.143277	-0.480363	0.827471
C41	C	0.377323	-0.480313	0.593239
C42	C	-0.111377	-0.650681	0.422736
C43	C	-0.027364	-0.650787	0.422929
C44	C	-0.048335	-0.671770	0.401835
C45	C	-0.064214	-0.763416	0.450041
C46	C	-0.045160	-0.820731	0.469172
C47	C	0.047573	-0.820841	0.433980
C48	C	0.028517	-0.763527	0.414847
C49	C	-0.140115	-0.664483	0.479060
C50	C	-0.197425	-0.645309	0.498058
C51	C	-0.197256	-0.598535	0.404405
C52	C	-0.139946	-0.617709	0.385407
C53	C	-0.041168	-0.594444	0.409067
C54	C	-0.022104	-0.575374	0.428250
C55	C	0.024568	-0.668986	0.475143
C56	C	0.005504	-0.688059	0.455967
C57	C	-0.041000	-0.594453	0.310105
C58	C	-0.021803	-0.575386	0.252792
C59	C	0.024951	-0.669004	0.252854
C60	C	0.005755	-0.688070	0.310168
C61	C	-0.027222	-0.650793	0.338792
C62	C	-0.027377	-0.734817	0.422881
N63	N	0.491125	-0.518235	0.555255
O64	O	0.678406	-0.527360	0.420422
O65	O	0.678588	-0.633782	0.564887
O66	O	0.678516	-0.633539	0.473265
O67	O	0.678478	-0.527602	0.512044
O68	O	0.587469	-0.603251	0.503685
O69	O	0.587541	-0.603493	0.595307
O70	O	0.587359	-0.497071	0.450842
Zn71	Zn	0.572994	-0.545473	0.527905
Zn72	Zn	0.692953	-0.585380	0.487825
O73	O	0.587431	-0.497313	0.542465
N74	N	0.774821	-0.612618	0.460470
N75	N	0.105125	-0.132348	0.555445
O76	O	-0.029633	0.055031	0.546198
O77	O	0.114837	0.055047	0.439777
O78	O	0.023189	0.055024	0.440050
O79	O	0.062016	0.055054	0.545925
O80	O	0.053572	-0.036031	0.470398
O81	O	0.145220	-0.036008	0.470125
O82	O	0.000750	-0.036024	0.576546
Zn83	Zn	0.077809	-0.050473	0.528154
Zn84	Zn	0.037778	0.069496	0.488169
O85	O	0.092399	-0.036001	0.576273
N86	N	0.010456	0.151371	0.460879
N87	N	0.105414	-0.518315	0.941279
O88	O	0.096182	-0.653057	1.128644
O89	O	-0.010215	-0.508539	1.128670
O90	O	-0.009968	-0.600172	1.128636
O91	O	0.095935	-0.561424	1.128678
O92	O	0.020367	-0.569808	1.037586
O93	O	0.020121	-0.478175	1.037620
O94	O	0.126517	-0.622693	1.037594
Zn95	Zn	0.078135	-0.545613	1.023151
Zn96	Zn	0.038167	-0.585619	1.143113
O97	O	0.126270	-0.531061	1.037628
N98	N	0.010887	-0.612923	1.224985
C99	C	0.034899	-0.475056	0.440551
C100	C	0.148298	-0.588365	0.440456
C101	C	0.080746	-0.656109	0.575876
C102	C	-0.032653	-0.542801	0.575971
C103	C	0.633086	-0.633292	0.598298
C104	C	0.632998	-0.632993	0.484834
C105	C	0.632857	-0.497559	0.417433
C106	C	0.632949	-0.497860	0.530895
C107	C	0.148191	0.009634	0.440259
C108	C	0.034733	0.009493	0.440634
C109	C	-0.032641	0.009502	0.576027
C110	C	0.080854	0.009529	0.575690
C111	C	-0.009699	-0.475150	1.083148
C112	C	-0.009388	-0.588620	1.083088
C113	C	0.126001	-0.656082	1.083116
C114	C	0.125697	-0.542605	1.083155
H115	H	0.056584	-0.439691	0.832846
H116	H	0.098918	-0.240852	0.676488
O117	O	-0.049133	-0.598406	1.083052
C118	C	-0.141340	-0.562539	1.082939
C119	C	-0.096382	-0.551388	1.082992
H120	H	-0.179547	-0.524530	1.082879
H121	H	-0.151621	-0.598356	1.121032
H122	H	-0.126116	-0.572980	1.044823
H123	H	-0.111568	-0.540924	1.121082
H124	H	-0.086107	-0.515587	1.044874
H125	H	0.026652	-0.433515	0.407232
O126	O	0.197633	0.009868	0.400368
C127	C	0.295100	-0.036864	0.373577
C128	C	0.239143	-0.037189	0.418801
H129	H	0.328675	-0.074911	0.388459
H130	H	0.302942	0.001306	0.363357
H131	H	0.295101	-0.036760	0.335413
H132	H	0.239101	-0.037313	0.456993
H133	H	0.231323	-0.075355	0.428974
H134	H	0.189808	-0.596548	0.407092
O135	O	0.090726	0.009461	0.615444
C136	C	0.095929	-0.037727	0.706586
C137	C	0.084725	-0.037711	0.661615
H138	H	0.091094	-0.075867	0.743922
H139	H	0.065610	0.000351	0.718602
H140	H	0.139422	-0.037694	0.690507
H141	H	0.041248	-0.037763	0.677656
H142	H	0.115079	-0.075786	0.649605
O143	O	0.165377	-0.532778	1.083258
C144	C	0.225135	-0.559141	1.130414
C145	C	0.180190	-0.570322	1.130373
H146	H	0.237133	-0.589496	1.168496
H147	H	0.209100	-0.515653	1.130459
H148	H	0.262476	-0.564019	1.092289
H149	H	0.142834	-0.565474	1.168491
H150	H	0.196268	-0.613806	1.130299
O151	O	0.165787	-0.705634	1.083129
C152	C	0.191253	-0.795809	1.083061
C153	C	0.146144	-0.739722	1.083061
H154	H	0.175393	-0.823381	1.082994
H155	H	0.203195	-0.815516	1.121177
H156	H	0.228587	-0.790037	1.044968
H157	H	0.108781	-0.745446	1.121128
H158	H	0.134249	-0.720034	1.044919
H159	H	0.633132	-0.666701	0.639790
O160	O	0.090663	-0.705704	0.615562
C161	C	0.155636	-0.795822	0.640754
C162	C	0.144474	-0.739685	0.595759
H163	H	0.199146	-0.823308	0.624765
H164	H	0.125335	-0.815589	0.652728
H165	H	0.150699	-0.790112	0.678101
H166	H	0.149419	-0.745348	0.558383
H167	H	0.174774	-0.719937	0.583832
H168	H	0.632798	-0.464146	0.375944
O169	O	-0.082196	-0.532946	0.615724
C170	C	-0.172359	-0.468088	0.641028
C171	C	-0.116273	-0.479172	0.595964
H172	H	-0.199929	-0.424618	0.625064
H173	H	-0.166653	-0.472987	0.678362
H174	H	-0.192029	-0.498476	0.653011
H175	H	-0.096572	-0.448795	0.583934
H176	H	-0.122014	-0.474293	0.558660
H177	H	0.633014	-0.666272	0.476534
O178	O	-0.049500	-0.425613	1.083180
C179	C	-0.074941	-0.335413	1.083172
C180	C	-0.029824	-0.391492	1.083149
H181	H	-0.059045	-0.307807	1.083135
H182	H	-0.112276	-0.341129	1.121282
H183	H	-0.086892	-0.315773	1.045073
H184	H	-0.017826	-0.411162	1.121222
H185	H	0.007482	-0.385740	1.045014
H186	H	0.026418	0.009490	0.407371
O187	O	-0.082179	0.009531	0.615816
C188	C	-0.172362	0.009501	0.641294
C189	C	-0.116288	0.009475	0.596184
H190	H	-0.199950	0.009444	0.625442
H191	H	-0.192050	0.047624	0.653217
H192	H	-0.166580	-0.028589	0.678640
H193	H	-0.122022	0.047539	0.558809
H194	H	-0.096618	-0.028673	0.584307
O195	O	0.632863	-0.458088	0.540749
C196	C	0.585630	-0.366946	0.545949
C197	C	0.585664	-0.411934	0.534765
H198	H	0.547467	-0.329624	0.541127
H199	H	0.623679	-0.354906	0.515609
H200	H	0.585704	-0.383021	0.589434
H201	H	0.585571	-0.395897	0.491296
H202	H	0.547618	-0.423967	0.565139
O203	O	0.013138	-0.472221	0.941260
C204	C	-0.072701	-0.476611	0.958853
C205	C	-0.010718	-0.491837	0.927332
H206	H	-0.092005	-0.492474	0.947613
H207	H	-0.092062	-0.430203	0.947587
H208	H	-0.079914	-0.495918	1.004732
H209	H	-0.003455	-0.472567	0.881446
H210	H	0.008613	-0.538250	0.938643
O211	O	0.197772	-0.564459	0.941142
C212	C	0.292634	-0.608828	0.935044
C213	C	0.251605	-0.572561	0.903575
H214	H	0.336167	-0.615380	0.904685
H215	H	0.286091	-0.650080	0.961852
H216	H	0.286015	-0.587839	0.961897
H217	H	0.258200	-0.593501	0.876693
H218	H	0.258159	-0.531310	0.876801
H219	H	0.226428	-0.524588	0.832752
O220	O	0.050530	-0.434472	0.639201
C221	C	-0.044306	-0.390111	0.683658
C222	C	-0.003322	-0.426362	0.647410
H223	H	-0.087855	-0.383552	0.690315
H224	H	-0.037757	-0.348861	0.662668
H225	H	-0.037642	-0.411117	0.724860
H226	H	-0.009961	-0.405404	0.606202
H227	H	-0.009881	-0.467610	0.668443
H228	H	0.191560	-0.559196	0.514439
O229	O	0.235106	-0.526769	0.546859
C230	C	0.325908	-0.575136	0.498344
C231	C	0.263914	-0.559899	0.513620
H232	H	0.349217	-0.601914	0.471459
H233	H	0.337262	-0.598510	0.537198
H234	H	0.337138	-0.536225	0.475035
H235	H	0.252639	-0.598782	0.536916
H236	H	0.252593	-0.536504	0.474746
O237	O	0.378254	-0.572063	0.627791
C238	C	0.384334	-0.666061	0.660871
C239	C	0.415811	-0.625535	0.630919
H240	H	0.414686	-0.709304	0.663420
H241	H	0.357497	-0.654600	0.637453
H242	H	0.357511	-0.664283	0.703953
H243	H	0.442664	-0.627293	0.587836
H244	H	0.442613	-0.637010	0.654379
O245	O	0.491014	-0.426760	0.520398
C246	C	0.484948	-0.332773	0.487362
C247	C	0.453463	-0.373296	0.517347
H248	H	0.454603	-0.289540	0.484896
H249	H	0.511740	-0.334482	0.444252
H250	H	0.511818	-0.344306	0.510777
H251	H	0.426564	-0.361791	0.493978
H252	H	0.426706	-0.371580	0.560459
O253	O	0.012936	-0.472249	0.601601
C254	C	-0.062923	-0.505200	0.645745
C255	C	-0.000943	-0.520384	0.630489
H256	H	-0.074165	-0.544107	0.669113
H257	H	-0.074255	-0.481883	0.606881
H258	H	-0.086244	-0.478359	0.672569
H259	H	0.022420	-0.547243	0.603680
H260	H	0.010346	-0.543673	0.669376
H261	H	0.382624	-0.397967	0.559385
O262	O	0.188869	-0.245234	0.500746
C263	C	0.233231	-0.239164	0.405892
C264	C	0.197017	-0.207678	0.446902
H265	H	0.239839	-0.208814	0.362350
H266	H	0.212243	-0.265986	0.412464
H267	H	0.274456	-0.266006	0.412505
H268	H	0.155786	-0.180806	0.440313
H269	H	0.218048	-0.180890	0.440319
H270	H	0.486634	-0.600858	0.588843
H271	H	0.064226	-0.136878	0.641864
O272	O	-0.035267	-0.520635	0.225015
C273	C	-0.083651	-0.429793	0.231008
C274	C	-0.068455	-0.491781	0.262535
H275	H	-0.110476	-0.406446	0.261329
H276	H	-0.106958	-0.418461	0.204120
H277	H	-0.044729	-0.418581	0.204230
H278	H	-0.107348	-0.503037	0.289343
H279	H	-0.045126	-0.503080	0.289388
H280	H	-0.067855	-0.564093	0.333408
O281	O	0.056912	-0.705270	0.225113
C282	C	0.064225	-0.779381	0.207527
C283	C	0.027976	-0.738347	0.238985
H284	H	0.040841	-0.806127	0.218721
H285	H	0.103065	-0.806295	0.218895
H286	H	0.075595	-0.756070	0.161639
H287	H	0.016564	-0.761614	0.284880
H288	H	-0.010839	-0.711434	0.227572
O289	O	-0.073176	-0.558214	0.377061
C290	C	-0.157446	-0.483964	0.369572
C291	C	-0.121256	-0.524974	0.405882
H292	H	-0.196321	-0.457071	0.392855
H293	H	-0.168749	-0.507240	0.358251
H294	H	-0.134036	-0.457193	0.330707
H295	H	-0.144633	-0.551755	0.444770
H296	H	-0.109951	-0.501665	0.417159
O297	O	-0.035406	-0.520655	0.414765
C298	C	-0.002386	-0.444856	0.370718
C299	C	0.012752	-0.506830	0.385965
H300	H	0.036540	-0.433657	0.347421
H301	H	-0.025743	-0.433526	0.409582
H302	H	-0.029170	-0.421495	0.343830
H303	H	0.039553	-0.530233	0.412839
H304	H	0.036082	-0.518118	0.347079
O305	O	0.056472	-0.705267	0.507245
C306	C	0.100781	-0.800135	0.551702
C307	C	0.064635	-0.759106	0.515350
H308	H	0.107402	-0.843673	0.558257
H309	H	0.079731	-0.793550	0.592945
H310	H	0.142005	-0.793554	0.530782
H311	H	0.023405	-0.765663	0.536222
H312	H	0.085728	-0.765702	0.474109
H313	H	0.149018	-0.136838	0.472047
H314	H	0.016979	-0.733950	0.333522
H315	H	0.016742	-0.733938	0.467255
H316	H	0.093086	-0.844219	0.427442
O317	O	0.064374	-0.735829	0.388496
C318	C	0.158368	-0.741990	0.355581
C319	C	0.117819	-0.773425	0.385446
H320	H	0.201589	-0.772372	0.353096
H321	H	0.146878	-0.715165	0.379024
H322	H	0.156658	-0.715153	0.312476
H323	H	0.119508	-0.800291	0.428552
H324	H	0.129322	-0.800215	0.361962
H325	H	-0.109727	-0.740044	0.456586
O326	O	-0.081029	-0.848429	0.495630
C327	C	-0.175036	-0.842274	0.528640
C328	C	-0.134469	-0.810836	0.498637
H329	H	-0.218249	-0.811893	0.531070
H330	H	-0.173352	-0.869044	0.571764
H331	H	-0.163530	-0.869164	0.505261
H332	H	-0.145947	-0.783915	0.521970
H333	H	-0.136160	-0.784100	0.455510
H334	H	-0.116855	-0.691337	0.509456
H335	H	-0.220518	-0.571693	0.374008
O336	O	-0.225322	-0.658810	0.552779
C337	C	-0.242989	-0.731428	0.638617
C338	C	-0.211372	-0.716210	0.576653
H339	H	-0.231714	-0.777836	0.657939
H340	H	-0.288863	-0.712103	0.645813
H341	H	-0.231769	-0.715604	0.657978
H342	H	-0.222546	-0.732031	0.557250
H343	H	-0.165505	-0.735527	0.569496
O344	O	-0.112111	-0.604275	0.330672
C345	C	-0.117989	-0.555836	0.239784
C346	C	-0.149578	-0.571019	0.301754
H347	H	-0.148267	-0.528936	0.216385
H348	H	-0.091177	-0.594729	0.228502
H349	H	-0.091130	-0.532570	0.228587
H350	H	-0.176467	-0.594271	0.312995
H351	H	-0.176355	-0.532105	0.313002
