data_functionalizedCrystal
_audit_creation_method	'MofGen! by Chris Wilmer'
_symmetry_space_group_name_H-M	'P1'
_symmetry_Int_Tables_number	1
_symmetry_cell_setting	triclinic
loop_
_symmetry_equiv_pos_as_xyz
  x,y,z
_cell_length_a	15.698487
_cell_length_b	21.606444
_cell_length_c	15.698487
_cell_angle_alpha	60.001679
_cell_angle_beta	90.001001
_cell_angle_gamma	59.999624
loop_
_atom_site_label
_atom_site_type_symbol
_atom_site_fract_x
_atom_site_fract_y
_atom_site_fract_z
Zr1	Zr	0.820597	0.677464	-0.111771
O2	O	0.684576	0.806582	-0.247781
O3	O	0.862296	0.548345	-0.070081
O4	O	0.862288	0.677467	-0.247790
O5	O	0.684588	0.677458	0.070112
O6	O	1.002469	0.677469	-0.247792
O7	O	0.684584	0.677461	-0.070073
O8	O	1.002483	0.446495	0.070097
O9	O	0.684574	0.908433	-0.247777
O10	O	0.984694	0.601456	-0.052297
O11	O	0.880082	0.601452	0.052322
O12	O	0.880073	0.753476	-0.156907
O13	O	0.775461	0.753472	-0.052287
Zr14	Zr	1.044177	0.677464	0.111803
Zr15	Zr	1.044170	0.677468	-0.111775
Zr16	Zr	0.820604	0.677460	0.111807
Zr17	Zr	0.820595	0.839904	-0.111764
Zr18	Zr	1.044179	0.515024	0.111796
O19	O	1.002478	0.806582	0.070113
O20	O	1.002467	0.806588	-0.247786
O21	O	0.684586	0.806577	0.070118
O22	O	1.180198	0.548345	0.247813
O23	O	1.180187	0.548351	-0.070086
O24	O	0.862306	0.548340	0.247818
O25	O	1.180186	0.677469	-0.070080
O26	O	1.002486	0.677461	0.247822
O27	O	0.862304	0.677458	0.247824
O28	O	1.180190	0.677467	0.070104
O29	O	0.862285	0.908436	-0.247780
O30	O	1.002489	0.446492	0.247812
O31	O	1.180199	0.446495	0.247809
O32	O	1.180194	0.446498	0.070094
O33	O	0.684580	0.908430	-0.070062
O34	O	0.862291	0.908433	-0.070065
O35	O	0.984701	0.601452	0.156939
O36	O	1.089313	0.601456	0.052319
O37	O	0.984692	0.753476	-0.052291
O38	O	0.880080	0.753472	0.052329
C39	C	0.932390	0.474276	0.000007
C40	C	0.932391	0.405316	0.000004
C41	C	0.652732	0.677459	0.000020
C42	C	0.557819	0.677457	0.000022
C43	C	0.986995	0.372920	-0.054608
C44	C	0.986999	0.308120	-0.054601
C45	C	0.932391	0.275721	0.000012
C46	C	0.877786	0.308120	0.054631
C47	C	0.877789	0.372914	0.054629
C48	C	0.877773	0.046810	0.054640
C49	C	0.877772	-0.017987	0.054635
C50	C	0.986983	-0.017984	-0.054591
C51	C	0.986986	0.046811	-0.054592
C52	C	0.932386	0.079200	0.000030
C53	C	0.932384	0.149462	0.000024
C54	C	0.932387	0.205465	0.000014
C55	C	0.384034	0.677473	0.000012
C56	C	0.480738	0.677468	0.000015
C57	C	1.212042	0.677469	0.000012
C58	C	1.306955	0.677470	0.000010
C59	C	0.932378	0.677469	-0.279646
C60	C	0.932375	0.677470	-0.374561
C61	C	0.932384	0.880652	0.000025
C62	C	0.932383	0.949612	0.000028
C63	C	0.932398	0.677455	-0.548325
C64	C	0.932388	0.677460	-0.451628
C65	C	0.932396	0.677459	0.279678
C66	C	0.932399	0.677457	0.374593
C67	C	1.212045	0.474281	0.000003
C68	C	1.306959	0.405322	-0.000002
C69	C	0.932399	0.474271	0.279669
C70	C	0.932403	0.405309	0.374581
C71	C	1.212054	0.474276	0.279665
C72	C	1.306971	0.405316	0.374575
C73	C	0.652719	0.880652	-0.279633
C74	C	0.557803	0.949612	-0.374543
C75	C	0.652729	0.880647	0.000029
C76	C	0.557815	0.949605	0.000034
C77	C	0.932375	0.880657	-0.279637
C78	C	0.932371	0.949619	-0.374549
C79	C	1.296921	0.372939	-0.054622
C80	C	1.386094	0.308154	-0.054647
C81	C	1.485303	0.275749	-0.000046
C82	C	1.495339	0.308139	0.054576
C83	C	1.406167	0.372927	0.054595
C84	C	0.987015	0.372924	0.473770
C85	C	0.987015	0.308136	0.562958
C86	C	0.932408	0.275730	0.552955
C87	C	0.877790	0.308122	0.453754
C88	C	0.877784	0.372913	0.364569
C89	C	1.406161	0.372933	0.364535
C90	C	1.495353	0.308147	0.453705
C91	C	1.485354	0.275740	0.552913
C92	C	1.386154	0.308129	0.562951
C93	C	1.296964	0.372918	0.473782
C94	C	0.458613	0.982002	-0.364503
C95	C	0.369420	1.046809	-0.453673
C96	C	0.379420	1.079219	-0.552881
C97	C	0.478620	1.046826	-0.562919
C98	C	0.567810	0.982025	-0.473750
C99	C	0.567853	0.981996	0.054645
C100	C	0.478680	1.046799	0.054645
C101	C	0.379471	1.079205	0.000040
C102	C	0.369435	1.046812	-0.054577
C103	C	0.458607	0.982015	-0.054583
C104	C	0.986988	0.982004	-0.364512
C105	C	0.987004	1.046792	-0.453683
C106	C	0.932397	1.079198	-0.552890
C107	C	0.877778	1.046807	-0.562925
C108	C	0.877768	0.982015	-0.473755
H109	H	1.031457	0.399299	-0.099086
H110	H	1.031448	0.073191	-0.099068
H111	H	0.450452	0.955617	-0.283731
Cl112	Cl	1.620049	0.267439	0.441062
Cl113	Cl	0.809088	0.941318	-0.486392
H114	H	1.031462	0.281743	-0.099069
H115	H	1.414322	0.399310	0.283763
Cl116	Cl	0.809136	0.087517	0.123313
Cl117	Cl	1.373601	0.267377	0.687678
Cl118	Cl	1.172271	0.413614	0.486422
Cl119	Cl	0.491320	1.087504	0.123318
Cl120	Cl	0.244725	1.087515	-0.441030
Cl121	Cl	0.692563	0.941274	0.123294
Cl122	Cl	0.809119	-0.058717	0.123299
H123	H	0.306786	1.131984	-0.625480
Cl124	Cl	1.172211	0.413666	-0.123278
Cl125	Cl	0.809153	0.267378	0.123305
H126	H	0.833318	1.073202	-0.643711
H127	H	1.031446	-0.044365	-0.099064
H128	H	0.833322	0.399292	0.099097
H129	H	1.031483	0.399302	0.481935
H130	H	1.377902	0.281790	-0.099127
H131	H	1.557987	0.222984	0.625512
Cl132	Cl	0.491172	1.087577	-0.687646
Cl133	Cl	0.692502	0.941308	-0.486390
Cl134	Cl	0.932428	0.194276	0.665086
H135	H	0.450419	0.955645	-0.099051
H136	H	1.557904	0.222994	-0.000068
H137	H	1.576127	0.281746	0.099031
H138	H	1.414355	0.399286	0.099079
H139	H	0.833330	0.281727	0.445625
H140	H	1.031496	0.281770	0.643722
H141	H	0.306870	1.131967	0.000054
Cl142	Cl	0.244706	1.087558	-0.123214
Cl143	Cl	1.055648	0.941277	-0.239805
H144	H	0.833316	0.399272	0.283807
H145	H	1.031480	1.073159	-0.445491
H146	H	0.932413	1.131956	-0.625489
