data_functionalizedCrystal
_audit_creation_method	'MofGen! by Chris Wilmer'
_symmetry_space_group_name_H-M	'P1'
_symmetry_Int_Tables_number	1
_symmetry_cell_setting	triclinic
loop_
_symmetry_equiv_pos_as_xyz
  x,y,z
_cell_length_a	16.959455
_cell_length_b	16.625546
_cell_length_c	16.959455
_cell_angle_alpha	90.011449
_cell_angle_beta	90.005786
_cell_angle_gamma	90.019415
loop_
_atom_site_label
_atom_site_type_symbol
_atom_site_fract_x
_atom_site_fract_y
_atom_site_fract_z
Zn1	Zn	1.208304	-0.321217	0.446898
Zn2	Zn	1.208241	-0.456015	0.314715
Zn3	Zn	1.076152	-0.321193	0.314736
Zn4	Zn	1.076092	-0.456004	0.446854
O5	O	1.142197	-0.388607	0.380801
O6	O	1.318906	-0.339113	0.429374
O7	O	1.190718	-0.438126	0.204107
O8	O	1.093734	-0.208364	0.332294
O9	O	1.318860	-0.438149	0.332259
O10	O	1.190826	-0.208381	0.429393
O11	O	1.093673	-0.339072	0.204122
O12	O	0.965533	-0.339061	0.332251
O13	O	1.093631	-0.438129	0.557470
O14	O	0.965489	-0.438106	0.429318
O15	O	1.190767	-0.339102	0.557503
O16	O	1.190659	-0.568846	0.332216
O17	O	1.093570	-0.568838	0.429298
C18	C	0.936831	-0.388581	0.380782
C19	C	0.848974	-0.388589	0.380793
C20	C	1.142122	-0.598098	0.380767
C21	C	1.142163	-0.687719	0.380780
C22	C	0.477497	-0.336992	0.330364
C23	C	0.477500	-0.440288	0.431283
C24	C	0.560046	-0.440277	0.431278
C25	C	0.601321	-0.388623	0.380814
C26	C	0.560051	-0.336981	0.330355
C27	C	0.601322	-0.491924	0.481730
C28	C	0.683873	-0.491915	0.481727
C29	C	0.725150	-0.440257	0.431267
C30	C	0.683875	-0.388612	0.380806
C31	C	0.725150	-0.336958	0.330343
C32	C	0.683876	-0.285308	0.279886
C33	C	0.601328	-0.285322	0.279895
C34	C	0.807699	-0.440242	0.431257
C35	C	0.807704	-0.336946	0.330335
C36	C	1.142300	-1.015895	0.380862
C37	C	1.142260	-0.924586	0.380841
C38	C	1.142231	-0.851810	0.380821
C39	C	1.142191	-0.760496	0.380801
C40	C	1.348365	-0.388634	0.380819
C41	C	1.436222	-0.388646	0.380827
C42	C	1.142199	-0.388617	0.586969
C43	C	1.142200	-0.388621	0.674825
C44	C	1.142294	-0.178298	0.380851
C45	C	1.142335	-0.088677	0.380873
C46	C	1.091627	-0.440183	0.716084
C47	C	1.192769	-0.337058	0.716120
C48	C	1.192769	-0.337057	0.798666
C49	C	1.142196	-0.388618	0.839925
C50	C	1.091624	-0.440181	0.798637
C51	C	1.243335	-0.285489	0.839960
C52	C	1.243335	-0.285485	0.922511
C53	C	1.192766	-0.337051	0.963771
C54	C	1.142192	-0.388617	0.922478
C55	C	1.091620	-0.440179	0.963737
C56	C	1.041049	-0.491749	0.922446
C57	C	1.041054	-0.491748	0.839897
C58	C	1.192761	-0.337053	1.046319
C59	C	1.091616	-0.440178	1.046290
C60	C	1.142189	-0.388617	1.175434
C61	C	1.142188	-0.388615	1.087578
H62	H	0.841305	-0.294878	0.289245
Br63	Br	1.023002	-0.510171	0.660050
H64	H	1.284505	-0.243507	0.806361
Br65	Br	0.421487	-0.266893	0.261896
H66	H	0.567710	-0.533983	0.522809
Br67	Br	1.311983	-0.215518	0.978541
Br68	Br	0.739881	-0.562008	0.550203
H69	H	1.050436	-0.482169	1.079877
Br70	Br	0.863710	-0.510339	0.499721
H71	H	1.233940	-0.295075	0.682523
Br72	Br	0.545309	-0.215232	0.211425
Br73	Br	0.972410	-0.561716	0.978449
Br74	Br	0.972424	-0.561724	0.783856
H75	H	1.233928	-0.295059	1.079935
H76	H	0.717494	-0.243255	0.238795
H77	H	0.443888	-0.482347	0.472363
