data_functionalizedCrystal
_audit_creation_method	'MofGen! by Chris Wilmer'
_symmetry_space_group_name_H-M	'P1'
_symmetry_Int_Tables_number	1
_symmetry_cell_setting	triclinic
loop_
_symmetry_equiv_pos_as_xyz
  x,y,z
_cell_length_a	12.811457
_cell_length_b	12.784890
_cell_length_c	17.766277
_cell_angle_alpha	89.993425
_cell_angle_beta	95.422597
_cell_angle_gamma	78.600178
loop_
_atom_site_label
_atom_site_type_symbol
_atom_site_fract_x
_atom_site_fract_y
_atom_site_fract_z
O1	O	1.379594	0.143094	0.031582
O2	O	1.072595	0.158658	0.010624
O3	O	1.248561	-0.003753	0.022640
O4	O	1.203628	0.305504	0.019565
O5	O	1.248534	-0.003762	0.147827
O6	O	1.072568	0.158649	0.135810
O7	O	1.379567	0.143085	0.156768
Cu8	Cu	1.226065	0.150866	0.157720
Cu9	Cu	1.226097	0.150876	0.009672
O10	O	1.203601	0.305496	0.144752
C11	C	1.033558	0.157782	0.070553
C12	C	0.917280	0.155172	0.062615
C13	C	1.251470	-0.043344	0.085432
C14	C	1.260165	-0.161300	0.086024
C15	C	0.698756	0.150238	0.184193
C16	C	0.589503	0.147785	0.176738
C17	C	0.589522	0.147806	0.040252
C18	C	0.698774	0.150259	0.047707
C19	C	0.753387	0.151476	0.119679
C20	C	0.862640	0.153937	0.127133
C21	C	0.862659	0.153950	-0.009352
C22	C	0.753406	0.151497	-0.016807
C23	C	1.369142	-0.339795	0.093463
C24	C	1.360979	-0.228966	0.092907
C25	C	1.167508	-0.204469	0.079699
C26	C	1.175671	-0.315298	0.080255
C27	C	1.276492	-0.382958	0.087136
C28	C	1.284654	-0.493788	0.087686
C29	C	1.091184	-0.469289	0.074484
C30	C	1.083021	-0.358460	0.073928
C31	C	1.418604	0.143961	0.096837
C32	C	1.534882	0.146571	0.104770
C33	C	1.200692	0.345087	0.081958
C34	C	1.191997	0.463042	0.081361
N35	N	1.226049	0.150859	0.261849
N36	N	1.226122	0.150876	-0.094457
C37	C	1.303987	0.078979	0.306558
C38	C	1.303994	0.078974	0.385361
C39	C	1.226071	0.150867	0.419451
C40	C	1.148119	0.222753	0.374731
C41	C	1.148109	0.222748	0.295930
C42	C	1.203493	0.247570	0.542745
C43	C	1.203510	0.247576	0.621545
C44	C	1.226098	0.150880	0.662499
C45	C	1.248690	0.054175	0.624645
C46	C	1.248679	0.054171	0.545844
C47	C	1.226073	0.150880	0.504897
C48	C	1.304047	0.078989	0.792655
C49	C	1.304046	0.078983	0.871458
C50	C	1.148176	0.222771	0.860828
C51	C	1.148173	0.222768	0.782026
C52	C	1.226113	0.150878	0.747945
H53	H	0.907103	0.154934	0.185737
H54	H	1.451234	-0.394885	0.099055
N55	N	0.974284	-0.285483	0.066527
H56	H	0.983169	-0.208723	0.067141
H57	H	0.933465	-0.299487	0.017334
H58	H	1.367449	0.020440	0.278812
H59	H	1.367510	0.020444	0.907862
N60	N	0.530579	0.146445	0.246321
H61	H	0.581918	0.146858	0.293052
H62	H	0.471192	0.211585	0.245468
N63	N	1.388055	0.001441	0.433596
H64	H	1.437426	-0.044102	0.400048
H65	H	1.430715	0.042360	0.469189
N66	N	0.757664	0.151568	0.261814
H67	H	0.706475	0.150418	0.301554
H68	H	0.817508	0.086801	0.268874
H69	H	1.436424	-0.193829	0.098060
H70	H	1.267071	-0.024570	0.515026
N71	N	0.694503	0.150194	-0.094433
H72	H	0.728035	0.084844	-0.121983
H73	H	0.617011	0.148492	-0.089308
N74	N	0.991245	-0.515840	0.067652
H75	H	1.011711	-0.596317	0.069045
H76	H	0.947562	-0.491130	0.111078
H77	H	1.267082	-0.024563	0.657988
H78	H	1.366747	-0.548876	0.093285
H79	H	0.545041	0.146797	-0.018344
H80	H	1.367508	0.020449	0.764905
N81	N	0.921579	0.155296	-0.078941
H82	H	0.999077	0.157039	-0.063300
H83	H	0.917004	0.089088	-0.109058
N84	N	1.058774	-0.131485	0.072318
H85	H	1.067667	-0.054728	0.072940
H86	H	1.017933	-0.145472	0.023131
H87	H	1.084726	0.281304	0.888584
H88	H	1.185121	0.326318	0.652361
N89	N	1.064110	0.300295	0.733798
H90	H	1.014745	0.345839	0.767349
H91	H	1.099973	0.347468	0.703537
H92	H	1.185081	0.326316	0.509406
H93	H	1.084672	0.281288	0.402492
N94	N	1.064041	0.300275	0.247702
H95	H	1.014673	0.345817	0.281252
H96	H	1.099906	0.347449	0.217444
