data_functionalizedCrystal
_audit_creation_method	'MofGen! by Chris Wilmer'
_symmetry_space_group_name_H-M	'P1'
_symmetry_Int_Tables_number	1
_symmetry_cell_setting	triclinic
loop_
_symmetry_equiv_pos_as_xyz
  x,y,z
_cell_length_a	14.044220
_cell_length_b	10.540539
_cell_length_c	12.503572
_cell_angle_alpha	93.560877
_cell_angle_beta	86.164750
_cell_angle_gamma	88.857185
loop_
_atom_site_label
_atom_site_type_symbol
_atom_site_fract_x
_atom_site_fract_y
_atom_site_fract_z
O1	O	1.265193	0.299541	-0.089197
O2	O	1.765193	0.799541	0.410803
O3	O	0.989150	0.288487	-0.089224
O4	O	1.489150	0.788487	0.410776
O5	O	1.133469	0.109945	-0.089208
O6	O	1.633469	0.609945	0.410792
O7	O	1.120874	0.478084	-0.089212
O8	O	1.620874	0.978084	0.410788
O9	O	1.122616	0.123396	0.089432
O10	O	1.622616	0.623396	0.589432
O11	O	0.978297	0.301939	0.089417
O12	O	1.478297	0.801939	0.589417
O13	O	1.254339	0.312993	0.089444
O14	O	1.754339	0.812993	0.589444
Cu15	Cu	1.115327	0.308694	0.105742
Cu16	Cu	1.615327	0.808694	0.605742
Cu17	Cu	1.128163	0.292786	-0.105522
Cu18	Cu	1.628163	0.792786	0.394478
O19	O	1.110020	0.491536	0.089428
O20	O	1.610020	0.991536	0.589428
C21	C	0.948377	0.290375	0.000093
C22	C	1.448377	0.790375	0.500093
C23	C	0.843054	0.275945	0.000082
C24	C	1.343054	0.775945	0.500082
C25	C	0.650213	0.249566	0.000104
C26	C	1.150213	0.749566	0.500104
C27	C	0.593272	0.351908	0.000107
C28	C	1.093272	0.851908	0.500107
C29	C	0.485969	0.337231	0.000119
C30	C	0.985969	0.837231	0.500119
C31	C	0.757526	0.264241	0.000092
C32	C	1.257526	0.764241	0.500092
C33	C	1.127098	0.069272	0.000110
C34	C	1.627098	0.569272	0.500110
C35	C	1.124272	-0.071962	0.000104
C36	C	1.624272	0.428038	0.500104
C37	C	1.016008	-0.266368	-0.000308
C38	C	1.516008	0.233632	0.499692
C39	C	1.018848	-0.119430	0.000095
C40	C	1.518848	0.380570	0.500095
C41	C	1.168809	-0.120809	0.102122
C42	C	1.668809	0.379191	0.602122
C43	C	1.165206	-0.267711	0.102207
C44	C	1.665206	0.232289	0.602207
C45	C	1.179693	-0.283309	-0.100941
C46	C	1.679693	0.216691	0.399059
C47	C	1.180746	-0.136331	-0.102289
C48	C	1.680746	0.363669	0.397711
C49	C	1.295113	0.311105	0.000125
C50	C	1.795113	0.811105	0.500125
C51	C	1.400436	0.325535	0.000129
C52	C	1.900436	0.825535	0.500129
C53	C	1.116392	0.532208	0.000108
C54	C	1.616392	1.032208	0.500108
C55	C	1.119218	0.673442	0.000107
C56	C	1.619218	1.173442	0.500107
N57	N	1.106306	0.319883	0.254333
N58	N	1.606306	0.819883	0.754333
N59	N	1.137191	0.281588	-0.254113
N60	N	1.637191	0.781588	0.245887
C61	C	1.093036	0.336354	0.473447
C62	C	1.593036	0.836354	0.973447
C63	C	1.150458	0.265121	0.526780
C64	C	1.650458	0.765121	1.026780
C65	C	1.143074	0.274286	0.648703
C66	C	1.643074	0.774286	1.148703
C67	C	1.100419	0.327191	0.351513
C68	C	1.600419	0.827191	0.851513
H69	H	0.625111	0.450550	0.000101
H70	H	1.125111	0.950550	0.500101
H71	H	0.618375	0.150932	0.000110
H72	H	1.118375	0.650932	0.500110
H73	H	0.983371	-0.086369	-0.073036
H74	H	1.483371	0.413631	0.426964
H75	H	1.128954	-0.076056	0.178033
H76	H	1.628954	0.423944	0.678033
H77	H	1.038335	0.404216	0.519348
H78	H	1.538335	0.904216	1.019348
H79	H	1.205164	0.197256	0.480873
H80	H	1.705164	0.697256	0.980873
H81	H	0.970113	-0.295291	0.072433
H82	H	1.470113	0.204709	0.572433
H83	H	0.978808	-0.304687	-0.073467
H84	H	1.478808	0.195313	0.426533
C85	C	0.958544	-0.061052	0.099048
C86	C	1.458544	0.438948	0.599048
H87	H	0.932219	-0.127151	0.139164
H88	H	1.432219	0.372849	0.639164
H89	H	0.908413	-0.009516	0.076302
H90	H	1.408413	0.490484	0.576302
H91	H	0.997806	-0.010487	0.142746
H92	H	1.497806	0.489513	0.642746
H93	H	1.240744	-0.307665	0.106843
H94	H	1.740744	0.192335	0.606843
C95	C	1.108286	-0.303184	0.205206
C96	C	1.608286	0.196816	0.705206
H97	H	1.105590	-0.393097	0.206169
H98	H	1.605590	0.106903	0.706169
H99	H	1.045360	-0.268034	0.206784
H100	H	1.545360	0.231966	0.706784
H101	H	1.138807	-0.270315	0.266215
H102	H	1.638807	0.229685	0.766215
C103	C	1.273082	-0.079646	0.107268
C104	C	1.773082	0.420354	0.607268
H105	H	1.290421	-0.032185	0.047104
H106	H	1.790421	0.467815	0.547104
H107	H	1.313745	-0.152870	0.106328
H108	H	1.813745	0.347130	0.606328
H109	H	1.279404	-0.028459	0.171546
H110	H	1.779404	0.471541	0.671546
C111	C	1.139951	-0.338452	-0.205400
C112	C	1.639951	0.161548	0.294600
H113	H	1.177458	-0.311210	-0.265395
H114	H	1.677458	0.188790	0.234605
H115	H	1.075772	-0.309498	-0.208542
H116	H	1.575772	0.190502	0.291458
H117	H	1.142117	-0.428678	-0.206711
H118	H	1.642117	0.071322	0.293289
C119	C	1.136867	-0.093767	-0.204248
C120	C	1.636867	0.406233	0.295752
H121	H	1.084354	-0.037000	-0.184510
H122	H	1.584354	0.463000	0.315490
H123	H	1.115551	-0.166026	-0.244306
H124	H	1.615551	0.333974	0.255694
H125	H	1.183628	-0.051986	-0.246822
H126	H	1.683628	0.448014	0.253178
H127	H	1.257982	-0.104802	-0.108442
H128	H	1.757982	0.395198	0.391558
H129	H	1.255882	-0.322888	-0.101619
H130	H	1.755882	0.177112	0.398381
