data_functionalizedCrystal
_audit_creation_method	'MofGen! by Chris Wilmer'
_symmetry_space_group_name_H-M	'P1'
_symmetry_Int_Tables_number	1
_symmetry_cell_setting	triclinic
loop_
_symmetry_equiv_pos_as_xyz
  x,y,z
_cell_length_a	12.594517
_cell_length_b	18.215405
_cell_length_c	18.215399
_cell_angle_alpha	90.030551
_cell_angle_beta	89.979999
_cell_angle_gamma	89.975315
loop_
_atom_site_label
_atom_site_type_symbol
_atom_site_fract_x
_atom_site_fract_y
_atom_site_fract_z
Zn1	Zn	1.627188	0.292996	-0.416106
Zn2	Zn	1.627055	0.416067	-0.293034
Zn3	Zn	1.449196	0.293018	-0.293053
Zn4	Zn	1.449146	0.416025	-0.416059
O5	O	1.538146	0.354526	-0.354563
O6	O	1.776116	0.309330	-0.399792
O7	O	1.603427	0.399772	-0.190052
O8	O	1.472883	0.190031	-0.309404
O9	O	1.776019	0.399750	-0.309372
O10	O	1.603653	0.190014	-0.399810
O11	O	1.472754	0.309368	-0.190066
O12	O	1.300243	0.309327	-0.309358
O13	O	1.472799	0.399677	-0.519049
O14	O	1.300207	0.399699	-0.399730
O15	O	1.603605	0.309289	-0.519084
O16	O	1.603379	0.519046	-0.309326
O17	O	1.472670	0.519015	-0.399711
C18	C	1.538034	0.545733	-0.354527
C19	C	1.538083	0.627532	-0.354537
C20	C	1.261605	0.354512	-0.354541
C21	C	1.143300	0.354523	-0.354549
C22	C	1.538211	0.354476	-0.546516
C23	C	1.538239	0.354454	-0.628315
C24	C	1.074036	0.305303	-0.305490
C25	C	1.003210	0.372431	-0.287381
C26	C	1.003326	0.287428	-0.372671
C27	C	1.074033	0.421686	-0.336405
C28	C	1.074155	0.336639	-0.421726
C29	C	1.003362	0.403813	-0.403643
C30	C	1.815767	0.354542	-0.354585
C31	C	1.934072	0.354548	-0.354594
C32	C	1.538288	0.162574	-0.354614
C33	C	1.538348	0.080775	-0.354636
C34	C	1.606303	0.815717	-0.307560
C35	C	1.606351	0.892576	-0.307578
C36	C	1.470126	0.892584	-0.401619
C37	C	1.470084	0.815726	-0.401604
C38	C	1.538171	0.777295	-0.354570
C39	C	1.538260	0.931011	-0.354603
C40	C	1.538311	1.014345	-0.354623
C41	C	1.538122	0.693956	-0.354552
C42	C	1.606374	0.307345	-0.816528
C43	C	1.606387	0.307323	-0.893387
C44	C	1.470179	0.401450	-0.893339
C45	C	1.470161	0.401467	-0.816482
C46	C	1.538265	0.354415	-0.778078
C47	C	1.538295	0.354377	-0.931795
C48	C	1.538308	0.354354	-1.015128
C49	C	1.538251	0.354437	-0.694739
C50	C	1.538143	0.354524	-0.163357
C51	C	1.538321	0.354338	-0.081558
H52	H	1.105067	0.263719	-0.263951
C53	C	0.961371	0.210758	-0.393355
N54	N	0.929775	0.153009	-0.408930
C55	C	0.961105	0.392885	-0.210661
N56	N	0.929392	0.408285	-0.152874
H57	H	1.105341	0.321475	-0.478500
H58	H	1.661745	0.784428	-0.269263
C59	C	1.681280	0.255580	-0.774287
N60	N	1.737699	0.216587	-0.742473
C61	C	1.395267	0.453202	-0.935591
N62	N	1.338841	0.492183	-0.967413
H63	H	1.414691	0.439797	-0.785175
C64	C	1.681314	0.255543	-0.935678
N65	N	1.737753	0.216540	-0.967531
C66	C	1.115813	0.498377	-0.315630
N67	N	1.147285	0.556138	-0.299979
H68	H	1.661832	0.923856	-0.269298
H69	H	1.414690	0.923884	-0.439911
C70	C	1.395152	0.773459	-0.453337
N71	N	1.338725	0.741624	-0.492308
C72	C	0.961691	0.460124	-0.459714
N73	N	0.930300	0.502540	-0.501942
