data_functionalizedCrystal
_audit_creation_method	'MofGen! by Chris Wilmer'
_symmetry_space_group_name_H-M	'P1'
_symmetry_Int_Tables_number	1
_symmetry_cell_setting	triclinic
loop_
_symmetry_equiv_pos_as_xyz
  x,y,z
_cell_length_a	19.805405
_cell_length_b	15.298206
_cell_length_c	19.805407
_cell_angle_alpha	80.314144
_cell_angle_beta	90.015038
_cell_angle_gamma	80.365393
loop_
_atom_site_label
_atom_site_type_symbol
_atom_site_fract_x
_atom_site_fract_y
_atom_site_fract_z
Zn1	Zn	-0.448358	1.378904	0.203299
Zn2	Zn	-0.115025	1.712237	0.536632
Zn3	Zn	0.218309	2.045571	0.869966
Zn4	Zn	-0.561507	1.378818	0.090119
Zn5	Zn	-0.228174	1.712151	0.423452
Zn6	Zn	0.105160	2.045485	0.756785
Zn7	Zn	-0.428794	1.228089	0.109746
Zn8	Zn	-0.095461	1.561422	0.443080
Zn9	Zn	0.237872	1.894755	0.776413
Zn10	Zn	-0.541946	1.228013	0.222887
Zn11	Zn	-0.208613	1.561346	0.556220
Zn12	Zn	0.124720	1.894680	0.889553
O13	O	-0.495151	1.303456	0.156513
O14	O	-0.161818	1.636789	0.489846
O15	O	0.171515	1.970123	0.823179
O16	O	-0.479741	1.505122	0.171873
O17	O	-0.146408	1.838455	0.505207
O18	O	0.186925	2.171788	0.838540
O19	O	-0.543901	1.358819	-0.001994
O20	O	-0.210568	1.692152	0.331340
O21	O	0.122766	2.025486	0.664673
O22	O	-0.336682	1.248163	0.122173
O23	O	-0.003348	1.581496	0.455506
O24	O	0.329985	1.914829	0.788840
O25	O	-0.562871	1.505058	0.088720
O26	O	-0.229538	1.838392	0.422053
O27	O	0.103795	2.171725	0.755387
O28	O	-0.351055	1.358966	0.190906
O29	O	-0.017722	1.692299	0.524239
O30	O	0.315612	2.025633	0.857572
O31	O	-0.446398	1.248079	0.012427
O32	O	-0.113064	1.581412	0.345760
O33	O	0.220269	1.914746	0.679093
O34	O	-0.427431	1.101850	0.141167
O35	O	-0.094097	1.435183	0.474500
O36	O	0.239236	1.768516	0.807833
O37	O	-0.529533	1.248033	0.315004
O38	O	-0.196200	1.581367	0.648338
O39	O	0.137134	1.914700	0.981671
O40	O	-0.510563	1.101794	0.224290
O41	O	-0.177230	1.435127	0.557624
O42	O	0.156104	1.768461	0.890957
O43	O	-0.460774	1.358892	0.300613
O44	O	-0.127441	1.692226	0.633947
O45	O	0.205893	2.025559	0.967280
O46	O	-0.653620	1.358745	0.107714
O47	O	-0.320287	1.692079	0.441047
O48	O	0.013047	2.025412	0.774380
O49	O	-0.639249	1.247950	0.205258
O50	O	-0.305916	1.581283	0.538591
O51	O	0.027418	1.914616	0.871925
C52	C	-0.464752	1.069092	0.186984
C53	C	-0.131418	1.402425	0.520318
C54	C	0.201915	1.735759	0.853651
C55	C	-0.451763	0.968830	0.200036
C56	C	-0.118430	1.302163	0.533370
C57	C	0.214904	1.635497	0.866703
C58	C	-0.402446	0.921766	0.249532
C59	C	-0.069113	1.255100	0.582866
C60	C	0.264220	1.588433	0.916199
C61	C	-0.390236	0.827565	0.261797
C62	C	-0.056903	1.160899	0.595130
C63	C	0.276431	1.494232	0.928464
C64	C	-0.427345	0.780419	0.224571
C65	C	-0.094012	1.113752	0.557904
C66	C	0.239322	1.447085	0.891237
C67	C	-0.476666	0.827482	0.175077
C68	C	-0.143333	1.160816	0.508410
C69	C	0.190001	1.494149	0.841744
C70	C	-0.488874	0.921693	0.162807
C71	C	-0.155540	1.255026	0.496141
C72	C	0.177793	1.588359	0.829474
C73	C	-0.513773	0.780345	0.137846
C74	C	-0.180439	1.113678	0.471179
C75	C	0.152894	1.447011	0.804512
C76	C	-0.563094	0.827408	0.088352
C77	C	-0.229760	1.160742	0.421686
C78	C	0.103573	1.494075	0.755019
C79	C	-0.575299	0.921609	0.076085
C80	C	-0.241966	1.254943	0.409419
C81	C	0.091367	1.588276	0.742752
C82	C	-0.538190	0.968756	0.113312
C83	C	-0.204857	1.302089	0.446645
C84	C	0.128476	1.635423	0.779978
C85	C	-0.501565	0.686134	0.150115
C86	C	-0.168232	1.019468	0.483449
C87	C	0.165102	1.352801	0.816782
C88	C	-0.587992	0.686061	0.063391
C89	C	-0.254659	1.019394	0.396724
C90	C	0.078674	1.352727	0.730057
C91	C	-0.600203	0.780262	0.051126
C92	C	-0.266869	1.113595	0.384459
C93	C	0.066464	1.446928	0.717793
C94	C	-0.670994	1.303354	0.156493
C95	C	-0.337661	1.636688	0.489826
C96	C	-0.004328	1.970021	0.823160
C97	C	-0.746231	1.303394	0.156497
C98	C	-0.412898	1.636727	0.489830
C99	C	-0.079565	1.970060	0.823163
C100	C	-0.789043	1.361141	0.105743
C101	C	-0.455710	1.694474	0.439077
C102	C	-0.122377	2.027808	0.772410
C103	C	-0.859737	1.361179	0.105753
C104	C	-0.526403	1.694513	0.439087
C105	C	-0.193070	2.027846	0.772420
C106	C	-0.887616	1.303465	0.156514
C107	C	-0.554283	1.636798	0.489848
C108	C	-0.220950	1.970132	0.823181
C109	C	-0.844799	1.245715	0.207273
C110	C	-0.511466	1.579048	0.540606
C111	C	-0.178132	1.912382	0.873939
C112	C	-0.774108	1.245682	0.207265
C113	C	-0.440774	1.579015	0.540598
C114	C	-0.107441	1.912349	0.873932
C115	C	-1.129889	1.245848	0.207306
C116	C	-0.796556	1.579181	0.540639
C117	C	-0.463223	1.912515	0.873972
C118	C	-1.200586	1.245884	0.207308
C119	C	-0.867253	1.579217	0.540642
C120	C	-0.533919	1.912550	0.873975
C121	C	-1.215519	1.361345	0.105794
C122	C	-0.882185	1.694679	0.439127
C123	C	-0.548852	2.028012	0.772461
C124	C	-1.144827	1.361312	0.105786
C125	C	-0.811494	1.694646	0.439120
C126	C	-0.478161	2.027979	0.772453
C127	C	-1.102017	1.303566	0.156546
C128	C	-0.768683	1.636899	0.489880
C129	C	-0.435350	1.970233	0.823213
C130	C	-1.025363	1.303526	0.156536
C131	C	-0.692030	1.636860	0.489869
C132	C	-0.358696	1.970193	0.823202
C133	C	-0.964268	1.303499	0.156523
C134	C	-0.630934	1.636833	0.489856
C135	C	-0.297601	1.970166	0.823189
C136	C	-0.318625	1.303582	0.156544
C137	C	0.014708	1.636916	0.489877
C138	C	0.348042	1.970249	0.823211
C139	C	-0.243400	1.303636	0.156557
C140	C	0.089933	1.636970	0.489891
C141	C	0.423267	1.970303	0.823224
C142	C	-0.495154	1.303464	0.333054
C143	C	-0.161821	1.636797	0.666388
C144	C	0.171513	1.970131	0.999721
C145	C	-0.495155	1.303467	0.408286
C146	C	-0.161822	1.636801	0.741619
C147	C	0.171512	1.970134	1.074953
C148	C	-0.525670	1.538735	0.125922
C149	C	-0.192337	1.872068	0.459256
C150	C	0.140996	2.205402	0.792589
C151	C	-0.538676	1.638997	0.112887
C152	C	-0.205342	1.972330	0.446220
C153	C	0.127991	2.305664	0.779553
C154	C	-0.459358	1.361185	0.436139
C155	C	-0.126024	1.694518	0.769472
C156	C	0.207309	2.027851	1.102805
C157	C	-0.459355	1.361177	0.506828
C158	C	-0.126021	1.694510	0.840161
C159	C	0.207312	2.027843	1.173495
C160	C	-0.495153	1.303456	0.549663
C161	C	-0.161820	1.636789	0.882996
C162	C	0.171513	1.970122	1.216330
C163	C	-0.530951	1.245732	0.521806
C164	C	-0.197618	1.579066	0.855139
C165	C	0.135715	1.912399	1.188473
C166	C	-0.530950	1.245736	0.451118
C167	C	-0.197617	1.579069	0.784452
C168	C	0.135717	1.912403	1.117785
C169	C	-0.530957	1.245714	0.806882
C170	C	-0.197624	1.579048	1.140215
C171	C	0.135710	1.912381	1.473548
C172	C	-0.530957	1.245717	0.877574
C173	C	-0.197624	1.579050	1.210907
C174	C	0.135709	1.912384	1.544240
C175	C	-0.459362	1.361155	0.862591
C176	C	-0.126028	1.694488	1.195925
C177	C	0.207305	2.027822	1.529258
C178	C	-0.459360	1.361159	0.791904
C179	C	-0.126027	1.694492	1.125237
C180	C	0.207306	2.027826	1.458570
C181	C	-0.495155	1.303433	0.764053
C182	C	-0.161822	1.636766	1.097387
C183	C	0.171511	1.970099	1.430720
C184	C	-0.495157	1.303440	0.687404
C185	C	-0.161824	1.636774	1.020737
C186	C	0.171510	1.970107	1.354071
C187	C	-0.495156	1.303452	0.626311
C188	C	-0.161822	1.636785	0.959644
C189	C	0.171511	1.970118	1.292977
C190	C	-0.495162	1.303439	0.980659
C191	C	-0.161828	1.636773	1.313992
C192	C	0.171505	1.970106	1.647325
C193	C	-0.495156	1.303430	0.905428
C194	C	-0.161822	1.636764	1.238761
C195	C	0.171511	1.970097	1.572095
H196	H	-0.618210	0.647674	0.033078
H197	H	-0.284877	0.981007	0.366412
H198	H	0.048457	1.314341	0.699745
H199	H	-0.372234	0.960162	0.279833
H200	H	-0.038901	1.293495	0.613167
H201	H	0.294433	1.626828	0.946500
H202	H	-0.867504	1.198727	0.248606
H203	H	-0.534171	1.532060	0.581939
H204	H	-0.200838	1.865394	0.915272
C205	C	-0.758383	1.424630	0.049900
C206	C	-0.425050	1.757963	0.383233
C207	C	-0.091716	2.091297	0.716567
N208	N	-0.735292	1.472454	0.007838
N209	N	-0.401959	1.805788	0.341172
N210	N	-0.068625	2.139121	0.674505
C211	C	-1.262617	1.424872	0.049959
C212	C	-0.929284	1.758206	0.383292
C213	C	-0.595951	2.091539	0.716626
N214	N	-1.298091	1.472717	0.007904
N215	N	-0.964757	1.806051	0.341237
N216	N	-0.631424	2.139384	0.674571
H217	H	-0.461406	0.647824	0.190412
H218	H	-0.128073	0.981158	0.523746
H219	H	0.205261	1.314491	0.857079
H220	H	-1.095038	1.198827	0.248635
H221	H	-0.761705	1.532161	0.581968
H222	H	-0.428371	1.865494	0.915302
H223	H	-0.894592	1.408202	0.064425
H224	H	-0.561259	1.741536	0.397758
H225	H	-0.227925	2.074869	0.731091
C226	C	-1.231252	1.182395	0.263155
C227	C	-0.897918	1.515728	0.596488
C228	C	-0.564585	1.849062	0.929822
N229	N	-1.254349	1.134578	0.305217
N230	N	-0.921016	1.467912	0.638550
N231	N	-0.587683	1.801245	0.971883
C232	C	-0.629548	0.973377	0.021635
C233	C	-0.296215	1.306710	0.354969
C234	C	0.037118	1.640044	0.688302
N235	N	-0.670409	1.012367	-0.019376
N236	N	-0.337076	1.345700	0.313957
N237	N	-0.003743	1.679033	0.647290
H238	H	-0.430207	1.408178	0.529502
H239	H	-0.096874	1.741511	0.862835
H240	H	0.236460	2.074845	1.196168
C241	C	-0.654449	0.832044	-0.003322
C242	C	-0.321115	1.165377	0.330012
C243	C	0.012218	1.498711	0.663345
N244	N	-0.695305	0.871047	-0.044333
N245	N	-0.361972	1.204381	0.289000
N246	N	-0.028639	1.537714	0.622333
C247	C	-0.727014	1.182156	0.263098
C248	C	-0.393681	1.515489	0.596431
C249	C	-0.060348	1.848822	0.929765
N250	N	-0.691544	1.134308	0.305154
N251	N	-0.358211	1.467642	0.638488
N252	N	-0.024878	1.800975	0.971821
H253	H	-0.430209	1.408191	0.401266
H254	H	-0.096876	1.741524	0.734599
H255	H	0.236458	2.074857	1.067933
H256	H	-0.430212	1.408164	0.757030
H257	H	-0.096879	1.741498	1.090363
H258	H	0.236454	2.074831	1.423696
H259	H	-0.430213	1.408156	0.885275
H260	H	-0.096880	1.741489	1.218609
H261	H	0.236454	2.074822	1.551942
C262	C	-0.570335	1.182210	0.924692
C263	C	-0.237002	1.515543	1.258026
C264	C	0.096332	1.848877	1.591359
N265	N	-0.599992	1.134379	0.960182
N266	N	-0.266659	1.467712	1.293515
N267	N	0.066675	1.801045	1.626849
C268	C	-1.114163	1.424794	0.049940
C269	C	-0.780830	1.758127	0.383274
C270	C	-0.447497	2.091461	0.716607
N271	N	-1.091068	1.472610	0.007876
N272	N	-0.757735	1.805943	0.341209
N273	N	-0.424402	2.139277	0.674542
H274	H	-0.560115	1.198723	0.784213
H275	H	-0.226782	1.532057	1.117547
H276	H	0.106552	1.865390	1.450880
H277	H	-0.560092	1.198728	0.428444
H278	H	-0.226758	1.532061	0.761777
H279	H	0.106575	1.865394	1.095110
C280	C	-0.413916	0.676794	0.238068
C281	C	-0.080583	1.010128	0.571401
C282	C	0.252751	1.343461	0.904735
N283	N	-0.403802	0.598741	0.248239
N284	N	-0.070468	0.932074	0.581573
N285	N	0.262865	1.265407	0.914906
C286	C	-0.335987	0.775802	0.316241
C287	C	-0.002654	1.109136	0.649574
C288	C	0.330680	1.442469	0.982907
N289	N	-0.295125	0.736814	0.357252
N290	N	0.038208	1.070147	0.690585
N291	N	0.371542	1.403480	1.023919
C292	C	-0.551615	1.072384	0.099819
C293	C	-0.218281	1.405717	0.433152
C294	C	0.115052	1.739051	0.766485
N295	N	-0.561722	1.150437	0.089655
N296	N	-0.228389	1.483771	0.422988
N297	N	0.104944	1.817104	0.756322
H298	H	-0.560096	1.198732	0.556689
H299	H	-0.226763	1.532065	0.890022
H300	H	0.106570	1.865398	1.223355
