data_functionalizedCrystal
_audit_creation_method	'MofGen! by Chris Wilmer'
_symmetry_space_group_name_H-M	'P1'
_symmetry_Int_Tables_number	1
_symmetry_cell_setting	triclinic
loop_
_symmetry_equiv_pos_as_xyz
  x,y,z
_cell_length_a	18.215407
_cell_length_b	18.215405
_cell_length_c	18.215399
_cell_angle_alpha	90.027541
_cell_angle_beta	89.979405
_cell_angle_gamma	89.977347
loop_
_atom_site_label
_atom_site_type_symbol
_atom_site_fract_x
_atom_site_fract_y
_atom_site_fract_z
Zn1	Zn	-1.125083	-0.292993	0.416133
Zn2	Zn	-0.791750	0.040340	0.749466
Zn3	Zn	-0.458416	0.373673	1.082800
Zn4	Zn	-1.124996	-0.416065	0.293068
Zn5	Zn	-0.791663	-0.082731	0.626401
Zn6	Zn	-0.458329	0.250602	0.959734
Zn7	Zn	-1.002016	-0.293016	0.293079
Zn8	Zn	-0.668682	0.040317	0.626412
Zn9	Zn	-0.335349	0.373650	0.959745
Zn10	Zn	-1.001986	-0.416023	0.416091
Zn11	Zn	-0.668653	-0.082689	0.749424
Zn12	Zn	-0.335319	0.250644	1.082757
O13	O	-1.063520	-0.354524	0.354592
O14	O	-0.730187	-0.021191	0.687926
O15	O	-0.396853	0.312142	1.021259
O16	O	-1.228056	-0.309327	0.399821
O17	O	-0.894722	0.024006	0.733154
O18	O	-0.561389	0.357340	1.066488
O19	O	-1.108658	-0.399769	0.190085
O20	O	-0.775325	-0.066436	0.523418
O21	O	-0.441992	0.266897	0.856751
O22	O	-1.018389	-0.190029	0.309424
O23	O	-0.685056	0.143304	0.642758
O24	O	-0.351723	0.476638	0.976091
O25	O	-1.227992	-0.399747	0.309405
O26	O	-0.894658	-0.066414	0.642739
O27	O	-0.561325	0.266920	0.976072
O28	O	-1.108807	-0.190012	0.399832
O29	O	-0.775473	0.143321	0.733165
O30	O	-0.442140	0.476655	1.066498
O31	O	-1.018305	-0.309366	0.190093
O32	O	-0.684972	0.023967	0.523426
O33	O	-0.351638	0.357301	0.856760
O34	O	-0.899027	-0.309325	0.309384
O35	O	-0.565694	0.024008	0.642717
O36	O	-0.232361	0.357341	0.976050
O37	O	-1.018339	-0.399675	0.519081
O38	O	-0.685006	-0.066342	0.852414
O39	O	-0.351672	0.266991	1.185747
O40	O	-0.899006	-0.399697	0.399760
O41	O	-0.565672	-0.066364	0.733093
O42	O	-0.232339	0.266969	1.066427
O43	O	-1.108778	-0.309286	0.519112
O44	O	-0.775445	0.024047	0.852445
O45	O	-0.442111	0.357380	1.185778
O46	O	-1.108630	-0.519043	0.309365
O47	O	-0.775296	-0.185710	0.642698
O48	O	-0.441963	0.147623	0.976031
O49	O	-1.018255	-0.519012	0.399749
O50	O	-0.684921	-0.185679	0.733083
O51	O	-0.351588	0.147654	1.066416
C52	C	-0.872314	-0.354510	0.354569
C53	C	-0.538981	-0.021177	0.687902
C54	C	-0.205647	0.312157	1.021235
C55	C	-0.790515	-0.354521	0.354576
C56	C	-0.457182	-0.021188	0.687909
C57	C	-0.123848	0.312145	1.021243
C58	C	-1.063450	-0.545730	0.354567
C59	C	-0.730116	-0.212397	0.687900
C60	C	-0.396783	0.120936	1.021234
C61	C	-1.063487	-0.627529	0.354581
C62	C	-0.730153	-0.294196	0.687914
C63	C	-0.396820	0.039137	1.021248
C64	C	-0.602329	-0.401650	0.401574
C65	C	-0.268996	-0.068317	0.734907
C66	C	0.064338	0.265016	1.068240
C67	C	-0.525470	-0.401652	0.401582
C68	C	-0.192137	-0.068319	0.734915
C69	C	0.141196	0.265015	1.068248
C70	C	-0.525463	-0.307402	0.307614
C71	C	-0.192130	0.025931	0.640947
C72	C	0.141203	0.359265	0.974281
C73	C	-0.602321	-0.307397	0.307610
C74	C	-0.268987	0.025936	0.640944
C75	C	0.064346	0.359269	0.974277
C76	C	-0.640751	-0.354526	0.354589
C77	C	-0.307418	-0.021192	0.687922
C78	C	0.025915	0.312141	1.021256
C79	C	-0.487035	-0.354532	0.354601
C80	C	-0.153702	-0.021199	0.687934
C81	C	0.179631	0.312135	1.021268
C82	C	-0.403702	-0.354533	0.354609
C83	C	-0.070368	-0.021200	0.687943
C84	C	0.262965	0.312133	1.021276
C85	C	-0.724090	-0.354524	0.354582
C86	C	-0.390757	-0.021190	0.687915
C87	C	-0.057424	0.312143	1.021248
C88	C	-0.255473	-0.354537	0.354613
C89	C	0.077860	-0.021203	0.687947
C90	C	0.411194	0.312130	1.021280
C91	C	-0.337272	-0.354536	0.354614
C92	C	-0.003939	-0.021203	0.687947
C93	C	0.329395	0.312130	1.021280
C94	C	-1.110589	-0.815653	0.401720
C95	C	-0.777256	-0.482320	0.735053
C96	C	-0.443923	-0.148987	1.068386
C97	C	-1.110616	-0.892512	0.401734
C98	C	-0.777283	-0.559179	0.735067
C99	C	-0.443949	-0.225846	1.068400
C100	C	-1.016542	-0.892643	0.307511
C101	C	-0.683209	-0.559310	0.640844
C102	C	-0.349875	-0.225976	0.974177
C103	C	-1.016512	-0.815786	0.307501
C104	C	-0.683179	-0.482452	0.640835
C105	C	-0.349845	-0.149119	0.974168
C106	C	-1.063540	-0.777293	0.354605
C107	C	-0.730207	-0.443959	0.687938
C108	C	-0.396873	-0.110626	1.021271
C109	C	-1.063597	-0.931009	0.354628
C110	C	-0.730263	-0.597676	0.687961
C111	C	-0.396930	-0.264342	1.021295
C112	C	-1.063625	-1.014343	0.354643
C113	C	-0.730292	-0.681009	0.687976
C114	C	-0.396958	-0.347676	1.021309
C115	C	-1.063511	-0.693954	0.354591
C116	C	-0.730177	-0.360621	0.687925
C117	C	-0.396844	-0.027287	1.021258
C118	C	-1.063565	-0.354473	0.546545
C119	C	-0.730232	-0.021140	0.879879
C120	C	-0.396898	0.312193	1.213212
C121	C	-1.063584	-0.354452	0.628344
C122	C	-0.730251	-0.021119	0.961678
C123	C	-0.396917	0.312215	1.295011
C124	C	-1.063611	-0.162571	0.354634
C125	C	-0.730278	0.170762	0.687967
C126	C	-0.396944	0.504095	1.021301
C127	C	-1.063650	-0.080772	0.354652
C128	C	-0.730316	0.252561	0.687985
C129	C	-0.396983	0.585894	1.021318
C130	C	-1.063518	-0.354522	0.163386
C131	C	-0.730184	-0.021188	0.496720
C132	C	-0.396851	0.312145	0.830053
C133	C	-1.063641	-0.354336	0.081588
C134	C	-0.730308	-0.021003	0.414921
C135	C	-0.396975	0.312331	0.748254
C136	C	-1.110692	-0.307342	0.816556
C137	C	-0.777359	0.025991	1.149889
C138	C	-0.444026	0.359324	1.483222
C139	C	-1.110701	-0.307321	0.893415
C140	C	-0.777368	0.026013	1.226748
C141	C	-0.444035	0.359346	1.560081
C142	C	-1.016528	-0.401448	0.893371
C143	C	-0.683194	-0.068114	1.226704
C144	C	-0.349861	0.265219	1.560038
C145	C	-1.016516	-0.401465	0.816514
C146	C	-0.683182	-0.068131	1.149847
C147	C	-0.349849	0.265202	1.483180
C148	C	-1.063602	-0.354413	0.778108
C149	C	-0.730269	-0.021080	1.111441
C150	C	-0.396936	0.312253	1.444775
C151	C	-1.063623	-0.354375	0.931824
C152	C	-0.730290	-0.021041	1.265158
C153	C	-0.396956	0.312292	1.598491
C154	C	-1.063632	-0.354352	1.015158
C155	C	-0.730299	-0.021018	1.348491
C156	C	-0.396966	0.312315	1.681825
C157	C	-1.063592	-0.354435	0.694769
C158	C	-0.730259	-0.021102	1.028102
C159	C	-0.396926	0.312232	1.361436
H160	H	-0.494190	-0.440025	0.439843
H161	H	-0.160857	-0.106691	0.773176
H162	H	0.172477	0.226642	1.106509
O163	O	-0.643773	-0.452469	0.452258
O164	O	-0.310440	-0.119136	0.785592
O165	O	0.022893	0.214198	1.118925
H166	H	-0.678814	-0.419566	0.489750
H167	H	-0.345480	-0.086232	0.823083
H168	H	-0.012147	0.247101	1.156416
H169	H	-1.148927	-0.923742	0.440101
H170	H	-0.815593	-0.590409	0.773434
H171	H	-0.482260	-0.257075	1.106768
O172	O	-0.483998	-0.256589	0.256941
O173	O	-0.150665	0.076744	0.590274
O174	O	0.182668	0.410078	0.923608
H175	H	-0.498759	-0.198840	0.269659
H176	H	-0.165425	0.134493	0.602992
H177	H	0.167908	0.467826	0.936325
O178	O	-1.161313	-0.774136	0.452520
O179	O	-0.827979	-0.440803	0.785854
O180	O	-0.494646	-0.107469	1.119187
H181	H	-1.148660	-0.788856	0.510270
H182	H	-0.815327	-0.455522	0.843604
H183	H	-0.481994	-0.122189	1.176937
H184	H	-1.149031	-0.269028	0.785288
H185	H	-0.815698	0.064306	1.118621
H186	H	-0.482365	0.397639	1.451955
H187	H	-1.149046	-0.268990	0.924715
H188	H	-0.815712	0.064344	1.258049
H189	H	-0.482379	0.397677	1.591382
O190	O	-0.965744	-0.452196	0.934793
O191	O	-0.632410	-0.118863	1.268126
O192	O	-0.299077	0.214470	1.601460
H193	H	-0.973666	-0.444281	0.994697
H194	H	-0.640333	-0.110948	1.328030
H195	H	-0.306999	0.222385	1.661363
H196	H	-0.978164	-0.439795	0.785209
H197	H	-0.644831	-0.106462	1.118542
H198	H	-0.311497	0.226872	1.451875
H199	H	-0.978255	-0.923993	0.269160
H200	H	-0.644921	-0.590660	0.602493
H201	H	-0.311588	-0.257326	0.935826
H202	H	-0.978195	-0.784550	0.269134
H203	H	-0.644862	-0.451217	0.602468
H204	H	-0.311529	-0.117884	0.935801
H205	H	-0.633605	-0.269018	0.269350
H206	H	-0.300272	0.064315	0.602683
H207	H	0.033062	0.397649	0.936016
