data_functionalizedCrystal
_audit_creation_method	'MofGen! by Chris Wilmer'
_symmetry_space_group_name_H-M	'P1'
_symmetry_Int_Tables_number	1
_symmetry_cell_setting	triclinic
loop_
_symmetry_equiv_pos_as_xyz
  x,y,z
_cell_length_a	12.759401
_cell_length_b	13.031981
_cell_length_c	12.759401
_cell_angle_alpha	97.198898
_cell_angle_beta	90.002249
_cell_angle_gamma	97.191023
loop_
_atom_site_label
_atom_site_type_symbol
_atom_site_fract_x
_atom_site_fract_y
_atom_site_fract_z
Zn1	Zn	1.552962	-0.416280	0.540777
Zn2	Zn	1.530607	-0.591023	0.342763
Zn3	Zn	1.377316	-0.416267	0.365118
Zn4	Zn	1.354955	-0.591003	0.518407
O5	O	1.453960	-0.503643	0.441766
O6	O	1.697016	-0.439473	0.514517
O7	O	1.510274	-0.567844	0.198707
O8	O	1.419330	-0.270010	0.407138
O9	O	1.680591	-0.567856	0.369037
O10	O	1.548376	-0.270019	0.536193
O11	O	1.397652	-0.439451	0.215131
O12	O	1.227331	-0.439432	0.385446
O13	O	1.381219	-0.567823	0.668396
O14	O	1.210902	-0.567810	0.498066
O15	O	1.526694	-0.439454	0.684831
O16	O	1.488592	-0.737279	0.347345
O17	O	1.359542	-0.737264	0.476389
C18	C	1.180996	-0.503618	0.441755
C19	C	1.064217	-0.503633	0.441772
C20	C	1.017884	-0.436910	0.517611
C21	C	0.908158	-0.436930	0.517615
C22	C	0.891105	-0.570405	0.365936
C23	C	1.000831	-0.570379	0.365928
C24	C	1.027728	-0.359853	0.605185
C25	C	0.918002	-0.359873	0.605189
C26	C	1.419243	-0.775195	0.407037
C27	C	1.404488	-0.891366	0.392214
C28	C	1.461717	-0.943080	0.449523
C29	C	1.446468	-1.063149	0.434205
C30	C	1.727990	-0.503668	0.441778
C31	C	1.844765	-0.503679	0.441783
C32	C	1.453956	-0.503638	0.715800
C33	C	1.453955	-0.503636	0.832577
C34	C	1.488841	-0.231031	0.476654
C35	C	1.503705	-0.114860	0.491522
C36	C	1.529695	-0.436808	0.895997
C37	C	1.529689	-0.436810	1.005721
C38	C	1.378197	-0.570477	0.988594
C39	C	1.378200	-0.570469	0.878873
C40	C	1.617161	-0.359639	0.905886
C41	C	1.617154	-0.359642	1.015609
C42	C	1.453951	-0.503665	1.168796
C43	C	1.453945	-0.503647	1.052022
H44	H	1.038551	-0.624701	0.304164
H45	H	1.597844	-0.282745	1.059485
C46	C	0.850834	-0.621045	0.181473
C47	C	0.821426	-0.643774	0.282576
H48	H	0.807813	-0.666338	0.130012
H49	H	0.922804	-0.630585	0.170623
H50	H	0.841811	-0.550798	0.175213
H51	H	0.830456	-0.714019	0.288839
H52	H	0.749439	-0.634242	0.293430
H53	H	1.690741	-0.388645	0.868142
H54	H	1.067837	-0.278864	0.593882
C55	C	1.787590	-0.406709	0.964446
C56	C	1.723243	-0.388937	1.052076
H57	H	1.853078	-0.424801	0.986961
H58	H	1.799884	-0.345289	0.930958
H59	H	1.753454	-0.462104	0.915999
H60	H	1.757376	-0.333536	1.100520
H61	H	1.710952	-0.450364	1.085580
C62	C	1.310928	-0.629844	1.149184
C63	C	1.294938	-0.643947	1.039485
H64	H	1.259530	-0.675209	1.180598
H65	H	1.304532	-0.559628	1.176151
H66	H	1.379563	-0.645149	1.165200
H67	H	1.226305	-0.628635	1.023469
H68	H	1.301324	-0.714179	1.012510
H69	H	1.058057	-0.388962	0.678702
H70	H	1.386172	-1.107761	0.373801
H71	H	0.893787	-0.282936	0.586023
C72	C	1.310929	-0.629797	0.703077
C73	C	1.294936	-0.643918	0.809160
H74	H	1.259518	-0.675139	0.660042
H75	H	1.379549	-0.645111	0.683143
H76	H	1.304548	-0.559564	0.694102
H77	H	1.301325	-0.714150	0.818138
H78	H	1.226299	-0.628611	0.829101
H79	H	0.885450	-0.381684	0.683737
H80	H	1.522000	-0.898466	0.509932
H81	H	1.563992	-1.070249	0.551935
C82	C	1.323746	-1.058874	0.311278
C83	C	1.323099	-0.951585	0.310668
H84	H	1.273502	-1.096046	0.260928
H85	H	1.306063	-1.076688	0.379590
H86	H	1.392111	-1.076650	0.293709
H87	H	1.254736	-0.933807	0.328244
H88	H	1.340776	-0.933764	0.242340
C89	C	1.592345	-0.184093	0.973518
C90	C	1.601719	-0.250363	0.879672
H91	H	1.582804	-0.116636	0.957332
H92	H	1.654647	-0.179699	1.015436
H93	H	1.533212	-0.210995	1.011423
H94	H	1.660858	-0.223465	0.841771
H95	H	1.539411	-0.254753	0.837737
