data_functionalizedCrystal
_audit_creation_method	'MofGen! by Chris Wilmer'
_symmetry_space_group_name_H-M	'P1'
_symmetry_Int_Tables_number	1
_symmetry_cell_setting	triclinic
loop_
_symmetry_equiv_pos_as_xyz
  x,y,z
_cell_length_a	18.215407
_cell_length_b	13.897448
_cell_length_c	13.897441
_cell_angle_alpha	89.969401
_cell_angle_beta	89.977966
_cell_angle_gamma	90.018140
loop_
_atom_site_label
_atom_site_type_symbol
_atom_site_fract_x
_atom_site_fract_y
_atom_site_fract_z
Zn1	Zn	1.125125	-0.383973	-0.545415
Zn2	Zn	1.375125	-0.133973	-0.295415
Zn3	Zn	1.625125	0.116027	-0.045415
Zn4	Zn	1.875125	0.366027	0.204585
Zn5	Zn	1.125044	-0.545294	-0.384116
Zn6	Zn	1.375044	-0.295294	-0.134116
Zn7	Zn	1.625044	-0.045294	0.115884
Zn8	Zn	1.875044	0.204706	0.365884
Zn9	Zn	1.002053	-0.384016	-0.384129
Zn10	Zn	1.252053	-0.134016	-0.134129
Zn11	Zn	1.502053	0.115984	0.115871
Zn12	Zn	1.752053	0.365984	0.365871
Zn13	Zn	1.002039	-0.545229	-0.545365
Zn14	Zn	1.252039	-0.295229	-0.295365
Zn15	Zn	1.502039	-0.045229	-0.045365
Zn16	Zn	1.752039	0.204771	0.204635
O17	O	1.063565	-0.464628	-0.464756
O18	O	1.313565	-0.214628	-0.214756
O19	O	1.563565	0.035372	0.035244
O20	O	1.813565	0.285372	0.285244
O21	O	1.228098	-0.405382	-0.524033
O22	O	1.478098	-0.155382	-0.274033
O23	O	1.728098	0.094618	-0.024033
O24	O	1.978098	0.344618	0.225967
O25	O	1.108701	-0.523946	-0.249136
O26	O	1.358701	-0.273946	0.000864
O27	O	1.608701	-0.023946	0.250864
O28	O	1.858701	0.226054	0.500864
O29	O	1.018418	-0.249029	-0.405551
O30	O	1.268418	0.000971	-0.155551
O31	O	1.518418	0.250971	0.094449
O32	O	1.768418	0.500971	0.344449
O33	O	1.228039	-0.523904	-0.405528
O34	O	1.478039	-0.273904	-0.155528
O35	O	1.728039	-0.023904	0.094472
O36	O	1.978039	0.226096	0.344472
O37	O	1.108839	-0.248997	-0.524046
O38	O	1.358839	0.001003	-0.274046
O39	O	1.608839	0.251003	-0.024046
O40	O	1.858839	0.501003	0.225954
O41	O	1.018340	-0.405456	-0.249146
O42	O	1.268340	-0.155456	0.000854
O43	O	1.518340	0.094544	0.250854
O44	O	1.768340	0.344544	0.500854
O45	O	0.899066	-0.405392	-0.405502
O46	O	1.149066	-0.155392	-0.155502
O47	O	1.399066	0.094608	0.094498
O48	O	1.649066	0.344608	0.344498
O49	O	1.018394	-0.523792	-0.680353
O50	O	1.268394	-0.273792	-0.430353
O51	O	1.518394	-0.023792	-0.180353
O52	O	1.768394	0.226208	0.069647
O53	O	0.899056	-0.523834	-0.523962
O54	O	1.149056	-0.273834	-0.273962
O55	O	1.399056	-0.023834	-0.023962
O56	O	1.649056	0.226166	0.226038
O57	O	1.108825	-0.405318	-0.680390
O58	O	1.358825	-0.155318	-0.430390
O59	O	1.608825	0.094682	-0.180390
O60	O	1.858825	0.344682	0.069610
O61	O	1.108687	-0.680267	-0.405480
O62	O	1.358687	-0.430267	-0.155480
O63	O	1.608687	-0.180267	0.094520
O64	O	1.858687	0.069733	0.344520
O65	O	1.018316	-0.680219	-0.523949
O66	O	1.268316	-0.430219	-0.273949
O67	O	1.518316	-0.180219	-0.023949
O68	O	1.768316	0.069781	0.226051
C69	C	0.872359	-0.464611	-0.464729
C70	C	1.122359	-0.214611	-0.214729
C71	C	1.372359	0.035389	0.035271
C72	C	1.622359	0.285389	0.285271
C73	C	0.790560	-0.464628	-0.464740
C74	C	1.040560	-0.214628	-0.214740
C75	C	1.290560	0.035372	0.035260
C76	C	1.540560	0.285372	0.285260
C77	C	0.602380	-0.526397	-0.526344
C78	C	0.852380	-0.276397	-0.276344
C79	C	1.102380	-0.026397	-0.026344
C80	C	1.352380	0.223603	0.223656
C81	C	0.525521	-0.526400	-0.526356
C82	C	0.775521	-0.276400	-0.276356
C83	C	1.025521	-0.026400	-0.026356
C84	C	1.275521	0.223600	0.223644
C85	C	0.525502	-0.402876	-0.403190
C86	C	0.775502	-0.152876	-0.153190
C87	C	1.025502	0.097124	0.096810
C88	C	1.275502	0.347124	0.346810
C89	C	0.602359	-0.402869	-0.403183
C90	C	0.852359	-0.152869	-0.153183
C91	C	1.102359	0.097131	0.096817
C92	C	1.352359	0.347131	0.346817
C93	C	0.640796	-0.464635	-0.464759
C94	C	0.890796	-0.214635	-0.214759
C95	C	1.140796	0.035365	0.035241
C96	C	1.390796	0.285365	0.285241
C97	C	0.487080	-0.464645	-0.464777
C98	C	0.737080	-0.214645	-0.214777
C99	C	0.987080	0.035355	0.035223
C100	C	1.237080	0.285355	0.285223
C101	C	0.403747	-0.464648	-0.464790
C102	C	0.653747	-0.214648	-0.214790
C103	C	0.903747	0.035352	0.035210
C104	C	1.153747	0.285352	0.285210
C105	C	0.724135	-0.464631	-0.464748
C106	C	0.974135	-0.214631	-0.214748
C107	C	1.224135	0.035369	0.035252
C108	C	1.474135	0.285369	0.285252
C109	C	1.063511	-0.715242	-0.464728
C110	C	1.313511	-0.465242	-0.214728
C111	C	1.563511	-0.215242	0.035272
C112	C	1.813511	0.034758	0.285272
C113	C	1.063556	-0.822456	-0.464749
C114	C	1.313556	-0.572456	-0.214749
C115	C	1.563556	-0.322456	0.035251
C116	C	1.813556	-0.072456	0.285251
C117	C	1.063633	-1.018751	-0.464809
C118	C	1.313633	-0.768751	-0.214809
C119	C	1.563633	-0.518751	0.035191
C120	C	1.813633	-0.268751	0.285191
C121	C	1.063588	-0.909519	-0.464778
C122	C	1.313588	-0.659519	-0.214778
C123	C	1.563588	-0.409519	0.035222
C124	C	1.813588	-0.159519	0.285222
C125	C	1.255518	-0.464645	-0.464785
C126	C	1.505518	-0.214645	-0.214785
C127	C	1.755518	0.035355	0.035215
C128	C	2.005518	0.285355	0.285215
C129	C	1.337317	-0.464653	-0.464797
C130	C	1.587317	-0.214653	-0.214797
C131	C	1.837317	0.035347	0.035203
C132	C	2.087317	0.285347	0.285203
C133	C	1.063617	-0.464543	-0.716349
C134	C	1.313617	-0.214543	-0.466349
C135	C	1.563617	0.035457	-0.216349
C136	C	1.813617	0.285457	0.033651
C137	C	1.063639	-0.464506	-0.823563
C138	C	1.313639	-0.214506	-0.573563
C139	C	1.563639	0.035494	-0.323563
C140	C	1.813639	0.285494	-0.073563
C141	C	1.063639	-0.213035	-0.464805
C142	C	1.313639	0.036965	-0.214805
C143	C	1.563639	0.286965	0.035195
C144	C	1.813639	0.536965	0.285195
C145	C	1.063670	-0.105821	-0.464826
C146	C	1.313670	0.144179	-0.214826
C147	C	1.563670	0.394179	0.035174
C148	C	1.813670	0.644179	0.285174
C149	C	1.063659	-0.464441	-1.019859
C150	C	1.313659	-0.214441	-0.769859
C151	C	1.563659	0.035559	-0.519859
C152	C	1.813659	0.285559	-0.269859
C153	C	1.063646	-0.464480	-0.910626
C154	C	1.313646	-0.214480	-0.660626
C155	C	1.563646	0.035520	-0.410626
C156	C	1.813646	0.285520	-0.160626
C157	C	1.063555	-0.464643	-0.214142
C158	C	1.313555	-0.214643	0.035858
C159	C	1.563555	0.035357	0.285858
C160	C	1.813555	0.285357	0.535858
C161	C	1.063676	-0.464408	-0.106928
C162	C	1.313676	-0.214408	0.143072
C163	C	1.563676	0.035592	0.393072
C164	C	1.813676	0.285592	0.643072
H165	H	0.633639	-0.352568	-0.353033
H166	H	0.883639	-0.102568	-0.103033
H167	H	1.133639	0.147432	0.146967
H168	H	1.383639	0.397432	0.396967
N169	N	0.484040	-0.336286	-0.336758
N170	N	0.734040	-0.086286	-0.086758
N171	N	0.984040	0.163714	0.163242
N172	N	1.234040	0.413714	0.413242
H173	H	0.452163	-0.291634	-0.376021
H174	H	0.702163	-0.041634	-0.126021
H175	H	0.952163	0.208366	0.123979
H176	H	1.202163	0.458366	0.373979
H177	H	0.452181	-0.375529	-0.292016
H178	H	0.702181	-0.125529	-0.042016
H179	H	0.952181	0.124471	0.207984
H180	H	1.202181	0.374471	0.457984
H181	H	0.633673	-0.576689	-0.576485
H182	H	0.883673	-0.326689	-0.326485
H183	H	1.133673	-0.076689	-0.076485
H184	H	1.383673	0.173311	0.173515
H185	H	0.494246	-0.576692	-0.576506
H186	H	0.744246	-0.326692	-0.326506
H187	H	0.994246	-0.076692	-0.076506
H188	H	1.244246	0.173308	0.173494
