data_functionalizedCrystal
_audit_creation_method	'MofGen! by Chris Wilmer'
_symmetry_space_group_name_H-M	'P1'
_symmetry_Int_Tables_number	1
_symmetry_cell_setting	triclinic
loop_
_symmetry_equiv_pos_as_xyz
  x,y,z
_cell_length_a	10.654544
_cell_length_b	10.654555
_cell_length_c	14.586319
_cell_angle_alpha	90.001254
_cell_angle_beta	89.993183
_cell_angle_gamma	95.512739
loop_
_atom_site_label
_atom_site_type_symbol
_atom_site_fract_x
_atom_site_fract_y
_atom_site_fract_z
O1	O	-1.667848	0.176397	0.076306
O2	O	-1.302370	0.193203	0.076291
O3	O	-1.493504	0.002062	0.076299
O4	O	-1.476713	0.367539	0.076298
O5	O	-1.493491	0.002059	-0.076182
O6	O	-1.302356	0.193200	-0.076189
O7	O	-1.667834	0.176394	-0.076175
Cu8	Cu	-1.485094	0.184797	-0.090105
Cu9	Cu	-1.485110	0.184800	0.090221
O10	O	-1.476700	0.367536	-0.076182
C11	C	-1.255565	0.191968	0.000049
C12	C	-1.116121	0.188276	0.000044
C13	C	-0.826145	0.409903	0.000062
C14	C	-0.877687	0.525920	0.000059
C15	C	-1.008705	0.529393	0.000051
C16	C	-1.088187	0.416837	0.000048
C17	C	-1.036645	0.300820	0.000050
C18	C	-0.905622	0.297359	0.000056
C19	C	-1.064580	0.072259	0.000046
C20	C	-0.933561	0.068783	0.000048
C21	C	-1.144061	-0.040298	0.000043
C22	C	-1.092519	-0.156318	0.000039
C23	C	-0.961492	-0.159786	0.000046
C24	C	-0.882020	-0.047235	0.000050
C25	C	-1.492262	-0.044738	0.000060
C26	C	-1.488564	-0.184180	0.000066
C27	C	-1.481610	-0.446214	-0.166181
C28	C	-1.483334	-0.380701	-0.249299
C29	C	-1.486802	-0.249682	-0.249299
C30	C	-1.488543	-0.184173	-0.166172
C31	C	-1.486819	-0.249686	-0.083053
C32	C	-1.483355	-0.380708	-0.083062
C33	C	-1.486840	-0.249693	0.083184
C34	C	-1.483381	-0.380713	0.083186
C35	C	-1.488581	-0.184184	0.166312
C36	C	-1.486866	-0.249698	0.249433
C37	C	-1.483399	-0.380725	0.249429
C38	C	-1.481657	-0.446226	0.166305
C39	C	-0.714638	0.177634	0.000062
C40	C	-0.854080	0.181339	0.000051
C41	C	-1.477942	0.414335	0.000058
C42	C	-1.481640	0.553778	0.000059
N43	N	-1.485092	0.184794	-0.216937
C44	C	-1.569755	0.100185	-0.451940
C45	C	-1.569758	0.100182	-0.547921
C46	C	-1.400450	0.269406	-0.547937
C47	C	-1.400441	0.269402	-0.451958
C48	C	-1.485101	0.184793	-0.403962
C49	C	-1.485113	0.184794	-0.595922
C50	C	-1.485116	0.184792	-0.699989
C51	C	-1.485096	0.184794	-0.299888
N52	N	-1.485122	0.184794	0.217053
H53	H	-0.812959	0.617560	0.000065
O54	O	-1.661078	0.008929	-0.599661
H55	H	-1.607692	-0.052618	-0.643391
H56	H	-1.478799	-0.552898	-0.166189
H57	H	-1.331499	0.338301	-0.412891
H58	H	-0.919536	-0.254262	0.000053
H59	H	-1.638688	0.031290	-0.412864
H60	H	-1.194867	0.419675	0.000052
O61	O	-0.684833	0.406152	0.000064
H62	H	-0.638225	0.503905	0.000070
O63	O	-1.064303	0.654525	0.000039
H64	H	-1.032474	0.708670	0.062185
H65	H	-1.481913	-0.434053	-0.316980
O66	O	-0.740707	-0.050980	0.000060
H67	H	-0.694104	0.046775	0.000069
H68	H	-1.331523	0.338295	-0.587025
H69	H	-1.491352	-0.077489	-0.166179
O70	O	-1.285375	-0.036563	0.000027
H71	H	-1.307866	0.063018	0.000015
H72	H	-1.488183	-0.196339	-0.316982
O73	O	-1.488730	-0.179041	0.339083
H74	H	-1.573515	-0.214626	0.378947
O75	O	-1.492359	-0.042875	0.166348
H76	H	-1.407840	0.002170	0.130471
O77	O	-1.178237	-0.277708	0.000028
H78	H	-1.278001	-0.255802	0.000020
H79	H	-1.481985	-0.434056	0.317115
H80	H	-1.478839	-0.552909	0.166294
