data_functionalizedCrystal
_audit_creation_method	'MofGen! by Chris Wilmer'
_symmetry_space_group_name_H-M	'P1'
_symmetry_Int_Tables_number	1
_symmetry_cell_setting	triclinic
loop_
_symmetry_equiv_pos_as_xyz
  x,y,z
_cell_length_a	12.759401
_cell_length_b	19.076919
_cell_length_c	12.759401
_cell_angle_alpha	87.683496
_cell_angle_beta	90.002178
_cell_angle_gamma	87.669628
loop_
_atom_site_label
_atom_site_type_symbol
_atom_site_fract_x
_atom_site_fract_y
_atom_site_fract_z
Zn1	Zn	1.589153	0.280316	0.577117
Zn2	Zn	2.089153	0.780316	1.077117
Zn3	Zn	1.581988	0.397994	0.394357
Zn4	Zn	2.081988	0.897994	0.894357
Zn5	Zn	1.413505	0.280309	0.401457
Zn6	Zn	1.913505	0.780309	0.901457
Zn7	Zn	1.406335	0.397983	0.569999
Zn8	Zn	1.906335	0.897983	1.069999
O9	O	1.497745	0.339151	0.485732
O10	O	1.997745	0.839151	0.985732
O11	O	1.735223	0.295933	0.552881
O12	O	2.235223	0.795933	1.052881
O13	O	1.559641	0.382385	0.248278
O14	O	2.059641	0.882385	0.748278
O15	O	1.442804	0.181815	0.430708
O16	O	1.942804	0.681815	0.930708
O17	O	1.729959	0.382391	0.418608
O18	O	2.229959	0.882391	0.918608
O19	O	1.571851	0.181820	0.559765
O20	O	2.071851	0.681820	1.059765
O21	O	1.435857	0.295922	0.253494
O22	O	1.935857	0.795922	0.753494
O23	O	1.265533	0.295912	0.423807
O24	O	1.765533	0.795912	0.923807
O25	O	1.430584	0.382372	0.717964
O26	O	1.930584	0.882372	1.217964
O27	O	1.260266	0.382366	0.547634
O28	O	1.760266	0.882366	1.047634
O29	O	1.564899	0.295923	0.723194
O30	O	2.064899	0.795923	1.223194
O31	O	1.552688	0.496488	0.411707
O32	O	2.052688	0.996488	0.911707
O33	O	1.423637	0.496480	0.540750
O34	O	1.923637	0.996480	1.040750
C35	C	1.224779	0.339138	0.485719
C36	C	1.724779	0.839138	0.985719
C37	C	1.108001	0.339149	0.485737
C38	C	1.608001	0.839149	0.985737
C39	C	1.050419	0.384238	0.550099
C40	C	1.550419	0.884238	1.050099
C41	C	0.940695	0.384247	0.550109
C42	C	1.440695	0.884247	1.050109
C43	C	0.946144	0.294076	0.421388
C44	C	1.446144	0.794076	0.921388
C45	C	1.055866	0.294064	0.421384
C46	C	1.555866	0.794064	0.921384
C47	C	1.047273	0.436299	0.624411
C48	C	1.547273	0.936299	1.124411
C49	C	0.937548	0.436308	0.624422
C50	C	1.437548	0.936308	1.124422
C51	C	1.486636	0.522023	0.474709
C52	C	1.986636	1.022023	0.974709
C53	C	1.481979	0.600256	0.470028
C54	C	1.981979	1.100256	0.970028
C55	C	1.546929	0.636953	0.535076
C56	C	2.046929	1.136953	1.035076
C57	C	1.542549	0.710461	0.530679
C58	C	2.042549	1.210461	1.030679
C59	C	1.473224	0.747272	0.461229
C60	C	1.973224	1.247272	0.961229
C61	C	1.408267	0.710571	0.396178
C62	C	1.908267	1.210571	0.896178
C63	C	1.412642	0.637064	0.400580
C64	C	1.912642	1.137064	0.900580
C65	C	1.452935	0.967122	0.440856
C66	C	1.952935	1.467122	0.940856
C67	C	1.448567	1.040635	0.436456
C68	C	1.948567	1.540635	0.936456
C69	C	1.582849	1.040520	0.570960
C70	C	2.082849	1.540520	1.070960
C71	C	1.587222	0.967011	0.575351
C72	C	2.087222	1.467011	1.075351
C73	C	1.522261	0.930316	0.510305
C74	C	2.022261	1.430316	1.010305
N75	N	1.468748	0.822410	0.456731
N76	N	1.968748	1.322410	0.956731
N77	N	1.526733	0.855180	0.514808
N78	N	2.026733	1.355180	1.014808
C79	C	1.771778	0.339164	0.485747
C80	C	2.271778	0.839164	0.985747
C81	C	1.888554	0.339170	0.485753
C82	C	2.388554	0.839170	0.985753
C83	C	1.497741	0.339147	0.759766
C84	C	1.997741	0.839147	1.259766
C85	C	1.497739	0.339146	0.876543
C86	C	1.997739	0.839146	1.376543
C87	C	1.508883	1.155564	0.496811
C88	C	2.008883	1.655564	0.996811
C89	C	1.513518	1.077331	0.501505
C90	C	2.013518	1.577331	1.001505
C91	C	1.567670	0.294141	0.934129
C92	C	2.067670	0.794141	1.434129
C93	C	1.567664	0.294142	1.043852
C94	C	2.067664	0.794142	1.543852
C95	C	1.427792	0.384160	1.038394
C96	C	1.927792	0.884160	1.538394
C97	C	1.427794	0.384154	0.928673
C98	C	1.927794	0.884154	1.428673
C99	C	1.648427	0.242172	0.937280
C100	C	2.148427	0.742172	1.437280
C101	C	1.648421	0.242173	1.047004
C102	C	2.148421	0.742173	1.547004
C103	C	1.497738	0.339165	1.212764
C104	C	1.997738	0.839165	1.712764
C105	C	1.497730	0.339153	1.095988
C106	C	1.997730	0.839153	1.595988
H107	H	1.078169	0.488047	0.592014
H108	H	1.578169	0.988047	1.092014
H109	H	1.400043	0.937251	0.387890
H110	H	1.900043	1.437251	0.887890
H111	H	1.728900	0.256780	1.075904
H112	H	2.228900	0.756780	1.575904
H113	H	1.724529	0.261704	0.902069
H114	H	2.224529	0.761704	1.402069
H115	H	1.622426	0.190389	1.084168
H116	H	2.122426	0.690389	1.584168
H117	H	1.102746	0.257344	0.368982
H118	H	1.602746	0.757344	0.868982
Br119	Br	1.354484	1.090593	0.342189
Br120	Br	1.854484	1.590593	0.842189
H121	H	0.904703	0.416870	0.702944
H122	H	1.404703	0.916870	1.202944
Br123	Br	1.098389	0.412107	0.761546
Br124	Br	1.598389	0.912107	1.261546
H125	H	0.904467	0.490802	0.599212
H126	H	1.404467	0.990802	1.099212
Br127	Br	0.875383	0.232890	0.334060
Br128	Br	1.375383	0.732890	0.834060
H129	H	1.351817	0.740549	0.339634
H130	H	1.851817	1.240549	0.839634
Br131	Br	1.641026	0.587002	0.629327
Br132	Br	2.141026	1.087002	1.129327
H133	H	1.643672	0.937041	0.631904
H134	H	2.143672	1.437041	1.131904
Br135	Br	1.630682	0.760261	0.618982
Br136	Br	2.130682	1.260261	1.118982
Br137	Br	1.671003	1.090323	0.659235
Br138	Br	2.171003	1.590323	1.159235
H139	H	1.359751	0.607186	0.347613
H140	H	1.859751	1.107186	0.847613
Br141	Br	1.332864	0.445221	0.850523
Br142	Br	1.832864	0.945221	1.350523
Br143	Br	1.617650	0.151310	0.893141
Br144	Br	2.117650	0.651310	1.393141
H145	H	1.370843	0.420803	1.080852
H146	H	1.870843	0.920803	1.580852
