data_functionalizedCrystal
_audit_creation_method	'MofGen! by Chris Wilmer'
_symmetry_space_group_name_H-M	'P1'
_symmetry_Int_Tables_number	1
_symmetry_cell_setting	triclinic
loop_
_symmetry_equiv_pos_as_xyz
  x,y,z
_cell_length_a	12.759401
_cell_length_b	21.295417
_cell_length_c	21.295420
_cell_angle_alpha	90.018953
_cell_angle_beta	90.003195
_cell_angle_gamma	90.030668
loop_
_atom_site_label
_atom_site_type_symbol
_atom_site_fract_x
_atom_site_fract_y
_atom_site_fract_z
Zn1	Zn	1.605981	-0.250695	0.355857
Zn2	Zn	1.605874	-0.355942	0.250583
Zn3	Zn	1.430330	-0.250691	0.250608
Zn4	Zn	1.430223	-0.355931	0.355820
O5	O	1.518102	-0.303315	0.303217
O6	O	1.752988	-0.264663	0.341897
O7	O	1.582588	-0.341983	0.162497
O8	O	1.453720	-0.162602	0.264596
O9	O	1.752909	-0.341987	0.264552
O10	O	1.582770	-0.162605	0.341922
O11	O	1.453616	-0.264656	0.162516
O12	O	1.283295	-0.264645	0.264560
O13	O	1.453538	-0.341968	0.443915
O14	O	1.283217	-0.341964	0.341859
O15	O	1.582667	-0.264652	0.443942
O16	O	1.582484	-0.444030	0.264517
O17	O	1.453434	-0.444021	0.341834
C18	C	1.245135	-0.303303	0.303209
C19	C	1.128358	-0.303313	0.303220
C20	C	1.517965	-0.466866	0.303182
C21	C	1.518002	-0.536834	0.303188
C22	C	1.073483	-0.343638	0.343403
C23	C	0.963759	-0.343646	0.343410
C24	C	0.963795	-0.263003	0.263045
C25	C	1.073517	-0.262992	0.263042
C26	C	1.128324	-0.383959	0.383581
C27	C	1.073448	-0.424287	0.423766
C28	C	0.963724	-0.424295	0.423773
C29	C	0.908876	-0.383975	0.383594
C30	C	1.585258	-0.569684	0.262970
C31	C	1.585307	-0.635427	0.262985
C32	C	1.518081	-0.668317	0.303210
C33	C	1.450821	-0.635459	0.343436
C34	C	1.450781	-0.569718	0.343425
N35	N	1.426172	-0.771584	0.308006
N36	N	1.426213	-0.834035	0.308013
C37	C	1.518199	-0.866391	0.303246
N38	N	1.610145	-0.833937	0.298460
N39	N	1.610103	-0.771480	0.298451
C40	C	1.518118	-0.739602	0.303227
C41	C	1.585514	-0.970527	0.263041
C42	C	1.585565	-1.036271	0.263060
C43	C	1.451070	-1.036301	0.343508
C44	C	1.451028	-0.970559	0.343493
C45	C	1.518249	-0.937676	0.303256
C46	C	1.792135	-0.303327	0.303226
C47	C	1.908912	-0.303332	0.303230
C48	C	1.518103	-0.303309	0.467407
C49	C	1.518103	-0.303307	0.537376
C50	C	1.518269	-0.139124	0.303266
C51	C	1.518340	-0.069156	0.303287
C52	C	1.585293	-0.263055	1.036849
C53	C	1.585305	-0.263056	0.971106
C54	C	1.518077	-0.303309	0.938215
C55	C	1.450852	-0.343575	0.971072
C56	C	1.450850	-0.343577	1.036813
N57	N	1.426109	-0.308131	0.834989
N58	N	1.426114	-0.308125	0.772538
C59	C	1.518079	-0.303306	0.740140
N60	N	1.610042	-0.298481	0.772553
N61	N	1.610036	-0.298483	0.835010
C62	C	1.518071	-0.303312	0.866930
C63	C	1.585317	-0.263047	0.636006
C64	C	1.585330	-0.263053	0.570262
C65	C	1.450868	-0.343568	0.570229
C66	C	1.450864	-0.343566	0.635971
C67	C	1.518088	-0.303302	0.668856
C68	C	1.518089	-0.303328	1.139666
C69	C	1.518073	-0.303313	1.069697
H70	H	1.118113	-0.457110	0.456482
H71	H	1.217667	-0.383958	0.383578
C72	C	1.644978	-0.227292	1.137637
C73	C	1.659178	-0.218795	1.072995
H74	H	1.690586	-0.199962	1.159952
H75	H	1.660331	-0.269580	1.148396
H76	H	1.574389	-0.218085	1.148402
H77	H	1.729766	-0.228006	1.062229
H78	H	1.643833	-0.176497	1.062232
H79	H	0.919048	-0.457128	0.456499
H80	H	1.640253	-0.943752	0.230280
H81	H	1.640339	-1.063016	0.230311
H82	H	1.396087	-0.662242	0.376189
H83	H	1.640076	-0.230271	0.543518
C84	C	1.718191	-0.183456	0.977736
C85	C	1.659190	-0.218797	0.934988
H86	H	1.763798	-0.156130	0.955438
H87	H	1.758362	-0.210880	1.003365
H88	H	1.672424	-0.159383	1.003388
H89	H	1.704957	-0.242873	0.909339
H90	H	1.619016	-0.191369	0.909348
H91	H	1.396012	-0.542970	0.376176
C92	C	1.391140	-0.379314	0.870279
C93	C	1.376949	-0.387820	0.934920
H94	H	1.345511	-0.406629	0.847963
H95	H	1.461713	-0.388528	0.859507
H96	H	1.375802	-0.337016	0.859529
H97	H	1.392295	-0.430117	0.945672
H98	H	1.306360	-0.378610	0.945697
H99	H	1.396257	-0.943811	0.376240
C100	C	1.273136	-1.056619	0.374086
C101	C	1.377175	-1.072446	0.387727
H102	H	1.227520	-1.078933	0.401390
H103	H	1.257831	-1.067427	0.331790
H104	H	1.263498	-1.012763	0.379835
H105	H	1.386815	-1.116301	0.381973
H106	H	1.392485	-1.061642	0.430033
H107	H	1.640078	-0.662179	0.230234
C108	C	1.391164	-0.379314	0.469441
C109	C	1.376968	-0.387816	0.534083
H110	H	1.345537	-0.406631	0.447126
H111	H	1.461738	-0.388529	0.458672
H112	H	1.375827	-0.337016	0.458688
H113	H	1.392313	-0.430112	0.544837
H114	H	1.306378	-0.378605	0.544856
C115	C	1.436195	-0.428248	0.709861
C116	C	1.376969	-0.387822	0.672079
H117	H	1.390575	-0.455576	0.732147
H118	H	1.476216	-0.404274	0.738857
H119	H	1.481950	-0.452319	0.684199
H120	H	1.331220	-0.363747	0.697742
H121	H	1.336931	-0.411798	0.643079
C122	C	0.751677	-0.427859	0.427390
C123	C	0.788264	-0.383961	0.383624
H124	H	0.677218	-0.427848	0.427409
H125	H	0.776549	-0.417037	0.468018
H126	H	0.776438	-0.468467	0.416416
H127	H	0.763510	-0.343352	0.394600
H128	H	0.763381	-0.394780	0.342986
C129	C	1.317940	-0.423162	1.030175
C130	C	1.376948	-0.387828	1.072924
H131	H	1.272311	-0.450476	1.052471
H132	H	1.363694	-0.447242	1.004532
H133	H	1.277783	-0.395728	1.004538
H134	H	1.417111	-0.415261	1.098559
H135	H	1.331189	-0.363746	1.098579
H136	H	1.640054	-0.230261	0.662782
H137	H	0.919129	-0.230177	0.230333
H138	H	1.118198	-0.230152	0.230326
H139	H	1.639995	-0.542913	0.230209
