data_functionalizedCrystal
_audit_creation_method	'MofGen! by Chris Wilmer'
_symmetry_space_group_name_H-M	'P1'
_symmetry_Int_Tables_number	1
_symmetry_cell_setting	triclinic
loop_
_symmetry_equiv_pos_as_xyz
  x,y,z
_cell_length_a	18.101398
_cell_length_b	18.101397
_cell_length_c	12.827885
_cell_angle_alpha	90.036582
_cell_angle_beta	90.026581
_cell_angle_gamma	90.015732
loop_
_atom_site_label
_atom_site_type_symbol
_atom_site_fract_x
_atom_site_fract_y
_atom_site_fract_z
Zn1	Zn	1.132192	-0.294887	0.591003
Zn2	Zn	1.132106	-0.418746	0.416243
Zn3	Zn	1.008346	-0.294913	0.416254
Zn4	Zn	1.008325	-0.418681	0.590920
O5	O	1.070242	-0.356807	0.503605
O6	O	1.235814	-0.311334	0.567850
O7	O	1.115662	-0.402358	0.270008
O8	O	1.024820	-0.191277	0.439475
O9	O	1.235751	-0.402333	0.439455
O10	O	1.115809	-0.191258	0.567862
O11	O	1.024736	-0.311378	0.270017
O12	O	0.904711	-0.311315	0.439395
O13	O	1.024783	-0.402221	0.737167
O14	O	0.904695	-0.402247	0.567721
O15	O	1.115788	-0.311271	0.737228
O16	O	1.115641	-0.522371	0.439374
O17	O	1.024700	-0.522323	0.567709
C18	C	0.877832	-0.356777	0.503551
C19	C	0.795518	-0.356782	0.503552
C20	C	0.496427	-0.356828	0.503640
C21	C	0.527737	-0.299330	0.423294
C22	C	0.613355	-0.299484	0.422951
C23	C	0.644809	-0.356805	0.503596
C24	C	0.613705	-0.434818	0.473500
C25	C	0.528060	-0.434499	0.472942
C26	C	0.528041	-0.336990	0.614270
C27	C	0.613691	-0.335253	0.613667
C28	C	0.728669	-0.356796	0.503573
C29	C	0.412567	-0.356842	0.503660
C30	C	1.070179	-0.549218	0.503554
C31	C	1.070220	-0.631532	0.503568
C32	C	1.070314	-0.930623	0.503663
C33	C	1.127373	-0.899297	0.422702
C34	C	1.127570	-0.813678	0.422912
C35	C	1.070267	-0.782240	0.503615
C36	C	1.091426	-0.813241	0.613769
C37	C	1.091868	-0.898886	0.613328
C38	C	0.991945	-0.899127	0.475424
C39	C	0.992332	-0.813478	0.472965
C40	C	1.070240	-0.698381	0.503594
C41	C	1.070344	-1.014482	0.503691
C42	C	1.263404	-0.356838	0.503660
C43	C	1.345718	-0.356851	0.503684
C44	C	1.070293	-0.356736	0.776175
C45	C	1.070314	-0.356706	0.892329
C46	C	1.070326	-0.163645	0.503679
C47	C	1.070362	-0.081331	0.503710
C48	C	1.070235	-0.356824	0.232095
C49	C	1.070357	-0.356646	0.115943
C50	C	1.115351	-0.311691	0.944143
C51	C	1.115375	-0.311659	1.064194
H52	H	0.507157	-0.241303	0.441952
O53	O	1.019254	-0.407722	0.951281
H54	H	1.052421	-0.445365	1.001001
H55	H	1.148070	-0.791736	0.638093
O56	O	1.110498	-0.927235	0.314344
H57	H	1.061205	-0.963668	0.317008
O58	O	0.501219	-0.392454	0.693579
H59	H	0.465545	-0.433951	0.654461
O60	O	0.641222	-0.222852	0.447905
H61	H	0.593526	-0.185348	0.460325
H62	H	0.972696	-0.920792	0.396492
O63	O	1.019259	-0.407687	1.056943
H64	H	1.031915	-0.465824	1.077803
H65	H	0.976377	-0.793224	0.391900
O66	O	1.166404	-0.260671	0.885184
H67	H	1.199394	-0.227688	0.941401
O68	O	0.499205	-0.316522	0.315338
H69	H	0.437953	-0.313693	0.315253
O70	O	0.500621	-0.493172	0.547066
H71	H	0.439303	-0.493380	0.547227
H72	H	0.947532	-0.792085	0.527614
H73	H	1.114332	-0.792721	0.341234
O74	O	1.166453	-0.260610	1.123213
H75	H	1.199430	-0.227666	1.067037
H76	H	0.635121	-0.451932	0.393497
H77	H	1.051139	-0.792874	0.675714
O78	O	0.640687	-0.493093	0.548583
H79	H	0.701953	-0.495192	0.546624
O80	O	0.640443	-0.316829	0.314352
H81	H	0.619664	-0.371967	0.290316
O82	O	0.501543	-0.456770	0.365811
H83	H	0.549891	-0.467664	0.314889
O84	O	0.499464	-0.262945	0.650521
H85	H	0.462405	-0.239455	0.590083
H86	H	1.185107	-0.920768	0.441172
H87	H	0.634025	-0.277844	0.636360
O88	O	0.642027	-0.386697	0.697217
H89	H	0.678895	-0.428617	0.661434
H90	H	1.185622	-0.793138	0.441597
H91	H	1.149153	-0.918808	0.637248
H92	H	1.052130	-0.919605	0.675730
H93	H	0.949432	-0.919385	0.534391
