data_functionalizedCrystal
_audit_creation_method	'MofGen! by Chris Wilmer'
_symmetry_space_group_name_H-M	'P1'
_symmetry_Int_Tables_number	1
_symmetry_cell_setting	triclinic
loop_
_symmetry_equiv_pos_as_xyz
  x,y,z
_cell_length_a	23.096457
_cell_length_b	23.096457
_cell_length_c	23.196402
_cell_angle_alpha	60.000137
_cell_angle_beta	89.998090
_cell_angle_gamma	60.000185
loop_
_atom_site_label
_atom_site_type_symbol
_atom_site_fract_x
_atom_site_fract_y
_atom_site_fract_z
Zr1	Zr	0.557780	0.633742	-0.075649
O2	O	0.465333	0.754530	-0.167694
O3	O	0.586117	0.512955	-0.047436
O4	O	0.586119	0.633746	-0.167703
O5	O	0.465333	0.633735	0.047446
O6	O	0.681399	0.633748	-0.167706
O7	O	0.465331	0.633739	-0.047427
O8	O	0.681397	0.417675	0.047429
O9	O	0.465335	0.849808	-0.167690
O10	O	0.669312	0.562637	-0.035402
O11	O	0.598207	0.562633	0.035403
O12	O	0.598208	0.704849	-0.106196
O13	O	0.527103	0.704844	-0.035391
Zr14	Zr	0.709743	0.633738	0.075656
Zr15	Zr	0.709741	0.633744	-0.075655
Zr16	Zr	0.557782	0.633735	0.075662
Zr17	Zr	0.557783	0.785699	-0.075643
Zr18	Zr	0.709739	0.481781	0.075650
O19	O	0.681405	0.754525	0.047443
O20	O	0.681402	0.754533	-0.167701
O21	O	0.465336	0.754521	0.047451
O22	O	0.802190	0.512950	0.167701
O23	O	0.802187	0.512959	-0.047444
O24	O	0.586121	0.512946	0.167708
O25	O	0.802190	0.633745	-0.047439
O26	O	0.681404	0.633734	0.167710
O27	O	0.586124	0.633732	0.167714
O28	O	0.802191	0.633741	0.047434
O29	O	0.586124	0.849810	-0.167694
O30	O	0.681399	0.417670	0.167701
O31	O	0.802188	0.417672	0.167697
O32	O	0.802186	0.417677	0.047425
O33	O	0.465337	0.849803	-0.047418
O34	O	0.586126	0.849805	-0.047422
O35	O	0.669315	0.562631	0.106203
O36	O	0.740420	0.562635	0.035398
O37	O	0.669316	0.704847	-0.035396
O38	O	0.598210	0.704843	0.035409
C39	C	0.633757	0.443664	-0.000004
C40	C	0.633755	0.379154	-0.000007
C41	C	0.670866	0.348856	-0.036969
C42	C	0.670873	0.288233	-0.036963
C43	C	0.633755	0.257924	-0.000005
C44	C	0.596642	0.288227	0.036965
C45	C	0.596642	0.348842	0.036964
N46	N	0.573351	0.195527	-0.005128
N47	N	0.573352	0.137947	-0.005131
C48	C	0.633754	0.075292	0.000001
N49	N	0.694154	0.072400	0.005123
N50	N	0.694151	0.129989	0.005122
C51	C	0.633751	0.192196	0.000000
C52	C	0.670877	-0.020741	-0.036956
C53	C	0.670886	-0.081368	-0.036945
C54	C	0.596647	-0.081368	0.036978
C55	C	0.596645	-0.020748	0.036972
C56	C	0.633758	0.009564	0.000001
C57	C	0.443681	0.633737	0.000010
C58	C	0.379170	0.633736	0.000013
C59	C	0.385979	0.559505	0.036960
C60	C	0.325364	0.559504	0.036963
C61	C	0.257939	0.633737	0.000005
C62	C	0.251131	0.707978	-0.036943
C63	C	0.311747	0.707977	-0.036940
N64	N	0.135144	0.688995	-0.060144
N65	N	0.077564	0.688991	-0.060147
C66	C	0.075306	0.633745	-0.000007
N67	N	0.132809	0.578491	0.060133
N68	N	0.190395	0.578492	0.060134
C69	C	0.192208	0.633747	-0.000003
C70	C	0.016392	0.559508	0.036946
C71	C	-0.044226	0.559510	0.036951
C72	C	-0.118458	0.707986	-0.036962
C73	C	-0.057840	0.707982	-0.036960
C74	C	0.009583	0.633741	-0.000008
C75	C	0.823842	0.633743	-0.000003
C76	C	0.888353	0.633744	-0.000006
C77	C	0.633758	0.633748	-0.189263
C78	C	0.633757	0.633750	-0.253499
C79	C	0.633766	0.823815	0.000012
C80	C	0.633768	0.888325	0.000014
C81	C	0.596657	0.707962	-0.753278
C82	C	0.596651	0.707966	-0.692925
C83	C	0.633767	0.633734	-0.625789
C84	C	0.670877	0.559492	-0.619008
C85	C	0.670876	0.559490	-0.679361
C86	C	0.695939	0.576865	-0.501861
C87	C	0.695942	0.576871	-0.441512
C88	C	0.633768	0.633739	-0.439641
C89	C	0.571592	0.690615	-0.498134
C90	C	0.571592	0.690613	-0.558487
C91	C	0.633772	0.633729	-0.560343
C92	C	0.596650	0.707982	-0.380986
C93	C	0.596642	0.707983	-0.320631
C94	C	0.670875	0.559507	-0.246714
C95	C	0.670876	0.559507	-0.307069
C96	C	0.633765	0.633747	-0.374202
C97	C	0.633764	0.633732	0.189270
C98	C	0.633765	0.633729	0.253506
C99	C	0.823837	0.443668	-0.000011
C100	C	0.888347	0.379159	-0.000016
C101	C	0.633759	0.443656	0.189262
C102	C	0.633759	0.379144	0.253495
C103	C	0.823840	0.443660	0.189255
C104	C	0.888351	0.379148	0.253486
C105	C	0.443683	0.823820	-0.189248
C106	C	0.379172	0.888331	-0.253479
C107	C	0.443686	0.823812	0.000018
C108	C	0.379176	0.888321	0.000024
C109	C	0.633763	0.823823	-0.189255
C110	C	0.633764	0.888336	-0.253488
C111	C	0.881524	0.348866	-0.036982
C112	C	0.942132	0.288261	-0.037001
C113	C	1.009562	0.257947	-0.000050
C114	C	1.016384	0.288246	0.036917
C115	C	0.955776	0.348853	0.036931
C116	C	0.670876	0.348847	0.320623
C117	C	0.670873	0.288239	0.380982
C118	C	0.633756	0.257925	0.374212
C119	C	0.596634	0.288228	0.307078
C120	C	0.596634	0.348839	0.246720
C121	C	0.955768	0.348855	0.246690
C122	C	1.016389	0.288248	0.307035
C123	C	1.009590	0.257931	0.374176
C124	C	0.942166	0.288230	0.380971
C125	C	0.881546	0.348840	0.320626
C126	C	0.311754	0.918632	-0.246683
C127	C	0.251134	0.979258	-0.307028
C128	C	0.257932	1.009578	-0.374169
C129	C	0.325357	0.979275	-0.380964
C130	C	0.385976	0.918654	-0.320619
C131	C	0.385999	0.918620	0.036983
C132	C	0.325391	0.979242	0.036985
C133	C	0.257960	1.009558	0.000032
C134	C	0.251139	0.979256	-0.036932
C135	C	0.311746	0.918640	-0.036938
C136	C	0.670888	0.918631	-0.246696
C137	C	0.670902	0.979239	-0.307043
C138	C	0.633788	1.009555	-0.374183
C139	C	0.596663	0.979254	-0.380974
C140	C	0.596653	0.918643	-0.320627
H141	H	0.566419	0.373512	0.067063
C142	C	0.807388	0.382154	0.328114
N143	N	0.751533	0.407245	0.333759
H144	H	0.440899	0.893941	0.067079
H145	H	-0.063388	0.768429	-0.067051
H146	H	1.071294	0.263555	0.067001
C147	C	0.555800	0.885336	-0.328110
N148	N	0.525026	0.860254	-0.333752
C149	C	0.191242	1.076256	-0.440544
N150	N	0.141008	1.126474	-0.490535
C151	C	1.076226	0.191271	-0.000067
N152	N	1.126434	0.141048	-0.000080
C153	C	0.332824	1.012628	-0.454826
N154	N	0.338446	1.037747	-0.510461
C155	C	0.963294	0.382161	0.077607
N156	N	0.968961	0.407245	0.108247
C157	C	0.176959	1.012602	-0.077567
N158	N	0.121084	1.037713	-0.108166
C159	C	0.332911	1.012556	0.077656
N160	N	0.338577	1.037645	0.108291
H161	H	0.566415	0.263537	0.301576
H162	H	0.306181	0.893972	-0.067033
C163	C	0.711719	0.254910	0.454823
N164	N	0.742487	0.229806	0.510438
C165	C	0.807356	0.382205	-0.077639
N166	N	0.751494	0.407316	-0.108268
H167	H	1.058956	0.208579	0.423307
H168	H	0.936564	0.263599	-0.067103
C169	C	0.711724	0.885290	-0.172848
N170	N	0.742488	0.860177	-0.117227
C171	C	0.555810	0.254886	0.077618
N172	N	0.525056	0.229773	0.108240
C173	C	0.711741	1.012563	-0.299557
N174	N	0.742499	1.037661	-0.293917
H175	H	0.633802	1.058909	-0.423315
H176	H	0.306205	0.893949	-0.192018
C177	C	0.555869	1.012582	-0.454834
N178	N	0.525152	1.037679	-0.510467
H179	H	0.961317	0.373530	0.192025
C180	C	0.934699	0.254866	0.454833
N181	N	0.929077	0.229730	0.510468
C182	C	0.503194	0.753170	-0.496081
N183	N	0.451678	0.800284	-0.494531
H184	H	0.196239	1.003920	-0.301482
C185	C	0.711699	0.254900	-0.077628
N186	N	0.742447	0.229796	-0.108258
H187	H	0.701088	0.373532	-0.067071
C188	C	0.460142	0.477837	0.077614
N189	N	0.516003	0.416324	0.108237
H190	H	0.701099	0.003937	-0.067058
C191	C	0.555804	0.789628	-0.827122
N192	N	0.525023	0.851140	-0.882744
H193	H	0.701111	-0.106042	-0.067041
C194	C	0.555827	0.012573	0.077642
N195	N	0.525088	0.037665	0.108283
C196	C	0.711703	0.477845	-0.299605
N197	N	0.742454	0.416332	-0.293981
C198	C	0.332853	0.477841	0.077606
N199	N	0.338495	0.416332	0.108217
C200	C	0.176963	0.789635	-0.077600
N201	N	0.121097	0.851142	-0.108223
H202	H	0.306196	0.768426	-0.067025
C203	C	0.090560	0.477841	0.077603
N204	N	0.146422	0.416330	0.108227
C205	C	0.555832	0.789631	-0.700385
N206	N	0.525088	0.851141	-0.706005
H207	H	0.566425	-0.106046	0.067071
H208	H	-0.038674	0.499060	0.067043
H209	H	-0.173356	0.768429	-0.067054
H210	H	0.701101	0.373522	0.326148
H211	H	0.440869	0.893984	-0.326161
C212	C	0.633771	0.191243	0.440615
N213	N	0.633789	0.141014	0.490632
H214	H	0.520965	0.736922	-0.606110
H215	H	0.566429	0.768432	-0.435650
C216	C	1.090549	0.254923	0.299545
N217	N	1.146405	0.229822	0.293901
H218	H	0.566419	0.768435	-0.326161
H219	H	0.701091	0.499066	-0.192052
H220	H	0.746570	0.530563	-0.393891
H221	H	0.746570	0.530548	-0.503372
H222	H	0.701095	0.499052	-0.564342
H223	H	0.208616	1.058915	0.000042
H224	H	0.701095	0.499039	-0.673832
H225	H	0.566411	0.373498	0.192064
