data_functionalizedCrystal
_audit_creation_method	'MofGen! by Chris Wilmer'
_symmetry_space_group_name_H-M	'P1'
_symmetry_Int_Tables_number	1
_symmetry_cell_setting	triclinic
loop_
_symmetry_equiv_pos_as_xyz
  x,y,z
_cell_length_a	8.559649
_cell_length_b	10.723024
_cell_length_c	7.088929
_cell_angle_alpha	83.718137
_cell_angle_beta	95.325015
_cell_angle_gamma	77.123267
loop_
_atom_site_label
_atom_site_type_symbol
_atom_site_fract_x
_atom_site_fract_y
_atom_site_fract_z
O1	O	2.103422	-0.027906	-0.158957
O2	O	1.638923	0.036470	-0.158966
O3	O	1.881888	-0.178393	-0.158954
O4	O	1.860458	0.186957	-0.158969
O5	O	1.914357	-0.207166	0.159022
O6	O	1.671392	0.007698	0.159011
O7	O	2.135892	-0.056678	0.159020
Cu8	Cu	1.906607	-0.027117	0.188049
Cu9	Cu	1.868208	0.006909	-0.187995
O10	O	1.892927	0.158185	0.159008
C11	C	1.595681	0.026962	0.000021
C12	C	1.418460	0.041484	0.000018
C13	C	1.896563	-0.239119	0.000032
C14	C	1.891897	-0.377194	0.000025
C15	C	2.027846	-0.466115	0.000025
C16	C	2.023026	-0.608824	0.000018
C17	C	2.179133	-0.047170	0.000028
C18	C	2.356353	-0.061691	0.000019
C19	C	1.878252	0.218911	0.000017
C20	C	1.882917	0.356987	0.000012
N21	N	1.933626	-0.051052	0.452538
N22	N	1.841202	0.030832	-0.452485
H23	H	1.336043	0.140934	0.000003
C24	C	2.189907	-0.426245	0.000035
H25	H	2.171888	-0.335560	0.000052
H26	H	2.237589	-0.449249	-0.110846
H27	H	2.260224	-0.469322	0.110939
C28	C	2.063044	-0.165690	0.562831
H29	H	2.118111	-0.214469	0.474682
H30	H	2.012890	-0.219036	0.640939
H31	H	2.137994	-0.134278	0.640897
C32	C	2.180262	-0.711972	0.000020
H33	H	2.268791	-0.672010	0.000038
H34	H	2.173186	-0.753735	-0.110864
H35	H	2.195829	-0.773802	0.110921
C36	C	1.467669	-0.196033	0.000030
H37	H	1.576176	-0.188500	0.000046
H38	H	1.436445	-0.231209	-0.110851
H39	H	1.459089	-0.251269	0.110934
H40	H	1.771936	-0.406717	0.000010
C41	C	1.725675	-0.539871	0.000013
H42	H	1.637149	-0.579835	0.000021
H43	H	1.710107	-0.478034	-0.110866
H44	H	1.732756	-0.498119	0.110919
H45	H	1.745415	0.115688	0.465864
