data_functionalizedCrystal
_audit_creation_method	'MofGen! by Chris Wilmer'
_symmetry_space_group_name_H-M	'P1'
_symmetry_Int_Tables_number	1
_symmetry_cell_setting	triclinic
loop_
_symmetry_equiv_pos_as_xyz
  x,y,z
_cell_length_a	17.077404
_cell_length_b	16.625546
_cell_length_c	17.077396
_cell_angle_alpha	89.968950
_cell_angle_beta	89.982756
_cell_angle_gamma	90.022693
loop_
_atom_site_label
_atom_site_type_symbol
_atom_site_fract_x
_atom_site_fract_y
_atom_site_fract_z
Zn1	Zn	1.200039	-0.320990	-0.443833
Zn2	Zn	1.199953	-0.455835	-0.312563
Zn3	Zn	1.068776	-0.321020	-0.312581
Zn4	Zn	1.068740	-0.455785	-0.443787
O5	O	1.134377	-0.388408	-0.378191
O6	O	1.309875	-0.338886	-0.426432
O7	O	1.182531	-0.437985	-0.202719
O8	O	1.086240	-0.208184	-0.330019
O9	O	1.309811	-0.437956	-0.329988
O10	O	1.182679	-0.208162	-0.426449
O11	O	1.086156	-0.338937	-0.202732
O12	O	0.958925	-0.338889	-0.329974
O13	O	1.086178	-0.437871	-0.553640
O14	O	0.958898	-0.437900	-0.426370
O15	O	1.182643	-0.338837	-0.553674
O16	O	1.182496	-0.568661	-0.329943
O17	O	1.086094	-0.568624	-0.426353
C18	C	0.930429	-0.388393	-0.378169
C19	C	0.843180	-0.388406	-0.378179
C20	C	0.802196	-0.440039	-0.428292
C21	C	0.720216	-0.440041	-0.428304
C22	C	0.679220	-0.388413	-0.378199
C23	C	0.720209	-0.336775	-0.328084
C24	C	0.802188	-0.336769	-0.328076
C25	C	0.549339	-0.336790	-0.328103
C26	C	0.467355	-0.336797	-0.328110
C27	C	0.467367	-0.440062	-0.428331
C28	C	0.549346	-0.440057	-0.428323
C29	C	0.590329	-0.388419	-0.378207
C30	C	1.134303	-0.597898	-0.378158
C31	C	1.134343	-0.687520	-0.378170
C32	C	1.134480	-1.015695	-0.378252
C33	C	1.134439	-0.924387	-0.378232
C34	C	1.134411	-0.851610	-0.378211
C35	C	1.134371	-0.760296	-0.378191
C36	C	1.339121	-0.388423	-0.378213
C37	C	1.426371	-0.388429	-0.378223
C38	C	1.134417	-0.388345	-0.582936
C39	C	1.134433	-0.388319	-0.670185
C40	C	1.134473	-0.178099	-0.378241
C41	C	1.134514	-0.088478	-0.378263
C42	C	1.084266	-0.336738	-0.711182
C43	C	1.084279	-0.336720	-0.793162
C44	C	1.134464	-0.388278	-0.834145
C45	C	1.184633	-0.439864	-0.793143
C46	C	1.184615	-0.439886	-0.711164
C47	C	1.184667	-0.439814	-0.964013
C48	C	1.184685	-0.439791	-1.045998
C49	C	1.084331	-0.336648	-1.046011
C50	C	1.084313	-0.336670	-0.964032
C51	C	1.134484	-0.388255	-0.923036
C52	C	1.134383	-0.388412	-0.174243
C53	C	1.134518	-0.388211	-0.086994
H54	H	0.582706	-0.294734	-0.287300
H55	H	1.043405	-0.294749	-0.677820
H56	H	1.043425	-0.294721	-0.826538
H57	H	1.043481	-0.294644	-1.079395
H58	H	1.043452	-0.294682	-0.930667
H59	H	1.225550	-0.481775	-1.079363
N60	N	1.235914	-0.492516	-0.922147
N61	N	1.280720	-0.538546	-0.958745
H62	H	1.316915	-0.575765	-0.929178
N63	N	1.235896	-0.492515	-0.835021
N64	N	1.285935	-0.464128	-0.880777
H65	H	1.322142	-0.501310	-0.910355
H66	H	0.835569	-0.482083	-0.469091
N67	N	0.591211	-0.492804	-0.479501
N68	N	0.554612	-0.538905	-0.524243
H69	H	0.584179	-0.576158	-0.560389
H70	H	0.835556	-0.294720	-0.287273
N71	N	0.678364	-0.492783	-0.479503
N72	N	0.714977	-0.538876	-0.524235
H73	H	0.685420	-0.576127	-0.560398
N74	N	0.425495	-0.492812	-0.479512
N75	N	0.352301	-0.492815	-0.479512
H76	H	0.322725	-0.530073	-0.515652
N77	N	0.425489	-0.284053	-0.276928
N78	N	0.462088	-0.237947	-0.232192
H79	H	0.432522	-0.200694	-0.196045
N80	N	0.678336	-0.284026	-0.276915
N81	N	0.632619	-0.232684	-0.304629
H82	H	0.603046	-0.195429	-0.268489
H83	H	1.225472	-0.481882	-0.677785
