data_functionalizedCrystal
_audit_creation_method	'MofGen! by Chris Wilmer'
_symmetry_space_group_name_H-M	'P1'
_symmetry_Int_Tables_number	1
_symmetry_cell_setting	triclinic
loop_
_symmetry_equiv_pos_as_xyz
  x,y,z
_cell_length_a	17.699104
_cell_length_b	12.811415
_cell_length_c	16.776229
_cell_angle_alpha	84.562504
_cell_angle_beta	89.991971
_cell_angle_gamma	83.669063
loop_
_atom_site_label
_atom_site_type_symbol
_atom_site_fract_x
_atom_site_fract_y
_atom_site_fract_z
O1	O	1.004664	0.132836	-0.075905
O2	O	1.504664	0.632836	0.424095
O3	O	0.784365	0.150082	-0.077150
O4	O	1.284365	0.650082	0.422850
O5	O	0.900056	-0.011348	-0.065478
O6	O	1.400056	0.488652	0.434522
O7	O	0.888973	0.294266	-0.087577
O8	O	1.388973	0.794266	0.412423
O9	O	0.900040	-0.011357	0.067099
O10	O	1.400040	0.488643	0.567099
O11	O	0.784349	0.150072	0.055427
O12	O	1.284349	0.650072	0.555427
O13	O	1.004648	0.132826	0.056672
O14	O	1.504648	0.632826	0.556672
Zn15	Zn	0.894496	0.141448	0.077099
Zn16	Zn	1.394496	0.641448	0.577099
Zn17	Zn	0.894517	0.141461	-0.097577
Zn18	Zn	1.394517	0.641461	0.402423
O19	O	0.888957	0.294256	0.045000
O20	O	1.388957	0.794256	0.545000
C21	C	0.756158	0.149455	-0.010816
C22	C	1.256158	0.649455	0.489184
C23	C	0.672132	0.147590	-0.010680
C24	C	1.172132	0.647590	0.489320
C25	C	0.147638	0.231828	-0.016780
C26	C	0.647638	0.731828	0.483220
C27	C	0.226590	0.233574	-0.016909
C28	C	0.726590	0.733574	0.483091
C29	C	0.274783	0.138809	-0.010056
C30	C	0.774783	0.638809	0.489944
C31	C	0.244021	0.042291	-0.003082
C32	C	0.744021	0.542291	0.496918
C33	C	0.165070	0.040546	-0.002959
C34	C	0.665070	0.540546	0.497041
C35	C	0.562418	0.049326	-0.003578
C36	C	1.062418	0.549326	0.496422
C37	C	0.641373	0.051079	-0.003699
C38	C	1.141373	0.551079	0.496301
C39	C	0.623938	0.242354	-0.017527
C40	C	1.123938	0.742354	0.482473
C41	C	0.544988	0.240610	-0.017405
C42	C	1.044988	0.740610	0.482595
C43	C	0.514232	0.144093	-0.010435
C44	C	1.014232	0.644093	0.489565
C45	C	0.428624	0.142200	-0.010297
C46	C	0.928624	0.642200	0.489703
C47	C	0.360390	0.140700	-0.010188
C48	C	0.860390	0.640700	0.489812
C49	C	0.899427	-0.050455	0.003636
C50	C	1.399427	0.449545	0.503636
C51	C	0.897566	-0.166969	0.012057
C52	C	1.397566	0.333031	0.512057
C53	C	0.894073	-0.385889	-0.116673
C54	C	1.394073	0.114111	0.383327
C55	C	0.892325	-0.495365	-0.108765
C56	C	1.392325	0.004635	0.391235
C57	C	0.892316	-0.495396	0.035779
C58	C	1.392316	0.004604	0.535779
C59	C	0.894064	-0.385921	0.027871
C60	C	1.394064	0.114079	0.527871
C61	C	0.894944	-0.331172	-0.048357
C62	C	1.394944	0.168828	0.451643
C63	C	0.896697	-0.221695	-0.056264
C64	C	1.396697	0.278305	0.443736
C65	C	0.896683	-0.221728	0.088280
C66	C	1.396683	0.278272	0.588280
C67	C	0.894935	-0.331203	0.096187
C68	C	1.394935	0.168797	0.596187
C69	C	1.032856	0.133453	-0.009664
C70	C	1.532856	0.633453	0.490336
C71	C	1.116881	0.135318	-0.009805
C72	C	1.616881	0.635318	0.490195
C73	C	0.889586	0.333364	-0.024116
C74	C	1.389586	0.833364	0.475884
C75	C	0.891447	0.449878	-0.032542
C76	C	1.391447	0.949878	0.467458
N77	N	0.894488	0.141438	0.196311
N78	N	1.394488	0.641438	0.696311
N79	N	0.894531	0.141462	-0.216788
N80	N	1.394531	0.641462	0.283212
C81	C	0.945732	0.069986	0.243194
C82	C	1.445732	0.569986	0.743194
C83	C	0.945736	0.069985	0.326647
C84	C	1.445736	0.569985	0.826647
C85	C	0.894499	0.141442	0.363214
C86	C	1.394499	0.641442	0.863214
C87	C	0.843250	0.212897	0.316324
C88	C	1.343250	0.712897	0.816324
C89	C	0.843243	0.212892	0.232874
C90	C	1.343243	0.712892	0.732874
C91	C	0.843278	0.212918	0.652870
C92	C	1.343278	0.712918	1.152870
C93	C	0.843290	0.212919	0.736326
C94	C	1.343290	0.712919	1.236326
C95	C	0.945771	0.070011	0.746643
C96	C	1.445771	0.570011	1.246643
C97	C	0.945763	0.070006	0.663192
C98	C	1.445763	0.570006	1.163192
C99	C	0.894512	0.141457	0.616311
C100	C	1.394512	0.641457	1.116311
C101	C	0.894507	0.141456	0.525822
C102	C	1.394507	0.641456	1.025822
C103	C	0.894507	0.141449	0.453700
C104	C	1.394507	0.641449	0.953700
H105	H	0.505752	0.317777	-0.022981
H106	H	1.005752	0.817777	0.477019
C107	C	0.959376	-0.376887	0.222681
C108	C	1.459376	0.123113	0.722681
C109	C	0.893971	-0.391385	0.179977
C110	C	1.393971	0.108615	0.679977
H111	H	0.958778	-0.414034	0.274411
H112	H	1.458778	0.085966	0.774411
H113	H	1.003162	-0.402940	0.194864
H114	H	1.503162	0.097060	0.694864
H115	H	0.960534	-0.303852	0.227739
H116	H	1.460534	0.196148	0.727739
H117	H	0.892815	-0.464420	0.174913
H118	H	1.392815	0.035580	0.674913
H119	H	0.850172	-0.365337	0.207800
H120	H	1.350172	0.134663	0.707800
C121	C	1.047027	-0.071284	0.261783
C122	C	1.547027	0.428716	0.761783
C123	C	1.002052	-0.008565	0.203004
C124	C	1.502052	0.491435	0.703004
H125	H	1.081793	-0.119784	0.236972
H126	H	1.581793	0.380216	0.736972
H127	H	1.074389	-0.027636	0.291162
H128	H	1.574389	0.472364	0.791162
H129	H	1.015400	-0.108980	0.297071
H130	H	1.515400	0.391020	0.797071
H131	H	1.033679	0.029138	0.167719
H132	H	1.533679	0.529138	0.667719
H133	H	0.974689	-0.052218	0.173612
H134	H	1.474689	0.447782	0.673612
H135	H	0.987462	0.011803	0.364819
H136	H	1.487462	0.511803	0.864819
H137	H	0.987487	0.011823	0.633422
H138	H	1.487487	0.511823	1.133422
C139	C	0.305241	0.346516	-0.093256
C140	C	0.805241	0.846516	0.406744
C141	C	0.260385	0.339671	-0.024598
C142	C	0.760385	0.839671	0.475402
H143	H	0.326096	0.412025	-0.098012
H144	H	0.826096	0.912025	0.401988
H145	H	0.345246	0.290347	-0.089185
H146	H	0.845246	0.790347	0.410815
H147	H	0.274797	0.341836	-0.139137
H148	H	0.774797	0.841836	0.360863
H149	H	0.290831	0.344344	0.021285
H150	H	0.790831	0.844344	0.521285
H151	H	0.220375	0.395856	-0.028663
H152	H	0.720375	0.895856	0.471337
H153	H	0.648988	0.320944	-0.023206
H154	H	1.148988	0.820944	0.476794
H155	H	0.680611	-0.026095	0.001879
H156	H	1.180611	0.473905	0.501879
C157	C	0.899359	-0.053926	0.140345
C158	C	1.399359	0.446074	0.640345
C159	C	0.897638	-0.161579	0.163379
C160	C	1.397638	0.338421	0.663379
H161	H	0.899946	-0.016795	0.186708
H162	H	1.399946	0.483205	0.686708
H163	H	0.943727	-0.044098	0.109943
H164	H	1.443727	0.455902	0.609943
H165	H	0.855562	-0.027874	0.108771
H166	H	1.355562	0.472126	0.608771
H167	H	0.941438	-0.187633	0.194948
H168	H	1.441438	0.312367	0.694948
H169	H	0.853265	-0.171414	0.193794
H170	H	1.353265	0.328586	0.693794
C171	C	0.961761	-0.072874	0.850824
C172	C	1.461761	0.427126	1.350824
C173	C	1.002101	-0.008543	0.798179
C174	C	1.502101	0.491457	1.298179
H175	H	0.996537	-0.121370	0.882635
H176	H	1.496537	0.378630	1.382635
H177	H	0.931255	-0.030319	0.884541
H178	H	1.431255	0.469681	1.384541
H179	H	0.930142	-0.110575	0.820995
H180	H	1.430142	0.389425	1.320995
H181	H	1.033716	0.029164	0.828008
H182	H	1.533716	0.529164	1.328008
H183	H	1.032620	-0.051104	0.764458
H184	H	1.532620	0.448896	1.264458
H185	H	0.283266	-0.034868	0.002493
H186	H	0.783266	0.465132	0.502493
H187	H	0.891593	-0.539991	0.097841
H188	H	1.391593	-0.039991	0.597841
C189	C	0.827255	0.355756	0.128680
C190	C	1.327255	0.855756	0.628680
C191	C	0.786917	0.291435	0.181334
C192	C	1.286917	0.791435	0.681334
H193	H	0.792478	0.404239	0.096860
H194	H	1.292478	0.904239	0.596860
H195	H	0.858870	0.393464	0.158497
H196	H	1.358870	0.893464	0.658497
H197	H	0.857766	0.313185	0.094966
H198	H	1.357766	0.813185	0.594966
H199	H	0.756410	0.334006	0.215052
H200	H	1.256410	0.834006	0.715052
H201	H	0.755289	0.253725	0.151515
H202	H	1.255289	0.753725	0.651515
H203	H	0.801529	0.271075	0.346102
H204	H	1.301529	0.771075	0.846102
H205	H	0.140030	-0.038042	0.002719
H206	H	0.640030	0.461958	0.502719
H207	H	0.537387	-0.029263	0.002099
H208	H	1.037387	0.470737	0.502099
H209	H	0.801565	0.271110	0.766097
H210	H	1.301565	0.771110	1.266097
H211	H	0.801548	0.271098	0.614705
H212	H	1.301548	0.771098	1.114705
H213	H	0.108404	0.308997	-0.022354
H214	H	0.608404	0.808997	0.477646
H215	H	0.894796	-0.341313	-0.178741
H216	H	1.394796	0.158687	0.321259
C217	C	0.826801	-0.517082	-0.230383
C218	C	1.326801	-0.017082	0.269617
C219	C	0.891361	-0.555515	-0.183858
C220	C	1.391361	-0.055515	0.316142
H221	H	0.826207	-0.554215	-0.276745
H222	H	1.326207	-0.054215	0.223255
H223	H	0.782442	-0.526920	-0.199970
H224	H	1.282442	-0.026920	0.300030
H225	H	0.827979	-0.444048	-0.245999
H226	H	1.327979	0.055952	0.254001
H227	H	0.890181	-0.628548	-0.168237
H228	H	1.390181	-0.128548	0.331763
H229	H	0.935732	-0.545687	-0.214277
H230	H	1.435732	-0.045687	0.285723
H231	H	0.897416	-0.177120	-0.118333
H232	H	1.397416	0.322880	0.381667
