data_functionalizedCrystal
_audit_creation_method	'MofGen! by Chris Wilmer'
_symmetry_space_group_name_H-M	'P1'
_symmetry_Int_Tables_number	1
_symmetry_cell_setting	triclinic
loop_
_symmetry_equiv_pos_as_xyz
  x,y,z
_cell_length_a	14.044202
_cell_length_b	12.503572
_cell_length_c	17.699083
_cell_angle_alpha	86.484775
_cell_angle_beta	91.762142
_cell_angle_gamma	86.162225
loop_
_atom_site_label
_atom_site_type_symbol
_atom_site_fract_x
_atom_site_fract_y
_atom_site_fract_z
O1	O	-1.262759	0.089270	0.178468
O2	O	-0.929426	0.422603	0.511802
O3	O	-0.596092	0.755937	0.845135
O4	O	-0.986806	0.089284	0.171877
O5	O	-0.653472	0.422617	0.505210
O6	O	-0.320139	0.755951	0.838544
O7	O	-1.132578	0.089267	0.065522
O8	O	-0.799245	0.422600	0.398855
O9	O	-0.465911	0.755934	0.732189
O10	O	-1.116987	0.089287	0.284823
O11	O	-0.783653	0.422620	0.618157
O12	O	-0.450320	0.755953	0.951490
O13	O	-1.121615	-0.089374	0.073535
O14	O	-0.788282	0.243960	0.406868
O15	O	-0.454948	0.577293	0.740202
O16	O	-0.975843	-0.089357	0.179890
O17	O	-0.642509	0.243977	0.513223
O18	O	-0.309176	0.577310	0.846557
O19	O	-1.251796	-0.089371	0.186481
O20	O	-0.918463	0.243963	0.519815
O21	O	-0.585129	0.577296	0.853148
Cu22	Cu	-1.112818	-0.105675	0.183917
Cu23	Cu	-0.779485	0.227658	0.517251
Cu24	Cu	-0.446152	0.560992	0.850584
Cu25	Cu	-1.125783	0.105588	0.174441
Cu26	Cu	-0.792450	0.438922	0.507774
Cu27	Cu	-0.459117	0.772255	0.841108
O28	O	-1.106024	-0.089354	0.292836
O29	O	-0.772690	0.243979	0.626170
O30	O	-0.439357	0.577313	0.959503
C31	C	-1.126538	-0.000053	0.041293
C32	C	-0.793205	0.333280	0.374626
C33	C	-0.459871	0.666613	0.707960
C34	C	-1.124862	-0.000054	-0.042841
C35	C	-0.791528	0.333280	0.290493
C36	C	-0.458195	0.666613	0.623826
C37	C	-0.946017	-0.000035	0.173001
C38	C	-0.612683	0.333299	0.506334
C39	C	-0.279350	0.666632	0.839667
C40	C	-0.840811	-0.000030	0.164402
C41	C	-0.507477	0.333304	0.497735
C42	C	-0.174144	0.666637	0.831068
N43	N	-1.103706	-0.254266	0.190582
N44	N	-0.770373	0.079067	0.523916
N45	N	-0.437040	0.412400	0.857249
C46	C	-0.590420	-0.000036	0.209661
C47	C	-0.257087	0.333297	0.542994
C48	C	0.076247	0.666631	0.876327
C49	C	-0.648189	-0.000040	0.148694
C50	C	-0.314856	0.333294	0.482027
C51	C	0.018478	0.666627	0.815361
C52	C	-0.755374	-0.000034	0.157436
C53	C	-0.422040	0.333299	0.490769
C54	C	-0.088707	0.666633	0.824103
C55	C	-0.483225	-0.000041	0.200920
C56	C	-0.149892	0.333292	0.534253
C57	C	0.183441	0.666625	0.867587
C58	C	-0.292586	-0.000049	0.185356
C59	C	0.040748	0.333284	0.518689
C60	C	0.374081	0.666617	0.852023
C61	C	-0.397793	-0.000046	0.193950
C62	C	-0.064459	0.333287	0.527283
C63	C	0.268874	0.666621	0.860616
C64	C	-1.090302	-0.473380	0.200394
C65	C	-0.756969	-0.140047	0.533727
C66	C	-0.423636	0.193287	0.867060
C67	C	-1.148304	-0.526714	0.157962
C68	C	-0.814971	-0.193380	0.491295
C69	C	-0.481637	0.139953	0.824628
C70	C	-1.140846	-0.648636	0.163421
C71	C	-0.807512	-0.315303	0.496754
C72	C	-0.474179	0.018031	0.830087
C73	C	-1.097759	-0.351447	0.194935
C74	C	-0.764426	-0.018113	0.528269
C75	C	-0.431093	0.315220	0.861602
N76	N	-1.134903	0.254179	0.167770
N77	N	-0.801570	0.587513	0.501104
N78	N	-0.468236	0.920846	0.834437
C79	C	-1.210427	-0.000060	-0.085557
C80	C	-0.877094	0.333274	0.247777
C81	C	-0.543761	0.666607	0.581110
C82	C	-1.208847	-0.000050	-0.164610
C83	C	-0.875514	0.333283	0.168724
C84	C	-0.542181	0.666617	0.502057
C85	C	-1.121700	-0.000042	-0.200945
C86	C	-0.788367	0.333291	0.132389
C87	C	-0.455034	0.666624	0.465722
C88	C	-1.036128	-0.000033	-0.158223
C89	C	-0.702795	0.333300	0.175110
C90	C	-0.369462	0.666633	0.508444
C91	C	-1.037710	-0.000035	-0.079172
C92	C	-0.704376	0.333298	0.254161
C93	C	-0.371043	0.666632	0.587495
C94	C	-1.029749	-0.000024	-0.477027
C95	C	-0.696415	0.333309	-0.143694
C96	C	-0.363082	0.666643	0.189640
C97	C	-1.028174	-0.000025	-0.556083
C98	C	-0.694840	0.333308	-0.222750
C99	C	-0.361507	0.666641	0.110583
C100	C	-1.200886	-0.000039	-0.562464
C101	C	-0.867553	0.333294	-0.229131
C102	C	-0.534219	0.666628	0.104202
C103	C	-1.202468	-0.000041	-0.483413
C104	C	-0.869134	0.333292	-0.150080
C105	C	-0.535801	0.666626	0.183253
C106	C	-1.116897	-0.000026	-0.440699
C107	C	-0.783563	0.333307	-0.107366
C108	C	-0.450230	0.666640	0.225968
C109	C	-1.118611	-0.000035	-0.354981
C110	C	-0.785278	0.333299	-0.021648
C111	C	-0.451944	0.666632	0.311686
C112	C	-1.119984	-0.000042	-0.286661
C113	C	-0.786651	0.333292	0.046673
C114	C	-0.453318	0.666625	0.380006
C115	C	-1.112064	-0.000031	0.317065
C116	C	-0.778731	0.333302	0.650399
C117	C	-0.445397	0.666636	0.983732
C118	C	-1.113741	-0.000024	0.401199
C119	C	-0.780407	0.333310	0.734532
C120	C	-0.447074	0.666643	1.067865
H121	H	-0.617153	0.000031	0.089930
H122	H	-0.283820	0.333364	0.423263
H123	H	0.049513	0.666697	0.756597
H124	H	-0.957204	-0.000021	-0.585665
H125	H	-0.623870	0.333312	-0.252331
H126	H	-0.290537	0.666645	0.081002
H127	H	-0.621459	-0.000027	0.268417
H128	H	-0.288125	0.333306	0.601750
H129	H	0.045208	0.666639	0.935083
Br130	Br	-1.240805	-0.450207	0.090927
Br131	Br	-0.907471	-0.116874	0.424261
Br132	Br	-0.574138	0.216459	0.757594
H133	H	-1.035048	-0.519281	0.240818
H134	H	-0.701715	-0.185948	0.574152
H135	H	-0.368382	0.147386	0.907485
Br136	Br	-1.328704	-0.000086	-0.036252
Br137	Br	-0.995371	0.333248	0.297081
Br138	Br	-0.662037	0.666581	0.630415
Br139	Br	-1.324977	-0.000058	-0.222579
Br140	Br	-0.991644	0.333276	0.110755
Br141	Br	-0.658311	0.666609	0.444088
H142	H	-1.273431	-0.000053	-0.453833
H143	H	-0.940098	0.333281	-0.120500
H144	H	-0.606765	0.666614	0.212833
H145	H	-1.270563	-0.000046	-0.597252
H146	H	-0.937229	0.333288	-0.263919
H147	H	-0.603896	0.666621	0.069414
Br148	Br	-0.913617	0.000003	-0.419067
Br149	Br	-0.580283	0.333336	-0.085734
Br150	Br	-0.246950	0.666669	0.247599
Br151	Br	-0.917857	-0.000005	-0.207535
Br152	Br	-0.584523	0.333329	0.125799
Br153	Br	-0.251190	0.666662	0.459132
Br154	Br	-0.921581	-0.000019	-0.021200
Br155	Br	-0.588248	0.333315	0.312134
Br156	Br	-0.254914	0.666648	0.645467
