data_functionalizedCrystal
_audit_creation_method	'MofGen! by Chris Wilmer'
_symmetry_space_group_name_H-M	'P1'
_symmetry_Int_Tables_number	1
_symmetry_cell_setting	triclinic
loop_
_symmetry_equiv_pos_as_xyz
  x,y,z
_cell_length_a	16.120530
_cell_length_b	12.594516
_cell_length_c	16.120297
_cell_angle_alpha	92.877768
_cell_angle_beta	90.128140
_cell_angle_gamma	87.111852
loop_
_atom_site_label
_atom_site_type_symbol
_atom_site_fract_x
_atom_site_fract_y
_atom_site_fract_z
Zn1	Zn	1.247493	-0.539249	-0.534603
Zn2	Zn	1.747493	-0.039249	-0.034603
Zn3	Zn	1.254461	-0.708692	-0.395557
Zn4	Zn	1.754461	-0.208692	0.104443
Zn5	Zn	1.115482	-0.521263	-0.388519
Zn6	Zn	1.615482	-0.021263	0.111481
Zn7	Zn	1.108417	-0.707712	-0.527526
Zn8	Zn	1.608417	-0.207712	-0.027526
O9	O	1.181463	-0.619229	-0.461551
O10	O	1.681463	-0.119229	0.038449
O11	O	1.364785	-0.569664	-0.522065
O12	O	1.864785	-0.069664	-0.022065
O13	O	1.241897	-0.676712	-0.278258
O14	O	1.741897	-0.176712	0.221742
O15	O	1.133034	-0.374707	-0.407914
O16	O	1.633034	0.125293	0.092086
O17	O	1.369904	-0.694153	-0.419909
O18	O	1.869904	-0.194153	0.080091
O19	O	1.230022	-0.387921	-0.515241
O20	O	1.730022	0.112079	-0.015241
O21	O	1.139790	-0.539009	-0.273087
O22	O	1.639790	-0.039009	0.226913
O23	O	0.998178	-0.538058	-0.401052
O24	O	1.498178	-0.038058	0.098948
O25	O	1.120993	-0.692482	-0.644831
O26	O	1.620993	-0.192482	-0.144831
O27	O	0.992987	-0.675042	-0.503180
O28	O	1.492987	-0.175042	-0.003180
O29	O	1.223172	-0.568713	-0.650030
O30	O	1.723172	-0.068713	-0.150030
O31	O	1.235047	-0.857504	-0.413047
O32	O	1.735047	-0.357504	0.086953
O33	O	1.127749	-0.856784	-0.510004
O34	O	1.627749	-0.356784	-0.010004
C35	C	0.965410	-0.604493	-0.450585
C36	C	1.465410	-0.104493	0.049415
C37	C	0.872980	-0.598215	-0.445913
C38	C	1.372980	-0.098215	0.054087
C39	C	0.703749	-0.586730	-0.437391
C40	C	1.203749	-0.086730	0.062609
C41	C	0.660015	-0.651810	-0.485772
C42	C	1.160015	-0.151810	0.014228
C43	C	0.565849	-0.645420	-0.481031
C44	C	1.065849	-0.145420	0.018969
C45	C	0.797924	-0.593119	-0.442132
C46	C	1.297924	-0.093119	0.057868
C47	C	1.181409	-0.895766	-0.461540
C48	C	1.681409	-0.395766	0.038460
C49	C	1.181461	-1.014076	-0.461567
C50	C	1.681461	-0.514076	0.038433
C51	C	1.123098	-1.082974	-0.514263
C52	C	1.623098	-0.582974	-0.014263
C53	C	1.106686	-1.147787	-0.437359
C54	C	1.606686	-0.647787	0.062641
C55	C	1.197948	-1.160068	-0.538488
C56	C	1.697948	-0.660068	-0.038488
C57	C	1.165010	-1.077326	-0.384621
C58	C	1.665010	-0.577326	0.115379
C59	C	1.256305	-1.089606	-0.485803
C60	C	1.756305	-0.589606	0.014197
C61	C	1.239924	-1.154387	-0.408848
C62	C	1.739924	-0.654387	0.091152
C63	C	1.398360	-0.634024	-0.472561
C64	C	1.898360	-0.134024	0.027439
C65	C	1.490789	-0.640328	-0.477253
C66	C	1.990789	-0.140328	0.022747
C67	C	1.170517	-0.632495	-0.678446
C68	C	1.670517	-0.132495	-0.178446
C69	C	1.165853	-0.638148	-0.770874
C70	C	1.665853	-0.138148	-0.270874
C71	C	1.181539	-0.341615	-0.461582
C72	C	1.681539	0.158385	0.038418
C73	C	1.181572	-0.223313	-0.461595
C74	C	1.681572	0.276687	0.038405
C75	C	1.157306	-0.648443	-0.940100
C76	C	1.657306	-0.148443	-0.440100
C77	C	1.205784	-0.589708	-0.983863
C78	C	1.705784	-0.089708	-0.483863
C79	C	1.201029	-0.595436	-1.078026
C80	C	1.701029	-0.095436	-0.578026
C81	C	1.162061	-0.642716	-0.845928
C82	C	1.662061	-0.142716	-0.345928
C83	C	1.192414	-0.605942	-0.245502
C84	C	1.692414	-0.105942	0.254498
C85	C	1.197240	-0.600000	-0.153083
C86	C	1.697240	-0.100000	0.346917
H87	H	1.073662	-1.051620	-0.558754
H88	H	1.573662	-0.551620	-0.058754
H89	H	0.670473	-0.526218	-0.392412
H90	H	1.170473	-0.026218	0.107588
H91	H	0.693293	-0.712326	-0.530755
H92	H	1.193293	-0.212326	-0.030755
O93	O	1.103611	-0.713546	-0.979893
O94	O	1.603611	-0.213546	-0.479893
C95	C	1.049807	-0.778603	-1.111397
C96	C	1.549807	-0.278603	-0.611397
C97	C	1.110663	-0.704846	-1.066425
C98	C	1.610663	-0.204846	-0.566425
H99	H	1.055476	-0.771577	-1.181365
H100	H	1.555476	-0.271577	-0.681365
H101	H	1.065232	-0.864435	-1.095187
H102	H	1.565232	-0.364435	-0.595187
H103	H	0.983611	-0.754342	-1.090922
H104	H	1.483611	-0.254342	-0.590922
H105	H	1.176881	-0.729010	-1.086876
H106	H	1.676881	-0.229010	-0.586876
H107	H	1.095167	-0.619031	-1.082636
H108	H	1.595167	-0.119031	-0.582636
H109	H	1.250858	-0.535120	-0.950612
H110	H	1.750858	-0.035120	-0.450612
H111	H	1.043442	-1.173578	-0.416881
H112	H	1.543442	-0.673578	0.083119
H113	H	1.289330	-1.185534	-0.364243
H114	H	1.789330	-0.685534	0.135757
O115	O	1.148310	-1.034186	-0.307060
O116	O	1.648310	-0.534186	0.192940
C117	C	1.129566	-0.873588	-0.220020
C118	C	1.629566	-0.373588	0.279980
C119	C	1.148472	-0.922304	-0.307897
C120	C	1.648472	-0.422304	0.192103
H121	H	1.129708	-0.783125	-0.220664
H122	H	1.629708	-0.283125	0.279336
H123	H	1.065998	-0.897931	-0.199253
H124	H	1.565998	-0.397931	0.300747
H125	H	1.179059	-0.903656	-0.175066
H126	H	1.679059	-0.403656	0.324934
H127	H	1.099032	-0.892260	-0.352911
H128	H	1.599032	-0.392260	0.147089
H129	H	1.212065	-0.897966	-0.328594
H130	H	1.712065	-0.397966	0.171406
H131	H	1.211849	-1.196211	-0.603528
H132	H	1.711849	-0.696211	-0.103528
O133	O	1.331701	-1.058889	-0.510417
O134	O	1.831701	-0.558889	-0.010417
C135	C	1.434289	-1.066367	-0.619321
C136	C	1.934289	-0.566367	-0.119321
C137	C	1.348884	-1.101213	-0.591547
C138	C	1.848884	-0.601213	-0.091547
H139	H	1.448216	-1.100590	-0.684910
H140	H	1.948216	-0.600590	-0.184910
H141	H	1.433705	-0.975769	-0.618537
H142	H	1.933705	-0.475769	-0.118537
H143	H	1.484203	-1.097008	-0.575043
H144	H	1.984203	-0.597008	-0.075043
H145	H	1.298922	-1.070646	-0.635799
H146	H	1.798922	-0.570646	-0.135799
H147	H	1.349537	-1.191813	-0.592307
H148	H	1.849537	-0.691813	-0.092307
