data_functionalizedCrystal
_audit_creation_method	'MofGen! by Chris Wilmer'
_symmetry_space_group_name_H-M	'P1'
_symmetry_Int_Tables_number	1
_symmetry_cell_setting	triclinic
loop_
_symmetry_equiv_pos_as_xyz
  x,y,z
_cell_length_a	27.440280
_cell_length_b	21.606444
_cell_length_c	21.606444
_cell_angle_alpha	60.001331
_cell_angle_beta	90.005497
_cell_angle_gamma	59.997270
loop_
_atom_site_label
_atom_site_type_symbol
_atom_site_fract_x
_atom_site_fract_y
_atom_site_fract_z
Zr1	Zr	0.469493	0.677381	-0.081126
O2	O	0.391669	0.806515	-0.179961
O3	O	0.493351	0.548258	-0.050831
O4	O	0.493344	0.677382	-0.179949
O5	O	0.391679	0.677387	0.051011
O6	O	0.573547	0.677370	-0.179936
O7	O	0.391675	0.677391	-0.050843
O8	O	0.573558	0.446391	0.051033
O9	O	0.391668	0.908366	-0.179958
O10	O	0.563379	0.601355	-0.037897
O11	O	0.503528	0.601361	0.038106
O12	O	0.503520	0.753388	-0.113914
O13	O	0.443669	0.753393	-0.037911
Zr14	Zr	0.597413	0.677355	0.081340
Zr15	Zr	0.597407	0.677362	-0.081106
Zr16	Zr	0.469499	0.677374	0.081319
Zr17	Zr	0.469491	0.839821	-0.081121
Zr18	Zr	0.597415	0.514915	0.081335
O19	O	0.573555	0.806478	0.051044
O20	O	0.573546	0.806488	-0.179932
O21	O	0.391678	0.806505	0.051016
O22	O	0.675237	0.548221	0.180175
O23	O	0.675228	0.548231	-0.050802
O24	O	0.493360	0.548248	0.180146
O25	O	0.675227	0.677349	-0.050798
O26	O	0.573561	0.677354	0.180163
O27	O	0.493359	0.677366	0.180150
O28	O	0.675231	0.677345	0.051056
O29	O	0.493342	0.908351	-0.179942
O30	O	0.573563	0.446385	0.180155
O31	O	0.675238	0.446370	0.180172
O32	O	0.675233	0.446376	0.051049
O33	O	0.391673	0.908361	-0.050835
O34	O	0.493348	0.908345	-0.050819
O35	O	0.563385	0.601349	0.114128
O36	O	0.623237	0.601343	0.038125
O37	O	0.563378	0.753375	-0.037892
O38	O	0.503527	0.753381	0.038111
C39	C	0.533455	0.474180	0.000100
C40	C	0.533455	0.405220	0.000098
C41	C	0.564696	0.372819	-0.039576
C42	C	0.564698	0.308019	-0.039571
C43	C	0.533456	0.275626	0.000104
C44	C	0.502214	0.308029	0.039783
C45	C	0.502216	0.372823	0.039782
C46	C	0.502207	0.046720	0.039789
C47	C	0.502206	-0.018078	0.039786
C48	C	0.564689	-0.018084	-0.039563
C49	C	0.564691	0.046710	-0.039564
C50	C	0.533452	0.079104	0.000117
C51	C	0.533451	0.149367	0.000112
C52	C	0.533453	0.205369	0.000105
C53	C	0.373452	0.677392	0.000081
C54	C	0.319149	0.677400	0.000073
C55	C	0.013697	0.597994	0.039808
C56	C	-0.037322	0.597990	0.039815
O57	O	-0.037136	0.530497	0.073584
N58	N	-0.094084	0.677348	0.000134
C59	C	-0.099827	0.756716	-0.039550
O60	O	-0.152793	0.824217	-0.073301
C61	C	-0.048809	0.756720	-0.039552
C62	C	0.007952	0.677357	0.000125
C63	C	0.070456	0.518637	0.079483
C64	C	0.121471	0.518642	0.079475
C65	C	0.115726	0.598005	0.039792
C66	C	0.058967	0.677362	0.000117
C67	C	-0.054553	0.836088	-0.079231
C68	C	-0.003529	0.836085	-0.079229
C69	C	0.053233	0.756721	-0.039552
C70	C	0.104238	0.756729	-0.039574
N71	N	0.161000	0.677371	0.000107
C72	C	0.166744	0.598009	0.039790
C73	C	-0.206966	0.756702	-0.039542
C74	C	-0.257983	0.756699	-0.039545
C75	C	-0.195474	0.597972	0.039821
C76	C	-0.144456	0.597976	0.039819
C77	C	-0.150204	0.677344	0.000139
C78	C	0.273877	0.598025	0.039770
C79	C	0.324893	0.598038	0.039756
C80	C	0.262380	0.756764	-0.039607
C81	C	0.211367	0.756753	-0.039597
C82	C	0.217120	0.677376	0.000097
O83	O	0.104098	0.824187	-0.073323
O84	O	0.219712	0.530520	0.073543
C85	C	0.693454	0.677344	0.000132
C86	C	0.747757	0.677336	0.000141
C87	C	0.533445	0.677377	-0.203088
C88	C	0.533442	0.677380	-0.272050
C89	C	0.533451	0.880556	0.000113
C90	C	0.533451	0.949516	0.000116
C91	C	0.502196	0.756739	-0.344129
C92	C	0.502201	0.756736	-0.408924
C93	C	0.533449	0.677374	-0.401638
C94	C	0.564699	0.598009	-0.329552
C95	C	0.564697	0.598013	-0.264759
C96	C	0.564708	0.597994	-0.590855
C97	C	0.564707	0.597997	-0.655656
C98	C	0.502213	0.756718	-0.735020
C99	C	0.502211	0.756721	-0.670227
C100	C	0.533463	0.677357	-0.598146
C101	C	0.533458	0.677360	-0.527889
C102	C	0.533451	0.677370	-0.471894
C103	C	0.533461	0.677359	0.203301
C104	C	0.533464	0.677356	0.272264
C105	C	0.693456	0.474156	0.000126
C106	C	0.747759	0.405188	0.000132
C107	C	0.533463	0.474171	0.203295
C108	C	0.533466	0.405208	0.272255
C109	C	0.693464	0.474148	0.203320
C110	C	0.747770	0.405176	0.272289
C111	C	0.373442	0.880589	-0.203107
C112	C	0.319136	0.949560	-0.272075
C113	C	0.373450	0.880580	0.000088
C114	C	0.319147	0.949548	0.000082
C115	C	0.533443	0.880565	-0.203081
C116	C	0.533440	0.949528	-0.272041
C117	C	0.742016	0.372806	-0.039554
C118	C	0.793035	0.308012	-0.039564
C119	C	0.849797	0.275597	0.000119
C120	C	0.855539	0.307985	0.039806
C121	C	0.804521	0.372782	0.039811
C122	C	0.564713	0.372816	0.344329
C123	C	0.564713	0.308027	0.409131
C124	C	0.533471	0.275627	0.401857
C125	C	0.502220	0.308025	0.329775
C126	C	0.502217	0.372818	0.264975
C127	C	0.804520	0.372784	0.265005
C128	C	0.855551	0.307987	0.329802
C129	C	0.849832	0.275580	0.401883
C130	C	0.793076	0.307979	0.409166
C131	C	0.742046	0.372779	0.344369
C132	C	0.262386	0.981960	-0.264791
C133	C	0.211354	1.046777	-0.329588
C134	C	0.217074	1.079188	-0.401669
C135	C	0.273830	1.046785	-0.408952
C136	C	0.324860	0.981974	-0.344156
C137	C	0.324890	0.981937	0.039761
C138	C	0.273871	1.046749	0.039753
C139	C	0.217109	1.079166	0.000068
C140	C	0.211367	1.046775	-0.039617
C141	C	0.262385	0.981969	-0.039612
C142	C	0.564688	0.981908	-0.264743
C143	C	0.564697	1.046697	-0.329532
C144	C	0.533453	1.079110	-0.401619
C145	C	0.502203	1.046724	-0.408916
C146	C	0.502199	0.981932	-0.344127
H147	H	0.590128	-0.044469	-0.071872
H148	H	0.165144	1.073180	-0.071927
C149	C	0.256057	0.946338	-0.083256
N150	N	0.251287	0.919503	-0.116129
H151	H	0.476759	0.821358	-0.467612
H152	H	0.590143	1.073059	-0.323576
C153	C	0.467865	0.082317	0.083468
N154	N	0.442006	0.109121	0.116380
C155	C	0.599065	0.946261	-0.185453
N156	N	0.624964	0.919411	-0.125734
C157	C	0.467848	0.408433	0.185695
N158	N	0.441961	0.435253	0.125982
C159	C	0.467859	0.272371	0.321786
N160	N	0.441982	0.245509	0.315771
C161	C	0.160933	1.150476	-0.472941
N162	N	0.118646	1.204166	-0.526620
C163	C	0.467862	1.082357	-0.488219
N164	N	0.442003	1.109190	-0.547952
H165	H	0.891334	0.222834	0.000110
H166	H	0.533461	1.131869	-0.454368
C167	C	0.148929	1.082407	-0.321560
N168	N	0.101911	1.109242	-0.315511
H169	H	0.590137	0.281639	-0.071876
H170	H	0.476746	0.821365	-0.350070
H171	H	0.257717	0.955575	-0.206105
C172	C	0.183905	0.431335	0.123130
N173	N	0.230929	0.365571	0.156017
C174	C	0.280201	1.082360	0.083417
N175	N	0.284970	1.109179	0.116308
H176	H	0.476750	0.955575	-0.350080
C177	C	0.467853	-0.053731	0.083455
N178	N	0.441984	-0.080592	0.116351
H179	H	0.590134	0.399194	-0.071888
C180	C	0.810827	0.408425	0.185722
N181	N	0.815582	0.435270	0.126007
H182	H	0.901760	0.281614	0.323859
H183	H	0.175571	1.131936	0.000070
C184	C	0.905972	0.204291	0.473154
N185	N	0.948260	0.150593	0.526833
H186	H	0.590129	0.073086	-0.071875
H187	H	0.476780	0.281644	0.072091
C188	C	0.679622	0.408401	0.352395
N189	N	0.632604	0.435231	0.358446
C190	C	0.467837	0.844025	-0.678248
N191	N	0.441950	0.909785	-0.684291
H192	H	0.788348	0.281650	-0.071882
C193	C	0.599081	0.510691	-0.511573
N194	N	0.624971	0.444930	-0.451854
H195	H	0.476775	0.399205	0.072086
C196	C	0.280213	0.510707	0.083429
N197	N	0.284987	0.444939	0.116308
H198	H	0.371111	0.533407	0.072068
H199	H	0.075144	0.454007	0.111801
H200	H	-0.098241	0.533351	0.072135
H201	H	-0.190804	0.533351	0.072130
C202	C	-0.213297	0.844019	-0.083210
N203	N	-0.218069	0.909786	-0.116101
C204	C	0.786794	0.272314	0.488462
N205	N	0.782064	0.245444	0.548190
H206	H	0.590163	0.281656	0.467816
C207	C	0.280112	1.082438	-0.488249
N208	N	0.284842	1.109289	-0.547977
C209	C	-0.009858	0.923399	-0.122885
N210	N	-0.014626	0.989163	-0.155769
C211	C	-0.116983	0.923396	-0.122878
N212	N	-0.164006	0.989162	-0.155753
H213	H	-0.304197	0.821325	-0.071864
C214	C	0.148927	0.844056	-0.083246
N215	N	0.101900	0.909815	-0.116117
H216	H	0.476767	0.821340	-0.793718
C217	C	0.599071	0.510710	-0.321539
N218	N	0.624958	0.444954	-0.315503
H219	H	0.901761	0.281583	0.072114
C220	C	0.387284	0.946330	-0.352181
N221	N	0.434301	0.919485	-0.358232
C222	C	0.599068	0.510712	-0.185469
N223	N	0.624959	0.444954	-0.125748
H224	H	0.257713	0.821379	-0.071919
H225	H	0.590154	0.533367	-0.649715
H226	H	0.371104	0.955547	0.072082
H227	H	0.695802	0.399198	-0.071878
H228	H	0.809205	0.399139	0.072133
H229	H	0.590154	0.399189	0.350266
H230	H	0.533479	0.222869	0.454627
