data_functionalizedCrystal
_audit_creation_method	'MofGen! by Chris Wilmer'
_symmetry_space_group_name_H-M	'P1'
_symmetry_Int_Tables_number	1
_symmetry_cell_setting	triclinic
loop_
_symmetry_equiv_pos_as_xyz
  x,y,z
_cell_length_a	17.639617
_cell_length_b	16.625546
_cell_length_c	17.640968
_cell_angle_alpha	101.233484
_cell_angle_beta	109.666032
_cell_angle_gamma	101.207188
loop_
_atom_site_label
_atom_site_type_symbol
_atom_site_fract_x
_atom_site_fract_y
_atom_site_fract_z
Zn1	Zn	1.354388	0.106653	0.721252
Zn2	Zn	1.854388	0.606653	1.221252
Zn3	Zn	1.326416	-0.062382	0.583397
Zn4	Zn	1.826416	0.437618	1.083397
Zn5	Zn	1.188676	0.038319	0.555518
Zn6	Zn	1.688676	0.538319	1.055518
Zn7	Zn	1.216505	-0.062304	0.693279
Zn8	Zn	1.716505	0.437696	1.193279
O9	O	1.271496	0.005071	0.638361
O10	O	1.771496	0.505071	1.138361
O11	O	1.466027	0.112795	0.726339
O12	O	1.966027	0.612795	1.226339
O13	O	1.284791	-0.077655	0.464352
O14	O	1.784791	0.422345	0.964352
O15	O	1.210718	0.160236	0.577542
O16	O	1.710718	0.660236	1.077542
O17	O	1.445475	-0.011395	0.625057
O18	O	1.945475	0.488605	1.125057
O19	O	1.332466	0.210441	0.699306
O20	O	1.832466	0.710441	1.199306
O21	O	1.183594	-0.003670	0.443869
O22	O	1.683594	0.496330	0.943869
O23	O	1.077019	-0.003594	0.550418
O24	O	1.577019	0.496406	1.050418
O25	O	1.258149	-0.011261	0.812336
O26	O	1.758149	0.488739	1.312336
O27	O	1.097465	-0.077521	0.651631
O28	O	1.597465	0.422479	1.151631
O29	O	1.359451	0.112871	0.832888
O30	O	1.859451	0.612871	1.332888
O31	O	1.311776	-0.175225	0.597933
O32	O	1.811776	0.324775	1.097933
O33	O	1.231025	-0.175167	0.678664
O34	O	1.731025	0.324833	1.178664
C35	C	1.057333	-0.047965	0.594964
C36	C	1.557333	0.452035	1.094964
C37	C	0.965717	-0.070668	0.576419
C38	C	1.465717	0.429332	1.076419
C39	C	0.717949	0.177616	0.779456
C40	C	1.217949	0.677616	1.279456
C41	C	0.631859	0.156258	0.762013
C42	C	1.131859	0.656258	1.262013
C43	C	0.610450	0.027073	0.656396
C44	C	1.110450	0.527073	1.156396
C45	C	0.696541	0.048418	0.673834
C46	C	1.196541	0.548418	1.173834
C47	C	0.750284	0.123691	0.735364
C48	C	1.250284	0.623691	1.235364
C49	C	0.728876	-0.005507	0.629741
C50	C	1.228876	0.494493	1.129741
C51	C	0.814959	0.015838	0.647175
C52	C	1.314959	0.515838	1.147175
C53	C	0.868707	0.091109	0.708700
C54	C	1.368707	0.591109	1.208700
C55	C	0.836367	0.145036	0.752797
C56	C	1.336367	0.645036	1.252797
C57	C	0.675131	-0.080777	0.568208
C58	C	1.175131	0.419223	1.068208
C59	C	0.707466	-0.134702	0.524115
C60	C	1.207466	0.365298	1.024115
C61	C	0.793551	-0.113360	0.541552
C62	C	1.293551	0.386640	1.041552
C63	C	0.847299	-0.038089	0.603078
C64	C	1.347299	0.461911	1.103078
C65	C	0.825891	-0.167287	0.497455
C66	C	1.325891	0.332713	0.997455
C67	C	0.911974	-0.145941	0.514888
C68	C	1.411974	0.354059	1.014888
C69	C	0.933382	-0.016743	0.620511
C70	C	1.433382	0.483257	1.120511
C71	C	1.271411	-0.204447	0.638311
C72	C	1.771411	0.295553	1.138311
C73	C	1.271456	-0.294055	0.638332
C74	C	1.771456	0.205945	1.138332
C75	C	1.271617	-0.622174	0.638447
C76	C	1.771617	-0.122174	1.138447
C77	C	1.271570	-0.530881	0.638417
C78	C	1.771570	-0.030881	1.138417
C79	C	1.271536	-0.458117	0.638389
C80	C	1.771536	0.041883	1.138389
C81	C	1.271490	-0.366819	0.638360
C82	C	1.771490	0.133181	1.138360
C83	C	1.486496	0.058314	0.681928
C84	C	1.986496	0.558314	1.181928
C85	C	1.578116	0.081003	0.700494
C86	C	2.078116	0.581003	1.200494
C87	C	1.315024	0.058437	0.853356
C88	C	1.815024	0.558437	1.353356
C89	C	1.333573	0.081178	0.944974
C90	C	1.833573	0.581178	1.444974
C91	C	1.271608	0.215418	0.638434
C92	C	1.771608	0.715418	1.138434
C93	C	1.271655	0.305056	0.638466
C94	C	1.771655	0.805056	1.138466
C95	C	1.228185	-0.048016	0.424212
C96	C	1.728185	0.451984	0.924212
C97	C	1.209796	-0.070491	0.332627
C98	C	1.709796	0.429509	0.832627
C99	C	1.130898	-0.167173	1.192801
C100	C	1.630898	0.332827	1.692801
C101	C	1.148345	-0.145790	1.278894
C102	C	1.648345	0.354210	1.778894
C103	C	1.253821	-0.016542	1.300282
C104	C	1.753821	0.483458	1.800282
C105	C	1.236380	-0.037913	1.214189
C106	C	1.736380	0.462087	1.714189
C107	C	1.174918	-0.113229	1.160455
C108	C	1.674918	0.386771	1.660455
C109	C	1.280401	0.016031	1.181842
C110	C	1.780401	0.516031	1.681842
C111	C	1.262964	-0.005340	1.095757
C112	C	1.762964	0.494660	1.595757
C113	C	1.201507	-0.080655	1.042018
C114	C	1.701507	0.419345	1.542018
C115	C	1.157482	-0.134601	1.074370
C116	C	1.657482	0.365399	1.574370
C117	C	1.341867	0.091344	1.235578
C118	C	1.841867	0.591344	1.735578
C119	C	1.385888	0.145288	1.203232
C120	C	1.885888	0.645288	1.703232
C121	C	1.368447	0.123920	1.117144
C122	C	1.868447	0.623920	1.617144
C123	C	1.306990	0.048605	1.063406
C124	C	1.806990	0.548605	1.563406
C125	C	1.412472	0.177866	1.084793
C126	C	1.912472	0.677866	1.584793
C127	C	1.395035	0.156494	0.998708
C128	C	1.895035	0.656494	1.498708
C129	C	1.289553	0.027234	0.977321
C130	C	1.789553	0.527234	1.477321
H131	H	0.605536	0.200179	0.797919
H132	H	1.105536	0.700179	1.297919
H133	H	0.977144	0.044549	0.670618
H134	H	1.477144	0.544549	1.170618
F135	F	0.960324	0.113832	0.727249
F136	F	1.460324	0.613832	1.227249
H137	H	0.566681	-0.034212	0.606296
H138	H	1.066681	0.465788	1.106296
H139	H	0.880129	0.206329	0.802904
H140	H	1.380129	0.706329	1.302904
F141	F	1.441889	0.213905	0.964281
F142	F	1.941889	0.713905	1.464281
F143	F	1.182953	-0.103403	0.950399
F144	F	1.682953	0.396597	1.450399
F145	F	0.583512	-0.103490	0.549650
F146	F	1.083512	0.396510	1.049650
H147	H	0.761711	0.238908	0.829563
H148	H	1.261711	0.738908	1.329563
H149	H	1.112493	-0.189723	1.305225
H150	H	1.612493	0.310277	1.805225
F151	F	1.092060	-0.214757	1.017176
F152	F	1.592060	0.285243	1.517176
H153	H	0.663696	-0.195987	0.474015
H154	H	1.163696	0.304013	0.974015
H155	H	0.782120	-0.228569	0.447352
H156	H	1.282120	0.271431	0.947352
H157	H	0.938301	-0.189852	0.478984
H158	H	1.438301	0.310148	0.978984
F159	F	1.065476	-0.247329	1.135607
F160	F	1.565476	0.252671	1.635607
H161	H	1.303866	0.044779	1.344043
H162	H	1.803866	0.544779	1.844043
F163	F	1.477890	0.258014	1.141992
F164	F	1.977890	0.758014	1.641992
F165	F	1.224131	-0.052922	0.920127
F166	F	1.724131	0.447078	1.420127
F167	F	1.360426	0.114086	1.327199
F168	F	1.860426	0.614086	1.827199
H169	H	1.435932	0.206609	1.246993
H170	H	1.935932	0.706609	1.746993
