data_functionalizedCrystal
_audit_creation_method	'MofGen! by Chris Wilmer'
_symmetry_space_group_name_H-M	'P1'
_symmetry_Int_Tables_number	1
_symmetry_cell_setting	triclinic
loop_
_symmetry_equiv_pos_as_xyz
  x,y,z
_cell_length_a	14.971486
_cell_length_b	14.971486
_cell_length_c	14.048226
_cell_angle_alpha	89.998099
_cell_angle_beta	90.000107
_cell_angle_gamma	96.385872
loop_
_atom_site_label
_atom_site_type_symbol
_atom_site_fract_x
_atom_site_fract_y
_atom_site_fract_z
O1	O	-1.186945	0.116561	0.079039
O2	O	-0.926545	0.130520	0.079064
O3	O	-1.063725	-0.006660	0.079058
O4	O	-1.049766	0.253741	0.079045
O5	O	-1.063712	-0.006661	-0.079264
O6	O	-0.926532	0.130519	-0.079258
O7	O	-1.186932	0.116560	-0.079282
Zn8	Zn	-1.056730	0.123539	-0.104407
Zn9	Zn	-1.056747	0.123541	0.104188
O10	O	-1.049753	0.253739	-0.079276
C11	C	-1.063094	-0.039985	-0.000099
C12	C	-1.061223	-0.139282	-0.000087
C13	C	-0.893214	0.129895	-0.000094
C14	C	-0.793917	0.128024	-0.000084
N15	N	-1.056725	0.123538	-0.246767
C16	C	-1.220263	0.117185	-0.000123
C17	C	-1.319561	0.119056	-0.000126
C18	C	-0.736692	0.208614	-0.000089
C19	C	-0.643392	0.206850	-0.000103
C20	C	-0.607320	0.124497	-0.000105
C21	C	-0.664552	0.043902	-0.000103
C22	C	-0.757850	0.045666	-0.000095
C23	C	-0.470090	0.040231	-0.000116
C24	C	-0.376786	0.038466	-0.000121
C25	C	-0.355632	0.201415	-0.000123
C26	C	-0.448930	0.203179	-0.000116
C27	C	-0.506156	0.122584	-0.000112
C28	C	-1.050384	0.287065	-0.000117
C29	C	-1.052254	0.386362	-0.000123
C30	C	-0.971665	0.443587	-0.000114
C31	C	-0.973428	0.536887	-0.000102
C32	C	-1.055781	0.572959	-0.000104
C33	C	-1.136377	0.515726	-0.000110
C34	C	-1.134613	0.422429	-0.000116
C35	C	-1.140048	0.710189	-0.000100
C36	C	-1.141812	0.803493	-0.000096
C37	C	-0.978863	0.824647	-0.000086
C38	C	-0.977099	0.731349	-0.000092
C39	C	-1.057695	0.674123	-0.000099
C40	C	-1.111027	0.177879	-0.296590
C41	C	-1.111039	0.177875	-0.396247
C42	C	-1.056742	0.123534	-0.446081
C43	C	-1.002438	0.069187	-0.396252
C44	C	-1.002432	0.069186	-0.296596
C45	C	-1.002453	0.069193	-0.603966
C46	C	-1.002457	0.069194	-0.703629
C47	C	-1.111060	0.177881	-0.703617
C48	C	-1.111054	0.177881	-0.603962
C49	C	-1.056748	0.123535	-0.554139
N50	N	-1.056760	0.123535	0.246549
H51	H	-0.766054	0.275675	-0.000087
H52	H	-1.155274	0.222136	-0.744187
H53	H	-1.155259	0.222123	-0.436808
H54	H	-0.596802	0.272474	-0.000106
H55	H	-0.516682	-0.025399	-0.000114
H56	H	-1.155262	0.222134	-0.563390
O57	O	-0.943895	0.010582	-0.757377
H58	H	-0.986731	-0.037408	-0.802786
H59	H	-0.958232	0.024937	-0.563404
H60	H	-0.907804	0.583476	-0.000092
H61	H	-1.205678	0.663597	-0.000098
O62	O	-0.625652	-0.044925	-0.000113
H63	H	-0.583654	-0.049635	0.064417
H64	H	-0.958233	0.024937	-0.436834
H65	H	-0.904604	0.414225	-0.000123
H66	H	-0.804443	-0.019958	-0.000090
H67	H	-0.958213	0.024936	-0.256032
H68	H	-1.203430	0.545104	-0.000114
H69	H	-1.208871	0.832859	-0.000096
H70	H	-0.913239	0.871245	-0.000083
O71	O	-1.221534	0.360702	-0.000138
H72	H	-1.260952	0.373533	0.064384
O73	O	-0.487843	0.292000	-0.000126
H74	H	-0.432377	0.347747	-0.000144
O75	O	-0.293917	0.288348	-0.000138
H76	H	-0.222981	0.273290	-0.000158
H77	H	-1.155236	0.222135	-0.256022
O78	O	-0.337873	-0.050354	-0.000141
H79	H	-0.360850	-0.089101	0.064379
O80	O	-0.888279	0.692436	-0.000094
H81	H	-0.832531	0.747901	-0.000080
