data_functionalizedCrystal
_audit_creation_method	'MofGen! by Chris Wilmer'
_symmetry_space_group_name_H-M	'P1'
_symmetry_Int_Tables_number	1
_symmetry_cell_setting	triclinic
loop_
_symmetry_equiv_pos_as_xyz
  x,y,z
_cell_length_a	16.992694
_cell_length_b	17.666332
_cell_length_c	16.992695
_cell_angle_alpha	89.993578
_cell_angle_beta	89.331777
_cell_angle_gamma	90.003580
loop_
_atom_site_label
_atom_site_type_symbol
_atom_site_fract_x
_atom_site_fract_y
_atom_site_fract_z
O1	O	1.050856	0.062854	-0.166918
O2	O	1.550856	0.562854	0.333082
O3	O	0.822456	0.062876	-0.165087
O4	O	1.322456	0.562876	0.334913
O5	O	0.935740	0.062859	-0.051803
O6	O	1.435740	0.562859	0.448197
O7	O	0.937572	0.062871	-0.280203
O8	O	1.437572	0.562871	0.219797
O9	O	0.935719	-0.063037	-0.051795
O10	O	1.435719	0.436963	0.448205
O11	O	0.822434	-0.063020	-0.165079
O12	O	1.322434	0.436980	0.334921
O13	O	1.050834	-0.063043	-0.166911
O14	O	1.550834	0.436957	0.333089
Cu15	Cu	0.936632	-0.074527	-0.165994
Cu16	Cu	1.436632	0.425473	0.334006
Cu17	Cu	0.936658	0.074361	-0.166003
Cu18	Cu	1.436658	0.574361	0.333997
O19	O	0.937550	-0.063026	-0.280195
O20	O	1.437550	0.436974	0.219805
C21	C	0.793085	-0.000069	-0.162727
C22	C	1.293085	0.499931	0.337273
C23	C	0.705600	-0.000061	-0.155699
C24	C	1.205600	0.499939	0.344301
C25	C	0.659610	-0.000058	-0.223517
C26	C	1.159610	0.499942	0.276483
C27	C	0.577409	-0.000069	-0.216908
C28	C	1.077409	0.499931	0.283092
C29	C	0.541201	-0.000077	-0.142480
C30	C	1.041201	0.499923	0.357520
C31	C	0.587198	-0.000082	-0.074657
C32	C	1.087198	0.499918	0.425343
C33	C	0.669397	-0.000077	-0.081267
C34	C	1.169397	0.499923	0.418733
C35	C	0.295886	-0.000099	-0.115086
C36	C	0.795886	0.499901	0.384914
C37	C	0.213681	-0.000102	-0.108481
C38	C	0.713681	0.499898	0.391519
C39	C	0.203898	-0.000090	-0.250732
C40	C	0.703898	0.499910	0.249268
C41	C	0.286099	-0.000080	-0.257335
C42	C	0.786099	0.499920	0.242665
C43	C	0.332089	-0.000089	-0.189512
C44	C	0.832089	0.499911	0.310488
N45	N	0.457178	-0.000086	-0.135723
N46	N	0.957178	0.499914	0.364277
N47	N	0.416110	-0.000086	-0.196270
N48	N	0.916110	0.499914	0.303730
N49	N	0.936620	-0.179246	-0.165988
N50	N	1.436620	0.320754	0.334012
C51	C	0.986802	-0.218864	-0.115853
C52	C	1.486802	0.281136	0.384147
C53	C	0.986806	-0.298111	-0.115849
C54	C	1.486806	0.201889	0.384151
C55	C	0.936637	-0.337738	-0.165995
C56	C	1.436637	0.162262	0.334005
C57	C	0.886446	-0.298112	-0.216133
C58	C	1.386446	0.201888	0.283867
C59	C	0.886438	-0.218865	-0.216130
C60	C	1.386438	0.281135	0.283870
N61	N	0.930982	-0.462153	-0.235021
N62	N	1.430982	0.037847	0.264979
N63	N	0.930994	-0.537433	-0.235022
N64	N	1.430994	-0.037433	0.264978
C65	C	0.936659	-0.576502	-0.166007
C66	C	1.436659	-0.076502	0.333993
N67	N	0.942325	-0.537447	-0.096989
N68	N	1.442325	-0.037447	0.403011
N69	N	0.942317	-0.462160	-0.096989
N70	N	1.442317	0.037840	0.403011
C71	C	0.936641	-0.423668	-0.166004
C72	C	1.436641	0.076332	0.333996
C73	C	0.986847	-0.702049	-0.115864
C74	C	1.486847	-0.202049	0.384136
C75	C	0.986846	-0.781298	-0.115859
C76	C	1.486846	-0.281298	0.384141
C77	C	0.886491	-0.781297	-0.216150
C78	C	1.386491	-0.281297	0.283850
C79	C	0.886488	-0.702049	-0.216148
C80	C	1.386488	-0.202049	0.283852
C81	C	0.936670	-0.662430	-0.166006
C82	C	1.436670	-0.162430	0.333994
C83	C	1.080205	-0.000095	-0.169270
C84	C	1.580205	0.499905	0.330730
C85	C	1.167690	-0.000099	-0.176299
C86	C	1.667690	0.499901	0.323701
C87	C	0.933374	-0.000089	-0.022439
C88	C	1.433374	0.499911	0.477561
C89	C	0.926345	-0.000088	0.065046
C90	C	1.426345	0.499912	0.565046
N91	N	0.936676	0.179080	-0.166004
N92	N	1.436676	0.679080	0.333996
C93	C	0.939917	-0.000076	-0.309559
C94	C	1.439917	0.499924	0.190441
C95	C	0.946945	-0.000072	-0.397044
C96	C	1.446945	0.499928	0.102956
C97	C	0.994163	-0.000095	0.111037
C98	C	1.494163	0.499905	0.611037
C99	C	0.987554	-0.000087	0.193238
C100	C	1.487554	0.499913	0.693238
C101	C	0.913127	-0.000078	0.229446
C102	C	1.413127	0.499922	0.729446
C103	C	0.845303	-0.000068	0.183449
C104	C	1.345303	0.499932	0.683449
C105	C	0.851913	-0.000070	0.101250
C106	C	1.351913	0.499930	0.601250
C107	C	0.885732	-0.000064	0.474760
C108	C	1.385732	0.499936	0.974760
C109	C	0.879127	-0.000064	0.556966
C110	C	1.379127	0.499936	1.056966
C111	C	1.021379	-0.000082	0.566749
C112	C	1.521379	0.499918	1.066749
C113	C	1.027982	-0.000089	0.484547
C114	C	1.527982	0.499911	0.984547
C115	C	0.960159	-0.000076	0.438558
C116	C	1.460159	0.499924	0.938558
N117	N	0.906369	-0.000072	0.313468
N118	N	1.406369	0.499928	0.813468
N119	N	0.966917	-0.000076	0.354537
N120	N	1.466917	0.499924	0.854537
H121	H	0.689084	-0.000051	-0.284124
H122	H	1.189084	0.499949	0.215876
H123	H	1.088589	-0.000097	0.455073
H124	H	1.588589	0.499903	0.955073
H125	H	1.027707	-0.813555	-0.075029
H126	H	1.527707	-0.313555	0.424971
C127	C	0.772008	-0.000065	0.305109
C128	C	1.272008	0.499935	0.805109
C129	C	0.763490	-0.000060	0.223247
C130	C	1.263490	0.499940	0.723247
H131	H	0.721498	-0.000067	0.329675
H132	H	1.221498	0.499933	0.829675
H133	H	0.800150	0.043833	0.320582
H134	H	1.300150	0.543833	0.820582
H135	H	0.800144	-0.043974	0.320587
H136	H	1.300144	0.456026	0.820587
H137	H	0.735360	0.043852	0.207769
H138	H	1.235360	0.543852	0.707769
H139	H	0.735337	-0.043962	0.207768
H140	H	1.235337	0.456038	0.707768
H141	H	0.830505	-0.000054	0.437325
H142	H	1.330505	0.499946	0.937325
C143	C	0.710641	-0.000058	0.099831
C144	C	1.210641	0.499942	0.599831
C145	C	0.777366	-0.000064	0.050693
C146	C	1.277366	0.499936	0.550693
H147	H	0.664619	-0.000056	0.068618
H148	H	1.164619	0.499944	0.568618
H149	H	0.711031	0.043842	0.132088
H150	H	1.211031	0.543842	0.632088
H151	H	0.711018	-0.043965	0.132102
H152	H	1.211018	0.456035	0.632102
H153	H	0.776992	0.043846	0.018426
H154	H	1.276992	0.543846	0.518426
H155	H	0.776975	-0.043968	0.018422
H156	H	1.276975	0.456032	0.518422
H157	H	0.818516	-0.000069	0.586443
H158	H	1.318516	0.499931	1.086443
C159	C	0.303032	0.064655	-0.380615
C160	C	0.803032	0.564655	0.119385
C161	C	0.325880	-0.000067	-0.339157
C162	C	0.825880	0.499933	0.160843
H163	H	0.327584	0.064663	-0.431132
H164	H	0.827584	0.564663	0.068868
H165	H	0.318523	0.108546	-0.352476
H166	H	0.818523	0.608546	0.147524
H167	H	0.247492	0.064641	-0.386364
H168	H	0.747492	0.564641	0.113636
H169	H	0.381420	-0.000050	-0.333402
H170	H	0.881420	0.499950	0.166598
H171	H	0.310395	-0.043970	-0.367302
H172	H	0.810395	0.456030	0.132698
C173	C	1.096482	0.064635	0.664849
C174	C	1.596482	0.564635	1.164849
C175	C	1.095927	-0.000087	0.617301
C176	C	1.595927	0.499913	1.117301
H177	H	1.142511	0.064636	0.696054
H178	H	1.642511	0.564636	1.196054
H179	H	1.051217	0.064633	0.698175
H180	H	1.551217	0.564633	1.198175
H181	H	1.096108	0.108531	0.632563
H182	H	1.596108	0.608531	1.132563
H183	H	1.096296	-0.043983	0.649588
H184	H	1.596296	0.456017	1.149588
H185	H	1.141205	-0.000092	0.583972
H186	H	1.641205	0.499908	1.083972
H187	H	0.539966	-0.000065	-0.272133
H188	H	1.039966	0.499935	0.227867
C189	C	0.170257	-0.064800	-0.369942
C190	C	0.670257	0.435200	0.130058
C191	C	0.153347	-0.000086	-0.325282
C192	C	0.653347	0.499914	0.174718
H193	H	0.139052	-0.064795	-0.415971
H194	H	0.639052	0.435205	0.084029
H195	H	0.158790	-0.108697	-0.339634
H196	H	0.658790	0.391303	0.160366
H197	H	0.224396	-0.064787	-0.384521
H198	H	0.724396	0.435213	0.115479
H199	H	0.099209	-0.000101	-0.310698
H200	H	0.599209	0.499899	0.189302
H201	H	0.164808	0.043822	-0.355596
H202	H	0.664808	0.543822	0.144404
H203	H	0.184203	-0.000108	-0.047870
H204	H	0.684203	0.499892	0.452130
H205	H	0.333322	-0.000107	-0.059859
H206	H	0.833322	0.499893	0.440141
H207	H	0.557710	-0.000100	-0.014056
H208	H	1.057710	0.499900	0.485944
C209	C	1.040586	-0.000075	0.323587
C210	C	1.540586	0.499925	0.823587
C211	C	1.062101	-0.000090	0.243792
C212	C	1.562101	0.499910	0.743792
H213	H	1.086612	-0.000069	0.354796
H214	H	1.586612	0.499931	0.854796
H215	H	1.010280	-0.043972	0.335055
H216	H	1.510280	0.456028	0.835055
H217	H	1.010286	0.043834	0.335028
H218	H	1.510286	0.543834	0.835028
H219	H	1.092397	-0.044002	0.232349
H220	H	1.592397	0.455998	0.732349
H221	H	1.092421	0.043812	0.232319
H222	H	1.592421	0.543812	0.732319
H223	H	1.027671	-0.330373	-0.075021
H224	H	1.527671	0.169627	0.424979
C225	C	0.799749	-0.000078	-0.028237
C226	C	1.299749	0.499922	0.471763
C227	C	0.719954	-0.000080	-0.006720
C228	C	1.219954	0.499920	0.493280
H229	H	0.830959	-0.000087	0.017787
H230	H	1.330959	0.499913	0.517787
H231	H	0.811206	0.043826	-0.058538
H232	H	1.311206	0.543826	0.441462
H233	H	0.811199	-0.043981	-0.058544
H234	H	1.311199	0.456019	0.441456
H235	H	0.708503	0.043826	0.023582
H236	H	1.208503	0.543826	0.523582
H237	H	0.708492	-0.043988	0.023594
H238	H	1.208492	0.456012	0.523594
C239	C	0.753073	-0.322534	-0.253734
C240	C	1.253073	0.177466	0.246266
C241	C	0.831298	-0.341669	-0.271251
C242	C	1.331298	0.158331	0.228749
H243	H	0.719025	-0.349429	-0.287758
H244	H	1.219025	0.150571	0.212242
H245	H	0.745889	-0.269675	-0.260911
H246	H	1.245889	0.230325	0.239089
H247	H	0.741251	-0.335535	-0.200653
H248	H	1.241251	0.164465	0.299347
H249	H	0.843122	-0.328663	-0.324331
H250	H	1.343122	0.171337	0.175669
H251	H	0.838485	-0.394540	-0.264081
H252	H	1.338485	0.105460	0.235919
C253	C	1.085997	-0.226831	-0.016719
C254	C	1.585997	0.273169	0.483281
C255	C	1.041953	-0.175315	-0.060728
C256	C	1.541953	0.324685	0.439272
H257	H	1.120040	-0.199943	0.017316
H258	H	1.620040	0.300057	0.517316
H259	H	1.116367	-0.257725	-0.051280
H260	H	1.616367	0.242275	0.448720
H261	H	1.051452	-0.257753	0.013664
H262	H	1.551452	0.242247	0.513664
H263	H	1.076498	-0.144396	-0.091116
H264	H	1.576498	0.355604	0.408884
H265	H	1.011581	-0.144408	-0.026163
H266	H	1.511581	0.355592	0.473837
C267	C	0.848745	-0.194455	-0.349482
C268	C	1.348745	0.305545	0.150518
C269	C	0.831281	-0.175313	-0.271248
C270	C	1.331281	0.324687	0.228752
H271	H	0.814696	-0.167563	-0.383511
H272	H	1.314696	0.332437	0.116489
H273	H	0.841563	-0.247315	-0.356653
H274	H	1.341563	0.252685	0.143347
H275	H	0.901817	-0.181457	-0.361343
H276	H	1.401817	0.318543	0.138657
H277	H	0.778210	-0.188316	-0.259386
H278	H	1.278210	0.311684	0.240614
H279	H	0.838456	-0.122441	-0.264074
H280	H	1.338456	0.377559	0.235926
H281	H	1.027707	-0.669790	-0.075033
H282	H	1.527707	-0.169790	0.424967
H283	H	0.845629	-0.669791	-0.256976
H284	H	1.345629	-0.169791	0.243024
C285	C	0.753116	-0.805705	-0.253757
C286	C	1.253116	-0.305705	0.246243
C287	C	0.831341	-0.824846	-0.271270
C288	C	1.331341	-0.324846	0.228730
H289	H	0.719068	-0.832597	-0.287783
H290	H	1.219068	-0.332597	0.212217
H291	H	0.745937	-0.752845	-0.260934
H292	H	1.245937	-0.252845	0.239066
H293	H	0.741290	-0.818706	-0.200677
H294	H	1.241290	-0.318706	0.299323
H295	H	0.843169	-0.811841	-0.324349
H296	H	1.343169	-0.311841	0.175651
H297	H	0.838524	-0.877718	-0.264099
H298	H	1.338524	-0.377718	0.235901
C299	C	1.134106	-0.000100	0.128972
C300	C	1.634106	0.499900	0.628972
C301	C	1.075977	-0.000101	0.071241
C302	C	1.575977	0.499899	0.571241
H303	H	1.184616	-0.000095	0.104403
H304	H	1.684616	0.499905	0.604403
H305	H	1.128566	-0.044000	0.160832
H306	H	1.628566	0.456000	0.660832
H307	H	1.128567	0.043806	0.160825
H308	H	1.628567	0.543806	0.660825
H309	H	1.081513	-0.044010	0.039391
H310	H	1.581513	0.455990	0.539391
H311	H	1.081521	0.043804	0.039368
H312	H	1.581521	0.543804	0.539368
