data_functionalizedCrystal
_audit_creation_method	'MofGen! by Chris Wilmer'
_symmetry_space_group_name_H-M	'P1'
_symmetry_Int_Tables_number	1
_symmetry_cell_setting	triclinic
loop_
_symmetry_equiv_pos_as_xyz
  x,y,z
_cell_length_a	12.759401
_cell_length_b	16.959454
_cell_length_c	16.959447
_cell_angle_alpha	89.973182
_cell_angle_beta	89.985121
_cell_angle_gamma	90.020236
loop_
_atom_site_label
_atom_site_type_symbol
_atom_site_fract_x
_atom_site_fract_y
_atom_site_fract_z
Zn1	Zn	1.606179	-0.314662	-0.446885
Zn2	Zn	1.606068	-0.446855	-0.314715
Zn3	Zn	1.430492	-0.314694	-0.314727
Zn4	Zn	1.430453	-0.446803	-0.446858
O5	O	1.518298	-0.380753	-0.380796
O6	O	1.753185	-0.332206	-0.429358
O7	O	1.582747	-0.429358	-0.204105
O8	O	1.453860	-0.204079	-0.332275
O9	O	1.753103	-0.429327	-0.332253
O10	O	1.582936	-0.204055	-0.429370
O11	O	1.453752	-0.332261	-0.204115
O12	O	1.283466	-0.332211	-0.332249
O13	O	1.453793	-0.429239	-0.557472
O14	O	1.283437	-0.429270	-0.429324
O15	O	1.582898	-0.332155	-0.557492
O16	O	1.582709	-0.557459	-0.332227
O17	O	1.453686	-0.557420	-0.429312
C18	C	1.245330	-0.380739	-0.380785
C19	C	1.128554	-0.380752	-0.380800
C20	C	1.073704	-0.431371	-0.431263
C21	C	0.963980	-0.431381	-0.431272
C22	C	0.963965	-0.330150	-0.330346
C23	C	1.073687	-0.330136	-0.330342
C24	C	1.128571	-0.481987	-0.481721
C25	C	1.073722	-0.532611	-0.532188
C26	C	0.963998	-0.532621	-0.532197
C27	C	0.909123	-0.482007	-0.481738
C28	C	1.518210	-0.586120	-0.380783
C29	C	1.518268	-0.673976	-0.380803
C30	C	1.451213	-1.045462	-0.431343
C31	C	1.585675	-1.045442	-0.330330
C32	C	1.585639	-0.962896	-0.330323
C33	C	1.518387	-0.921629	-0.380825
C34	C	1.451172	-0.962908	-0.431336
C35	C	1.652845	-0.921610	-0.279808
C36	C	1.652810	-0.839059	-0.279798
C37	C	1.585563	-0.797791	-0.330305
C38	C	1.518346	-0.839076	-0.380818
C39	C	1.451094	-0.797809	-0.431321
C40	C	1.383881	-0.839092	-0.481838
C41	C	1.383924	-0.921640	-0.481843
C42	C	1.585520	-0.715243	-0.330300
C43	C	1.451053	-0.715255	-0.431314
C44	C	1.792331	-0.380769	-0.380807
C45	C	1.909108	-0.380775	-0.380812
C46	C	1.518354	-0.380688	-0.586964
C47	C	1.518378	-0.380660	-0.674821
C48	C	1.518415	-0.174585	-0.380827
C49	C	1.518465	-0.086729	-0.380840
C50	C	1.451309	-0.330022	-1.046308
C51	C	1.585632	-0.431131	-1.046286
C52	C	1.585614	-0.431149	-0.963740
C53	C	1.518441	-0.380604	-0.922474
C54	C	1.451286	-0.330041	-0.963754
C55	C	1.652760	-0.481717	-0.922454
C56	C	1.652743	-0.481738	-0.839903
C57	C	1.585575	-0.431189	-0.798635
C58	C	1.518419	-0.380623	-0.839921
C59	C	1.451246	-0.330078	-0.798655
C60	C	1.384094	-0.279507	-0.839939
C61	C	1.384118	-0.279491	-0.922487
C62	C	1.585551	-0.431205	-0.716087
C63	C	1.451223	-0.330096	-0.716101
C64	C	1.518302	-0.380762	-0.175430
C65	C	1.518482	-0.380567	-0.087574
H66	H	1.118408	-0.573815	-0.573275
H67	H	1.640238	-0.681634	-0.289166
H68	H	1.118346	-0.288911	-0.289256
H69	H	1.217914	-0.481986	-0.481718
H70	H	0.919342	-0.573836	-0.573295
H71	H	1.707539	-0.805452	-0.238665
H72	H	0.819778	-0.482012	-0.481756
H73	H	1.396292	-0.681661	-0.472442
H74	H	0.919277	-0.288942	-0.289264
H75	H	1.329120	-0.805483	-0.522955
H76	H	1.329202	-0.955260	-0.522971
H77	H	1.640422	-1.079046	-0.289208
H78	H	1.396527	-0.288932	-0.682508
H79	H	1.329397	-0.238357	-0.806329
H80	H	1.396493	-1.079078	-0.472475
H81	H	1.707590	-0.955216	-0.238685
H82	H	1.329445	-0.238320	-0.956108
H83	H	1.396638	-0.288846	-1.079925
H84	H	1.640313	-0.472288	-1.079889
H85	H	1.707436	-0.522877	-0.956058
H86	H	1.707422	-0.522917	-0.806296
H87	H	1.640232	-0.472373	-0.682477
