data_functionalizedCrystal
_audit_creation_method	'MofGen! by Chris Wilmer'
_symmetry_space_group_name_H-M	'P1'
_symmetry_Int_Tables_number	1
_symmetry_cell_setting	triclinic
loop_
_symmetry_equiv_pos_as_xyz
  x,y,z
_cell_length_a	21.395361
_cell_length_b	21.395362
_cell_length_c	21.395356
_cell_angle_alpha	89.957023
_cell_angle_beta	89.969319
_cell_angle_gamma	90.046585
loop_
_atom_site_label
_atom_site_type_symbol
_atom_site_fract_x
_atom_site_fract_y
_atom_site_fract_z
Zn1	Zn	-0.249189	0.957854	-0.354573
Zn2	Zn	-0.353965	0.957758	-0.249790
Zn3	Zn	-0.249235	0.853070	-0.249774
Zn4	Zn	-0.353962	0.853038	-0.354494
O5	O	-0.301588	0.905430	-0.302158
O6	O	-0.263070	1.045519	-0.340712
O7	O	-0.340094	0.943844	-0.162110
O8	O	-0.161551	0.867024	-0.263702
O9	O	-0.340049	1.045448	-0.263729
O10	O	-0.161517	0.944008	-0.340697
O11	O	-0.263148	0.866931	-0.162098
O12	O	-0.263145	0.765388	-0.263626
O13	O	-0.340042	0.866968	-0.442183
O14	O	-0.340087	0.765364	-0.340564
O15	O	-0.263066	0.943976	-0.442240
O16	O	-0.441643	0.943813	-0.263653
O17	O	-0.441640	0.866875	-0.340579
C18	C	-0.301621	0.742642	-0.302085
C19	C	-0.301650	0.673001	-0.302069
C20	C	-0.464375	0.905347	-0.302123
C21	C	-0.534017	0.905369	-0.302129
C22	C	-0.341767	0.640292	-0.342070
C23	C	-0.341752	0.574856	-0.342098
C24	C	-0.301626	0.542133	-0.302113
C25	C	-0.261501	0.574850	-0.262109
C26	C	-0.261513	0.640284	-0.262087
C27	C	-0.296587	0.438409	-0.245708
C28	C	-0.296580	0.372976	-0.245730
C29	C	-0.301585	0.340312	-0.302182
C30	C	-0.306611	0.373089	-0.358616
C31	C	-0.306623	0.438523	-0.358594
C32	C	-0.301608	0.471180	-0.302133
C33	C	-0.341687	0.236650	-0.342218
C34	C	-0.341668	0.171214	-0.342247
C35	C	-0.261421	0.171208	-0.262252
C36	C	-0.261437	0.236644	-0.262229
C37	C	-0.301574	0.269361	-0.302211
C38	C	-0.566710	0.945466	-0.262114
C39	C	-0.632146	0.945495	-0.262128
C40	C	-0.664885	0.905416	-0.302150
C41	C	-0.632183	0.865317	-0.342172
C42	C	-0.566749	0.865293	-0.342162
C43	C	-0.768615	0.849001	-0.307041
C44	C	-0.834048	0.849024	-0.307047
C45	C	-0.866706	0.905489	-0.302187
C46	C	-0.833922	0.961934	-0.297307
C47	C	-0.768488	0.961910	-0.297296
C48	C	-0.735837	0.905438	-0.302167
C49	C	-0.970352	0.945621	-0.262186
C50	C	-1.035788	0.945651	-0.262204
C51	C	-1.035825	0.865467	-0.342245
C52	C	-0.970389	0.865442	-0.342230
C53	C	-0.937657	0.905519	-0.302197
C54	C	-0.138164	0.905530	-0.302206
C55	C	-0.068523	0.905573	-0.302227
C56	C	-0.301549	0.905479	-0.465581
C57	C	-0.301532	0.905500	-0.535222
C58	C	-0.301555	1.068853	-0.302231
C59	C	-0.301541	1.138494	-0.302262
C60	C	-0.261462	0.865462	-0.567919
C61	C	-0.261451	0.865460	-0.633355
C62	C	-0.301502	0.905507	-0.666091
C63	C	-0.341580	0.945548	-0.633385
C64	C	-0.341595	0.945545	-0.567951
C65	C	-0.306413	0.961959	-0.769796
C66	C	-0.306393	0.961964	-0.835229
C67	C	-0.301460	0.905517	-0.867911
C68	C	-0.296533	0.849065	-0.835153
C69	C	-0.296548	0.849061	-0.769719
C70	C	-0.301491	0.905515	-0.737043
C71	C	-0.261376	0.865474	-0.971561
C72	C	-0.261368	0.865470	-1.036998
C73	C	-0.341494	0.945564	-1.037027
C74	C	-0.341505	0.945562	-0.971592
C75	C	-0.301442	0.905517	-0.938863
C76	C	-0.301581	0.905417	-0.139370
C77	C	-0.301421	0.905517	-0.069729
H78	H	-0.374419	0.548219	-0.374674
H79	H	-0.228818	0.832857	-0.659982
O80	O	-0.384815	0.988734	-0.532684
H81	H	-0.378097	0.982002	-0.481684
O82	O	-0.384721	0.988752	-0.936324
H83	H	-0.378006	0.982019	-0.885324
H84	H	-0.292509	0.464998	-0.199735
O85	O	-1.071051	0.988908	-0.219047
H86	H	-1.122051	0.982201	-0.225787
H87	H	-0.228829	0.548202	-0.229554
H88	H	-0.860735	0.803063	-0.311015
H89	H	-0.742031	0.803017	-0.311001
O90	O	-0.311994	0.337871	-0.419513
H91	H	-0.356604	0.350402	-0.442808
O92	O	-0.291165	0.337625	-0.184866
H93	H	-0.248721	0.307850	-0.185953
H94	H	-0.228843	0.666915	-0.229513
H95	H	-0.374449	0.666926	-0.374627
H96	H	-0.310714	0.465207	-0.404543
O97	O	-0.935128	0.822177	-0.385376
H98	H	-0.947642	0.832891	-0.434568
O99	O	-0.667489	0.822080	-0.385334
H100	H	-0.718483	0.828826	-0.378612
H101	H	-0.228842	0.832852	-0.541276
O102	O	-0.531480	0.822033	-0.385310
H103	H	-0.565236	0.794162	-0.413139
H104	H	-0.374335	0.144583	-0.374824
O105	O	-0.384966	0.271946	-0.385346
H106	H	-0.412853	0.238204	-0.413176
O107	O	-0.218172	0.822283	-0.936252
H108	H	-0.228929	0.773102	-0.948766
O109	O	-0.311753	1.022838	-0.734539
H110	H	-0.269796	1.029258	-0.704732
H111	H	-0.374104	0.978173	-1.063680
O112	O	-0.733125	1.022783	-0.292038
H113	H	-0.745612	1.053528	-0.331922
O114	O	-0.384778	0.988746	-0.668687
H115	H	-0.378031	0.982027	-0.719682
O116	O	-0.218145	0.135924	-0.219118
H117	H	-0.224880	0.084928	-0.225849
O118	O	-0.291229	0.788180	-0.734384
H119	H	-0.287796	0.748927	-0.768098
O120	O	-0.531404	0.988697	-0.218947
H121	H	-0.565136	1.016589	-0.191129
H122	H	-0.292511	0.803101	-0.861762
H123	H	-0.228741	0.832862	-1.063619
H124	H	-0.310402	1.007931	-0.861896
H125	H	-0.860511	1.007913	-0.293349
O126	O	-0.218180	0.271922	-0.219066
H127	H	-0.169015	0.259422	-0.229895
O128	O	-0.667421	0.988738	-0.218963
H129	H	-0.633667	1.016598	-0.191122
H130	H	-0.943700	0.978255	-0.229590
H131	H	-1.062480	0.832837	-0.374834
