data_functionalizedCrystal
_audit_creation_method	'MofGen! by Chris Wilmer'
_symmetry_space_group_name_H-M	'P1'
_symmetry_Int_Tables_number	1
_symmetry_cell_setting	triclinic
loop_
_symmetry_equiv_pos_as_xyz
  x,y,z
_cell_length_a	10.686220
_cell_length_b	21.295417
_cell_length_c	10.686551
_cell_angle_alpha	85.587790
_cell_angle_beta	90.308082
_cell_angle_gamma	94.412682
loop_
_atom_site_label
_atom_site_type_symbol
_atom_site_fract_x
_atom_site_fract_y
_atom_site_fract_z
Zn1	Zn	1.972201	-0.153473	-0.562351
Zn2	Zn	1.955908	-0.267413	-0.352566
Zn3	Zn	1.746311	-0.169576	-0.368665
Zn4	Zn	1.762339	-0.266137	-0.578344
O5	O	1.859190	-0.214150	-0.465482
O6	O	2.145585	-0.162382	-0.521092
O7	O	1.914578	-0.261708	-0.179155
O8	O	1.776387	-0.079345	-0.394402
O9	O	2.133615	-0.246093	-0.366964
O10	O	1.942347	-0.067514	-0.536702
O11	O	1.760588	-0.189828	-0.190982
O12	O	1.572892	-0.188591	-0.409910
O13	O	1.803704	-0.243919	-0.751770
O14	O	1.584668	-0.259534	-0.563960
O15	O	1.957889	-0.161145	-0.740020
O16	O	1.930120	-0.355339	-0.382472
O17	O	1.787905	-0.354402	-0.548351
C18	C	1.533263	-0.225672	-0.490418
C19	C	1.393832	-0.230615	-0.501116
C20	C	1.859020	-0.377710	-0.465425
C21	C	1.859065	-0.447676	-0.465434
C22	C	1.933194	-0.481004	-0.379138
C23	C	1.933255	-0.546743	-0.379161
C24	C	1.859164	-0.579154	-0.465470
C25	C	1.785031	-0.545817	-0.551782
C26	C	1.784982	-0.480079	-0.551764
N27	N	1.750160	-0.685908	-0.483429
N28	N	1.750210	-0.748357	-0.483439
C29	C	1.859310	-0.777220	-0.465531
N30	N	1.968359	-0.741276	-0.447588
N31	N	1.968308	-0.678822	-0.447572
C32	C	1.859210	-0.650436	-0.465499
C33	C	1.933511	-0.881830	-0.379256
C34	C	1.933575	-0.947570	-0.379288
C35	C	1.785339	-0.946643	-0.551903
C36	C	1.785287	-0.880904	-0.551876
C37	C	1.859371	-0.848502	-0.465546
C38	C	2.186390	-0.202583	-0.440448
C39	C	2.325823	-0.197654	-0.429781
C40	C	1.884402	-0.200593	-0.792685
C41	C	1.895146	-0.194816	-0.932120
C42	C	1.859397	-0.049948	-0.465564
C43	C	1.859485	0.020024	-0.465599
C44	C	1.834148	-0.227606	-0.139546
C45	C	1.823647	-0.233197	-0.000093
H46	H	1.993521	-0.454624	-0.308846
C47	C	1.328392	-0.273849	-0.594681
H48	H	1.240120	-0.271611	-0.589846
H49	H	1.348346	-0.316147	-0.574551
H50	H	1.356325	-0.260450	-0.677381
C51	C	2.015103	-0.984235	-0.284346
H52	H	2.004530	-1.028027	-0.296724
H53	H	1.990287	-0.977628	-0.201449
H54	H	2.100795	-0.969676	-0.296307
H55	H	1.993624	-0.573884	-0.308889
C56	C	2.015012	-0.846184	-0.284311
H57	H	2.059186	-0.875450	-0.232931
H58	H	1.962839	-0.824537	-0.233271
H59	H	2.073315	-0.816580	-0.328168
H60	H	1.725019	-0.973031	-0.622182
H61	H	1.374266	-0.165655	-0.360523
H62	H	1.724708	-0.572210	-0.622056
C63	C	1.988958	-0.144454	-0.997603
H64	H	1.984116	-0.147045	-1.085873
H65	H	2.071599	-0.151566	-0.969731
H66	H	1.969015	-0.103679	-0.977620
C67	C	1.703429	-0.443417	-0.646687
H68	H	1.659306	-0.472132	-0.698091
H69	H	1.755564	-0.413772	-0.697705
H70	H	1.645082	-0.421735	-0.602816
H71	H	1.724919	-0.853767	-0.622141
C72	C	1.729843	-0.283557	-0.934614
H73	H	1.734677	-0.280961	-0.846346
H74	H	1.749774	-0.324330	-0.954601
H75	H	1.647196	-0.276441	-0.962481
