data_functionalizedCrystal
_audit_creation_method	'MofGen! by Chris Wilmer'
_symmetry_space_group_name_H-M	'P1'
_symmetry_Int_Tables_number	1
_symmetry_cell_setting	triclinic
loop_
_symmetry_equiv_pos_as_xyz
  x,y,z
_cell_length_a	16.793024
_cell_length_b	16.793047
_cell_length_c	33.586455
_cell_angle_alpha	113.253857
_cell_angle_beta	66.219990
_cell_angle_gamma	112.758327
loop_
_atom_site_label
_atom_site_type_symbol
_atom_site_fract_x
_atom_site_fract_y
_atom_site_fract_z
O1	O	0.005016	-0.570216	-0.583573
O2	O	-0.034529	-0.474528	-0.453458
O3	O	0.114723	-0.474535	-0.528082
O4	O	-0.144235	-0.570209	-0.508949
O5	O	0.108729	-0.346329	-0.530229
O6	O	-0.040523	-0.346322	-0.455605
O7	O	-0.000977	-0.442010	-0.585721
Cu8	Cu	-0.021297	-0.382459	-0.520859
Cu9	Cu	-0.014209	-0.534079	-0.518320
O10	O	-0.150229	-0.442003	-0.511097
C11	C	0.005100	-0.790970	-0.238461
C12	C	-0.040584	-0.395375	-0.435637
C13	C	-0.044693	-0.353446	-0.386631
C14	C	-0.039275	-0.401741	-0.363054
C15	C	-0.040566	-0.125547	-0.300731
C16	C	-0.044689	-0.223451	-0.321635
C17	C	-0.039266	-0.270752	-0.297563
C18	C	0.005118	-0.521142	-0.103554
C19	C	-0.046224	-0.263935	-0.366370
C20	C	-0.036476	-0.360146	-0.318399
C21	C	-0.030850	-0.408530	-0.294565
C22	C	-0.028014	-0.367522	-0.249895
C23	C	-0.030804	-0.278128	-0.229058
C24	C	-0.036430	-0.229743	-0.252892
C25	C	-0.027971	-0.237122	-0.184383
C26	C	-0.022345	-0.285507	-0.160550
C27	C	-0.019555	-0.374900	-0.181386
C28	C	-0.022391	-0.415909	-0.226057
C29	C	-0.019601	-0.505302	-0.246894
C30	C	-0.013975	-0.553687	-0.223060
C31	C	-0.011142	-0.512684	-0.178391
C32	C	-0.013932	-0.423291	-0.157554
C33	C	-0.005516	-0.561069	-0.154557
C34	C	-0.002726	-0.650463	-0.175394
C35	C	-0.005562	-0.691471	-0.220064
C36	C	-0.011185	-0.643081	-0.243897
C37	C	-0.022434	-0.546309	-0.291568
C38	C	-0.019644	-0.635702	-0.312405
C39	C	-0.014021	-0.684089	-0.288567
C40	C	-0.022480	-0.676711	-0.357076
C41	C	-0.028106	-0.628326	-0.380910
C42	C	-0.030896	-0.538933	-0.360073
C43	C	-0.028060	-0.497924	-0.315402
C44	C	-0.036522	-0.490548	-0.383907
C45	C	0.815184	-0.521162	-0.508596
C46	C	0.415541	-0.125553	-0.528781
C47	C	0.375032	-0.223457	-0.531493
C48	C	0.423813	-0.270761	-0.529101
C49	C	0.149318	-0.395376	-0.530584
C50	C	0.246774	-0.353455	-0.532364
C51	C	0.294574	-0.401748	-0.529976
C52	C	0.548961	-0.790984	-0.510398
C53	C	0.286104	-0.263940	-0.532530
C54	C	0.383336	-0.360149	-0.528302
C55	C	0.432207	-0.407971	-0.525810
C56	C	0.392316	-0.497392	-0.524993
C57	C	0.303554	-0.538991	-0.526667
C58	C	0.254683	-0.491169	-0.529159
C59	C	0.263666	-0.628421	-0.525851
C60	C	0.312537	-0.676243	-0.523359
C61	C	0.401299	-0.634644	-0.521685
C62	C	0.441190	-0.545223	-0.522502
C63	C	0.529952	-0.503624	-0.520828
C64	C	0.578823	-0.551446	-0.518336
C65	C	0.538939	-0.640864	-0.517520
C66	C	0.450177	-0.682463	-0.519194
C67	C	0.587810	-0.688687	-0.515028
C68	C	0.676572	-0.647088	-0.513354
C69	C	0.716463	-0.557666	-0.514172
C70	C	0.667586	-0.509847	-0.516662
C71	C	0.569840	-0.414195	-0.521644
C72	C	0.658602	-0.372596	-0.519970
C73	C	0.707476	-0.420426	-0.517480
C74	C	0.698493	-0.283174	-0.520788
C75	C	0.649622	-0.235352	-0.523280
C76	C	0.560860	-0.276951	-0.524954
C77	C	0.520969	-0.366372	-0.524136
C78	C	0.511989	-0.229129	-0.527446
C79	C	-0.040530	-0.395407	-0.935652
C80	C	0.005063	-0.791004	-0.738448
C81	C	0.009186	-0.693099	-0.717543
C82	C	0.003779	-0.645796	-0.741620
C83	C	0.005077	-0.521171	-0.603544
C84	C	0.009198	-0.563096	-0.652550
C85	C	0.003786	-0.514804	-0.676131
C86	C	-0.040516	-0.125574	-0.800747
C87	C	0.010719	-0.652613	-0.672809
C88	C	0.000994	-0.556406	-0.720789
C89	C	-0.004621	-0.508585	-0.744908
C90	C	-0.007444	-0.419162	-0.724369
C91	C	-0.004651	-0.377560	-0.679711
C92	C	0.000964	-0.425381	-0.655592
C93	C	-0.007471	-0.288129	-0.659174
C94	C	-0.013086	-0.240308	-0.683293
C95	C	-0.015878	-0.281910	-0.727951
C96	C	-0.013056	-0.371333	-0.748490
C97	C	-0.015848	-0.412935	-0.793148
C98	C	-0.021463	-0.365114	-0.817267
C99	C	-0.024282	-0.275694	-0.796731
C100	C	-0.021490	-0.234092	-0.752073
C101	C	-0.029897	-0.227873	-0.820850
C102	C	-0.032690	-0.269476	-0.865508
C103	C	-0.029867	-0.358899	-0.886047
C104	C	-0.024255	-0.406717	-0.861925
C105	C	-0.013028	-0.502367	-0.813685
C106	C	-0.015821	-0.543969	-0.858343
C107	C	-0.021433	-0.496140	-0.882464
C108	C	-0.012998	-0.633392	-0.878882
C109	C	-0.007383	-0.681213	-0.854763
C110	C	-0.004591	-0.639611	-0.810105
C111	C	-0.007414	-0.550188	-0.789566
C112	C	0.001024	-0.687432	-0.785986
O113	O	-0.000965	0.173549	-0.277957
O114	O	-0.040516	-0.085616	-0.325254
O115	O	0.108737	0.059592	-0.327284
O116	O	-0.150219	0.028341	-0.275927
O117	O	0.114753	0.055151	-0.263265
O118	O	-0.034500	-0.090057	-0.261234
O119	O	0.005051	0.169108	-0.213937
Cu120	Cu	-0.014175	0.039120	-0.231740
Cu121	Cu	-0.021290	0.044372	-0.307451
O122	O	-0.144202	0.023900	-0.211907
O123	O	-0.034458	-0.474571	0.046517
O124	O	0.005076	-0.570190	-0.083599
O125	O	-0.144170	-0.570237	-0.008972
O126	O	0.114787	-0.474523	-0.028110
O127	O	-0.150200	-0.442024	-0.011093
O128	O	-0.000954	-0.441976	-0.085720
O129	O	-0.040488	-0.346357	0.044396
Cu130	Cu	-0.021272	-0.382460	-0.020856
Cu131	Cu	-0.014141	-0.534087	-0.018347
O132	O	0.108757	-0.346309	-0.030231
C133	C	-0.850734	0.086244	-0.289716
C134	C	-0.450996	0.035117	-0.097351
C135	C	-0.410501	0.028587	-0.146852
C136	C	-0.459292	0.034683	-0.169840
C137	C	-0.184802	0.024283	-0.235878
C138	C	-0.282257	0.023363	-0.213592
C139	C	-0.330068	0.029423	-0.237088
C140	C	-0.584541	0.075410	-0.428242
C141	C	-0.321573	0.024104	-0.168302
C142	C	-0.418828	0.035176	-0.215083
C143	C	-0.467711	0.041476	-0.238329
C144	C	-0.427833	0.042022	-0.283580
C145	C	-0.339073	0.036269	-0.305586
C146	C	-0.290190	0.029970	-0.282340
C147	C	-0.299198	0.036812	-0.350842
C148	C	-0.348081	0.043111	-0.374088
C149	C	-0.436841	0.048864	-0.352082
C150	C	-0.476719	0.048318	-0.306830
C151	C	-0.565480	0.054071	-0.284825
C152	C	-0.614362	0.060370	-0.308071
C153	C	-0.574491	0.060913	-0.353321
C154	C	-0.485730	0.055160	-0.375326
C155	C	-0.623374	0.067212	-0.376567
C156	C	-0.712134	0.072965	-0.354561
C157	C	-0.752012	0.072419	-0.309309
C158	C	-0.703123	0.066123	-0.286065
C159	C	-0.605355	0.053528	-0.239569
C160	C	-0.694115	0.059281	-0.217564
C161	C	-0.743001	0.065577	-0.240813
C162	C	-0.733993	0.058735	-0.172312
C163	C	-0.685110	0.052436	-0.149066
C164	C	-0.596350	0.046683	-0.171072
C165	C	-0.556472	0.047229	-0.216323
C166	C	-0.547467	0.040383	-0.147826
O167	O	0.585213	0.169090	-0.504004
O168	O	0.494056	-0.090076	-0.525516
O169	O	0.488081	0.055124	-0.449918
O170	O	0.591189	0.023889	-0.579602
O171	O	0.359978	0.059584	-0.452885
O172	O	0.365953	-0.085616	-0.528483
O173	O	0.457110	0.173550	-0.506971
Cu174	Cu	0.399835	0.044374	-0.517998
Cu175	Cu	0.551332	0.039099	-0.514489
O176	O	0.463086	0.028349	-0.582569
C177	C	0.815354	-0.521094	-0.008709
C178	C	0.415547	-0.125494	-0.028771
C179	C	0.375059	-0.223405	-0.031498
C180	C	0.423859	-0.270708	-0.029121
C181	C	0.149365	-0.395355	-0.030599
C182	C	0.246820	-0.353421	-0.032381
C183	C	0.294640	-0.401713	-0.030008
C184	C	0.549171	-0.790955	-0.010537
C185	C	0.286131	-0.263897	-0.032533
C186	C	0.383402	-0.360104	-0.028335
C187	C	0.432293	-0.407926	-0.025859
C188	C	0.392422	-0.497356	-0.025055
C189	C	0.303660	-0.538965	-0.026727
C190	C	0.254769	-0.491143	-0.029204
C191	C	0.263791	-0.628403	-0.025925
C192	C	0.312683	-0.676224	-0.023448
C193	C	0.401445	-0.634615	-0.021775
C194	C	0.441316	-0.545185	-0.022579
C195	C	0.530078	-0.503576	-0.020906
C196	C	0.578969	-0.551398	-0.018429
C197	C	0.539104	-0.640825	-0.017627
C198	C	0.450342	-0.682434	-0.019300
C199	C	0.587995	-0.688646	-0.015150
C200	C	0.676757	-0.647037	-0.013477
C201	C	0.716628	-0.557607	-0.014281
C202	C	0.667731	-0.509789	-0.016757
C203	C	0.569946	-0.414138	-0.021709
C204	C	0.658708	-0.372530	-0.020036
C205	C	0.707602	-0.420359	-0.017561
C206	C	0.698579	-0.283100	-0.020840
C207	C	0.649688	-0.235278	-0.023317
C208	C	0.560926	-0.276887	-0.024990
C209	C	0.521055	-0.366317	-0.024186
C210	C	0.512035	-0.229066	-0.027467
O211	O	-0.620614	0.089309	0.052274
O212	O	-0.529507	0.043784	-0.078544
O213	O	-0.523494	0.194833	-0.006033
O214	O	-0.626628	-0.061740	-0.020236
O215	O	-0.395386	0.185419	-0.005549
O216	O	-0.401400	0.034370	-0.078059
O217	O	-0.492507	0.079895	0.052758
Cu218	Cu	-0.435256	0.056273	-0.012607
Cu219	Cu	-0.586758	0.067406	-0.013179
O220	O	-0.498521	-0.071154	-0.019752
C221	C	-0.437537	0.048335	0.402491
C222	C	-0.837226	0.099430	0.210091
C223	C	-0.739773	0.100339	0.187806
C224	C	-0.691967	0.094287	0.211308
C225	C	-0.571027	0.088563	0.071568
C226	C	-0.611521	0.095108	0.121070
C227	C	-0.562739	0.089011	0.144061
C228	C	-0.171338	0.037467	0.263967
C229	C	-0.700452	0.099593	0.142516
C230	C	-0.603213	0.088528	0.189308
C231	C	-0.554892	0.082255	0.212848
C232	C	-0.466098	0.076466	0.191141
C233	C	-0.425624	0.076949	0.145894
C234	C	-0.473945	0.083222	0.122354
C235	C	-0.336822	0.071163	0.124188
C236	C	-0.288502	0.064890	0.147728
C237	C	-0.328975	0.064407	0.192975
C238	C	-0.417770	0.070196	0.214682
C239	C	-0.458244	0.069713	0.259929
C240	C	-0.409923	0.063441	0.283469
C241	C	-0.321132	0.057655	0.261765
C242	C	-0.280658	0.058138	0.216518
C243	C	-0.272811	0.051382	0.285305
C244	C	-0.313285	0.050899	0.330552
C245	C	-0.402079	0.056688	0.352259
C246	C	-0.450397	0.062957	0.328716
C247	C	-0.547046	0.075500	0.281635
C248	C	-0.587520	0.075016	0.326882
C249	C	-0.539191	0.068747	0.350423
C250	C	-0.676314	0.080806	0.348589
C251	C	-0.724634	0.087078	0.325049
C252	C	-0.684160	0.087561	0.279802
C253	C	-0.595366	0.081772	0.258095
C254	C	-0.732481	0.093834	0.256262
O255	O	-0.040608	-1.085661	-0.825229
O256	O	-0.001018	-0.826491	-0.777938
O257	O	-0.150287	-0.971682	-0.775894
O258	O	0.108661	-0.940470	-0.827272
O259	O	-0.144253	-0.976123	-0.711878
O260	O	0.005016	-0.830932	-0.713922
O261	O	-0.034575	-1.090102	-0.761213
Cu262	Cu	-0.014228	-0.960923	-0.731722
Cu263	Cu	-0.021364	-0.955670	-0.807428
O264	O	0.114695	-0.944911	-0.763256
O265	O	-0.049524	-0.216405	-0.390125
C266	C	-0.128365	-0.258475	-0.404098
H267	H	-0.180900	-0.301259	-0.380885
H268	H	-0.111269	-0.303230	-0.440488
C269	C	-0.102094	-0.133634	-0.430074
C270	C	-0.166620	-0.186175	-0.401560
H271	H	-0.125690	-0.089037	-0.428511
H272	H	-0.048974	-0.105292	-0.420662
H273	H	-0.087852	-0.170939	-0.460396
H274	H	-0.180852	-0.148872	-0.371239
H275	H	-0.219743	-0.214510	-0.410968
H276	H	0.771156	-0.249077	-0.019476
O277	O	-0.273345	0.020181	-0.145217
C278	C	-0.246160	-0.060075	-0.166555
H279	H	-0.245245	-0.085233	-0.203576
H280	H	-0.295675	-0.113277	-0.148597
C281	C	-0.151939	-0.010990	-0.118645
C282	C	-0.150807	-0.041885	-0.164115
H283	H	-0.093123	0.000228	-0.117138
H284	H	-0.170257	0.043079	-0.104267
H285	H	-0.193206	-0.055330	-0.103685
H286	H	-0.109550	0.002460	-0.179073
H287	H	-0.132481	-0.095946	-0.178495
H288	H	-0.440845	0.083623	0.085362
H289	H	0.710767	-0.684484	-0.506030
H290	H	-0.815575	0.070280	-0.222817
O291	O	-0.030648	-0.149928	-0.163999
C292	C	-0.026953	-0.124015	-0.119273
H293	H	0.005485	-0.169279	-0.116519
H294	H	-0.098348	-0.130745	-0.094797
C295	C	-0.010129	0.030124	-0.110581
C296	C	0.029718	-0.025467	-0.107199
H297	H	0.024825	0.090914	-0.103132
H298	H	-0.012622	0.012665	-0.140713
H299	H	-0.069623	0.024505	-0.090184
H300	H	0.089207	-0.019855	-0.127600
H301	H	0.032223	-0.008005	-0.077070
O302	O	-0.724154	0.051874	-0.104934
C303	C	-0.813335	0.058353	-0.090433
H304	H	-0.838834	0.033827	-0.121120
H305	H	-0.814485	0.131472	-0.072015
C306	C	-0.843435	0.029910	-0.020327
C307	C	-0.874756	-0.000220	-0.058017
H308	H	-0.881323	-0.006217	-0.000330
H309	H	-0.783351	0.025548	-0.030096
H310	H	-0.844395	0.090842	-0.004985
H311	H	-0.873786	-0.061147	-0.073362
H312	H	-0.934842	0.004130	-0.048251
O313	O	-0.748744	0.103273	0.119390
C314	C	-0.825560	0.028516	0.119004
H315	H	-0.843057	0.001936	0.148777
H316	H	-0.810731	-0.026641	0.085864
C317	C	-0.884379	0.089915	0.086561
C318	C	-0.905873	0.057274	0.123131
H319	H	-0.933919	0.107652	0.089105
H320	H	-0.832625	0.140279	0.086819
H321	H	-0.872020	0.043946	0.058948
H322	H	-0.918220	0.103247	0.150743
H323	H	-0.957631	0.006919	0.122877
H324	H	0.003251	-0.391359	-0.619081
H325	H	-0.015274	-0.667410	-0.915397
O326	O	-0.715939	0.080310	0.392716
C327	C	-0.805029	0.086816	0.406890
H328	H	-0.830036	0.062257	0.376039
H329	H	-0.806212	0.159948	0.425225
C330	C	-0.836257	0.058472	0.477170
C331	C	-0.866974	0.028301	0.439279
H332	H	-0.874468	0.022382	0.497151
H333	H	-0.776234	0.054092	0.467622
H334	H	-0.837244	0.119416	0.492444
H335	H	-0.865976	-0.032636	0.424003
H336	H	-0.926998	0.032670	0.448825
H337	H	-0.746339	0.088530	-0.372795
H338	H	-0.011748	-0.757184	-0.305606
O339	O	0.238036	-0.216289	-0.033844
C340	C	0.281821	-0.186166	-0.073051
H341	H	0.326632	-0.231154	-0.099633
H342	H	0.325141	-0.113849	-0.064008
C343	C	0.155563	-0.134924	-0.059538
C344	C	0.210595	-0.190184	-0.092188
H345	H	0.111629	-0.137397	-0.071342
H346	H	0.126065	-0.155215	-0.033123
H347	H	0.191673	-0.074665	-0.052005
H348	H	0.174487	-0.250442	-0.099717
H349	H	0.240085	-0.169903	-0.118606
H350	H	0.780052	-0.386407	-0.516111
O351	O	0.168160	-0.531758	-0.530877
C352	C	0.161737	-0.531305	-0.571365
H353	H	0.231234	-0.524803	-0.597637
H354	H	0.136054	-0.471949	-0.564322
C355	C	0.010180	-0.627759	-0.557347
C356	C	0.095536	-0.619780	-0.589616
H357	H	-0.030659	-0.682332	-0.568605
H358	H	0.014505	-0.628062	-0.530069
H359	H	-0.011211	-0.578290	-0.551481
H360	H	0.116930	-0.669242	-0.595477
H361	H	0.091212	-0.619487	-0.616896
H362	H	0.771070	-0.249160	-0.519423
H363	H	0.012418	-0.684570	-0.156900
O364	O	-0.019737	-0.245635	-0.116950
C365	C	-0.094231	-0.293229	-0.088390
H366	H	-0.119283	-0.365158	-0.109111
H367	H	-0.150836	-0.258609	-0.072472
C368	C	-0.034528	-0.206472	-0.025255
C369	C	-0.065293	-0.294820	-0.050705
H370	H	-0.016681	-0.207450	-0.002008
H371	H	0.015658	-0.174404	-0.044496
H372	H	-0.081705	-0.177632	-0.011994
H373	H	-0.018114	-0.323654	-0.063970
H374	H	-0.115472	-0.326892	-0.031465
O375	O	-0.201847	0.059359	0.126623
C376	C	-0.144059	0.132908	0.149624
H377	H	-0.184526	0.160067	0.186133
H378	H	-0.112634	0.188175	0.131871
C379	C	-0.019017	0.068547	0.104576
C380	C	-0.068718	0.101900	0.149417
H381	H	0.027459	0.049422	0.104447
H382	H	-0.057949	0.018997	0.089078
H383	H	0.007162	0.114609	0.089786
H384	H	-0.094905	0.055835	0.164204
H385	H	-0.029789	0.151442	0.164918
H386	H	-0.005182	-0.254109	-0.622664
H387	H	0.682288	-0.162154	-0.023969
O388	O	-0.811210	0.092860	0.346182
C389	C	-0.817289	0.174020	0.345869
H390	H	-0.759576	0.198424	0.316929
H391	H	-0.812534	0.227066	0.379513
C392	C	-0.979194	0.128075	0.374717
C393	C	-0.908315	0.158046	0.339169
H394	H	-1.035344	0.118225	0.370587
H395	H	-0.975099	0.073398	0.374930
H396	H	-0.975220	0.172286	0.402750
H397	H	-0.912283	0.113831	0.311138
H398	H	-0.912413	0.212716	0.338952
H399	H	0.544632	-0.155941	-0.028119
H400	H	0.280077	-0.749342	-0.022791
H401	H	-0.805083	0.098565	0.274011
H402	H	-0.303725	0.071562	0.087197
O403	O	0.238029	-0.216330	-0.533856
C404	C	0.281830	-0.186234	-0.573071
H405	H	0.326631	-0.231238	-0.599644
H406	H	0.325161	-0.113920	-0.564036
C407	C	0.155597	-0.134974	-0.559579
C408	C	0.210617	-0.190254	-0.592218
H409	H	0.111670	-0.137450	-0.571389
H410	H	0.126088	-0.155247	-0.533158
H411	H	0.191716	-0.074718	-0.552053
H412	H	0.174500	-0.250511	-0.599739
H413	H	0.240118	-0.169992	-0.618641
H414	H	-0.208057	0.053400	0.198770
H415	H	0.710969	-0.684436	-0.006165
H416	H	-0.275840	0.035205	0.347100
H417	H	0.544602	-0.156012	-0.528109
H418	H	-0.038719	-0.156659	-0.235851
H419	H	-0.011621	-0.389765	-0.121028
H420	H	-0.020209	-0.749804	-0.374113
H421	H	-0.030422	-0.661858	-0.417434
O422	O	0.177151	-0.669022	-0.527577
C423	C	0.170750	-0.668572	-0.568070
H424	H	0.240259	-0.662045	-0.594332
H425	H	0.145047	-0.609232	-0.561032
C426	C	0.019212	-0.765072	-0.554079
C427	C	0.104583	-0.757063	-0.586336
H428	H	-0.021606	-0.819655	-0.565346
H429	H	0.023522	-0.765373	-0.526797
H430	H	-0.002195	-0.715616	-0.548217
H431	H	0.125993	-0.806512	-0.592193
H432	H	0.100274	-0.756772	-0.613620
H433	H	0.417746	-0.755558	-0.018645
O434	O	-0.212620	0.031248	-0.372366
C435	C	-0.187816	0.033062	-0.417480
H436	H	-0.232297	0.066609	-0.420070
H437	H	-0.197107	-0.038713	-0.440859
C438	C	-0.033452	0.045484	-0.428497
C439	C	-0.088079	0.086693	-0.431678
H440	H	0.028071	0.078562	-0.437256
H441	H	-0.050163	0.044258	-0.398104
H442	H	-0.041205	-0.014327	-0.447980
H443	H	-0.080334	0.146498	-0.412191
H444	H	-0.071365	0.087930	-0.462068
H445	H	-0.038841	-0.524079	-0.420431
O446	O	0.411125	-0.769649	-0.518343
C447	C	0.334022	-0.774527	-0.480192
H448	H	0.308145	-0.713152	-0.468874
H449	H	0.352506	-0.776051	-0.451403
C450	C	0.291567	-0.936088	-0.506598
C451	C	0.259780	-0.860710	-0.492699
H452	H	0.245772	-0.989251	-0.514312
H453	H	0.343514	-0.932803	-0.532301
H454	H	0.306970	-0.937345	-0.482605
H455	H	0.244388	-0.859448	-0.516695
H456	H	0.207828	-0.863997	-0.467001
H457	H	0.279916	-0.749353	-0.522691
H458	H	0.780178	-0.386331	-0.016193
O459	O	-0.015995	-0.153130	-0.663254
C460	C	-0.096973	-0.144819	-0.662559
H461	H	-0.149595	-0.212977	-0.664917
H462	H	-0.083666	-0.120811	-0.692594
C463	C	-0.067690	0.007615	-0.615147
C464	C	-0.132324	-0.076098	-0.618039
H465	H	-0.089495	0.050008	-0.587686
H466	H	-0.013132	0.002017	-0.615616
H467	H	-0.056607	0.027609	-0.640178
H468	H	-0.143397	-0.096096	-0.593011
H469	H	-0.186885	-0.070502	-0.617564
O470	O	0.688556	-0.148085	-0.523996
C471	C	0.713961	-0.096408	-0.484089
H472	H	0.722642	-0.142180	-0.469400
H473	H	0.659271	-0.062153	-0.458229
C474	C	0.793202	0.031817	-0.513310
C475	C	0.803871	-0.024400	-0.495271
H476	H	0.848660	0.076238	-0.520207
H477	H	0.776083	-0.002997	-0.540196
H478	H	0.747623	0.060354	-0.491757
H479	H	0.849440	-0.052944	-0.516826
H480	H	0.821000	0.010411	-0.468389
H481	H	0.013347	-0.692513	-0.652885
O482	O	-0.050616	-0.224902	-0.885685
C483	C	0.022517	-0.210258	-0.924357
H484	H	0.062000	-0.261850	-0.936833
H485	H	0.068878	-0.139544	-0.915261
C486	C	-0.062053	-0.156728	-0.946710
C487	C	-0.013563	-0.220099	-0.962036
H488	H	-0.084307	-0.162793	-0.969952
H489	H	-0.111324	-0.166590	-0.920655
H490	H	-0.023411	-0.097805	-0.939130
H491	H	-0.052208	-0.279020	-0.969610
H492	H	0.035700	-0.210247	-0.988093
H493	H	-0.806568	0.063430	-0.154318
H494	H	-0.315470	0.043557	-0.411085
O495	O	0.168241	-0.531865	-0.030896
C496	C	0.166782	-0.606994	-0.069582
H497	H	0.229402	-0.630946	-0.080662
H498	H	0.166186	-0.587224	-0.098243
C499	C	0.004492	-0.653995	-0.044546
C500	C	0.081400	-0.683417	-0.058153
H501	H	-0.048177	-0.701135	-0.037498
H502	H	0.005474	-0.603377	-0.018484
H503	H	0.004008	-0.637519	-0.068433
H504	H	0.081889	-0.699881	-0.034264
H505	H	0.080415	-0.734040	-0.084211
H506	H	-0.572284	0.068372	0.387422
O507	O	0.177213	-0.669109	-0.027533
C508	C	0.152416	-0.758671	-0.026300
H509	H	0.196904	-0.765065	-0.010136
H510	H	0.161705	-0.805670	-0.062316
C511	C	-0.001953	-0.776529	-0.017991
C512	C	0.052682	-0.784379	0.001866
H513	H	-0.063474	-0.792389	-0.000619
H514	H	0.014753	-0.716190	-0.018823
H515	H	0.005799	-0.815694	-0.048003
H516	H	0.044939	-0.745206	0.031875
H517	H	0.035973	-0.844713	0.002703
H518	H	-0.217624	0.025258	-0.300336
H519	H	0.003321	-0.760550	-0.802778
H520	H	-0.023718	-0.530163	-0.918978
H521	H	-0.023809	-0.160979	-0.735279
H522	H	-0.005085	-0.754331	-0.871556
H523	H	-0.453130	0.055597	-0.412328
H524	H	-0.580066	0.039960	-0.110823
