data_functionalizedCrystal
_audit_creation_method	'MofGen! by Chris Wilmer'
_symmetry_space_group_name_H-M	'P1'
_symmetry_Int_Tables_number	1
_symmetry_cell_setting	triclinic
loop_
_symmetry_equiv_pos_as_xyz
  x,y,z
_cell_length_a	19.077105
_cell_length_b	16.120484
_cell_length_c	19.076919
_cell_angle_alpha	95.046610
_cell_angle_beta	90.076224
_cell_angle_gamma	90.738523
loop_
_atom_site_label
_atom_site_type_symbol
_atom_site_fract_x
_atom_site_fract_y
_atom_site_fract_z
Zn1	Zn	1.040337	-0.403262	-0.456942
Zn2	Zn	1.540337	0.096738	0.043058
Zn3	Zn	1.039017	-0.537287	-0.344927
Zn4	Zn	1.539017	-0.037287	0.155073
Zn5	Zn	0.928051	-0.392095	-0.334278
Zn6	Zn	1.428051	0.107905	0.165722
Zn7	Zn	0.916861	-0.536784	-0.457659
Zn8	Zn	1.416861	-0.036784	0.042341
O9	O	0.981066	-0.467357	-0.398451
O10	O	1.481066	0.032643	0.101549
O11	O	1.138276	-0.425924	-0.446240
O12	O	1.638276	0.074076	0.053760
O13	O	1.028428	-0.513564	-0.245000
O14	O	1.528428	-0.013564	0.255000
O15	O	0.948182	-0.276934	-0.345793
O16	O	1.448182	0.223066	0.154207
O17	O	1.137306	-0.524392	-0.363943
O18	O	1.637306	-0.024392	0.136057
O19	O	1.030678	-0.285138	-0.435913
O20	O	1.530678	0.214862	0.064087
O21	O	0.946902	-0.406892	-0.237176
O22	O	1.446902	0.093108	0.262824
O23	O	0.828452	-0.406405	-0.346488
O24	O	1.328452	0.093595	0.153512
O25	O	0.929109	-0.523535	-0.556078
O26	O	1.429109	-0.023535	-0.056078
O27	O	0.820230	-0.512707	-0.437136
O28	O	1.320230	-0.012707	0.062864
O29	O	1.019827	-0.425436	-0.555551
O30	O	1.519827	0.074564	-0.055551
O31	O	1.017576	-0.653863	-0.364638
O32	O	1.517576	-0.153863	0.135362
O33	O	0.927829	-0.653494	-0.447462
O34	O	1.427829	-0.153494	0.052538
C35	C	0.798901	-0.458290	-0.390734
C36	C	1.298901	0.041710	0.109266
C37	C	0.720969	-0.454433	-0.387451
C38	C	1.220969	0.045567	0.112549
C39	C	0.680093	-0.508043	-0.433036
C40	C	1.180093	-0.008043	0.066964
C41	C	0.606867	-0.504408	-0.429953
C42	C	1.106867	-0.004408	0.070047
C43	C	0.574519	-0.447165	-0.381281
C44	C	1.074519	0.052835	0.118719
C45	C	0.615400	-0.393548	-0.335694
C46	C	1.115400	0.106452	0.164306
C47	C	0.688624	-0.397180	-0.338781
C48	C	1.188624	0.102820	0.161219
C49	C	0.355979	-0.430354	-0.367000
C50	C	0.855979	0.069646	0.133000
C51	C	0.282749	-0.426728	-0.363916
C52	C	0.782749	0.073272	0.136084
C53	C	0.274222	-0.537586	-0.458176
C54	C	0.774222	-0.037586	0.041824
C55	C	0.347448	-0.541217	-0.461255
C56	C	0.847448	-0.041217	0.038745
C57	C	0.388323	-0.487598	-0.415670
C58	C	0.888323	0.012402	0.084330
N59	N	0.499670	-0.443449	-0.378128
N60	N	0.999670	0.056551	0.121872
N61	N	0.463169	-0.491310	-0.418828
N62	N	0.963169	0.008690	0.081172
C63	C	0.971363	-0.683924	-0.407299
C64	C	1.471363	-0.183924	0.092701
C65	C	0.967276	-0.776577	-0.411111
C66	C	1.467276	-0.276577	0.088889
C67	C	0.959816	-0.946215	-0.418084
C68	C	1.459816	-0.446215	0.081916
C69	C	1.002442	-0.987665	-0.378836
C70	C	1.502442	-0.487665	0.121164
C71	C	0.998291	-1.082058	-0.382716
C72	C	1.498291	-0.582058	0.117284
C73	C	0.963966	-0.851814	-0.414205
C74	C	1.463966	-0.351814	0.085795
C75	C	1.163943	-0.476459	-0.406199
C76	C	1.663943	0.023541	0.093801
C77	C	1.241874	-0.480338	-0.409501
C78	C	1.741874	0.019662	0.090499
C79	C	0.973367	-0.475675	-0.582072
C80	C	1.473367	0.024325	-0.082072
C81	C	0.970086	-0.479220	-0.660321
C82	C	1.470086	0.020780	-0.160321
C83	C	0.990826	-0.249946	-0.389585
C84	C	1.490826	0.250054	0.110415
C85	C	0.994984	-0.157298	-0.385807
C86	C	1.494984	0.342702	0.114193
C87	C	1.015774	-0.429813	-0.696809
C88	C	1.515774	0.070187	-0.196809
C89	C	1.012683	-0.433140	-0.770331
C90	C	1.512683	0.066860	-0.270331
C91	C	0.963906	-0.485879	-0.807364
C92	C	1.463906	0.014121	-0.307364
C93	C	0.918214	-0.535288	-0.770871
C94	C	1.418214	-0.035288	-0.270871
C95	C	0.921302	-0.531956	-0.697350
C96	C	1.421302	-0.031956	-0.197350
C97	C	0.949602	-0.501317	-1.027278
C98	C	1.449602	-0.001317	-0.527278
C99	C	0.946518	-0.504647	-1.100804
C100	C	1.446518	-0.004647	-0.600804
C101	C	1.040987	-0.402498	-1.100259
C102	C	1.540987	0.097502	-0.600259
C103	C	1.044074	-0.399174	-1.026737
C104	C	1.544074	0.100826	-0.526737
C105	C	0.998378	-0.448580	-0.990250
C106	C	1.498378	0.051420	-0.490250
N107	N	0.960747	-0.489283	-0.882516
N108	N	1.460747	0.010717	-0.382516
N109	N	1.001535	-0.445171	-0.915099
N110	N	1.501535	0.054829	-0.415099
C111	C	0.988779	-0.459013	-0.215544
C112	C	1.488779	0.040987	0.284456
C113	C	0.992206	-0.455240	-0.137292
C114	C	1.492206	0.044760	0.362708
H115	H	0.256414	-0.380104	-0.324285
H116	H	0.756414	0.119896	0.175715
H117	H	1.078188	-0.362273	-1.129975
H118	H	1.578188	0.137727	-0.629975
C119	C	0.899331	-0.555635	-0.987131
C120	C	1.399331	-0.055635	-0.487131
C121	C	0.928873	-0.620287	-0.940520
C122	C	1.428873	-0.120287	-0.440520
C123	C	0.878594	-0.674593	-0.900362
C124	C	1.378594	-0.174593	-0.400362
C125	C	0.798773	-0.664246	-0.906815
C126	C	1.298773	-0.164246	-0.406815
C127	C	0.769227	-0.599591	-0.953429
C128	C	1.269227	-0.099591	-0.453429
C129	C	0.819506	-0.545286	-0.993587
C130	C	1.319506	-0.045286	-0.493587
H131	H	0.987964	-0.627949	-0.935741
H132	H	1.487964	-0.127949	-0.435741
H133	H	0.900466	-0.722455	-0.865855
H134	H	1.400466	-0.222455	-0.365855
H135	H	0.761554	-0.704447	-0.877087
H136	H	1.261554	-0.204447	-0.377087
H137	H	0.710136	-0.591930	-0.958208
H138	H	1.210136	-0.091930	-0.458208
H139	H	0.797634	-0.497424	-1.028093
H140	H	1.297634	0.002576	-0.528093
H141	H	0.920208	-0.981617	-0.454597
H142	H	1.420208	-0.481617	0.045403
H143	H	1.055495	-0.386870	-0.666662
H144	H	1.555495	0.113130	-0.166662
H145	H	0.721905	-0.353521	-0.301664
H146	H	1.221905	0.146479	0.198336
H147	H	1.042052	-0.952260	-0.342319
H148	H	1.542052	-0.452260	0.157681
H149	H	0.373781	-0.587832	-0.500887
H150	H	0.873781	-0.087832	-0.000887
C151	C	0.561907	-0.563388	-0.480095
C152	C	1.061907	-0.063388	0.019905
C153	C	0.509916	-0.624887	-0.450045
C154	C	1.009916	-0.124887	0.049955
C155	C	0.464957	-0.683872	-0.500189
C156	C	0.964957	-0.183872	-0.000189
C157	C	0.471989	-0.681357	-0.580383
C158	C	0.971989	-0.181357	-0.080383
C159	C	0.523982	-0.619855	-0.610436
C160	C	1.023982	-0.119855	-0.110436
C161	C	0.568941	-0.560870	-0.560292
C162	C	1.068941	-0.060870	-0.060292
H163	H	0.504709	-0.626751	-0.390677
H164	H	1.004709	-0.126751	0.109323
H165	H	0.426468	-0.729400	-0.477941
H166	H	0.926468	-0.229400	0.022059
H167	H	0.438708	-0.725021	-0.617502
H168	H	0.938708	-0.225021	-0.117502
H169	H	0.529190	-0.617991	-0.669804
H170	H	1.029190	-0.117991	-0.169804
H171	H	0.607430	-0.515342	-0.582540
H172	H	1.107430	-0.015342	-0.082540
C173	C	0.229259	-0.596558	-0.508322
C174	C	0.729259	-0.096558	-0.008322
C175	C	0.148715	-0.592566	-0.504935
C176	C	0.648715	-0.092566	-0.004935
C177	C	0.103752	-0.651537	-0.555086
C178	C	0.603752	-0.151537	-0.055086
C179	C	0.139334	-0.714500	-0.608626
C180	C	0.639334	-0.214500	-0.108626
C181	C	0.219883	-0.718495	-0.612015
C182	C	0.719883	-0.218495	-0.112015
C183	C	0.264845	-0.659523	-0.561864
C184	C	0.764845	-0.159523	-0.061864
H185	H	0.122371	-0.545954	-0.465300
H186	H	0.622371	-0.045954	0.034700
H187	H	0.044125	-0.648579	-0.552577
H188	H	0.544125	-0.148579	-0.052577
H189	H	0.106050	-0.758154	-0.645751
H190	H	0.606050	-0.258154	-0.145751
H191	H	0.246226	-0.765106	-0.651650
H192	H	0.746226	-0.265106	-0.151650
H193	H	0.324473	-0.662481	-0.564373
H194	H	0.824473	-0.162481	-0.064373
C195	C	1.062942	-0.378790	-0.810465
C196	C	1.562942	0.121210	-0.310465
C197	C	1.142766	-0.389105	-0.804017
C198	C	1.642766	0.110895	-0.304017
C199	C	1.193027	-0.334749	-0.844148
C200	C	1.693027	0.165251	-0.344148
C201	C	1.163463	-0.270077	-0.890727
C202	C	1.663463	0.229923	-0.390727
C203	C	1.083634	-0.259758	-0.897177
C204	C	1.583634	0.240242	-0.397177
C205	C	1.033374	-0.314115	-0.857046
C206	C	1.533374	0.185885	-0.357046
H207	H	1.164655	-0.436982	-0.769534
H208	H	1.664655	0.063018	-0.269534
H209	H	1.252121	-0.342388	-0.839373
H210	H	1.752121	0.157612	-0.339373
H211	H	1.200669	-0.229839	-0.920435
H212	H	1.700669	0.270161	-0.420435
H213	H	1.061746	-0.211881	-0.931660
H214	H	1.561746	0.288119	-0.431660
H215	H	0.974279	-0.306476	-0.861821
H216	H	1.474279	0.193524	-0.361821
H217	H	1.083794	-0.356231	-0.996590
H218	H	1.583794	0.143769	-0.496590
H219	H	0.389251	-0.386700	-0.329877
H220	H	0.889251	0.113300	0.170123
H221	H	0.706425	-0.554659	-0.472667
H222	H	1.206425	-0.054659	0.027333
C223	C	0.892881	-0.562690	-1.141544
C224	C	1.392881	-0.062690	-0.641544
C225	C	0.842634	-0.617056	-1.101414
C226	C	1.342634	-0.117056	-0.601414
C227	C	0.789013	-0.675112	-1.142156
C228	C	1.289013	-0.175112	-0.642156
C229	C	0.785639	-0.678802	-1.223028
C230	C	1.285639	-0.178802	-0.723028
C231	C	0.835889	-0.624435	-1.263163
C232	C	1.335889	-0.124435	-0.763163
C233	C	0.889510	-0.566379	-1.222421
C234	C	1.389510	-0.066379	-0.722421
H235	H	0.845129	-0.614326	-1.041543
H236	H	1.345129	-0.114326	-0.541543
H237	H	0.751815	-0.715359	-1.112444
H238	H	1.251815	-0.215359	-0.612444
H239	H	0.745946	-0.721779	-1.253187
H240	H	1.245946	-0.221779	-0.753187
H241	H	0.833393	-0.627165	-1.323034
H242	H	1.333393	-0.127165	-0.823034
H243	H	0.926707	-0.526132	-1.252132
H244	H	1.426707	-0.026132	-0.752132
C245	C	0.871048	-0.586306	-0.657207
C246	C	1.371048	-0.086306	-0.157207
C247	C	0.791223	-0.575997	-0.663654
C248	C	1.291223	-0.075997	-0.163654
C249	C	0.740967	-0.630345	-0.623511
C250	C	1.240967	-0.130345	-0.123511
C251	C	0.770535	-0.695004	-0.576921
C252	C	1.270535	-0.195004	-0.076921
C253	C	0.850365	-0.705316	-0.570472
C254	C	1.350365	-0.205316	-0.070472
C255	C	0.900621	-0.650967	-0.610615
C256	C	1.400621	-0.150967	-0.110615
H257	H	0.769331	-0.528130	-0.698145
H258	H	1.269331	-0.028130	-0.198145
H259	H	0.681872	-0.622711	-0.628285
H260	H	1.181872	-0.122711	-0.128285
H261	H	0.733332	-0.735236	-0.547205
H262	H	1.233332	-0.235236	-0.047205
H263	H	0.872257	-0.753182	-0.535981
H264	H	1.372257	-0.253182	-0.035981
H265	H	0.959716	-0.658601	-0.605841
H266	H	1.459716	-0.158601	-0.105841
H267	H	0.878496	-0.578226	-0.801029
H268	H	1.378496	-0.078226	-0.301029
H269	H	0.589056	-0.346936	-0.296068
H270	H	1.089056	0.153064	0.203932
