data_functionalizedCrystal
_audit_creation_method	'MofGen! by Chris Wilmer'
_symmetry_space_group_name_H-M	'P1'
_symmetry_Int_Tables_number	1
_symmetry_cell_setting	triclinic
loop_
_symmetry_equiv_pos_as_xyz
  x,y,z
_cell_length_a	11.295483
_cell_length_b	19.288864
_cell_length_c	19.288865
_cell_angle_alpha	83.136245
_cell_angle_beta	94.075585
_cell_angle_gamma	85.895140
loop_
_atom_site_label
_atom_site_type_symbol
_atom_site_fract_x
_atom_site_fract_y
_atom_site_fract_z
O1	O	0.099422	-0.926060	-0.081937
O2	O	0.099342	-0.723796	-0.093629
O3	O	0.099360	-0.830772	0.013346
O4	O	0.099403	-0.819085	-0.188912
O5	O	-0.098692	-0.821376	0.003965
O6	O	-0.098710	-0.714400	-0.103011
O7	O	-0.098631	-0.916665	-0.091318
Cu8	Cu	-0.116754	-0.814674	-0.098021
Cu9	Cu	0.117466	-0.825786	-0.086926
O10	O	-0.098649	-0.809689	-0.198294
C11	C	0.000305	-0.693221	-0.097944
C12	C	0.000274	-0.616116	-0.096817
N13	N	-0.281492	-0.806864	-0.105824
C14	C	0.000409	-0.947240	-0.087003
C15	C	0.000448	-1.024345	-0.088130
C16	C	-0.530767	-0.889825	-0.022909
C17	C	-0.655432	-0.883927	-0.028811
C18	C	-0.655488	-0.789169	-0.123525
C19	C	-0.530824	-0.795066	-0.117623
C20	C	-0.468467	-0.845397	-0.067314
C21	C	-0.343801	-0.851297	-0.061417
C22	C	-0.343859	-0.756536	-0.156127
C23	C	-0.468524	-0.750638	-0.162029
N24	N	0.282203	-0.833602	-0.079118
C25	C	0.000331	-0.825697	0.034532
C26	C	0.000320	-0.824568	0.111635
C27	C	0.000306	-0.571421	-0.159583
C28	C	0.000319	-0.498975	-0.158522
C29	C	0.000324	-0.471227	-0.094689
C30	C	0.000285	-0.515932	-0.031915
C31	C	0.000260	-0.588376	-0.032979
C32	C	0.069740	-0.366259	-0.041222
C33	C	0.069772	-0.293816	-0.040161
C34	C	0.000395	-0.247785	-0.091406
C35	C	-0.068999	-0.274206	-0.143724
C36	C	-0.069024	-0.346650	-0.144788
C37	C	0.000350	-0.392675	-0.093529
C38	C	0.000439	-0.124535	-0.153026
C39	C	0.000445	-0.052087	-0.151963
C40	C	0.000423	-0.069046	-0.025354
C41	C	0.000405	-0.141492	-0.026420
C42	C	0.000419	-0.169232	-0.090258
C43	C	0.000383	-0.814763	-0.219479
C44	C	0.000402	-0.815893	-0.296582
C45	C	0.000339	-0.887337	0.156332
C46	C	0.000357	-0.886277	0.228780
C47	C	0.000333	-0.822443	0.256527
C48	C	0.000320	-0.759667	0.211820
C49	C	0.000314	-0.760729	0.139374
C50	C	-0.069061	-0.768972	0.361527
C51	C	-0.069062	-0.767912	0.433971
C52	C	0.000358	-0.819165	0.479973
C53	C	0.069763	-0.871489	0.453523
C54	C	0.069756	-0.872551	0.381077
C55	C	0.000340	-0.821285	0.335081
C56	C	0.000398	-0.880789	0.603228
C57	C	0.000424	-0.879727	0.675677
C58	C	0.000376	-0.753115	0.658714
C59	C	0.000362	-0.754179	0.586267
C60	C	0.000368	-0.818018	0.558528
H61	H	-0.293031	-0.892280	-0.020454
H62	H	-0.125597	-0.727233	0.324076
C63	C	-0.723958	-0.932800	0.020033
H64	H	-0.668962	-0.963621	0.050836
H65	H	-0.772617	-0.905605	0.046579
H66	H	-0.772559	-0.959339	-0.007183
C67	C	-0.145396	-0.710359	0.463064
H68	H	-0.135461	-0.717070	0.512798
H69	H	-0.121008	-0.665737	0.446189
H70	H	-0.226823	-0.712771	0.448161
C71	C	-0.275333	-0.707662	-0.204978
H72	H	-0.330329	-0.676848	-0.235787
H73	H	-0.226722	-0.681127	-0.177770
H74	H	-0.226684	-0.734866	-0.231527
H75	H	-0.479996	-0.930810	0.018050
H76	H	-0.706275	-0.748187	-0.164481
H77	H	0.000340	-0.703065	0.549873
H78	H	0.000303	-0.707693	0.234416
H79	H	0.000298	-0.709613	0.102981
H80	H	0.000377	-0.937392	0.265180
H81	H	-0.519309	-0.709658	-0.202988
C82	C	0.000239	-0.637543	0.036068
H83	H	0.000250	-0.610645	0.074238
H84	H	-0.068831	-0.662867	0.035015
H85	H	0.069308	-0.669445	0.041553
H86	H	0.000319	-0.594002	-0.211565
C87	C	0.000372	-0.449803	-0.227566
H88	H	0.000387	-0.476700	-0.265737
H89	H	-0.068676	-0.417890	-0.233062
H90	H	0.069463	-0.424491	-0.226499
H91	H	0.000446	-0.930843	0.712070
C92	C	0.146125	-0.927875	0.504113
H93	H	0.187448	-0.959190	0.477984
H94	H	0.201917	-0.906098	0.531794
H95	H	0.096104	-0.953133	0.533766
C96	C	0.000293	-0.485416	0.038300
H97	H	0.000262	-0.522413	0.075531
H98	H	0.069368	-0.460803	0.044620
H99	H	-0.068771	-0.454213	0.038073
C100	C	0.000366	-0.957557	0.125824
H101	H	0.000392	-0.994789	0.162825
H102	H	-0.068696	-0.957331	0.094648
H103	H	0.069443	-0.963879	0.101184
H104	H	0.126271	-0.915154	0.359544
C105	C	0.146054	-0.416889	0.015151
H106	H	0.136093	-0.463818	0.007030
H107	H	0.227481	-0.408084	0.013079
H108	H	0.121646	-0.410007	0.060126
H109	H	-0.125530	-0.368159	-0.187385
H110	H	-0.125493	-0.236729	-0.185453
H111	H	0.000433	-0.147121	-0.205008
C112	C	0.000480	-0.002922	-0.221010
H113	H	0.000496	-0.029823	-0.259178
H114	H	-0.068576	0.028984	-0.226503
H115	H	0.069563	0.022396	-0.219949
C116	C	0.000353	-0.682899	0.689227
H117	H	0.000354	-0.691255	0.738775
H118	H	0.069406	-0.660340	0.677132
H119	H	-0.068733	-0.653787	0.670607
C120	C	0.000436	-0.038533	0.044861
H121	H	0.000463	0.011013	0.036507
H122	H	-0.068634	-0.050596	0.067430
H123	H	0.069505	-0.057184	0.073963
C124	C	0.000388	-0.190662	0.042623
H125	H	0.000365	-0.237781	0.032847
H126	H	0.069452	-0.185567	0.072078
H127	H	-0.068687	-0.178980	0.065535
C128	C	0.146095	-0.264759	0.017388
H129	H	0.187391	-0.302547	0.047764
H130	H	0.201910	-0.235944	-0.003561
H131	H	0.096060	-0.237869	0.043476
C132	C	0.000420	-0.951006	0.572708
H133	H	0.000397	-0.942649	0.523159
H134	H	0.069497	-0.980119	0.591327
H135	H	-0.068642	-0.973565	0.584804
