data_functionalizedCrystal
_audit_creation_method	'MofGen! by Chris Wilmer'
_symmetry_space_group_name_H-M	'P1'
_symmetry_Int_Tables_number	1
_symmetry_cell_setting	triclinic
loop_
_symmetry_equiv_pos_as_xyz
  x,y,z
_cell_length_a	17.638166
_cell_length_b	12.759401
_cell_length_c	12.759393
_cell_angle_alpha	90.020566
_cell_angle_beta	101.174206
_cell_angle_gamma	78.757653
loop_
_atom_site_label
_atom_site_type_symbol
_atom_site_fract_x
_atom_site_fract_y
_atom_site_fract_z
Zn1	Zn	-0.314691	-1.521580	-0.678505
Zn2	Zn	-0.446894	-1.485894	-0.538322
Zn3	Zn	-0.314725	-1.345870	-0.502851
Zn4	Zn	-0.446831	-1.310310	-0.713944
O5	O	-0.380786	-1.415913	-0.608406
O6	O	-0.332240	-1.663864	-0.659924
O7	O	-0.429403	-1.467266	-0.386607
O8	O	-0.204106	-1.398994	-0.496476
O9	O	-0.429369	-1.637646	-0.556932
O10	O	-0.204081	-1.528088	-0.625528
O11	O	-0.332299	-1.364391	-0.360546
O12	O	-0.332238	-1.194135	-0.530839
O13	O	-0.429262	-1.338389	-0.856253
O14	O	-0.429295	-1.168010	-0.685928
O15	O	-0.332179	-1.493608	-0.830217
O16	O	-0.557500	-1.432786	-0.591295
O17	O	-0.557454	-1.303786	-0.720324
C18	C	-0.380764	-1.142952	-0.608381
C19	C	-0.380774	-1.026173	-0.608400
C20	C	-0.330288	-0.984939	-0.662155
C21	C	-0.330293	-0.875214	-0.662161
C22	C	-0.431276	-0.847963	-0.554657
C23	C	-0.431266	-0.957688	-0.554645
C24	C	-0.586158	-1.360583	-0.663527
C25	C	-0.674018	-1.337009	-0.687143
C26	C	-0.797856	-1.236561	-0.787553
C27	C	-0.715299	-1.258721	-0.765354
C28	C	-0.715284	-1.393164	-0.631096
C29	C	-0.797843	-1.371012	-0.653279
C30	C	-0.839123	-1.292710	-0.731510
C31	C	-0.839109	-1.427161	-0.597236
C32	C	-0.921661	-1.405014	-0.619422
C33	C	-0.962946	-1.326718	-0.697651
C34	C	-0.921674	-1.270563	-0.753696
C35	C	-0.797828	-1.505468	-0.519011
C36	C	-0.839095	-1.561617	-0.462968
C37	C	-0.921648	-1.539465	-0.485148
C38	C	-0.962933	-1.461169	-0.563378
C39	C	-0.962920	-1.595620	-0.429104
C40	C	-1.045472	-1.573473	-0.451290
C41	C	-1.045485	-1.439022	-0.585564
C42	C	-0.174611	-1.471488	-0.553092
C43	C	-0.086751	-1.495171	-0.529521
C44	C	-0.380710	-1.416013	-0.882419
C45	C	-0.380677	-1.416055	-0.999187
C46	C	-0.380800	-0.689943	-0.608426
C47	C	-0.380788	-0.806723	-0.608419
C48	C	-0.330118	-1.496884	-1.040491
C49	C	-0.330084	-1.496911	-1.150206
C50	C	-0.431175	-1.335274	-1.177305
C51	C	-0.431205	-1.335244	-1.067590
C52	C	-0.380804	-1.415891	-0.335443
C53	C	-0.380614	-1.416112	-0.218616
H54	H	-0.472378	-0.991260	-0.510866
O55	O	-0.281198	-1.051592	-0.714207
C56	C	-0.174445	-1.204169	-0.699911
C57	C	-0.230005	-1.128783	-0.640836
H58	H	-0.133031	-1.266583	-0.640613
H59	H	-0.210736	-1.245861	-0.764489
H60	H	-0.138399	-1.155814	-0.738363
H61	H	-0.266063	-1.177059	-0.602320
H62	H	-0.193669	-1.087088	-0.576315
O63	O	-0.281281	-0.834990	-0.714293
C64	C	-0.236573	-0.678024	-0.762015
C65	C	-0.292109	-0.723438	-0.702911
H66	H	-0.245321	-0.587826	-0.752853
H67	H	-0.172799	-0.716685	-0.726593
H68	H	-0.250527	-0.695941	-0.850431
H69	H	-0.278227	-0.705534	-0.614490
H70	H	-0.355867	-0.684776	-0.738419
H71	H	-0.929300	-1.659380	-0.365416
H72	H	-1.030165	-1.308692	-0.715718
O73	O	-0.837929	-1.160618	-0.863685
C74	C	-0.863100	-1.102731	-1.049112
C75	C	-0.817682	-1.188820	-0.963008
H76	H	-0.846735	-1.125490	-1.129430
H77	H	-0.929199	-1.096557	-1.055431
H78	H	-0.846949	-1.022362	-1.026192
H79	H	-0.833768	-1.269235	-0.985864
H80	H	-0.751595	-1.194900	-0.956706
H81	H	-0.472375	-1.269415	-1.033961
H82	H	-0.472386	-0.792190	-0.510893
O83	O	-1.085557	-1.363078	-0.661696
C84	C	-1.110729	-1.305192	-0.847122
C85	C	-1.065311	-1.391281	-0.761019
H86	H	-1.094364	-1.327951	-0.927441
H87	H	-1.176828	-1.299018	-0.853441
H88	H	-1.094578	-1.224823	-0.824203
H89	H	-1.081397	-1.471695	-0.783875
H90	H	-0.999224	-1.397360	-0.754716
H91	H	-0.472315	-1.269483	-1.233012
O92	O	-0.961658	-1.194498	-0.829755
C93	C	-0.952970	-1.063425	-0.960548
C94	C	-0.907591	-1.149551	-0.874460
H95	H	-0.909276	-1.027045	-0.996702
H96	H	-0.991534	-1.101240	-1.025959
H97	H	-0.991704	-0.998173	-0.922656
H98	H	-0.868814	-1.214829	-0.912257
H99	H	-0.869076	-1.111657	-0.809060
O100	O	-0.280885	-1.575302	-1.190349
C101	C	-0.174153	-1.618234	-1.285630
C102	C	-0.229815	-1.529351	-1.240202
H103	H	-0.132860	-1.581114	-1.325966
H104	H	-0.137989	-1.675975	-1.217919
H105	H	-0.210447	-1.663417	-1.346703
H106	H	-0.193582	-1.484088	-1.179144
H107	H	-0.265981	-1.471683	-1.307971
O108	O	-0.675172	-1.204336	-0.819898
C109	C	-0.581859	-1.215181	-0.936606
C110	C	-0.627269	-1.276892	-0.874910
H111	H	-0.543106	-1.273818	-0.981081
H112	H	-0.625505	-1.155442	-0.996400
H113	H	-0.543306	-1.170592	-0.877941
H114	H	-0.665824	-1.321544	-0.933494
H115	H	-0.583581	-1.336569	-0.815101
H116	H	-0.288973	-1.562683	-0.984798
O117	O	-0.675060	-1.469155	-0.555105
C118	C	-0.547879	-1.562907	-0.461461
C119	C	-0.593332	-1.476805	-0.547533
H120	H	-0.481794	-1.569135	-0.455327
H121	H	-0.564108	-1.540137	-0.381068
H122	H	-0.564095	-1.643253	-0.484323
H123	H	-0.577140	-1.396427	-0.524772
H124	H	-0.577099	-1.499666	-0.627903
H125	H	-0.730610	-1.523499	-0.500952
H126	H	-0.805476	-1.625373	-0.399275
O127	O	-1.085488	-1.628163	-0.396880
C128	C	-1.110742	-1.800110	-0.352840
C129	C	-1.065352	-1.738315	-0.414486
H130	H	-1.094491	-1.889178	-0.367070
H131	H	-1.094561	-1.786122	-0.263741
H132	H	-1.176827	-1.770759	-0.382132
H133	H	-0.999257	-1.767628	-0.385285
H134	H	-1.081599	-1.752304	-0.503575
