data_functionalizedCrystal
_audit_creation_method	'MofGen! by Chris Wilmer'
_symmetry_space_group_name_H-M	'P1'
_symmetry_Int_Tables_number	1
_symmetry_cell_setting	triclinic
loop_
_symmetry_equiv_pos_as_xyz
  x,y,z
_cell_length_a	9.130313
_cell_length_b	10.654565
_cell_length_c	10.654546
_cell_angle_alpha	84.487422
_cell_angle_beta	89.999457
_cell_angle_gamma	89.993581
loop_
_atom_site_label
_atom_site_type_symbol
_atom_site_fract_x
_atom_site_fract_y
_atom_site_fract_z
O1	O	0.121976	-1.667821	-0.176495
O2	O	0.121934	-1.302344	-0.193280
O3	O	0.121964	-1.493488	-0.002149
O4	O	0.121945	-1.476677	-0.367627
O5	O	-0.121634	-1.493485	-0.002138
O6	O	-0.121664	-1.302342	-0.193270
O7	O	-0.121623	-1.667818	-0.176485
Cu8	Cu	-0.143886	-1.485080	-0.184877
Cu9	Cu	0.144197	-1.485083	-0.184888
O10	O	-0.121653	-1.476675	-0.367616
C11	C	0.000130	-1.255545	-0.192039
C12	C	0.000115	-1.116103	-0.188339
N13	N	-0.346509	-1.485087	-0.184867
N14	N	0.346820	-1.485086	-0.184888
C15	C	-0.132663	-1.050571	-0.186608
C16	C	-0.132646	-0.919549	-0.183141
C17	C	0.132939	-0.919602	-0.183143
C18	C	0.132920	-1.050623	-0.186600
C19	C	-0.265468	-1.116052	-0.188346
C20	C	-0.398257	-1.050519	-0.186617
C21	C	-0.398240	-0.919497	-0.183150
C22	C	-0.265434	-0.854007	-0.181414
C23	C	0.423485	-1.569883	-0.100421
C24	C	0.576822	-1.569887	-0.100414
C25	C	0.576815	-1.400285	-0.269343
C26	C	0.423481	-1.400288	-0.269356
C27	C	0.346825	-1.654680	-0.015953
C28	C	0.423490	-1.739484	0.068521
C29	C	0.576827	-1.739488	0.068529
C30	C	0.653498	-1.654688	-0.015938
C31	C	0.000170	-1.492253	0.044655
C32	C	0.000186	-1.488563	0.184098
C33	C	0.000170	-0.714617	-0.177724
C34	C	0.000151	-0.854060	-0.181415
C35	C	0.000200	-1.601105	0.263578
C36	C	0.000219	-1.597630	0.394599
C37	C	0.000205	-1.369061	0.366648
C38	C	0.000196	-1.372538	0.235630
C39	C	0.000189	-1.717130	0.212046
C40	C	0.000202	-1.829681	0.291527
C41	C	0.000222	-1.826206	0.422548
C42	C	0.000229	-1.710180	0.474089
C43	C	0.000163	-1.477912	0.585581
C44	C	0.000215	-1.481612	0.446138
H45	H	-0.265497	-1.222736	-0.191173
H46	H	0.361056	-1.808532	0.137285
Cl47	Cl	-0.265418	-0.689297	-0.177021
Cl48	Cl	0.000160	-1.721506	0.047336
Cl49	Cl	0.327099	-1.293686	-0.375550
H50	H	0.778356	-1.654707	-0.015933
H51	H	0.639251	-1.331244	-0.338111
Cl52	Cl	0.000189	-1.705816	0.638804
Cl53	Cl	0.673205	-1.846104	0.174712
Cl54	Cl	0.299882	-0.837272	-0.180952
Cl55	Cl	-0.565203	-1.132848	-0.188786
Cl56	Cl	-0.565171	-0.837118	-0.180967
H57	H	0.241040	-1.103980	-0.188016
Cl58	Cl	0.154059	-1.654675	-0.015954
H59	H	0.000232	-1.924145	0.249554
H60	H	0.000247	-1.917850	0.487259
Cl61	Cl	0.000211	-1.223211	0.431444
H62	H	0.000183	-1.280896	0.170915
