data_functionalizedCrystal
_audit_creation_method	'MofGen! by Chris Wilmer'
_symmetry_space_group_name_H-M	'P1'
_symmetry_Int_Tables_number	1
_symmetry_cell_setting	triclinic
loop_
_symmetry_equiv_pos_as_xyz
  x,y,z
_cell_length_a	16.109301
_cell_length_b	11.026607
_cell_length_c	14.586319
_cell_angle_alpha	89.998207
_cell_angle_beta	89.999213
_cell_angle_gamma	96.023749
loop_
_atom_site_label
_atom_site_type_symbol
_atom_site_fract_x
_atom_site_fract_y
_atom_site_fract_z
O1	O	1.126503	0.155971	-0.076179
O2	O	1.626503	0.655971	0.423821
O3	O	0.887350	0.175382	-0.076193
O4	O	1.387350	0.675382	0.423807
O5	O	0.987106	-0.010969	-0.076183
O6	O	1.487106	0.489031	0.423817
O7	O	1.026747	0.342322	-0.076188
O8	O	1.526747	0.842322	0.423812
O9	O	0.987097	-0.010971	0.076297
O10	O	1.487097	0.489029	0.576297
O11	O	0.887341	0.175379	0.076288
O12	O	1.387341	0.675379	0.576288
O13	O	1.126494	0.155969	0.076302
O14	O	1.626494	0.655969	0.576302
Cu15	Cu	1.006916	0.165674	0.090218
Cu16	Cu	1.506916	0.665674	0.590218
Cu17	Cu	1.006927	0.165677	-0.090108
Cu18	Cu	1.506927	0.665677	0.409892
O19	O	1.026738	0.342319	0.076293
O20	O	1.526738	0.842319	0.576293
C21	C	0.856253	0.174594	0.000046
C22	C	1.356253	0.674594	0.500046
C23	C	0.763604	0.172237	0.000040
C24	C	1.263604	0.672237	0.500040
C25	C	0.557080	0.277333	0.000050
C26	C	1.057080	0.777333	0.500050
C27	C	0.470027	0.275108	0.000056
C28	C	0.970027	0.775108	0.500056
C29	C	0.456769	0.054010	0.000055
C30	C	0.956769	0.554010	0.500055
C31	C	0.543821	0.056235	0.000055
C32	C	1.043821	0.556235	0.500055
C33	C	0.593975	0.167900	0.000048
C34	C	1.093975	0.667900	0.500048
C35	C	0.419869	0.163450	0.000053
C36	C	0.919869	0.663450	0.500053
C37	C	0.325481	0.161038	0.000060
C38	C	0.825481	0.661038	0.500060
C39	C	0.688369	0.170314	0.000043
C40	C	1.188369	0.670314	0.500043
C41	C	0.979788	-0.056178	0.000055
C42	C	1.479788	0.443822	0.500055
C43	C	0.957987	-0.190883	0.000051
C44	C	1.457987	0.309117	0.500051
C45	C	1.018183	-0.264713	0.000053
C46	C	1.518183	0.235287	0.500053
C47	C	0.995652	-0.403938	0.000048
C48	C	1.495652	0.096062	0.500048
C49	C	1.157591	0.156756	0.000062
C50	C	1.657591	0.656756	0.500062
C51	C	1.250240	0.159114	0.000061
C52	C	1.750240	0.659114	0.500061
C53	C	1.034056	0.387529	0.000052
C54	C	1.534056	0.887529	0.500052
C55	C	1.055857	0.522234	0.000051
C56	C	1.555857	1.022234	0.500051
N57	N	1.006915	0.165671	0.217050
N58	N	1.506915	0.665671	0.717050
N59	N	1.006934	0.165670	-0.216940
N60	N	1.506934	0.665670	0.283060
C61	C	1.051109	0.083182	0.452060
C62	C	1.551109	0.583182	0.952060
C63	C	1.051111	0.083179	0.548041
C64	C	1.551111	0.583179	1.048041
C65	C	0.962734	0.248163	0.548043
C66	C	1.462734	0.748163	1.048043
C67	C	0.962728	0.248159	0.452063
C68	C	1.462728	0.748159	0.952063
C69	C	1.006920	0.165670	0.404074
C70	C	1.506920	0.665670	0.904074
C71	C	1.006929	0.165671	0.596035
C72	C	1.506929	0.665671	1.096035
C73	C	1.006930	0.165668	0.700102
C74	C	1.506930	0.665668	1.200102
C75	C	1.006918	0.165671	0.300001
C76	C	1.506918	0.665671	0.800001
H77	H	0.597913	0.368257	0.000051
H78	H	1.097913	0.868257	0.500051
H79	H	1.087092	0.016013	0.412990
H80	H	1.587092	0.516013	0.912990
H81	H	0.926740	0.315331	0.412991
H82	H	1.426740	0.815331	0.912991
H83	H	1.124077	-0.437909	-0.000014
H84	H	1.624077	0.062091	0.499986
H85	H	0.889771	-0.230748	0.000041
H86	H	1.389771	0.269252	0.500041
C87	C	0.401593	-0.068815	0.000054
C88	C	0.901593	0.431185	0.500054
N89	N	0.360034	-0.161330	0.000050
N90	N	0.860034	0.338670	0.500050
C91	C	1.099715	-0.007574	0.600821
C92	C	1.599715	0.492426	1.100821
N93	N	1.136321	-0.075937	0.640575
N94	N	1.636321	0.424063	1.140575
H95	H	0.926755	0.315325	0.587125
H96	H	1.426755	0.815325	1.087125
C97	C	1.110342	-0.210864	0.000065
C98	C	1.610342	0.289136	0.500065
N99	N	1.179758	-0.170307	0.000078
N100	N	1.679758	0.329693	0.500078
H101	H	0.439992	0.364219	0.000059
H102	H	0.939992	0.864219	0.500059
H103	H	0.573861	-0.032883	0.000056
H104	H	1.073861	0.467117	0.500056
H105	H	0.927432	-0.443797	0.000038
H106	H	1.427432	0.056203	0.500038
