data_functionalizedCrystal
_audit_creation_method	'MofGen! by Chris Wilmer'
_symmetry_space_group_name_H-M	'P1'
_symmetry_Int_Tables_number	1
_symmetry_cell_setting	triclinic
loop_
_symmetry_equiv_pos_as_xyz
  x,y,z
_cell_length_a	19.077269
_cell_length_b	25.639240
_cell_length_c	19.076919
_cell_angle_alpha	87.733839
_cell_angle_beta	94.669058
_cell_angle_gamma	92.253560
loop_
_atom_site_label
_atom_site_type_symbol
_atom_site_fract_x
_atom_site_fract_y
_atom_site_fract_z
Zn1	Zn	1.061546	0.250434	-0.355247
Zn2	Zn	1.066164	0.334488	-0.237359
Zn3	Zn	0.948406	0.243697	-0.242116
Zn4	Zn	0.943595	0.334462	-0.359942
O5	O	1.004928	0.290770	-0.298666
O6	O	1.160804	0.264415	-0.335654
O7	O	1.054489	0.319636	-0.139343
O8	O	0.963495	0.171429	-0.257149
O9	O	1.164197	0.326169	-0.249042
O10	O	1.046618	0.176379	-0.340266
O11	O	0.967973	0.252932	-0.142837
O12	O	0.849123	0.252907	-0.261701
O13	O	0.955295	0.326124	-0.457967
O14	O	0.845588	0.319591	-0.348267
O15	O	1.041953	0.264389	-0.454518
O16	O	1.049824	0.407647	-0.253594
O17	O	0.959773	0.407627	-0.343655
C18	C	0.821778	0.285516	-0.306010
C19	C	0.743425	0.283281	-0.309169
C20	C	0.708381	0.314326	-0.265491
C21	C	0.634760	0.312227	-0.268468
C22	C	0.596184	0.279078	-0.315120
C23	C	0.631233	0.248031	-0.358802
C24	C	0.704853	0.250134	-0.355828
C25	C	0.375814	0.269350	-0.328860
C26	C	0.302189	0.267249	-0.331830
C27	C	0.305721	0.331445	-0.241496
C28	C	0.379342	0.333542	-0.238524
C29	C	0.414385	0.302498	-0.282208
N30	N	0.520931	0.276930	-0.318162
N31	N	0.489636	0.304649	-0.279169
C32	C	1.004797	0.426608	-0.298632
C33	C	1.004804	0.484723	-0.298639
C34	C	1.051875	0.845091	-0.251819
C35	C	1.051896	0.899696	-0.251825
O36	O	1.091824	0.927934	-0.211998
N37	N	1.004984	0.927012	-0.298679
C38	C	0.958053	0.899720	-0.345536
O39	O	0.918153	0.927968	-0.385391
C40	C	0.958035	0.845116	-0.345533
C41	C	1.004945	0.817803	-0.298671
C42	C	1.098781	0.817777	-0.204960
C43	C	1.098759	0.763176	-0.204954
C44	C	1.051830	0.735888	-0.251805
C45	C	1.004923	0.763201	-0.298664
C46	C	0.911108	0.817825	-0.392393
C47	C	0.911095	0.763217	-0.392386
C48	C	0.958005	0.735904	-0.345524
C49	C	0.957972	0.681312	-0.345509
N50	N	1.004883	0.653996	-0.298654
C51	C	1.051813	0.681284	-0.251802
C52	C	0.958094	1.014392	-0.345540
C53	C	0.958107	1.068994	-0.345540
C54	C	1.051951	1.068967	-0.251829
C55	C	1.051934	1.014363	-0.251826
C56	C	1.005005	0.987076	-0.298685
C57	C	1.051762	0.566617	-0.251792
C58	C	1.051733	0.512011	-0.251787
C59	C	0.957892	0.512043	-0.345501
C60	C	0.957917	0.566645	-0.345503
C61	C	1.004858	0.593930	-0.298646
O62	O	0.918066	0.653039	-0.385317
O63	O	1.091712	0.653029	-0.211961
C64	C	1.188793	0.296046	-0.291294
C65	C	1.267145	0.298294	-0.288152
C66	C	1.005052	1.154402	-0.298703
C67	C	1.005039	1.096287	-0.298691
C68	C	0.997573	0.296005	-0.482535
C69	C	0.994438	0.298236	-0.560890
C70	C	1.038082	0.267144	-0.595906
C71	C	1.035128	0.269237	-0.669528
C72	C	0.988534	0.302427	-0.708133
C73	C	0.944886	0.333520	-0.673112
C74	C	0.947837	0.331423	-0.599491
C75	C	0.974868	0.312142	-0.928509
C76	C	0.971923	0.314238	-1.002135
C77	C	1.062164	0.249954	-0.998547
C78	C	1.065114	0.247862	-0.924924
C79	C	1.021463	0.278954	-0.889909
N80	N	0.985516	0.304569	-0.783387
N81	N	1.024478	0.276808	-0.814657
C82	C	1.012295	0.285519	-0.115510
C83	C	1.015566	0.283145	-0.037151
H84	H	0.599818	0.221044	-0.396790
H85	H	1.090166	1.091195	-0.213682
H86	H	1.090132	0.992128	-0.213667
N87	N	0.907280	0.482609	-0.396038
H88	H	0.857363	0.490395	-0.387076
H89	H	0.914449	0.443884	-0.388900
N90	N	0.894627	0.369321	-0.714736
H91	H	0.844785	0.359387	-0.703939
H92	H	0.899435	0.365922	-0.766676
N93	N	0.596961	0.345710	-0.221358
H94	H	0.632570	0.367025	-0.191349
H95	H	0.567727	0.322588	-0.190025
H96	H	0.733384	0.224853	-0.391394
N97	N	1.115356	0.212046	-0.883306
H98	H	1.087948	0.186126	-0.853926
H99	H	1.149225	0.233382	-0.851478
H100	H	1.097701	0.224640	-1.027064
N101	N	1.088345	0.231350	-0.554274
H102	H	1.122213	0.252669	-0.522420
H103	H	1.115494	0.211981	-0.587682
H104	H	0.872881	0.741003	-0.430547
N105	N	0.420939	0.369296	-0.188201
H106	H	0.407663	0.406608	-0.199574
H107	H	0.472882	0.365875	-0.192962
H108	H	0.919722	0.588884	-0.383664
N109	N	0.267926	0.364926	-0.194380
H110	H	0.215435	0.358566	-0.203341
H111	H	0.280329	0.402956	-0.204739
N112	N	1.149367	0.733723	-0.154418
H113	H	1.142242	0.694990	-0.161518
H114	H	1.140458	0.741545	-0.104502
H115	H	1.070669	0.243920	-0.698035
H116	H	0.919902	1.091228	-0.383694
H117	H	0.872906	0.840054	-0.430551
N118	N	0.260580	0.231496	-0.382151
H119	H	0.293949	0.212150	-0.409376
H120	H	0.228721	0.252875	-0.415949
H121	H	0.933978	0.341266	-1.033565
H122	H	1.089933	0.489774	-0.213623
N123	N	0.413605	0.235868	-0.375975
H124	H	0.377994	0.214549	-0.405976
H125	H	0.445310	0.211696	-0.346108
N126	N	0.927767	0.345657	-0.890749
H127	H	0.897798	0.366995	-0.926378
H128	H	0.957632	0.369811	-0.859031
H129	H	0.912290	0.356737	-0.570982
H130	H	0.739784	0.341317	-0.227500
N131	N	1.102383	0.596046	-0.201254
H132	H	1.152298	0.588254	-0.210219
H133	H	1.093421	0.584804	-0.151337
N134	N	1.149403	0.847204	-0.154424
H135	H	1.179110	0.821608	-0.124744
H136	H	1.122049	0.868137	-0.122925
H137	H	0.919873	0.992177	-0.383696
