data_functionalizedCrystal
_audit_creation_method	'MofGen! by Chris Wilmer'
_symmetry_space_group_name_H-M	'P1'
_symmetry_Int_Tables_number	1
_symmetry_cell_setting	triclinic
loop_
_symmetry_equiv_pos_as_xyz
  x,y,z
_cell_length_a	11.026607
_cell_length_b	13.930277
_cell_length_c	11.026607
_cell_angle_alpha	90.001745
_cell_angle_beta	108.586017
_cell_angle_gamma	90.006516
loop_
_atom_site_label
_atom_site_type_symbol
_atom_site_fract_x
_atom_site_fract_y
_atom_site_fract_z
O1	O	1.726738	0.079829	0.533624
O2	O	1.360158	0.079830	0.472860
O3	O	1.513067	0.079826	0.319952
O4	O	1.573830	0.079833	0.686532
O5	O	1.513038	-0.079836	0.319942
O6	O	1.360130	-0.079832	0.472850
O7	O	1.726710	-0.079833	0.533614
Zn8	Zn	1.543416	-0.105182	0.503230
Zn9	Zn	1.543453	0.105179	0.503244
O10	O	1.573802	-0.079829	0.686522
C11	C	1.312485	-0.000001	0.461645
C12	C	1.170471	-0.000000	0.428228
N13	N	1.543400	-0.248748	0.503222
C14	C	1.116821	0.000002	0.520498
C15	C	0.970043	0.000003	0.485962
C16	C	1.475734	-0.701016	0.570917
C17	C	1.611204	-0.700989	0.435568
C18	C	1.611188	-0.600493	0.435561
C19	C	1.543446	-0.550254	0.503234
C20	C	1.475719	-0.600511	0.570914
C21	C	1.678924	-0.550229	0.367892
C22	C	1.678912	-0.449727	0.367883
C23	C	1.611161	-0.399486	0.435550
C24	C	1.543431	-0.449749	0.503232
C25	C	1.475688	-0.399510	0.570905
C26	C	1.407950	-0.449771	0.638580
C27	C	1.407969	-0.550270	0.638581
C28	C	1.611142	-0.298987	0.435549
C29	C	1.475673	-0.299005	0.570903
C30	C	1.774384	-0.000001	0.544828
C31	C	1.916398	0.000005	0.578245
C32	C	1.501843	-0.000004	0.272287
C33	C	1.468426	-0.000000	0.130273
N34	N	1.543477	0.248745	0.503244
C35	C	1.560695	0.000001	0.076624
C36	C	1.526160	0.000004	-0.070155
C37	C	1.585026	0.000003	0.734187
C38	C	1.618443	0.000005	0.876200
H39	H	1.179555	-0.000001	0.625061
H40	H	0.907314	0.000026	0.381393
H41	H	1.666301	-0.258069	0.380456
N42	N	0.999472	-0.000002	0.716763
H43	H	1.092550	-0.000004	0.721804
H44	H	0.980670	0.059188	0.760571
H45	H	1.107738	0.000023	0.323666
N46	N	1.402594	-0.244821	0.643882
H47	H	1.359687	-0.291913	0.686748
H48	H	1.463677	-0.203113	0.710908
N49	N	1.334885	-0.395587	0.711573
H50	H	1.395906	-0.353881	0.778662
H51	H	1.267826	-0.353953	0.650429
H52	H	1.352820	-0.591199	0.693681
H53	H	1.734066	-0.408811	0.312778
H54	H	1.363863	0.000006	0.067540
H55	H	1.420578	-0.741941	0.626013
H56	H	1.421590	0.000011	-0.132884
H57	H	1.666366	-0.741897	0.380478
N58	N	1.751997	-0.604411	0.294919
H59	H	1.741723	-0.675703	0.305187
H60	H	1.717538	-0.586852	0.201292
N61	N	1.756963	0.000005	-0.040733
H62	H	1.774964	0.059191	0.015090
H63	H	1.774853	-0.059221	0.014996
H64	H	1.665258	-0.000006	0.139357
