data_functionalizedCrystal
_audit_creation_method	'MofGen! by Chris Wilmer'
_symmetry_space_group_name_H-M	'P1'
_symmetry_Int_Tables_number	1
_symmetry_cell_setting	triclinic
loop_
_symmetry_equiv_pos_as_xyz
  x,y,z
_cell_length_a	15.995300
_cell_length_b	15.995350
_cell_length_c	15.072220
_cell_angle_alpha	89.994173
_cell_angle_beta	90.006478
_cell_angle_gamma	96.517909
loop_
_atom_site_label
_atom_site_type_symbol
_atom_site_fract_x
_atom_site_fract_y
_atom_site_fract_z
O1	O	1.111012	-0.107730	0.073811
O2	O	0.867231	-0.121101	0.073805
O3	O	0.995785	0.007473	0.073807
O4	O	0.982457	-0.236305	0.073808
O5	O	0.995774	0.007485	-0.073758
O6	O	0.867220	-0.121089	-0.073760
O7	O	1.111001	-0.107718	-0.073755
Zn8	Zn	0.989108	-0.114402	-0.097187
Zn9	Zn	0.989123	-0.114418	0.097237
O10	O	0.982446	-0.236293	-0.073757
C11	C	0.836030	-0.120550	0.000021
C12	C	0.743077	-0.118915	0.000019
C13	C	0.572894	-0.115896	0.000026
C14	C	0.525428	-0.207443	0.000025
C15	C	0.428740	-0.205773	0.000362
C16	C	0.405337	-0.112924	0.000032
C17	C	0.446477	-0.067510	0.084132
C18	C	0.543110	-0.069827	0.084201
C19	C	0.543376	-0.068458	-0.083614
C20	C	0.446432	-0.068466	-0.084717
C21	C	0.310642	-0.111239	0.000038
C22	C	0.667590	-0.117577	0.000026
C23	C	0.995229	0.038674	0.000026
C24	C	0.993577	0.131624	0.000031
C25	C	1.142202	-0.108269	0.000031
C26	C	1.235154	-0.109904	0.000039
C27	C	0.983003	-0.267493	0.000026
C28	C	0.984655	-0.360443	0.000027
N29	N	0.989104	-0.114390	-0.229875
C30	C	0.987644	0.469370	0.000028
C31	C	0.896090	0.421920	0.000357
C32	C	0.897743	0.325230	0.000024
C33	C	0.990587	0.301810	0.000030
C34	C	1.035738	0.342903	-0.084234
C35	C	1.033438	0.439538	-0.084305
C36	C	1.035342	0.439883	0.083504
C37	C	1.035321	0.342938	0.084618
C38	C	0.992255	0.207113	0.000028
C39	C	0.985979	0.564068	0.000024
C40	C	0.989114	-0.114402	-0.410873
C41	C	1.057917	-0.045627	-0.448513
C42	C	1.058167	-0.045811	-0.551339
C43	C	0.989124	-0.114411	-0.589077
C44	C	1.007844	-0.201880	-0.551730
C45	C	1.008333	-0.201471	-0.448873
C46	C	0.901385	-0.096494	-0.448794
C47	C	0.901978	-0.094515	-0.551659
C48	C	0.989128	-0.114422	-0.689790
C49	C	0.989112	-0.114397	-0.310160
N50	N	0.989134	-0.114422	0.229926
H51	H	0.563872	-0.098593	-0.147378
Br52	Br	0.382325	-0.265009	0.101431
H53	H	1.000505	0.457839	-0.147298
Br54	Br	0.838587	0.277834	0.100702
H55	H	0.859502	0.440440	0.060784
H56	H	1.103027	0.327587	0.089710
H57	H	0.419087	-0.101630	-0.146936
H58	H	0.431093	-0.000772	-0.090045
H59	H	1.005414	0.460412	0.147372
Br60	Br	1.145467	0.493313	-0.090682
H61	H	1.103949	0.328790	-0.087364
Br62	Br	0.835186	0.454973	-0.099495
H63	H	1.004369	0.314521	-0.146945
Br64	Br	0.980761	0.296964	0.188535
Br65	Br	1.039666	0.062540	-0.593432
Br66	Br	0.928645	-0.289967	-0.407366
H67	H	1.102845	0.471656	0.084075
H68	H	0.575383	-0.002603	0.087794
H69	H	1.047020	0.019597	-0.423769
H70	H	0.432377	0.000713	0.087023
H71	H	0.575157	-0.000961	-0.084424
H72	H	1.122659	-0.056931	-0.422646
H73	H	1.123278	-0.057287	-0.575938
Br74	Br	1.114951	-0.227694	-0.408868
Br75	Br	0.926517	-0.289265	-0.592462
Br76	Br	1.113244	-0.228737	-0.594650
H77	H	0.862002	0.297364	-0.060485
Br78	Br	0.871253	0.007576	-0.405578
H79	H	0.850188	-0.146645	-0.424452
H80	H	0.848407	-0.141339	-0.577345
Br81	Br	0.381286	-0.265257	-0.100092
Br82	Br	0.556821	-0.269012	-0.100046
Br83	Br	0.399264	-0.119492	0.188846
H84	H	0.545041	-0.243691	0.060243
Br85	Br	0.573656	-0.124392	0.189380
Br86	Br	0.878270	0.012723	-0.592366
