data_functionalizedCrystal
_audit_creation_method	'MofGen! by Chris Wilmer'
_symmetry_space_group_name_H-M	'P1'
_symmetry_Int_Tables_number	1
_symmetry_cell_setting	triclinic
loop_
_symmetry_equiv_pos_as_xyz
  x,y,z
_cell_length_a	10.723023
_cell_length_b	10.723024
_cell_length_c	9.198806
_cell_angle_alpha	89.997988
_cell_angle_beta	89.996191
_cell_angle_gamma	84.467709
loop_
_atom_site_label
_atom_site_type_symbol
_atom_site_fract_x
_atom_site_fract_y
_atom_site_fract_z
O1	O	1.657188	0.175020	-0.120884
O2	O	1.294036	0.191774	-0.120888
O3	O	1.483989	0.001821	-0.120881
O4	O	1.467235	0.364973	-0.120892
O5	O	1.483974	0.001820	0.120904
O6	O	1.294021	0.191774	0.120897
O7	O	1.657173	0.175019	0.120901
Cu8	Cu	1.475596	0.183396	0.142976
Cu9	Cu	1.475613	0.183397	-0.142963
O10	O	1.467220	0.364973	0.120893
C11	C	1.247529	0.190555	0.000004
C12	C	1.108974	0.186908	0.000003
C13	C	1.047211	0.185282	-0.125249
C14	C	0.904007	0.181512	-0.125254
C15	C	1.482762	-0.044679	0.000010
C16	C	1.479114	-0.183233	0.000005
C17	C	1.585402	-0.258216	0.000004
C18	C	1.581634	-0.401420	-0.000001
C19	C	1.703680	0.176239	0.000005
C20	C	1.842235	0.179886	-0.000003
C21	C	1.468447	0.411473	-0.000001
C22	C	1.472095	0.550027	-0.000005
N23	N	1.475592	0.183395	0.344090
N24	N	1.475627	0.183388	-0.344077
C25	C	1.555348	0.103288	0.416290
C26	C	1.555367	0.103283	0.583702
H27	H	0.895343	0.181278	0.107236
H28	H	1.100349	0.186687	-0.232479
O29	O	1.045565	0.185013	0.127898
C30	C	0.911558	0.073247	0.280622
C31	C	0.983327	0.075223	0.135739
H32	H	0.861199	-0.015496	0.286995
H33	H	0.980289	0.074973	0.374985
H34	H	0.839979	0.158864	0.287103
H35	H	1.054906	-0.010378	0.129117
H36	H	0.914521	0.073561	0.041446
H37	H	0.850892	0.180111	-0.232487
H38	H	1.407320	0.251971	0.406215
O39	O	1.697187	-0.208130	0.000072
C40	C	1.802864	-0.019735	-0.000011
C41	C	1.676179	-0.076287	-0.000054
H42	H	1.785923	0.086867	-0.000144
H43	H	1.858237	-0.052031	0.101200
H44	H	1.858229	-0.052190	-0.101173
H45	H	1.620712	-0.043858	0.101040
H46	H	1.620901	-0.043996	-0.101332
H47	H	1.672625	-0.465852	0.000004
O48	O	1.394285	0.265390	0.581938
C49	C	1.323578	0.481817	0.535169
C50	C	1.415788	0.389090	0.619033
H51	H	1.340914	0.581848	0.565152
H52	H	1.338076	0.467354	0.413330
H53	H	1.223409	0.464884	0.565014
H54	H	1.515994	0.405966	0.589310
H55	H	1.401181	0.403575	0.740852
O56	O	1.636774	0.021286	0.657605
C57	C	1.707367	-0.195144	0.704521
C58	C	1.615121	-0.102416	0.620706
H59	H	1.689875	-0.295177	0.674743
H60	H	1.807575	-0.178388	0.674631
H61	H	1.692884	-0.180504	0.826334
H62	H	1.629490	-0.117001	0.498874
H63	H	1.514946	-0.119196	0.650717
O64	O	1.363566	-0.373071	-0.000263
C65	C	1.235863	-0.209751	-0.125478
C66	C	1.358803	-0.296802	-0.125383
H67	H	1.231984	-0.148047	-0.226611
H68	H	1.152755	-0.268526	-0.125577
H69	H	1.231874	-0.148173	-0.024242
H70	H	1.362914	-0.358397	-0.226601
H71	H	1.441853	-0.237952	-0.125208
O72	O	1.367146	-0.232967	0.000193
C73	C	1.172049	-0.249363	0.125491
C74	C	1.298801	-0.192940	0.125444
H75	H	1.116768	-0.217045	0.226761
H76	H	1.116610	-0.216937	0.024374
H77	H	1.188977	-0.355967	0.125414
H78	H	1.281988	-0.086334	0.125572
H79	H	1.354199	-0.225465	0.226552
H80	H	1.623612	0.034702	0.354166
