data_functionalizedCrystal
_audit_creation_method	'MofGen! by Chris Wilmer'
_symmetry_space_group_name_H-M	'P1'
_symmetry_Int_Tables_number	1
_symmetry_cell_setting	triclinic
loop_
_symmetry_equiv_pos_as_xyz
  x,y,z
_cell_length_a	23.532361
_cell_length_b	23.532407
_cell_length_c	17.666332
_cell_angle_alpha	89.988854
_cell_angle_beta	89.994922
_cell_angle_gamma	82.839173
loop_
_atom_site_label
_atom_site_type_symbol
_atom_site_fract_x
_atom_site_fract_y
_atom_site_fract_z
O1	O	0.755281	0.069009	-0.062880
O2	O	0.589413	0.079040	-0.062899
O3	O	0.677349	-0.008908	-0.062875
O4	O	0.667345	0.156957	-0.062904
O5	O	0.677333	-0.008912	0.063022
O6	O	0.589398	0.079036	0.062997
O7	O	0.755265	0.069005	0.063017
Cu8	Cu	0.672330	0.074020	0.074502
Cu9	Cu	0.672348	0.074025	-0.074385
O10	O	0.667330	0.156953	0.062993
C11	C	0.568189	0.078787	0.000047
C12	C	0.504971	0.078032	0.000040
C13	C	0.677086	-0.030126	0.000075
C14	C	0.676320	-0.093343	0.000081
C15	C	0.231735	0.074731	-0.068581
C16	C	0.291135	0.075446	-0.068583
O17	O	0.321868	0.075798	-0.126946
N18	N	0.320832	0.075804	0.000043
C19	C	0.291128	0.075442	0.068676
O20	O	0.321842	0.075812	0.127048
C21	C	0.231730	0.074723	0.068678
C22	C	0.202035	0.074370	0.000047
C23	C	0.202040	0.074377	-0.137207
C24	C	0.142645	0.073663	-0.137204
C25	C	0.112944	0.073303	-0.068577
C26	C	0.142639	0.073657	0.000049
C27	C	0.202027	0.074357	0.137310
C28	C	0.142624	0.073637	0.137305
C29	C	0.112929	0.073285	0.068674
C30	C	0.053542	0.072582	0.068679
N31	N	0.023845	0.072224	0.000052
C32	C	0.053546	0.072584	-0.068575
C33	C	0.415868	0.076951	0.068669
C34	C	0.475264	0.077674	0.068668
C35	C	0.475268	0.077677	-0.068592
C36	C	0.415870	0.076958	-0.068590
C37	C	0.386171	0.076593	0.000042
C38	C	-0.071190	0.071086	-0.068565
C39	C	-0.130591	0.070374	-0.068557
C40	C	-0.130589	0.070369	0.068702
C41	C	-0.071193	0.071083	0.068694
C42	C	-0.041495	0.071440	0.000054
O43	O	0.022772	0.072227	0.127012
O44	O	0.022825	0.072206	-0.126938
C45	C	0.723555	-0.492454	0.000045
C46	C	0.722844	-0.551854	0.000039
O47	O	0.766630	-0.588606	0.000016
N48	N	0.670566	-0.574471	0.000033
C49	C	0.618997	-0.537685	0.000026
O50	O	0.574465	-0.562377	0.000020
C51	C	0.619709	-0.478286	0.000026
C52	C	0.671990	-0.455672	0.000040
C53	C	0.775832	-0.469839	0.000057
C54	C	0.776543	-0.410443	0.000064
C55	C	0.724977	-0.373662	0.000059
C56	C	0.672701	-0.396276	0.000047
C57	C	0.568140	-0.441501	0.000014
C58	C	0.568857	-0.382099	0.000014
C59	C	0.621137	-0.359485	0.000027
C60	C	0.621847	-0.300099	0.000049
N61	N	0.674124	-0.277481	0.000055
C62	C	0.725690	-0.314263	0.000060
C63	C	0.617505	-0.662427	0.000024
C64	C	0.616793	-0.721825	0.000029
C65	C	0.720640	-0.735990	0.000040
C66	C	0.721352	-0.676591	0.000041
C67	C	0.669783	-0.639810	0.000029
C68	C	0.727179	-0.189526	0.000076
C69	C	0.727886	-0.130124	0.000086
C70	C	0.624039	-0.115965	0.000070
C71	C	0.623332	-0.175361	0.000064
C72	C	0.674907	-0.212141	0.000064
O73	O	0.578083	-0.263312	0.000069
O74	O	0.770214	-0.289562	0.000056
C75	C	0.776489	0.069258	0.000069
C76	C	0.839708	0.070014	0.000071
C77	C	0.667592	0.178171	0.000041
C78	C	0.668358	0.241388	0.000030
N79	N	0.672322	0.074016	0.179222
N80	N	0.672362	0.074025	-0.179104
C81	C	0.711272	0.035091	0.218842
C82	C	0.711275	0.035088	0.298090
C83	C	0.672334	0.074020	0.337714
C84	C	0.633376	0.112948	0.298084
C85	C	0.633370	0.112945	0.218838
N86	N	0.664799	0.124456	0.462123
N87	N	0.664808	0.124456	0.537404
C88	C	0.672349	0.074028	0.576478
N89	N	0.679891	0.023598	0.537428
N90	N	0.679885	0.023598	0.462140
C91	C	0.672336	0.074026	0.423643
C92	C	0.711305	0.035097	0.702028
C93	C	0.711304	0.035094	0.781277
C94	C	0.633408	0.112958	0.781270
C95	C	0.633406	0.112956	0.702022
C96	C	0.672357	0.074027	0.662406
H97	H	-0.154767	0.070088	-0.124447
N98	N	-0.040864	0.071441	0.138803
N99	N	-0.002246	0.031686	0.154137
H100	H	0.019168	0.031934	0.203655
H101	H	0.601669	0.144645	0.330350
N102	N	0.505583	0.078049	0.138780
N103	N	0.479049	0.077731	0.200046
H104	H	0.500459	0.077993	0.249566
H105	H	0.525567	-0.459902	-0.000002
N106	N	0.112297	0.073273	0.207421
N107	N	0.113454	0.113501	0.253365
H108	H	0.092037	0.113245	0.302886
N109	N	0.593615	0.152721	0.661558
N110	N	0.558846	0.187477	0.696942
H111	H	0.530739	0.215562	0.668365
N112	N	0.232375	0.074754	-0.207312
N113	N	0.260035	0.115306	-0.222641
H114	H	0.281456	0.115575	-0.272157
N115	N	0.112329	0.073291	-0.207318
N116	N	0.124458	0.033219	-0.253256
H117	H	0.103053	0.032954	-0.302779
N118	N	0.781287	-0.107016	0.000105
N119	N	0.793263	-0.075463	0.053180
H120	H	0.830977	-0.059143	0.053194
H121	H	0.769176	-0.219466	0.000073
H122	H	0.601652	0.144643	0.186578
N123	N	0.828504	-0.507413	0.000077
N124	N	0.827874	-0.560448	0.000084
H125	H	0.865077	-0.586983	0.000106
H126	H	0.819115	-0.392037	0.000072
H127	H	0.499461	0.077970	-0.124472
H128	H	0.580761	-0.193774	0.000074
N129	N	0.751070	-0.004686	0.178413
N130	N	0.733237	-0.039971	0.134215
H131	H	0.761352	-0.068065	0.105674
H132	H	0.742994	0.003390	0.330355
H133	H	0.743020	0.003397	0.669771
H134	H	0.391690	0.076661	0.124561
N135	N	0.751092	-0.004678	0.821739
N136	N	0.785863	-0.039431	0.786354
H137	H	0.813965	-0.067521	0.814931
H138	H	0.762627	-0.765949	0.000042
H139	H	0.601699	0.144654	0.813531
H140	H	0.226194	0.074642	0.193197
H141	H	0.391696	0.076670	-0.124476
N142	N	-0.040868	0.071446	-0.138685
N143	N	-0.067398	0.071130	-0.199947
H144	H	-0.045984	0.071388	-0.249470
N145	N	-0.160943	0.070003	0.138794
N146	N	-0.213977	0.069362	0.138777
H147	H	-0.235416	0.069100	0.188280
N148	N	0.774760	-0.653504	0.000058
N149	N	0.820794	-0.686358	0.000068
H150	H	0.858516	-0.670056	0.000080
H151	H	0.574220	-0.740232	0.000031
N152	N	0.564820	-0.624866	0.000015
N153	N	0.518151	-0.645074	0.000009
H154	H	0.480941	-0.618550	0.000001
H155	H	0.526862	-0.352154	0.000003
H156	H	0.582056	-0.086007	0.000069
