data_functionalizedCrystal
_audit_creation_method	'MofGen! by Chris Wilmer'
_symmetry_space_group_name_H-M	'P1'
_symmetry_Int_Tables_number	1
_symmetry_cell_setting	triclinic
loop_
_symmetry_equiv_pos_as_xyz
  x,y,z
_cell_length_a	15.995350
_cell_length_b	16.109301
_cell_length_c	15.072220
_cell_angle_alpha	89.990519
_cell_angle_beta	89.998756
_cell_angle_gamma	83.476928
loop_
_atom_site_label
_atom_site_type_symbol
_atom_site_fract_x
_atom_site_fract_y
_atom_site_fract_z
O1	O	1.110956	0.107170	-0.073710
O2	O	0.867177	0.120404	-0.073729
O3	O	0.995764	-0.007242	-0.073710
O4	O	0.982370	0.234816	-0.073729
O5	O	0.995753	-0.007254	0.073855
O6	O	0.867166	0.120392	0.073836
O7	O	1.110945	0.107159	0.073855
Zn8	Zn	0.989054	0.113773	0.097275
Zn9	Zn	0.989069	0.113789	-0.097149
O10	O	0.982359	0.234805	0.073836
C11	C	0.835977	0.119851	0.000051
C12	C	0.743027	0.118211	0.000045
C13	C	0.995216	-0.038223	0.000073
C14	C	0.993589	-0.130519	0.000074
C15	C	1.066107	-0.352771	0.000066
C16	C	1.064573	-0.439492	0.000058
C17	C	0.912009	-0.419659	0.000050
C18	C	0.913545	-0.332940	0.000051
C19	C	0.990597	-0.299499	0.000063
C20	C	0.987526	-0.472939	0.000055
C21	C	0.985861	-0.566965	0.000047
C22	C	0.992262	-0.205466	0.000070
C23	C	0.405281	0.112320	0.000064
C24	C	0.452740	0.021413	0.000400
C25	C	0.549430	0.023054	0.000061
C26	C	0.572841	0.115242	0.000055
C27	C	0.531748	0.160087	-0.084212
C28	C	0.435113	0.157804	-0.084276
C29	C	0.434761	0.159669	0.083533
C30	C	0.531706	0.159647	0.084640
C31	C	0.667538	0.116898	0.000047
C32	C	0.310584	0.110667	0.000066
C33	C	1.142145	0.107712	0.000073
C34	C	1.235095	0.109352	0.000074
C35	C	0.982907	0.265786	0.000051
C36	C	0.984534	0.358081	0.000044
N37	N	0.989050	0.113762	0.229964
N38	N	0.989079	0.113794	-0.229837
C39	C	0.989060	0.113773	0.410961
C40	C	1.057880	0.045496	0.448612
C41	C	1.058129	0.045678	0.551438
C42	C	0.989069	0.113783	0.589165
C43	C	1.007766	0.200639	0.551814
C44	C	1.008254	0.200233	0.448957
C45	C	0.901337	0.095976	0.448875
C46	C	0.901931	0.094011	0.551740
C47	C	0.989073	0.113794	0.689878
C48	C	0.989058	0.113768	0.310248
H49	H	1.126061	-0.482864	0.000058
H50	H	0.852051	-0.289563	0.000047
N51	N	1.144364	0.060805	0.584037
H52	H	1.144885	0.060985	0.651044
H53	H	1.187471	0.014999	0.561476
H54	H	0.887736	0.030114	0.576153
N55	N	0.567891	0.116288	0.167221
H56	H	0.556025	0.056034	0.166693
H57	H	0.630689	0.118715	0.168839
N58	N	1.043470	-0.039832	0.584897
H59	H	1.043609	-0.039877	0.651907
H60	H	0.987320	-0.054218	0.562659
H61	H	0.577864	-0.012196	0.060468
H62	H	0.849277	-0.446898	0.000042
N63	N	1.043446	-0.040307	0.415891
H64	H	0.992159	-0.035755	0.376337
H65	H	1.094245	-0.065211	0.381235
H66	H	0.414229	0.129944	0.147405
N67	N	0.552027	0.248698	0.091377
H68	H	0.498118	0.287977	0.090629
H69	H	0.583253	0.256129	0.148551
N70	N	0.428220	-0.026729	0.080451
H71	H	0.386106	0.009918	0.117276
H72	H	0.402296	-0.077843	0.060282
H73	H	0.433161	-0.014752	-0.059693
N74	N	0.410880	0.114489	-0.167703
H75	H	0.382964	0.063425	-0.151364
H76	H	0.370525	0.154019	-0.203514
N77	N	1.143628	0.060336	0.414312
H78	H	1.138089	0.111100	0.374498
H79	H	1.181613	0.069870	0.465961
N80	N	0.392364	0.246209	-0.089313
H81	H	0.436319	0.286488	-0.091490
H82	H	0.356462	0.252893	-0.144534
N83	N	0.586360	-0.023943	-0.080081
H84	H	0.539819	-0.045802	-0.115330
H85	H	0.616200	0.014856	-0.118419
H86	H	0.402981	0.226694	0.084098
N87	N	1.149210	-0.316704	0.000072
H88	H	1.138728	-0.253683	0.000077
H89	H	1.182246	-0.336205	0.054778
H90	H	1.072218	0.215865	0.424963
N91	N	0.550439	0.249799	-0.088386
H92	H	0.585809	0.262263	-0.035565
H93	H	0.582089	0.259017	-0.144865
N94	N	0.944363	0.269577	0.415952
H95	H	0.916008	0.300276	0.468223
H96	H	0.973612	0.309749	0.378793
H97	H	0.958958	0.252687	0.576250
H98	H	0.560136	0.128950	-0.146921
H99	H	1.070998	0.216647	0.577572
N100	N	0.877407	0.013849	0.414535
H101	H	0.923194	-0.012654	0.374046
H102	H	0.870164	-0.024694	0.466136
N103	N	0.830947	0.155573	0.585759
H104	H	0.854373	0.197341	0.626090
H105	H	0.801172	0.185828	0.534004
H106	H	0.850128	0.145764	0.424524
