data_functionalizedCrystal
_audit_creation_method	'MofGen! by Chris Wilmer'
_symmetry_space_group_name_H-M	'P1'
_symmetry_Int_Tables_number	1
_symmetry_cell_setting	triclinic
loop_
_symmetry_equiv_pos_as_xyz
  x,y,z
_cell_length_a	29.839135
_cell_length_b	29.839131
_cell_length_c	29.839125
_cell_angle_alpha	89.974637
_cell_angle_beta	89.984512
_cell_angle_gamma	90.037758
loop_
_atom_site_label
_atom_site_type_symbol
_atom_site_fract_x
_atom_site_fract_y
_atom_site_fract_z
Zn1	Zn	0.686739	-0.178886	-0.254023
Zn2	Zn	0.936739	0.071114	-0.004023
Zn3	Zn	1.186739	0.321114	0.245977
Zn4	Zn	1.436739	0.571114	0.495977
Zn5	Zn	0.686679	-0.253998	-0.178883
Zn6	Zn	0.936679	-0.003998	0.071117
Zn7	Zn	1.186679	0.246002	0.321117
Zn8	Zn	1.436679	0.496002	0.571117
Zn9	Zn	0.611622	-0.178886	-0.178901
Zn10	Zn	0.861622	0.071114	0.071099
Zn11	Zn	1.111622	0.321114	0.321099
Zn12	Zn	1.361622	0.571114	0.571099
Zn13	Zn	0.611578	-0.253993	-0.253980
Zn14	Zn	0.861578	-0.003993	-0.003980
Zn15	Zn	1.111578	0.246007	0.246020
Zn16	Zn	1.361578	0.496007	0.496020
O17	O	0.649154	-0.216441	-0.216447
O18	O	0.899154	0.033559	0.033553
O19	O	1.149154	0.283559	0.283553
O20	O	1.399154	0.533559	0.533553
O21	O	0.749598	-0.188852	-0.244066
O22	O	0.999598	0.061148	0.005934
O23	O	1.249598	0.311148	0.255934
O24	O	1.499598	0.561148	0.505934
O25	O	0.676716	-0.244036	-0.116019
O26	O	0.926716	0.005964	0.133981
O27	O	1.176716	0.255964	0.383981
O28	O	1.426716	0.505964	0.633981
O29	O	0.621630	-0.116019	-0.188892
O30	O	0.871630	0.133981	0.061108
O31	O	1.121630	0.383981	0.311108
O32	O	1.371630	0.633981	0.561108
O33	O	0.749554	-0.244036	-0.188861
O34	O	0.999554	0.005964	0.061139
O35	O	1.249554	0.255964	0.311139
O36	O	1.499554	0.505964	0.561139
O37	O	0.676818	-0.116019	-0.244084
O38	O	0.926818	0.133981	0.005916
O39	O	1.176818	0.383981	0.255916
O40	O	1.426818	0.633981	0.505916
O41	O	0.621572	-0.188852	-0.116032
O42	O	0.871572	0.061148	0.133968
O43	O	1.121572	0.311148	0.383968
O44	O	1.371572	0.561148	0.633968
O45	O	0.548749	-0.188847	-0.188850
O46	O	0.798749	0.061153	0.061150
O47	O	1.048749	0.311153	0.311150
O48	O	1.298749	0.561153	0.561150
O49	O	0.621554	-0.244028	-0.316853
O50	O	0.871554	0.005972	-0.066853
O51	O	1.121554	0.255972	0.183147
O52	O	1.371554	0.505972	0.433147
O53	O	0.548716	-0.244028	-0.244010
O54	O	0.798716	0.005972	0.005990
O55	O	1.048716	0.255972	0.255990
O56	O	1.298716	0.505972	0.505990
O57	O	0.676775	-0.188847	-0.316885
O58	O	0.926775	0.061153	-0.066885
O59	O	1.176775	0.311153	0.183115
O60	O	1.426775	0.561153	0.433115
O61	O	0.676673	-0.316864	-0.188819
O62	O	0.926673	-0.066864	0.061181
O63	O	1.176673	0.183136	0.311181
O64	O	1.426673	0.433136	0.561181
O65	O	0.621497	-0.316861	-0.243993
O66	O	0.871497	-0.066861	0.006007
O67	O	1.121497	0.183139	0.256007
O68	O	1.371497	0.433139	0.506007
C69	C	0.532432	-0.216437	-0.216428
C70	C	0.782432	0.033563	0.033572
C71	C	1.032432	0.283563	0.283572
C72	C	1.282432	0.533563	0.533572
C73	C	0.482497	-0.216447	-0.216430
C74	C	0.732497	0.033553	0.033570
C75	C	0.982497	0.283553	0.283570
C76	C	1.232497	0.533553	0.533570
C77	C	0.172874	-0.187750	-0.245235
C78	C	0.422874	0.062250	0.004765
C79	C	0.672874	0.312250	0.254765
C80	C	0.922874	0.562250	0.504765
C81	C	-0.014799	-0.187753	-0.245247
C82	C	0.235201	0.062247	0.004753
C83	C	0.485201	0.312247	0.254753
C84	C	0.735201	0.562247	0.504753
O85	O	-0.039047	-0.163344	-0.269717
O86	O	0.210953	0.086656	-0.019717
O87	O	0.460953	0.336656	0.230283
O88	O	0.710953	0.586656	0.480283
N89	N	-0.038288	-0.216441	-0.216464
N90	N	0.211712	0.033559	0.033536
N91	N	0.461712	0.283559	0.283536
N92	N	0.711712	0.533559	0.533536
C93	C	-0.014855	-0.245129	-0.187672
C94	C	0.235145	0.004871	0.062328
C95	C	0.485145	0.254871	0.312328
C96	C	0.735145	0.504871	0.562328
O97	O	-0.039140	-0.269527	-0.163187
O98	O	0.210860	-0.019527	0.086813
O99	O	0.460860	0.230473	0.336813
O100	O	0.710860	0.480473	0.586813
C101	C	0.172817	-0.245123	-0.187658
C102	C	0.422817	0.004877	0.062342
C103	C	0.672817	0.254877	0.312342
C104	C	0.922817	0.504877	0.562342
C105	C	0.196303	-0.216436	-0.216447
C106	C	0.446303	0.033564	0.033553
C107	C	0.696303	0.283564	0.283553
C108	C	0.946303	0.533564	0.533553
C109	C	0.196360	-0.159065	-0.274021
C110	C	0.446360	0.090935	-0.024021
C111	C	0.696360	0.340935	0.225979
C112	C	0.946360	0.590935	0.475979
C113	C	0.243275	-0.159066	-0.274019
C114	C	0.493275	0.090934	-0.024019
C115	C	0.743275	0.340934	0.225981
C116	C	0.993275	0.590934	0.475981
C117	C	0.266705	-0.187752	-0.245231
C118	C	0.516705	0.062248	0.004769
C119	C	0.766705	0.312248	0.254769
C120	C	1.016705	0.562248	0.504769
C121	C	0.243219	-0.216437	-0.216445
C122	C	0.493219	0.033563	0.033555
C123	C	0.743219	0.283563	0.283555
C124	C	0.993219	0.533563	0.533555
C125	C	0.196249	-0.273808	-0.158864
C126	C	0.446249	-0.023808	0.091136
C127	C	0.696249	0.226192	0.341136
C128	C	0.946249	0.476192	0.591136
C129	C	0.243170	-0.273803	-0.158862
C130	C	0.493170	-0.023803	0.091138
C131	C	0.743170	0.226197	0.341138
C132	C	0.993170	0.476197	0.591138
C133	C	0.266656	-0.245116	-0.187651
C134	C	0.516656	0.004884	0.062349
C135	C	0.766656	0.254884	0.312349
C136	C	1.016656	0.504884	0.562349
C137	C	0.313563	-0.245125	-0.187655
C138	C	0.563563	0.004875	0.062345
C139	C	0.813563	0.254875	0.312345
C140	C	1.063563	0.504875	0.562345
N141	N	0.337052	-0.216437	-0.216439
N142	N	0.587052	0.033563	0.033561
N143	N	0.837052	0.283563	0.283561
N144	N	1.087052	0.533563	0.533561
C145	C	0.313623	-0.187750	-0.245227
C146	C	0.563623	0.062250	0.004773
C147	C	0.813623	0.312250	0.254773
C148	C	1.063623	0.562250	0.504773
C149	C	-0.113386	-0.245130	-0.187683
C150	C	0.136614	0.004870	0.062317
C151	C	0.386614	0.254870	0.312317
C152	C	0.636614	0.504870	0.562317
C153	C	-0.160304	-0.245133	-0.187687
C154	C	0.089696	0.004867	0.062313
C155	C	0.339696	0.254867	0.312313
C156	C	0.589696	0.504867	0.562313
C157	C	-0.160244	-0.187756	-0.245262
C158	C	0.089756	0.062244	0.004738
C159	C	0.339756	0.312244	0.254738
C160	C	0.589756	0.562244	0.504738
C161	C	-0.113326	-0.187756	-0.245259
C162	C	0.136674	0.062244	0.004741
C163	C	0.386674	0.312244	0.254741
C164	C	0.636674	0.562244	0.504741
C165	C	-0.089897	-0.216442	-0.216467
C166	C	0.160103	0.033558	0.033533
C167	C	0.410103	0.283558	0.283533
C168	C	0.660103	0.533558	0.533533
C169	C	0.412148	-0.187755	-0.245221
C170	C	0.662148	0.062245	0.004779
C171	C	0.912148	0.312245	0.254779
C172	C	1.162148	0.562245	0.504779
C173	C	0.459068	-0.187760	-0.245218
C174	C	0.709068	0.062240	0.004782
C175	C	0.959068	0.312240	0.254782
C176	C	1.209068	0.562240	0.504782
C177	C	0.459005	-0.245135	-0.187642
C178	C	0.709005	0.004865	0.062358
C179	C	0.959005	0.254865	0.312358
C180	C	1.209005	0.504865	0.562358
C181	C	0.412089	-0.245132	-0.187647
C182	C	0.662089	0.004868	0.062353
C183	C	0.912089	0.254868	0.312353
C184	C	1.162089	0.504868	0.562353
C185	C	0.388662	-0.216438	-0.216438
C186	C	0.638662	0.033562	0.033562
C187	C	0.888662	0.283562	0.283562
C188	C	1.138662	0.533562	0.533562
O189	O	0.337840	-0.269518	-0.163195
O190	O	0.587840	-0.019518	0.086805
O191	O	0.837840	0.230482	0.336805
O192	O	1.087840	0.480482	0.586805
O193	O	0.337915	-0.163349	-0.269702
O194	O	0.587915	0.086651	-0.019702
O195	O	0.837915	0.336651	0.230298
O196	O	1.087915	0.586651	0.480298
C197	C	0.125958	-0.187749	-0.245236
C198	C	0.375958	0.062251	0.004764
C199	C	0.625958	0.312251	0.254764
C200	C	0.875958	0.562251	0.504764
C201	C	0.102472	-0.216434	-0.216450
C202	C	0.352472	0.033566	0.033550
C203	C	0.602472	0.283566	0.283550
C204	C	0.852472	0.533566	0.533550
C205	C	0.125902	-0.245120	-0.187662
C206	C	0.375902	0.004880	0.062338
C207	C	0.625902	0.254880	0.312338
C208	C	0.875902	0.504880	0.562338
C209	C	0.055554	-0.216436	-0.216454
C210	C	0.305554	0.033564	0.033546
C211	C	0.555554	0.283564	0.283546
C212	C	0.805554	0.533564	0.533546
C213	C	0.032125	-0.187749	-0.245242
C214	C	0.282125	0.062251	0.004758
C215	C	0.532125	0.312251	0.254758
C216	C	0.782125	0.562251	0.504758
C217	C	0.055614	-0.159061	-0.274026
C218	C	0.305614	0.090939	-0.024026
C219	C	0.555614	0.340939	0.225974
C220	C	0.805614	0.590939	0.475974
C221	C	0.102529	-0.159062	-0.274025
C222	C	0.352529	0.090938	-0.024025
C223	C	0.602529	0.340938	0.225975
C224	C	0.852529	0.590938	0.475975
C225	C	0.102413	-0.273808	-0.158878
C226	C	0.352413	-0.023808	0.091122
C227	C	0.602413	0.226192	0.341122
C228	C	0.852413	0.476192	0.591122
C229	C	0.055498	-0.273805	-0.158883
C230	C	0.305498	-0.023805	0.091117
C231	C	0.555498	0.226195	0.341117
C232	C	0.805498	0.476195	0.591117
C233	C	0.032068	-0.245119	-0.187671
C234	C	0.282068	0.004881	0.062329
C235	C	0.532068	0.254881	0.312329
C236	C	0.782068	0.504881	0.562329
C237	C	0.649086	-0.333163	-0.216409
C238	C	0.899086	-0.083163	0.033591
C239	C	1.149086	0.166837	0.283591
C240	C	1.399086	0.416837	0.533591
C241	C	0.649098	-0.383098	-0.216408
C242	C	0.899098	-0.133098	0.033592
C243	C	1.149098	0.116902	0.283592
C244	C	1.399098	0.366902	0.533592
C245	C	0.677885	-0.692706	-0.245226
C246	C	0.927885	-0.442706	0.004774
C247	C	1.177885	-0.192706	0.254774
C248	C	1.427885	0.057294	0.504774
C249	C	0.677933	-0.880379	-0.245253
C250	C	0.927933	-0.630379	0.004747
C251	C	1.177933	-0.380379	0.254747
C252	C	1.427933	-0.130379	0.504747
O253	O	0.702342	-0.904614	-0.269728
O254	O	0.952342	-0.654614	-0.019728
O255	O	1.202342	-0.404614	0.230272
O256	O	1.452342	-0.154614	0.480272
N257	N	0.649231	-0.903883	-0.216497
N258	N	0.899231	-0.653883	0.033503
N259	N	1.149231	-0.403883	0.283503
N260	N	1.399231	-0.153883	0.533503
C261	C	0.620512	-0.880465	-0.187734
C262	C	0.870512	-0.630465	0.062266
C263	C	1.120512	-0.380465	0.312266
C264	C	1.370512	-0.130465	0.562266
O265	O	0.596096	-0.904763	-0.163279
O266	O	0.846096	-0.654763	0.086721
O267	O	1.096096	-0.404763	0.336721
O268	O	1.346096	-0.154763	0.586721
C269	C	0.620461	-0.692793	-0.187709
C270	C	0.870461	-0.442793	0.062291
C271	C	1.120461	-0.192793	0.312291
C272	C	1.370461	0.057207	0.562291
C273	C	0.649169	-0.669292	-0.216464
C274	C	0.899169	-0.419292	0.033536
C275	C	1.149169	-0.169292	0.283536
C276	C	1.399169	0.080708	0.533536
C277	C	0.706590	-0.669205	-0.273979
C278	C	0.956590	-0.419205	-0.023979
C279	C	1.206590	-0.169205	0.226021
C280	C	1.456590	0.080795	0.476021
C281	C	0.706579	-0.622290	-0.273971
C282	C	0.956579	-0.372290	-0.023971
C283	C	1.206579	-0.122290	0.226029
C284	C	1.456579	0.127710	0.476029
C285	C	0.677863	-0.598875	-0.245209
C286	C	0.927863	-0.348875	0.004791
C287	C	1.177863	-0.098875	0.254791
C288	C	1.427863	0.151125	0.504791
C289	C	0.649158	-0.622377	-0.216456
C290	C	0.899158	-0.372377	0.033544
C291	C	1.149158	-0.122377	0.283544
C292	C	1.399158	0.127623	0.533544
C293	C	0.591740	-0.669376	-0.158949
C294	C	0.841740	-0.419376	0.091051
C295	C	1.091740	-0.169376	0.341051
C296	C	1.341740	0.080624	0.591051
C297	C	0.591729	-0.622455	-0.158946
C298	C	0.841729	-0.372455	0.091054
C299	C	1.091729	-0.122455	0.341054
C300	C	1.341729	0.127545	0.591054
C301	C	0.620437	-0.598954	-0.187701
C302	C	0.870437	-0.348954	0.062299
C303	C	1.120437	-0.098954	0.312299
C304	C	1.370437	0.151046	0.562299
C305	C	0.620431	-0.552047	-0.187685
C306	C	0.870431	-0.302047	0.062315
C307	C	1.120431	-0.052047	0.312315
C308	C	1.370431	0.197953	0.562315
N309	N	0.649134	-0.528543	-0.216441
N310	N	0.899134	-0.278543	0.033559
N311	N	1.149134	-0.028543	0.283559
N312	N	1.399134	0.221457	0.533559
C313	C	0.677850	-0.551957	-0.245203
C314	C	0.927850	-0.301957	0.004797
C315	C	1.177850	-0.051957	0.254797
C316	C	1.427850	0.198043	0.504797
C317	C	0.620541	-0.978996	-0.187748
C318	C	0.870541	-0.728996	0.062252
C319	C	1.120541	-0.478996	0.312252
C320	C	1.370541	-0.228996	0.562252
C321	C	0.620554	-1.025914	-0.187753
C322	C	0.870554	-0.775914	0.062247
C323	C	1.120554	-0.525914	0.312247
C324	C	1.370554	-0.275914	0.562247
C325	C	0.677975	-1.025824	-0.245274
C326	C	0.927975	-0.775824	0.004726
C327	C	1.177975	-0.525824	0.254726
C328	C	1.427975	-0.275824	0.504726
C329	C	0.677964	-0.978906	-0.245266
C330	C	0.927964	-0.728906	0.004734
C331	C	1.177964	-0.478906	0.254734
C332	C	1.427964	-0.228906	0.504734
C333	C	0.649244	-0.955492	-0.216504
C334	C	0.899244	-0.705492	0.033496
C335	C	1.149244	-0.455492	0.283496
C336	C	1.399244	-0.205492	0.533496
C337	C	0.677826	-0.453432	-0.245183
C338	C	0.927826	-0.203432	0.004817
C339	C	1.177826	0.046568	0.254817
C340	C	1.427826	0.296568	0.504817
C341	C	0.677814	-0.406512	-0.245170
C342	C	0.927814	-0.156512	0.004830
C343	C	1.177814	0.093488	0.254830
C344	C	1.427814	0.343488	0.504830
C345	C	0.620391	-0.406605	-0.187651
C346	C	0.870391	-0.156605	0.062349
C347	C	1.120391	0.093395	0.312349
C348	C	1.370391	0.343395	0.562349
C349	C	0.620404	-0.453521	-0.187662
C350	C	0.870404	-0.203521	0.062338
C351	C	1.120404	0.046479	0.312338
C352	C	1.370404	0.296479	0.562338
C353	C	0.649123	-0.476933	-0.216431
C354	C	0.899123	-0.226933	0.033569
C355	C	1.149123	0.023067	0.283569
C356	C	1.399123	0.273067	0.533569
O357	O	0.596032	-0.527783	-0.163227
O358	O	0.846032	-0.277783	0.086773
O359	O	1.096032	-0.027783	0.336773
O360	O	1.346032	0.222217	0.586773
O361	O	0.702255	-0.527652	-0.269662
O362	O	0.952255	-0.277652	-0.019662
O363	O	1.202255	-0.027652	0.230338
O364	O	1.452255	0.222348	0.480338
C365	C	0.677895	-0.739622	-0.245235
C366	C	0.927895	-0.489622	0.004765
C367	C	1.177895	-0.239622	0.254765
C368	C	1.427895	0.010378	0.504765
C369	C	0.649190	-0.763123	-0.216482
C370	C	0.899190	-0.513123	0.033518
C371	C	1.149190	-0.263123	0.283518
C372	C	1.399190	-0.013123	0.533518
C373	C	0.620474	-0.739709	-0.187720
C374	C	0.870474	-0.489709	0.062280
C375	C	1.120474	-0.239709	0.312280
C376	C	1.370474	0.010291	0.562280
C377	C	0.649203	-0.810041	-0.216487
C378	C	0.899203	-0.560041	0.033513
C379	C	1.149203	-0.310041	0.283513
C380	C	1.399203	-0.060041	0.533513
C381	C	0.677919	-0.833455	-0.245249
C382	C	0.927919	-0.583455	0.004751
C383	C	1.177919	-0.333455	0.254751
C384	C	1.427919	-0.083455	0.504751
C385	C	0.706622	-0.809951	-0.274006
C386	C	0.956622	-0.559951	-0.024006
C387	C	1.206622	-0.309951	0.225994
C388	C	1.456622	-0.059951	0.475994
C389	C	0.706611	-0.763036	-0.273997
C390	C	0.956611	-0.513036	-0.023997
C391	C	1.206611	-0.263036	0.226003
C392	C	1.456611	-0.013036	0.476003
C393	C	0.591772	-0.763212	-0.158964
C394	C	0.841772	-0.513212	0.091036
C395	C	1.091772	-0.263212	0.341036
C396	C	1.341772	-0.013212	0.591036
C397	C	0.591785	-0.810128	-0.158974
C398	C	0.841785	-0.560128	0.091026
C399	C	1.091785	-0.310128	0.341026
C400	C	1.341785	-0.060128	0.591026
C401	C	0.620501	-0.833542	-0.187736
C402	C	0.870501	-0.583542	0.062264
C403	C	1.120501	-0.333542	0.312264
C404	C	1.370501	-0.083542	0.562264
C405	C	0.766333	-0.216445	-0.216467
C406	C	1.016333	0.033555	0.033533
C407	C	1.266333	0.283555	0.283533
C408	C	1.516333	0.533555	0.533533
C409	C	0.816267	-0.216446	-0.216475
C410	C	1.066267	0.033554	0.033525
C411	C	1.316267	0.283554	0.283525
C412	C	1.566267	0.533554	0.533525
C413	C	0.649167	-0.216437	-0.333625
C414	C	0.899167	0.033563	-0.083625
C415	C	1.149167	0.283563	0.166375
C416	C	1.399167	0.533563	0.416375
C417	C	0.649172	-0.216435	-0.383560
C418	C	0.899172	0.033565	-0.133560
C419	C	1.149172	0.283565	0.116440
C420	C	1.399172	0.533565	0.366440
C421	C	0.649235	-0.099262	-0.216495
C422	C	0.899235	0.150738	0.033505
C423	C	1.149235	0.400738	0.283505
C424	C	1.399235	0.650738	0.533505
C425	C	0.649270	-0.049328	-0.216515
C426	C	0.899270	0.200672	0.033485
C427	C	1.149270	0.450672	0.283485
C428	C	1.399270	0.700672	0.533485
C429	C	0.677955	-0.187627	-0.693223
C430	C	0.927955	0.062373	-0.443223
C431	C	1.177955	0.312373	-0.193223
C432	C	1.427955	0.562373	0.056777
C433	C	0.677978	-0.187589	-0.880896
C434	C	0.927978	0.062411	-0.630896
C435	C	1.177978	0.312411	-0.380896
C436	C	1.427978	0.562411	-0.130896
O437	O	0.702417	-0.163138	-0.905177
O438	O	0.952417	0.086862	-0.655177
O439	O	1.202417	0.336862	-0.405177
O440	O	1.452417	0.586862	-0.155177
N441	N	0.649231	-0.216315	-0.904345
N442	N	0.899231	0.033685	-0.654345
N443	N	1.149231	0.283685	-0.404345
N444	N	1.399231	0.533685	-0.154345
C445	C	0.620475	-0.245050	-0.880873
C446	C	0.870475	0.004950	-0.630873
C447	C	1.120475	0.254950	-0.380873
C448	C	1.370475	0.504950	-0.130873
O449	O	0.596022	-0.269479	-0.905124
O450	O	0.846022	-0.019479	-0.655124
O451	O	1.096022	0.230521	-0.405124
O452	O	1.346022	0.480521	-0.155124
C453	C	0.620451	-0.245086	-0.693201
C454	C	0.870451	0.004914	-0.443201
C455	C	1.120451	0.254914	-0.193201
C456	C	1.370451	0.504914	0.056799
C457	C	0.649202	-0.216361	-0.669754
C458	C	0.899202	0.033639	-0.419754
C459	C	1.149202	0.283639	-0.169754
C460	C	1.399202	0.533639	0.080246
C461	C	0.706704	-0.158905	-0.669776
C462	C	0.956704	0.091095	-0.419776
C463	C	1.206704	0.341095	-0.169776
C464	C	1.456704	0.591095	0.080224
C465	C	0.706700	-0.158916	-0.622861
C466	C	0.956700	0.091084	-0.372861
C467	C	1.206700	0.341084	-0.122861
C468	C	1.456700	0.591084	0.127139
C469	C	0.677947	-0.187650	-0.599392
C470	C	0.927947	0.062350	-0.349392
C471	C	1.177947	0.312350	-0.099392
C472	C	1.427947	0.562350	0.150608
C473	C	0.649198	-0.216373	-0.622839
C474	C	0.899198	0.033627	-0.372839
C475	C	1.149198	0.283627	-0.122839
C476	C	1.399198	0.533627	0.127161
C477	C	0.591693	-0.273819	-0.669730
C478	C	0.841693	-0.023819	-0.419730
C479	C	1.091693	0.226181	-0.169730
C480	C	1.341693	0.476181	0.080270
C481	C	0.591689	-0.273824	-0.622809
C482	C	0.841689	-0.023824	-0.372809
C483	C	1.091689	0.226176	-0.122809
C484	C	1.341689	0.476176	0.127191
C485	C	0.620440	-0.245100	-0.599362
C486	C	0.870440	0.004900	-0.349362
C487	C	1.120440	0.254900	-0.099362
C488	C	1.370440	0.504900	0.150638
C489	C	0.620441	-0.245119	-0.552455
C490	C	0.870441	0.004881	-0.302455
C491	C	1.120441	0.254881	-0.052455
C492	C	1.370441	0.504881	0.197545
N493	N	0.649188	-0.216393	-0.529005
N494	N	0.899188	0.033607	-0.279005
N495	N	1.149188	0.283607	-0.029005
N496	N	1.399188	0.533607	0.220995
C497	C	0.677941	-0.187659	-0.552474
C498	C	0.927941	0.062341	-0.302474
C499	C	1.177941	0.312341	-0.052474
C500	C	1.427941	0.562341	0.197526
C501	C	0.620491	-0.245030	-0.979404
C502	C	0.870491	0.004970	-0.729404
C503	C	1.120491	0.254970	-0.479404
C504	C	1.370491	0.504970	-0.229404
C505	C	0.620497	-0.245022	-1.026322
C506	C	0.870497	0.004978	-0.776322
C507	C	1.120497	0.254978	-0.526322
C508	C	1.370497	0.504978	-0.276322
C509	C	0.677999	-0.187560	-1.026341
C510	C	0.927999	0.062440	-0.776341
C511	C	1.177999	0.312440	-0.526341
C512	C	1.427999	0.562440	-0.276341
C513	C	0.677994	-0.187571	-0.979423
C514	C	0.927994	0.062429	-0.729423
C515	C	1.177994	0.312429	-0.479423
C516	C	1.427994	0.562429	-0.229423
C517	C	0.649237	-0.216304	-0.955955
C518	C	0.899237	0.033696	-0.705955
C519	C	1.149237	0.283696	-0.455955
C520	C	1.399237	0.533696	-0.205955
C521	C	0.677930	-0.187685	-0.453948
C522	C	0.927930	0.062315	-0.203948
C523	C	1.177930	0.312315	0.046052
C524	C	1.427930	0.562315	0.296052
C525	C	0.677925	-0.187701	-0.407029
C526	C	0.927925	0.062299	-0.157029
C527	C	1.177925	0.312299	0.092971
C528	C	1.427925	0.562299	0.342971
C529	C	0.620421	-0.245161	-0.407013
C530	C	0.870421	0.004839	-0.157013
C531	C	1.120421	0.254839	0.092987
C532	C	1.370421	0.504839	0.342987
C533	C	0.620428	-0.245147	-0.453929
C534	C	0.870428	0.004853	-0.203929
C535	C	1.120428	0.254853	0.046071
C536	C	1.370428	0.504853	0.296071
C537	C	0.649184	-0.216406	-0.477395
C538	C	0.899184	0.033594	-0.227395
C539	C	1.149184	0.283594	0.022605
C540	C	1.399184	0.533594	0.272605
O541	O	0.596011	-0.269553	-0.528144
O542	O	0.846011	-0.019553	-0.278144
O543	O	1.096011	0.230447	-0.028144
O544	O	1.346011	0.480447	0.221856
O545	O	0.702383	-0.163226	-0.528215
O546	O	0.952383	0.086774	-0.278215
O547	O	1.202383	0.336774	-0.028215
O548	O	1.452383	0.586774	0.221785
C549	C	0.677960	-0.187616	-0.740138
C550	C	0.927960	0.062384	-0.490138
C551	C	1.177960	0.312384	-0.240138
C552	C	1.427960	0.562384	0.009862
C553	C	0.649211	-0.216338	-0.763585
C554	C	0.899211	0.033662	-0.513585
C555	C	1.149211	0.283662	-0.263585
C556	C	1.399211	0.533662	-0.013585
C557	C	0.620458	-0.245072	-0.740116
C558	C	0.870458	0.004928	-0.490116
C559	C	1.120458	0.254928	-0.240116
C560	C	1.370458	0.504928	0.009884
C561	C	0.649217	-0.216330	-0.810503
C562	C	0.899217	0.033670	-0.560503
C563	C	1.149217	0.283670	-0.310503
C564	C	1.399217	0.533670	-0.060503
C565	C	0.677970	-0.187596	-0.833972
C566	C	0.927970	0.062404	-0.583972
C567	C	1.177970	0.312404	-0.333972
C568	C	1.427970	0.562404	-0.083972
C569	C	0.706717	-0.158870	-0.810523
C570	C	0.956717	0.091130	-0.560523
C571	C	1.206717	0.341130	-0.310523
C572	C	1.456717	0.591130	-0.060523
C573	C	0.706712	-0.158881	-0.763607
C574	C	0.956712	0.091119	-0.513607
C575	C	1.206712	0.341119	-0.263607
C576	C	1.456712	0.591119	-0.013607
C577	C	0.591711	-0.273798	-0.763566
C578	C	0.841711	-0.023798	-0.513566
C579	C	1.091711	0.226202	-0.263566
C580	C	1.341711	0.476202	-0.013566
C581	C	0.591718	-0.273785	-0.810481
C582	C	0.841718	-0.023785	-0.560481
C583	C	1.091718	0.226215	-0.310481
C584	C	1.341718	0.476215	-0.060481
C585	C	0.620471	-0.245050	-0.833950
C586	C	0.870471	0.004950	-0.583950
C587	C	1.120471	0.254950	-0.333950
C588	C	1.370471	0.504950	-0.083950
C589	C	0.649168	-0.216412	-0.099725
C590	C	0.899168	0.033588	0.150275
C591	C	1.149168	0.283588	0.400275
C592	C	1.399168	0.533588	0.650275
C593	C	0.649250	-0.216288	-0.049790
C594	C	0.899250	0.033712	0.200210
C595	C	1.149250	0.283712	0.450210
C596	C	1.399250	0.533712	0.700210
H597	H	0.121485	-0.297168	-0.135434
H598	H	0.371485	-0.047168	0.114566
H599	H	0.621485	0.202832	0.364566
H600	H	0.871485	0.452832	0.614566
H601	H	0.729954	-0.603158	-0.297387
H602	H	0.979954	-0.353158	-0.047387
H603	H	1.229954	-0.103158	0.202613
H604	H	1.479954	0.146842	0.452613
Cl605	Cl	0.555666	-0.733784	-0.122804
Cl606	Cl	0.805666	-0.483784	0.127196
Cl607	Cl	1.055666	-0.233784	0.377196
Cl608	Cl	1.305666	0.016216	0.627196
Cl609	Cl	0.272620	-0.309869	-0.122665
Cl610	Cl	0.522620	-0.059869	0.127335
Cl611	Cl	0.772620	0.190131	0.377335
Cl612	Cl	1.022620	0.440131	0.627335
Cl613	Cl	0.742702	-0.733499	-0.310149
Cl614	Cl	0.992702	-0.483499	-0.060149
Cl615	Cl	1.242702	-0.233499	0.189851
Cl616	Cl	1.492702	0.016501	0.439851
H617	H	0.597182	-1.045044	-0.164333
H618	H	0.847182	-0.795044	0.085667
H619	H	1.097182	-0.545044	0.335667
H620	H	1.347182	-0.295044	0.585667
H621	H	0.730125	-0.135491	-0.744521
H622	H	0.980125	0.114509	-0.494521
H623	H	1.230125	0.364509	-0.244521
H624	H	1.480125	0.614509	0.005479
Cl625	Cl	-0.083939	-0.281193	-0.151479
Cl626	Cl	0.166061	-0.031193	0.098521
Cl627	Cl	0.416061	0.218807	0.348521
Cl628	Cl	0.666061	0.468807	0.598521
Cl629	Cl	0.382563	-0.281209	-0.151467
Cl630	Cl	0.632563	-0.031209	0.098533
Cl631	Cl	0.882563	0.218791	0.348533
Cl632	Cl	1.132563	0.468791	0.598533
Cl633	Cl	0.584430	-0.949568	-0.151588
Cl634	Cl	0.834430	-0.699568	0.098412
Cl635	Cl	1.084430	-0.449568	0.348412
Cl636	Cl	1.334430	-0.199568	0.598412
Cl637	Cl	0.488468	-0.281196	-0.151454
Cl638	Cl	0.738468	-0.031196	0.098546
Cl639	Cl	0.988468	0.218804	0.348546
Cl640	Cl	1.238468	0.468804	0.598546
H641	H	0.701208	-0.472488	-0.268612
H642	H	0.951208	-0.222488	-0.018612
H643	H	1.201208	0.027512	0.231388
H644	H	1.451208	0.277512	0.481388
H645	H	0.701358	-1.044896	-0.268692
H646	H	0.951358	-0.794896	-0.018692
H647	H	1.201358	-0.544896	0.231308
H648	H	1.451358	-0.294896	0.481308
H649	H	0.701339	-0.164310	-0.387940
H650	H	0.951339	0.085690	-0.137940
H651	H	1.201339	0.335690	0.112060
H652	H	1.451339	0.585690	0.362060
H653	H	0.568408	-0.829258	-0.135554
H654	H	0.818408	-0.579258	0.114446
H655	H	1.068408	-0.329258	0.364446
H656	H	1.318408	-0.079258	0.614446
Cl657	Cl	0.555646	-0.698909	-0.122799
Cl658	Cl	0.805646	-0.448909	0.127201
Cl659	Cl	1.055646	-0.198909	0.377201
Cl660	Cl	1.305646	0.051091	0.627201
Cl661	Cl	0.555547	-0.309933	-0.699194
Cl662	Cl	0.805547	-0.059933	-0.449194
Cl663	Cl	1.055547	0.190067	-0.199194
Cl664	Cl	1.305547	0.440067	0.050806
Cl665	Cl	0.555621	-0.593024	-0.122786
Cl666	Cl	0.805621	-0.343024	0.127214
Cl667	Cl	1.055621	-0.093024	0.377214
Cl668	Cl	1.305621	0.156976	0.627214
H669	H	0.701406	-0.164180	-0.960335
H670	H	0.951406	0.085820	-0.710335
H671	H	1.201406	0.335820	-0.460335
H672	H	1.451406	0.585820	-0.210335
H673	H	0.701192	-0.387379	-0.268586
H674	H	0.951192	-0.137379	-0.018586
H675	H	1.201192	0.112621	0.231414
H676	H	1.451192	0.362621	0.481414
H677	H	0.597032	-0.472657	-0.164244
H678	H	0.847032	-0.222657	0.085756
H679	H	1.097032	0.027343	0.335756
H680	H	1.347032	0.277343	0.585756
H681	H	0.729974	-0.688264	-0.297404
H682	H	0.979974	-0.438264	-0.047404
H683	H	1.229974	-0.188264	0.202596
H684	H	1.479974	0.061736	0.452596
H685	H	0.730112	-0.135525	-0.603775
H686	H	0.980112	0.114475	-0.353775
H687	H	1.230112	0.364475	-0.103775
H688	H	1.480112	0.614475	0.146225
Cl689	Cl	0.555561	-0.309925	-0.734069
Cl690	Cl	0.805561	-0.059925	-0.484069
Cl691	Cl	1.055561	0.190075	-0.234069
Cl692	Cl	1.305561	0.440075	0.015931
H693	H	0.036529	-0.135705	-0.297468
H694	H	0.286529	0.114295	-0.047468
H695	H	0.536529	0.364295	0.202532
H696	H	0.786529	0.614295	0.452532
H697	H	0.730118	-0.135503	-0.688879
H698	H	0.980118	0.114497	-0.438879
H699	H	1.230118	0.364497	-0.188879
H700	H	1.480118	0.614497	0.061121
Cl701	Cl	0.714145	-0.151436	-1.055853
Cl702	Cl	0.964145	0.098564	-0.805853
Cl703	Cl	1.214145	0.348564	-0.555853
Cl704	Cl	1.464145	0.598564	-0.305853
Cl705	Cl	-0.189707	-0.151692	-0.281451
Cl706	Cl	0.060293	0.098308	-0.031451
Cl707	Cl	0.310293	0.348308	0.218549
Cl708	Cl	0.560293	0.598308	0.468549
H709	H	-0.094206	-0.164396	-0.268701
H710	H	0.155794	0.085604	-0.018701
H711	H	0.405794	0.335604	0.231299
H712	H	0.655794	0.585604	0.481299
Cl713	Cl	0.555533	-0.309948	-0.593309
Cl714	Cl	0.805533	-0.059948	-0.343309
Cl715	Cl	1.055533	0.190052	-0.093309
Cl716	Cl	1.305533	0.440052	0.156691
Cl717	Cl	0.584293	-0.377162	-0.151496
Cl718	Cl	0.834293	-0.127162	0.098504
Cl719	Cl	1.084293	0.122838	0.348504
Cl720	Cl	1.334293	0.372838	0.598504
H721	H	0.701340	-0.959774	-0.268681
H722	H	0.951340	-0.709774	-0.018681
H723	H	1.201340	-0.459774	0.231319
H724	H	1.451340	-0.209774	0.481319
H725	H	0.036379	-0.297170	-0.135440
H726	H	0.286379	-0.047170	0.114560
H727	H	0.536379	0.202830	0.364560
H728	H	0.786379	0.452830	0.614560
Cl729	Cl	0.584358	-0.281141	-1.055792
Cl730	Cl	0.834358	-0.031141	-0.805792
Cl731	Cl	1.084358	0.218859	-0.555792
Cl732	Cl	1.334358	0.468859	-0.305792
H733	H	0.730005	-0.829023	-0.297423
H734	H	0.980005	-0.579023	-0.047423
H735	H	1.230005	-0.329023	0.202577
H736	H	1.480005	-0.079023	0.452577
Cl737	Cl	0.584285	-0.281261	-0.483405
Cl738	Cl	0.834285	-0.031261	-0.233405
Cl739	Cl	1.084285	0.218739	0.016595
Cl740	Cl	1.334285	0.468739	0.266595
H741	H	0.730130	-0.135475	-0.829639
H742	H	0.980130	0.114525	-0.579639
H743	H	1.230130	0.364525	-0.329639
H744	H	1.480130	0.614525	-0.079639
Cl745	Cl	0.584335	-0.281157	-0.949908
Cl746	Cl	0.834335	-0.031157	-0.699908
Cl747	Cl	1.084335	0.218843	-0.449908
Cl748	Cl	1.334335	0.468843	-0.199908
Cl749	Cl	0.714079	-0.151551	-0.483442
Cl750	Cl	0.964079	0.098449	-0.233442
Cl751	Cl	1.214079	0.348449	0.016558
Cl752	Cl	1.464079	0.598449	0.266558
Cl753	Cl	0.382705	-0.151683	-0.281417
Cl754	Cl	0.632705	0.098317	-0.031417
Cl755	Cl	0.882705	0.348317	0.218583
Cl756	Cl	1.132705	0.598317	0.468583
Cl757	Cl	0.584275	-0.281281	-0.377501
Cl758	Cl	0.834275	-0.031281	-0.127501
Cl759	Cl	1.084275	0.218719	0.122499
Cl760	Cl	1.334275	0.468719	0.372499
Cl761	Cl	0.555572	-0.309902	-0.839951
Cl762	Cl	0.805572	-0.059902	-0.589951
Cl763	Cl	1.055572	0.190098	-0.339951
Cl764	Cl	1.305572	0.440098	-0.089951
H765	H	0.478188	-0.164399	-0.268663
H766	H	0.728188	0.085601	-0.018663
H767	H	0.978188	0.335601	0.231337
H768	H	1.228188	0.585601	0.481337
H769	H	0.177135	-0.297168	-0.135421
H770	H	0.427135	-0.047168	0.114579
H771	H	0.677135	0.202832	0.364579
H772	H	0.927135	0.452832	0.614579
H773	H	0.177289	-0.135702	-0.297464
H774	H	0.427289	0.114298	-0.047464
H775	H	0.677289	0.364298	0.202536
H776	H	0.927289	0.614298	0.452536
Cl777	Cl	-0.189823	-0.281202	-0.151498
Cl778	Cl	0.060177	-0.031202	0.098502
Cl779	Cl	0.310177	0.218798	0.348502
Cl780	Cl	0.560177	0.468798	0.598502
Cl781	Cl	0.272794	-0.122998	-0.310211
Cl782	Cl	0.522794	0.127002	-0.060211
Cl783	Cl	0.772794	0.377002	0.189789
Cl784	Cl	1.022794	0.627002	0.439789
H785	H	0.121647	-0.135702	-0.297467
H786	H	0.371647	0.114298	-0.047467
H787	H	0.621647	0.364298	0.202533
H788	H	0.871647	0.614298	0.452533
