data_functionalizedCrystal
_audit_creation_method	'MofGen! by Chris Wilmer'
_symmetry_space_group_name_H-M	'P1'
_symmetry_Int_Tables_number	1
_symmetry_cell_setting	triclinic
loop_
_symmetry_equiv_pos_as_xyz
  x,y,z
_cell_length_a	19.851628
_cell_length_b	14.628931
_cell_length_c	14.628931
_cell_angle_alpha	60.000000
_cell_angle_beta	90.003599
_cell_angle_gamma	59.998289
loop_
_atom_site_label
_atom_site_type_symbol
_atom_site_fract_x
_atom_site_fract_y
_atom_site_fract_z
Zr1	Zr	0.648978	1.000475	-0.119855
O2	O	0.541412	1.191197	-0.265834
O3	O	0.681953	0.809764	-0.075105
O4	O	0.681953	1.000469	-0.265810
O5	O	0.541411	1.000492	0.075304
O6	O	0.792815	1.000451	-0.265792
O7	O	0.541411	1.000492	-0.075128
O8	O	0.792815	0.659315	0.075346
O9	O	0.541412	1.341629	-0.265834
O10	O	0.778751	0.888189	-0.056006
O11	O	0.696016	0.888202	0.056246
O12	O	0.696017	1.112733	-0.168285
O13	O	0.613282	1.112746	-0.056033
Zr14	Zr	0.825790	1.000447	0.120095
Zr15	Zr	0.825790	1.000447	-0.119826
Zr16	Zr	0.648978	1.000475	0.120066
Zr17	Zr	0.648979	1.240396	-0.119855
Zr18	Zr	0.825790	0.760526	0.120096
O19	O	0.792815	1.191158	0.075345
O20	O	0.792815	1.191157	-0.265792
O21	O	0.541412	1.191198	0.075303
O22	O	0.933356	0.809725	0.266074
O23	O	0.933357	0.809724	-0.075063
O24	O	0.681953	0.809765	0.266032
O25	O	0.933357	1.000429	-0.075063
O26	O	0.792815	1.000453	0.266050
O27	O	0.681953	1.000471	0.266032
O28	O	0.933357	1.000430	0.075368
O29	O	0.681954	1.341607	-0.265811
O30	O	0.792814	0.659315	0.266051
O31	O	0.933356	0.659293	0.266074
O32	O	0.933356	0.659292	0.075369
O33	O	0.541412	1.341629	-0.075128
O34	O	0.681954	1.341607	-0.075105
O35	O	0.778751	0.888189	0.168525
O36	O	0.861486	0.888176	0.056274
O37	O	0.778752	1.112720	-0.056006
O38	O	0.696017	1.112733	0.056246
C39	C	0.737384	0.700356	0.000121
C40	C	0.737384	0.598503	0.000121
C41	C	0.778426	0.553087	-0.055564
C42	C	0.778427	0.447816	-0.055565
C43	C	0.516220	1.000496	0.000084
C44	C	0.441158	1.000508	0.000071
C45	C	0.214703	1.122910	-0.061111
C46	C	0.192342	1.061711	-0.105469
C47	C	0.303752	1.000475	0.000103
C48	C	0.192372	1.061682	0.044441
C49	C	0.171020	1.000451	0.000134
C50	C	0.282379	0.939274	-0.044317
C51	C	0.282407	0.939264	0.105652
C52	C	0.260099	0.877974	0.061320
C53	C	0.380214	1.000492	0.000083
C54	C	0.094562	1.000425	0.000152
C55	C	0.958549	1.000426	0.000157
C56	C	1.033610	1.000414	0.000169
C57	C	0.737384	1.000460	-0.299985
C58	C	0.737384	1.000460	-0.401837
C59	C	0.737384	1.300566	0.000120
C60	C	0.737384	1.402419	0.000120
C61	C	0.696343	1.111849	-0.502945
C62	C	0.696342	1.111851	-0.608216
C63	C	0.737384	1.000462	0.300225
C64	C	0.737384	1.000462	0.402078
C65	C	0.958548	0.700320	0.000157
C66	C	1.033609	0.598456	0.000170
C67	C	0.737383	0.700357	0.300225
C68	C	0.737383	0.598504	0.402078
C69	C	0.958548	0.700321	0.300262
C70	C	1.033609	0.598457	0.402127
C71	C	0.516220	1.300601	-0.300022
C72	C	0.441159	1.402465	-0.401887
C73	C	0.516220	1.300601	0.000083
C74	C	0.441159	1.402466	0.000071
C75	C	0.737385	1.300565	-0.299985
C76	C	0.737385	1.402418	-0.401838
C77	C	1.025672	0.550625	-0.058443
C78	C	1.096193	0.454926	-0.058454
C79	C	1.174651	0.407051	0.000156
C80	C	1.182586	0.454891	0.058770
C81	C	1.112066	0.550595	0.058773
C82	C	1.112053	0.550613	0.391370
C83	C	1.182587	0.454914	0.487074
C84	C	1.174676	0.407053	0.593534
C85	C	1.096224	0.454906	0.604290
C86	C	1.025692	0.550611	0.508586
C87	C	0.362715	1.450321	-0.391130
C88	C	0.292181	1.546050	-0.486834
C89	C	0.300092	1.593915	-0.593294
C90	C	0.378544	1.546056	-0.604049
C91	C	0.449077	1.450335	-0.508346
C92	C	0.449096	1.450307	0.058673
C93	C	0.378575	1.546033	0.058658
C94	C	0.300117	1.593910	0.000045
C95	C	0.292182	1.546066	-0.058565
C96	C	0.362702	1.450348	-0.058555
C97	C	0.778425	0.553088	0.503186
C98	C	0.778426	0.447818	0.608457
H99	H	0.813567	0.592132	-0.103232
F100	F	1.120491	0.601538	0.278076
F101	F	0.824360	0.396766	0.721827
H102	H	0.356228	1.411400	-0.106273
F103	F	0.332944	0.871712	-0.093471
F104	F	0.141656	1.129348	0.093438
F105	F	0.333134	0.871686	0.222283
F106	F	1.249752	0.305194	0.695382
F107	F	0.650408	1.236504	-0.721586
H108	H	1.232066	0.329122	0.000145
F109	F	0.942208	0.601514	0.520053
H110	H	0.813561	0.408766	-0.103244
H111	H	0.961794	0.589604	-0.106184
F112	F	0.691460	0.547457	0.062441
F113	F	0.225017	1.695790	-0.695141
F114	F	0.691449	0.453466	0.062431
H115	H	0.813559	0.592146	0.511812
H116	H	0.356258	1.411354	-0.304453
H117	H	1.089795	0.415924	0.690982
F118	F	0.691458	0.453454	0.484798
F119	F	1.266094	0.403923	0.121145
F120	F	1.266073	0.403998	0.475604
H121	H	0.661210	1.207211	-0.511571
F122	F	0.691450	0.547471	0.390796
F123	F	0.190590	1.258222	-0.128867
H124	H	0.242702	1.671850	0.000046
H125	H	0.153532	1.113457	-0.194718
F126	F	0.532590	1.399372	0.121059
F127	F	1.087730	0.404025	-0.120838
F128	F	0.284357	0.742584	0.128931
F129	F	0.783310	0.875804	-0.484556
F130	F	0.532560	1.399406	-0.519812
H131	H	0.772524	0.905097	-0.393211
F132	F	1.120526	0.601483	0.121168
F133	F	0.208695	1.596964	-0.475364
H134	H	0.384975	1.585040	-0.690741
H135	H	0.385052	1.584971	0.106389
H136	H	0.228292	1.585063	-0.106286
