data_functionalizedCrystal
_audit_creation_method	'MofGen! by Chris Wilmer'
_symmetry_space_group_name_H-M	'P1'
_symmetry_Int_Tables_number	1
_symmetry_cell_setting	triclinic
loop_
_symmetry_equiv_pos_as_xyz
  x,y,z
_cell_length_a	23.096457
_cell_length_b	16.704503
_cell_length_c	23.096457
_cell_angle_alpha	117.539593
_cell_angle_beta	89.999737
_cell_angle_gamma	62.456648
loop_
_atom_site_label
_atom_site_type_symbol
_atom_site_fract_x
_atom_site_fract_y
_atom_site_fract_z
Zr1	Zr	0.600768	0.818944	0.032991
O2	O	0.516509	0.975038	0.117242
O3	O	0.620916	0.662853	0.012847
O4	O	0.629105	0.818944	0.125441
O5	O	0.508323	0.818946	-0.090634
O6	O	0.724388	0.818941	0.125443
O7	O	0.508319	0.818947	0.004648
O8	O	0.709737	0.539723	-0.075967
O9	O	0.522974	1.098165	0.110777
O10	O	0.707482	0.727052	-0.002609
O11	O	0.636377	0.727054	-0.073719
O12	O	0.646019	0.910831	0.058846
O13	O	0.574914	0.910833	-0.012263
Zr14	Zr	0.752739	0.818938	-0.118969
Zr15	Zr	0.752732	0.818940	0.032994
Zr16	Zr	0.600775	0.818943	-0.118972
Zr17	Zr	0.611078	1.015317	0.022679
Zr18	Zr	0.742429	0.622565	-0.108657
O19	O	0.732591	0.975029	-0.098825
O20	O	0.732583	0.975032	0.117247
O21	O	0.516518	0.975036	-0.098830
O22	O	0.836998	0.662844	-0.203220
O23	O	0.836989	0.662846	0.012852
O24	O	0.620924	0.662851	-0.203225
O25	O	0.845184	0.818936	0.004656
O26	O	0.724402	0.818938	-0.211419
O27	O	0.629119	0.818941	-0.211421
O28	O	0.845188	0.818935	-0.090626
O29	O	0.643765	1.098161	0.110779
O30	O	0.709742	0.539721	-0.196757
O31	O	0.830533	0.539718	-0.196755
O32	O	0.830528	0.539719	-0.075964
O33	O	0.522979	1.098163	-0.010014
O34	O	0.643770	1.098160	-0.010011
O35	O	0.707488	0.727051	-0.144824
O36	O	0.778593	0.727050	-0.073715
O37	O	0.717130	0.910828	-0.012259
O38	O	0.646025	0.910830	-0.083369
C39	C	0.663858	0.573309	-0.030091
C40	C	0.659481	0.489944	-0.025713
C41	C	0.486670	0.818947	-0.042993
C42	C	0.422157	0.818949	-0.042995
C43	C	0.749124	0.197606	-0.115363
C44	C	0.745013	0.119275	-0.111253
C45	C	0.647146	0.254946	-0.013385
C46	C	0.651257	0.333277	-0.017496
C47	C	0.702248	0.304603	-0.068486
C48	C	0.706361	0.382937	-0.072593
C49	C	0.608492	0.518606	0.025271
C50	C	0.604381	0.440274	0.029382
C51	C	0.391852	0.818957	0.009500
C52	C	0.331240	0.818948	0.009500
C53	C	0.300927	0.818951	-0.042990
C54	C	0.331241	0.818937	-0.095493
C55	C	0.391856	0.818936	-0.095496
N56	N	0.185720	0.878855	-0.062026
N57	N	0.128138	0.878858	-0.062020
C58	C	0.118297	0.818952	-0.042986
N59	N	0.168211	0.759055	-0.023946
N60	N	0.225797	0.759057	-0.023950
C61	C	0.235200	0.818951	-0.042993
C62	C	0.022270	0.818948	0.009512
C63	C	-0.038342	0.818932	0.009508
C64	C	-0.038343	0.818931	-0.095483
C65	C	0.022271	0.818937	-0.095481
C66	C	0.052572	0.818950	-0.042981
C67	C	0.866837	0.818935	-0.042985
C68	C	0.931350	0.818933	-0.042983
C69	C	0.676746	0.818943	0.147094
C70	C	0.676743	0.818944	0.211606
C71	C	0.689649	1.064573	-0.055887
C72	C	0.694026	1.147939	-0.060265
C73	C	0.624252	0.818960	0.672121
C74	C	0.624252	0.818952	0.611502
C75	C	0.676744	0.818951	0.581191
C76	C	0.729249	0.818931	0.611494
C77	C	0.729250	0.818928	0.672108
N78	N	0.695783	0.878854	0.506052
N79	N	0.695777	0.878859	0.448472
C80	C	0.676743	0.818957	0.398564
N81	N	0.657703	0.759063	0.408415
N82	N	0.657705	0.759063	0.466002
C83	C	0.676749	0.818953	0.515465
C84	C	0.624245	0.818961	0.302536
C85	C	0.624250	0.818946	0.241914
C86	C	0.729244	0.818936	0.241910
C87	C	0.729242	0.818940	0.302527
C88	C	0.676739	0.818957	0.332838
C89	C	0.676757	0.818941	0.766929
C90	C	0.676748	0.818946	0.702419
C91	C	0.853941	0.573303	-0.030087
C92	C	0.914077	0.489936	-0.025708
C93	C	0.663865	0.573307	-0.220173
C94	C	0.659491	0.489941	-0.280308
C95	C	0.853949	0.573301	-0.220169
C96	C	0.914088	0.489933	-0.280302
C97	C	0.499558	1.064581	0.134191
C98	C	0.439419	1.147949	0.194324
C99	C	0.499566	1.064579	-0.055891
C100	C	0.439430	1.147947	-0.060270
C101	C	0.689642	1.064575	0.134196
C102	C	0.694016	1.147941	0.194330
C103	C	0.905199	0.450787	0.013472
C104	C	0.961697	0.372465	0.017600
C105	C	1.027074	0.333289	-0.017456
C106	C	1.035952	0.372445	-0.056637
C107	C	0.979454	0.450770	-0.060760
C108	C	0.694556	0.450790	-0.345671
C109	C	0.690444	0.372470	-0.402180
C110	C	0.651271	0.333296	-0.393325
C111	C	0.616201	0.372455	-0.327956
C112	C	0.620310	0.450779	-0.271448
C113	C	0.979452	0.450782	-0.271423
C114	C	1.035965	0.372460	-0.327920
C115	C	1.027112	0.333285	-0.393294
C116	C	0.961741	0.372444	-0.402172
C117	C	0.905230	0.450770	-0.345677
C118	C	0.374055	1.187110	0.185445
C119	C	0.317544	1.265457	0.241940
C120	C	0.326397	1.304635	0.307314
C121	C	0.391768	1.265471	0.316193
C122	C	0.448278	1.187132	0.259698
C123	C	0.448309	1.187103	-0.099444
C124	C	0.391811	1.265447	-0.103556
C125	C	0.326435	1.304626	-0.068499
C126	C	0.317557	1.265466	-0.029321
C127	C	0.374054	1.187130	-0.025205
C128	C	0.733195	1.187090	0.185454
C129	C	0.737319	1.265411	0.241951
C130	C	0.702258	1.304587	0.307325
C131	C	0.663077	1.265431	0.316201
C132	C	0.658958	1.187106	0.259704
H133	H	0.747882	0.359585	-0.114111
H134	H	0.264320	1.297378	-0.000778
H135	H	0.581496	0.818970	0.327214
Cl136	Cl	0.734538	0.323254	-0.484351
H137	H	0.584307	0.340549	-0.320756
H138	H	1.073073	0.269510	-0.014093
H139	H	0.366815	1.155250	0.006693
Cl140	Cl	0.060367	0.818956	0.075509
H141	H	0.366834	1.155215	0.132219
H142	H	0.501537	1.155209	-0.127997
Cl143	Cl	0.813232	0.161564	-0.179456
Cl144	Cl	0.540279	0.476309	0.093477
H145	H	0.280377	1.368424	0.353310
Cl146	Cl	0.576227	0.499982	-0.189279
H147	H	0.986673	0.482666	-0.218197
H148	H	0.647931	0.269520	-0.439343
H149	H	0.634532	1.297341	0.369435
H150	H	1.089188	0.340584	-0.320679
Cl151	Cl	0.990627	0.499969	-0.110024
Cl152	Cl	0.795236	0.818931	0.340623
H153	H	0.783183	0.032155	-0.149426
Cl154	Cl	0.609692	1.137911	0.270874
H155	H	-0.063021	0.818928	-0.138223
Cl156	Cl	1.118145	0.323178	-0.100706
H157	H	0.851971	0.482684	0.042027
Cl158	Cl	0.558253	0.818954	0.203819
H159	H	0.570323	0.605736	0.063444
H160	H	0.954543	0.340536	-0.455408
Cl161	Cl	0.583039	0.290972	0.050702
Cl162	Cl	0.795238	0.818924	0.203805
Cl163	Cl	0.950521	0.323252	0.066855
H164	H	1.073133	0.269507	-0.439291
H165	H	0.852009	0.482637	-0.352916
Cl166	Cl	0.795241	0.818924	0.573388
Cl167	Cl	0.402987	1.314656	-0.152815
H168	H	0.416523	0.818964	0.052247
H169	H	0.264321	1.297331	0.234698
Cl170	Cl	0.402886	1.314732	0.398383
Cl171	Cl	0.786573	1.314625	0.230778
H172	H	0.501499	1.155248	0.266936
Cl173	Cl	0.743810	0.500017	-0.356821
Cl174	Cl	0.255415	1.403106	-0.073682
Cl175	Cl	0.777279	1.137854	0.103276
H176	H	0.705617	1.368364	0.353323
H177	H	0.306558	0.818937	-0.138232
Cl178	Cl	0.293136	0.818959	0.075499
H179	H	-0.063014	0.818932	0.052254
H180	H	0.046944	0.818937	-0.138225
Cl181	Cl	0.429955	0.818927	-0.161493
H182	H	0.581502	0.818970	0.696797
H183	H	0.581503	0.818963	0.586829
H184	H	0.771999	0.818917	0.696777
