data_functionalizedCrystal
_audit_creation_method	'MofGen! by Chris Wilmer'
_symmetry_space_group_name_H-M	'P1'
_symmetry_Int_Tables_number	1
_symmetry_cell_setting	triclinic
loop_
_symmetry_equiv_pos_as_xyz
  x,y,z
_cell_length_a	8.559649
_cell_length_b	11.026607
_cell_length_c	7.088929
_cell_angle_alpha	82.408099
_cell_angle_beta	95.325015
_cell_angle_gamma	89.182341
loop_
_atom_site_label
_atom_site_type_symbol
_atom_site_fract_x
_atom_site_fract_y
_atom_site_fract_z
O1	O	2.096118	-0.026458	-0.158957
O2	O	1.648469	0.034577	-0.158966
O3	O	1.835194	-0.169136	-0.158955
O4	O	1.909394	0.177256	-0.158968
O5	O	1.860132	-0.196415	0.159021
O6	O	1.673407	0.007298	0.159011
O7	O	2.121056	-0.053737	0.159019
Cu8	Cu	1.899509	-0.025710	0.188049
Cu9	Cu	1.870017	0.006551	-0.187995
O10	O	1.934332	0.149977	0.159009
C11	C	1.602739	0.025563	0.000021
C12	C	1.429319	0.039332	0.000018
C13	C	1.833974	-0.226711	0.000030
C14	C	1.793166	-0.357621	0.000023
C15	C	1.905841	-0.441927	0.000022
C16	C	1.863667	-0.577231	0.000014
C17	C	2.166786	-0.044723	0.000028
C18	C	2.340205	-0.058490	0.000019
C19	C	1.935551	0.207551	0.000019
C20	C	1.976358	0.338463	0.000014
N21	N	1.920263	-0.048402	0.452538
N22	N	1.849272	0.029232	-0.452485
H23	H	1.396583	-0.152772	0.000013
O24	O	1.362266	0.151863	0.000263
C25	C	1.346176	0.328633	0.165042
C26	C	1.422261	0.201224	0.164982
H27	H	1.394627	0.368568	0.298223
H28	H	1.373871	0.391561	0.032060
H29	H	1.213601	0.320052	0.164942
H30	H	1.554849	0.209688	0.165150
H31	H	1.394439	0.138344	0.297953
O32	O	2.007922	-0.144526	0.549735
C33	C	2.044367	-0.363765	0.611436
C34	C	1.944988	-0.255020	0.501208
H35	H	1.993505	-0.453127	0.572274
H36	H	2.170394	-0.356825	0.572130
H37	H	2.042717	-0.361843	0.771635
H38	H	1.946509	-0.256874	0.340984
H39	H	1.819010	-0.262000	0.540674
H40	H	2.033528	-0.413937	0.000036
O41	O	1.761483	0.125305	0.450416
C42	C	1.599253	0.302566	0.471134
C43	C	1.698657	0.193831	0.581351
H44	H	1.548403	0.357984	0.576947
H45	H	1.676158	0.363351	0.377455
H46	H	1.499512	0.266803	0.377381
H47	H	1.798407	0.229485	0.675208
H48	H	1.621646	0.133066	0.674909
O49	O	1.711361	-0.610731	-0.000249
C50	C	1.495463	-0.703915	-0.165060
C51	C	1.667967	-0.666064	-0.164976
H52	H	1.460316	-0.748636	-0.298248
H53	H	1.481101	-0.771653	-0.032084
H54	H	1.417226	-0.619387	-0.164964
H55	H	1.746311	-0.750518	-0.165139
H56	H	1.682203	-0.598283	-0.297940
H57	H	2.104043	-0.633542	-0.000127
H58	H	1.665478	-0.385611	0.000008
