data_functionalizedCrystal
_audit_creation_method	'MofGen! by Chris Wilmer'
_symmetry_space_group_name_H-M	'P1'
_symmetry_Int_Tables_number	1
_symmetry_cell_setting	triclinic
loop_
_symmetry_equiv_pos_as_xyz
  x,y,z
_cell_length_a	19.121241
_cell_length_b	21.295417
_cell_length_c	19.120904
_cell_angle_alpha	87.590581
_cell_angle_beta	90.124528
_cell_angle_gamma	92.463828
loop_
_atom_site_label
_atom_site_type_symbol
_atom_site_fract_x
_atom_site_fract_y
_atom_site_fract_z
Zn1	Zn	1.054849	-0.227282	0.442178
Zn2	Zn	1.059760	-0.327881	0.324935
Zn3	Zn	0.942615	-0.226908	0.319948
Zn4	Zn	0.937568	-0.336799	0.437121
O5	O	0.998698	-0.279717	0.381045
O6	O	1.153608	-0.237051	0.430829
O7	O	1.048388	-0.310598	0.226169
O8	O	0.957560	-0.138867	0.336192
O9	O	1.157216	-0.310960	0.344691
O10	O	1.040018	-0.139142	0.425994
O11	O	0.962322	-0.236414	0.222505
O12	O	0.843838	-0.245061	0.331288
O13	O	0.948957	-0.326160	0.535896
O14	O	0.840129	-0.325797	0.417374
O15	O	1.035123	-0.245698	0.539612
O16	O	1.043493	-0.417154	0.339786
O17	O	0.953719	-0.423706	0.422209
C18	C	0.816545	-0.286357	0.373241
C19	C	0.738619	-0.289213	0.369919
C20	C	0.700128	-0.252141	0.413275
C21	C	0.626908	-0.254822	0.410147
C22	C	0.592180	-0.294578	0.363667
C23	C	0.630677	-0.331652	0.320307
C24	C	0.703895	-0.328967	0.323432
C25	C	0.371202	-0.304601	0.351983
C26	C	0.297978	-0.307284	0.348864
C27	C	0.294215	-0.230453	0.438703
C28	C	0.367435	-0.227775	0.441827
C29	C	0.405925	-0.264846	0.398464
C30	C	0.517338	-0.297320	0.360471
C31	C	0.480766	-0.262100	0.401657
C32	C	0.998610	-0.443271	0.381006
C33	C	0.998635	-0.513238	0.381015
C34	C	1.041544	-0.546193	0.427806
C35	C	1.041568	-0.611935	0.427825
C36	C	0.998691	-0.644720	0.381040
C37	C	0.955774	-0.611757	0.334246
C38	C	0.955746	-0.546017	0.334233
N39	N	0.996017	-0.745728	0.319460
N40	N	0.996047	-0.808179	0.319474
C41	C	0.998772	-0.842793	0.381075
N42	N	1.001479	-0.812595	0.442664
N43	N	1.001452	-0.750139	0.442649
C44	C	0.998717	-0.716004	0.381048
C45	C	1.041709	-0.947033	0.427890
C46	C	1.041728	-1.012776	0.427909
C47	C	0.955938	-1.012597	0.334324
C48	C	0.955915	-0.946855	0.334311
C49	C	0.998804	-0.914076	0.381093
C50	C	1.181561	-0.273052	0.388880
C51	C	1.259487	-0.270212	0.392219
C52	C	0.990930	-0.286965	0.563902
C53	C	0.987619	-0.290054	0.641825
C54	C	0.998804	-0.115525	0.381101
C55	C	0.998850	-0.045556	0.381125
C56	C	1.006476	-0.272451	0.198902
C57	C	1.009922	-0.269180	0.120985
C58	C	1.030924	-0.249615	0.680369
C59	C	1.027805	-0.252515	0.753585
C60	C	0.981384	-0.295857	0.788256
C61	C	0.938075	-0.336298	0.749707
C62	C	0.941191	-0.333395	0.676492
C63	C	0.969729	-0.306717	1.009221
C64	C	0.966618	-0.309619	1.082441
C65	C	1.056347	-0.225834	1.086315
C66	C	1.059461	-0.222937	1.013098
C67	C	1.016150	-0.263376	0.974555
C68	C	0.978197	-0.298824	0.863095
C69	C	1.019334	-0.260406	0.899718
H70	H	0.262869	-0.200271	0.474006
H71	H	0.269705	-0.339662	0.311014
H72	H	1.076629	-0.920344	0.465985
H73	H	1.076669	-1.039607	0.466015
C74	C	0.953306	-0.397913	1.164336
C75	C	0.915583	-0.357258	1.120557
H76	H	0.921800	-0.427322	1.187864
H77	H	0.978651	-0.374244	1.197761
H78	H	0.985041	-0.419752	1.137068
H79	H	0.883851	-0.335415	1.147826
H80	H	0.890226	-0.380929	1.087127
H81	H	0.920804	-0.519184	0.296130
C82	C	0.880710	-0.389812	1.012757
C83	C	0.922112	-0.351159	0.966861
H84	H	0.851312	-0.417248	0.986601
H85	H	0.852711	-0.364490	1.040179
H86	H	0.910031	-0.413919	1.042609
H87	H	0.892792	-0.327049	0.937012
H88	H	0.950114	-0.376484	0.939426
H89	H	1.097264	-0.187645	0.984874
H90	H	0.489054	-0.329690	0.322627
C91	C	1.047174	-0.475609	0.522520
C92	C	1.088681	-0.510165	0.479235
H93	H	1.076275	-0.453364	0.554267
H94	H	1.015486	-0.503450	0.548003
H95	H	1.021620	-0.446571	0.494643
H96	H	1.114231	-0.539206	0.507112
H97	H	1.120381	-0.482322	0.453750
C98	C	0.367556	-0.380817	0.262872
C99	C	0.413503	-0.345353	0.304323
H100	H	0.393675	-0.405979	0.233451
H101	H	0.340142	-0.353338	0.234898
H102	H	0.337699	-0.407193	0.292159
H103	H	0.443358	-0.318973	0.275036
H104	H	0.440930	-0.372835	0.332300
H105	H	1.076503	-0.638773	0.465935
H106	H	0.920862	-0.638455	0.296155
C107	C	0.917781	-0.846000	0.292742
C108	C	0.908753	-0.910625	0.282872
H109	H	0.888659	-0.823636	0.260987
H110	H	0.965319	-0.833070	0.284534
H111	H	0.905476	-0.837467	0.339396
H112	H	0.921063	-0.919160	0.236219
H113	H	0.861205	-0.923560	0.291074
C114	C	0.917883	-1.113289	0.292794
C115	C	0.908801	-1.048626	0.282901
H116	H	0.888782	-1.135533	0.261045
H117	H	0.905591	-1.126289	0.339446
H118	H	0.965436	-1.121900	0.284587
H119	H	0.861249	-1.040015	0.291112
H120	H	0.921089	-1.035622	0.236237
H121	H	1.068726	-0.214323	0.652145
C122	C	1.091408	-0.193077	1.200267
C123	C	1.103946	-0.181380	1.128682
H124	H	1.120792	-0.165626	1.226421
H125	H	1.101136	-0.235468	1.212689
H126	H	1.043796	-0.186057	1.210240
H127	H	1.151557	-0.188404	1.118709
H128	H	1.094223	-0.138979	1.116255
C129	C	0.520110	-0.369886	0.275631
C130	C	0.592505	-0.375354	0.269216
H131	H	0.496547	-0.396871	0.244093
H132	H	0.508561	-0.327618	0.264945
H133	H	0.506123	-0.381471	0.322207
H134	H	0.606492	-0.363764	0.222641
H135	H	0.604059	-0.417631	0.279898
H136	H	0.940404	-0.334117	0.891332
H137	H	1.063070	-0.219587	0.784964
H138	H	0.900276	-0.371586	0.777942
H139	H	0.395705	-0.195404	0.479678
C140	C	0.852205	-0.416520	0.680013
C141	C	0.893602	-0.377857	0.634122
H142	H	0.822830	-0.443973	0.653855
H143	H	0.824184	-0.391206	0.707422
H144	H	0.881531	-0.440609	0.709879
H145	H	0.864276	-0.353764	0.604260
H146	H	0.921626	-0.403174	0.606701
H147	H	1.057127	-0.225114	0.871485
H148	H	0.728398	-0.219769	0.451126
H149	H	0.595572	-0.224635	0.445453
H150	H	0.735234	-0.359155	0.288126
H151	H	0.509045	-0.229728	0.439498
