data_functionalizedCrystal
_audit_creation_method	'MofGen! by Chris Wilmer'
_symmetry_space_group_name_H-M	'P1'
_symmetry_Int_Tables_number	1
_symmetry_cell_setting	triclinic
loop_
_symmetry_equiv_pos_as_xyz
  x,y,z
_cell_length_a	12.970454
_cell_length_b	14.628931
_cell_length_c	12.970454
_cell_angle_alpha	89.999994
_cell_angle_beta	60.000265
_cell_angle_gamma	59.999968
loop_
_atom_site_label
_atom_site_type_symbol
_atom_site_fract_x
_atom_site_fract_y
_atom_site_fract_z
Zr1	Zr	1.128512	0.880621	-0.135292
O2	O	1.343602	0.734660	-0.299915
O3	O	0.913423	0.925365	-0.084828
O4	O	1.128513	0.925365	-0.299917
O5	O	1.128511	0.734661	0.084842
O6	O	1.128513	1.075797	-0.299917
O7	O	1.128512	0.734660	-0.084826
O8	O	0.743756	1.075797	0.084838
O9	O	1.513268	0.734661	-0.299913
O10	O	1.001892	1.056714	-0.063304
O11	O	1.001891	0.944449	0.063317
O12	O	1.255132	0.944449	-0.189923
O13	O	1.255131	0.832184	-0.063302
Zr14	Zr	1.128511	1.120543	0.135307
Zr15	Zr	1.128512	1.120542	-0.135293
Zr16	Zr	1.128511	0.880622	0.135308
Zr17	Zr	1.399110	0.880622	-0.135290
Zr18	Zr	0.857913	1.120542	0.135305
O19	O	1.343600	1.075799	0.084843
O20	O	1.343602	1.075797	-0.299916
O21	O	1.343600	0.734662	0.084843
O22	O	0.913421	1.266504	0.299929
O23	O	0.913423	1.266503	-0.084829
O24	O	0.913421	0.925367	0.299930
O25	O	1.128512	1.266503	-0.084827
O26	O	1.128510	1.075799	0.299932
O27	O	1.128510	0.925367	0.299932
O28	O	1.128511	1.266504	0.084840
O29	O	1.513268	0.925366	-0.299914
O30	O	0.743755	1.075798	0.299928
O31	O	0.743755	1.266504	0.299928
O32	O	0.743756	1.266503	0.084837
O33	O	1.513267	0.734661	-0.084823
O34	O	1.513267	0.925367	-0.084823
O35	O	1.001891	1.056715	0.189937
O36	O	1.001891	1.168980	0.063316
O37	O	1.255131	1.056715	-0.063302
O38	O	1.255131	0.944450	0.063319
C39	C	0.790035	1.000581	0.000004
C40	C	0.675159	1.000581	0.000003
C41	C	1.128511	0.700477	0.000008
C42	C	1.128511	0.598624	0.000008
C43	C	1.128511	0.447950	0.088837
C44	C	1.128511	0.553220	0.088838
C45	C	1.466988	1.000583	0.000010
C46	C	1.581863	1.000583	0.000011
C47	C	1.128513	1.000581	-0.338472
C48	C	1.128514	1.000580	-0.453349
C49	C	1.128511	1.300687	0.000007
C50	C	1.128511	1.402540	0.000006
C51	C	1.128510	1.000583	0.338487
C52	C	1.128509	1.000584	0.453363
C53	C	0.790035	1.300686	0.000004
C54	C	0.675159	1.402539	0.000002
C55	C	0.790033	1.000582	0.338484
C56	C	0.675157	1.000582	0.453359
C57	C	0.790033	1.300688	0.338483
C58	C	0.675157	1.402541	0.453358
C59	C	1.466989	0.700477	-0.338468
C60	C	1.581866	0.598624	-0.453344
C61	C	1.466988	0.700478	0.000011
C62	C	1.581863	0.598625	0.000012
C63	C	1.466989	1.000582	-0.338469
C64	C	1.581866	1.000582	-0.453345
C65	C	0.527727	1.450371	0.093477
C66	C	0.419774	1.546063	0.093480
C67	C	0.459256	1.593925	0.000013
C68	C	0.606703	1.546084	-0.093472
C69	C	0.714653	1.450390	-0.093479
C70	C	0.527726	1.450379	0.507304
C71	C	0.419770	1.546092	0.615229
C72	C	0.459249	1.593959	0.669213
C73	C	0.606696	1.546116	0.615258
C74	C	0.714648	1.450410	0.507329
C75	C	1.729297	0.550793	-0.507299
C76	C	1.837252	0.455102	-0.615248
C77	C	1.797772	0.407238	-0.669236
C78	C	1.650326	0.455077	-0.615276
C79	C	1.542374	0.550771	-0.507333
C80	C	1.542336	0.550793	0.093496
C81	C	1.650259	0.455101	0.093523
C82	C	1.797709	0.407239	0.000060
C83	C	1.837236	0.455080	-0.093430
C84	C	1.729314	0.550774	-0.093450
H85	H	1.128503	0.408898	0.164891
C86	C	1.916410	0.301873	-0.000011
N87	N	2.005809	0.222474	-0.000100
C88	C	1.128500	0.455306	-0.102731
N89	N	1.128491	0.495049	-0.180116
H90	H	1.618047	0.416161	0.169653
C91	C	1.128509	0.605974	0.191584
N92	N	1.128506	0.645712	0.268977
H93	H	1.957303	0.416096	-0.169524
H94	H	1.761470	0.589748	-0.463353
H95	H	0.371333	1.671889	0.757097
C96	C	0.650100	1.598781	0.674662
N97	N	0.682788	1.638447	0.719413
H98	H	0.371342	1.671843	0.000031
H99	H	0.638830	1.585068	-0.169570
H100	H	1.128520	0.559576	-0.076051
H101	H	0.834698	1.411456	-0.169596
H102	H	0.495552	1.411414	0.169593
C103	C	0.484263	1.397748	0.447936
N104	N	0.451515	1.358117	0.403222
C105	C	1.380146	0.603429	0.196327
N106	N	1.257986	0.643073	0.273790
C107	C	0.257589	1.598693	0.674567
N108	N	0.135436	1.638308	0.719260
C109	C	1.772820	0.603366	-0.196311
N110	N	1.805600	0.642972	-0.273794
C111	C	0.876824	1.397791	0.448009
N112	N	0.998976	1.358163	0.403334
C113	C	1.999434	0.402491	-0.674578
N114	N	2.121587	0.362867	-0.719261
C115	C	1.606921	0.402403	-0.674668
N116	N	1.574233	0.362719	-0.719399
C117	C	1.916541	0.301983	-0.787991
N118	N	2.006004	0.222709	-0.877441
H119	H	0.299724	1.585002	0.169610
H120	H	1.422330	0.589703	-0.463406
