data_functionalizedCrystal
_audit_creation_method	'MofGen! by Chris Wilmer'
_symmetry_space_group_name_H-M	'P1'
_symmetry_Int_Tables_number	1
_symmetry_cell_setting	triclinic
loop_
_symmetry_equiv_pos_as_xyz
  x,y,z
_cell_length_a	15.944551
_cell_length_b	15.944545
_cell_length_c	10.868271
_cell_angle_alpha	89.992762
_cell_angle_beta	90.000173
_cell_angle_gamma	83.497456
loop_
_atom_site_label
_atom_site_type_symbol
_atom_site_fract_x
_atom_site_fract_y
_atom_site_fract_z
O1	O	1.114521	0.108333	-0.102200
O2	O	1.447855	0.441666	0.231134
O3	O	1.781188	0.775000	0.564467
O4	O	0.869971	0.121689	-0.102231
O5	O	1.203305	0.455022	0.231102
O6	O	1.536638	0.788356	0.564436
O7	O	0.998927	-0.007264	-0.102200
O8	O	1.332261	0.326069	0.231133
O9	O	1.665594	0.659402	0.564467
O10	O	0.985566	0.237286	-0.102231
O11	O	1.318899	0.570620	0.231102
O12	O	1.652232	0.903953	0.564436
O13	O	0.998917	-0.007269	0.102445
O14	O	1.332250	0.326064	0.435778
O15	O	1.665583	0.659397	0.769111
O16	O	0.869961	0.121684	0.102414
O17	O	1.203294	0.455017	0.435747
O18	O	1.536628	0.788351	0.769080
O19	O	1.114511	0.108328	0.102445
O20	O	1.447844	0.441661	0.435778
O21	O	1.781178	0.774995	0.769112
Zn22	Zn	0.992234	0.115005	0.134921
Zn23	Zn	1.325568	0.448339	0.468254
Zn24	Zn	1.658901	0.781672	0.801588
Zn25	Zn	0.992248	0.115012	-0.134707
Zn26	Zn	1.325581	0.448345	0.198626
Zn27	Zn	1.658915	0.781678	0.531959
O28	O	0.985555	0.237281	0.102414
O29	O	1.318888	0.570615	0.435747
O30	O	1.652222	0.903948	0.769080
C31	C	0.838672	0.121132	0.000087
C32	C	1.172006	0.454465	0.333421
C33	C	1.505339	0.787799	0.666754
C34	C	0.745426	0.119470	0.000076
C35	C	1.078760	0.452803	0.333409
C36	C	1.412093	0.786137	0.666743
C37	C	0.998368	-0.038561	0.000123
C38	C	1.331702	0.294773	0.333457
C39	C	1.665035	0.628106	0.666790
C40	C	0.996708	-0.131807	0.000127
C41	C	1.330041	0.201526	0.333460
C42	C	1.663375	0.534860	0.666793
C43	C	0.530571	0.035565	0.000110
C44	C	0.863905	0.368899	0.333444
C45	C	1.197238	0.702232	0.666777
C46	C	0.469556	0.074530	-0.100795
C47	C	0.802889	0.407864	0.232538
C48	C	1.136222	0.741197	0.565872
C49	C	0.574700	0.116463	0.000091
C50	C	0.908034	0.449796	0.333424
C51	C	1.241367	0.783129	0.666758
C52	C	0.469567	0.074544	0.100968
C53	C	0.802901	0.407878	0.434302
C54	C	1.136234	0.741211	0.767635
C55	C	0.409788	0.113552	0.000111
C56	C	0.743121	0.446885	0.333444
C57	C	1.076454	0.780218	0.666777
C58	C	0.514913	0.155450	-0.100898
C59	C	0.848246	0.488783	0.232435
C60	C	1.181580	0.822116	0.565769
C61	C	0.514931	0.155453	0.100956
C62	C	0.848264	0.488786	0.434290
C63	C	1.181598	0.822119	0.767623
C64	C	0.453933	0.194476	0.000026
C65	C	0.787266	0.527810	0.333359
C66	C	1.120600	0.861143	0.666693
C67	C	0.669703	0.118137	0.000078
C68	C	1.003036	0.451470	0.333412
C69	C	1.336369	0.784804	0.666745
C70	C	0.314787	0.111884	0.000114
C71	C	0.648120	0.445217	0.333448
C72	C	0.981453	0.778550	0.666781
C73	C	0.911814	-0.402440	0.000091
C74	C	1.245148	-0.069106	0.333424
C75	C	1.578481	0.264227	0.666758
C76	C	0.952749	-0.351852	-0.100805
C77	C	1.286082	-0.018518	0.232528
C78	C	1.619415	0.314815	0.565862
C79	C	0.990787	-0.467451	0.000091
C80	C	1.324121	-0.134118	0.333424
C81	C	1.657454	0.199216	0.666758
C82	C	0.952759	-0.351884	0.100959
C83	C	1.286093	-0.018551	0.434292
C84	C	1.619426	0.314783	0.767625
C85	C	0.993692	-0.302537	0.000111
C86	C	1.327025	0.030796	0.333444
C87	C	1.660359	0.364129	0.666777
C88	C	1.031700	-0.418091	-0.100888
C89	C	1.365034	-0.084758	0.232445
C90	C	1.698367	0.248576	0.565778
C91	C	1.031700	-0.418127	0.100966
C92	C	1.365033	-0.084793	0.434299
C93	C	1.698366	0.248540	0.767633
C94	C	1.072692	-0.367571	0.000046
C95	C	1.406025	-0.034238	0.333379
C96	C	1.739358	0.299095	0.666712
C97	C	0.989112	-0.562453	0.000079
C98	C	1.322445	-0.229120	0.333412
C99	C	1.655778	0.104214	0.666745
C100	C	0.995374	-0.207538	0.000114
C101	C	1.328707	0.125795	0.333447
C102	C	1.662041	0.459129	0.666781
C103	C	1.145810	0.108885	0.000124
C104	C	1.479143	0.442218	0.333457
C105	C	1.812477	0.775552	0.666790
C106	C	1.239056	0.110547	0.000127
C107	C	1.572389	0.443880	0.333460
C108	C	1.905723	0.777214	0.666794
C109	C	0.986114	0.268578	0.000088
C110	C	1.319447	0.601911	0.333421
C111	C	1.652781	0.935244	0.666754
C112	C	0.987774	0.361824	0.000076
C113	C	1.321108	0.695157	0.333410
C114	C	1.654441	1.028491	0.666743
N115	N	0.992231	0.115000	0.318935
N116	N	1.325564	0.448334	0.652268
N117	N	1.658897	0.781667	0.985602
N118	N	0.992258	0.115010	-0.318721
N119	N	1.325592	0.448343	0.014612
N120	N	1.658925	0.781677	0.347945
C121	C	0.992244	0.115010	0.569941
C122	C	1.325577	0.448343	0.903274
C123	C	1.658910	0.781677	1.236608
C124	C	0.992234	0.115007	0.430264
C125	C	1.325567	0.448340	0.763597
C126	C	1.658901	0.781674	1.096930
H127	H	0.563906	-0.031573	-0.000006
H128	H	0.897239	0.301760	0.333328
H129	H	1.230573	0.635094	0.666661
H130	H	1.140757	-0.352081	-0.000003
H131	H	1.474090	-0.018747	0.333331
H132	H	1.807424	0.314586	0.666664
H133	H	0.449451	0.040316	-0.186095
H134	H	0.782784	0.373649	0.147238
H135	H	1.116117	0.706983	0.480571
H136	H	0.449478	0.040311	0.186273
H137	H	0.782811	0.373644	0.519607
H138	H	1.116144	0.706978	0.852940
H139	H	0.534904	0.189642	-0.186299
H140	H	0.868238	0.522976	0.147034
H141	H	1.201571	0.856309	0.480368
H142	H	0.420773	0.261684	-0.000039
H143	H	0.754106	0.595017	0.333294
H144	H	1.087439	0.928350	0.666628
H145	H	0.843802	-0.418092	-0.000016
H146	H	1.177135	-0.084759	0.333317
H147	H	1.510469	0.248574	0.666650
H148	H	1.065018	-0.447078	0.186278
H149	H	1.398352	-0.113745	0.519612
H150	H	1.731685	0.219588	0.852945
H151	H	0.919401	-0.322915	-0.186114
H152	H	1.252734	0.010418	0.147219
H153	H	1.586067	0.343751	0.480553
H154	H	1.065033	-0.446895	-0.186282
H155	H	1.398366	-0.113562	0.147051
H156	H	1.731699	0.219771	0.480385
H157	H	0.919389	-0.322972	0.186256
H158	H	1.252722	0.010362	0.519589
H159	H	1.586056	0.343695	0.852923
H160	H	0.535057	0.189639	0.186260
H161	H	0.868390	0.522972	0.519594
H162	H	1.201724	0.856305	0.852927
