data_functionalizedCrystal
_audit_creation_method	'MofGen! by Chris Wilmer'
_symmetry_space_group_name_H-M	'P1'
_symmetry_Int_Tables_number	1
_symmetry_cell_setting	triclinic
loop_
_symmetry_equiv_pos_as_xyz
  x,y,z
_cell_length_a	15.995350
_cell_length_b	15.995292
_cell_length_c	9.130313
_cell_angle_alpha	90.001944
_cell_angle_beta	90.003412
_cell_angle_gamma	83.480495
loop_
_atom_site_label
_atom_site_type_symbol
_atom_site_fract_x
_atom_site_fract_y
_atom_site_fract_z
O1	O	1.110958	0.107926	-0.121665
O2	O	0.867180	0.121254	-0.121694
O3	O	0.995758	-0.007301	-0.121681
O4	O	0.982380	0.236481	-0.121678
O5	O	0.995757	-0.007298	0.121918
O6	O	0.867179	0.121257	0.121905
O7	O	1.110957	0.107929	0.121934
Cu8	Cu	0.989068	0.114594	0.144162
Cu9	Cu	0.989069	0.114589	-0.143922
O10	O	0.982378	0.236484	0.121921
C11	C	0.835985	0.120704	0.000102
C12	C	0.743035	0.119053	0.000091
C13	C	0.995213	-0.038495	0.000115
C14	C	0.993581	-0.131448	0.000104
C15	C	0.987580	-0.469186	0.000117
C16	C	1.080384	-0.445874	0.000672
C17	C	1.082148	-0.349199	0.000118
C18	C	0.990557	-0.301631	0.000111
C19	C	0.944161	-0.330734	-0.138997
C20	C	0.943043	-0.427524	-0.139108
C21	C	0.941146	-0.427377	0.137909
C22	C	0.944585	-0.330885	0.139743
C23	C	0.992235	-0.206934	0.000103
C24	C	0.985899	-0.563882	0.000115
C25	C	0.405288	0.113120	0.000121
C26	C	0.452742	0.021566	0.000663
C27	C	0.549431	0.023218	0.000104
C28	C	0.572848	0.116063	0.000107
C29	C	0.531753	0.161219	-0.138994
C30	C	0.435117	0.158919	-0.139100
C31	C	0.434776	0.160814	0.137917
C32	C	0.531722	0.160792	0.139746
C33	C	0.667546	0.117731	0.000094
C34	C	0.310591	0.111455	0.000124
C35	C	1.142152	0.108479	0.000135
C36	C	1.235102	0.110130	0.000137
C37	C	0.982924	0.267678	0.000122
C38	C	0.984556	0.360631	0.000124
N39	N	0.989072	0.114596	0.346785
N40	N	0.989071	0.114580	-0.346544
C41	C	1.046021	0.057691	0.423443
C42	C	1.046019	0.057681	0.576779
C43	C	0.932116	0.171488	0.576787
C44	C	0.932115	0.171493	0.423453
C45	C	1.111784	-0.008012	0.423439
C46	C	1.111782	-0.008022	0.576776
H47	H	1.118484	-0.330172	0.099834
H48	H	0.872835	-0.441368	0.138841
Cl49	Cl	0.403086	0.114601	0.300703
H50	H	0.560134	0.129853	-0.242517
H51	H	0.877734	-0.297915	0.148139
Cl52	Cl	0.593338	-0.031586	0.154051
Cl53	Cl	0.840104	-0.281530	-0.147004
H54	H	0.434226	-0.015029	0.100418
Cl55	Cl	1.090597	-0.107189	0.359165
Cl56	Cl	0.592429	-0.031716	-0.154380
H57	H	1.116154	-0.473870	0.100432
Cl58	Cl	0.406859	0.108072	-0.299639
H59	H	0.559045	0.127829	0.242652
H60	H	1.172398	0.011853	0.375889
Cl61	Cl	0.422500	-0.034685	-0.152492
Cl62	Cl	1.081203	-0.101648	0.650192
Cl63	Cl	1.138578	-0.320779	-0.154101
H64	H	0.402855	0.226136	-0.145411
H65	H	0.976381	-0.310674	-0.242515
Cl66	Cl	0.992662	-0.468933	-0.299639
H67	H	1.176002	0.005765	0.618401
Cl68	Cl	0.860517	0.243013	0.673179
Cl69	Cl	0.555414	0.265329	0.152719
H70	H	0.970372	-0.455464	0.243352
H71	H	1.115957	-0.474893	-0.098521
H72	H	0.978370	-0.312318	0.242654
H73	H	0.545864	0.229429	-0.144164
Cl74	Cl	0.837991	-0.449993	-0.148875
Cl75	Cl	0.385719	0.265032	0.139375
H76	H	0.885736	0.217823	0.361040
