data_functionalizedCrystal
_audit_creation_method	'MofGen! by Chris Wilmer'
_symmetry_space_group_name_H-M	'P1'
_symmetry_Int_Tables_number	1
_symmetry_cell_setting	triclinic
loop_
_symmetry_equiv_pos_as_xyz
  x,y,z
_cell_length_a	21.395362
_cell_length_b	18.101395
_cell_length_c	21.395355
_cell_angle_alpha	89.984273
_cell_angle_beta	89.956060
_cell_angle_gamma	90.046983
loop_
_atom_site_label
_atom_site_type_symbol
_atom_site_fract_x
_atom_site_fract_y
_atom_site_fract_z
Zn1	Zn	0.957858	-0.294602	-0.354598
Zn2	Zn	1.291191	0.038732	-0.021264
Zn3	Zn	1.624524	0.372065	0.312069
Zn4	Zn	0.957760	-0.418425	-0.249825
Zn5	Zn	1.291093	-0.085092	0.083508
Zn6	Zn	1.624426	0.248242	0.416841
Zn7	Zn	0.853073	-0.294636	-0.249799
Zn8	Zn	1.186406	0.038697	0.083534
Zn9	Zn	1.519739	0.372031	0.416868
Zn10	Zn	0.853041	-0.418440	-0.354530
Zn11	Zn	1.186375	-0.085107	-0.021197
Zn12	Zn	1.519708	0.248227	0.312137
O13	O	0.905433	-0.356526	-0.302188
O14	O	1.238766	-0.023192	0.031145
O15	O	1.572099	0.310141	0.364479
O16	O	1.045523	-0.311006	-0.340739
O17	O	1.378856	0.022327	-0.007405
O18	O	1.712189	0.355661	0.325928
O19	O	0.943845	-0.402012	-0.162144
O20	O	1.277178	-0.068679	0.171189
O21	O	1.610511	0.264655	0.504523
O22	O	0.867027	-0.190998	-0.263718
O23	O	1.200360	0.142335	0.069615
O24	O	1.533694	0.475668	0.402949
O25	O	1.045450	-0.401979	-0.263763
O26	O	1.378784	-0.068645	0.069570
O27	O	1.712117	0.264688	0.402904
O28	O	0.944012	-0.190973	-0.340713
O29	O	1.277345	0.142360	-0.007380
O30	O	1.610679	0.475693	0.325953
O31	O	0.866932	-0.311065	-0.162125
O32	O	1.200265	0.022268	0.171209
O33	O	1.533598	0.355602	0.504542
O34	O	0.765391	-0.311080	-0.263652
O35	O	1.098724	0.022254	0.069681
O36	O	1.432057	0.355587	0.403014
O37	O	0.866973	-0.402005	-0.442217
O38	O	1.200307	-0.068671	-0.108884
O39	O	1.533640	0.264662	0.224450
O40	O	0.765367	-0.402038	-0.340598
O41	O	1.098701	-0.068705	-0.007265
O42	O	1.432034	0.264629	0.326069
O43	O	0.943982	-0.311021	-0.442267
O44	O	1.277315	0.022312	-0.108933
O45	O	1.610648	0.355646	0.224400
O46	O	0.943814	-0.522060	-0.263697
O47	O	1.277147	-0.188726	0.069636
O48	O	1.610481	0.144607	0.402969
O49	O	0.866878	-0.522071	-0.340623
O50	O	1.200211	-0.188738	-0.007290
O51	O	1.533545	0.144596	0.326043
C52	C	0.742645	-0.356565	-0.302115
C53	C	1.075978	-0.023231	0.031218
C54	C	1.409312	0.310102	0.364551
C55	C	0.673004	-0.356599	-0.302099
C56	C	1.006337	-0.023266	0.031234
C57	C	1.339671	0.310067	0.364568
C58	C	0.640295	-0.404024	-0.342105
C59	C	0.973628	-0.070691	-0.008771
C60	C	1.306962	0.262643	0.324562
C61	C	0.574860	-0.404006	-0.342133
C62	C	0.908193	-0.070673	-0.008799
C63	C	1.241526	0.262661	0.324534
C64	C	0.542136	-0.356571	-0.302144
C65	C	0.875469	-0.023238	0.031190
C66	C	1.208802	0.310096	0.364523
C67	C	0.574852	-0.309137	-0.262135
C68	C	0.908186	0.024196	0.071198
C69	C	1.241519	0.357530	0.404531
C70	C	0.640286	-0.309151	-0.262113
C71	C	0.973620	0.024182	0.071220
C72	C	1.306953	0.357516	0.404554
C73	C	0.438411	-0.350605	-0.245738
C74	C	0.771744	-0.017272	0.087595
C75	C	1.105078	0.316062	0.420928
C76	C	0.372978	-0.350596	-0.245760
C77	C	0.706311	-0.017262	0.087574
C78	C	1.039645	0.316071	0.420907
C79	C	0.340315	-0.356523	-0.302213
C80	C	0.673648	-0.023189	0.031120
C81	C	1.006982	0.310144	0.364454
C82	C	0.373093	-0.362474	-0.358647
C83	C	0.706426	-0.029141	-0.025313
C84	C	1.039759	0.304193	0.308020
C85	C	0.438527	-0.362488	-0.358624
C86	C	0.771860	-0.029155	-0.025291
C87	C	1.105194	0.304179	0.308042
C88	C	0.471183	-0.356550	-0.302164
C89	C	0.804517	-0.023216	0.031170
C90	C	1.137850	0.310117	0.364503
C91	C	0.236654	-0.403930	-0.342252
C92	C	0.569987	-0.070597	-0.008919
C93	C	0.903320	0.262737	0.324415
C94	C	0.171217	-0.403907	-0.342281
C95	C	0.504550	-0.070573	-0.008948
C96	C	0.837884	0.262760	0.324386
C97	C	0.171211	-0.309042	-0.262278
C98	C	0.504544	0.024292	0.071055
C99	C	0.837878	0.357625	0.404388
C100	C	0.236646	-0.309061	-0.262255
C101	C	0.569980	0.024272	0.071078
C102	C	0.903313	0.357606	0.404412
C103	C	0.269364	-0.356509	-0.302241
C104	C	0.602697	-0.023176	0.031092
C105	C	0.936030	0.310157	0.364426
C106	C	0.905349	-0.548936	-0.302170
C107	C	1.238682	-0.215603	0.031164
C108	C	1.572016	0.117730	0.364497
C109	C	0.905370	-0.631250	-0.302183
C110	C	1.238704	-0.297917	0.031151
C111	C	1.572037	0.035416	0.364484
C112	C	0.905508	-0.930341	-0.302216
C113	C	1.238841	-0.597008	0.031117
C114	C	1.572175	-0.263674	0.364450
C115	C	0.857214	-0.899054	-0.350736
C116	C	1.190547	-0.565721	-0.017403
C117	C	1.523881	-0.232387	0.315930
C118	C	0.856985	-0.813436	-0.350585
C119	C	1.190318	-0.480103	-0.017251
C120	C	1.523651	-0.146769	0.316082
C121	C	0.905440	-0.781959	-0.302200
C122	C	1.238773	-0.448625	0.031133
C123	C	1.572106	-0.115292	0.364466
C124	C	0.887557	-0.813100	-0.236161
C125	C	1.220890	-0.479767	0.097172
C126	C	1.554224	-0.146433	0.430506
C127	C	0.887246	-0.898745	-0.236451
C128	C	1.220579	-0.565412	0.096882
C129	C	1.553912	-0.232079	0.430215
C130	C	0.971790	-0.898667	-0.319154
C131	C	1.305123	-0.565334	0.014179
C132	C	1.638457	-0.232001	0.347512
C133	C	0.971400	-0.813017	-0.320602
C134	C	1.304734	-0.479683	0.012731
C135	C	1.638067	-0.146350	0.346064
C136	C	0.905402	-0.698099	-0.302187
C137	C	1.238736	-0.364766	0.031146
C138	C	1.572069	-0.031433	0.364480
C139	C	0.905544	-1.014201	-0.302225
C140	C	1.238877	-0.680867	0.031108
C141	C	1.572211	-0.347534	0.364441
C142	C	1.068856	-0.356487	-0.302261
C143	C	1.402189	-0.023154	0.031072
C144	C	1.735523	0.310180	0.364405
C145	C	1.138497	-0.356470	-0.302293
C146	C	1.471831	-0.023137	0.031041
C147	C	1.805164	0.310196	0.364374
C148	C	0.905485	-0.356511	-0.465611
C149	C	1.238818	-0.023177	-0.132278
C150	C	1.572151	0.310156	0.201055
C151	C	0.905507	-0.356504	-0.535253
C152	C	1.238840	-0.023171	-0.201919
C153	C	1.572174	0.310162	0.131414
C154	C	0.905534	-0.163364	-0.302220
C155	C	1.238867	0.169970	0.031113
C156	C	1.572201	0.503303	0.364446
C157	C	0.905577	-0.081050	-0.302234
C158	C	1.238911	0.252284	0.031099
C159	C	1.572244	0.585617	0.364433
C160	C	0.945603	-0.309127	-0.567993
C161	C	1.278937	0.024206	-0.234659
C162	C	1.612270	0.357540	0.098674
C163	C	0.945603	-0.309095	-0.633428
C164	C	1.278936	0.024238	-0.300095
C165	C	1.612269	0.357571	0.033239
C166	C	0.905512	-0.356454	-0.666121
C167	C	1.238845	-0.023120	-0.332788
C168	C	1.572179	0.310213	0.000546
C169	C	0.865408	-0.403834	-0.633373
C170	C	1.198741	-0.070501	-0.300040
C171	C	1.532074	0.262832	0.033294
C172	C	0.865405	-0.403859	-0.567939
C173	C	1.198738	-0.070526	-0.234606
C174	C	1.532072	0.262807	0.098728
C175	C	0.900536	-0.423137	-0.769788
C176	C	1.233869	-0.089803	-0.436454
C177	C	1.567202	0.243530	-0.103121
C178	C	0.900542	-0.423113	-0.835221
C179	C	1.233876	-0.089779	-0.501887
C180	C	1.567209	0.243554	-0.168554
C181	C	0.905516	-0.356375	-0.867942
C182	C	1.238849	-0.023042	-0.534609
C183	C	1.572182	0.310291	-0.201275
C184	C	0.910495	-0.289660	-0.835222
C185	C	1.243829	0.043673	-0.501889
C186	C	1.577162	0.377007	-0.168555
C187	C	0.910493	-0.289685	-0.769788
C188	C	1.243826	0.043648	-0.436455
C189	C	1.577160	0.376981	-0.103121
C190	C	0.905510	-0.356431	-0.737073
C191	C	1.238843	-0.023098	-0.403740
C192	C	1.572176	0.310235	-0.070407
C193	C	0.945613	-0.308960	-0.971635
C194	C	1.278947	0.024374	-0.638301
C195	C	1.612280	0.357707	-0.304968
C196	C	0.945608	-0.308927	-1.037071
C197	C	1.278942	0.024407	-0.703738
C198	C	1.612275	0.357740	-0.370405
C199	C	0.865416	-0.403672	-1.037015
C200	C	1.198750	-0.070339	-0.703682
C201	C	1.532083	0.262994	-0.370348
C202	C	0.865418	-0.403699	-0.971580
C203	C	1.198752	-0.070366	-0.638246
C204	C	1.532085	0.262968	-0.304913
C205	C	0.905520	-0.356344	-0.938893
C206	C	1.238854	-0.023010	-0.605560
C207	C	1.572187	0.310323	-0.272227
C208	C	0.905417	-0.356487	-0.139400
C209	C	1.238750	-0.023154	0.193933
C210	C	1.572084	0.310180	0.527266
C211	C	0.905516	-0.356285	-0.069760
C212	C	1.238850	-0.022952	0.263574
C213	C	1.572183	0.310382	0.596907
H214	H	0.346295	-0.345754	-0.199808
H215	H	0.679628	-0.012421	0.133526
H216	H	1.012962	0.320912	0.466859
H217	H	0.921625	-0.792710	-0.199023
H218	H	1.254959	-0.459376	0.134310
H219	H	1.588292	-0.126043	0.467644
H220	H	0.807855	-0.793026	-0.339363
H221	H	1.141188	-0.459693	-0.006030
H222	H	1.474521	-0.126360	0.327304
O223	O	0.675573	-0.258002	-0.218961
O224	O	1.008906	0.075331	0.114372
O225	O	1.342240	0.408665	0.447706
H226	H	0.705322	-0.291105	-0.187030
H227	H	1.038656	0.042229	0.146303
H228	H	1.371989	0.375562	0.479637
O229	O	0.822165	-0.454911	-0.668634
O230	O	1.155499	-0.121578	-0.335301
O231	O	1.488832	0.211756	-0.001968
H232	H	0.794278	-0.487856	-0.634872
H233	H	1.127611	-0.154523	-0.301538
H234	H	1.460944	0.178810	0.031795
O235	O	0.871656	-0.926637	-0.415754
O236	O	1.204989	-0.593304	-0.082421
O237	O	1.538322	-0.259971	0.250913
H238	H	0.913437	-0.962895	-0.414192
H239	H	1.246771	-0.629562	-0.080859
H240	H	1.580104	-0.296228	0.252474
H241	H	0.978263	-0.270396	-0.945020
H242	H	1.311597	0.062937	-0.611687
H243	H	1.644930	0.396270	-0.278353
O244	O	0.988854	-0.257823	-1.072391
O245	O	1.322187	0.075510	-0.739058
O246	O	1.655520	0.408844	-0.405725
H247	H	1.038021	-0.270527	-1.059878
H248	H	1.371355	0.062807	-0.726545
H249	H	1.704688	0.396140	-0.393211
H250	H	0.988093	-0.920221	-0.366491
H251	H	1.321426	-0.586888	-0.033157
H252	H	1.654759	-0.253554	0.300176
O253	O	0.824055	-0.784800	-0.216813
O254	O	1.157388	-0.451467	0.116520
O255	O	1.490722	-0.118134	0.449854
H256	H	0.805129	-0.748566	-0.254122
H257	H	1.138462	-0.415233	0.079212
H258	H	1.471795	-0.081899	0.412545
O259	O	0.539558	-0.257974	-0.219006
O260	O	0.872891	0.075359	0.114327
O261	O	1.206224	0.408692	0.447661
H262	H	0.573298	-0.224993	-0.191186
H263	H	0.906632	0.108340	0.142147
H264	H	1.239965	0.441674	0.475480
O265	O	0.135921	-0.257876	-0.219150
O266	O	0.469255	0.075457	0.114183
O267	O	0.802588	0.408790	0.447517
H268	H	0.169663	-0.224898	-0.191328
H269	H	0.502996	0.108435	0.142005
H270	H	0.836329	0.441769	0.475338
H271	H	0.465000	-0.345775	-0.199764
H272	H	0.798333	-0.012442	0.133569
H273	H	1.131666	0.320891	0.466903
O274	O	0.871756	-0.785535	-0.415455
O275	O	1.205090	-0.452202	-0.082122
O276	O	1.538423	-0.118868	0.251211
H277	H	0.879132	-0.833215	-0.447218
H278	H	1.212465	-0.499881	-0.113884
H279	H	1.545798	-0.166548	0.219449
H280	H	0.144587	-0.442524	-0.374862
H281	H	0.477920	-0.109191	-0.041529
H282	H	0.811253	0.224142	0.291804
H283	H	0.263278	-0.270446	-0.229675
H284	H	0.596611	0.062887	0.103658
H285	H	0.929945	0.396220	0.436992
H286	H	0.808383	-0.920654	-0.339656
H287	H	1.141716	-0.587320	-0.006323
H288	H	1.475050	-0.253987	0.327010
O289	O	0.989277	-0.786044	-0.384974
O290	O	1.322611	-0.452710	-0.051641
O291	O	1.655944	-0.119377	0.281692
H292	H	0.951348	-0.750662	-0.403788
H293	H	1.284682	-0.417329	-0.070455
H294	H	1.618015	-0.083995	0.262879
H295	H	1.009286	-0.791584	-0.287841
H296	H	1.342619	-0.458251	0.045493
H297	H	1.675952	-0.124917	0.378826
O298	O	0.823066	-0.925321	-0.217455
O299	O	1.156400	-0.591988	0.115878
O300	O	1.489733	-0.258654	0.449212
H301	H	0.792543	-0.877001	-0.208151
H302	H	1.125877	-0.543667	0.125182
H303	H	1.459210	-0.210334	0.458516
O304	O	0.539584	-0.455177	-0.385280
O305	O	0.872918	-0.121843	-0.051947
O306	O	1.206251	0.211490	0.281386
H307	H	0.509836	-0.422097	-0.417230
H308	H	0.843169	-0.088764	-0.083896
H309	H	1.176503	0.244569	0.249437
O310	O	0.271938	-0.455088	-0.385398
O311	O	0.605271	-0.121755	-0.052065
O312	O	0.938604	0.211579	0.281268
H313	H	0.301810	-0.421991	-0.417308
H314	H	0.635144	-0.088658	-0.083974
H315	H	0.968477	0.244675	0.249359
H316	H	0.914546	-0.235316	-0.861862
H317	H	1.247880	0.098017	-0.528529
H318	H	1.581213	0.431350	-0.195196
H319	H	0.920895	-0.919443	-0.199066
H320	H	1.254228	-0.586109	0.134267
H321	H	1.587561	-0.252776	0.467601
O322	O	0.895170	-0.495123	-0.734498
O323	O	1.228504	-0.161789	-0.401165
O324	O	1.561837	0.171544	-0.067831
H325	H	0.852721	-0.493970	-0.704660
H326	H	1.186055	-0.160636	-0.371327
H327	H	1.519388	0.172697	-0.037994
H328	H	0.896491	-0.477437	-0.861856
H329	H	1.229825	-0.144103	-0.528523
H330	H	1.563158	0.189230	-0.195189
O331	O	0.822169	-0.454747	-1.072267
O332	O	1.155502	-0.121414	-0.738934
O333	O	1.488835	0.211919	-0.405601
H334	H	0.832877	-0.512873	-1.059717
H335	H	1.166211	-0.179540	-0.726384
H336	H	1.499544	0.153793	-0.393050
O337	O	0.675580	-0.455196	-0.385236
O338	O	1.008913	-0.121863	-0.051902
O339	O	1.342246	0.211470	0.281431
H340	H	0.726576	-0.447245	-0.378497
H341	H	1.059910	-0.113912	-0.045164
H342	H	1.393243	0.219422	0.288169
H343	H	0.832751	-0.442439	-0.541282
H344	H	1.166084	-0.109105	-0.207949
H345	H	1.499418	0.224228	0.125384
O346	O	1.019487	-0.925628	-0.272451
O347	O	1.352821	-0.592294	0.060883
O348	O	1.686154	-0.258961	0.394216
H349	H	0.996136	-0.961392	-0.237330
H350	H	1.329469	-0.628058	0.096004
H351	H	1.662802	-0.294725	0.429337
H352	H	0.465212	-0.367332	-0.404575
H353	H	0.798545	-0.033998	-0.071242
H354	H	1.131879	0.299335	0.262092
H355	H	0.978257	-0.270566	-0.541384
H356	H	1.311590	0.062768	-0.208050
H357	H	1.644923	0.396101	0.125283
H358	H	0.978253	-0.270511	-0.660090
H359	H	1.311586	0.062822	-0.326757
H360	H	1.644919	0.396156	0.006576
O361	O	0.915863	-0.217735	-0.734496
O362	O	1.249196	0.115599	-0.401163
O363	O	1.582530	0.448932	-0.067829
H364	H	0.876041	-0.181378	-0.747017
H365	H	1.209374	0.151956	-0.413684
H366	H	1.542707	0.485289	-0.080351
O367	O	0.337876	-0.368861	-0.419544
O368	O	0.671209	-0.035527	-0.086210
O369	O	1.004542	0.297806	0.247123
H370	H	0.286869	-0.367840	-0.410082
H371	H	0.620202	-0.034507	-0.076749
H372	H	0.953535	0.298826	0.256584
O373	O	0.822155	-0.454779	-0.936260
O374	O	1.155488	-0.121445	-0.602927
O375	O	1.488821	0.211888	-0.269594
H376	H	0.794271	-0.487700	-0.969985
H377	H	1.127604	-0.154367	-0.636651
H378	H	1.460938	0.178966	-0.303318
