data_functionalizedCrystal
_audit_creation_method	'MofGen! by Chris Wilmer'
_symmetry_space_group_name_H-M	'P1'
_symmetry_Int_Tables_number	1
_symmetry_cell_setting	triclinic
loop_
_symmetry_equiv_pos_as_xyz
  x,y,z
_cell_length_a	21.295418
_cell_length_b	29.839131
_cell_length_c	29.839125
_cell_angle_alpha	90.011606
_cell_angle_beta	90.033105
_cell_angle_gamma	90.057233
loop_
_atom_site_label
_atom_site_type_symbol
_atom_site_fract_x
_atom_site_fract_y
_atom_site_fract_z
Zn1	Zn	0.962242	-0.178754	0.254239
Zn2	Zn	1.295575	0.154580	0.587572
Zn3	Zn	1.628909	0.487913	0.920905
Zn4	Zn	0.962144	-0.253858	0.179109
Zn5	Zn	1.295477	0.079475	0.512442
Zn6	Zn	1.628811	0.412809	0.845775
Zn7	Zn	0.856985	-0.178763	0.179096
Zn8	Zn	1.190318	0.154570	0.512429
Zn9	Zn	1.523651	0.487903	0.845762
Zn10	Zn	0.856914	-0.253878	0.254185
Zn11	Zn	1.190248	0.079455	0.587518
Zn12	Zn	1.523581	0.412788	0.920851
O13	O	0.909571	-0.216313	0.216657
O14	O	1.242905	0.117020	0.549990
O15	O	1.576238	0.450353	0.883324
O16	O	1.050318	-0.188704	0.244300
O17	O	1.383652	0.144629	0.577634
O18	O	1.716985	0.477963	0.910967
O19	O	0.948183	-0.243892	0.116240
O20	O	1.281516	0.089441	0.449573
O21	O	1.614849	0.422775	0.782906
O22	O	0.871018	-0.115895	0.189081
O23	O	1.204351	0.217438	0.522414
O24	O	1.537684	0.550772	0.855748
O25	O	1.050246	-0.243883	0.189103
O26	O	1.383580	0.089451	0.522436
O27	O	1.716913	0.422784	0.855769
O28	O	0.948350	-0.115888	0.244288
O29	O	1.281683	0.217445	0.577621
O30	O	1.615016	0.550779	0.910955
O31	O	0.870923	-0.188720	0.116230
O32	O	1.204256	0.144613	0.449564
O33	O	1.537589	0.477946	0.782897
O34	O	0.768886	-0.188740	0.189028
O35	O	1.102219	0.144593	0.522362
O36	O	1.435553	0.477927	0.855695
O37	O	0.870898	-0.243917	0.317059
O38	O	1.204231	0.089416	0.650392
O39	O	1.537565	0.422749	0.983726
O40	O	0.768834	-0.243927	0.244196
O41	O	1.102168	0.089407	0.577529
O42	O	1.435501	0.422740	0.910863
O43	O	0.948282	-0.188724	0.317099
O44	O	1.281615	0.144610	0.650432
O45	O	1.614948	0.477943	0.983765
O46	O	0.948115	-0.316728	0.189050
O47	O	1.281448	0.016606	0.522384
O48	O	1.614781	0.349939	0.855717
O49	O	0.870803	-0.316743	0.244208
O50	O	1.204136	0.016591	0.577542
O51	O	1.537470	0.349924	0.910875
C52	C	0.746020	-0.216337	0.216605
C53	C	1.079353	0.116996	0.549938
C54	C	1.412686	0.450330	0.883272
C55	C	0.676051	-0.216358	0.216594
C56	C	1.009385	0.116975	0.549927
C57	C	1.342718	0.450309	0.883260
C58	C	0.643174	-0.245132	0.245276
C59	C	0.976508	0.088202	0.578610
C60	C	1.309841	0.421535	0.911943
C61	C	0.577432	-0.245120	0.245297
C62	C	0.910765	0.088213	0.578630
C63	C	1.244099	0.421546	0.911963
C64	C	0.544569	-0.216340	0.216626
C65	C	0.877902	0.116993	0.549959
C66	C	1.211236	0.450326	0.883293
C67	C	0.577454	-0.187561	0.187941
C68	C	0.910787	0.145772	0.521275
C69	C	1.244121	0.479105	0.854608
C70	C	0.643195	-0.187570	0.187925
C71	C	0.976528	0.145763	0.521258
C72	C	1.309862	0.479097	0.854592
N73	N	0.441304	-0.212818	0.177333
N74	N	0.774637	0.120515	0.510666
N75	N	1.107971	0.453849	0.843999
N76	N	0.378853	-0.212812	0.177349
N77	N	0.712186	0.120521	0.510683
N78	N	1.045519	0.453854	0.844016
C79	C	0.346494	-0.216312	0.216674
C80	C	0.679828	0.117022	0.550007
C81	C	1.013161	0.450355	0.883340
N82	N	0.378947	-0.219826	0.255982
N83	N	0.712280	0.113508	0.589315
N84	N	1.045613	0.446841	0.922648
N85	N	0.441404	-0.219834	0.255964
N86	N	0.774737	0.113500	0.589298
N87	N	1.108070	0.446833	0.922631
C88	C	0.473284	-0.216328	0.216641
C89	C	0.806617	0.117006	0.549974
C90	C	1.139950	0.450339	0.883307
C91	C	0.242332	-0.245075	0.245381
C92	C	0.575665	0.088258	0.578714
C93	C	0.908998	0.421592	0.912047
C94	C	0.176588	-0.245061	0.245402
C95	C	0.509921	0.088273	0.578735
C96	C	0.843255	0.421606	0.912068
C97	C	0.176611	-0.187504	0.188042
C98	C	0.509945	0.145829	0.521376
C99	C	0.843278	0.479163	0.854709
C100	C	0.242354	-0.187516	0.188025
C101	C	0.575687	0.145818	0.521359
C102	C	0.909020	0.479151	0.854692
C103	C	0.275210	-0.216304	0.216694
C104	C	0.608543	0.117030	0.550027
C105	C	0.941877	0.450363	0.883361
C106	C	0.909458	-0.333036	0.216635
C107	C	1.242791	0.000297	0.549968
C108	C	1.576124	0.333631	0.883301
C109	C	0.909467	-0.382970	0.216640
C110	C	1.242800	-0.049637	0.549973
C111	C	1.576133	0.283696	0.883307
C112	C	0.949901	-0.692593	0.187978
C113	C	1.283234	-0.359260	0.521311
C114	C	1.616567	-0.025927	0.854645
C115	C	0.949978	-0.880266	0.187996
C116	C	1.283312	-0.546933	0.521329
C117	C	1.616645	-0.213600	0.854662
O118	O	0.984267	-0.904514	0.163609
O119	O	1.317600	-0.571180	0.496942
O120	O	1.650933	-0.237847	0.830276
N121	N	0.909702	-0.903755	0.216691
N122	N	1.243035	-0.570422	0.550024
N123	N	1.576368	-0.237089	0.883357
C124	C	0.869406	-0.880323	0.245386
C125	C	1.202739	-0.546990	0.578719
C126	C	1.536073	-0.213657	0.912052
O127	O	0.835155	-0.904608	0.269796
O128	O	1.168488	-0.571275	0.603130
O129	O	1.501821	-0.237942	0.936463
C130	C	0.869332	-0.692651	0.245370
C131	C	1.202665	-0.359318	0.578704
C132	C	1.535998	-0.025984	0.912037
C133	C	0.909606	-0.669164	0.216670
C134	C	1.242940	-0.335831	0.550003
C135	C	1.576273	-0.002498	0.883337
C136	C	0.990172	-0.669107	0.159280
C137	C	1.323506	-0.335773	0.492614
C138	C	1.656839	-0.002440	0.825947
C139	C	0.990150	-0.622191	0.159275
C140	C	1.323483	-0.288858	0.492608
C141	C	1.656817	0.044476	0.825941
C142	C	0.949856	-0.598762	0.187966
C143	C	1.283189	-0.265429	0.521300
C144	C	1.616523	0.067904	0.854633
C145	C	0.909584	-0.622249	0.216664
C146	C	1.242918	-0.288916	0.549997
C147	C	1.576251	0.044418	0.883331
C148	C	0.829040	-0.669220	0.274067
C149	C	1.162373	-0.335887	0.607401
C150	C	1.495706	-0.002553	0.940734
C151	C	0.829026	-0.622299	0.274062
C152	C	1.162359	-0.288966	0.607395
C153	C	1.495692	0.044368	0.940728
C154	C	0.869300	-0.598812	0.245361
C155	C	1.202634	-0.265479	0.578695
C156	C	1.535967	0.067854	0.912028
C157	C	0.869268	-0.551905	0.245350
C158	C	1.202601	-0.218571	0.578683
C159	C	1.535935	0.114762	0.912017
N160	N	0.909544	-0.528416	0.216655
N161	N	1.242878	-0.195082	0.549988
N162	N	1.576211	0.138251	0.883322
C163	C	0.949838	-0.551845	0.187963
C164	C	1.283172	-0.218511	0.521296
C165	C	1.616505	0.114822	0.854630
C166	C	0.869447	-0.978854	0.245391
C167	C	1.202780	-0.645521	0.578725
C168	C	1.536113	-0.312187	0.912058
C169	C	0.869464	-1.025772	0.245395
C170	C	1.202798	-0.692438	0.578728
C171	C	1.536131	-0.359105	0.912061
C172	C	0.950038	-1.025711	0.188005
C173	C	1.283371	-0.692378	0.521338
C174	C	1.616704	-0.359045	0.854672
C175	C	0.950016	-0.978793	0.188000
C176	C	1.283350	-0.645459	0.521333
C177	C	1.616683	-0.312126	0.854666
C178	C	0.909723	-0.955365	0.216696
C179	C	1.243057	-0.622031	0.550029
C180	C	1.576390	-0.288698	0.883363
C181	C	0.949788	-0.453319	0.187953
C182	C	1.283122	-0.119985	0.521286
C183	C	1.616455	0.213348	0.854619
C184	C	0.949761	-0.406399	0.187948
C185	C	1.283094	-0.073066	0.521282
C186	C	1.616427	0.260268	0.854615
C187	C	0.869190	-0.406463	0.245339
C188	C	1.202523	-0.073130	0.578673
C189	C	1.535857	0.260203	0.912006
C190	C	0.869215	-0.453379	0.245343
C191	C	1.202548	-0.120046	0.578676
C192	C	1.535882	0.213288	0.912009
C193	C	0.909519	-0.476805	0.216648
C194	C	1.242853	-0.143472	0.549981
C195	C	1.576186	0.189861	0.883314
O196	O	0.835003	-0.527628	0.269728
O197	O	1.168336	-0.194295	0.603061
O198	O	1.501669	0.139038	0.936394
O199	O	0.984094	-0.527551	0.163563
O200	O	1.317428	-0.194218	0.496896
O201	O	1.650761	0.139115	0.830230
C202	C	0.949923	-0.739509	0.187984
C203	C	1.283256	-0.406175	0.521317
C204	C	1.616589	-0.072842	0.854651
C205	C	0.909651	-0.762995	0.216682
C206	C	1.242984	-0.429662	0.550015
C207	C	1.576318	-0.096329	0.883348
C208	C	0.869357	-0.739567	0.245373
C209	C	1.202690	-0.406233	0.578707
C210	C	1.536024	-0.072900	0.912040
C211	C	0.909669	-0.809913	0.216685
C212	C	1.243002	-0.476580	0.550018
C213	C	1.576335	-0.143247	0.883352
C214	C	0.949963	-0.833342	0.187993
C215	C	1.283296	-0.500009	0.521326
C216	C	1.616629	-0.166675	0.854660
C217	C	0.990239	-0.809853	0.159298
C218	C	1.323572	-0.476520	0.492631
C219	C	1.656906	-0.143186	0.825965
C220	C	0.990217	-0.762937	0.159292
C221	C	1.323550	-0.429604	0.492625
C222	C	1.656884	-0.096271	0.825959
C223	C	0.829080	-0.763056	0.274069
C224	C	1.162414	-0.429722	0.607402
C225	C	1.495747	-0.096389	0.940735
C226	C	0.829105	-0.809971	0.274072
C227	C	1.162439	-0.476638	0.607405
C228	C	1.495772	-0.143304	0.940738
C229	C	0.869399	-0.833400	0.245380
C230	C	1.202733	-0.500067	0.578713
C231	C	1.536066	-0.166733	0.912047
C232	C	1.073762	-0.216290	0.216709
C233	C	1.407095	0.117043	0.550042
C234	C	1.740428	0.450377	0.883376
C235	C	1.143730	-0.216280	0.216731
C236	C	1.477063	0.117053	0.550065
C237	C	1.810396	0.450387	0.883398
C238	C	0.909593	-0.216322	0.333835
C239	C	1.242926	0.117012	0.667169
C240	C	1.576260	0.450345	1.000502
C241	C	0.909602	-0.216325	0.383770
C242	C	1.242936	0.117008	0.717103
C243	C	1.576269	0.450341	1.050436
C244	C	0.909702	-0.099135	0.216689
C245	C	1.243036	0.234198	0.550022
C246	C	1.576369	0.567532	0.883356
C247	C	0.909758	-0.049200	0.216703
C248	C	1.243092	0.284133	0.550036
C249	C	1.576425	0.617466	0.883369
C250	C	0.909586	-0.216273	0.099934
C251	C	1.242919	0.117061	0.433268
C252	C	1.576252	0.450394	0.766601
C253	C	0.909699	-0.216142	0.050000
C254	C	1.243032	0.117191	0.383334
C255	C	1.576365	0.450524	0.716667
C256	C	0.869352	-0.244962	0.740336
C257	C	1.202686	0.088372	1.073670
C258	C	1.536019	0.421705	1.407003
C259	C	0.869330	-0.245013	0.552663
C260	C	1.202663	0.088320	0.885997
C261	C	1.535996	0.421653	1.219330
O262	O	0.835046	-0.269446	0.528381
O263	O	1.168379	0.063888	0.861714
O264	O	1.501712	0.397221	1.195048
N265	N	0.909616	-0.216284	0.529215
N266	N	1.242950	0.117050	0.862548
N267	N	1.576283	0.450383	1.195882
C268	C	0.949908	-0.187537	0.552688
C269	C	1.283242	0.145796	0.886021
C270	C	1.616575	0.479130	1.219354
O271	O	0.984169	-0.163099	0.528437
O272	O	1.317503	0.170235	0.861771
O273	O	1.650836	0.503568	1.195104
C274	C	0.949927	-0.187483	0.740360
C275	C	1.283261	0.145850	1.073693
C276	C	1.616594	0.479183	1.407027
C277	C	0.909643	-0.216218	0.763806
C278	C	1.242976	0.117115	1.097139
C279	C	1.576309	0.450449	1.430473
C280	C	0.829070	-0.273694	0.763782
C281	C	1.162404	0.059640	1.097116
C282	C	1.495737	0.392973	1.430449
C283	C	0.829079	-0.273682	0.810698
C284	C	1.162412	0.059651	1.144031
C285	C	1.495745	0.392985	1.477364
C286	C	0.869369	-0.244939	0.834167
C287	C	1.202703	0.088395	1.167501
C288	C	1.536036	0.421728	1.500834
C289	C	0.909651	-0.216207	0.810721
C290	C	1.242984	0.117127	1.144055
C291	C	1.576318	0.450460	1.477388
C292	C	0.990216	-0.158735	0.763832
C293	C	1.323549	0.174599	1.097165
C294	C	1.656883	0.507932	1.430499
C295	C	0.990216	-0.158723	0.810753
C296	C	1.323549	0.174610	1.144086
C297	C	1.656883	0.507944	1.477420
C298	C	0.949931	-0.187458	0.834199
C299	C	1.283265	0.145876	1.167532
C300	C	1.616598	0.479209	1.500866
C301	C	0.949950	-0.187452	0.881106
C302	C	1.283283	0.145882	1.214440
C303	C	1.616617	0.479215	1.547773
N304	N	0.909663	-0.216181	0.904555
N305	N	1.242997	0.117152	1.237888
N306	N	1.576330	0.450486	1.571221
C307	C	0.869373	-0.244925	0.881085
C308	C	1.202706	0.088409	1.214418
C309	C	1.536040	0.421742	1.547752
C310	C	0.949896	-0.187568	0.454157
C311	C	1.283230	0.145765	0.787490
C312	C	1.616563	0.479099	1.120824
C313	C	0.949893	-0.187582	0.407239
C314	C	1.283226	0.145752	0.740573
C315	C	1.616559	0.479085	1.073906
C316	C	0.869313	-0.245058	0.407218
C317	C	1.202646	0.088276	0.740551
C318	C	1.535980	0.421609	1.073885
C319	C	0.869320	-0.245046	0.454137
C320	C	1.202654	0.088288	0.787470
C321	C	1.535987	0.421621	1.120803
C322	C	0.909610	-0.216298	0.477605
C323	C	1.242943	0.117036	0.810939
C324	C	1.576277	0.450369	1.144272
C325	C	0.869394	-0.244899	0.979611
C326	C	1.202728	0.088435	1.312944
C327	C	1.536061	0.421768	1.646278
C328	C	0.869408	-0.244886	1.026531
C329	C	1.202741	0.088447	1.359864
C330	C	1.536075	0.421781	1.693197
C331	C	0.949985	-0.187409	1.026548
C332	C	1.283319	0.145925	1.359881
C333	C	1.616652	0.479258	1.693215
C334	C	0.949974	-0.187423	0.979632
C335	C	1.283307	0.145911	1.312966
C336	C	1.616641	0.479244	1.646299
C337	C	0.909673	-0.216169	0.956165
C338	C	1.243007	0.117164	1.289498
C339	C	1.576340	0.450497	1.622832
O340	O	0.984211	-0.163029	0.905417
O341	O	1.317544	0.170305	1.238751
O342	O	1.650878	0.503638	1.572084
O343	O	0.835107	-0.269352	0.905344
O344	O	1.168441	0.063981	1.238677
O345	O	1.501774	0.397314	1.572010
C346	C	0.869344	-0.244973	0.693421
C347	C	1.202677	0.088360	1.026754
C348	C	1.536010	0.421694	1.360088
C349	C	0.909626	-0.216241	0.669975
C350	C	1.242959	0.117092	1.003308
C351	C	1.576292	0.450426	1.336642
C352	C	0.949916	-0.187498	0.693445
C353	C	1.283249	0.145836	1.026778
C354	C	1.616583	0.479169	1.360111
C355	C	0.909622	-0.216255	0.623057
C356	C	1.242955	0.117078	0.956390
C357	C	1.576289	0.450412	1.289724
C358	C	0.869331	-0.244999	0.599588
C359	C	1.202665	0.088335	0.932921
C360	C	1.535998	0.421668	1.266254
C361	C	0.829045	-0.273728	0.623036
C362	C	1.162378	0.059605	0.956369
C363	C	1.495712	0.392938	1.289702
C364	C	0.829053	-0.273717	0.669951
C365	C	1.162387	0.059617	1.003285
C366	C	1.495720	0.392950	1.336618
C367	C	0.990203	-0.158768	0.669996
C368	C	1.323536	0.174565	1.003330
C369	C	1.656869	0.507899	1.336663
C370	C	0.990191	-0.158782	0.623081
C371	C	1.323525	0.174551	0.956414
C372	C	1.656858	0.507885	1.289747
C373	C	0.949901	-0.187526	0.599611
C374	C	1.283234	0.145808	0.932944
C375	C	1.616568	0.479141	1.266278
H376	H	0.149821	-0.268491	0.268761
H377	H	0.483154	0.064842	0.602095
H378	H	0.816487	0.398176	0.935428
H379	H	0.796241	-0.297134	0.603919
H380	H	1.129575	0.036200	0.937252
H381	H	1.462908	0.369533	1.270585
H382	H	0.550693	-0.164127	0.164598
H383	H	0.884026	0.169206	0.497932
H384	H	1.217359	0.502539	0.831265
H385	H	0.836603	-0.268287	1.045618
H386	H	1.169936	0.065046	1.378952
H387	H	1.503270	0.398380	1.712285
H388	H	0.669963	-0.164138	0.164568
H389	H	1.003297	0.169196	0.497901
H390	H	1.336630	0.502529	0.831235
H391	H	0.550658	-0.268551	0.268655
H392	H	0.883992	0.064782	0.601989
H393	H	1.217325	0.398115	0.935322
H394	H	0.269085	-0.268514	0.268727
H395	H	0.602418	0.064820	0.602060
H396	H	0.935751	0.398153	0.935393
H397	H	0.796273	-0.297080	0.829783
H398	H	1.129606	0.036254	1.163117
H399	H	1.462940	0.369587	1.496450
H400	H	0.982708	-0.164157	0.473261
H401	H	1.316041	0.169176	0.806594
H402	H	1.649374	0.502510	1.139928
H403	H	0.149855	-0.164069	0.164700
H404	H	0.483188	0.169265	0.498034
H405	H	0.816522	0.502598	0.831367
H406	H	0.796249	-0.297115	0.689037
H407	H	1.129583	0.036218	1.022370
H408	H	1.462916	0.369551	1.355703
H409	H	0.982847	-1.044795	0.164643
H410	H	1.316180	-0.711462	0.497976
H411	H	1.649514	-0.378128	0.831310
H412	H	0.269123	-0.164087	0.164666
H413	H	0.602456	0.169246	0.498000
H414	H	0.935789	0.502579	0.831333
H415	H	0.982557	-0.387278	0.164575
H416	H	1.315890	-0.053944	0.497909
H417	H	1.649224	0.279389	0.831242
H418	H	0.982609	-0.472387	0.164588
H419	H	1.315943	-0.139054	0.497921
H420	H	1.649276	0.194280	0.831254
H421	H	1.022947	-0.603071	0.135906
H422	H	1.356280	-0.269738	0.469239
H423	H	1.689614	0.063596	0.802572
H424	H	0.796269	-0.743984	0.297434
H425	H	1.129602	-0.410650	0.630767
H426	H	1.462935	-0.077317	0.964100
H427	H	1.022988	-0.688177	0.135916
H428	H	1.356321	-0.354844	0.469249
H429	H	1.689655	-0.021511	0.802583
H430	H	0.982812	-0.959673	0.164630
H431	H	1.316145	-0.626339	0.497963
H432	H	1.649478	-0.293006	0.831296
H433	H	0.836663	-1.044891	0.268761
H434	H	1.169996	-0.711557	0.602094
H435	H	1.503329	-0.378224	0.935428
H436	H	1.023002	-0.135383	0.603995
H437	H	1.356335	0.197950	0.937328
H438	H	1.689669	0.531283	1.270662
H439	H	0.836634	-0.959782	0.268760
H440	H	1.169967	-0.626449	0.602093
H441	H	1.503300	-0.293115	0.935427
H442	H	0.836572	-0.268303	0.960510
H443	H	1.169905	0.065031	1.293843
H444	H	1.503239	0.398364	1.627176
H445	H	0.796241	-0.688335	0.297436
H446	H	1.129574	-0.355001	0.630769
H447	H	1.462907	-0.021668	0.964103
H448	H	0.796215	-0.603226	0.297431
H449	H	1.129548	-0.269893	0.630764
H450	H	1.462881	0.063441	0.964098
H451	H	0.836422	-0.472503	0.268714
H452	H	1.169755	-0.139169	0.602047
H453	H	1.503089	0.194164	0.935381
H454	H	0.836516	-0.268444	0.473223
H455	H	1.169850	0.064890	0.806557
H456	H	1.503183	0.398223	1.139890
H457	H	0.836381	-0.387380	0.268699
H458	H	1.169714	-0.054047	0.602032
H459	H	1.503048	0.279286	0.935365
H460	H	1.023012	-0.743818	0.135922
H461	H	1.356346	-0.410485	0.469255
H462	H	1.689679	-0.077151	0.802588
H463	H	1.023046	-0.828937	0.135935
H464	H	1.356380	-0.495603	0.469268
H465	H	1.689713	-0.162270	0.802601
H466	H	0.982703	-0.164188	0.388154
H467	H	1.316037	0.169145	0.721487
H468	H	1.649370	0.502479	1.054820
H469	H	0.796303	-0.829090	0.297443
H470	H	1.129637	-0.495757	0.630776
H471	H	1.462970	-0.162423	0.964109
H472	H	0.796257	-0.297100	0.744678
H473	H	1.129591	0.036233	1.078012
H474	H	1.462924	0.369567	1.411345
H475	H	0.982791	-0.164008	1.045665
H476	H	1.316124	0.169326	1.378999
H477	H	1.649457	0.502659	1.712332
H478	H	0.836508	-0.268462	0.388101
H479	H	1.169841	0.064871	0.721434
H480	H	1.503174	0.398204	1.054768
H481	H	1.023021	-0.135336	0.744750
H482	H	1.356354	0.197997	1.078084
H483	H	1.689687	0.531331	1.411417
H484	H	1.023023	-0.135310	0.829859
H485	H	1.356356	0.198023	1.163192
H486	H	1.689689	0.531356	1.496526
H487	H	0.982782	-0.164028	0.960542
H488	H	1.316115	0.169306	1.293875
H489	H	1.649448	0.502639	1.627208
H490	H	1.023012	-0.135361	0.689100
H491	H	1.356346	0.197973	1.022434
H492	H	1.689679	0.531306	1.355767
H493	H	0.669922	-0.268572	0.268621
H494	H	1.003255	0.064761	0.601955
H495	H	1.336589	0.398094	0.935288
