data_functionalizedCrystal
_audit_creation_method	'MofGen! by Chris Wilmer'
_symmetry_space_group_name_H-M	'P1'
_symmetry_Int_Tables_number	1
_symmetry_cell_setting	triclinic
loop_
_symmetry_equiv_pos_as_xyz
  x,y,z
_cell_length_a	10.723023
_cell_length_b	12.811415
_cell_length_c	9.798715
_cell_angle_alpha	84.565994
_cell_angle_beta	89.996770
_cell_angle_gamma	84.254534
loop_
_atom_site_label
_atom_site_type_symbol
_atom_site_fract_x
_atom_site_fract_y
_atom_site_fract_z
O1	O	1.656454	0.147212	-0.131694
O2	O	1.293232	0.161304	-0.133443
O3	O	1.483981	0.001531	-0.113660
O4	O	1.465706	0.306985	-0.151477
O5	O	1.483966	0.001531	0.113322
O6	O	1.293218	0.161304	0.093539
O7	O	1.656440	0.147211	0.095288
Zn8	Zn	1.474827	0.154257	0.130452
Zn9	Zn	1.474845	0.154258	-0.168607
O10	O	1.465691	0.306984	0.075506
C11	C	1.246730	0.160279	-0.019826
C12	C	1.108191	0.157211	-0.019448
C13	C	1.046418	0.155843	0.098303
C14	C	0.903231	0.152672	0.098696
C15	C	1.482949	-0.037580	0.004670
C16	C	1.479882	-0.154120	0.019089
C17	C	1.474112	-0.373100	-0.201300
C18	C	1.471230	-0.482600	-0.187758
C19	C	1.471228	-0.482621	0.059713
C20	C	1.474110	-0.373121	0.046171
C21	C	1.475553	-0.318365	-0.084339
C22	C	1.478444	-0.208864	-0.097880
C23	C	1.478433	-0.208886	0.149590
C24	C	1.475551	-0.318386	0.163132
C25	C	1.702942	0.148237	-0.018332
C26	C	1.841481	0.151305	-0.018718
C27	C	1.466723	0.346096	-0.042828
C28	C	1.469790	0.462636	-0.057256
N29	N	1.474823	0.154257	0.334552
N30	N	1.474859	0.154251	-0.372706
C31	C	1.554915	0.086877	0.410672
C32	C	1.554935	0.086873	0.567835
H33	H	1.055072	0.156032	-0.119969
O34	O	1.384016	0.230686	0.402318
H35	H	1.323036	0.186156	0.472958
O36	O	1.116773	0.157405	0.231460
H37	H	1.049743	0.155916	0.317777
O38	O	1.645691	0.010442	0.342875
H39	H	1.706675	0.054966	0.272234
H40	H	1.479612	-0.164309	0.244828
O41	O	1.475667	-0.314038	-0.342059
H42	H	1.561934	-0.272897	-0.353071
O43	O	1.479996	-0.149805	-0.238642
H44	H	1.482253	-0.064468	-0.228414
H45	H	0.850107	0.151502	0.199508
H46	H	1.470051	-0.527160	-0.283000
H47	H	1.470042	-0.527221	0.165968
O48	O	1.645778	0.010456	0.654481
H49	H	1.592760	-0.040787	0.725931
H50	H	0.894595	0.152487	-0.119537
O51	O	1.384022	0.230661	0.540632
H52	H	1.400598	0.312571	0.557817
H53	H	1.474371	-0.362983	0.269390
