data_functionalizedCrystal
_audit_creation_method	'MofGen! by Chris Wilmer'
_symmetry_space_group_name_H-M	'P1'
_symmetry_Int_Tables_number	1
_symmetry_cell_setting	triclinic
loop_
_symmetry_equiv_pos_as_xyz
  x,y,z
_cell_length_a	18.215407
_cell_length_b	12.645330
_cell_length_c	18.215399
_cell_angle_alpha	90.022131
_cell_angle_beta	89.982632
_cell_angle_gamma	89.976370
loop_
_atom_site_label
_atom_site_type_symbol
_atom_site_fract_x
_atom_site_fract_y
_atom_site_fract_z
Zn1	Zn	1.125065	0.422123	-0.416097
Zn2	Zn	1.375065	0.672123	-0.166097
Zn3	Zn	1.625065	0.922123	0.083903
Zn4	Zn	1.875065	1.172123	0.333903
Zn5	Zn	1.124971	0.599405	-0.293043
Zn6	Zn	1.374971	0.849405	-0.043043
Zn7	Zn	1.624971	1.099405	0.206957
Zn8	Zn	1.874971	1.349405	0.456957
Zn9	Zn	1.001998	0.422148	-0.293050
Zn10	Zn	1.251998	0.672148	-0.043050
Zn11	Zn	1.501998	0.922148	0.206950
Zn12	Zn	1.751998	1.172148	0.456950
Zn13	Zn	1.001961	0.599337	-0.416074
Zn14	Zn	1.251961	0.849337	-0.166074
Zn15	Zn	1.501961	1.099337	0.083926
Zn16	Zn	1.751961	1.349337	0.333926
O17	O	1.063499	0.510753	-0.354566
O18	O	1.313499	0.760753	-0.104566
O19	O	1.563499	1.010753	0.145434
O20	O	1.813499	1.260753	0.395434
O21	O	1.228037	0.445657	-0.399781
O22	O	1.478037	0.695657	-0.149781
O23	O	1.728037	0.945657	0.100219
O24	O	1.978037	1.195657	0.350219
O25	O	1.108634	0.575931	-0.190060
O26	O	1.358634	0.825931	0.059940
O27	O	1.608634	1.075931	0.309940
O28	O	1.858634	1.325931	0.559940
O29	O	1.018378	0.273797	-0.309385
O30	O	1.268378	0.523797	-0.059385
O31	O	1.518378	0.773797	0.190615
O32	O	1.768378	1.023797	0.440615
O33	O	1.227968	0.575906	-0.309374
O34	O	1.477968	0.825906	-0.059374
O35	O	1.727968	1.075906	0.190626
O36	O	1.977968	1.325906	0.440626
O37	O	1.108795	0.273779	-0.399787
O38	O	1.358795	0.523779	-0.149787
O39	O	1.608795	0.773779	0.100213
O40	O	1.858795	1.023779	0.350213
O41	O	1.018286	0.445701	-0.190065
O42	O	1.268286	0.695701	0.059935
O43	O	1.518286	0.945701	0.309935
O44	O	1.768286	1.195701	0.559935
O45	O	0.899009	0.445634	-0.309362
O46	O	1.149009	0.695634	-0.059362
O47	O	1.399009	0.945634	0.190638
O48	O	1.649009	1.195634	0.440638
O49	O	1.018315	0.575790	-0.519061
O50	O	1.268315	0.825790	-0.269061
O51	O	1.518315	1.075790	-0.019061
O52	O	1.768315	1.325790	0.230939
O53	O	0.898982	0.575814	-0.399747
O54	O	1.148982	0.825814	-0.149747
O55	O	1.398982	1.075814	0.100253
O56	O	1.648982	1.325814	0.350253
O57	O	1.108759	0.445591	-0.519078
O58	O	1.358759	0.695591	-0.269078
O59	O	1.608759	0.945591	-0.019078
O60	O	1.858759	1.195591	0.230922
O61	O	1.108598	0.747743	-0.309351
O62	O	1.358598	0.997743	-0.059351
O63	O	1.608598	1.247743	0.190649
O64	O	1.858598	1.497743	0.440649
O65	O	1.018224	0.747693	-0.399741
O66	O	1.268224	0.997693	-0.149741
O67	O	1.518224	1.247693	0.100259
O68	O	1.768224	1.497693	0.350259
C69	C	0.872292	0.510720	-0.354553
C70	C	1.122292	0.760720	-0.104553
C71	C	1.372292	1.010720	0.145447
C72	C	1.622292	1.260720	0.395447
C73	C	0.790494	0.510732	-0.354565
C74	C	1.040494	0.760732	-0.104565
C75	C	1.290494	1.010732	0.145435
C76	C	1.540494	1.260732	0.395435
C77	C	0.602335	0.443051	-0.401714
C78	C	0.852335	0.693051	-0.151714
C79	C	1.102335	0.943051	0.098286
C80	C	1.352335	1.193051	0.348286
C81	C	0.525476	0.443060	-0.401717
C82	C	0.775476	0.693060	-0.151717
C83	C	1.025476	0.943060	0.098283
C84	C	1.275476	1.193060	0.348283
C85	C	0.525415	0.578485	-0.307431
C86	C	0.775415	0.828485	-0.057431
C87	C	1.025415	1.078485	0.192569
C88	C	1.275415	1.328485	0.442569
C89	C	0.602272	0.578469	-0.307425
C90	C	0.852272	0.828469	-0.057425
C91	C	1.102272	1.078469	0.192575
C92	C	1.352272	1.328469	0.442575
C93	C	0.640730	0.510754	-0.354571
C94	C	0.890730	0.760754	-0.104571
C95	C	1.140730	1.010754	0.145429
C96	C	1.390730	1.260754	0.395429
C97	C	0.487014	0.510779	-0.354579
C98	C	0.737014	0.760779	-0.104579
C99	C	0.987014	1.010779	0.145421
C100	C	1.237014	1.260779	0.395421
C101	C	0.403680	0.510789	-0.354581
C102	C	0.653680	0.760789	-0.104581
C103	C	0.903680	1.010789	0.145419
C104	C	1.153680	1.260789	0.395419
C105	C	0.724069	0.510742	-0.354568
C106	C	0.974069	0.760742	-0.104568
C107	C	1.224069	1.010742	0.145432
C108	C	1.474069	1.260742	0.395432
C109	C	1.063417	0.786183	-0.354559
C110	C	1.313417	1.036183	-0.104559
C111	C	1.563417	1.286183	0.145441
C112	C	1.813417	1.536183	0.395441
C113	C	1.063449	0.904013	-0.354580
C114	C	1.313449	1.154013	-0.104580
C115	C	1.563449	1.404013	0.145420
C116	C	1.813449	1.654013	0.395420
C117	C	1.006811	1.071589	-0.411622
C118	C	1.256811	1.321589	-0.161622
C119	C	1.506811	1.571589	0.088378
C120	C	1.756811	1.821589	0.338378
C121	C	1.006534	0.949030	-0.411437
C122	C	1.256534	1.199030	-0.161437
C123	C	1.506534	1.449030	0.088563
C124	C	1.756534	1.699030	0.338563
C125	C	1.042451	0.948602	-0.277023
C126	C	1.292451	1.198602	-0.027023
C127	C	1.542451	1.448602	0.222977
C128	C	1.792451	1.698602	0.472977
C129	C	1.042093	1.071200	-0.277371
C130	C	1.292093	1.321200	-0.027371
C131	C	1.542093	1.571200	0.222629
C132	C	1.792093	1.821200	0.472629
C133	C	1.141391	1.071108	-0.374471
C134	C	1.391391	1.321108	-0.124471
C135	C	1.641391	1.571108	0.125529
C136	C	1.891391	1.821108	0.375529
C137	C	1.140926	0.948501	-0.376166
C138	C	1.390926	1.198501	-0.126166
C139	C	1.640926	1.448501	0.123834
C140	C	1.890926	1.698501	0.373834
C141	C	1.255452	0.510786	-0.354579
C142	C	1.505452	0.760786	-0.104579
C143	C	1.755452	1.010786	0.145421
C144	C	2.005452	1.260786	0.395421
C145	C	1.337250	0.510801	-0.354585
C146	C	1.587250	0.760801	-0.104585
C147	C	1.837250	1.010801	0.145415
C148	C	2.087250	1.260801	0.395415
C149	C	1.063575	1.234248	-0.354592
C150	C	1.313575	1.484248	-0.104592
C151	C	1.563575	1.734248	0.145408
C152	C	1.813575	1.984248	0.395408
C153	C	1.063542	1.116418	-0.354610
C154	C	1.313542	1.366418	-0.104610
C155	C	1.563542	1.616418	0.145390
C156	C	1.813542	1.866418	0.395390
C157	C	1.063544	0.510680	-0.546519
C158	C	1.313544	0.760680	-0.296519
C159	C	1.563544	1.010680	-0.046519
C160	C	1.813544	1.260680	0.203481
C161	C	1.063563	0.510649	-0.628318
C162	C	1.313563	0.760649	-0.378318
C163	C	1.563563	1.010649	-0.128318
C164	C	1.813563	1.260649	0.121682
C165	C	1.110674	0.442791	-0.816522
C166	C	1.360674	0.692791	-0.566522
C167	C	1.610674	0.942791	-0.316522
C168	C	1.860674	1.192791	-0.066522
C169	C	1.110683	0.442760	-0.893381
C170	C	1.360683	0.692760	-0.643381
C171	C	1.610683	0.942760	-0.393381
C172	C	1.860683	1.192760	-0.143381
C173	C	1.016503	0.578342	-0.893352
C174	C	1.266503	0.828342	-0.643352
C175	C	1.516503	1.078342	-0.393352
C176	C	1.766503	1.328342	-0.143352
C177	C	1.016492	0.578367	-0.816494
C178	C	1.266492	0.828367	-0.566494
C179	C	1.516492	1.078367	-0.316494
C180	C	1.766492	1.328367	-0.066494
C181	C	1.063581	0.510593	-0.778082
C182	C	1.313581	0.760593	-0.528082
C183	C	1.563581	1.010593	-0.278082
C184	C	1.813581	1.260593	-0.028082
C185	C	1.063602	0.510537	-0.931798
C186	C	1.313602	0.760537	-0.681798
C187	C	1.563602	1.010537	-0.431798
C188	C	1.813602	1.260537	-0.181798
C189	C	1.063611	0.510504	-1.015131
C190	C	1.313611	0.760504	-0.765131
C191	C	1.563611	1.010504	-0.515131
C192	C	1.813611	1.260504	-0.265131
C193	C	1.063571	0.510624	-0.694743
C194	C	1.313571	0.760624	-0.444743
C195	C	1.563571	1.010624	-0.194743
C196	C	1.813571	1.260624	0.055257
C197	C	1.063496	0.510749	-0.163360
C198	C	1.313496	0.760749	0.086640
C199	C	1.563496	1.010749	0.336640
C200	C	1.813496	1.260749	0.586640
C201	C	1.063620	0.510482	-0.081561
C202	C	1.313620	0.760482	0.168439
C203	C	1.563620	1.010482	0.418439
C204	C	1.813620	1.260482	0.668439
H205	H	0.494218	0.387928	-0.440105
H206	H	0.744218	0.637928	-0.190105
H207	H	0.994218	0.887928	0.059895
H208	H	1.244218	1.137928	0.309895
H209	H	0.978138	0.633579	-0.785195
H210	H	1.228138	0.883579	-0.535195
H211	H	1.478138	1.133579	-0.285195
H212	H	1.728138	1.383579	-0.035195
H213	H	1.149029	0.387547	-0.924676
H214	H	1.399029	0.637547	-0.674676
H215	H	1.649029	0.887547	-0.424676
H216	H	1.899029	1.137547	-0.174676
F217	F	1.160789	0.370657	-0.775643
F218	F	1.410789	0.620657	-0.525643
F219	F	1.660789	0.870657	-0.275643
F220	F	1.910789	1.120657	-0.025643
H221	H	0.494093	0.633617	-0.269047
H222	H	0.744093	0.883617	-0.019047
H223	H	0.994093	1.133617	0.230953
H224	H	1.244093	1.383617	0.480953
H225	H	1.160539	1.101956	-0.430065
H226	H	1.410539	1.351956	-0.180065
H227	H	1.660539	1.601956	0.069935
H228	H	1.910539	1.851956	0.319935
H229	H	0.986143	0.917986	-0.259893
H230	H	1.236143	1.167986	-0.009893
H231	H	1.486143	1.417986	0.240107
H232	H	1.736143	1.667986	0.490107
H233	H	0.978167	0.633524	-0.924637
H234	H	1.228167	0.883524	-0.674637
H235	H	1.478167	1.133524	-0.424637
H236	H	1.728167	1.383524	-0.174637
F237	F	0.643138	0.650523	-0.257240
F238	F	0.893138	0.900523	-0.007240
F239	F	1.143138	1.150523	0.242760
F240	F	1.393138	1.400523	0.492760
F241	F	1.023704	0.909618	-0.486605
F242	F	1.273704	1.159618	-0.236605
F243	F	1.523704	1.409618	0.013395
F244	F	1.773704	1.659618	0.263395
H245	H	0.985185	1.099887	-0.260545
H246	H	1.235185	1.349887	-0.010545
H247	H	1.485185	1.599887	0.239455
H248	H	1.735185	1.849887	0.489455
F249	F	1.023813	1.110039	-0.487038
F250	F	1.273813	1.360039	-0.237038
F251	F	1.523813	1.610039	0.012962
F252	F	1.773813	1.860039	0.262962
H253	H	0.949458	1.102486	-0.398632
H254	H	1.199458	1.352486	-0.148632
H255	H	1.449458	1.602486	0.101368
H256	H	1.699458	1.852486	0.351368
F257	F	1.094754	0.910493	-0.219981
F258	F	1.344754	1.160493	0.030019
F259	F	1.594754	1.410493	0.280019
F260	F	1.844754	1.660493	0.530019
F261	F	0.931105	0.910807	-0.394241
F262	F	1.181105	1.160807	-0.144241
F263	F	1.431105	1.410807	0.105759
F264	F	1.681105	1.660807	0.355759
H265	H	1.081621	1.100858	-0.233444
H266	H	1.331621	1.350858	0.016556
H267	H	1.581621	1.600858	0.266556
H268	H	1.831621	1.850858	0.516556
F269	F	1.161625	0.910406	-0.450771
F270	F	1.411625	1.160406	-0.200771
F271	F	1.661625	1.410406	0.049229
F272	F	1.911625	1.660406	0.299229
F273	F	0.643262	0.370980	-0.451889
F274	F	0.893262	0.620980	-0.201889
F275	F	1.143262	0.870980	0.048111
F276	F	1.393262	1.120980	0.298111
F277	F	1.199094	0.908434	-0.325847
F278	F	1.449094	1.158434	-0.075847
F279	F	1.699094	1.408434	0.174153
F280	F	1.949094	1.658434	0.424153
H281	H	1.183657	1.100097	-0.332947
H282	H	1.433657	1.350097	-0.082947
H283	H	1.683657	1.600097	0.167053
H284	H	1.933657	1.850097	0.417053
