data_functionalizedCrystal
_audit_creation_method	'MofGen! by Chris Wilmer'
_symmetry_space_group_name_H-M	'P1'
_symmetry_Int_Tables_number	1
_symmetry_cell_setting	triclinic
loop_
_symmetry_equiv_pos_as_xyz
  x,y,z
_cell_length_a	16.992694
_cell_length_b	10.967829
_cell_length_c	16.053802
_cell_angle_alpha	80.477515
_cell_angle_beta	87.249047
_cell_angle_gamma	87.623462
loop_
_atom_site_label
_atom_site_type_symbol
_atom_site_fract_x
_atom_site_fract_y
_atom_site_fract_z
O1	O	1.046843	0.257191	-0.106324
O2	O	0.818523	0.254315	-0.105935
O3	O	0.936728	0.076458	-0.080330
O4	O	0.928638	0.435048	-0.131930
O5	O	0.930221	0.086205	0.057126
O6	O	0.812017	0.264061	0.031521
O7	O	1.040336	0.266938	0.031131
Zn8	Zn	0.925143	0.267047	0.053150
Zn9	Zn	0.933716	0.254206	-0.127954
O10	O	0.922131	0.444795	0.005526
C11	C	0.786012	0.255489	-0.036678
C12	C	0.698834	0.244453	-0.035100
C13	C	0.932395	0.035236	-0.004971
C14	C	0.929166	-0.102116	0.014787
C15	C	0.649897	0.350928	-0.050421
C16	C	0.567982	0.340553	-0.048916
C17	C	0.535007	0.223701	-0.032097
C18	C	0.583950	0.117219	-0.016772
C19	C	0.665862	0.127596	-0.018271
C20	C	0.290882	0.180693	-0.025886
C21	C	0.208963	0.170324	-0.024391
C22	C	0.193001	0.393660	-0.056533
C23	C	0.274916	0.404026	-0.058035
C24	C	0.323852	0.297544	-0.042706
N25	N	0.451278	0.213093	-0.030561
N26	N	0.407579	0.308153	-0.044236
C27	C	0.931098	-0.168395	-0.047611
C28	C	0.927761	-0.310355	-0.027191
C29	C	1.072847	0.265763	-0.038127
C30	C	1.160026	0.276799	-0.039711
C31	C	0.926465	0.486017	-0.069835
C32	C	0.929693	0.623368	-0.089598
N33	N	0.919298	0.275811	0.176749
N34	N	0.939567	0.245432	-0.251551
C35	C	0.969613	0.200164	0.231333
C36	C	0.965532	0.206306	0.317856
C37	C	0.911139	0.288104	0.349791
C38	C	0.860818	0.363755	0.295200
C39	C	0.864896	0.357605	0.208680
C40	C	0.893325	0.314933	0.607338
C41	C	0.889252	0.321080	0.693864
C42	C	0.993966	0.163629	0.716515
C43	C	0.998042	0.157492	0.629991
C44	C	0.947719	0.233138	0.575408
N45	N	0.906967	0.294388	0.438230
N46	N	0.951887	0.226847	0.486972
H47	H	0.676739	0.446081	-0.064117
H48	H	0.153149	0.480351	-0.069011
H49	H	0.528141	0.427256	-0.061393
O50	O	0.924213	-0.159590	0.096602
C51	C	0.923087	-0.070403	0.150655
H52	H	0.901511	0.022750	0.115143
H53	H	0.881735	-0.099994	0.207816
H54	H	0.985100	-0.061848	0.172717
H55	H	0.852351	0.376530	0.562903
O56	O	0.808015	0.443376	0.326101
C57	C	0.823274	0.565492	0.287173
H58	H	0.856495	0.563887	0.223940
H59	H	0.765148	0.620264	0.276301
H60	H	0.860518	0.611069	0.329800
H61	H	0.923632	-0.358703	0.041352
O62	O	0.306815	0.517634	-0.074346
C63	C	0.246056	0.609388	-0.087566
H64	H	0.188778	0.571104	-0.055764
H65	H	0.262258	0.693314	-0.059330
H66	H	0.238002	0.637943	-0.158292
H67	H	0.823923	0.419203	0.164237
H68	H	0.933808	-0.328284	-0.158142
O69	O	1.022474	0.120597	0.200460
C70	C	1.066020	0.055168	0.267193
H71	H	1.030910	0.054953	0.329532
H72	H	1.077969	-0.044118	0.256233
H73	H	1.124393	0.101757	0.269774
O74	O	0.177057	0.056715	-0.008002
C75	C	0.237814	-0.035047	0.005185
H76	H	0.292635	0.006924	0.025436
H77	H	0.217839	-0.113310	0.056760
H78	H	0.252096	-0.072956	-0.055977
H79	H	1.042334	0.090886	0.603992
H80	H	0.557094	0.022076	-0.003066
O81	O	1.014303	0.132695	0.370930
C82	C	0.968981	0.055826	0.432575
H83	H	0.908274	0.045714	0.407703
H84	H	0.999771	-0.039146	0.447228
H85	H	0.962251	0.098747	0.492642
H86	H	1.034936	0.102041	0.760964
O87	O	0.338494	0.077338	-0.011129
C88	C	0.389698	0.071588	-0.082231
H89	H	0.396167	0.168412	-0.120137
H90	H	0.449920	0.032744	-0.060473
H91	H	0.364416	0.008959	-0.123577
H92	H	0.844956	0.387695	0.719860
O93	O	0.713377	0.024120	-0.003534
C94	C	0.701565	-0.051413	-0.064569
H95	H	0.676723	0.007541	-0.123317
H96	H	0.760183	-0.096933	-0.082161
H97	H	0.658238	-0.125923	-0.037585
O98	O	0.935926	-0.110562	-0.129345
C99	C	0.870110	-0.028936	-0.145577
H100	H	0.844873	-0.002697	-0.083621
H101	H	0.888997	0.058000	-0.190026
H102	H	0.823242	-0.076103	-0.176211
