data_functionalizedCrystal
_audit_creation_method	'MofGen! by Chris Wilmer'
_symmetry_space_group_name_H-M	'P1'
_symmetry_Int_Tables_number	1
_symmetry_cell_setting	triclinic
loop_
_symmetry_equiv_pos_as_xyz
  x,y,z
_cell_length_a	10.540510
_cell_length_b	10.654550
_cell_length_c	9.730223
_cell_angle_alpha	89.995747
_cell_angle_beta	89.996468
_cell_angle_gamma	84.499121
loop_
_atom_site_label
_atom_site_type_symbol
_atom_site_fract_x
_atom_site_fract_y
_atom_site_fract_z
O1	O	1.685843	0.176814	-0.114298
O2	O	2.185843	0.676814	0.385702
O3	O	1.316420	0.193529	-0.114299
O4	O	1.816420	0.693529	0.385701
O5	O	1.509625	0.002434	-0.114290
O6	O	2.009625	0.502434	0.385710
O7	O	1.492638	0.367908	-0.114307
O8	O	1.992638	0.867908	0.385693
O9	O	1.509613	0.002429	0.114290
O10	O	2.009613	0.502429	0.614290
O11	O	1.316407	0.193523	0.114281
O12	O	1.816407	0.693523	0.614281
O13	O	1.685831	0.176808	0.114282
O14	O	2.185831	0.676808	0.614282
Zn15	Zn	1.501117	0.185165	0.150573
Zn16	Zn	2.001117	0.685165	0.650573
Zn17	Zn	1.501134	0.185172	-0.150591
Zn18	Zn	2.001134	0.685172	0.349409
O19	O	1.492625	0.367903	0.114273
O20	O	1.992625	0.867903	0.614273
C21	C	1.508372	-0.044367	-0.000001
C22	C	2.008372	0.455633	0.499999
C23	C	1.504640	-0.183811	-0.000003
C24	C	2.004640	0.316189	0.499997
C25	C	1.269110	0.192280	-0.000009
C26	C	1.769110	0.692280	0.499991
C27	C	1.128162	0.188554	-0.000009
C28	C	1.628162	0.688554	0.499991
C29	C	1.618396	-0.263269	-0.000003
C30	C	2.118396	0.236731	0.499997
C31	C	1.614882	-0.394290	-0.000020
C32	C	2.114882	0.105710	0.499980
C33	C	1.383846	-0.366384	-0.000030
C34	C	1.883846	0.133616	0.499970
C35	C	1.387361	-0.235365	-0.000023
C36	C	1.887361	0.264635	0.499977
C37	C	0.910658	0.321307	-0.000541
C38	C	1.410658	0.821307	0.499459
C39	C	1.057253	0.325282	-0.000017
C40	C	1.557253	0.825282	0.499983
C41	C	1.083420	0.118559	0.130521
C42	C	1.583420	0.618559	0.630521
C43	C	0.936660	0.115553	0.130622
C44	C	1.436660	0.615553	0.630622
C45	C	0.936869	0.112711	-0.129316
C46	C	1.436869	0.612711	0.370684
C47	C	1.083208	0.119196	-0.131033
C48	C	1.583208	0.619196	0.368967
C49	C	1.733140	0.178057	-0.000011
C50	C	2.233140	0.678057	0.499989
C51	C	1.874089	0.181783	-0.000020
C52	C	2.374089	0.681783	0.499980
C53	C	1.493879	0.414704	-0.000020
C54	C	1.993879	0.914704	0.499980
C55	C	1.497611	0.554148	-0.000026
C56	C	1.997611	1.054148	0.499974
N57	N	1.501115	0.185160	0.356110
N58	N	2.001115	0.685160	0.856110
N59	N	1.501146	0.185168	-0.356127
N60	N	2.001146	0.685168	0.143873
C61	C	1.586696	0.100579	0.428040
C62	C	2.086696	0.600579	0.928040
C63	C	1.586709	0.100579	0.571923
C64	C	2.086709	0.600579	1.071923
C65	C	1.415555	0.269752	0.571933
C66	C	1.915555	0.769752	1.071933
C67	C	1.415538	0.269745	0.428053
C68	C	1.915538	0.769745	0.928053
H69	H	1.713892	-0.221298	0.000011
H70	H	2.213892	0.278702	0.500011
H71	H	1.288361	-0.408376	-0.000044
H72	H	1.788361	0.091624	0.499956
Cl73	Cl	1.307936	0.376077	0.337618
Cl74	Cl	1.807936	0.876077	0.837618
H75	H	1.294721	-0.170667	-0.000027
H76	H	1.794721	0.329333	0.499973
H77	H	0.914752	0.010056	-0.130193
H78	H	1.414752	0.510056	0.369807
H79	H	1.114251	0.167165	0.227658
H80	H	1.614251	0.667165	0.727658
H81	H	1.656377	0.031703	0.369467
H82	H	2.156377	0.531703	0.869467
Cl83	Cl	0.845863	0.403560	-0.145069
Cl84	Cl	1.345863	0.903560	0.354931
Cl85	Cl	1.101078	0.410321	0.144690
Cl86	Cl	1.601078	0.910321	0.644690
Cl87	Cl	1.127430	0.197782	-0.280129
Cl88	Cl	1.627430	0.697782	0.219871
H89	H	1.707515	-0.458980	-0.000023
H90	H	2.207515	0.041020	0.499977
H91	H	0.913701	0.013289	0.136557
H92	H	1.413701	0.513289	0.636557
H93	H	1.656395	0.031705	0.630484
H94	H	2.156395	0.531705	1.130484
H95	H	1.086584	0.380040	-0.093590
H96	H	1.586584	0.880040	0.406410
Cl97	Cl	0.843450	0.403078	0.143156
Cl98	Cl	1.343450	0.903078	0.643156
H99	H	0.896421	0.163383	0.228191
H100	H	1.396421	0.663383	0.728191
H101	H	1.345882	0.338621	0.630523
H102	H	1.845882	0.838621	1.130523
H103	H	1.130846	0.017903	0.135381
H104	H	1.630846	0.517903	0.635381
Cl105	Cl	0.871182	0.179301	-0.282066
Cl106	Cl	1.371182	0.679301	0.217934
Cl107	Cl	1.159008	-0.034929	-0.143193
Cl108	Cl	1.659008	0.465071	0.356807
