data_functionalizedCrystal
_audit_creation_method	'MofGen! by Chris Wilmer'
_symmetry_space_group_name_H-M	'P1'
_symmetry_Int_Tables_number	1
_symmetry_cell_setting	triclinic
loop_
_symmetry_equiv_pos_as_xyz
  x,y,z
_cell_length_a	12.827893
_cell_length_b	14.908178
_cell_length_c	12.827885
_cell_angle_alpha	93.331370
_cell_angle_beta	90.019272
_cell_angle_gamma	93.313970
loop_
_atom_site_label
_atom_site_type_symbol
_atom_site_fract_x
_atom_site_fract_y
_atom_site_fract_z
Zn1	Zn	1.573645	-0.359146	0.566802
Zn2	Zn	2.073645	0.140854	1.066802
Zn3	Zn	1.563445	-0.510043	0.381959
Zn4	Zn	2.063445	-0.010043	0.881959
Zn5	Zn	1.398883	-0.359190	0.392073
Zn6	Zn	1.898883	0.140810	0.892073
Zn7	Zn	1.388782	-0.509976	0.556664
Zn8	Zn	1.888782	-0.009976	1.056664
O9	O	1.481189	-0.434588	0.474374
O10	O	1.981189	0.065412	0.974374
O11	O	1.718527	-0.379172	0.542293
O12	O	2.218527	0.120828	1.042293
O13	O	1.541574	-0.490078	0.237062
O14	O	2.041574	0.009922	0.737062
O15	O	1.430562	-0.232929	0.423727
O16	O	1.930562	0.267071	0.923727
O17	O	1.711033	-0.490036	0.406489
O18	O	2.211033	0.009964	0.906489
O19	O	1.558959	-0.232896	0.552100
O20	O	2.058959	0.267104	1.052100
O21	O	1.420672	-0.379247	0.244492
O22	O	1.920672	0.120753	0.744492
O23	O	1.251308	-0.379182	0.413896
O24	O	1.751308	0.120818	0.913896
O25	O	1.413346	-0.489921	0.704248
O26	O	1.913346	0.010079	1.204248
O27	O	1.243887	-0.489964	0.534820
O28	O	1.743887	0.010036	1.034820
O29	O	1.549164	-0.379107	0.711696
O30	O	2.049164	0.120893	1.211696
O31	O	1.531779	-0.636289	0.396659
O32	O	2.031779	-0.136289	0.896659
O33	O	1.403455	-0.636240	0.525013
O34	O	1.903455	-0.136240	1.025013
C35	C	1.209680	-0.434571	0.474356
C36	C	1.709680	0.065429	0.974356
C37	C	1.093526	-0.434585	0.474371
C38	C	1.593526	0.065415	0.974371
C39	C	1.038091	-0.489489	0.534105
C40	C	1.538091	0.010511	1.034105
C41	C	0.918039	-0.489505	0.534122
C42	C	1.418039	0.010495	1.034122
C43	C	1.465443	-0.669001	0.458661
C44	C	1.965443	-0.169001	0.958661
C45	C	1.458802	-0.769284	0.451974
C46	C	1.958802	-0.269284	0.951974
C47	C	1.579922	-0.957542	0.573225
C48	C	2.079922	-0.457542	1.073225
C49	C	1.573686	-1.051766	0.566946
C50	C	2.073686	-0.551766	1.066946
C51	C	1.440090	-1.051959	0.433140
C52	C	1.940090	-0.551959	0.933140
C53	C	1.446326	-0.957734	0.439420
C54	C	1.946326	-0.457734	0.939420
C55	C	1.516245	-0.910529	0.509464
C56	C	2.016245	-0.410529	1.009464
C57	C	1.522485	-0.816303	0.515738
C58	C	2.022485	-0.316303	1.015738
C59	C	1.388885	-0.816497	0.381938
C60	C	1.888885	-0.316497	0.881938
C61	C	1.382649	-0.910722	0.375658
C62	C	1.882649	-0.410722	0.875658
C63	C	1.753758	-0.434607	0.474394
C64	C	2.253758	0.065393	0.974394
C65	C	1.869910	-0.434614	0.474402
C66	C	2.369910	0.065386	0.974402
C67	C	1.481266	-0.434502	0.746951
C68	C	1.981266	0.065498	1.246951
C69	C	1.481298	-0.434465	0.863106
C70	C	1.981298	0.065535	1.363106
C71	C	1.497025	-0.199261	0.490172
C72	C	1.997025	0.300739	0.990172
C73	C	1.503773	-0.098978	0.496904
C74	C	2.003773	0.401022	0.996904
C75	C	1.481177	-0.434610	0.202863
C76	C	1.981177	0.065390	0.702863
C77	C	1.481363	-0.434392	0.086725
C78	C	1.981363	0.065608	0.586725
C79	C	1.548513	-0.379620	0.918578
C80	C	2.048513	0.120380	1.418578
C81	C	1.548549	-0.379580	1.038631
C82	C	2.048549	0.120420	1.538631
H83	H	1.052109	-0.387588	0.423248
H84	H	1.552109	0.112412	0.923248
Cl85	Cl	1.610385	-0.756960	0.603789
Cl86	Cl	2.110385	-0.256960	1.103789
Cl87	Cl	1.637404	-0.307087	1.112254
Cl88	Cl	2.137404	0.192913	1.612254
H89	H	1.636860	-0.919107	0.630251
H90	H	2.136860	-0.419107	1.130251
H91	H	1.325721	-0.949169	0.318633
H92	H	1.825721	-0.449169	0.818633
H93	H	1.337038	-0.778209	0.330016
H94	H	1.837038	-0.278209	0.830016
Cl95	Cl	1.653737	-1.110865	0.647109
Cl96	Cl	2.153737	-0.610865	1.147109
H97	H	1.423773	-0.481385	0.904494
H98	H	1.923773	0.018615	1.404494
H99	H	1.606028	-0.332691	0.877190
H100	H	2.106028	0.167309	1.377190
H101	H	1.383160	-1.090409	0.376119
H102	H	1.883160	-0.590409	0.876119
H103	H	0.870380	-0.536513	0.585258
H104	H	1.370380	-0.036513	1.085258
H105	H	1.079508	-0.536479	0.585236
H106	H	1.579508	-0.036479	1.085236
Cl107	Cl	0.943479	-0.362040	0.395433
Cl108	Cl	1.443479	0.137960	0.895433
H109	H	1.423819	-0.481353	1.039042
H110	H	1.923819	0.018647	1.539042
