data_functionalizedCrystal
_audit_creation_method	'MofGen! by Chris Wilmer'
_symmetry_space_group_name_H-M	'P1'
_symmetry_Int_Tables_number	1
_symmetry_cell_setting	triclinic
loop_
_symmetry_equiv_pos_as_xyz
  x,y,z
_cell_length_a	6.394989
_cell_length_b	17.699083
_cell_length_c	16.176319
_cell_angle_alpha	90.001389
_cell_angle_beta	90.003737
_cell_angle_gamma	84.890363
loop_
_atom_site_label
_atom_site_type_symbol
_atom_site_fract_x
_atom_site_fract_y
_atom_site_fract_z
O1	O	-0.264132	-1.006774	-0.068625
O2	O	0.235868	-0.506774	0.431375
O3	O	-0.298496	-0.786747	-0.068651
O4	O	0.201504	-0.286747	0.431349
O5	O	0.022766	-0.899883	-0.068638
O6	O	0.522766	-0.399883	0.431362
O7	O	-0.585394	-0.893637	-0.068638
O8	O	-0.085394	-0.393637	0.431362
O9	O	0.022787	-0.899867	0.068855
O10	O	0.522787	-0.399867	0.568855
O11	O	-0.298475	-0.786730	0.068842
O12	O	0.201525	-0.286730	0.568842
O13	O	-0.264111	-1.006758	0.068868
O14	O	0.235889	-0.506758	0.568868
Cu15	Cu	-0.281291	-0.896743	0.081409
Cu16	Cu	0.218709	-0.396743	0.581409
Cu17	Cu	-0.281315	-0.896762	-0.081193
Cu18	Cu	0.218685	-0.396762	0.418807
O19	O	-0.585373	-0.893621	0.068855
O20	O	-0.085373	-0.393621	0.568855
C21	C	-0.297254	-0.758529	0.000092
C22	C	0.202746	-0.258529	0.500092
C23	C	-0.293560	-0.674473	0.000081
C24	C	0.206440	-0.174473	0.500081
C25	C	-0.265353	-1.034976	0.000123
C26	C	0.234647	-0.534976	0.500123
C27	C	-0.269047	-1.119031	0.000128
C28	C	0.230953	-0.619031	0.500128
N29	N	-0.281273	-0.896735	0.195774
N30	N	0.218727	-0.396735	0.695774
C31	C	0.100592	-0.898640	0.000105
C32	C	0.600592	-0.398640	0.500105
C33	C	0.336808	-0.894866	0.000104
C34	C	0.836808	-0.394866	0.500104
N35	N	-0.281317	-0.896776	-0.195558
N36	N	0.218683	-0.396776	0.304442
C37	C	-0.482134	-0.627777	0.000082
C38	C	0.017866	-0.127777	0.500082
C39	C	-0.478651	-0.548798	0.000092
C40	C	0.021349	-0.048798	0.500092
C41	C	-0.286591	-0.516517	0.000097
C42	C	0.213409	-0.016517	0.500097
C43	C	-0.098003	-0.563220	0.000099
C44	C	0.401997	-0.063220	0.500099
C45	C	-0.101488	-0.642197	0.000094
C46	C	0.398512	-0.142197	0.500094
C47	C	-0.083942	-0.244713	0.000119
C48	C	0.416058	0.255287	0.500119
C49	C	-0.080470	-0.165730	0.000122
C50	C	0.419530	0.334270	0.500122
C51	C	-0.461104	-0.151314	0.000118
C52	C	0.038896	0.348686	0.500118
C53	C	-0.464590	-0.230291	0.000113
C54	C	0.035410	0.269709	0.500113
C55	C	-0.276002	-0.276987	0.000119
C56	C	0.223998	0.223013	0.500119
C57	C	-0.279782	-0.362625	0.000109
C58	C	0.220218	0.137375	0.500109
C59	C	-0.282810	-0.430881	0.000101
C60	C	0.217190	0.069119	0.500101
C61	C	-0.139076	-0.946848	0.239044
C62	C	0.360924	-0.446848	0.739044
C63	C	-0.139074	-0.946852	0.325591
C64	C	0.360926	-0.446852	0.825591
C65	C	-0.281280	-0.896746	0.368867
C66	C	0.218720	-0.396746	0.868867
C67	C	-0.423484	-0.846627	0.325591
C68	C	0.076516	-0.346627	0.825591
C69	C	-0.423474	-0.846620	0.239045
C70	C	0.076526	-0.346620	0.739045
C71	C	-0.423523	-0.846653	0.674619
C72	C	0.076477	-0.346653	1.174619
C73	C	-0.423526	-0.846666	0.761171
C74	C	0.076474	-0.346666	1.261171
C75	C	-0.139123	-0.946885	0.761165
C76	C	0.360877	-0.446885	1.261165
C77	C	-0.139113	-0.946878	0.674620
C78	C	0.360887	-0.446878	1.174620
C79	C	-0.281308	-0.896757	0.631351
C80	C	0.218692	-0.396757	1.131351
C81	C	-0.281306	-0.896753	0.537507
C82	C	0.218694	-0.396753	1.037507
C83	C	-0.281294	-0.896753	0.462710
C84	C	0.218706	-0.396753	0.962710
H85	H	-0.638531	-0.654053	0.000078
H86	H	-0.138531	-0.154053	0.500078
H87	H	-0.539264	-0.805826	0.360831
H88	H	-0.039264	-0.305826	0.860831
H89	H	-0.539331	-0.805860	0.796404
H90	H	-0.039331	-0.305860	1.296404
Cl91	Cl	0.039699	-1.009846	0.184650
Cl92	Cl	0.539699	-0.509846	0.684650
H93	H	0.052069	-0.680217	0.000093
H94	H	0.552069	-0.180217	0.500093
Cl95	Cl	-0.698190	-0.092606	0.000113
Cl96	Cl	-0.198190	0.407394	0.500113
Cl97	Cl	-0.602285	-0.783649	0.620230
Cl98	Cl	-0.102285	-0.283649	1.120230
Cl99	Cl	0.153141	-0.303406	0.000127
Cl100	Cl	0.653141	0.196594	0.500127
Cl101	Cl	0.160995	-0.125150	0.000128
Cl102	Cl	0.660995	0.374850	0.500128
Cl103	Cl	-0.706045	-0.270868	0.000103
Cl104	Cl	-0.206045	0.229132	0.500103
Cl105	Cl	0.039659	-1.009873	0.620219
Cl106	Cl	0.539659	-0.509873	1.120219
Cl107	Cl	-0.715727	-0.490096	0.000088
Cl108	Cl	-0.215727	0.009904	0.500088
Cl109	Cl	0.143446	-0.522638	0.000110
Cl110	Cl	0.643446	-0.022638	0.500110
Cl111	Cl	0.039649	-1.009893	0.815564
Cl112	Cl	0.539649	-0.509893	1.315564
H113	H	-0.023285	-0.987657	0.360821
H114	H	0.476715	-0.487657	0.860821
H115	H	-0.539263	-0.805812	0.203816
H116	H	-0.039263	-0.305812	0.703816
