data_functionalizedCrystal
_audit_creation_method	'MofGen! by Chris Wilmer'
_symmetry_space_group_name_H-M	'P1'
_symmetry_Int_Tables_number	1
_symmetry_cell_setting	triclinic
loop_
_symmetry_equiv_pos_as_xyz
  x,y,z
_cell_length_a	6.394989
_cell_length_b	19.288864
_cell_length_c	17.766277
_cell_angle_alpha	89.976791
_cell_angle_beta	90.003244
_cell_angle_gamma	95.183021
loop_
_atom_site_label
_atom_site_type_symbol
_atom_site_fract_x
_atom_site_fract_y
_atom_site_fract_z
O1	O	-0.260546	0.923905	-0.062832
O2	O	-0.295693	0.721989	-0.062780
O3	O	0.025971	0.825813	-0.062807
O4	O	-0.582211	0.820081	-0.062804
O5	O	0.025988	0.825794	0.062382
O6	O	-0.295677	0.721970	0.062409
O7	O	-0.260530	0.923886	0.062357
Cu8	Cu	-0.278102	0.822926	0.073814
Cu9	Cu	-0.278121	0.822948	-0.074236
O10	O	-0.582195	0.820062	0.062384
C11	C	-0.294554	0.696092	-0.000179
C12	C	-0.291159	0.618955	-0.000159
C13	C	-0.479898	0.576107	-0.000170
C14	C	-0.476708	0.503629	-0.000178
C15	C	-0.284770	0.474001	-0.000191
C16	C	-0.096007	0.516859	-0.000175
C17	C	-0.099202	0.589335	-0.000160
C18	C	-0.133891	0.364268	-0.044076
C19	C	-0.130704	0.291792	-0.044096
C20	C	-0.274908	0.250459	-0.000236
C21	C	-0.422335	0.281609	0.043634
C22	C	-0.425530	0.354086	0.043650
C23	C	-0.281284	0.395413	-0.000207
C24	C	-0.460201	0.129022	-0.000255
C25	C	-0.457004	0.056542	-0.000259
C26	C	-0.076297	0.069774	-0.000264
C27	C	-0.079500	0.142252	-0.000252
C28	C	-0.271458	0.171871	-0.000252
C29	C	0.103790	0.824670	-0.000215
C30	C	0.339993	0.821206	-0.000215
C31	C	-0.261669	0.949783	-0.000246
C32	C	-0.265064	1.026920	-0.000270
N33	N	-0.278087	0.822915	0.177944
N34	N	-0.278120	0.822964	-0.178367
C35	C	-0.135724	0.868905	0.217319
C36	C	-0.135714	0.868909	0.296121
C37	C	-0.278104	0.822930	0.335545
C38	C	-0.420478	0.776932	0.296160
C39	C	-0.420470	0.776925	0.217360
C40	C	-0.468405	0.815495	0.460385
C41	C	-0.468416	0.815508	0.539184
C42	C	-0.278129	0.822949	0.578591
C43	C	-0.087822	0.830393	0.539190
C44	C	-0.087814	0.830386	0.460389
C45	C	-0.278128	0.822933	0.420990
C46	C	-0.135743	0.868945	0.703412
C47	C	-0.135731	0.868944	0.782215
C48	C	-0.420513	0.776971	0.782253
C49	C	-0.420507	0.776969	0.703451
C50	C	-0.278125	0.822959	0.664035
H51	H	0.060271	0.492731	-0.000196
H52	H	-0.019790	0.906392	0.814275
H53	H	-0.636205	0.600218	-0.000171
H54	H	-0.536441	0.739532	0.814351
H55	H	-0.623370	0.809424	0.428306
H56	H	-0.630407	0.468735	-0.000185
Cl57	Cl	-0.694298	0.002675	-0.000269
Cl58	Cl	0.165000	0.032535	-0.000270
H59	H	-0.539759	0.247957	0.079350
H60	H	0.074192	0.177139	-0.000248
H61	H	-0.536411	0.739495	0.328263
H62	H	-0.545564	0.379445	0.079374
Cl63	Cl	0.047414	0.416223	-0.099219
Cl64	Cl	-0.701514	0.166261	-0.000247
H65	H	0.054497	0.624223	-0.000151
Cl66	Cl	0.043262	0.926758	0.653859
H67	H	-0.019783	0.906351	0.185229
H68	H	-0.536401	0.739474	0.185300
H69	H	-0.010669	0.266436	-0.079821
H70	H	-0.019780	0.906360	0.328186
H71	H	0.067140	0.836445	0.428312
H72	H	0.067128	0.836452	0.571273
H73	H	-0.536441	0.739523	0.671390
H74	H	-0.623374	0.809451	0.571258
