data_functionalizedCrystal
_audit_creation_method	'MofGen! by Chris Wilmer'
_symmetry_space_group_name_H-M	'P1'
_symmetry_Int_Tables_number	1
_symmetry_cell_setting	triclinic
loop_
_symmetry_equiv_pos_as_xyz
  x,y,z
_cell_length_a	15.297475
_cell_length_b	29.839131
_cell_length_c	15.298259
_cell_angle_alpha	80.280107
_cell_angle_beta	88.370891
_cell_angle_gamma	80.343089
loop_
_atom_site_label
_atom_site_type_symbol
_atom_site_fract_x
_atom_site_fract_y
_atom_site_fract_z
Zn1	Zn	1.253365	-0.224385	-0.726610
Zn2	Zn	1.753365	0.275615	-0.226610
Zn3	Zn	1.278551	-0.314322	-0.580088
Zn4	Zn	1.778551	0.185678	-0.080088
Zn5	Zn	1.132216	-0.228754	-0.554833
Zn6	Zn	1.632216	0.271246	-0.054833
Zn7	Zn	1.106810	-0.289027	-0.701235
Zn8	Zn	1.606810	0.210973	-0.201235
O9	O	1.192735	-0.264122	-0.640691
O10	O	1.692735	0.235878	-0.140691
O11	O	1.379282	-0.245072	-0.728363
O12	O	1.879282	0.254928	-0.228363
O13	O	1.280311	-0.315386	-0.454148
O14	O	1.780311	0.184614	0.045852
O15	O	1.148379	-0.165311	-0.577670
O16	O	1.648379	0.334689	-0.077670
O17	O	1.397785	-0.311149	-0.620713
O18	O	1.897785	0.188851	-0.120713
O19	O	1.237387	-0.162101	-0.703874
O20	O	1.737387	0.337899	-0.203874
O21	O	1.172800	-0.252519	-0.435593
O22	O	1.672800	0.247481	0.064407
O23	O	1.006270	-0.227992	-0.553065
O24	O	1.506270	0.272008	-0.053065
O25	O	1.105079	-0.268037	-0.827191
O26	O	1.605079	0.231963	-0.327191
O27	O	0.987605	-0.272274	-0.660625
O28	O	1.487605	0.227726	-0.160625
O29	O	1.212752	-0.220545	-0.845834
O30	O	1.712752	0.279455	-0.345834
O31	O	1.255677	-0.373830	-0.596107
O32	O	1.755677	0.126170	-0.096107
O33	O	1.129500	-0.355246	-0.685114
O34	O	1.629500	0.144754	-0.185114
C35	C	0.965155	-0.247862	-0.601351
C36	C	1.465155	0.252138	-0.101351
C37	C	0.867791	-0.240915	-0.584542
C38	C	1.367791	0.259085	-0.084542
C39	C	1.192585	-0.380838	-0.640621
C40	C	1.692585	0.119162	-0.140621
C41	C	1.192595	-0.430772	-0.640634
C42	C	1.692595	0.069228	-0.140634
C43	C	0.554625	-0.313777	-0.760831
C44	C	1.054625	0.186223	-0.260831
C45	C	0.646103	-0.320308	-0.776621
C46	C	1.146103	0.179692	-0.276621
C47	C	0.701530	-0.300460	-0.728603
C48	C	1.201530	0.199540	-0.228603
C49	C	0.665469	-0.274081	-0.664791
C50	C	1.165469	0.225919	-0.164791
C51	C	0.573982	-0.267552	-0.648994
C52	C	1.073982	0.232448	-0.148994
C53	C	0.720887	-0.254236	-0.616767
C54	C	1.220887	0.245764	-0.116767
C55	C	0.684826	-0.227856	-0.552955
C56	C	1.184826	0.272144	-0.052955
C57	C	0.593348	-0.221329	-0.537162
C58	C	1.093348	0.278671	-0.037162
C59	C	0.537922	-0.241176	-0.585179
C60	C	1.037922	0.258824	-0.085179
C61	C	0.812374	-0.260764	-0.632564
C62	C	1.312374	0.239236	-0.132564
C63	C	0.831731	-0.214539	-0.520728
C64	C	1.331731	0.285461	-0.020728
C65	C	0.740253	-0.208009	-0.504937
C66	C	1.240253	0.291991	-0.004937
C67	C	1.258524	-0.750085	-0.594445
C68	C	1.758524	-0.250085	-0.094445
C69	C	1.258626	-0.937763	-0.594498
C70	C	1.758626	-0.437763	-0.094498
O71	O	1.314560	-0.970244	-0.555172
O72	O	1.814560	-0.470244	-0.055172
N73	N	1.192906	-0.951570	-0.640789
N74	N	1.692906	-0.451570	-0.140789
C75	C	1.127159	-0.918455	-0.687075
C76	C	1.627159	-0.418455	-0.187075
O77	O	1.071267	-0.934505	-0.726457
O78	O	1.571267	-0.434505	-0.226457
C79	C	1.127061	-0.730778	-0.687027
C80	C	1.627061	-0.230778	-0.187027
C81	C	1.192780	-0.716974	-0.640725
C82	C	1.692780	-0.216974	-0.140725
C83	C	1.324238	-0.736280	-0.548149
C84	C	1.824238	-0.236280	-0.048149
C85	C	1.324209	-0.689364	-0.548132
C86	C	1.824209	-0.189364	-0.048132
C87	C	1.258466	-0.656252	-0.594412
C88	C	1.758466	-0.156252	-0.094412
C89	C	1.192751	-0.670057	-0.640709
C90	C	1.692751	-0.170057	-0.140709
C91	C	1.061318	-0.697663	-0.733317
C92	C	1.561318	-0.197663	-0.233317
C93	C	1.061301	-0.650742	-0.733303
C94	C	1.561301	-0.150742	-0.233303
C95	C	1.127020	-0.636938	-0.687002
C96	C	1.627020	-0.136938	-0.187002
C97	C	1.126979	-0.590029	-0.686972
C98	C	1.626979	-0.090029	-0.186972
N99	N	1.192699	-0.576222	-0.640681
N100	N	1.692699	-0.076222	-0.140681
C101	C	1.258442	-0.609333	-0.594401
C102	C	1.758442	-0.109333	-0.094401
C103	C	1.127214	-1.016988	-0.687095
C104	C	1.627214	-0.516988	-0.187095
C105	C	1.127237	-1.063907	-0.687106
C106	C	1.627237	-0.563907	-0.187106
C107	C	1.258705	-1.083212	-0.594531
C108	C	1.758705	-0.583212	-0.094531
C109	C	1.258678	-1.036292	-0.594515
C110	C	1.758678	-0.536292	-0.094515
C111	C	1.192934	-1.003181	-0.640804
C112	C	1.692934	-0.503181	-0.140804
C113	C	1.258376	-0.510805	-0.594369
C114	C	1.758376	-0.010805	-0.094369
C115	C	1.258339	-0.463883	-0.594354
C116	C	1.758339	0.036117	-0.094354
C117	C	1.126874	-0.444582	-0.686933
C118	C	1.626874	0.055418	-0.186933
C119	C	1.126908	-0.491500	-0.686945
C120	C	1.626908	0.008500	-0.186945
C121	C	1.192666	-0.524611	-0.640661
C122	C	1.692666	-0.024611	-0.140661
O123	O	1.071079	-0.557523	-0.726286
O124	O	1.571079	-0.057523	-0.226286
O125	O	1.314336	-0.593273	-0.555041
O126	O	1.814336	-0.093273	-0.055041
C127	C	1.258553	-0.797002	-0.594462
C128	C	1.758553	-0.297002	-0.094462
C129	C	1.192838	-0.810807	-0.640759
C130	C	1.692838	-0.310807	-0.140759
C131	C	1.127095	-0.777696	-0.687039
C132	C	1.627095	-0.277696	-0.187039
C133	C	1.192861	-0.857726	-0.640770
C134	C	1.692861	-0.357726	-0.140770
C135	C	1.258605	-0.890837	-0.594490
C136	C	1.758605	-0.390837	-0.094490
C137	C	1.324325	-0.877030	-0.548199
C138	C	1.824325	-0.377030	-0.048199
C139	C	1.324296	-0.830113	-0.548182
C140	C	1.824296	-0.330113	-0.048182
C141	C	1.061375	-0.791503	-0.733330
C142	C	1.561375	-0.291503	-0.233330
C143	C	1.061408	-0.838420	-0.733342
C144	C	1.561408	-0.338420	-0.233342
C145	C	1.127152	-0.871532	-0.687062
C146	C	1.627152	-0.371532	-0.187062
C147	C	1.421205	-0.280445	-0.680186
C148	C	1.921205	0.219555	-0.180186
C149	C	1.518565	-0.287401	-0.697016
C150	C	2.018565	0.212599	-0.197016
C151	C	1.153272	-0.240982	-0.869188
C152	C	1.653272	0.259018	-0.369188
C153	C	1.136455	-0.231121	-0.966559
C154	C	1.636455	0.268879	-0.466559
C155	C	1.192907	-0.146950	-0.640786
C156	C	1.692907	0.353050	-0.140786
C157	C	1.192981	-0.097019	-0.640826
C158	C	1.692981	0.402981	-0.140826
C159	C	1.312957	-0.334255	-1.279667
C160	C	1.812957	0.165745	-0.779667
C161	C	1.328753	-0.343522	-1.188181
C162	C	1.828753	0.156478	-0.688181
C163	C	1.280680	-0.315422	-1.132771
C164	C	1.780680	0.184578	-0.632771
C165	C	1.216808	-0.278054	-1.168856
C166	C	1.716808	0.221946	-0.668856
C167	C	1.201006	-0.268788	-1.260350
C168	C	1.701006	0.231212	-0.760350
C169	C	1.168729	-0.249956	-1.113454
C170	C	1.668729	0.250044	-0.613454
C171	C	1.104857	-0.212588	-1.149539
C172	C	1.604857	0.287412	-0.649539
C173	C	1.089058	-0.203323	-1.241025
C174	C	1.589058	0.296677	-0.741025
C175	C	1.137131	-0.231423	-1.296435
C176	C	1.637131	0.268577	-0.796435
C177	C	1.184531	-0.259222	-1.021960
C178	C	1.684531	0.240778	-0.521960
C179	C	1.072580	-0.193756	-1.002643
C180	C	1.572580	0.306244	-0.502643
C181	C	1.056784	-0.184488	-1.094129
C182	C	1.556784	0.315512	-0.594129
C183	C	1.232096	-0.287143	-0.413093
C184	C	1.732096	0.212857	0.086907
C185	C	1.249082	-0.296889	-0.315752
C186	C	1.749082	0.203111	0.184248
H187	H	0.841725	-0.282242	-0.684520
H188	H	1.341725	0.217758	-0.184520
N189	N	0.888349	-0.194262	-0.471690
N190	N	1.388349	0.305738	0.028310
N191	N	0.934095	-0.166174	-0.511440
N192	N	1.434095	0.333826	-0.011440
H193	H	0.974087	-0.151855	-0.476810
H194	H	1.474087	0.348145	0.023190
H195	H	1.311924	-0.537759	-0.556683
H196	H	1.811924	-0.037759	-0.056683
N197	N	1.391327	-0.675266	-0.500819
N198	N	1.891327	-0.175266	-0.000819
N199	N	1.370180	-0.652579	-0.439631
N200	N	1.870180	-0.152579	0.060369
H201	H	1.417584	-0.642627	-0.406207
H202	H	1.917584	-0.142627	0.093793
H203	H	1.311856	-0.452647	-0.556646
H204	H	1.811856	0.047353	-0.056646
N205	N	0.682934	-0.347259	-0.841787
N206	N	1.182934	0.152741	-0.341787
N207	N	0.673691	-0.388579	-0.834046
N208	N	1.173691	0.111421	-0.334046
H209	H	0.699702	-0.407615	-0.880073
H210	H	1.199702	0.092385	-0.380073
N211	N	1.023813	-0.165159	-1.277903
N212	N	1.523813	0.334841	-0.777903
N213	N	0.959158	-0.171805	-1.319299
N214	N	1.459158	0.328195	-0.819299
H215	H	0.913080	-0.144851	-1.345347
H216	H	1.413080	0.355149	-0.845347
N217	N	1.391409	-0.770093	-0.500871
N218	N	1.891409	-0.270093	-0.000871
N219	N	1.450074	-0.757751	-0.459545
N220	N	1.950074	-0.257751	0.040455
H221	H	1.497516	-0.781628	-0.426148
H222	H	1.997516	-0.281628	0.073852
H223	H	1.293544	-0.322971	-1.058280
H224	H	1.793544	0.177029	-0.558280
H225	H	0.776015	-0.305779	-0.741464
H226	H	1.276015	0.194221	-0.241464
N227	N	1.325812	-1.022202	-0.547213
N228	N	1.825812	-0.522202	-0.047213
N229	N	1.384500	-1.051776	-0.505892
N230	N	1.884500	-0.551776	-0.005892
H231	H	1.431918	-1.041827	-0.472483
H232	H	1.931918	-0.541827	0.027517
N233	N	1.325852	-1.117045	-0.547256
N234	N	1.825852	-0.617045	-0.047256
N235	N	1.325856	-1.158934	-0.547279
N236	N	1.825856	-0.658934	-0.047279
H237	H	1.373278	-1.182831	-0.513897
H238	H	1.873278	-0.682831	-0.013897
H239	H	1.352085	-0.357132	-1.324788
H240	H	1.852085	0.142868	-0.824788
H241	H	1.124276	-0.223879	-1.370931
H242	H	1.624276	0.276121	-0.870931
N243	N	1.060088	-1.077997	-0.734390
N244	N	1.560088	-0.577997	-0.234390
N245	N	1.001397	-1.048423	-0.775705
N246	N	1.501397	-0.548423	-0.275705
H247	H	0.953971	-1.058372	-0.809104
H248	H	1.453971	-0.558372	-0.309104
H249	H	1.380749	-0.373951	-1.158806
H250	H	1.880749	0.126049	-0.658806
N251	N	0.991549	-0.146320	-1.131009
N252	N	1.491549	0.353680	-0.631009
N253	N	0.977456	-0.138053	-1.212698
N254	N	1.477456	0.361947	-0.712698
H255	H	0.931384	-0.111096	-1.238746
H256	H	1.431384	0.388904	-0.738746
H257	H	1.033435	-0.170875	-0.957528
H258	H	1.533435	0.329125	-0.457528
H259	H	0.509490	-0.329937	-0.799915
H260	H	1.009490	0.170063	-0.299915
H261	H	0.463432	-0.235859	-0.572328
H262	H	0.963432	0.264141	-0.072328
H263	H	0.563993	-0.199854	-0.485193
H264	H	1.063993	0.300146	0.014807
H265	H	0.710879	-0.186530	-0.452981
H266	H	1.210879	0.313470	0.047019
H267	H	1.007799	-0.708894	-0.771016
H268	H	1.507799	-0.208894	-0.271016
N269	N	1.060048	-0.983174	-0.734388
N270	N	1.560048	-0.483174	-0.234388
N271	N	1.001379	-0.995515	-0.775711
N272	N	1.501379	-0.495515	-0.275711
H273	H	0.953940	-0.971636	-0.809110
H274	H	1.453940	-0.471636	-0.309110
H275	H	1.073396	-0.502739	-0.724650
H276	H	1.573396	-0.002739	-0.224650
N277	N	0.994141	-0.616926	-0.780599
N278	N	1.494141	-0.116926	-0.280599
N279	N	0.935476	-0.629262	-0.821934
N280	N	1.435476	-0.129262	-0.321934
H281	H	0.888043	-0.605381	-0.855336
H282	H	1.388043	-0.105381	-0.355336
N283	N	1.059722	-0.410750	-0.734191
N284	N	1.559722	0.089250	-0.234191
N285	N	1.059714	-0.368861	-0.734164
N286	N	1.559714	0.131139	-0.234164
H287	H	1.012290	-0.344964	-0.767543
H288	H	1.512290	0.155036	-0.267543
H289	H	1.377811	-0.818878	-0.510479
H290	H	1.877811	-0.318878	-0.010479
N291	N	1.391470	-0.910864	-0.500922
N292	N	1.891470	-0.410864	-0.000922
N293	N	1.391474	-0.952752	-0.500948
N294	N	1.891474	-0.452752	-0.000948
H295	H	1.438893	-0.976650	-0.467563
H296	H	1.938893	-0.476650	0.032437
N297	N	0.994211	-0.757690	-0.780614
N298	N	1.494211	-0.257690	-0.280614
N299	N	0.935544	-0.770030	-0.821940
N300	N	1.435544	-0.270030	-0.321940
H301	H	0.888103	-0.746151	-0.855336
H302	H	1.388103	-0.246151	-0.355336
N303	N	1.249781	-0.297382	-0.985094
N304	N	1.749781	0.202618	-0.485094
N305	N	1.263890	-0.305651	-0.903409
N306	N	1.763890	0.194349	-0.403409
H307	H	1.309980	-0.332602	-0.877372
H308	H	1.809980	0.167398	-0.377372
H309	H	1.007884	-0.849654	-0.771044
H310	H	1.507884	-0.349654	-0.271044
