data_functionalizedCrystal
_audit_creation_method	'MofGen! by Chris Wilmer'
_symmetry_space_group_name_H-M	'P1'
_symmetry_Int_Tables_number	1
_symmetry_cell_setting	triclinic
loop_
_symmetry_equiv_pos_as_xyz
  x,y,z
_cell_length_a	16.109295
_cell_length_b	8.140239
_cell_length_c	9.065218
_cell_angle_alpha	89.998314
_cell_angle_beta	84.237536
_cell_angle_gamma	90.000208
loop_
_atom_site_label
_atom_site_type_symbol
_atom_site_fract_x
_atom_site_fract_y
_atom_site_fract_z
O1	O	-1.104589	0.136495	-0.189589
O2	O	-0.604589	0.636495	0.310411
O3	O	-0.862708	0.136522	-0.213196
O4	O	-0.362708	0.636522	0.286804
O5	O	-0.988648	0.136504	0.013371
O6	O	-0.488648	0.636504	0.513371
O7	O	-0.978649	0.136512	-0.416156
O8	O	-0.478649	0.636512	0.083844
O9	O	-0.988641	-0.136723	0.013374
O10	O	-0.488641	0.363277	0.513374
O11	O	-0.862701	-0.136705	-0.213194
O12	O	-0.362701	0.363295	0.286806
O13	O	-1.104582	-0.136732	-0.189586
O14	O	-0.604582	0.363268	0.310414
Zn15	Zn	-0.983641	-0.180099	-0.201389
Zn16	Zn	-0.483641	0.319901	0.298611
Zn17	Zn	-0.983650	0.179889	-0.201393
Zn18	Zn	-0.483650	0.679889	0.298607
O19	O	-0.978642	-0.136715	-0.416153
O20	O	-0.478642	0.363285	0.083847
C21	C	-0.831722	-0.000088	-0.212240
C22	C	-0.331722	0.499912	0.287760
C23	C	-0.739405	-0.000078	-0.209377
C24	C	-0.239405	0.499922	0.290623
N25	N	-0.983640	-0.425782	-0.201386
N26	N	-0.483640	0.074218	0.298614
C27	C	-0.518114	-0.000093	-0.337159
C28	C	-0.018114	0.499907	0.162841
C29	C	-0.431372	-0.000103	-0.334458
C30	C	0.068628	0.499897	0.165542
C31	C	-0.449181	-0.000101	-0.065648
C32	C	0.050819	0.499899	0.434352
C33	C	-0.535921	-0.000103	-0.068351
C34	C	-0.035921	0.499897	0.431649
C35	C	-0.570385	-0.000090	-0.204111
C36	C	-0.070385	0.499910	0.295889
C37	C	-0.396904	-0.000099	-0.198707
C38	C	0.103096	0.499901	0.301293
C39	C	-0.302855	-0.000109	-0.195777
C40	C	0.197145	0.499891	0.304223
C41	C	-0.664439	-0.000083	-0.207042
C42	C	-0.164439	0.499917	0.292958
C43	C	-0.135568	-0.000117	-0.190551
C44	C	0.364432	0.499883	0.309449
C45	C	-0.227883	-0.000111	-0.193441
C46	C	0.272117	0.499889	0.306559
C47	C	-0.987684	-0.000106	0.068336
C48	C	-0.487684	0.499894	0.568336
C49	C	-0.984810	-0.000098	0.232109
C50	C	-0.484810	0.499902	0.732109
N51	N	-0.983657	0.425572	-0.201384
N52	N	-0.483657	0.925572	0.298616
C53	C	-0.979607	-0.000100	-0.471118
C54	C	-0.479607	0.499900	0.028882
C55	C	-0.982480	-0.000098	-0.634891
C56	C	-0.482480	0.499902	-0.134891
H57	H	-0.546171	-0.000095	-0.447704
H58	H	-0.046171	0.499905	0.052296
H59	H	-0.388816	-0.000108	-0.442800
H60	H	0.111184	0.499892	0.057200
O61	O	-0.415564	-0.000027	0.066093
O62	O	0.084436	0.499973	0.566093
C63	C	-0.327796	-0.000062	0.039953
C64	C	0.172204	0.499938	0.539953
H65	H	-0.308297	0.051663	-0.075188
H66	H	0.191703	0.551663	0.424812
H67	H	-0.300519	0.079267	0.126812
H68	H	0.199481	0.579267	0.626812
H69	H	-0.303602	-0.131141	0.047097
H70	H	0.196398	0.368859	0.547097
H71	H	-0.578483	-0.000105	0.040000
H72	H	-0.078483	0.499895	0.540000
