data_functionalizedCrystal
_audit_creation_method	'MofGen! by Chris Wilmer'
_symmetry_space_group_name_H-M	'P1'
_symmetry_Int_Tables_number	1
_symmetry_cell_setting	triclinic
loop_
_symmetry_equiv_pos_as_xyz
  x,y,z
_cell_length_a	16.625546
_cell_length_b	17.640112
_cell_length_c	17.640968
_cell_angle_alpha	87.860920
_cell_angle_beta	78.766516
_cell_angle_gamma	78.752230
loop_
_atom_site_label
_atom_site_type_symbol
_atom_site_fract_x
_atom_site_fract_y
_atom_site_fract_z
Zn1	Zn	-0.023167	-1.247778	-0.195079
Zn2	Zn	-0.189521	-1.222008	-0.068091
Zn3	Zn	-0.075617	-1.095110	-0.093723
Zn4	Zn	-0.178908	-1.120749	-0.220673
O5	O	-0.116803	-1.171411	-0.144392
O6	O	-0.027726	-1.350629	-0.156795
O7	O	-0.200804	-1.183660	0.034783
O8	O	0.044187	-1.115417	-0.107184
O9	O	-0.149946	-1.331696	-0.063498
O10	O	0.082722	-1.227581	-0.181650
O11	O	-0.117119	-1.090428	0.015951
O12	O	-0.106828	-0.992242	-0.132002
O13	O	-0.131856	-1.159114	-0.323552
O14	O	-0.182715	-1.011078	-0.225272
O15	O	-0.017434	-1.252442	-0.304748
O16	O	-0.300961	-1.208521	-0.088315
O17	O	-0.293163	-1.134126	-0.200417
C18	C	-0.149311	-0.974106	-0.184196
C19	C	-0.163234	-0.889701	-0.201243
C20	C	-0.326314	-1.171333	-0.144374
C21	C	-0.415926	-1.171374	-0.144378
C22	C	-0.067611	-1.211513	-0.342476
C23	C	-0.046647	-1.228602	-0.426888
C24	C	-0.744060	-1.171522	-0.144431
C25	C	-0.652763	-1.171479	-0.144419
C26	C	-0.579996	-1.171448	-0.144404
C27	C	-0.488693	-1.171406	-0.144393
C28	C	0.093533	-1.171514	-0.144422
C29	C	0.183166	-1.171558	-0.144434
C30	C	-0.084169	-1.369487	-0.104432
C31	C	-0.070262	-1.453895	-0.087404
C32	C	-0.011024	-0.563039	-0.014898
C33	C	-0.024119	-0.483730	-0.030926
C34	C	-0.103324	-0.503365	-0.127880
C35	C	-0.090232	-0.582678	-0.111863
C36	C	-0.044082	-0.612508	-0.055370
C37	C	-0.123289	-0.632147	-0.152335
C38	C	-0.110201	-0.711452	-0.136316
C39	C	-0.064056	-0.741288	-0.079824
C40	C	-0.030994	-0.691813	-0.039351
C41	C	-0.169444	-0.602314	-0.208823
C42	C	-0.202502	-0.651783	-0.249296
C43	C	-0.189409	-0.731091	-0.233281
C44	C	-0.143264	-0.760927	-0.176789
C45	C	-0.222471	-0.780566	-0.273754
C46	C	-0.209383	-0.859871	-0.257735
C47	C	-0.130176	-0.840232	-0.160770
C48	C	-0.275571	-1.041880	-0.753453
C49	C	-0.255860	-1.057954	-0.832768
C50	C	-0.136723	-1.155128	-0.813179
C51	C	-0.156422	-1.139059	-0.733861
C52	C	-0.225847	-1.082435	-0.704005
C53	C	-0.106698	-1.179615	-0.684413
C54	C	-0.126397	-1.163551	-0.605102
C55	C	-0.195821	-1.106931	-0.575239
C56	C	-0.245547	-1.066371	-0.624694
C57	C	-0.037276	-1.236243	-0.714270
C58	C	0.012448	-1.276798	-0.664822
C59	C	-0.007248	-1.260730	-0.585510
C60	C	-0.076672	-1.204111	-0.555647
C61	C	0.042478	-1.301290	-0.536055
C62	C	0.022778	-1.285226	-0.456744
C63	C	-0.096371	-1.188046	-0.476336
C64	C	-0.165740	-1.131509	0.052931
C65	C	-0.186451	-1.114568	0.137372
H66	H	-0.092581	-0.864523	-0.114780
H67	H	-0.240080	-0.627484	-0.295290
H68	H	-0.332088	-0.995753	-0.729147
H69	H	-0.053403	-0.805864	-0.066781
H70	H	-0.152888	-1.141919	-0.452030
H71	H	0.006601	-0.716104	0.006640
H72	H	-0.021240	-1.249322	-0.778850
H73	H	-0.260053	-0.756265	-0.319745
H74	H	0.026571	-0.587330	0.031093
H75	H	-0.302064	-1.020244	-0.600388
H76	H	-0.236301	-0.900151	-0.290693
H77	H	-0.296357	-1.024924	-0.873027
H78	H	0.063269	-1.318249	-0.416482
H79	H	-0.140902	-0.479066	-0.173874
H80	H	-0.080199	-1.201233	-0.837498
H81	H	0.002811	-0.443455	0.002031
H82	H	0.068973	-1.322904	-0.689141
H83	H	-0.180099	-0.537739	-0.221864
H84	H	0.098999	-1.347399	-0.560375
H85	H	-0.211862	-1.093855	-0.510658
