data_functionalizedCrystal
_audit_creation_method	'MofGen! by Chris Wilmer'
_symmetry_space_group_name_H-M	'P1'
_symmetry_Int_Tables_number	1
_symmetry_cell_setting	triclinic
loop_
_symmetry_equiv_pos_as_xyz
  x,y,z
_cell_length_a	18.101398
_cell_length_b	19.121063
_cell_length_c	18.101389
_cell_angle_alpha	92.419391
_cell_angle_beta	89.975673
_cell_angle_gamma	92.464489
loop_
_atom_site_label
_atom_site_type_symbol
_atom_site_fract_x
_atom_site_fract_y
_atom_site_fract_z
Zn1	Zn	1.119554	-0.279777	-0.431404
Zn2	Zn	1.619554	0.220223	0.068596
Zn3	Zn	1.114175	-0.397213	-0.312837
Zn4	Zn	1.614175	0.102787	0.187163
Zn5	Zn	0.995713	-0.279770	-0.307565
Zn6	Zn	1.495713	0.220230	0.192435
Zn7	Zn	0.990390	-0.397183	-0.436624
Zn8	Zn	1.490390	0.102817	0.063376
O9	O	1.054958	-0.338486	-0.372107
O10	O	1.554958	0.161514	0.127893
O11	O	1.222473	-0.295371	-0.415698
O12	O	1.722473	0.204629	0.084302
O13	O	1.098437	-0.381644	-0.208505
O14	O	1.598437	0.118356	0.291495
O15	O	1.016620	-0.181486	-0.319601
O16	O	1.516620	0.318514	0.180399
O17	O	1.218521	-0.381651	-0.328587
O18	O	1.718521	0.118349	0.171413
O19	O	1.107605	-0.181491	-0.410586
O20	O	1.607605	0.318509	0.089414
O21	O	1.011404	-0.295359	-0.204632
O22	O	1.511404	0.204641	0.295368
O23	O	0.891375	-0.295330	-0.324663
O24	O	1.391375	0.204670	0.175337
O25	O	1.007547	-0.381599	-0.539564
O26	O	1.507547	0.118401	-0.039564
O27	O	0.887464	-0.381592	-0.419482
O28	O	1.387464	0.118408	0.080518
O29	O	1.102443	-0.295342	-0.535729
O30	O	1.602443	0.204658	-0.035729
O31	O	1.093276	-0.495494	-0.333648
O32	O	1.593276	0.004506	0.166352
O33	O	1.002331	-0.495472	-0.424594
O34	O	1.502331	0.004528	0.075406
C35	C	0.862549	-0.338457	-0.372067
C36	C	1.362549	0.161543	0.127933
C37	C	0.780234	-0.338462	-0.372069
C38	C	1.280234	0.161538	0.127931
C39	C	0.481141	-0.338506	-0.372133
C40	C	0.981141	0.161494	0.127867
C41	C	0.514915	-0.283961	-0.312742
C42	C	1.014915	0.216039	0.187258
C43	C	0.600526	-0.284107	-0.312506
C44	C	1.100526	0.215893	0.187494
C45	C	0.629525	-0.338484	-0.372101
C46	C	1.129525	0.161516	0.127899
C47	C	0.595084	-0.412466	-0.354099
C48	C	1.095084	0.087534	0.145901
C49	C	0.509452	-0.412163	-0.353690
C50	C	1.009452	0.087837	0.146310
C51	C	0.513600	-0.319712	-0.449688
C52	C	1.013600	0.180288	0.050312
C53	C	0.599325	-0.318065	-0.449186
C54	C	1.099325	0.181935	0.050814
C55	C	0.713385	-0.338476	-0.372084
C56	C	1.213385	0.161524	0.127916
C57	C	0.397281	-0.338519	-0.372148
C58	C	0.897281	0.161481	0.127852
C59	C	1.046662	-0.520967	-0.380276
C60	C	1.546662	-0.020967	0.119724
C61	C	1.043181	-0.599034	-0.383795
C62	C	1.543181	-0.099034	0.116205
C63	C	1.088932	-0.635698	-0.338137
C64	C	1.588932	-0.135698	0.161863
C65	C	1.085662	-0.709049	-0.341451
C66	C	1.585662	-0.209049	0.158549
C67	C	1.036637	-0.745735	-0.390420
C68	C	1.536637	-0.245735	0.109580
C69	C	0.990884	-0.709066	-0.436083
C70	C	1.490884	-0.209066	0.063917
C71	C	0.994158	-0.635716	-0.432772
C72	C	1.494158	-0.135716	0.067228
C73	C	1.024385	-0.967206	-0.402788
C74	C	1.524385	-0.467206	0.097212
C75	C	1.021113	-1.040562	-0.406094
C76	C	1.521113	-0.540562	0.093906
C77	C	1.115892	-1.040539	-0.311462
C78	C	1.615892	-0.540539	0.188538
C79	C	1.119159	-0.967188	-0.308152
C80	C	1.619159	-0.467188	0.191848
C81	C	1.073408	-0.930525	-0.353818
C82	C	1.573408	-0.430525	0.146182
C83	C	1.033292	-0.820713	-0.393807
C84	C	1.533292	-0.320713	0.106193
C85	C	1.076758	-0.855549	-0.350434
C86	C	1.576758	-0.355549	0.149566
C87	C	1.248119	-0.338515	-0.372148
C88	C	1.748119	0.161485	0.127852
C89	C	1.330432	-0.338528	-0.372165
C90	C	1.830432	0.161472	0.127835
C91	C	1.055002	-0.338468	-0.565269
C92	C	1.555002	0.161532	-0.065269
C93	C	1.055020	-0.338461	-0.647582
C94	C	1.555020	0.161539	-0.147582
C95	C	1.063306	-0.155292	-0.363923
C96	C	1.563306	0.344708	0.136077
C97	C	1.066864	-0.077226	-0.360436
C98	C	1.566864	0.422774	0.139564
C99	C	1.055069	-0.338329	-0.946668
C100	C	1.555069	0.161671	-0.446668
C101	C	0.995174	-0.392427	-0.917747
C102	C	1.495174	0.107573	-0.417747
C103	C	0.995318	-0.392678	-0.832140
C104	C	1.495318	0.107322	-0.332140
C105	C	1.055044	-0.338394	-0.798288
C106	C	1.555044	0.161606	-0.298288
C107	C	1.132167	-0.358491	-0.830296
C108	C	1.632167	0.141509	-0.330296
C109	C	1.131831	-0.358846	-0.915957
C110	C	1.631831	0.141154	-0.415957
C111	C	1.038526	-0.264013	-0.911754
C112	C	1.538526	0.235987	-0.411754
C113	C	1.036771	-0.264443	-0.826122
C114	C	1.536771	0.235557	-0.326122
C115	C	1.055035	-0.338430	-0.714430
C116	C	1.555035	0.161570	-0.214430
C117	C	1.055084	-0.338295	-1.030526
C118	C	1.555084	0.161705	-0.530526
C119	C	1.054959	-0.338453	-0.179695
C120	C	1.554959	0.161547	0.320305
C121	C	1.055093	-0.338263	-0.097373
C122	C	1.555093	0.161737	0.402627
H123	H	0.496816	-0.228932	-0.323490
H124	H	0.996816	0.271068	0.176510
C125	C	0.623022	-0.434372	-0.278487
C126	C	1.123022	0.065628	0.221513
N127	N	0.644063	-0.450867	-0.221533
N128	N	1.144063	0.049133	0.278467
H129	H	0.993375	-0.850591	-0.433677
H130	H	1.493375	-0.350591	0.066323
C131	C	0.917916	-0.375685	-0.802961
C132	C	1.417916	0.124315	-0.302961
N133	N	0.859613	-0.362889	-0.780987
N134	N	1.359613	0.137111	-0.280987
C135	C	1.009694	-0.467099	-0.807809
C136	C	1.509694	0.032901	-0.307809
N137	N	1.020509	-0.523159	-0.789483
N138	N	1.520509	-0.023159	-0.289483
H139	H	0.956904	-0.605865	-0.469953
H140	H	1.456904	-0.105865	0.030047
H141	H	0.937700	-0.379979	-0.937774
H142	H	1.437700	0.120021	-0.437774
C143	C	0.481448	-0.433688	-0.277225
C144	C	0.981448	0.066312	0.222775
N145	N	0.460360	-0.449898	-0.219629
N146	N	0.960360	0.050102	0.280371
C147	C	0.487682	-0.248096	-0.472661
C148	C	0.987682	0.251904	0.027339
N149	N	0.468162	-0.194151	-0.489954
N150	N	0.968162	0.305849	0.010046
H151	H	0.987132	-0.937361	-0.439969
H152	H	1.487132	-0.437361	0.060031
H153	H	1.153140	-1.070398	-0.274285
H154	H	1.653140	-0.570398	0.225715
C155	C	1.091755	-0.207095	-0.794645
C156	C	1.591755	0.292905	-0.294645
N157	N	1.133171	-0.163901	-0.770931
N158	N	1.633171	0.336099	-0.270931
H159	H	1.005710	-0.447176	-0.941732
H160	H	1.505710	0.052824	-0.441732
C161	C	0.632282	-0.209989	-0.327224
C162	C	1.132282	0.290011	0.172776
N163	N	0.656197	-0.154159	-0.338306
N164	N	1.156197	0.345841	0.161694
C165	C	0.485046	-0.300543	-0.235464
C166	C	0.985046	0.199457	0.264536
N167	N	0.462547	-0.313035	-0.177258
N168	N	0.962547	0.186965	0.322742
H169	H	0.950970	-0.738942	-0.475958
H170	H	1.450970	-0.238942	0.024042
C171	C	0.478906	-0.468927	-0.409819
C172	C	0.978906	0.031073	0.090181
N173	N	0.455902	-0.511684	-0.452092
N174	N	0.955902	-0.011684	0.047908
H175	H	0.620422	-0.296530	-0.254971
H176	H	1.120422	0.203470	0.245029
C177	C	1.193931	-0.307939	-0.941692
C178	C	1.693931	0.192061	-0.441692
N179	N	1.240709	-0.269601	-0.961073
N180	N	1.740709	0.230399	-0.461073
C181	C	0.967184	-1.080915	-0.459971
C182	C	1.467184	-0.580915	0.040029
N183	N	0.926567	-1.111310	-0.500549
N184	N	1.426567	-0.611310	-0.000549
C185	C	1.173071	-0.926838	-0.254263
C186	C	1.673071	-0.426838	0.245737
N187	N	1.213670	-0.896447	-0.213665
N188	N	1.713670	-0.396447	0.286335
C189	C	1.130682	-0.815192	-0.296568
C190	C	1.630682	-0.315192	0.203432
N191	N	1.171295	-0.784789	-0.255993
N192	N	1.671295	-0.284789	0.244007
C193	C	0.630103	-0.244510	-0.467603
C194	C	1.130103	0.255490	0.032397
N195	N	0.653287	-0.189107	-0.481470
N196	N	1.153287	0.310893	0.018530
H197	H	1.128850	-0.605832	-0.298258
H198	H	1.628850	-0.105832	0.201742
C199	C	1.097518	-0.209562	-0.936698
C200	C	1.597518	0.290438	-0.436698
N201	N	1.141953	-0.168555	-0.955488
N202	N	1.641953	0.331445	-0.455488
C203	C	0.620072	-0.468844	-0.410897
C204	C	1.120072	0.031156	0.089103
N205	N	0.638898	-0.511307	-0.453676
N206	N	1.138898	-0.011307	0.046324
C207	C	1.151297	-0.432240	-0.946252
C208	C	1.651297	0.067760	-0.446252
N209	N	1.165957	-0.487522	-0.969066
N210	N	1.665957	0.012478	-0.469066
H211	H	0.980032	-0.249287	-0.805110
H212	H	1.480032	0.250713	-0.305110
H213	H	0.619076	-0.354899	-0.495539
H214	H	1.119076	0.145101	0.004461
C215	C	1.193882	-0.306937	-0.800491
C216	C	1.693882	0.193063	-0.300491
N217	N	1.240365	-0.268106	-0.778039
N218	N	1.740365	0.231894	-0.278039
H219	H	0.491559	-0.359441	-0.493899
H220	H	0.991559	0.140559	0.006101
H221	H	1.122917	-0.738898	-0.304271
H222	H	1.622917	-0.238898	0.195729
C223	C	1.152068	-0.431106	-0.804596
C224	C	1.652068	0.068894	-0.304596
N225	N	1.167052	-0.485801	-0.785240
N226	N	1.667052	0.014199	-0.285240
H227	H	0.983441	-0.245705	-0.932518
H228	H	1.483441	0.254295	-0.432518
