data_functionalizedCrystal
_audit_creation_method	'MofGen! by Chris Wilmer'
_symmetry_space_group_name_H-M	'P1'
_symmetry_Int_Tables_number	1
_symmetry_cell_setting	triclinic
loop_
_symmetry_equiv_pos_as_xyz
  x,y,z
_cell_length_a	17.077404
_cell_length_b	19.120786
_cell_length_c	17.077395
_cell_angle_alpha	87.529859
_cell_angle_beta	89.984359
_cell_angle_gamma	92.465349
loop_
_atom_site_label
_atom_site_type_symbol
_atom_site_fract_x
_atom_site_fract_y
_atom_site_fract_z
Zn1	Zn	1.186679	-0.279635	-0.430494
Zn2	Zn	1.520013	0.053699	-0.097160
Zn3	Zn	1.853346	0.387032	0.236173
Zn4	Zn	1.180989	-0.397096	-0.293620
Zn5	Zn	1.514323	-0.063763	0.039713
Zn6	Zn	1.847656	0.269571	0.373046
Zn7	Zn	1.055419	-0.279657	-0.299240
Zn8	Zn	1.388752	0.053676	0.034093
Zn9	Zn	1.722086	0.387010	0.367426
Zn10	Zn	1.049775	-0.397057	-0.424846
Zn11	Zn	1.383109	-0.063724	-0.091512
Zn12	Zn	1.716442	0.269610	0.241821
O13	O	1.118216	-0.338361	-0.362050
O14	O	1.451549	-0.005028	-0.028717
O15	O	1.784882	0.328305	0.304617
O16	O	1.295771	-0.295223	-0.412349
O17	O	1.629104	0.038110	-0.079015
O18	O	1.962438	0.371443	0.254318
O19	O	1.164313	-0.381543	-0.184518
O20	O	1.497646	-0.048210	0.148816
O21	O	1.830980	0.285124	0.482149
O22	O	1.077574	-0.181364	-0.321367
O23	O	1.410907	0.151970	0.011966
O24	O	1.744241	0.485303	0.345299
O25	O	1.291591	-0.381522	-0.311788
O26	O	1.624924	-0.048188	0.021545
O27	O	1.958257	0.285145	0.354878
O28	O	1.174010	-0.181347	-0.417798
O29	O	1.507344	0.151986	-0.084465
O30	O	1.840677	0.485319	0.248868
O31	O	1.072057	-0.295261	-0.188647
O32	O	1.405390	0.038072	0.144687
O33	O	1.738723	0.371406	0.478020
O34	O	0.944824	-0.295223	-0.315891
O35	O	1.278157	0.038110	0.017443
O36	O	1.611490	0.371444	0.350776
O37	O	1.067955	-0.381455	-0.535443
O38	O	1.401288	-0.048122	-0.202110
O39	O	1.734622	0.285212	0.131224
O40	O	0.940677	-0.381476	-0.408172
O41	O	1.274011	-0.048143	-0.074839
O42	O	1.607344	0.285190	0.258494
O43	O	1.168538	-0.295185	-0.539593
O44	O	1.501871	0.038148	-0.206259
O45	O	1.835205	0.371481	0.127074
O46	O	1.158841	-0.495381	-0.306312
O47	O	1.492174	-0.162048	0.027022
O48	O	1.825507	0.171285	0.360355
O49	O	1.062438	-0.495352	-0.402723
O50	O	1.395771	-0.162019	-0.069389
O51	O	1.729105	0.171314	0.263944
C52	C	0.914268	-0.338348	-0.362029
C53	C	1.247602	-0.005015	-0.028696
C54	C	1.580935	0.328318	0.304638
C55	C	0.827018	-0.338360	-0.362038
C56	C	1.160351	-0.005027	-0.028704
C57	C	1.493685	0.328307	0.304629
C58	C	0.783886	-0.383340	-0.410005
C59	C	1.117220	-0.050006	-0.076672
C60	C	1.450553	0.283327	0.256662
C61	C	0.701906	-0.383341	-0.410017
C62	C	1.035239	-0.050008	-0.076684
C63	C	1.368572	0.283325	0.256649
C64	C	0.663058	-0.338366	-0.362058
C65	C	0.996392	-0.005033	-0.028725
C66	C	1.329725	0.328301	0.304609
C67	C	0.706196	-0.293381	-0.314089
C68	C	1.039530	0.039952	0.019245
C69	C	1.372863	0.373286	0.352578
C70	C	0.788175	-0.293377	-0.314081
C71	C	1.121509	0.039957	0.019252
C72	C	1.454842	0.373290	0.352586
C73	C	0.535326	-0.293395	-0.314107
C74	C	0.868659	0.039938	0.019226
C75	C	1.201992	0.373272	0.352560
C76	C	0.453341	-0.293400	-0.314113
C77	C	0.786674	0.039933	0.019220
C78	C	1.120007	0.373266	0.352553
C79	C	0.449056	-0.383360	-0.410044
C80	C	0.782389	-0.050026	-0.076710
C81	C	1.115723	0.283307	0.256623
C82	C	0.531035	-0.383355	-0.410036
C83	C	0.864368	-0.050022	-0.076702
C84	C	1.197702	0.283312	0.256631
C85	C	0.574167	-0.338371	-0.362065
C86	C	0.907501	-0.005038	-0.028732
C87	C	1.240834	0.328296	0.304601
C88	C	1.109431	-0.520852	-0.353312
C89	C	1.442764	-0.187519	-0.019978
C90	C	1.776097	0.145814	0.313355
C91	C	1.105744	-0.598923	-0.349599
C92	C	1.439078	-0.265590	-0.016266
C93	C	1.772411	0.067744	0.317067
C94	C	1.154184	-0.635532	-0.398103
C95	C	1.487518	-0.302198	-0.064769
C96	C	1.820851	0.031135	0.268564
C97	C	1.150717	-0.708887	-0.394616
C98	C	1.484050	-0.375554	-0.061283
C99	C	1.817384	-0.042221	0.272050
C100	C	1.098814	-0.745633	-0.342622
C101	C	1.432147	-0.412299	-0.009289
C102	C	1.765480	-0.078966	0.324045
C103	C	1.050368	-0.709019	-0.294117
C104	C	1.383702	-0.375685	0.039217
C105	C	1.717035	-0.042352	0.372550
C106	C	1.053832	-0.635665	-0.297608
C107	C	1.387165	-0.302331	0.035726
C108	C	1.720499	0.031002	0.369059
C109	C	1.085842	-0.967119	-0.329571
C110	C	1.419176	-0.633785	0.003762
C111	C	1.752509	-0.300452	0.337096
C112	C	1.082384	-1.040478	-0.326082
C113	C	1.415717	-0.707145	0.007251
C114	C	1.749051	-0.373811	0.340585
C115	C	1.182732	-1.040341	-0.426583
C116	C	1.516065	-0.707008	-0.093250
C117	C	1.849399	-0.373675	0.240083
C118	C	1.186194	-0.966986	-0.430066
C119	C	1.519528	-0.633652	-0.096733
C120	C	1.852861	-0.300319	0.236600
C121	C	1.137746	-0.930378	-0.381564
C122	C	1.471080	-0.597045	-0.048231
C123	C	1.804413	-0.263712	0.285103
C124	C	1.095270	-0.820614	-0.339055
C125	C	1.428604	-0.487281	-0.005722
C126	C	1.761937	-0.153947	0.327612
C127	C	1.141286	-0.855398	-0.385135
C128	C	1.474620	-0.522065	-0.051802
C129	C	1.807953	-0.188732	0.281531
C130	C	1.322959	-0.338374	-0.362072
C131	C	1.656293	-0.005041	-0.028738
C132	C	1.989626	0.328292	0.304595
C133	C	1.410209	-0.338380	-0.362081
C134	C	1.743542	-0.005047	-0.028747
C135	C	2.076876	0.328287	0.304586
C136	C	1.118252	-0.338313	-0.566797
C137	C	1.451585	-0.004980	-0.233463
C138	C	1.784918	0.328353	0.099870
C139	C	1.118267	-0.338293	-0.654047
C140	C	1.451600	-0.004960	-0.320714
C141	C	1.784934	0.328374	0.012619
C142	C	1.127056	-0.155157	-0.370840
C143	C	1.460390	0.178176	-0.037506
C144	C	1.793723	0.511509	0.295827
C145	C	1.130824	-0.077087	-0.374585
C146	C	1.464157	0.256247	-0.041252
C147	C	1.797491	0.589580	0.292081
C148	C	1.170732	-0.293277	-1.032029
C149	C	1.504065	0.040056	-0.698695
C150	C	1.837399	0.373389	-0.365362
C151	C	1.170715	-0.293302	-0.950047
C152	C	1.504048	0.040031	-0.616713
C153	C	1.837382	0.373365	-0.283380
C154	C	1.118335	-0.338227	-0.906900
C155	C	1.451668	-0.004893	-0.573566
C156	C	1.785002	0.328440	-0.240233
C157	C	1.065974	-0.383135	-0.945738
C158	C	1.399307	-0.049802	-0.612405
C159	C	1.732641	0.283532	-0.279071
C160	C	1.065996	-0.383113	-1.027718
C161	C	1.399329	-0.049780	-0.694385
C162	C	1.732662	0.283553	-0.361051
C163	C	1.065931	-0.383176	-0.774866
C164	C	1.399265	-0.049842	-0.441533
C165	C	1.732598	0.283491	-0.108199
C166	C	1.065909	-0.383196	-0.692880
C167	C	1.399242	-0.049863	-0.359547
C168	C	1.732575	0.283470	-0.026214
C169	C	1.170651	-0.293364	-0.697195
C170	C	1.503984	0.039969	-0.363861
C171	C	1.837317	0.373303	-0.030528
C172	C	1.170672	-0.293342	-0.779175
C173	C	1.504006	0.039991	-0.445841
C174	C	1.837339	0.373324	-0.112508
C175	C	1.118310	-0.338250	-0.818008
C176	C	1.451644	-0.004917	-0.484674
C177	C	1.784977	0.328417	-0.151341
C178	C	1.118227	-0.338358	-0.158102
C179	C	1.451561	-0.005025	0.175231
C180	C	1.784894	0.328309	0.508564
C181	C	1.118374	-0.338180	-0.070861
C182	C	1.451707	-0.004847	0.262472
C183	C	1.785040	0.328486	0.595805
H184	H	0.562662	-0.419982	-0.449084
H185	H	0.895995	-0.086649	-0.115751
H186	H	1.229329	0.246685	0.217583
H187	H	0.666791	-0.419969	-0.449077
H188	H	1.000124	-0.086636	-0.115743
H189	H	1.333458	0.246698	0.217590
H190	H	0.674561	-0.256758	-0.275043
H191	H	1.007894	0.076575	0.058291
H192	H	1.341227	0.409908	0.391624
H193	H	1.014386	-0.605858	-0.258112
H194	H	1.347719	-0.272525	0.075221
H195	H	1.681053	0.060808	0.408555
H196	H	0.413934	-0.419985	-0.449105
H197	H	0.747267	-0.086652	-0.115772
H198	H	1.080600	0.246681	0.217561
H199	H	0.823293	-0.256746	-0.275025
H200	H	1.156626	0.076588	0.058308
H201	H	1.489959	0.409921	0.391641
H202	H	1.196453	-0.605619	-0.440439
H203	H	1.529786	-0.272285	-0.107105
H204	H	1.863120	0.061048	0.226228
C205	C	1.228291	-0.243921	-0.826635
C206	C	1.561625	0.089412	-0.493302
C207	C	1.894958	0.422745	-0.159969
N208	N	1.271693	-0.206698	-0.862382
N209	N	1.605026	0.126635	-0.529049
N210	N	1.938359	0.459968	-0.195716
C211	C	1.228254	-0.243970	-0.654477
C212	C	1.561588	0.089364	-0.321144
C213	C	1.894921	0.422697	0.012190
N214	N	1.271639	-0.206766	-0.622298
N215	N	1.604972	0.126567	-0.288965
N216	N	1.938306	0.459900	0.044368
C217	C	1.032529	-0.926860	-0.276234
C218	C	1.365863	-0.593526	0.057099
C219	C	1.699196	-0.260193	0.390432
N220	N	0.992365	-0.896534	-0.236065
N221	N	1.325698	-0.563201	0.097268
N222	N	1.659031	-0.229868	0.430601
H223	H	1.213352	-0.256739	-0.918433
H224	H	1.546686	0.076594	-0.585099
H225	H	1.880019	0.409928	-0.251766
H226	H	0.421714	-0.256769	-0.275070
H227	H	0.755047	0.076564	0.058263
H228	H	1.088381	0.409898	0.391596
C229	C	1.228356	-0.243856	-1.079483
C230	C	1.561689	0.089478	-0.746150
C231	C	1.895022	0.422811	-0.412816
N232	N	1.271762	-0.206632	-1.115224
N233	N	1.605095	0.126701	-0.781890
N234	N	1.938428	0.460035	-0.448557
H235	H	1.190168	-0.738691	-0.434107
H236	H	1.523502	-0.405358	-0.100774
H237	H	1.856835	-0.072024	0.232560
C238	C	1.243307	-0.926571	-0.487250
C239	C	1.576640	-0.593238	-0.153916
C240	C	1.909973	-0.259905	0.179417
N241	N	1.286332	-0.896131	-0.530314
N242	N	1.619665	-0.562798	-0.196981
N243	N	1.952998	-0.229464	0.136352
H244	H	1.183543	-0.825478	-0.427472
H245	H	1.516877	-0.492145	-0.094139
H246	H	1.850210	-0.158812	0.239195
C247	C	1.008299	-0.432626	-0.645419
C248	C	1.341632	-0.099293	-0.312086
C249	C	1.674965	0.234041	0.021247
N250	N	0.964909	-0.469861	-0.609672
N251	N	1.298243	-0.136527	-0.276338
N252	N	1.631576	0.196806	0.056995
H253	H	1.222175	-1.070155	-0.466072
H254	H	1.555508	-0.736822	-0.132739
H255	H	1.888842	-0.403489	0.200595
H256	H	1.023329	-0.419717	-0.910601
H257	H	1.356662	-0.086383	-0.577268
H258	H	1.689995	0.246950	-0.243934
H259	H	1.023295	-0.419746	-0.806481
H260	H	1.356628	-0.086413	-0.473147
H261	H	1.689961	0.246921	-0.139814
H262	H	1.023361	-0.419679	-1.059335
H263	H	1.356694	-0.086345	-0.726001
H264	H	1.690027	0.246988	-0.392668
H265	H	1.053012	-0.850540	-0.296719
H266	H	1.386346	-0.517207	0.036614
H267	H	1.719679	-0.183874	0.369948
H268	H	0.570442	-0.256758	-0.275052
H269	H	0.903775	0.076575	0.058282
H270	H	1.237108	0.409909	0.391615
H271	H	1.040114	-1.070394	-0.283741
H272	H	1.373447	-0.737061	0.049592
H273	H	1.706781	-0.403727	0.382925
H274	H	0.815510	-0.419966	-0.449057
H275	H	1.148843	-0.086633	-0.115723
H276	H	1.482176	0.246700	0.217610
C277	C	0.993321	-0.749441	-0.236874
C278	C	1.326655	-0.416108	0.096459
C279	C	1.659988	-0.082775	0.429792
N280	N	0.950372	-0.779887	-0.193739
N281	N	1.283705	-0.446554	0.139595
N282	N	1.617039	-0.113220	0.472928
