data_functionalizedCrystal
_audit_creation_method	'MofGen! by Chris Wilmer'
_symmetry_space_group_name_H-M	'P1'
_symmetry_Int_Tables_number	1
_symmetry_cell_setting	triclinic
loop_
_symmetry_equiv_pos_as_xyz
  x,y,z
_cell_length_a	9.616153
_cell_length_b	14.044220
_cell_length_c	14.044220
_cell_angle_alpha	93.188878
_cell_angle_beta	89.997039
_cell_angle_gamma	89.997882
loop_
_atom_site_label
_atom_site_type_symbol
_atom_site_fract_x
_atom_site_fract_y
_atom_site_fract_z
O1	O	0.115503	-1.277171	-0.230164
O2	O	0.115538	-1.000500	-0.221858
O3	O	0.115508	-1.134683	-0.087675
O4	O	0.115534	-1.142988	-0.364347
O5	O	-0.115784	-1.134663	-0.087677
O6	O	-0.115753	-1.000480	-0.221860
O7	O	-0.115788	-1.277152	-0.230165
Zn8	Zn	-0.152493	-1.138813	-0.226013
Zn9	Zn	0.152243	-1.138839	-0.226011
O10	O	-0.115757	-1.142969	-0.364348
C11	C	-0.000103	-0.964868	-0.218223
C12	C	-0.000090	-0.858725	-0.207379
N13	N	-0.360468	-1.138802	-0.226014
C14	C	-0.000138	-1.131037	-0.052054
C15	C	-0.000139	-1.120193	0.054088
C16	C	-0.580821	-1.066766	-0.297515
C17	C	-0.419654	-1.066959	-0.297818
C18	C	-0.418927	-1.240260	-0.256196
C19	C	-0.580145	-1.239877	-0.256712
C20	C	-0.580386	-1.110354	-0.124153
C21	C	-0.419159	-1.108113	-0.124630
N22	N	0.360218	-1.138857	-0.226003
C23	C	-0.000144	-1.312783	-0.233800
C24	C	-0.000148	-1.418926	-0.244645
C25	C	-0.000120	-0.664388	-0.187553
C26	C	-0.000118	-0.613258	-0.264467
C27	C	-0.000135	-0.505122	-0.253435
C28	C	-0.000103	-0.772534	-0.198583
C29	C	-0.000109	-1.146614	-0.399969
C30	C	-0.000099	-1.157459	-0.506112
C31	C	-0.000116	-1.100366	0.248426
C32	C	-0.000122	-1.177281	0.299556
C33	C	-0.000109	-1.166249	0.407692
C34	C	-0.000129	-1.111397	0.140280
H35	H	-0.619624	-0.991406	-0.278481
N36	N	-0.634278	-1.013867	-0.088494
H37	H	-0.594874	-0.996980	-0.023061
H38	H	-0.739120	-1.015844	-0.084813
H39	H	-0.380131	-0.991816	-0.278592
H40	H	-0.000134	-0.626951	-0.113425
H41	H	-0.000104	-0.650697	-0.338600
H42	H	-0.000038	-1.251414	0.262117
N43	N	-0.000102	-1.002172	0.298008
H44	H	-0.000099	-1.008113	0.369348
H45	H	-0.085847	-0.966358	0.278884
N46	N	-0.631815	-1.313654	-0.190939
H47	H	-0.736845	-1.313982	-0.190764
H48	H	-0.596619	-1.297680	-0.124202
H49	H	-0.621315	-1.085632	-0.372487
H50	H	-0.381069	-1.086031	-0.373224
H51	H	-0.617729	-1.263706	-0.331248
H52	H	-0.618514	-1.162827	-0.070837
N53	N	-0.368159	-1.313478	-0.189509
H54	H	-0.306625	-1.281508	-0.138972
H55	H	-0.313475	-1.364348	-0.226836
N56	N	-0.365425	-1.272294	-0.353870
H57	H	-0.303334	-1.221243	-0.378711
H58	H	-0.446536	-1.283848	-0.398713
H59	H	-0.378875	-1.156557	-0.068270
H60	H	-0.380951	-1.033437	-0.101921
