data_functionalizedCrystal
_audit_creation_method	'MofGen! by Chris Wilmer'
_symmetry_space_group_name_H-M	'P1'
_symmetry_Int_Tables_number	1
_symmetry_cell_setting	triclinic
loop_
_symmetry_equiv_pos_as_xyz
  x,y,z
_cell_length_a	21.395364
_cell_length_b	16.625545
_cell_length_c	21.395355
_cell_angle_alpha	89.983814
_cell_angle_beta	89.975448
_cell_angle_gamma	90.040509
loop_
_atom_site_label
_atom_site_type_symbol
_atom_site_fract_x
_atom_site_fract_y
_atom_site_fract_z
Zn1	Zn	0.957882	-0.320773	-0.354272
Zn2	Zn	1.457882	0.179227	0.145728
Zn3	Zn	0.957794	-0.455588	-0.249498
Zn4	Zn	1.457794	0.044412	0.250502
Zn5	Zn	0.853097	-0.320809	-0.249508
Zn6	Zn	1.353097	0.179191	0.250492
Zn7	Zn	0.853075	-0.455603	-0.354239
Zn8	Zn	1.353075	0.044397	0.145761
O9	O	0.905462	-0.388193	-0.301879
O10	O	1.405462	0.111807	0.198121
O11	O	1.045548	-0.338636	-0.340383
O12	O	1.545548	0.161364	0.159617
O13	O	0.943877	-0.437718	-0.161822
O14	O	1.443877	0.062282	0.338178
O15	O	0.867042	-0.207972	-0.263423
O16	O	1.367042	0.292028	0.236577
O17	O	1.045483	-0.437684	-0.263406
O18	O	1.545483	0.062316	0.236594
O19	O	0.944027	-0.207946	-0.340393
O20	O	1.444027	0.292054	0.159607
O21	O	0.866957	-0.338696	-0.161829
O22	O	1.366957	0.161304	0.338171
O23	O	0.765416	-0.338710	-0.263391
O24	O	1.265416	0.161290	0.236609
O25	O	0.867006	-0.437709	-0.441921
O26	O	1.367006	0.062291	0.058079
O27	O	0.765400	-0.437743	-0.340336
O28	O	1.265400	0.062257	0.159664
O29	O	0.944007	-0.338650	-0.441945
O30	O	1.444007	0.161350	0.058055
O31	O	0.943857	-0.568423	-0.263374
O32	O	1.443857	-0.068423	0.236626
O33	O	0.866920	-0.568433	-0.340327
O34	O	1.366920	-0.068433	0.159673
C35	C	0.742674	-0.388233	-0.301862
C36	C	1.242674	0.111767	0.198138
C37	C	0.673033	-0.388269	-0.301869
C38	C	1.173033	0.111731	0.198131
C39	C	0.640376	-0.336779	-0.342013
C40	C	1.140376	0.163221	0.157987
C41	C	0.574940	-0.336757	-0.342015
C42	C	1.074940	0.163243	0.157985
C43	C	0.542165	-0.388240	-0.301880
C44	C	1.042165	0.111760	0.198120
C45	C	0.574829	-0.439734	-0.261729
C46	C	1.074829	0.060266	0.238271
C47	C	0.640264	-0.439748	-0.261723
C48	C	1.140264	0.060252	0.238277
C49	C	0.438445	-0.460853	-0.296845
C50	C	0.938445	0.039147	0.203155
C51	C	0.373012	-0.460840	-0.296855
C52	C	0.873012	0.039160	0.203145
C53	C	0.340344	-0.388196	-0.301894
C54	C	0.840344	0.111804	0.198106
C55	C	0.373116	-0.315562	-0.306936
C56	C	0.873116	0.184438	0.193064
C57	C	0.438550	-0.315577	-0.306931
C58	C	0.938550	0.184423	0.193069
C59	C	0.471212	-0.388230	-0.301882
C60	C	0.971212	0.111770	0.198118
C61	C	0.236734	-0.336678	-0.342043
C62	C	0.736734	0.163322	0.157957
C63	C	0.171298	-0.336656	-0.342041
C64	C	0.671298	0.163344	0.157959
C65	C	0.171188	-0.439639	-0.261758
C66	C	0.671188	0.060361	0.238242
C67	C	0.236623	-0.439655	-0.261757
C68	C	0.736623	0.060345	0.238243
C69	C	0.269393	-0.388176	-0.301902
C70	C	0.769393	0.111824	0.198098
C71	C	0.905394	-0.597684	-0.301860
C72	C	1.405394	-0.097684	0.198140
C73	C	0.905422	-0.687305	-0.301872
C74	C	1.405422	-0.187305	0.198128
C75	C	0.905446	-0.760088	-0.301884
C76	C	1.405446	-0.260088	0.198116
C77	C	0.905483	-0.851396	-0.301898
C78	C	1.405483	-0.351396	0.198102
C79	C	0.905515	-0.924173	-0.301906
C80	C	1.405515	-0.424173	0.198094
C81	C	0.905551	-1.015487	-0.301919
C82	C	1.405551	-0.515487	0.198081
C83	C	1.068885	-0.388155	-0.301897
C84	C	1.568885	0.111845	0.198103
C85	C	1.138526	-0.388138	-0.301905
C86	C	1.638526	0.111862	0.198095
C87	C	0.905514	-0.388177	-0.465303
C88	C	1.405514	0.111823	0.034697
C89	C	0.905536	-0.388170	-0.534944
C90	C	1.405536	0.111830	-0.034944
C91	C	0.905547	-0.177884	-0.301913
C92	C	1.405547	0.322116	0.198087
C93	C	0.905584	-0.088263	-0.301927
C94	C	1.405584	0.411737	0.198073
C95	C	0.945629	-0.336588	-0.567671
C96	C	1.445629	0.163412	-0.067671
C97	C	0.945628	-0.336553	-0.633106
C98	C	1.445628	0.163447	-0.133106
C99	C	0.905541	-0.388115	-0.665812
C100	C	1.405541	0.111885	-0.165812
C101	C	0.865440	-0.439701	-0.633078
C102	C	1.365440	0.060299	-0.133078
C103	C	0.865438	-0.439728	-0.567643
C104	C	1.365438	0.060272	-0.067643
C105	C	0.900570	-0.460717	-0.769480
C106	C	1.400570	0.039283	-0.269480
C107	C	0.900577	-0.460691	-0.834913
C108	C	1.400577	0.039309	-0.334913
C109	C	0.905545	-0.388030	-0.867633
C110	C	1.405545	0.111970	-0.367633
C111	C	0.910519	-0.315392	-0.834912
C112	C	1.410519	0.184608	-0.334912
C113	C	0.910516	-0.315420	-0.769478
C114	C	1.410516	0.184580	-0.269478
C115	C	0.905539	-0.388091	-0.736765
C116	C	1.405539	0.111909	-0.236765
C117	C	0.945638	-0.336406	-0.971312
C118	C	1.445638	0.163594	-0.471312
C119	C	0.945633	-0.336370	-1.036749
C120	C	1.445633	0.163630	-0.536749
C121	C	0.865449	-0.439524	-1.036719
C122	C	1.365449	0.060476	-0.536719
C123	C	0.865451	-0.439553	-0.971284
C124	C	1.365451	0.060447	-0.471284
C125	C	0.905549	-0.387995	-0.938584
C126	C	1.405549	0.112005	-0.438584
C127	C	0.905446	-0.388151	-0.139092
C128	C	1.405446	0.111849	0.360908
C129	C	0.905545	-0.387931	-0.069451
C130	C	1.405545	0.112069	0.430549
H131	H	0.465231	-0.256436	-0.311034
H132	H	0.965231	0.243564	0.188966
Cl133	Cl	0.681568	-0.272060	-0.392480
Cl134	Cl	1.181568	0.227940	0.107520
H135	H	0.978285	-0.294420	-0.944687
H136	H	1.478285	0.205580	-0.444687
Cl137	Cl	0.815049	-0.504407	-0.930139
Cl138	Cl	1.315049	-0.004407	-0.430139
Cl139	Cl	0.332055	-0.224231	-0.313271
Cl140	Cl	0.832055	0.275769	0.186729
H141	H	0.978279	-0.294604	-0.541051
H142	H	1.478279	0.205396	-0.041051
H143	H	0.263416	-0.294756	-0.374728
H144	H	0.763416	0.205244	0.125272
Cl145	Cl	0.130242	-0.271916	-0.392509
Cl146	Cl	0.630242	0.228084	0.107491
Cl147	Cl	0.815048	-0.504339	-1.077830
Cl148	Cl	1.315048	-0.004339	-0.577830
Cl149	Cl	0.277680	-0.504385	-0.211285
Cl150	Cl	0.777680	-0.004385	0.288715
H151	H	0.144503	-0.481557	-0.229079
H152	H	0.644503	0.018443	0.270921
Cl153	Cl	0.331819	-0.552151	-0.290527
Cl154	Cl	0.831819	-0.052151	0.209473
Cl155	Cl	0.479507	-0.552185	-0.290501
Cl156	Cl	0.979507	-0.052185	0.209499
H157	H	0.666853	-0.481679	-0.229033
H158	H	1.166853	0.018321	0.270967
H159	H	0.548139	-0.481651	-0.229051
H160	H	1.048139	0.018349	0.270949
H161	H	0.896530	-0.519837	-0.861549
H162	H	1.396530	-0.019837	-0.361549
Cl163	Cl	0.815043	-0.504518	-0.674193
Cl164	Cl	1.315043	-0.004518	-0.174193
H165	H	0.978275	-0.294545	-0.659757
H166	H	1.478275	0.205455	-0.159757
Cl167	Cl	0.916765	-0.224109	-0.728345
Cl168	Cl	1.416765	0.275891	-0.228345
H169	H	0.978281	-0.294361	-1.063394
H170	H	1.478281	0.205639	-0.563394
Cl171	Cl	0.916767	-0.224040	-0.876038
Cl172	Cl	1.416767	0.275960	-0.376038
Cl173	Cl	0.815032	-0.504580	-0.526499
Cl174	Cl	1.315032	-0.004580	-0.026499
Cl175	Cl	0.533877	-0.272021	-0.392484
Cl176	Cl	1.033877	0.227979	0.107516
Cl177	Cl	0.894343	-0.552075	-0.728353
Cl178	Cl	1.394343	-0.052075	-0.228353
