data_functionalizedCrystal
_audit_creation_method	'MofGen! by Chris Wilmer'
_symmetry_space_group_name_H-M	'P1'
_symmetry_Int_Tables_number	1
_symmetry_cell_setting	triclinic
loop_
_symmetry_equiv_pos_as_xyz
  x,y,z
_cell_length_a	18.215407
_cell_length_b	14.908326
_cell_length_c	18.215399
_cell_angle_alpha	86.672976
_cell_angle_beta	90.017368
_cell_angle_gamma	86.680216
loop_
_atom_site_label
_atom_site_type_symbol
_atom_site_fract_x
_atom_site_fract_y
_atom_site_fract_z
Zn1	Zn	1.108154	0.359257	0.399141
Zn2	Zn	1.608154	0.859257	0.899141
Zn3	Zn	1.100957	0.510136	0.268966
Zn4	Zn	1.600957	1.010136	0.768966
Zn5	Zn	0.985086	0.359278	0.276093
Zn6	Zn	1.485086	0.859278	0.776093
Zn7	Zn	0.977950	0.510078	0.391999
Zn8	Zn	1.477950	1.010078	0.891999
O9	O	1.043037	0.434687	0.334050
O10	O	1.543037	0.934687	0.834050
O11	O	1.210183	0.379286	0.381880
O12	O	1.710183	0.879286	0.881880
O13	O	1.085561	0.490158	0.166926
O14	O	1.585561	0.990158	0.666926
O15	O	1.007409	0.233021	0.298387
O16	O	1.507409	0.733021	0.798387
O17	O	1.204895	0.490137	0.286241
O18	O	1.704895	0.990137	0.786241
O19	O	1.097827	0.233005	0.388790
O20	O	1.597827	0.733005	0.888790
O21	O	1.000431	0.379323	0.172162
O22	O	1.500431	0.879323	0.672162
O23	O	0.881155	0.379267	0.291462
O24	O	1.381155	0.879267	0.791462
O25	O	0.995247	0.490038	0.495932
O26	O	1.495247	0.990038	0.995932
O27	O	0.875913	0.490059	0.376617
O28	O	1.375913	0.990059	0.876617
O29	O	1.090908	0.379230	0.501180
O30	O	1.590908	0.879230	1.001180
O31	O	1.078642	0.636383	0.279315
O32	O	1.578642	1.136383	0.779315
O33	O	0.988269	0.636340	0.369707
O34	O	1.488269	1.136340	0.869707
C35	C	0.851832	0.434660	0.334038
C36	C	1.351832	0.934660	0.834038
C37	C	0.770032	0.434670	0.334050
C38	C	1.270032	0.934670	0.834050
C39	C	0.584585	0.377068	0.383918
C40	C	1.084585	0.877068	0.883918
C41	C	0.507726	0.377076	0.383920
C42	C	1.007726	0.877076	0.883920
C43	C	0.502239	0.492332	0.284194
C44	C	1.002239	0.992332	0.784194
C45	C	0.579097	0.492319	0.284189
C46	C	1.079097	0.992319	0.784189
C47	C	0.620268	0.434688	0.334055
C48	C	1.120268	0.934688	0.834055
C49	C	0.466551	0.434709	0.334062
C50	C	0.966551	0.934709	0.834062
C51	C	0.383217	0.434718	0.334064
C52	C	0.883217	0.934718	0.834064
C53	C	0.703607	0.434678	0.334052
C54	C	1.203607	0.934678	0.834052
C55	C	1.031920	0.669098	0.322979
C56	C	1.531920	1.169098	0.822979
C57	C	1.027232	0.769380	0.318267
C58	C	1.527232	1.269380	0.818267
C59	C	1.112503	0.957653	0.403651
C60	C	1.612503	1.457653	0.903651
C61	C	1.108100	1.051877	0.399227
C62	C	1.608100	1.551877	0.899227
C63	C	1.014021	1.052052	0.304998
C64	C	1.514021	1.552052	0.804998
C65	C	1.018423	0.957829	0.309423
C66	C	1.518423	1.457829	0.809423
C67	C	1.067667	0.910632	0.358750
C68	C	1.567667	1.410632	0.858750
C69	C	1.072073	0.816407	0.363170
C70	C	1.572073	1.316407	0.863170
C71	C	0.977990	0.816584	0.268946
C72	C	1.477990	1.316584	0.768946
C73	C	0.973588	0.910808	0.264521
C74	C	1.473588	1.410808	0.764521
C75	C	1.234988	0.434716	0.334062
C76	C	1.734988	0.934716	0.834062
C77	C	1.316787	0.434728	0.334067
C78	C	1.816787	0.934728	0.834067
C79	C	1.043084	0.434625	0.526006
C80	C	1.543084	0.934625	1.026006
C81	C	1.043105	0.434599	0.607806
C82	C	1.543105	0.934599	1.107806
C83	C	1.054187	1.199362	0.345175
C84	C	1.554187	1.699362	0.845175
C85	C	1.058862	1.099080	0.349901
C86	C	1.558862	1.599080	0.849901
C87	C	1.043034	0.434684	0.142844
C88	C	1.543034	0.934684	0.642844
C89	C	1.043169	0.434457	0.061056
C90	C	1.543169	0.934457	0.561056
C91	C	1.092935	0.376847	0.798736
C92	C	1.592935	0.876847	1.298736
C93	C	1.092945	0.376821	0.875596
C94	C	1.592945	0.876821	1.375596
C95	C	0.993334	0.492211	0.870120
C96	C	1.493334	0.992211	1.370120
C97	C	0.993321	0.492232	0.793262
C98	C	1.493321	0.992232	1.293262
C99	C	1.043125	0.434551	0.757572
C100	C	1.543125	0.934551	1.257572
C101	C	1.043148	0.434504	0.911290
C102	C	1.543148	0.934504	1.411290
C103	C	1.043159	0.434476	0.994625
C104	C	1.543159	0.934476	1.494625
C105	C	1.043114	0.434578	0.674231
C106	C	1.543114	0.934578	1.174231
H107	H	0.608151	0.539241	0.243580
H108	H	1.108151	1.039241	0.743580
H109	H	0.468709	0.539253	0.243595
H110	H	0.968709	1.039253	0.743595
H111	H	0.952786	0.539174	0.899189
H112	H	1.452786	1.039174	1.399189
H113	H	1.133487	0.329877	0.769679
H114	H	1.633487	0.829877	1.269679
H115	H	0.952755	0.539221	0.759745
H116	H	1.452755	1.039221	1.259745
O117	O	1.125187	0.765496	0.416366
O118	O	1.625187	1.265496	0.916366
H119	H	1.155620	0.814027	0.446848
H120	H	1.655620	1.314027	0.946848
O121	O	0.469236	0.314931	0.437701
O122	O	0.969236	0.814931	0.937701
H123	H	0.510779	0.274862	0.472376
H124	H	1.010779	0.774862	0.972376
H125	H	1.133503	0.329830	0.909109
H126	H	1.633503	0.829830	1.409109
H127	H	1.152604	0.919225	0.443811
H128	H	1.652604	1.419225	0.943811
H129	H	1.144607	1.090158	0.435794
H130	H	1.644607	1.590158	0.935794
O131	O	0.628995	0.314901	0.437689
O132	O	1.128995	0.814901	0.937689
H133	H	0.591267	0.274828	0.472356
H134	H	1.091267	0.774828	0.972356
H135	H	0.933493	0.949248	0.224362
H136	H	1.433493	1.449248	0.724362
O137	O	0.960922	1.102963	0.251787
O138	O	1.460922	1.602963	0.751787
H139	H	0.965402	1.176381	0.256251
H140	H	1.465402	1.676381	0.756251
O141	O	0.929624	0.765872	0.220513
O142	O	1.429624	1.265872	0.720513
H143	H	0.940953	0.692422	0.231877
H144	H	1.440953	1.192422	0.731877
