data_functionalizedCrystal
_audit_creation_method	'MofGen! by Chris Wilmer'
_symmetry_space_group_name_H-M	'P1'
_symmetry_Int_Tables_number	1
_symmetry_cell_setting	triclinic
loop_
_symmetry_equiv_pos_as_xyz
  x,y,z
_cell_length_a	10.065875
_cell_length_b	11.026607
_cell_length_c	10.967961
_cell_angle_alpha	96.380989
_cell_angle_beta	93.077398
_cell_angle_gamma	100.697662
loop_
_atom_site_label
_atom_site_type_symbol
_atom_site_fract_x
_atom_site_fract_y
_atom_site_fract_z
O1	O	-0.229756	-1.650233	-0.494395
O2	O	-0.216145	-1.294315	-0.436508
O3	O	-0.181883	-1.474050	-0.290840
O4	O	-0.264019	-1.470498	-0.640063
O5	O	0.038539	-1.439783	-0.318760
O6	O	0.004277	-1.260048	-0.464428
O7	O	-0.009334	-1.615967	-0.522314
Zn8	Zn	0.032468	-1.432567	-0.497804
Zn9	Zn	-0.257948	-1.477715	-0.461019
O10	O	-0.043597	-1.436232	-0.667982
C11	C	-0.103423	-1.231489	-0.439789
C12	C	-0.095938	-1.095338	-0.407954
N13	N	0.230668	-1.401764	-0.522910
C14	C	-0.060996	-1.454069	-0.259396
C15	C	-0.029185	-1.445569	-0.124106
N16	N	-0.456146	-1.508527	-0.435905
C17	C	0.310952	-1.466989	-0.469744
C18	C	0.463572	-1.443292	-0.489078
C19	C	-0.122059	-1.678793	-0.519033
C20	C	-0.129554	-1.814945	-0.550867
C21	C	-0.116612	-1.025500	-0.495854
C22	C	-0.108876	-0.884781	-0.462954
C23	C	-0.164486	-1.456213	-0.699426
C24	C	-0.196306	-1.464714	-0.834715
C25	C	-0.096309	-1.450752	0.090503
C26	C	-0.129197	-1.459534	-0.049326
H27	H	0.266702	-1.540371	-0.409908
F28	F	0.047419	-1.426614	0.142121
H29	H	0.507820	-1.369897	-0.548907
H30	H	-0.140033	-1.069887	-0.595467
H31	H	0.274923	-1.328373	-0.582735
F32	F	-0.160163	-0.872946	-0.681080
H33	H	0.499608	-1.581913	-0.376065
F34	F	-0.065306	-1.037325	-0.277752
H35	H	-0.085480	-0.840404	-0.363331
H36	H	-0.239162	-1.477981	-0.088815
F37	F	0.114551	-1.421441	-0.072497
F38	F	-0.340033	-1.488828	0.113668
