data_functionalizedCrystal
_audit_creation_method	'MofGen! by Chris Wilmer'
_symmetry_space_group_name_H-M	'P1'
_symmetry_Int_Tables_number	1
_symmetry_cell_setting	triclinic
loop_
_symmetry_equiv_pos_as_xyz
  x,y,z
_cell_length_a	11.026607
_cell_length_b	14.853567
_cell_length_c	10.065875
_cell_angle_alpha	98.782903
_cell_angle_beta	79.285365
_cell_angle_gamma	96.110474
loop_
_atom_site_label
_atom_site_type_symbol
_atom_site_fract_x
_atom_site_fract_y
_atom_site_fract_z
O1	O	1.593018	0.387957	0.113465
O2	O	1.239638	0.344958	0.113470
O3	O	1.425767	0.236751	0.113472
O4	O	1.406889	0.496164	0.113464
O5	O	1.461324	0.216071	-0.113517
O6	O	1.275195	0.324277	-0.113518
O7	O	1.628575	0.367276	-0.113523
Zn8	Zn	1.457530	0.342493	-0.149560
Zn9	Zn	1.410683	0.369741	0.149507
O10	O	1.442446	0.475483	-0.113525
C11	C	1.212193	0.326685	-0.000023
C12	C	1.077438	0.303037	-0.000021
C13	C	1.442689	0.192685	-0.000018
C14	C	1.440124	0.092188	-0.000007
C15	C	1.003743	0.368333	-0.000022
C16	C	0.864467	0.343893	-0.000019
C17	C	1.318728	-0.339937	-0.000031
C18	C	1.539853	-0.325537	-0.000034
C19	C	1.542262	-0.231114	-0.000026
C20	C	1.432902	-0.191098	-0.000022
C21	C	1.321134	-0.245505	-0.000027
C22	C	1.654031	-0.176701	-0.000035
C23	C	1.656445	-0.082272	-0.000029
C24	C	1.547082	-0.042253	-0.000016
C25	C	1.435309	-0.096666	-0.000019
C26	C	1.325949	-0.056650	-0.000015
C27	C	1.214173	-0.111061	-0.000008
C28	C	1.211771	-0.205487	-0.000014
C29	C	1.549484	0.052172	-0.000010
C30	C	1.328355	0.037781	-0.000011
C31	C	1.656020	0.385550	-0.000027
C32	C	1.790773	0.409198	-0.000020
C33	C	1.425523	0.519550	-0.000031
C34	C	1.428087	0.620047	-0.000034
N35	N	1.489512	0.323898	-0.353665
N36	N	1.378711	0.388331	0.353612
C37	C	1.446414	0.348968	0.421392
C38	C	1.421799	0.363267	0.578559
H39	H	0.824451	0.269897	0.000018
H40	H	1.628890	-0.358125	-0.000048
O41	O	1.103136	-0.258283	0.000227
C42	C	1.018032	-0.228875	0.117771
H43	H	1.070509	-0.191220	0.199942
H44	H	0.960126	-0.290650	0.157224
H45	H	0.954646	-0.180978	0.091199
O46	O	1.330759	0.416026	0.647975
C47	C	1.215989	0.378679	0.613187
H48	H	1.232233	0.334549	0.509394
H49	H	1.157085	0.436325	0.608465
H50	H	1.165843	0.334963	0.693570
O51	O	1.222229	0.076737	-0.000188
C52	C	1.235401	0.120196	-0.117765
H53	H	1.337894	0.137021	-0.156966
H54	H	1.186158	0.185958	-0.091323
H55	H	1.192803	0.072752	-0.200079
H56	H	0.830784	0.483197	-0.000032
O57	O	1.287949	0.441304	0.423121
C58	C	1.313265	0.530628	0.388299
H59	H	1.416580	0.543298	0.348925
H60	H	1.284746	0.582130	0.482344
H61	H	1.258940	0.538687	0.305471
O62	O	1.029615	0.214795	0.000226
C63	C	0.938775	0.207952	0.117769
H64	H	0.956015	0.267399	0.199933
H65	H	0.943704	0.140693	0.157234
H66	H	0.843153	0.210227	0.091189
H67	H	1.125134	-0.078469	-0.000015
O68	O	1.765009	-0.029438	0.000217
C69	C	1.813278	-0.037452	0.117757
H70	H	1.735051	-0.060141	0.199919
H71	H	1.858832	0.031503	0.157228
H72	H	1.884982	-0.090197	0.091172
O73	O	1.210268	-0.392923	-0.000086
C74	C	1.231578	-0.484845	-0.000049
H75	H	1.332999	-0.495475	-0.043024
H76	H	1.170372	-0.531330	-0.065946
H77	H	1.208595	-0.502059	0.108851
O78	O	1.580253	0.270939	0.576713
C79	C	1.528020	0.197271	0.494015
H80	H	1.425568	0.184098	0.537158
H81	H	1.577675	0.133477	0.492237
H82	H	1.538581	0.214668	0.385779
O83	O	1.051300	0.456659	0.000156
C84	C	0.993336	0.510531	0.117732
H85	H	0.899285	0.475361	0.156931
H86	H	0.980169	0.580396	0.091291
H87	H	1.053682	0.519401	0.200049
H88	H	1.640491	0.096469	-0.000025
O89	O	1.760183	-0.215595	0.000196
C90	C	1.746979	-0.259095	0.117738
H91	H	1.672103	-0.227231	0.199912
H92	H	1.838561	-0.250216	0.157189
H93	H	1.719600	-0.335012	0.091163
H94	H	1.522606	0.304686	0.363068
