data_functionalizedCrystal
_audit_creation_method	'MofGen! by Chris Wilmer'
_symmetry_space_group_name_H-M	'P1'
_symmetry_Int_Tables_number	1
_symmetry_cell_setting	triclinic
loop_
_symmetry_equiv_pos_as_xyz
  x,y,z
_cell_length_a	19.077442
_cell_length_b	19.077105
_cell_length_c	19.077314
_cell_angle_alpha	90.107753
_cell_angle_beta	85.474053
_cell_angle_gamma	94.666026
loop_
_atom_site_label
_atom_site_type_symbol
_atom_site_fract_x
_atom_site_fract_y
_atom_site_fract_z
Zn1	Zn	-0.306099	-1.071044	-0.428651
Zn2	Zn	-0.429097	-1.080810	-0.306410
Zn3	Zn	-0.306488	-0.958275	-0.306427
Zn4	Zn	-0.419585	-0.958238	-0.419531
O5	O	-0.365317	-1.017092	-0.365255
O6	O	-0.326233	-1.170830	-0.416245
O7	O	-0.416977	-1.068659	-0.207920
O8	O	-0.207630	-0.969163	-0.326464
O9	O	-0.416599	-1.178006	-0.326436
O10	O	-0.207344	-1.052013	-0.416261
O11	O	-0.326897	-0.978633	-0.207932
O12	O	-0.317673	-0.859779	-0.317621
O13	O	-0.400387	-0.969099	-0.519233
O14	O	-0.400765	-0.859752	-0.400718
O15	O	-0.317009	-1.051977	-0.525933
O16	O	-0.526642	-1.068622	-0.317593
O17	O	-0.519654	-0.978569	-0.400702
C18	C	-0.358229	-0.834228	-0.358182
C19	C	-0.355213	-0.755998	-0.355172
C20	C	-0.548768	-1.024670	-0.358172
C21	C	-0.627250	-1.027975	-0.355168
C22	C	-0.357593	-1.009444	-0.548835
C23	C	-0.354302	-1.006185	-0.627066
C24	C	-1.069411	-1.051632	-0.333599
C25	C	-0.995668	-1.048520	-0.336423
C26	C	-0.955186	-1.000048	-0.381070
C27	C	-0.988451	-0.954680	-0.422890
C28	C	-1.062192	-0.957789	-0.420063
C29	C	-0.734256	-0.985716	-0.394160
C30	C	-0.660509	-0.982612	-0.396987
C31	C	-0.667732	-1.076451	-0.310518
C32	C	-0.741474	-1.079559	-0.307697
C33	C	-0.774732	-1.034188	-0.349515
N34	N	-0.879809	-0.996868	-0.383959
N35	N	-0.850108	-1.037366	-0.346622
C36	C	-0.181151	-1.009503	-0.372381
C37	C	-0.102670	-1.006269	-0.375418
C38	C	-0.372434	-1.200670	-0.372356
C39	C	-0.375466	-1.278900	-0.375382
C40	C	-0.397129	-0.719255	-0.396949
C41	C	-0.394286	-0.645749	-0.394124
C42	C	-0.349530	-0.608988	-0.349519
C43	C	-0.307610	-0.645735	-0.307741
C44	C	-0.310450	-0.719240	-0.310569
C45	C	-0.336386	-0.389152	-0.336432
C46	C	-0.333551	-0.315643	-0.333605
C47	C	-0.420226	-0.315661	-0.419990
C48	C	-0.423065	-0.389167	-0.422811
C49	C	-0.381142	-0.425908	-0.381036
N50	N	-0.346624	-0.533853	-0.346630
N51	N	-0.384045	-0.501042	-0.383929
C52	C	-0.399653	-1.051522	-0.663816
C53	C	-0.396551	-1.048460	-0.737322
C54	C	-0.348102	-1.000056	-0.774078
C55	C	-0.302746	-0.954717	-0.737323
C56	C	-0.305844	-0.957784	-0.663818
C57	C	-0.333803	-0.985862	-0.993915
C58	C	-0.330709	-0.982798	-1.067425
C59	C	-0.424514	-1.076542	-1.067419
C60	C	-0.427611	-1.079601	-0.993912
C61	C	-0.382253	-1.034265	-0.957164
N62	N	-0.344932	-0.996923	-0.849213
N63	N	-0.385420	-1.037402	-0.882031
C64	C	-0.372962	-1.024748	-0.182392
C65	C	-0.376060	-1.028135	-0.104174
H66	H	-0.968589	-1.085458	-0.302371
H67	H	-0.761325	-0.948767	-0.428206
C68	C	-0.786008	-1.132876	-0.258585
C69	C	-0.837496	-1.188968	-0.289326
C70	C	-0.882032	-1.242287	-0.240217
C71	C	-0.875080	-1.239513	-0.160366
C72	C	-0.823590	-1.183419	-0.129620
C73	C	-0.779054	-1.130100	-0.178730
H74	H	-0.842644	-1.191023	-0.348440
H75	H	-0.920149	-1.283811	-0.262977
H76	H	-0.908049	-1.278983	-0.124012
H77	H	-0.818442	-1.181364	-0.070506
H78	H	-0.740937	-1.088575	-0.155969
C79	C	-0.474406	-1.126412	-1.107840
C80	C	-0.472177	-1.206608	-1.101051
C81	C	-0.522072	-1.256481	-1.141470
C82	C	-0.574196	-1.226159	-1.188677
C83	C	-0.576428	-1.145959	-1.195468
C84	C	-0.526533	-1.096086	-1.155049
H85	H	-0.433589	-1.229058	-1.066103
H86	H	-0.520420	-1.315851	-1.136442
H87	H	-0.611132	-1.263079	-1.218597
H88	H	-0.615015	-1.123509	-1.230415
H89	H	-0.528185	-1.036716	-1.160076
C90	C	-0.264343	-0.759658	-0.264613
C91	C	-0.299126	-0.813747	-0.210071
C92	C	-0.253014	-0.854164	-0.164116
C93	C	-0.172118	-0.840492	-0.172702
C94	C	-0.137330	-0.786400	-0.227246
C95	C	-0.183442	-0.745984	-0.273201
H96	H	-0.359014	-0.823871	-0.203713
H97	H	-0.278767	-0.894206	-0.123739
H98	H	-0.137983	-0.870411	-0.138683
H99	H	-0.077441	-0.776277	-0.233604
H100	H	-0.157689	-0.705941	-0.313578
C101	C	-1.113938	-1.104953	-0.284486
C102	C	-1.106976	-1.102173	-0.204637
C103	C	-1.151501	-1.155492	-0.155520
C104	C	-1.202989	-1.211592	-0.186251
C105	C	-1.209953	-1.214374	-0.266105
C106	C	-1.165428	-1.161054	-0.315222
H107	H	-1.068860	-1.060643	-0.181883
H108	H	-1.146346	-1.153433	-0.096407
H109	H	-1.235949	-1.251062	-0.149892
H110	H	-1.248069	-1.255904	-0.288858
H111	H	-1.170583	-1.163114	-0.374334
C112	C	-0.258378	-0.605300	-0.258673
C113	C	-0.255255	-0.524449	-0.255556
C114	C	-0.206024	-0.484015	-0.206485
C115	C	-0.159916	-0.524434	-0.160532
C116	C	-0.163038	-0.605290	-0.163648
C117	C	-0.212269	-0.645723	-0.212719
H118	H	-0.289388	-0.494525	-0.289575
H119	H	-0.203714	-0.424160	-0.204179
H120	H	-0.123473	-0.494503	-0.124208
H121	H	-0.128905	-0.635214	-0.129630
H122	H	-0.214579	-0.705578	-0.215025
C123	C	-0.452949	-1.104768	-0.623388
C124	C	-0.502831	-1.154641	-0.663816
C125	C	-0.556126	-1.207889	-0.623390
C126	C	-0.559540	-1.211266	-0.542538
C127	C	-0.509656	-1.161391	-0.502106
C128	C	-0.456361	-1.108142	-0.542531
H129	H	-0.500305	-1.152143	-0.723672
H130	H	-0.593053	-1.244810	-0.653321
H131	H	-0.598993	-1.250684	-0.512613
H132	H	-0.512182	-1.163889	-0.442249
H133	H	-0.419434	-1.071222	-0.512600
H134	H	-0.955486	-0.915209	-0.459240
C135	C	-0.446429	-1.098354	-0.777734
C136	C	-0.526903	-1.096363	-0.764307
C137	C	-0.576776	-1.146273	-0.804713
C138	C	-0.546176	-1.198174	-0.858545
C139	C	-0.465698	-1.200167	-0.871974
C140	C	-0.415824	-1.150257	-0.831568
H141	H	-0.549559	-1.057941	-0.724456
H142	H	-0.636351	-1.144797	-0.794772
H143	H	-0.583095	-1.235120	-0.888455
H144	H	-0.443042	-1.238589	-0.911825
H145	H	-0.356249	-1.151733	-0.841510
C146	C	-0.283914	-0.935986	-0.953501
C147	C	-0.203443	-0.937996	-0.966940
C148	C	-0.153552	-0.888115	-0.926525
C149	C	-0.184131	-0.836224	-0.872671
C150	C	-0.264606	-0.834212	-0.859229
C151	C	-0.314497	-0.884093	-0.899644
H152	H	-0.180803	-0.976411	-1.006809
H153	H	-0.093979	-0.889605	-0.936476
H154	H	-0.147199	-0.799299	-0.842753
H155	H	-0.287247	-0.795797	-0.819361
H156	H	-0.374070	-0.882603	-0.889694
H157	H	-1.089271	-0.920853	-0.454120
C158	C	-0.255958	-0.907911	-0.623390
C159	C	-0.202665	-0.854667	-0.663816
C160	C	-0.152775	-0.804795	-0.623390
C161	C	-0.156178	-0.808169	-0.542537
C162	C	-0.209473	-0.861416	-0.502107
C163	C	-0.259363	-0.911287	-0.542533
H164	H	-0.200144	-0.852168	-0.723672
H165	H	-0.113322	-0.765379	-0.653320
H166	H	-0.119246	-0.771251	-0.512611
H167	H	-0.211994	-0.863915	-0.442251
H168	H	-0.298816	-0.950704	-0.512604
H169	H	-0.291250	-0.943383	-1.097349
C170	C	-0.615981	-0.929284	-0.446099
C171	C	-0.564097	-0.955294	-0.504510
C172	C	-0.519571	-0.901970	-0.553621
C173	C	-0.526928	-0.822636	-0.544322
C174	C	-0.578814	-0.796621	-0.485909
C175	C	-0.623341	-0.849946	-0.436798
H176	H	-0.558649	-1.014026	-0.511395
H177	H	-0.481161	-0.921228	-0.596862
H178	H	-0.493967	-0.783162	-0.580677
H179	H	-0.584263	-0.737890	-0.479024
H180	H	-0.661750	-0.830688	-0.393557
H181	H	-0.640646	-1.113389	-0.276471
C182	C	-0.440397	-0.605335	-0.440079
C183	C	-0.521293	-0.619004	-0.431488
C184	C	-0.567407	-0.578592	-0.477446
C185	C	-0.532623	-0.524511	-0.531996
C186	C	-0.451723	-0.510840	-0.540590
C187	C	-0.405609	-0.551252	-0.494631
H188	H	-0.547046	-0.659040	-0.391105
H189	H	-0.627295	-0.588713	-0.471085
H190	H	-0.566759	-0.494596	-0.566017
H191	H	-0.425970	-0.470804	-0.580973
H192	H	-0.345721	-0.541131	-0.500993
H193	H	-0.459511	-0.419094	-0.459132
H194	H	-0.263294	-0.915309	-0.767255
H195	H	-0.433576	-0.749181	-0.433269
H196	H	-0.454356	-0.285739	-0.454002
H197	H	-0.297097	-0.285713	-0.297287
H198	H	-0.302255	-0.419058	-0.302410
H199	H	-0.467075	-1.119006	-0.963990
