data_functionalizedCrystal
_audit_creation_method	'MofGen! by Chris Wilmer'
_symmetry_space_group_name_H-M	'P1'
_symmetry_Int_Tables_number	1
_symmetry_cell_setting	triclinic
loop_
_symmetry_equiv_pos_as_xyz
  x,y,z
_cell_length_a	14.560432
_cell_length_b	12.970454
_cell_length_c	12.970454
_cell_angle_alpha	59.999776
_cell_angle_beta	90.000384
_cell_angle_gamma	60.001316
loop_
_atom_site_label
_atom_site_type_symbol
_atom_site_fract_x
_atom_site_fract_y
_atom_site_fract_z
Zr1	Zr	0.884750	1.128546	-0.135307
O2	O	0.738106	1.343632	-0.299931
O3	O	0.929704	0.913457	-0.084840
O4	O	0.929706	1.128546	-0.299931
O5	O	0.738103	1.128543	0.084826
O6	O	1.080843	1.128551	-0.299931
O7	O	0.738104	1.128542	-0.084841
O8	O	1.080841	0.743795	0.084827
O9	O	0.738106	1.513299	-0.299932
O10	O	1.061669	1.001931	-0.063318
O11	O	0.948876	1.001928	0.063303
O12	O	0.948878	1.255168	-0.189939
O13	O	0.836085	1.255166	-0.063318
Zr14	Zr	1.125795	1.128554	0.135291
Zr15	Zr	1.125797	1.128553	-0.135307
Zr16	Zr	0.884748	1.128547	0.135292
Zr17	Zr	0.884750	1.399146	-0.135308
Zr18	Zr	1.125795	0.857954	0.135292
O19	O	1.080841	1.343644	0.084824
O20	O	1.080844	1.343642	-0.299932
O21	O	0.738103	1.343634	0.084825
O22	O	1.272440	0.913469	0.299916
O23	O	1.272442	0.913467	-0.084841
O24	O	0.929702	0.913459	0.299916
O25	O	1.272442	1.128557	-0.084842
O26	O	1.080840	1.128554	0.299915
O27	O	0.929702	1.128550	0.299915
O28	O	1.272441	1.128558	0.084825
O29	O	0.929706	1.513305	-0.299933
O30	O	1.080840	0.743796	0.299917
O31	O	1.272440	0.743801	0.299916
O32	O	1.272441	0.743800	0.084827
O33	O	0.738104	1.513300	-0.084843
O34	O	0.929705	1.513306	-0.084843
O35	O	1.061668	1.001932	0.189923
O36	O	1.174461	1.001935	0.063302
O37	O	1.061669	1.255172	-0.063319
O38	O	0.948876	1.255170	0.063302
C39	C	1.005273	0.790071	-0.000006
C40	C	1.005273	0.675194	-0.000006
C41	C	0.703760	1.128541	-0.000007
C42	C	0.601429	1.128538	-0.000007
C43	C	0.719167	0.864155	0.132174
C44	C	0.729959	0.731969	0.198259
C45	C	0.633807	0.731975	0.198256
C46	C	0.526854	0.864182	0.132164
C47	C	0.516061	0.996369	0.066079
C48	C	0.612222	0.996348	0.066087
C49	C	0.398325	1.260749	-0.066093
C50	C	0.494476	1.260746	-0.066099
C51	C	0.291371	1.392956	-0.132185
C52	C	0.280578	1.525146	-0.198279
C53	C	0.376738	1.525134	-0.198274
C54	C	0.483683	1.392933	-0.132184
C55	C	1.306786	1.128559	-0.000009
C56	C	1.409117	1.128562	-0.000009
C57	C	1.005275	1.128548	-0.338485
C58	C	1.005276	1.128548	-0.453362
C59	C	1.005273	1.467029	-0.000010
C60	C	1.005273	1.581906	-0.000010
C61	C	1.005271	1.128552	0.338470
C62	C	1.005270	1.128553	0.453346
C63	C	1.306786	0.790080	-0.000007
C64	C	1.409117	0.675206	-0.000006
C65	C	1.005271	0.790073	0.338471
C66	C	1.005270	0.675197	0.453348
C67	C	1.306784	0.790081	0.338471
C68	C	1.409114	0.675208	0.453347
C69	C	0.703762	1.467019	-0.338487
C70	C	0.601432	1.581892	-0.453363
C71	C	0.703760	1.467021	-0.000009
C72	C	0.601429	1.581894	-0.000009
C73	C	1.005275	1.467028	-0.338487
C74	C	1.005276	1.581904	-0.453364
C75	C	1.457173	0.527775	0.093470
C76	C	1.553314	0.419824	0.093474
C77	C	1.601401	0.459307	0.000007
C78	C	1.553337	0.606752	-0.093479
C79	C	1.457193	0.714701	-0.093488
C80	C	1.457177	0.527778	0.507294
C81	C	1.553338	0.419825	0.615221
C82	C	1.601429	0.459307	0.669204
C83	C	1.553361	0.606752	0.615247
C84	C	1.457207	0.714702	0.507317
C85	C	0.553377	1.729323	-0.507320
C86	C	0.457237	1.837275	-0.615270
C87	C	0.409150	1.797793	-0.669257
C88	C	0.457214	1.650347	-0.615295
C89	C	0.553356	1.542398	-0.507352
C90	C	0.553372	1.542366	0.093475
C91	C	0.457230	1.650287	0.093500
C92	C	0.409144	1.797736	0.000035
C93	C	0.457210	1.837264	-0.093454
C94	C	0.553354	1.729344	-0.093473
H95	H	0.797465	0.864137	0.132174
H96	H	0.418046	1.618220	-0.659267
H97	H	0.418107	1.618074	0.169631
H98	H	0.642599	0.624337	0.252072
H99	H	0.592470	1.422355	-0.463423
C100	C	1.606272	0.650159	0.674650
N101	N	1.646124	0.682849	0.719400
C102	C	0.606194	1.772851	-0.196334
N103	N	0.645985	1.805631	-0.273817
C104	C	0.404381	1.999456	-0.674602
N105	N	0.364570	2.121608	-0.719286
C106	C	0.303283	1.916435	-0.000037
N107	N	0.223512	2.005832	-0.000127
H108	H	1.418033	0.495603	0.463355
H109	H	0.592508	1.422312	0.169585
C110	C	1.606186	0.257644	0.674561
N111	N	1.645986	0.135493	0.719254
C112	C	0.303402	1.916558	-0.788013
N113	N	0.223756	2.006019	-0.877464
H114	H	0.418044	1.957330	-0.169549
C115	C	0.606260	1.772789	-0.447960
N116	N	0.646090	1.805539	-0.403262
C117	C	0.847612	0.586547	0.270947
N118	N	0.936225	0.477016	0.325693
C119	C	1.404351	0.876877	-0.196316
N120	N	1.364556	0.999028	-0.273770
C121	C	0.421087	0.864181	0.132175
N122	N	0.341421	0.864181	0.132181
H123	H	0.193494	1.632778	-0.252080
C124	C	0.185603	1.392959	-0.132187
N125	N	0.105935	1.392964	-0.132193
H126	H	0.367938	1.632778	-0.252072
H127	H	1.418078	0.834745	0.463406
H128	H	1.679723	0.371393	0.757088
H129	H	1.592504	0.638880	-0.169578
C130	C	1.404289	0.484308	0.196294
N131	N	1.364458	0.451557	0.273741
C132	C	1.606172	0.257642	0.196326
N133	N	1.645983	0.135490	0.273796
C134	C	0.589462	1.392907	-0.132171
N135	N	0.669139	1.392882	-0.132153
H136	H	1.679686	0.371394	0.000026
