data_functionalizedCrystal
_audit_creation_method	'MofGen! by Chris Wilmer'
_symmetry_space_group_name_H-M	'P1'
_symmetry_Int_Tables_number	1
_symmetry_cell_setting	triclinic
loop_
_symmetry_equiv_pos_as_xyz
  x,y,z
_cell_length_a	16.992694
_cell_length_b	17.019294
_cell_length_c	15.455313
_cell_angle_alpha	88.788101
_cell_angle_beta	87.142206
_cell_angle_gamma	87.023206
loop_
_atom_site_label
_atom_site_type_symbol
_atom_site_fract_x
_atom_site_fract_y
_atom_site_fract_z
O1	O	1.044222	0.163479	-0.084230
O2	O	1.544222	0.663479	0.415770
O3	O	0.815933	0.161649	-0.084119
O4	O	1.315933	0.661649	0.415881
O5	O	0.936039	0.048515	-0.075651
O6	O	1.436039	0.548515	0.424349
O7	O	0.924116	0.276613	-0.092698
O8	O	1.424116	0.776613	0.407302
O9	O	0.929171	0.054956	0.068129
O10	O	1.429171	0.554956	0.568129
O11	O	0.809065	0.168090	0.059661
O12	O	1.309065	0.668090	0.559661
O13	O	1.037354	0.169920	0.059550
O14	O	1.537354	0.669920	0.559550
Cu15	Cu	0.922582	0.169593	0.072734
Cu16	Cu	1.422582	0.669593	0.572734
Cu17	Cu	0.930705	0.161976	-0.097303
Cu18	Cu	1.430705	0.661976	0.402697
O19	O	0.917248	0.283054	0.051082
O20	O	1.417248	0.783054	0.551082
C21	C	0.783281	0.162517	-0.012057
C22	C	1.283281	0.662517	0.487943
C23	C	0.696220	0.155497	-0.011542
C24	C	1.196220	0.655497	0.488458
C25	C	0.646145	0.223225	-0.016603
C26	C	1.146145	0.723225	0.483397
C27	C	0.564342	0.216625	-0.016098
C28	C	1.064342	0.716625	0.483902
C29	C	0.532615	0.142296	-0.010538
C30	C	1.032615	0.642296	0.489462
C31	C	0.582697	0.074563	-0.005474
C32	C	1.082697	0.574563	0.494526
C33	C	0.664498	0.081164	-0.005973
C34	C	1.164498	0.581164	0.494027
C35	C	0.288950	0.114939	-0.008470
C36	C	0.788950	0.614939	0.491530
C37	C	0.207142	0.108343	-0.007974
C38	C	0.707142	0.608343	0.492026
C39	C	0.188793	0.250407	-0.018596
C40	C	0.688793	0.750407	0.481404
C41	C	0.270597	0.257001	-0.019100
C42	C	0.770597	0.757001	0.480900
C43	C	0.320671	0.189267	-0.014032
C44	C	0.820671	0.689267	0.485968
N45	N	0.449000	0.135548	-0.010024
N46	N	0.949000	0.635548	0.489976
N47	N	0.404285	0.196016	-0.014539
N48	N	0.904285	0.696016	0.485461
C49	C	0.932018	0.022414	-0.001572
C50	C	1.432018	0.522414	0.498428
C51	C	0.930258	-0.064956	0.004951
C52	C	1.430258	0.435044	0.504951
C53	C	0.933177	-0.109509	-0.070358
C54	C	1.433177	0.390491	0.429642
C55	C	0.931518	-0.191601	-0.064226
C56	C	1.431518	0.308399	0.435774
C57	C	0.926946	-0.229139	0.017216
C58	C	1.426946	0.270861	0.517216
C59	C	0.924024	-0.184580	0.092531
C60	C	1.424024	0.315420	0.592531
C61	C	0.925677	-0.102489	0.086398
C62	C	1.425677	0.397511	0.586398
C63	C	0.921761	-0.476826	0.039654
C64	C	1.421761	0.023174	0.539654
C65	C	0.920111	-0.558923	0.045781
C66	C	1.420111	-0.058923	0.545781
C67	C	0.927603	-0.565938	-0.110977
C68	C	1.427603	-0.065938	0.389023
C69	C	0.929260	-0.483845	-0.117102
C70	C	1.429260	0.016155	0.382898
C71	C	0.926335	-0.439293	-0.041787
C72	C	1.426335	0.060707	0.458213
C73	C	0.925252	-0.313051	0.023486
C74	C	1.425252	0.186949	0.523486
C75	C	0.928022	-0.355383	-0.048058
C76	C	1.428022	0.144617	0.451942
C77	C	1.070006	0.169052	-0.012515
C78	C	1.570006	0.669052	0.487485
C79	C	1.157067	0.176072	-0.013035
C80	C	1.657067	0.676072	0.486965
C81	C	0.921269	0.309155	-0.022999
C82	C	1.421269	0.809155	0.477001
C83	C	0.923030	0.396524	-0.029528
C84	C	1.423030	0.896524	0.470472
N85	N	0.916875	0.174950	0.192328
N86	N	1.416875	0.674950	0.692328
N87	N	0.936418	0.156612	-0.216897
N88	N	1.436418	0.656612	0.283103
C89	C	0.967918	0.126907	0.241318
C90	C	1.467918	0.626907	0.741318
C91	C	0.963609	0.130966	0.331822
C92	C	1.463609	0.630966	0.831822
C93	C	0.908260	0.183074	0.373334
C94	C	1.408260	0.683074	0.873334
C95	C	0.857212	0.231119	0.324338
C96	C	1.357212	0.731119	0.824338
C97	C	0.861518	0.227055	0.233836
C98	C	1.361518	0.727055	0.733836
C99	C	0.889675	0.200594	0.643604
C100	C	1.389675	0.700594	1.143604
C101	C	0.885375	0.204656	0.734113
C102	C	1.385375	0.704656	1.234113
C103	C	0.991772	0.104502	0.741591
C104	C	1.491772	0.604502	1.241591
C105	C	0.996076	0.100446	0.651087
C106	C	1.496076	0.600446	1.151087
C107	C	0.945025	0.148488	0.602098
C108	C	1.445025	0.648488	1.102098
N109	N	0.903856	0.187226	0.465844
N110	N	1.403856	0.687226	0.965844
N111	N	0.949425	0.144331	0.509591
N112	N	1.449425	0.644331	1.009591
H113	H	0.148014	0.305551	-0.022721
H114	H	0.648014	0.805551	0.477279
O115	O	0.172918	0.028171	-0.001969
O116	O	0.672918	0.528171	0.498031
H117	H	0.221479	-0.017820	0.001481
H118	H	0.721479	0.482180	0.501481
H119	H	0.523573	0.271777	-0.020220
H120	H	1.023573	0.771777	0.479780
H121	H	1.033335	0.065387	0.781486
H122	H	1.533335	0.565387	1.281486
H123	H	0.848109	0.239713	0.603725
H124	H	1.348109	0.739713	1.103725
O125	O	0.342954	0.041888	-0.003004
O126	O	0.842954	0.541888	0.496996
H127	H	0.307147	-0.010905	0.000938
H128	H	0.807147	0.489095	0.500938
H129	H	1.041145	0.058016	0.617290
H130	H	1.541145	0.558016	1.117290
H131	H	0.840301	0.247091	0.767907
H132	H	1.340301	0.747091	1.267907
H133	H	0.933898	-0.227873	-0.125551
H134	H	1.433898	0.272127	0.374449
H135	H	0.812142	0.273543	0.358142
H136	H	1.312142	0.773543	0.858142
H137	H	0.556858	0.014043	-0.000934
H138	H	1.056858	0.514043	0.499066
H139	H	0.819952	0.266176	0.193948
H140	H	1.319952	0.766176	0.693948
H141	H	1.012992	0.084479	0.207525
H142	H	1.512992	0.584479	0.707525
H143	H	0.929983	-0.602221	-0.172294
H144	H	1.429983	-0.102221	0.327706
H145	H	0.671970	0.283752	-0.021131
H146	H	1.171970	0.783752	0.478869
O147	O	0.932953	-0.314894	-0.135895
O148	O	1.432953	0.185106	0.364105
H149	H	0.881030	-0.328675	-0.172582
H150	H	1.381030	0.171325	0.327418
H151	H	0.296422	0.317527	-0.023638
H152	H	0.796422	0.817527	0.476362
H153	H	0.916383	-0.589484	0.112104
H154	H	1.416383	-0.089484	0.612104
O155	O	0.718514	0.008115	-0.000517
O156	O	1.218514	0.508115	0.499483
H157	H	0.682712	-0.044681	0.003425
H158	H	1.182712	0.455319	0.503425
O159	O	0.938100	-0.069024	-0.158202
O160	O	1.438100	0.430976	0.341798
H161	H	0.992972	-0.090118	-0.194337
H162	H	1.492972	0.409882	0.305663
O163	O	0.934176	-0.443355	-0.204943
O164	O	1.434176	0.056645	0.295057
H165	H	0.935916	-0.488127	-0.256282
H166	H	1.435916	0.011873	0.243718
O167	O	0.918626	-0.428779	0.120882
O168	O	1.418626	0.071221	0.620882
H169	H	0.915184	-0.468677	0.178541
H170	H	1.415184	0.031323	0.678541
O171	O	0.919108	-0.225063	0.180376
O172	O	1.419108	0.274937	0.680376
H173	H	0.918462	-0.289633	0.171990
H174	H	1.418462	0.210367	0.671990
O175	O	0.922538	-0.054430	0.167623
O176	O	1.422538	0.445570	0.667623
H177	H	0.919090	-0.094323	0.225286
H178	H	1.419090	0.405677	0.725286
H179	H	1.005172	0.091845	0.371710
H180	H	1.505172	0.591845	0.871710
O181	O	0.920344	-0.353549	0.111322
O182	O	1.420344	0.146451	0.611322
H183	H	0.866019	-0.387142	0.117589
H184	H	1.366019	0.112858	0.617589
