data_functionalizedCrystal
_audit_creation_method	'MofGen! by Chris Wilmer'
_symmetry_space_group_name_H-M	'P1'
_symmetry_Int_Tables_number	1
_symmetry_cell_setting	triclinic
loop_
_symmetry_equiv_pos_as_xyz
  x,y,z
_cell_length_a	10.654549
_cell_length_b	9.730223
_cell_length_c	10.654550
_cell_angle_alpha	89.995747
_cell_angle_beta	95.515146
_cell_angle_gamma	90.002269
loop_
_atom_site_label
_atom_site_type_symbol
_atom_site_fract_x
_atom_site_fract_y
_atom_site_fract_z
O1	O	1.667839	0.114258	-0.176396
O2	O	1.302361	0.114268	-0.193203
O3	O	1.493503	0.114254	-0.002060
O4	O	1.476697	0.114272	-0.367539
O5	O	1.493491	-0.114326	-0.002055
O6	O	1.302348	-0.114312	-0.193198
O7	O	1.667827	-0.114322	-0.176391
Zn8	Zn	1.485086	-0.150609	-0.184794
Zn9	Zn	1.485102	0.150555	-0.184801
O10	O	1.476685	-0.114308	-0.367534
C11	C	1.255557	-0.000021	-0.191966
C12	C	1.116113	-0.000018	-0.188275
C13	C	0.905599	-0.000018	-0.297338
C14	C	1.036619	-0.000010	-0.300816
C15	C	1.064581	-0.000020	-0.072247
C16	C	0.933563	-0.000019	-0.068770
N17	N	1.485084	-0.356146	-0.184788
C18	C	1.569751	-0.428078	-0.100186
C19	C	1.569763	-0.571961	-0.100187
C20	C	1.400438	-0.571967	-0.269402
C21	C	1.400420	-0.428087	-0.269394
C22	C	1.714631	-0.000030	-0.177628
C23	C	1.854074	-0.000025	-0.181319
C24	C	1.492263	-0.000035	0.044740
C25	C	1.488571	-0.000033	0.184183
N26	N	1.485114	0.356091	-0.184796
C27	C	1.477925	-0.000016	-0.414334
C28	C	1.481617	-0.000009	-0.553777
C29	C	1.601113	-0.000036	0.263669
C30	C	1.597636	-0.000019	0.394690
C31	C	1.369067	-0.000003	0.366727
C32	C	1.372544	-0.000010	0.235708
H33	H	0.840882	-0.000022	-0.388983
O34	O	1.652027	-0.358406	-0.017875
C35	C	1.726778	-0.452756	0.056776
H36	H	1.675287	-0.555329	0.058666
H37	H	1.820426	-0.468035	0.015128
C38	C	1.814725	-0.270641	0.189706
C39	C	1.751478	-0.396619	0.192036
H40	H	1.829967	-0.236012	0.273139
H41	H	1.764368	-0.207074	0.139410
H42	H	1.892758	-0.283390	0.154994
H43	H	1.673440	-0.383865	0.226733
H44	H	1.801823	-0.460183	0.242341
O45	O	1.318082	-0.641640	-0.351633
C46	C	1.243366	-0.547292	-0.426322
H47	H	1.241495	-0.444737	-0.374811
H48	H	1.284942	-0.531969	-0.520004
C49	C	1.110416	-0.729426	-0.514207
C50	C	1.108108	-0.603470	-0.450936
H51	H	1.026983	-0.764080	-0.529396
H52	H	1.160755	-0.792992	-0.463893
H53	H	1.145068	-0.716639	-0.592269
H54	H	1.073472	-0.616261	-0.372870
H55	H	1.057759	-0.539908	-0.501238
H56	H	1.638705	-0.630524	-0.031295
O57	O	1.318345	-0.358054	-0.351641
C58	C	1.386264	-0.274828	-0.429764
H59	H	1.484101	-0.253265	-0.380655
H60	H	1.395605	-0.330260	-0.522670
C61	C	1.195512	-0.164647	-0.516256
C62	C	1.315673	-0.138154	-0.455934
H63	H	1.151967	-0.080342	-0.532405
H64	H	1.149752	-0.220721	-0.463627
H65	H	1.203313	-0.210844	-0.593671
H66	H	1.307871	-0.091973	-0.378514
H67	H	1.361431	-0.082069	-0.508551
H68	H	1.078563	-0.000003	-0.395290
O69	O	0.883654	0.000157	0.044015
C70	C	0.924154	0.118554	0.112674
H71	H	1.015311	0.158019	0.077657
H72	H	0.848483	0.201454	0.098782
C73	C	0.835515	0.034116	0.296750
C74	C	0.947482	0.082581	0.253749
H75	H	0.849899	0.011930	0.383773
H76	H	0.808224	-0.045649	0.250493
H77	H	0.772466	0.103207	0.285163
H78	H	1.010523	0.013484	0.265323
H79	H	0.974783	0.162334	0.300012
H80	H	1.129316	-0.000019	0.019386
H81	H	1.695589	-0.000052	0.221722
H82	H	1.689279	-0.000018	0.459403
H83	H	1.274601	0.000014	0.408694
H84	H	1.280894	-0.000004	0.170987
