data_functionalizedCrystal
_audit_creation_method	'MofGen! by Chris Wilmer'
_symmetry_space_group_name_H-M	'P1'
_symmetry_Int_Tables_number	1
_symmetry_cell_setting	triclinic
loop_
_symmetry_equiv_pos_as_xyz
  x,y,z
_cell_length_a	18.050589
_cell_length_b	13.897449
_cell_length_c	13.897441
_cell_angle_alpha	90.023932
_cell_angle_beta	89.973098
_cell_angle_gamma	89.971851
loop_
_atom_site_label
_atom_site_type_symbol
_atom_site_fract_x
_atom_site_fract_y
_atom_site_fract_z
Zn1	Zn	-0.295644	-1.474612	-0.545537
Zn2	Zn	0.037689	-1.141278	-0.212203
Zn3	Zn	0.371022	-0.807945	0.121130
Zn4	Zn	-0.419846	-1.474482	-0.384246
Zn5	Zn	-0.086513	-1.141149	-0.050912
Zn6	Zn	0.246820	-0.807815	0.282421
Zn7	Zn	-0.295675	-1.313307	-0.384240
Zn8	Zn	0.037659	-0.979974	-0.050907
Zn9	Zn	0.370992	-0.646640	0.282427
Zn10	Zn	-0.419797	-1.313253	-0.545483
Zn11	Zn	-0.086463	-0.979920	-0.212150
Zn12	Zn	0.246870	-0.646586	0.121183
O13	O	-0.357741	-1.393913	-0.464876
O14	O	-0.024407	-1.060580	-0.131543
O15	O	0.308926	-0.727247	0.201790
O16	O	-0.312128	-1.609576	-0.524166
O17	O	0.021205	-1.276243	-0.190833
O18	O	0.354539	-0.942910	0.142501
O19	O	-0.403408	-1.453070	-0.249263
O20	O	-0.070075	-1.119737	0.084070
O21	O	0.263258	-0.786404	0.417403
O22	O	-0.191746	-1.334781	-0.405656
O23	O	0.141587	-1.001448	-0.072323
O24	O	0.474921	-0.668114	0.261010
O25	O	-0.403379	-1.609481	-0.405666
O26	O	-0.070045	-1.276148	-0.072333
O27	O	0.263288	-0.942814	0.261001
O28	O	-0.191724	-1.453291	-0.524160
O29	O	0.141610	-1.119958	-0.190827
O30	O	0.474943	-0.786624	0.142506
O31	O	-0.312180	-1.334655	-0.249259
O32	O	0.021154	-1.001322	0.084074
O33	O	0.354487	-0.667989	0.417408
O34	O	-0.312132	-1.178318	-0.405605
O35	O	0.021202	-0.844985	-0.072271
O36	O	0.354535	-0.511651	0.261062
O37	O	-0.403294	-1.334689	-0.680472
O38	O	-0.069961	-1.001356	-0.347139
O39	O	0.263372	-0.668023	-0.013805
O40	O	-0.403324	-1.178279	-0.524069
O41	O	-0.069990	-0.844945	-0.190736
O42	O	0.263343	-0.511612	0.142597
O43	O	-0.312080	-1.453239	-0.680511
O44	O	0.021253	-1.119906	-0.347178
O45	O	0.354587	-0.786572	-0.013845
O46	O	-0.523764	-1.453018	-0.405614
O47	O	-0.190431	-1.119685	-0.072281
O48	O	0.142902	-0.786351	0.261052
O49	O	-0.523728	-1.334564	-0.524075
O50	O	-0.190395	-1.001230	-0.190742
O51	O	0.142939	-0.667897	0.142592
C52	C	-0.357726	-1.143299	-0.464831
C53	C	-0.024393	-0.809966	-0.131498
C54	C	0.308941	-0.476632	0.201836
C55	C	-0.357738	-1.036085	-0.464835
C56	C	-0.024404	-0.702752	-0.131501
C57	C	0.308929	-0.369419	0.201832
C58	C	-0.550693	-1.393797	-0.464860
C59	C	-0.217359	-1.060464	-0.131527
C60	C	0.115974	-0.727130	0.201806
C61	C	-0.633238	-1.393835	-0.464886
C62	C	-0.299905	-1.060502	-0.131553
C63	C	0.033428	-0.727169	0.201781
C64	C	-0.357739	-0.949015	-0.464847
C65	C	-0.024406	-0.615682	-0.131513
C66	C	0.308927	-0.282349	0.201820
C67	C	-0.357743	-0.839783	-0.464871
C68	C	-0.024410	-0.506450	-0.131538
C69	C	0.308924	-0.173116	0.201796
C70	C	-0.832696	-1.329483	-0.529282
C71	C	-0.499363	-0.996150	-0.195949
C72	C	-0.166030	-0.662817	0.137384
C73	C	-0.882140	-1.305970	-0.441261
C74	C	-0.548807	-0.972636	-0.107928
C75	C	-0.215474	-0.639303	0.225405
C76	C	-0.784369	-1.393930	-0.464898
C77	C	-0.451035	-1.060597	-0.131565
C78	C	-0.117702	-0.727264	0.201768
C79	C	-0.882006	-1.417491	-0.552929
C80	C	-0.548673	-1.084158	-0.219596
C81	C	-0.215340	-0.750825	0.113737
C82	C	-0.930354	-1.394020	-0.464918
C83	C	-0.597021	-1.060687	-0.131585
C84	C	-0.263687	-0.727353	0.201748
C85	C	-0.832726	-1.370370	-0.376831
C86	C	-0.499392	-1.037037	-0.043498
C87	C	-0.166059	-0.703704	0.289836
C88	C	-0.832587	-1.481933	-0.488558
C89	C	-0.499254	-1.148600	-0.155225
C90	C	-0.165921	-0.815266	0.178108
C91	C	-0.882009	-1.458453	-0.400477
C92	C	-0.548676	-1.125119	-0.067144
C93	C	-0.215342	-0.791786	0.266190
C94	C	-0.700271	-1.393876	-0.464888
C95	C	-0.366937	-1.060543	-0.131555
C96	C	-0.033604	-0.727209	0.201778
C97	C	-1.014450	-1.394074	-0.464919
C98	C	-0.681117	-1.060741	-0.131585
C99	C	-0.347784	-0.727408	0.201748
C100	C	-0.164035	-1.394057	-0.464914
C101	C	0.169298	-1.060723	-0.131580
C102	C	0.502632	-0.727390	0.201753
C103	C	-0.081489	-1.394118	-0.464930
C104	C	0.251844	-1.060784	-0.131596
C105	C	0.585178	-0.727451	0.201737
C106	C	-0.357678	-1.393973	-0.716470
C107	C	-0.024345	-1.060639	-0.383136
C108	C	0.308988	-0.727306	-0.049803
C109	C	-0.357652	-1.393998	-0.823684
C110	C	-0.024318	-1.060664	-0.490350
C111	C	0.309015	-0.727331	-0.157017
C112	C	-0.357753	-0.645506	-0.464911
C113	C	-0.024419	-0.312173	-0.131577
C114	C	0.308914	0.021160	0.201756
C115	C	-0.357750	-0.752720	-0.464896
C116	C	-0.024417	-0.419387	-0.131562
C117	C	0.308917	-0.086054	0.201771
C118	C	-0.357631	-1.394017	-0.910753
C119	C	-0.024297	-1.060684	-0.577420
C120	C	0.309036	-0.727351	-0.244087
C121	C	-0.357597	-1.394045	-1.019986
C122	C	-0.024264	-1.060712	-0.686653
C123	C	0.309070	-0.727378	-0.353319
C124	C	-0.357749	-1.393910	-0.214262
C125	C	-0.024416	-1.060577	0.119071
C126	C	0.308918	-0.727243	0.452405
C127	C	-0.357566	-1.394072	-0.107049
C128	C	-0.024233	-1.060739	0.226285
C129	C	0.309100	-0.727405	0.559618
H130	H	-0.903923	-1.231591	-0.421268
H131	H	-0.570590	-0.898257	-0.087935
H132	H	-0.237256	-0.564924	0.245399
C133	C	-0.803609	-1.343371	-0.276246
C134	C	-0.470276	-1.010038	0.057088
C135	C	-0.136943	-0.676704	0.390421
H136	H	-0.750980	-1.343469	-0.276862
H137	H	-0.417646	-1.010135	0.056472
H138	H	-0.084313	-0.676802	0.389805
H139	H	-0.820887	-1.388892	-0.230479
H140	H	-0.487554	-1.055559	0.102854
H141	H	-0.154220	-0.722225	0.436188
H142	H	-0.820990	-1.281078	-0.259353
H143	H	-0.487656	-0.947744	0.073981
H144	H	-0.154323	-0.614411	0.407314
H145	H	-0.903525	-1.512992	-0.345975
H146	H	-0.570192	-1.179658	-0.012642
H147	H	-0.236859	-0.846325	0.320691
C148	C	-0.803156	-1.582387	-0.515618
C149	C	-0.469823	-1.249054	-0.182285
C150	C	-0.136489	-0.915720	0.151048
H151	H	-0.774211	-1.607082	-0.464160
H152	H	-0.440878	-1.273749	-0.130827
H153	H	-0.107544	-0.940415	0.202507
H154	H	-0.773430	-1.577736	-0.571845
H155	H	-0.440097	-1.244402	-0.238512
H156	H	-0.106764	-0.911069	0.094821
H157	H	-0.843675	-1.624325	-0.527535
H158	H	-0.510342	-1.290992	-0.194202
H159	H	-0.177008	-0.957658	0.139132
C160	C	-0.803437	-1.255755	-0.602728
C161	C	-0.470103	-0.922422	-0.269395
C162	C	-0.136770	-0.589089	0.063938
H163	H	-0.820407	-1.193289	-0.585763
H164	H	-0.487073	-0.859955	-0.252430
H165	H	-0.153740	-0.526622	0.080904
H166	H	-0.821034	-1.271847	-0.665098
H167	H	-0.487701	-0.938513	-0.331764
H168	H	-0.154367	-0.605180	0.001569
H169	H	-0.750811	-1.256634	-0.602617
H170	H	-0.417478	-0.923301	-0.269284
H171	H	-0.084144	-0.589968	0.064050
C172	C	-0.911249	-1.444370	-0.653486
C173	C	-0.577915	-1.111036	-0.320153
C174	C	-0.244582	-0.777703	0.013181
H175	H	-0.894355	-1.398484	-0.699141
H176	H	-0.561021	-1.065151	-0.365808
H177	H	-0.227688	-0.731817	-0.032474
H178	H	-0.963870	-1.444787	-0.652634
H179	H	-0.630536	-1.111454	-0.319301
H180	H	-0.297203	-0.778121	0.014032
H181	H	-0.893545	-1.506414	-0.670727
H182	H	-0.560212	-1.173081	-0.337394
H183	H	-0.226879	-0.839747	-0.004060
