data_functionalizedCrystal
_audit_creation_method	'MofGen! by Chris Wilmer'
_symmetry_space_group_name_H-M	'P1'
_symmetry_Int_Tables_number	1
_symmetry_cell_setting	triclinic
loop_
_symmetry_equiv_pos_as_xyz
  x,y,z
_cell_length_a	10.654550
_cell_length_b	14.853567
_cell_length_c	9.130313
_cell_angle_alpha	89.999276
_cell_angle_beta	89.999724
_cell_angle_gamma	84.059930
loop_
_atom_site_label
_atom_site_type_symbol
_atom_site_fract_x
_atom_site_fract_y
_atom_site_fract_z
O1	O	1.666524	0.126626	-0.121676
O2	O	1.300920	0.138690	-0.121702
O3	O	1.493488	0.001481	-0.121693
O4	O	1.473956	0.263836	-0.121686
O5	O	1.493475	0.001477	0.121906
O6	O	1.300907	0.138686	0.121897
O7	O	1.666511	0.126622	0.121922
Cu8	Cu	1.483708	0.132654	0.144152
Cu9	Cu	1.483723	0.132658	-0.143932
O10	O	1.473943	0.263832	0.121913
C11	C	1.254125	0.137802	0.000094
C12	C	1.114709	0.135152	0.000084
C13	C	1.034384	0.215939	0.000090
C14	C	0.903389	0.213443	0.000115
C15	C	0.933057	0.049367	0.000122
C16	C	1.064049	0.051864	0.000107
C17	C	1.492596	-0.032115	0.000102
C18	C	1.489944	-0.132213	0.000089
C19	C	1.364344	-0.545419	0.000108
C20	C	1.593119	-0.565475	0.000124
C21	C	1.595613	-0.471428	0.000116
C22	C	1.482470	-0.414372	0.000106
C23	C	1.366834	-0.451363	0.000104
C24	C	1.711247	-0.434430	0.000132
C25	C	1.713745	-0.340378	0.000125
C26	C	1.600601	-0.283320	0.000105
C27	C	1.484961	-0.320316	0.000102
C28	C	1.371818	-0.263260	0.000092
C29	C	1.256176	-0.300254	0.000078
C30	C	1.253691	-0.394305	0.000084
C31	C	1.603087	-0.189269	0.000099
C32	C	1.374308	-0.169204	0.000088
C33	C	1.713306	0.127510	0.000123
C34	C	1.852722	0.130160	0.000124
C35	C	1.474835	0.297427	0.000115
C36	C	1.477487	0.397525	0.000118
N37	N	1.483706	0.132650	0.346775
N38	N	1.483735	0.132655	-0.346554
C39	C	1.569003	0.071919	0.423431
C40	C	1.569015	0.071919	0.576767
C41	C	1.398428	0.193389	0.576779
C42	C	1.398411	0.193383	0.423445
H43	H	0.837993	0.279228	0.000124
C44	C	1.839166	-0.300042	0.000195
C45	C	1.817136	-0.205464	0.000215
C46	C	1.932643	-0.168276	0.000291
H47	H	1.885853	-0.319482	-0.084728
H48	H	1.885769	-0.319521	0.085180
H49	H	1.770553	-0.185994	-0.084762
H50	H	1.770468	-0.185999	0.085131
H51	H	1.979246	-0.187754	0.085276
H52	H	1.979322	-0.187723	-0.084633
H53	H	1.917712	-0.104102	0.000318
C54	C	1.716049	-0.627313	-0.000093
C55	C	1.785683	-0.610478	-0.125402
C56	C	1.898944	-0.667422	-0.125646
H57	H	1.698179	-0.688653	-0.000163
H58	H	1.763526	-0.616007	0.084810
H59	H	1.738216	-0.621791	-0.210284
H60	H	1.803586	-0.549149	-0.125359
H61	H	1.946421	-0.656115	-0.040742
H62	H	1.881062	-0.728759	-0.125712
H63	H	1.946210	-0.656001	-0.210659
H64	H	1.075626	0.283758	0.000082
H65	H	0.891793	-0.018444	0.000150
C66	C	1.661653	0.005875	0.340452
C67	C	1.736331	-0.047327	0.440411
C68	C	1.821680	-0.108189	0.364030
H69	H	1.714096	0.038547	0.280617
H70	H	1.616441	-0.032008	0.280680
H71	H	1.781539	-0.009449	0.500157
H72	H	1.683922	-0.080019	0.500249
H73	H	1.776469	-0.146072	0.304259
H74	H	1.874115	-0.075509	0.304198
H75	H	1.872351	-0.144299	0.431840
H76	H	1.803361	-0.480891	0.000154
H77	H	1.129454	-0.013927	0.000106
H78	H	1.697240	-0.159152	0.000120
H79	H	1.282172	-0.122754	0.000073
C80	C	1.305631	0.259223	0.659952
C81	C	1.182203	0.243756	0.622708
C82	C	1.096685	0.304378	0.699311
H83	H	1.319190	0.319523	0.634878
H84	H	1.317775	0.250523	0.762265
H85	H	1.170064	0.252463	0.520418
H86	H	1.168604	0.183467	0.647786
H87	H	1.108829	0.295678	0.801624
H88	H	1.110255	0.364674	0.674231
H89	H	1.012930	0.293887	0.674062
H90	H	1.164056	-0.253787	0.000080
H91	H	1.159541	-0.424435	0.000074
C92	C	1.238758	-0.585529	-0.000209
C93	C	1.170379	-0.556614	-0.125560
C94	C	1.054691	-0.593556	-0.125914
H95	H	1.192008	-0.566021	0.084635
H96	H	1.253422	-0.649718	-0.000290
H97	H	1.155712	-0.492439	-0.125466
H98	H	1.217091	-0.576121	-0.210425
H99	H	1.069355	-0.657745	-0.125995
H100	H	1.007952	-0.574045	-0.041064
H101	H	1.008287	-0.573949	-0.210969
C102	C	1.305942	0.259472	0.340287
C103	C	1.326477	0.348205	0.377537
C104	C	1.241331	0.409104	0.300947
H105	H	1.222064	0.249243	0.365367
H106	H	1.318151	0.250830	0.237972
H107	H	1.314257	0.356843	0.479829
H108	H	1.410338	0.358462	0.352453
H109	H	1.253540	0.400462	0.198633
H110	H	1.157458	0.398867	0.326034
H111	H	1.255259	0.469316	0.326200
H112	H	1.638471	0.022466	0.639176
