data_functionalizedCrystal
_audit_creation_method	'MofGen! by Chris Wilmer'
_symmetry_space_group_name_H-M	'P1'
_symmetry_Int_Tables_number	1
_symmetry_cell_setting	triclinic
loop_
_symmetry_equiv_pos_as_xyz
  x,y,z
_cell_length_a	10.654550
_cell_length_b	15.995350
_cell_length_c	15.072220
_cell_angle_alpha	89.992825
_cell_angle_beta	89.999520
_cell_angle_gamma	83.988653
loop_
_atom_site_label
_atom_site_type_symbol
_atom_site_fract_x
_atom_site_fract_y
_atom_site_fract_z
O1	O	1.666303	0.117608	-0.073711
O2	O	1.300678	0.128813	-0.073727
O3	O	1.493485	0.001381	-0.073718
O4	O	1.473496	0.245040	-0.073721
O5	O	1.493473	0.001365	0.073847
O6	O	1.300666	0.128797	0.073838
O7	O	1.666291	0.117593	0.073854
Zn8	Zn	1.483476	0.123192	0.097275
Zn9	Zn	1.483492	0.123213	-0.097149
O10	O	1.473484	0.245025	0.073844
C11	C	1.253884	0.127982	0.000053
C12	C	1.114473	0.125521	0.000047
C13	C	1.034008	0.200551	0.000049
C14	C	0.903017	0.198233	0.000064
C15	C	0.932971	0.045849	0.000072
C16	C	1.063959	0.048168	0.000063
C17	C	0.706018	0.286595	0.051773
C18	C	0.625547	0.361629	0.051760
C19	C	0.654830	0.429654	0.000045
C20	C	0.764581	0.422649	-0.051678
C21	C	0.845046	0.347614	-0.051673
C22	C	0.815764	0.279591	0.000063
C23	C	1.260959	-0.040189	-0.051653
C24	C	1.341426	-0.115225	-0.051654
C25	C	1.312147	-0.183257	0.000056
C26	C	1.202394	-0.176261	0.051765
C27	C	1.121926	-0.101225	0.051766
C28	C	1.151214	-0.033192	0.000058
C29	C	1.492652	-0.029826	0.000063
C30	C	1.490175	-0.122791	0.000058
C31	C	1.481277	-0.460590	0.000060
C32	C	1.343964	-0.413954	-0.000277
C33	C	1.346442	-0.317249	0.000056
C34	C	1.485691	-0.293004	0.000058
C35	C	1.553412	-0.333697	0.084327
C36	C	1.549962	-0.430353	0.084397
C37	C	1.552813	-0.430677	-0.083412
C38	C	1.552780	-0.333732	-0.084526
C39	C	1.488192	-0.198292	0.000060
C40	C	1.478780	-0.555303	0.000064
C41	C	1.713084	0.118423	0.000071
C42	C	1.852495	0.120885	0.000072
C43	C	1.474316	0.276232	0.000062
C44	C	1.476793	0.369197	0.000061
N45	N	1.483475	0.123178	0.229964
C46	C	1.483496	0.123206	0.589165
C47	C	1.586998	0.055252	0.551535
C48	C	1.586727	0.054997	0.448710
C49	C	1.483487	0.123192	0.410961
C50	C	1.352465	0.103351	0.448298
C51	C	1.353078	0.102870	0.551156
C52	C	1.509836	0.211198	0.551243
C53	C	1.512809	0.210626	0.448378
C54	C	1.483473	0.123186	0.310248
C55	C	1.483501	0.123211	0.689879
N56	N	1.483508	0.123220	0.770163
H57	H	0.589302	0.490748	0.000035
H58	H	1.434360	0.261777	0.575582
H59	H	1.284814	0.015209	-0.093757
N60	N	1.424337	0.277096	0.416148
N61	N	1.309332	0.276646	0.432281
H62	H	1.246834	0.323586	0.409519
N63	N	1.627122	0.234906	0.583769
N64	N	1.629240	0.300849	0.627989
H65	H	1.712078	0.317587	0.650961
H66	H	1.503267	-0.306764	-0.146865
H67	H	1.570415	-0.009661	0.577394
N68	N	1.565740	-0.026926	0.417858
N69	N	1.551234	-0.084089	0.472292
H70	H	1.536455	-0.141959	0.450505
N71	N	1.679829	-0.469761	-0.084120
N72	N	1.752215	-0.458214	-0.021051
H73	H	1.841919	-0.485816	-0.021544
H74	H	1.178551	-0.231660	0.093869
N75	N	1.453545	-0.122388	-0.104468
N76	N	1.525375	-0.189388	-0.104463
H77	H	1.604559	-0.194449	-0.141762
N78	N	1.009815	-0.094090	0.104588
N79	N	0.983678	-0.154840	0.150753
H80	H	0.904500	-0.149803	0.188057
N81	N	1.494401	-0.298470	0.163006
N82	N	1.534744	-0.322759	0.237534
H83	H	1.493062	-0.297882	0.293101
N84	N	1.085588	0.279569	0.000033
N85	N	1.013722	0.346553	0.000037
H86	H	1.050146	0.402363	0.000028
N87	N	1.708870	0.069978	0.416983
N88	N	1.721129	0.132435	0.369131
H89	H	1.807389	0.143019	0.346712
H90	H	1.684719	0.066997	0.576269
H91	H	0.891826	-0.017129	0.000091
N92	N	1.680160	-0.313701	-0.090910
N93	N	1.723767	-0.268887	-0.032962
H94	H	1.813732	-0.254736	-0.037467
N95	N	1.279654	-0.281980	-0.075724
N96	N	1.230880	-0.328782	-0.129228
H97	H	1.183702	-0.303878	-0.182749
H98	H	1.329864	0.038675	0.575156
N99	N	1.253544	0.162542	0.582377
N100	N	1.183842	0.204405	0.528199
H101	H	1.113537	0.246542	0.550244
H102	H	1.655714	-0.318978	0.087462
H103	H	0.788408	0.478043	-0.093793
N104	N	1.253524	0.163753	0.417625
N105	N	1.278532	0.222236	0.367783
H106	H	1.208657	0.264897	0.346119
N107	N	1.275405	-0.438895	0.075120
N108	N	1.163667	-0.408701	0.087035
H109	H	1.115253	-0.426309	0.140291
N110	N	1.487975	-0.453670	0.163410
N111	N	1.376484	-0.424596	0.178360
H112	H	1.332700	-0.441059	0.234165
H113	H	0.536189	0.367327	0.093878
N114	N	1.275128	-0.437609	-0.076085
N115	N	1.257133	-0.512823	-0.087563
H116	H	1.208520	-0.529535	-0.141106
N117	N	1.322635	0.023730	0.415987
N118	N	1.397651	-0.018532	0.365473
H119	H	1.376591	-0.074766	0.342653
N120	N	1.279199	-0.282697	0.075962
N121	N	1.230299	-0.330015	0.128862
H122	H	1.182807	-0.305615	0.182476
H123	H	1.650776	-0.462016	0.088222
N124	N	1.633728	0.229490	0.417776
N125	N	1.730358	0.181552	0.436530
H126	H	1.815760	0.194871	0.414913
N127	N	1.496500	-0.456774	-0.163531
N128	N	1.402949	-0.497743	-0.160080
H129	H	1.363168	-0.516177	-0.216660
H130	H	0.682176	0.231212	0.093899
N131	N	0.957138	0.340464	-0.104507
N132	N	0.983268	0.401206	-0.150687
H133	H	1.062438	0.396161	-0.188000
H134	H	1.377668	-0.244359	0.000041
