data_functionalizedCrystal
_audit_creation_method	'MofGen! by Chris Wilmer'
_symmetry_space_group_name_H-M	'P1'
_symmetry_Int_Tables_number	1
_symmetry_cell_setting	triclinic
loop_
_symmetry_equiv_pos_as_xyz
  x,y,z
_cell_length_a	27.732048
_cell_length_b	27.732048
_cell_length_c	13.596369
_cell_angle_alpha	89.989067
_cell_angle_beta	90.000164
_cell_angle_gamma	82.642655
loop_
_atom_site_label
_atom_site_type_symbol
_atom_site_fract_x
_atom_site_fract_y
_atom_site_fract_z
O1	O	0.640928	0.057518	-0.081675
O2	O	0.974261	0.390851	0.251658
O3	O	1.307594	0.724184	0.584992
O4	O	0.500134	0.066263	-0.081706
O5	O	0.833467	0.399597	0.251627
O6	O	1.166801	0.732930	0.584960
O7	O	0.574904	-0.008506	-0.081671
O8	O	0.908237	0.324827	0.251662
O9	O	1.241570	0.658160	0.584996
O10	O	0.566158	0.132287	-0.081710
O11	O	0.899491	0.465621	0.251623
O12	O	1.232825	0.798954	0.584956
O13	O	0.574896	-0.008510	0.081912
O14	O	0.908230	0.324823	0.415245
O15	O	1.241563	0.658157	0.748579
O16	O	0.500127	0.066259	0.081877
O17	O	0.833460	0.399593	0.415210
O18	O	1.166793	0.732926	0.748543
O19	O	0.640920	0.057514	0.081908
O20	O	0.974254	0.390847	0.415241
O21	O	1.307587	0.724181	0.748574
Zn22	Zn	0.570522	0.061886	0.107864
Zn23	Zn	0.903856	0.395219	0.441198
Zn24	Zn	1.237189	0.728553	0.774531
Zn25	Zn	0.570532	0.061891	-0.107663
Zn26	Zn	0.903865	0.395224	0.225670
Zn27	Zn	1.237199	0.728558	0.559004
O28	O	0.566151	0.132283	0.081872
O29	O	0.899484	0.465617	0.415206
O30	O	1.232817	0.798950	0.748539
C31	C	0.482124	0.066078	0.000081
C32	C	0.815457	0.399411	0.333415
C33	C	1.148790	0.732744	0.666748
C34	C	0.428469	0.065525	0.000070
C35	C	0.761802	0.398858	0.333404
C36	C	1.095135	0.732192	0.666737
C37	C	0.089654	0.106229	0.000101
C38	C	0.422987	0.439562	0.333435
C39	C	0.756320	0.772895	0.666768
C40	C	-0.112006	0.104178	0.000111
C41	C	0.221327	0.437511	0.333444
C42	C	0.554661	0.770844	0.666777
O43	O	-0.143262	0.141398	0.000143
O44	O	0.190072	0.474732	0.333476
O45	O	0.523405	0.808065	0.666810
N46	N	-0.131130	0.059843	0.000121
N47	N	0.202204	0.393176	0.333455
N48	N	0.535537	0.726509	0.666788
C49	C	-0.099835	0.016017	0.000136
C50	C	0.233498	0.349350	0.333470
C51	C	0.566832	0.682684	0.666803
O52	O	-0.120728	-0.021740	0.000156
O53	O	0.212605	0.311593	0.333489
O54	O	0.545938	0.644927	0.666822
C55	C	0.101824	0.018068	0.000134
C56	C	0.435157	0.351402	0.333467
C57	C	0.768490	0.684735	0.666801
C58	C	0.120944	0.062407	0.000113
C59	C	0.454278	0.395740	0.333447
C60	C	0.787611	0.729073	0.666780
C61	C	0.108775	0.150563	0.000082
C62	C	0.442108	0.483897	0.333415
C63	C	0.775442	0.817230	0.666749
C64	C	0.159187	0.151075	0.000074
C65	C	0.492520	0.484409	0.333408
C66	C	0.825853	0.817742	0.666741
C67	C	0.190477	0.107253	0.000086
C68	C	0.523811	0.440587	0.333419
C69	C	0.857144	0.773920	0.666753
C70	C	0.171356	0.062919	0.000106
C71	C	0.504690	0.396252	0.333439
C72	C	0.838023	0.729585	0.666772
C73	C	0.133117	-0.025757	0.000156
C74	C	0.466451	0.307577	0.333489
C75	C	0.799784	0.640910	0.666822
C76	C	0.183535	-0.025240	0.000158
C77	C	0.516868	0.308094	0.333491
C78	C	0.850201	0.641427	0.666824
C79	C	0.202655	0.019098	0.000137
C80	C	0.535989	0.352432	0.333470
C81	C	0.869322	0.685765	0.666804
C82	C	0.253059	0.019609	0.000110
C83	C	0.586392	0.352942	0.333443
C84	C	0.919725	0.686276	0.666776
N85	N	0.272183	0.063944	0.000099
N86	N	0.605516	0.397277	0.333432
N87	N	0.938849	0.730611	0.666766
C88	C	0.240892	0.107766	0.000087
C89	C	0.574225	0.441100	0.333421
C90	C	0.907559	0.774433	0.666754
C91	C	-0.205709	0.014943	0.000136
C92	C	0.127624	0.348276	0.333469
C93	C	0.460957	0.681610	0.666802
C94	C	-0.256124	0.014430	0.000134
C95	C	0.077210	0.347763	0.333468
C96	C	0.410543	0.681097	0.666801
C97	C	-0.268291	0.102591	0.000111
C98	C	0.065042	0.435924	0.333444
C99	C	0.398376	0.769258	0.666777
C100	C	-0.217876	0.103104	0.000105
C101	C	0.115458	0.436437	0.333438
C102	C	0.448791	0.769770	0.666772
C103	C	-0.186585	0.059278	0.000125
C104	C	0.146748	0.392612	0.333458
C105	C	0.480081	0.725945	0.666792
C106	C	0.346761	0.108839	0.000070
C107	C	0.680094	0.442172	0.333404
C108	C	1.013428	0.775505	0.666737
C109	C	0.397178	0.109347	0.000058
C110	C	0.730511	0.442681	0.333392
C111	C	1.063845	0.776014	0.666725
C112	C	0.409341	0.021186	0.000087
C113	C	0.742674	0.354520	0.333421
C114	C	1.076008	0.687853	0.666754
C115	C	0.358929	0.020678	0.000094
C116	C	0.692262	0.354011	0.333427
C117	C	1.025595	0.687344	0.666760
C118	C	0.327639	0.064508	0.000089
C119	C	0.660973	0.397841	0.333422
C120	C	0.994306	0.731175	0.666755
O121	O	0.284343	-0.017592	0.000089
O122	O	0.617676	0.315741	0.333422
O123	O	0.951009	0.649075	0.666755
O124	O	0.261794	0.145518	0.000090
O125	O	0.595128	0.478851	0.333423
O126	O	0.928461	0.812184	0.666756
C127	C	0.039242	0.105716	0.000109
C128	C	0.372575	0.439050	0.333442
C129	C	0.705908	0.772383	0.666776
C130	C	0.020120	0.061382	0.000129
C131	C	0.353454	0.394715	0.333462
C132	C	0.686787	0.728049	0.666795
C133	C	0.051411	0.017560	0.000141
C134	C	0.384744	0.350893	0.333474
C135	C	0.718078	0.684226	0.666807
C136	C	-0.030294	0.060869	0.000128
C137	C	0.303039	0.394202	0.333461
C138	C	0.636373	0.727536	0.666794
C139	C	-0.061585	0.104691	0.000116
C140	C	0.271749	0.438025	0.333449
C141	C	0.605082	0.771358	0.666782
C142	C	-0.042461	0.149026	0.000105
C143	C	0.290872	0.482360	0.333438
C144	C	0.624206	0.815693	0.666772
C145	C	0.007951	0.149539	0.000097
C146	C	0.341284	0.482872	0.333431
C147	C	0.674618	0.816205	0.666764
C148	C	0.032287	-0.026775	0.000151
C149	C	0.365621	0.306558	0.333485
C150	C	0.698954	0.639891	0.666818
C151	C	-0.018125	-0.027284	0.000158
C152	C	0.315208	0.306049	0.333491
C153	C	0.648541	0.639383	0.666824
C154	C	-0.049416	0.016538	0.000146
C155	C	0.283917	0.349871	0.333479
C156	C	0.617251	0.683205	0.666813
C157	C	0.574716	-0.026515	0.000123
C158	C	0.908050	0.306818	0.333456
C159	C	1.241383	0.640152	0.666790
C160	C	0.574164	-0.080170	0.000131
C161	C	0.907497	0.253163	0.333464
C162	C	1.240830	0.586497	0.666798
C163	C	0.614867	-0.418985	0.000090
C164	C	0.948201	-0.085652	0.333423
C165	C	1.281534	0.247682	0.666756
C166	C	0.612816	-0.620645	0.000075
C167	C	0.946150	-0.287311	0.333409
C168	C	1.279483	0.046022	0.666742
O169	O	0.650037	-0.651900	0.000041
O170	O	0.983370	-0.318567	0.333374
O171	O	1.316704	0.014766	0.666707
N172	N	0.568481	-0.639768	0.000067
N173	N	0.901814	-0.306435	0.333400
N174	N	1.235148	0.026898	0.666733
C175	C	0.524656	-0.608474	0.000055
C176	C	0.857989	-0.275140	0.333388
C177	C	1.191322	0.058193	0.666721
O178	O	0.486899	-0.629367	0.000037
O179	O	0.820232	-0.296033	0.333370
O180	O	1.153565	0.037300	0.666703
C181	C	0.526707	-0.406815	0.000062
C182	C	0.860040	-0.073482	0.333395
C183	C	1.193374	0.259852	0.666728
C184	C	0.571045	-0.387694	0.000081
C185	C	0.904378	-0.054361	0.333414
C186	C	1.237712	0.278972	0.666747
C187	C	0.659202	-0.399864	0.000107
C188	C	0.992535	-0.066530	0.333441
C189	C	1.325868	0.266803	0.666774
C190	C	0.659714	-0.349452	0.000116
C191	C	0.993047	-0.016118	0.333450
C192	C	1.326381	0.317215	0.666783
C193	C	0.615892	-0.318161	0.000107
C194	C	0.949225	0.015172	0.333441
C195	C	1.282559	0.348506	0.666774
C196	C	0.571557	-0.337282	0.000090
C197	C	0.904891	-0.003949	0.333423
C198	C	1.238224	0.329384	0.666756
C199	C	0.482882	-0.375521	0.000043
C200	C	0.816215	-0.042188	0.333376
C201	C	1.149549	0.291145	0.666710
C202	C	0.483399	-0.325104	0.000042
C203	C	0.816732	0.008229	0.333376
C204	C	1.150066	0.341563	0.666709
C205	C	0.527737	-0.305983	0.000061
C206	C	0.861070	0.027350	0.333394
C207	C	1.194404	0.360683	0.666728
C208	C	0.528247	-0.255580	0.000090
C209	C	0.861581	0.077754	0.333423
C210	C	1.194914	0.411087	0.666756
N211	N	0.572583	-0.236456	0.000099
N212	N	0.905916	0.096877	0.333432
N213	N	1.239249	0.430211	0.666765
C214	C	0.616405	-0.267747	0.000107
C215	C	0.949738	0.065587	0.333441
C216	C	1.283072	0.398920	0.666774
C217	C	0.523582	-0.714348	0.000053
C218	C	0.856915	-0.381014	0.333386
C219	C	1.190248	-0.047681	0.666720
C220	C	0.523069	-0.764762	0.000053
C221	C	0.856402	-0.431429	0.333386
C222	C	1.189735	-0.098096	0.666720
C223	C	0.611230	-0.776930	0.000072
C224	C	0.944563	-0.443596	0.333405
C225	C	1.277896	-0.110263	0.666738
C226	C	0.611742	-0.726514	0.000079
C227	C	0.945075	-0.393181	0.333412
C228	C	1.278409	-0.059848	0.666745
C229	C	0.567917	-0.695224	0.000062
C230	C	0.901250	-0.361891	0.333395
C231	C	1.234583	-0.028557	0.666728
C232	C	0.617477	-0.161878	0.000127
C233	C	0.950811	0.171456	0.333460
C234	C	1.284144	0.504789	0.666794
C235	C	0.617986	-0.111461	0.000140
C236	C	0.951319	0.221873	0.333473
C237	C	1.284652	0.555206	0.666807
C238	C	0.529825	-0.099298	0.000116
C239	C	0.863158	0.234036	0.333449
C240	C	1.196492	0.567369	0.666782
C241	C	0.529316	-0.149710	0.000108
C242	C	0.862650	0.183623	0.333441
C243	C	1.195983	0.516957	0.666775
C244	C	0.573147	-0.180999	0.000110
C245	C	0.906480	0.152334	0.333444
C246	C	1.239813	0.485667	0.666777
O247	O	0.491047	-0.224296	0.000113
O248	O	0.824380	0.109038	0.333447
O249	O	1.157713	0.442371	0.666780
O250	O	0.654156	-0.246844	0.000104
O251	O	0.987490	0.086489	0.333437
O252	O	1.320823	0.419823	0.666770
C253	C	0.614355	-0.469397	0.000081
C254	C	0.947688	-0.136064	0.333414
C255	C	1.281022	0.197270	0.666747
C256	C	0.570021	-0.488518	0.000063
C257	C	0.903354	-0.155185	0.333396
C258	C	1.236687	0.178148	0.666730
C259	C	0.526198	-0.457228	0.000054
C260	C	0.859532	-0.123894	0.333387
C261	C	1.192865	0.209439	0.666721
C262	C	0.569508	-0.538933	0.000063
C263	C	0.902841	-0.205599	0.333396
C264	C	1.236174	0.127734	0.666730
C265	C	0.613330	-0.570223	0.000072
C266	C	0.946663	-0.236890	0.333405
C267	C	1.279996	0.096443	0.666738
C268	C	0.657665	-0.551100	0.000081
C269	C	0.990998	-0.217766	0.333414
C270	C	1.324332	0.115567	0.666747
C271	C	0.658177	-0.500688	0.000090
C272	C	0.991511	-0.167354	0.333423
C273	C	1.324844	0.165979	0.666756
C274	C	0.481863	-0.476351	0.000045
C275	C	0.815197	-0.143018	0.333378
C276	C	1.148530	0.190315	0.666712
C277	C	0.481355	-0.526764	0.000037
C278	C	0.814688	-0.193430	0.333371
C279	C	1.148021	0.139903	0.666704
C280	C	0.525177	-0.558054	0.000046
C281	C	0.858510	-0.224721	0.333380
C282	C	1.191843	0.108612	0.666713
C283	C	0.658931	0.057699	0.000118
C284	C	0.992264	0.391033	0.333451
C285	C	1.325598	0.724366	0.666785
C286	C	0.712586	0.058252	0.000123
C287	C	1.045919	0.391586	0.333456
C288	C	1.379252	0.724919	0.666789
C289	C	0.566338	0.150292	0.000076
C290	C	0.899671	0.483626	0.333409
C291	C	1.233005	0.816959	0.666743
C292	C	0.566891	0.203947	0.000062
C293	C	0.900224	0.537280	0.333395
C294	C	1.233557	0.870614	0.666728
N295	N	0.570519	0.061882	0.254956
N296	N	0.903853	0.395216	0.588290
N297	N	1.237186	0.728549	0.921623
N298	N	0.570539	0.061891	-0.254755
N299	N	0.903872	0.395224	0.078578
N300	N	1.237206	0.728558	0.411912
C301	C	0.570531	0.061892	0.656247
C302	C	0.903865	0.395225	0.989581
C303	C	1.237198	0.728558	1.322914
C304	C	0.570527	0.061891	0.544596
C305	C	0.903860	0.395224	0.877929
C306	C	1.237193	0.728557	1.211263
C307	C	0.570526	0.061887	0.455605
C308	C	0.903859	0.395221	0.788939
C309	C	1.237192	0.728554	1.122272
C310	C	0.570520	0.061886	0.343947
C311	C	0.903854	0.395219	0.677280
C312	C	1.237187	0.728552	1.010614
H313	H	0.174750	0.187180	0.000057
H314	H	0.508083	0.520513	0.333390
H315	H	0.841417	0.853847	0.666724
H316	H	0.493213	-0.165279	0.000120
H317	H	0.826546	0.168055	0.333453
H318	H	1.159879	0.501388	0.666787
H319	H	0.487892	-0.688875	0.000039
H320	H	0.821225	-0.355542	0.333373
H321	H	1.154558	-0.022208	0.666706
H322	H	0.117558	-0.061861	0.000173
H323	H	0.450892	0.271472	0.333507
H324	H	0.784225	0.604805	0.666840
H325	H	-0.202311	0.139207	0.000094
H326	H	0.131022	0.472541	0.333427
H327	H	0.464355	0.805874	0.666760
H328	H	-0.293777	0.138273	0.000101
H329	H	0.039557	0.471606	0.333435
H330	H	0.372890	0.804939	0.666768
H331	H	0.321291	0.144530	0.000069
H332	H	0.654624	0.477863	0.333402
H333	H	0.987957	0.811196	0.666736
H334	H	0.494146	-0.073812	0.000112
H335	H	0.827480	0.259522	0.333445
H336	H	1.160813	0.592855	0.666779
H337	H	-0.271687	-0.021674	0.000136
H338	H	0.061646	0.311659	0.333469
H339	H	0.394980	0.644992	0.666802
H340	H	0.083302	0.186251	0.000076
H341	H	0.416636	0.519584	0.333409
H342	H	0.749969	0.852917	0.666743
H343	H	0.647846	-0.710950	0.000093
H344	H	0.981179	-0.377617	0.333427
H345	H	1.314513	-0.044283	0.666760
H346	H	0.446177	-0.450879	0.000036
H347	H	0.779510	-0.117545	0.333369
H348	H	1.112844	0.215788	0.666702
H349	H	0.694889	-0.425336	0.000111
H350	H	1.028223	-0.092003	0.333444
H351	H	1.361556	0.241330	0.666778
H352	H	0.023514	0.185643	0.000082
H353	H	0.356847	0.518977	0.333415
H354	H	0.690181	0.852310	0.666749
H355	H	0.445246	-0.542327	0.000030
H356	H	0.778580	-0.208993	0.333364
H357	H	1.111913	0.124340	0.666697
H358	H	0.209009	-0.060929	0.000175
H359	H	0.542343	0.272405	0.333508
H360	H	0.875676	0.605738	0.666841
H361	H	-0.180236	-0.020747	0.000152
H362	H	0.153097	0.312586	0.333485
H363	H	0.486430	0.645920	0.666818
H364	H	0.446777	-0.391080	0.000022
H365	H	0.780111	-0.057747	0.333355
H366	H	1.113444	0.275586	0.666688
H367	H	0.343360	-0.015426	0.000096
H368	H	0.676693	0.317907	0.333430
H369	H	1.010027	0.651241	0.666763
H370	H	0.434827	-0.014492	0.000093
H371	H	0.768160	0.318841	0.333426
H372	H	1.101494	0.652174	0.666760
H373	H	0.447710	-0.299629	0.000027
H374	H	0.781043	0.033704	0.333360
H375	H	1.114377	0.367037	0.666694
H376	H	-0.067947	0.184708	0.000091
H377	H	0.265386	0.518041	0.333425
H378	H	0.598720	0.851375	0.666758
H379	H	-0.033688	-0.063392	0.000167
H380	H	0.299645	0.269941	0.333500
H381	H	0.632979	0.603275	0.666833
H382	H	0.646911	-0.802415	0.000079
H383	H	0.980245	-0.469082	0.333413
H384	H	1.313578	-0.135749	0.666746
H385	H	0.694282	-0.485125	0.000105
H386	H	1.027615	-0.151791	0.333438
H387	H	1.360949	0.181542	0.666771
H388	H	0.057760	-0.062462	0.000163
H389	H	0.391093	0.270872	0.333497
H390	H	0.724427	0.604205	0.666830
H391	H	0.654093	-0.095896	0.000158
H392	H	0.987426	0.237438	0.333491
H393	H	1.320759	0.570771	0.666825
H394	H	0.486964	-0.780325	0.000055
H395	H	0.820297	-0.446992	0.333388
H396	H	1.153631	-0.113659	0.666721
H397	H	0.653168	-0.187348	0.000125
H398	H	0.986501	0.145985	0.333458
H399	H	1.319835	0.479319	0.666792
H400	H	0.695819	-0.333889	0.000128
H401	H	1.029152	-0.000555	0.333461
H402	H	1.362485	0.332778	0.666794
H403	H	0.412743	0.145454	0.000041
H404	H	0.746076	0.478787	0.333374
H405	H	1.079410	0.812121	0.666708
H406	H	0.693347	-0.576585	0.000092
H407	H	1.026680	-0.243252	0.333426
H408	H	1.360013	0.090081	0.666759
