data_functionalizedCrystal
_audit_creation_method	'MofGen! by Chris Wilmer'
_symmetry_space_group_name_H-M	'P1'
_symmetry_Int_Tables_number	1
_symmetry_cell_setting	triclinic
loop_
_symmetry_equiv_pos_as_xyz
  x,y,z
_cell_length_a	20.016444
_cell_length_b	23.196402
_cell_length_c	23.196401
_cell_angle_alpha	60.007332
_cell_angle_beta	90.015070
_cell_angle_gamma	60.004272
loop_
_atom_site_label
_atom_site_type_symbol
_atom_site_fract_x
_atom_site_fract_y
_atom_site_fract_z
Zr1	Zr	0.643660	0.630958	-0.075604
O2	O	0.536972	0.751224	-0.167655
O3	O	0.676356	0.510695	-0.047388
O4	O	0.676336	0.630958	-0.167654
O5	O	0.537017	0.630959	0.047482
O6	O	0.786281	0.630955	-0.167649
O7	O	0.536991	0.630961	-0.047389
O8	O	0.786315	0.415827	0.047485
O9	O	0.536983	0.846088	-0.167652
O10	O	0.772362	0.560157	-0.035347
O11	O	0.690331	0.560159	0.035451
O12	O	0.690309	0.701753	-0.106147
O13	O	0.608278	0.701754	-0.035349
Zr14	Zr	0.819050	0.630950	0.075713
Zr15	Zr	0.819008	0.630953	-0.075596
Zr16	Zr	0.643702	0.630956	0.075705
Zr17	Zr	0.643677	0.782255	-0.075598
Zr18	Zr	0.819033	0.479653	0.075707
O19	O	0.786355	0.751213	0.047497
O20	O	0.786295	0.751216	-0.167645
O21	O	0.537031	0.751220	0.047487
O22	O	0.925739	0.510685	0.167764
O23	O	0.925679	0.510688	-0.047377
O24	O	0.676415	0.510692	0.167754
O25	O	0.925693	0.630949	-0.047373
O26	O	0.786374	0.630950	0.167763
O27	O	0.676429	0.630953	0.167758
O28	O	0.925719	0.630948	0.047499
O29	O	0.676362	0.846084	-0.167646
O30	O	0.786349	0.415825	0.167755
O31	O	0.925727	0.415820	0.167761
O32	O	0.925694	0.415822	0.047490
O33	O	0.537016	0.846086	-0.047381
O34	O	0.676395	0.846082	-0.047375
O35	O	0.772401	0.560155	0.106256
O36	O	0.854432	0.560154	0.035458
O37	O	0.772379	0.701749	-0.035342
O38	O	0.690348	0.701751	0.035456
C39	C	0.731333	0.441704	0.000048
C40	C	0.731325	0.377475	0.000045
C41	C	0.791910	0.295044	0.052308
C42	C	0.791915	0.234683	0.052315
C43	C	0.731343	0.256759	0.000047
C44	C	0.670748	0.339204	-0.052221
C45	C	0.670739	0.399562	-0.052222
C46	C	0.712466	0.201173	-0.063746
C47	C	0.712480	0.140814	-0.063745
C48	C	0.731365	0.070597	0.000050
C49	C	0.750253	0.060737	0.063849
C50	C	0.750244	0.121095	0.063848
C51	C	0.731345	0.191317	0.000043
C52	C	0.791959	-0.077287	0.052325
C53	C	0.791959	-0.137647	0.052332
C54	C	0.670794	-0.033123	-0.052209
C55	C	0.670791	0.027234	-0.052211
C56	C	0.731377	0.005146	0.000056
C57	C	0.512021	0.630961	0.000045
C58	C	0.437581	0.630963	0.000042
C59	C	0.266310	0.630954	-0.052213
C60	C	0.196370	0.630949	-0.052208
C61	C	0.196406	0.630952	0.052327
C62	C	0.266349	0.630951	0.052325
C63	C	0.301296	0.630956	0.000051
C64	C	0.161414	0.630952	0.000058
C65	C	0.085582	0.630946	0.000064
C66	C	0.377134	0.630960	0.000046
C67	C	0.950690	0.630948	0.000064
C68	C	1.025130	0.630945	0.000067
C69	C	0.731303	0.630957	-0.189210
C70	C	0.731285	0.630958	-0.253444
C71	C	0.731377	0.820204	0.000062
C72	C	0.731385	0.884434	0.000064
C73	C	0.688458	0.704867	-0.320574
C74	C	0.688479	0.704868	-0.380929
C75	C	0.731315	0.630956	-0.374151
C76	C	0.774152	0.557037	-0.307009
C77	C	0.774136	0.557038	-0.246656
C78	C	0.725225	0.574330	-0.441470
C79	C	0.725234	0.574332	-0.501824
C80	C	0.731367	0.630950	-0.560298
C81	C	0.737474	0.687579	-0.558419
C82	C	0.737459	0.687580	-0.498066
C83	C	0.731337	0.630947	-0.439589
C84	C	0.688561	0.704865	-0.692875
C85	C	0.688587	0.704863	-0.753230
C86	C	0.774255	0.557030	-0.679307
C87	C	0.774234	0.557034	-0.618954
C88	C	0.731382	0.630954	-0.625743
C89	C	0.731408	0.630951	0.189319
C90	C	0.731425	0.630950	0.253554
C91	C	0.950667	0.441698	0.000057
C92	C	1.025100	0.377466	0.000058
C93	C	0.731385	0.441701	0.189312
C94	C	0.731396	0.377471	0.253544
C95	C	0.950720	0.441695	0.189321
C96	C	1.025170	0.377462	0.253557
C97	C	0.511990	0.820214	-0.189212
C98	C	0.437540	0.884446	-0.253447
C99	C	0.512043	0.820211	0.000052
C100	C	0.437610	0.884443	0.000052
C101	C	0.731325	0.820207	-0.189203
C102	C	0.731314	0.884438	-0.253435
C103	C	1.017215	0.347304	-0.036908
C104	C	1.087145	0.286959	-0.036921
C105	C	1.164960	0.256774	0.000035
C106	C	1.172844	0.286942	0.037002
C107	C	1.102914	0.347290	0.037011
C108	C	0.774240	0.347306	0.320674
C109	C	0.774247	0.286962	0.381033
C110	C	0.731413	0.256782	0.374260
C111	C	0.688563	0.286953	0.307123
C112	C	0.688553	0.347299	0.246766
C113	C	1.102959	0.347297	0.246766
C114	C	1.172920	0.286951	0.307116
C115	C	1.165090	0.256768	0.374256
C116	C	1.087293	0.286939	0.381045
C117	C	1.017334	0.347288	0.320696
C118	C	0.359751	0.914619	-0.246657
C119	C	0.289790	0.974983	-0.307007
C120	C	0.297620	1.005169	-0.374147
C121	C	0.375418	0.974994	-0.380936
C122	C	0.445377	0.914635	-0.320586
C123	C	0.445495	0.914611	0.037011
C124	C	0.375565	0.974972	0.037008
C125	C	0.297750	1.005159	0.000049
C126	C	0.289866	0.974988	-0.036915
C127	C	0.359796	0.914633	-0.036915
C128	C	0.774156	0.914599	-0.246640
C129	C	0.774163	0.974943	-0.306987
C130	C	0.731322	1.005128	-0.374129
C131	C	0.688479	0.974960	-0.380923
C132	C	0.688478	0.914613	-0.320576
H133	H	0.765621	0.113064	0.115795
N134	N	1.111410	0.379854	0.174354
H135	H	1.084297	0.369350	0.147663
H136	H	1.171323	0.351573	0.179274
H137	H	0.953860	0.371880	-0.067011
H138	H	0.731429	0.207644	0.423413
N139	N	0.642269	1.007527	-0.453343
H140	H	0.615124	0.979267	-0.448499
H141	H	0.681592	0.997023	-0.479989
N142	N	0.820434	0.379859	0.327986
H143	H	0.863533	0.369353	0.304600
H144	H	0.847518	0.351576	0.379688
H145	H	0.381783	0.999580	-0.435608
N146	N	0.820468	0.254426	0.453438
H147	H	0.847606	0.282699	0.448565
H148	H	0.863525	0.193841	0.480093
H149	H	0.653689	0.262371	0.301619
H150	H	0.167944	0.630949	0.094887
N151	N	0.820353	0.477315	-0.299691
H152	H	0.880268	0.445004	-0.273016
H153	H	0.813799	0.488596	-0.348134
N154	N	0.642265	0.882086	-0.327910
H155	H	0.615128	0.910371	-0.379603
H156	H	0.599208	0.892597	-0.304488
H157	H	0.720224	0.528226	-0.393862
N158	N	0.605422	0.363011	-0.108595
H159	H	0.608054	0.396368	-0.156578
H160	H	0.549848	0.396323	-0.106252
N161	N	0.222325	1.070253	0.000053
H162	H	0.222299	1.120328	-0.020975
H163	H	0.222358	1.049172	0.050126
H164	H	1.236211	0.262357	0.067090
H165	H	0.508850	0.890037	0.067112
H166	H	0.841243	0.277052	0.094869
N167	N	0.304006	0.630959	-0.108590
H168	H	0.271228	0.630956	-0.141698
H169	H	0.362155	0.580694	-0.085734
H170	H	0.240648	1.054317	-0.423282
H171	H	0.731329	1.054266	-0.423261
H172	H	0.294838	0.630950	0.094888
H173	H	0.809043	0.890032	-0.191975
N174	N	0.820376	1.007471	-0.299650
H175	H	0.847506	0.979194	-0.247958
H176	H	0.781057	1.068056	-0.323082
N177	N	1.240376	0.191680	0.000023
H178	H	1.274051	0.141594	0.050075
H179	H	1.273979	0.212746	-0.021042
N180	N	0.205935	1.007538	-0.076762
H181	H	0.162838	1.050342	-0.071142
H182	H	0.199464	0.961441	-0.057344
H183	H	0.841293	-0.204769	0.094895
H184	H	0.353364	0.890071	-0.067010
H185	H	0.953997	0.371840	0.326234
N186	N	0.857261	0.145763	0.108687
H187	H	0.895639	0.140931	0.141798
H188	H	0.889019	0.118454	0.085825
H189	H	0.765624	0.003566	0.115796
N190	N	0.642290	0.379874	0.174362
H191	H	0.615145	0.351606	0.179237
H192	H	0.681566	0.369395	0.147674
N193	N	0.605461	0.116145	-0.108598
H194	H	0.549851	0.128496	-0.106330
H195	H	0.608188	0.128411	-0.156543
H196	H	0.353359	0.890045	-0.191994
H197	H	0.841288	-0.095273	0.094886
H198	H	0.742433	0.733688	-0.496538
H199	H	0.621474	-0.015147	-0.094766
H200	H	0.508714	0.890069	-0.326123
H201	H	0.382000	0.999527	0.067110
H202	H	1.109346	0.371840	0.067116
N203	N	0.205887	1.007520	-0.299676
H204	H	0.211549	0.979228	-0.247985
H205	H	0.174988	0.997025	-0.323112
N206	N	0.642252	0.784591	-0.327894
H207	H	0.615128	0.831413	-0.379583
H208	H	0.681578	0.787806	-0.304448
H209	H	0.697079	0.258349	-0.115699
N210	N	0.692117	0.151445	-0.132551
H211	H	0.680143	0.205089	-0.172966
H212	H	0.642511	0.150982	-0.138920
H213	H	0.621400	0.466685	-0.094780
N214	N	1.256823	0.254416	0.299785
H215	H	1.251161	0.282691	0.248094
H216	H	1.287713	0.193832	0.323217
N217	N	1.240549	0.191678	0.439345
H218	H	1.291014	0.177152	0.424849
H219	H	1.240518	0.141639	0.468366
H220	H	0.653602	0.765056	-0.435597
N221	N	0.158636	0.630944	-0.108576
H222	H	0.191391	0.630946	-0.141689
H223	H	0.100485	0.681208	-0.135986
N224	N	0.744085	0.748654	-0.621482
H225	H	0.743172	0.740061	-0.660001
H226	H	0.797033	0.741071	-0.607118
N227	N	1.078849	0.254380	0.453460
H228	H	1.105971	0.264878	0.480150
H229	H	1.105958	0.193807	0.480082
N230	N	0.642354	0.784584	-0.700182
H231	H	0.582441	0.816902	-0.726864
H232	H	0.664890	0.816831	-0.726802
N233	N	0.642426	0.784584	-0.825639
H234	H	0.615288	0.831408	-0.820777
H235	H	0.599374	0.787823	-0.852329
H236	H	0.809104	0.496849	-0.564293
N237	N	0.820468	0.477307	-0.671985
H238	H	0.781201	0.474004	-0.695393
H239	H	0.847593	0.430535	-0.620282
N240	N	0.718665	0.513247	-0.503845
H241	H	0.714795	0.477368	-0.457639
H242	H	0.768692	0.478482	-0.511485
H243	H	0.809012	0.496850	-0.191994
H244	H	1.080710	0.262404	-0.067024
