data_functionalizedCrystal
_audit_creation_method	'MofGen! by Chris Wilmer'
_symmetry_space_group_name_H-M	'P1'
_symmetry_Int_Tables_number	1
_symmetry_cell_setting	triclinic
loop_
_symmetry_equiv_pos_as_xyz
  x,y,z
_cell_length_a	14.971486
_cell_length_b	7.681481
_cell_length_c	14.971486
_cell_angle_alpha	95.749252
_cell_angle_beta	83.614129
_cell_angle_gamma	84.264653
loop_
_atom_site_label
_atom_site_type_symbol
_atom_site_fract_x
_atom_site_fract_y
_atom_site_fract_z
O1	O	1.178508	0.146229	0.125010
O2	O	0.918105	0.146278	0.138972
O3	O	1.055287	0.146240	0.001790
O4	O	1.041326	0.146267	0.262192
O5	O	1.072172	-0.146623	-0.015133
O6	O	0.934990	-0.146585	0.122049
O7	O	1.195393	-0.146633	0.108087
Zn8	Zn	1.067872	-0.193107	0.112381
Zn9	Zn	1.045626	0.192752	0.134678
O10	O	1.058211	-0.146595	0.245269
C11	C	0.893222	-0.000148	0.129887
C12	C	0.793924	-0.000130	0.128017
N13	N	1.083061	-0.456446	0.097164
C14	C	0.736699	-0.000124	0.208606
C15	C	0.643401	-0.000150	0.206842
C16	C	0.607330	-0.000170	0.124487
C17	C	0.664563	-0.000181	0.043891
C18	C	0.757860	-0.000167	0.045656
C19	C	0.470102	-0.000206	0.040219
C20	C	0.376798	-0.000216	0.038454
C21	C	0.355643	-0.000188	0.201405
C22	C	0.448940	-0.000175	0.203169
C23	C	0.506166	-0.000183	0.122573
C24	C	1.220275	-0.000204	0.117173
C25	C	1.319573	-0.000210	0.119043
C26	C	1.063105	-0.000191	-0.039996
C27	C	1.061234	-0.000189	-0.139293
N28	N	1.030444	0.456090	0.149889
C29	C	1.141824	-0.000205	-0.196519
C30	C	1.140060	-0.000187	-0.289818
C31	C	1.057706	-0.000166	-0.325889
C32	C	0.977109	-0.000144	-0.268655
C33	C	0.978873	-0.000150	-0.175357
C34	C	0.973437	-0.000137	-0.463117
C35	C	0.971673	-0.000135	-0.556421
C36	C	1.134624	-0.000175	-0.577577
C37	C	1.136389	-0.000180	-0.484280
C38	C	1.055792	-0.000162	-0.427052
C39	C	1.050393	-0.000161	0.287055
C40	C	1.052263	-0.000151	0.386353
H41	H	0.766060	-0.000106	0.275669
Br42	Br	1.172604	-0.581806	0.007472
H43	H	1.208887	-0.000234	-0.167159
Br44	Br	0.864055	-0.000106	-0.385451
H45	H	0.904614	-0.000146	-0.585788
Br46	Br	0.865339	-0.000085	-0.317605
Br47	Br	0.940919	-0.418556	0.239591
H48	H	1.205685	-0.000204	-0.336408
H49	H	1.203449	-0.000210	-0.454915
H50	H	1.200249	-0.000184	-0.624176
Br51	Br	0.615611	-0.000226	-0.067878
H52	H	0.596810	-0.000143	0.272466
H53	H	0.913248	-0.000136	-0.128764
H54	H	0.478304	-0.000142	0.270230
Br55	Br	0.277979	-0.000175	0.310786
H56	H	0.347433	-0.000235	-0.028606
H57	H	0.804453	-0.000171	-0.019968
Br58	Br	0.547767	-0.000226	-0.069163
