data_functionalizedCrystal
_audit_creation_method	'MofGen! by Chris Wilmer'
_symmetry_space_group_name_H-M	'P1'
_symmetry_Int_Tables_number	1
_symmetry_cell_setting	triclinic
loop_
_symmetry_equiv_pos_as_xyz
  x,y,z
_cell_length_a	14.519709
_cell_length_b	14.519731
_cell_length_c	12.996460
_cell_angle_alpha	89.992872
_cell_angle_beta	90.000034
_cell_angle_gamma	83.684499
loop_
_atom_site_label
_atom_site_type_symbol
_atom_site_fract_x
_atom_site_fract_y
_atom_site_fract_z
O1	O	1.223878	0.120892	-0.085435
O2	O	1.473878	0.370892	0.164565
O3	O	1.723878	0.620892	0.414565
O4	O	1.973878	0.870892	0.664565
O5	O	0.955402	0.135128	-0.085467
O6	O	1.205402	0.385128	0.164533
O7	O	1.455402	0.635128	0.414533
O8	O	1.705402	0.885128	0.664533
O9	O	1.096748	-0.006227	-0.085441
O10	O	1.346748	0.243773	0.164559
O11	O	1.596748	0.493773	0.414559
O12	O	1.846748	0.743773	0.664559
O13	O	1.082532	0.262247	-0.085461
O14	O	1.332532	0.512247	0.164539
O15	O	1.582532	0.762247	0.414539
O16	O	1.832532	1.012247	0.664539
O17	O	1.096733	-0.006235	0.085693
O18	O	1.346733	0.243765	0.335693
O19	O	1.596733	0.493765	0.585693
O20	O	1.846733	0.743765	0.835693
O21	O	0.955387	0.135120	0.085667
O22	O	1.205387	0.385120	0.335667
O23	O	1.455387	0.635120	0.585667
O24	O	1.705387	0.885120	0.835667
O25	O	1.223863	0.120884	0.085699
O26	O	1.473863	0.370884	0.335699
O27	O	1.723863	0.620884	0.585699
O28	O	1.973863	0.870884	0.835699
Cu29	Cu	1.089624	0.128001	0.101309
Cu30	Cu	1.339624	0.378001	0.351309
Cu31	Cu	1.589624	0.628001	0.601309
Cu32	Cu	1.839624	0.878001	0.851309
Cu33	Cu	1.089641	0.128011	-0.101077
Cu34	Cu	1.339641	0.378011	0.148923
Cu35	Cu	1.589641	0.628011	0.398923
Cu36	Cu	1.839641	0.878011	0.648923
O37	O	1.082517	0.262239	0.085673
O38	O	1.332517	0.512239	0.335673
O39	O	1.582517	0.762239	0.585673
O40	O	1.832517	1.012239	0.835673
C41	C	0.921035	0.134461	0.000096
C42	C	1.171035	0.384461	0.250096
C43	C	1.421035	0.634461	0.500096
C44	C	1.671035	0.884461	0.750096
C45	C	0.818654	0.132473	0.000084
C46	C	1.068654	0.382473	0.250084
C47	C	1.318654	0.632473	0.500084
C48	C	1.568654	0.882473	0.750084
C49	C	1.096075	-0.040591	0.000126
C50	C	1.346075	0.209409	0.250126
C51	C	1.596075	0.459409	0.500126
C52	C	1.846075	0.709409	0.750126
C53	C	1.094079	-0.142971	0.000127
C54	C	1.344079	0.107029	0.250127
C55	C	1.594079	0.357029	0.500127
C56	C	1.844079	0.607029	0.750127
C57	C	0.443757	0.125153	0.000132
C58	C	0.693757	0.375153	0.250132
C59	C	0.943757	0.625153	0.500132
C60	C	1.193757	0.875153	0.750132
C61	C	0.548065	0.127186	0.000118
C62	C	0.798065	0.377186	0.250118
C63	C	1.048065	0.627186	0.500118
C64	C	1.298065	0.877186	0.750118
C65	C	0.631202	0.128813	0.000107
C66	C	0.881202	0.378813	0.250107
C67	C	1.131202	0.628813	0.500107
C68	C	1.381202	0.878813	0.750107
C69	C	0.735517	0.130846	0.000095
C70	C	0.985517	0.380846	0.250095
C71	C	1.235517	0.630846	0.500095
C72	C	1.485517	0.880846	0.750095
C73	C	1.092457	-0.226115	0.000124
C74	C	1.342457	0.023885	0.250124
C75	C	1.592457	0.273885	0.500124
C76	C	1.842457	0.523885	0.750124
C77	C	1.090430	-0.330424	0.000116
C78	C	1.340430	-0.080424	0.250116
C79	C	1.590430	0.169576	0.500116
C80	C	1.840430	0.419576	0.750116
C81	C	1.088822	-0.413563	0.000109
C82	C	1.338822	-0.163563	0.250109
C83	C	1.588822	0.086437	0.500109
C84	C	1.838822	0.336437	0.750109
C85	C	1.086795	-0.517878	0.000103
C86	C	1.336795	-0.267878	0.250103
C87	C	1.586795	-0.017878	0.500103
C88	C	1.836795	0.232122	0.750103
C89	C	1.258230	0.121551	0.000133
C90	C	1.508230	0.371551	0.250133
C91	C	1.758230	0.621551	0.500133
C92	C	2.008230	0.871551	0.750133
C93	C	1.360612	0.123539	0.000138
C94	C	1.610612	0.373539	0.250138
C95	C	1.860612	0.623539	0.500138
C96	C	2.110612	0.873539	0.750138
C97	C	1.083191	0.296603	0.000103
C98	C	1.333191	0.546603	0.250103
C99	C	1.583191	0.796603	0.500103
C100	C	1.833191	1.046603	0.750103
C101	C	1.085187	0.398983	0.000096
C102	C	1.335187	0.648983	0.250096
C103	C	1.585187	0.898983	0.500096
C104	C	1.835187	1.148983	0.750096
N105	N	1.089618	0.127994	0.243656
N106	N	1.339618	0.377994	0.493656
N107	N	1.589618	0.627994	0.743656
N108	N	1.839618	0.877994	0.993656
N109	N	1.089654	0.128010	-0.243424
N110	N	1.339654	0.378010	0.006576
N111	N	1.589654	0.628010	0.256576
N112	N	1.839654	0.878010	0.506576
C113	C	1.089640	0.128012	0.663470
C114	C	1.339640	0.378012	0.913470
C115	C	1.589640	0.628012	1.163470
C116	C	1.839640	0.878012	1.413470
C117	C	1.089631	0.128010	0.546665
C118	C	1.339631	0.378010	0.796665
C119	C	1.589631	0.628010	1.046665
C120	C	1.839631	0.878010	1.296665
C121	C	1.089630	0.128004	0.453567
C122	C	1.339630	0.378004	0.703567
C123	C	1.589630	0.628004	0.953567
C124	C	1.839630	0.878004	1.203567
C125	C	1.089620	0.128001	0.336754
C126	C	1.339620	0.378001	0.586754
C127	C	1.589620	0.628001	0.836754
C128	C	1.839620	0.878001	1.086754
