data_functionalizedCrystal
_audit_creation_method	'MofGen! by Chris Wilmer'
_symmetry_space_group_name_H-M	'P1'
_symmetry_Int_Tables_number	1
_symmetry_cell_setting	triclinic
loop_
_symmetry_equiv_pos_as_xyz
  x,y,z
_cell_length_a	14.044191
_cell_length_b	14.044220
_cell_length_c	10.065875
_cell_angle_alpha	99.592716
_cell_angle_beta	80.446775
_cell_angle_gamma	93.190327
loop_
_atom_site_label
_atom_site_type_symbol
_atom_site_fract_x
_atom_site_fract_y
_atom_site_fract_z
O1	O	1.289948	0.217355	-0.113432
O2	O	1.013277	0.209040	-0.113449
O3	O	1.147458	0.074863	-0.113428
O4	O	1.155767	0.351532	-0.113454
O5	O	1.121881	0.100561	0.113557
O6	O	0.987700	0.234738	0.113535
O7	O	1.264371	0.243053	0.113552
Zn8	Zn	1.121975	0.242976	0.149582
Zn9	Zn	1.155673	0.209118	-0.149480
O10	O	1.130190	0.377230	0.113531
C11	C	0.964867	0.218252	0.000041
C12	C	0.858725	0.207404	0.000035
C13	C	0.613265	0.264506	0.000043
C14	C	0.664390	0.187590	0.000048
C15	C	0.772528	0.198618	0.000041
C16	C	0.505118	0.253480	0.000050
C17	C	1.131034	0.052090	0.000065
C18	C	1.120189	-0.054053	0.000066
C19	C	1.100365	-0.248393	0.000045
C20	C	1.177280	-0.299521	0.000046
C21	C	1.166249	-0.407659	0.000034
C22	C	1.111394	-0.140246	0.000057
C23	C	1.312781	0.233840	0.000059
C24	C	1.418925	0.244687	0.000056
C25	C	1.146614	0.400002	0.000035
C26	C	1.157460	0.506144	0.000025
N27	N	1.098983	0.266083	0.353684
N28	N	1.178672	0.186003	-0.353581
C29	C	1.147667	0.217151	0.421471
C30	C	1.129980	0.234943	0.578635
H31	H	0.650708	0.338631	0.000032
Cl32	Cl	1.045401	0.319959	0.668658
Cl33	Cl	1.014407	0.351096	0.443712
Cl34	Cl	1.232004	0.131901	0.331444
H35	H	1.233447	0.130931	0.588107
H36	H	1.026238	-0.285833	0.000037
Cl37	Cl	0.606583	0.073135	0.000058
Cl38	Cl	1.291735	-0.241717	0.000068
