data_functionalizedCrystal
_audit_creation_method	'MofGen! by Chris Wilmer'
_symmetry_space_group_name_H-M	'P1'
_symmetry_Int_Tables_number	1
_symmetry_cell_setting	triclinic
loop_
_symmetry_equiv_pos_as_xyz
  x,y,z
_cell_length_a	8.497374
_cell_length_b	11.169416
_cell_length_c	11.169417
_cell_angle_alpha	89.988781
_cell_angle_beta	89.999788
_cell_angle_gamma	90.005100
loop_
_atom_site_label
_atom_site_type_symbol
_atom_site_fract_x
_atom_site_fract_y
_atom_site_fract_z
Zn1	Zn	0.891929	-0.477987	-1.834730
Zn2	Zn	0.628147	-0.678637	-1.834688
Zn3	Zn	0.628164	-0.477970	-1.634085
Zn4	Zn	0.891886	-0.678630	-1.634023
O5	O	0.760031	-0.578306	-1.734381
O6	O	0.856949	-0.504614	-2.002674
O7	O	0.407387	-0.652014	-1.808086
O8	O	0.663178	-0.310023	-1.660744
O9	O	0.663150	-0.652031	-2.002643
O10	O	0.856965	-0.310035	-1.808157
O11	O	0.407399	-0.504585	-1.660703
O12	O	0.663135	-0.504578	-1.466127
O13	O	1.112654	-0.652018	-1.660639
O14	O	0.856891	-0.652002	-1.466082
O15	O	1.112686	-0.504607	-1.808098
O16	O	0.663108	-0.846586	-1.808026
O17	O	0.856875	-0.846581	-1.660599
C18	C	0.760019	-0.890131	-1.734334
C19	C	0.760067	-1.023531	-1.734423
C20	C	0.760011	-0.578288	-1.422557
C21	C	0.760040	-0.578309	-1.289157
C22	C	1.171512	-0.578308	-1.734373
C23	C	1.350156	-0.578321	-1.734375
C24	C	0.760078	-0.265264	-1.734462
C25	C	0.760098	-0.131864	-1.734496
C26	C	0.760053	-0.578325	-2.047424
C27	C	0.760062	-0.578333	-2.180824
