data_functionalizedCrystal
_audit_creation_method	'MofGen! by Chris Wilmer'
_symmetry_space_group_name_H-M	'P1'
_symmetry_Int_Tables_number	1
_symmetry_cell_setting	triclinic
loop_
_symmetry_equiv_pos_as_xyz
  x,y,z
_cell_length_a	11.792241
_cell_length_b	19.188930
_cell_length_c	10.868271
_cell_angle_alpha	89.989749
_cell_angle_beta	89.999893
_cell_angle_gamma	83.669099
loop_
_atom_site_label
_atom_site_type_symbol
_atom_site_fract_x
_atom_site_fract_y
_atom_site_fract_z
O1	O	1.505476	0.095695	-0.102218
O2	O	1.174987	0.105557	-0.102248
O3	O	1.349769	-0.000975	-0.102208
O4	O	1.330695	0.202228	-0.102258
O5	O	1.349755	-0.000980	0.102437
O6	O	1.174973	0.105553	0.102396
O7	O	1.505462	0.095691	0.102427
Zn8	Zn	1.340215	0.100621	0.134903
Zn9	Zn	1.340234	0.100627	-0.134725
O10	O	1.330680	0.202224	0.102387
C11	C	1.132699	0.104936	0.000071
C12	C	1.006713	0.103082	0.000060
C13	C	0.776051	0.099672	0.000096
C14	C	0.904408	0.101566	0.000076
C15	C	1.349144	-0.026992	0.000118
C16	C	1.347290	-0.104507	0.000128
C17	C	1.449846	-0.148850	0.000143
C18	C	1.448104	-0.221684	0.000123
C19	C	1.343800	-0.250171	0.000113
C20	C	1.241230	-0.205818	0.000091
C21	C	1.242975	-0.132986	0.000098
N22	N	1.264067	-0.358629	0.069750
N23	N	1.262417	-0.427817	0.069746
C24	C	1.338536	-0.469609	0.000088
N25	N	1.416386	-0.439602	-0.069550
N26	N	1.418040	-0.370408	-0.069540
C27	C	1.341896	-0.329144	0.000104
C28	C	1.439211	-0.592928	0.000080
C29	C	1.437464	-0.665762	0.000052
C30	C	1.230588	-0.649895	0.000032
C31	C	1.232337	-0.577062	0.000047
C32	C	1.336652	-0.548583	0.000077
C33	C	1.547751	0.096313	0.000105
C34	C	1.673737	0.098167	0.000108
C35	C	1.331305	0.228240	0.000058
C36	C	1.333159	0.305755	0.000040
N37	N	1.340211	0.100617	0.318917
N38	N	1.340248	0.100626	-0.318739
C39	C	1.340228	0.100625	0.569923
C40	C	1.340215	0.100623	0.430246
H41	H	1.534787	-0.125667	0.000163
H42	H	1.524150	-0.569739	0.000098
C43	C	1.559420	-0.269874	-0.000104
C44	C	1.564491	-0.312129	-0.105403
C45	C	1.667022	-0.356522	-0.105660
H46	H	1.563129	-0.298688	0.071178
H47	H	1.621828	-0.242507	-0.000152
H48	H	1.502099	-0.339493	-0.105343
H49	H	1.560801	-0.283334	-0.176702
H50	H	1.729431	-0.329155	-0.105708
H51	H	1.670723	-0.385331	-0.034374
H52	H	1.670481	-0.385192	-0.177109
H53	H	1.159459	-0.096881	0.000086
C54	C	1.548941	-0.713793	0.000130
C55	C	1.640661	-0.673259	0.000193
C56	C	1.743371	-0.717482	0.000282
H57	H	1.552735	-0.742539	-0.071219
H58	H	1.552609	-0.742535	0.071519
H59	H	1.636994	-0.644530	-0.071189
H60	H	1.636904	-0.644515	0.071536
H61	H	1.747040	-0.746224	0.071671
H62	H	1.747154	-0.746226	-0.071068
H63	H	1.805615	-0.689986	0.000336
H64	H	1.156305	-0.229017	0.000080
H65	H	1.145661	-0.673089	0.000017
C66	C	1.120865	-0.529030	0.000111
C67	C	1.029144	-0.569563	0.000130
C68	C	0.926435	-0.525340	0.000202
H69	H	1.117087	-0.500263	-0.071230
H70	H	1.117181	-0.500309	0.071508
H71	H	1.032826	-0.598272	-0.071260
H72	H	1.032885	-0.598329	0.071465
H73	H	0.922751	-0.496620	0.071598
H74	H	0.922668	-0.496575	-0.071140
H75	H	0.864190	-0.552836	0.000226
