data_functionalizedCrystal
_audit_creation_method	'MofGen! by Chris Wilmer'
_symmetry_space_group_name_H-M	'P1'
_symmetry_Int_Tables_number	1
_symmetry_cell_setting	triclinic
loop_
_symmetry_equiv_pos_as_xyz
  x,y,z
_cell_length_a	14.560438
_cell_length_b	14.560438
_cell_length_c	14.560438
_cell_angle_alpha	60.000905
_cell_angle_beta	90.002385
_cell_angle_gamma	60.001166
loop_
_atom_site_label
_atom_site_type_symbol
_atom_site_fract_x
_atom_site_fract_y
_atom_site_fract_z
Zr1	Zr	0.884751	1.005292	-0.120493
O2	O	0.738102	1.196893	-0.267140
O3	O	0.929707	0.813691	-0.075540
O4	O	0.929703	1.005295	-0.267141
O5	O	0.738110	1.005286	0.075601
O6	O	1.080841	1.005298	-0.267138
O7	O	0.738106	1.005289	-0.075540
O8	O	1.080849	0.662553	0.075600
O9	O	0.738102	1.348031	-0.267138
O10	O	1.061673	0.892501	-0.056364
O11	O	0.948883	0.892497	0.056429
O12	O	0.948878	1.118086	-0.169156
O13	O	0.836088	1.118083	-0.056363
Zr14	Zr	1.125806	1.005292	0.120563
Zr15	Zr	1.125800	1.005296	-0.120489
Zr16	Zr	0.884758	1.005288	0.120559
Zr17	Zr	0.884752	1.246340	-0.120488
Zr18	Zr	1.125805	0.764244	0.120559
O19	O	1.080850	1.196893	0.075610
O20	O	1.080841	1.196898	-0.267135
O21	O	0.738111	1.196887	0.075605
O22	O	1.272455	0.813691	0.267210
O23	O	1.272446	0.813697	-0.075535
O24	O	0.929716	0.813685	0.267205
O25	O	1.272447	1.005298	-0.075531
O26	O	1.080854	1.005289	0.267211
O27	O	0.929716	1.005286	0.267209
O28	O	1.272451	1.005295	0.075610
O29	O	0.929703	1.348034	-0.267134
O30	O	1.080854	0.662550	0.267205
O31	O	1.272455	0.662553	0.267208
O32	O	1.272450	0.662557	0.075603
O33	O	0.738107	1.348027	-0.075533
O34	O	0.929708	1.348031	-0.075530
O35	O	1.061679	0.892498	0.169226
O36	O	1.174469	0.892501	0.056433
O37	O	1.061674	1.118086	-0.056359
O38	O	0.948884	1.118083	0.056434
C39	C	1.005278	0.703778	0.000029
C40	C	1.005278	0.601447	0.000027
C41	C	1.064151	0.553373	-0.058849
C42	C	1.064155	0.457214	-0.058839
C43	C	0.946405	0.457215	0.058927
C44	C	0.946408	0.553366	0.058922
C45	C	0.703764	1.005287	0.000030
C46	C	0.601433	1.005285	0.000029
C47	C	0.612232	0.887534	0.058905
C48	C	0.516077	0.887540	0.058915
C49	C	0.398327	1.123059	-0.058836
C50	C	0.494481	1.123051	-0.058839
C51	C	0.680214	0.751559	0.126883
C52	C	0.584059	0.751565	0.126894
C53	C	1.306793	1.005297	0.000040
C54	C	1.409124	1.005299	0.000042
C55	C	1.005271	1.005297	-0.301484
C56	C	1.005268	1.005299	-0.403817
C57	C	1.005279	1.306806	0.000041
C58	C	1.005279	1.409137	0.000043
C59	C	0.946392	1.123050	-0.510770
C60	C	0.946405	1.123044	-0.606919
C61	C	1.064173	0.887525	-0.489149
C62	C	1.064166	0.887533	-0.393002
C63	C	1.005286	1.005287	0.301555
C64	C	1.005289	1.005285	0.403887
C65	C	1.306792	0.703783	0.000034
C66	C	1.409123	0.601454	0.000034
C67	C	1.005286	0.703773	0.301549
C68	C	1.005288	0.601440	0.403880
C69	C	1.306800	0.703778	0.301554
C70	C	1.409134	0.601447	0.403886
C71	C	0.703757	1.306806	-0.301484
C72	C	0.601424	1.409137	-0.403816
C73	C	0.703765	1.306801	0.000036
C74	C	0.601434	1.409130	0.000036
C75	C	1.005272	1.306811	-0.301479
C76	C	1.005269	1.409144	-0.403810
C77	C	1.398323	0.553377	-0.058842
C78	C	1.494478	0.457236	-0.058846
C79	C	1.612229	0.457253	0.058911
C80	C	1.516076	0.553399	0.058908
C81	C	1.064166	0.553362	0.510834
C82	C	1.064156	0.457219	0.606981
C83	C	0.946387	0.457236	0.489206
C84	C	0.946392	0.553384	0.393062
C85	C	1.516085	0.553372	0.393089
C86	C	1.612235	0.457229	0.489245
C87	C	1.494467	0.457243	0.606993
C88	C	1.398320	0.553390	0.510838
H89	H	1.112088	0.592517	-0.106803
C90	C	1.482577	0.404357	0.724640
C91	C	1.588331	0.298586	0.830411
C92	C	1.576437	0.245696	0.948057
C93	C	1.458789	0.298576	0.959932
C94	C	1.353026	0.404353	0.854158
C95	C	1.364921	0.457244	0.736512
H96	H	1.675429	0.259436	0.821623
H97	H	1.654730	0.167392	1.026358
H98	H	1.449984	0.259423	1.047021
H99	H	1.265929	0.443503	0.862946
H100	H	1.286627	0.535547	0.658211
C101	C	0.881618	1.252588	-0.522664
C102	C	0.816862	1.382112	-0.640314
C103	C	0.752090	1.511655	-0.652213
C104	C	0.752075	1.511674	-0.546461
C105	C	0.816834	1.382145	-0.428802
C106	C	0.881605	1.252603	-0.416903
H107	H	0.816871	1.382102	-0.718605
H108	H	0.704152	1.607540	-0.739312
H109	H	0.704128	1.607569	-0.555269
H110	H	0.816825	1.382155	-0.350511
H111	H	0.929544	1.156717	-0.329804
H112	H	1.112099	0.418080	0.694064
H113	H	0.898463	1.218928	-0.694001
H114	H	1.112096	0.418073	-0.106780
H115	H	0.898473	0.418057	0.106875
H116	H	0.898465	0.592507	0.106872
H117	H	1.311242	0.592512	-0.106793
H118	H	0.485679	1.218935	-0.106778
H119	H	0.311237	1.218940	-0.106765
H120	H	0.898438	0.418095	0.480412
H121	H	0.732374	0.699436	0.216903
H122	H	0.731120	0.709375	0.082017
H123	H	0.575344	0.709366	0.213951
H124	H	0.584052	0.699369	0.089066
H125	H	1.112123	0.791644	-0.480357
H126	H	1.112116	0.791640	-0.305910
H127	H	1.485675	0.418097	-0.106791
H128	H	1.699320	0.418113	0.106845
H129	H	1.524878	0.592548	0.106852
H130	H	1.311229	0.592537	0.519638
H131	H	1.112119	0.592491	0.519649
H132	H	0.898441	0.592533	0.305969
H133	H	1.524896	0.592500	0.306007
H134	H	1.699317	0.418090	0.480446
