data_functionalizedCrystal
_audit_creation_method	'MofGen! by Chris Wilmer'
_symmetry_space_group_name_H-M	'P1'
_symmetry_Int_Tables_number	1
_symmetry_cell_setting	triclinic
loop_
_symmetry_equiv_pos_as_xyz
  x,y,z
_cell_length_a	25.639239
_cell_length_b	16.625548
_cell_length_c	16.625539
_cell_angle_alpha	89.977655
_cell_angle_beta	90.031255
_cell_angle_gamma	89.961455
loop_
_atom_site_label
_atom_site_type_symbol
_atom_site_fract_x
_atom_site_fract_y
_atom_site_fract_z
Zn1	Zn	-0.208152	-1.232590	0.455931
Zn2	Zn	-0.295590	-1.232455	0.321091
Zn3	Zn	-0.208170	-1.097751	0.321107
Zn4	Zn	-0.295558	-1.097684	0.455877
O5	O	-0.251867	-1.165120	0.388502
O6	O	-0.219756	-1.345404	0.438060
O7	O	-0.284014	-1.214558	0.208261
O8	O	-0.135002	-1.115723	0.339021
O9	O	-0.283997	-1.345305	0.338994
O10	O	-0.134989	-1.214788	0.438076
O11	O	-0.219787	-1.115592	0.208273
O12	O	-0.219756	-0.984910	0.338969
O13	O	-0.283942	-1.115607	0.568717
O14	O	-0.283960	-0.984860	0.437984
O15	O	-0.219726	-1.214722	0.568756
O16	O	-0.368751	-1.214492	0.338942
O17	O	-0.368727	-1.115477	0.437968
C18	C	-0.251857	-0.955629	0.388473
C19	C	-0.251865	-0.866008	0.388479
C20	C	-0.251864	-0.537832	0.388504
C21	C	-0.251863	-0.629141	0.388494
C22	C	-0.251865	-0.701917	0.388491
C23	C	-0.251863	-0.793231	0.388483
C24	C	-0.387710	-1.164984	0.388465
C25	C	-0.445824	-1.165000	0.388476
C26	C	-0.806187	-1.216812	0.337026
C27	C	-0.860791	-1.216843	0.337037
O28	O	-0.889027	-1.260755	0.293253
N29	N	-0.888106	-1.165262	0.388555
C30	C	-0.860815	-1.113651	0.440071
O31	O	-0.889063	-1.069780	0.483893
C32	C	-0.806211	-1.113625	0.440064
C33	C	-0.778899	-1.165204	0.388537
C34	C	-0.778874	-1.268387	0.285504
C35	C	-0.724273	-1.268355	0.285493
C36	C	-0.696985	-1.216747	0.337003
C37	C	-0.724298	-1.165171	0.388525
C38	C	-0.778921	-1.062019	0.491584
C39	C	-0.724314	-1.061997	0.491572
C40	C	-0.697001	-1.113576	0.440045
C41	C	-0.642410	-1.113531	0.440024
N42	N	-0.615094	-1.165112	0.388506
C43	C	-0.642382	-1.216720	0.336996
C44	C	-0.975485	-1.113712	0.440084
C45	C	-1.030088	-1.113734	0.440088
C46	C	-1.030060	-1.216927	0.337054
C47	C	-0.975457	-1.216900	0.337047
C48	C	-0.948170	-1.165293	0.388566
C49	C	-0.527717	-1.216648	0.336975
C50	C	-0.473112	-1.216608	0.336965
C51	C	-0.473144	-1.113418	0.440001
C52	C	-0.527745	-1.113454	0.440008
C53	C	-0.555030	-1.165076	0.388492
O54	O	-0.614139	-1.069644	0.483789
O55	O	-0.614128	-1.260591	0.293189
C56	C	-0.115494	-1.165278	0.388556
C57	C	-0.057380	-1.165345	0.388580
C58	C	-0.251828	-1.165172	0.598811
C59	C	-0.251812	-1.165195	0.688432
C60	C	-0.251875	-0.375429	0.388523
C61	C	-0.251869	-0.465050	0.388513
C62	C	-0.251868	-1.165114	0.179011
C63	C	-0.251738	-1.165248	0.089390
C64	C	-0.251753	-1.165232	1.016608
C65	C	-0.251771	-1.165219	0.925299
C66	C	-0.251783	-1.165214	0.852523
C67	C	-0.251800	-1.165200	0.761208
H68	H	-0.450875	-1.258610	0.295003
Cl69	Cl	-0.438829	-1.048547	0.504758
Cl70	Cl	-0.690014	-0.997117	0.556344
H71	H	-0.801149	-1.020014	0.533539
H72	H	-0.549926	-1.258684	0.295027
Cl73	Cl	-1.064375	-1.281805	0.272296
H74	H	-0.702039	-1.310357	0.243537
H75	H	-0.801086	-1.310417	0.243558
H76	H	-0.953222	-1.258901	0.295090
Cl77	Cl	-1.064417	-1.048879	0.504858
Cl78	Cl	-0.941187	-1.048821	0.504850
Cl79	Cl	-0.562082	-1.048595	0.504769
