data_functionalizedCrystal
_audit_creation_method	'MofGen! by Chris Wilmer'
_symmetry_space_group_name_H-M	'P1'
_symmetry_Int_Tables_number	1
_symmetry_cell_setting	triclinic
loop_
_symmetry_equiv_pos_as_xyz
  x,y,z
_cell_length_a	19.851628
_cell_length_b	16.704494
_cell_length_c	16.704494
_cell_angle_alpha	60.174809
_cell_angle_beta	90.004485
_cell_angle_gamma	63.425226
loop_
_atom_site_label
_atom_site_type_symbol
_atom_site_fract_x
_atom_site_fract_y
_atom_site_fract_z
Zr1	Zr	0.692448	0.863814	-0.142359
O2	O	0.597132	1.017952	-0.271805
O3	O	0.716432	0.701027	-0.097023
O4	O	0.730122	0.851325	-0.263632
O5	O	0.578600	0.880522	0.019796
O6	O	0.840982	0.851311	-0.263616
O7	O	0.583442	0.867655	-0.105196
O8	O	0.816493	0.582456	0.034417
O9	O	0.603088	1.149377	-0.278237
O10	O	0.815720	0.771176	-0.084506
O11	O	0.729372	0.780789	0.008762
O12	O	0.745490	0.957746	-0.187398
O13	O	0.659143	0.967359	-0.094130
Zr14	Zr	0.861535	0.884314	0.057015
Zr15	Zr	0.869258	0.863792	-0.142333
Zr16	Zr	0.684725	0.884336	0.056990
Zr17	Zr	0.701948	1.073421	-0.152616
Zr18	Zr	0.852035	0.674706	0.067273
O19	O	0.837551	1.047101	0.011679
O20	O	0.848533	1.017921	-0.271769
O21	O	0.586151	1.047132	0.011643
O22	O	0.956851	0.730175	0.186462
O23	O	0.967832	0.700995	-0.096987
O24	O	0.705450	0.730207	0.186426
O25	O	0.975383	0.867605	-0.105140
O26	O	0.823861	0.896803	0.178288
O27	O	0.713001	0.896817	0.178272
O28	O	0.970540	0.880473	0.019853
O29	O	0.743629	1.149360	-0.278216
O30	O	0.810354	0.598768	0.192873
O31	O	0.950894	0.598750	0.192893
O32	O	0.957033	0.582438	0.034438
O33	O	0.596949	1.165690	-0.119781
O34	O	0.737489	1.165672	-0.119761
O35	O	0.808492	0.790382	0.102055
O36	O	0.894840	0.780769	0.008786
O37	O	0.824610	0.967338	-0.094106
O38	O	0.738263	0.976951	-0.000837
C39	C	0.765109	0.611877	-0.029841
C40	C	0.761076	0.522893	-0.025487
C41	C	0.843665	0.345631	-0.114671
C42	C	0.839878	0.262022	-0.110582
C43	C	0.749721	0.272060	-0.013215
C44	C	0.753507	0.355669	-0.017304
C45	C	0.800480	0.392452	-0.068035
C46	C	0.804262	0.476067	-0.072129
C47	C	0.714110	0.486099	0.025244
C48	C	0.710323	0.402490	0.029333
C49	C	0.555829	0.874091	-0.042704
C50	C	0.480769	0.874101	-0.042714
C51	C	0.261130	0.975804	-0.098783
C52	C	0.237773	0.918543	-0.133024
C53	C	0.343360	0.874074	-0.042686
C54	C	0.232977	0.931341	-0.008463
C55	C	0.210626	0.874057	-0.042660
C56	C	0.320994	0.816807	-0.076978
C57	C	0.316194	0.829625	0.047631
C58	C	0.292887	0.772288	0.013416
C59	C	0.419824	0.874087	-0.042704
C60	C	0.134167	0.874035	-0.042644
C61	C	0.998153	0.874036	-0.042640
C62	C	1.073214	0.874027	-0.042629
C63	C	0.786652	0.848394	-0.292027
C64	C	0.789931	0.839682	-0.376656
C65	C	0.788874	1.136251	-0.055502
C66	C	0.792907	1.225235	-0.059857
C67	C	0.722778	1.018106	-0.643112
C68	C	0.725857	1.009926	-0.722632
C69	C	0.799172	0.815140	-0.615215
C70	C	0.796093	0.823321	-0.535696
C71	C	0.757894	0.924808	-0.549650
C72	C	0.754811	0.932987	-0.470128
C73	C	0.828130	0.738203	-0.362714
C74	C	0.831209	0.730022	-0.442233
C75	C	0.767331	0.899734	0.206683
C76	C	0.764052	0.908446	0.291312
C77	C	0.986271	0.611849	-0.029809
C78	C	1.057299	0.522856	-0.025444
C79	C	0.755448	0.637547	0.219514
C80	C	0.748137	0.557275	0.308497
C81	C	0.976610	0.637519	0.219546
C82	C	1.044359	0.557238	0.308540
C83	C	0.577373	1.110609	-0.304889
C84	C	0.509624	1.190890	-0.393883
C85	C	0.567712	1.136279	-0.055534
C86	C	0.496684	1.225272	-0.059899
C87	C	0.798535	1.110581	-0.304857
C88	C	0.805846	1.190853	-0.393841
C89	C	1.049354	0.476055	-0.072100
C90	C	1.116087	0.392446	-0.068018
C91	C	1.190762	0.355634	-0.017273
C92	C	1.198705	0.402443	0.029384
C93	C	1.131974	0.486055	0.025296
C94	C	0.786003	0.524586	0.398991
C95	C	0.779130	0.449175	0.482607
C96	C	0.734395	0.406448	0.475728
C97	C	0.696525	0.439143	0.385225
C98	C	0.703393	0.514559	0.301610
C99	C	1.121255	0.514519	0.301647
C100	C	1.184920	0.439097	0.385258
C101	C	1.171687	0.406390	0.475762
C102	C	1.094783	0.449117	0.482652
C103	C	1.031120	0.524543	0.399042
C104	C	0.432729	1.233619	-0.386991
C105	C	0.369065	1.309066	-0.470604
C106	C	0.382298	1.341778	-0.561107
C107	C	0.459201	1.299046	-0.567997
C108	C	0.522863	1.223605	-0.484386
C109	C	0.504629	1.272080	-0.013252
C110	C	0.437899	1.355710	-0.017357
C111	C	0.363223	1.392525	-0.068105
C112	C	0.355280	1.345713	-0.114758
C113	C	0.422010	1.262089	-0.110658
C114	C	0.850587	1.233557	-0.386930
C115	C	0.857472	1.308970	-0.470532
C116	C	0.819612	1.341684	-0.561042
C117	C	0.774869	1.298972	-0.567950
C118	C	0.767989	1.223554	-0.484350
H119	H	0.678942	0.524234	0.063214
H120	H	0.248446	1.061815	-0.146283
H121	H	0.565427	1.242113	0.028079
N122	N	0.687977	1.110565	-0.823432
H123	H	0.646082	1.111531	-0.858833
H124	H	0.729205	1.111450	-0.858733
N125	N	0.840359	0.705698	-0.600196
H126	H	0.814309	0.664556	-0.562893
H127	H	0.897382	0.664607	-0.562900
H128	H	1.223532	0.344972	0.543835
H129	H	0.444381	1.393811	0.020638
H130	H	0.358852	0.768416	-0.105999
H131	H	0.691666	1.100741	-0.654475
H132	H	0.825220	1.403095	-0.629108
H133	H	0.672560	0.541163	0.227930
N134	N	1.135538	0.549777	0.204040
H135	H	1.193916	0.511262	0.212375
H136	H	1.113319	0.630097	0.164810
N137	N	0.891438	1.198280	-0.289320
H138	H	0.929729	1.117965	-0.250049
H139	H	0.851086	1.216526	-0.254946
N140	N	0.872412	0.620567	-0.427188
H141	H	0.869037	0.629540	-0.491744
H142	H	0.846343	0.579479	-0.389846
H143	H	0.723703	1.015623	-0.481493
H144	H	0.856719	0.662232	-0.286603
H145	H	0.469967	1.325690	-0.641695
H146	H	0.988557	0.506025	-0.113434
N147	N	0.418442	1.198362	-0.289386
H148	H	0.470434	1.144086	-0.237454
H149	H	0.385392	1.164508	-0.280331
H150	H	0.731553	1.188793	-0.489990
H151	H	1.247532	0.404316	0.379631
H152	H	1.109604	0.354344	-0.106012
N153	N	0.819983	0.413907	0.580216
H154	H	0.799942	0.478470	0.584533
H155	H	0.878528	0.379951	0.589303
H156	H	1.245093	0.287550	-0.013950
H157	H	1.084020	0.422475	0.556351
H158	H	0.711488	0.242085	0.028101
H159	H	0.306453	1.343847	-0.464974
N160	N	0.948183	0.570610	0.406483
H161	H	0.949468	0.538437	0.476506
H162	H	0.917579	0.552874	0.376330
N163	N	1.140548	0.536530	0.075619
H164	H	1.110661	0.527028	0.125333
H165	H	1.118761	0.615844	0.026789
H166	H	1.259515	0.372458	0.070699
H167	H	0.822430	0.559368	0.404610
N168	N	0.313627	1.423131	-0.651281
H169	H	0.333672	1.437373	-0.709665
H170	H	0.282854	1.492453	-0.654621
N171	N	0.726992	0.325105	0.565917
H172	H	0.757773	0.310883	0.624285
H173	H	0.748414	0.255774	0.569273
H174	H	0.203885	0.956117	-0.209393
N175	N	0.309877	0.658260	0.076260
H176	H	0.339727	0.624329	0.144206
H177	H	0.342507	0.615220	0.050225
H178	H	0.585474	1.188815	-0.490009
N179	N	0.648282	0.393049	0.377813
H180	H	0.649687	0.340309	0.444519
H181	H	0.670759	0.354788	0.344359
H182	H	0.875044	0.223901	-0.148556
N183	N	0.291253	1.482719	-0.072523
H184	H	0.307625	1.506777	-0.035266
H185	H	0.254944	1.456415	-0.043408
N186	N	0.274734	1.385409	-0.169473
H187	H	0.233672	1.445476	-0.164976
H188	H	0.264324	1.324181	-0.140762
H189	H	0.415530	1.223980	-0.148642
H190	H	0.744045	1.325619	-0.641655
N191	N	0.854918	0.515749	-0.126848
H192	H	0.881702	0.473396	-0.155768
H193	H	0.895941	0.505798	-0.081418
N194	N	0.894314	0.385322	-0.169396
H195	H	0.921095	0.342977	-0.198325
H196	H	0.935340	0.375371	-0.123970
N197	N	0.905719	1.355042	-0.463065
H198	H	0.904340	1.407781	-0.529754
H199	H	0.961854	1.294795	-0.424754
N200	N	0.659667	0.362809	0.084053
H201	H	0.663821	0.302737	0.079570
H202	H	0.603155	0.424039	0.055347
H203	H	0.350083	0.792088	0.123982
H204	H	0.195019	0.979776	0.020470
