data_functionalizedCrystal
_audit_creation_method	'MofGen! by Chris Wilmer'
_symmetry_space_group_name_H-M	'P1'
_symmetry_Int_Tables_number	1
_symmetry_cell_setting	triclinic
loop_
_symmetry_equiv_pos_as_xyz
  x,y,z
_cell_length_a	12.645330
_cell_length_b	13.897449
_cell_length_c	13.897441
_cell_angle_alpha	89.977141
_cell_angle_beta	90.027301
_cell_angle_gamma	89.982475
loop_
_atom_site_label
_atom_site_type_symbol
_atom_site_fract_x
_atom_site_fract_y
_atom_site_fract_z
Zn1	Zn	-0.422010	-1.474703	0.545458
Zn2	Zn	0.077990	-0.974703	1.045458
Zn3	Zn	-0.599306	-1.474597	0.384169
Zn4	Zn	-0.099306	-0.974597	0.884169
Zn5	Zn	-0.422056	-1.313392	0.384170
Zn6	Zn	0.077944	-0.813392	0.884170
Zn7	Zn	-0.599232	-1.313373	0.545415
Zn8	Zn	-0.099232	-0.813373	1.045415
O9	O	-0.510651	-1.394016	0.464803
O10	O	-0.010651	-0.894016	0.964803
O11	O	-0.445541	-1.609670	0.524080
O12	O	0.054459	-1.109670	1.024080
O13	O	-0.575843	-1.453176	0.249187
O14	O	-0.075843	-0.953176	0.749187
O15	O	-0.273703	-1.334842	0.405584
O16	O	0.226297	-0.834842	0.905584
O17	O	-0.575799	-1.609592	0.405581
O18	O	-0.075799	-1.109592	0.905581
O19	O	-0.273669	-1.453356	0.524081
O20	O	0.226331	-0.953356	1.024081
O21	O	-0.445619	-1.334739	0.249188
O22	O	0.054381	-0.834739	0.749188
O23	O	-0.445547	-1.178408	0.405543
O24	O	0.054453	-0.678408	0.905543
O25	O	-0.575673	-1.334811	0.680403
O26	O	-0.075673	-0.834811	1.180403
O27	O	-0.575717	-1.178394	0.524009
O28	O	-0.075717	-0.678394	1.024009
O29	O	-0.445469	-1.453339	0.680434
O30	O	0.054531	-0.953339	1.180434
O31	O	-0.747643	-1.453158	0.405540
O32	O	-0.247643	-0.953158	0.905540
O33	O	-0.747589	-1.334708	0.524007
O34	O	-0.247589	-0.834708	1.024007
C35	C	-0.786081	-1.393946	0.464790
C36	C	-0.286081	-0.893946	0.964790
C37	C	-0.903911	-1.394004	0.464816
C38	C	-0.403911	-0.894004	0.964816
C39	C	-0.510630	-1.143402	0.464772
C40	C	-0.010630	-0.643402	0.964772
C41	C	-0.510646	-1.036188	0.464781
C42	C	-0.010646	-0.536188	0.964781
C43	C	-0.510557	-1.394085	0.716396
C44	C	-0.010557	-0.894085	1.216396
C45	C	-0.510517	-1.394114	0.823610
C46	C	-0.010517	-0.894114	1.323610
C47	C	-1.071485	-1.319794	0.539574
C48	C	-0.571485	-0.819794	1.039574
C49	C	-0.948925	-1.319415	0.539333
C50	C	-0.448925	-0.819415	1.039333
C51	C	-0.948509	-1.366485	0.363159
C52	C	-0.448509	-0.866485	0.863159
C53	C	-1.071108	-1.366032	0.363613
C54	C	-0.571108	-0.866032	0.863613
C55	C	-1.070999	-1.496187	0.490891
C56	C	-0.570999	-0.996187	0.990891
C57	C	-0.948392	-1.495561	0.493113
C58	C	-0.448392	-0.995561	0.993113
C59	C	-0.234146	-1.394113	0.464838
C60	C	0.265854	-0.894113	0.964838
C61	C	-0.116316	-1.394154	0.464852
C62	C	0.383684	-0.894154	0.964852
C63	C	-0.510645	-0.839893	0.464799
C64	C	-0.010645	-0.339893	0.964799
C65	C	-0.510642	-0.949125	0.464787
C66	C	-0.010642	-0.449125	0.964787
C67	C	-0.510666	-0.645609	0.464826
C68	C	-0.010666	-0.145609	0.964826
C69	C	-0.510655	-0.752823	0.464812
C70	C	-0.010655	-0.252823	0.964812
C71	C	-0.510668	-1.394003	0.214189
C72	C	-0.010668	-0.894003	0.714189
C73	C	-0.510409	-1.394161	0.106975
C74	C	-0.010409	-0.894161	0.606975
C75	C	-0.510446	-1.394140	1.019905
C76	C	-0.010446	-0.894140	1.519905
C77	C	-0.510488	-1.394122	0.910673
C78	C	-0.010488	-0.894122	1.410673
H79	H	-1.100893	-1.336854	0.615198
H80	H	-0.600893	-0.836854	1.115198
N81	N	-1.111875	-1.529456	0.587397
N82	N	-0.611875	-1.029456	1.087397
H83	H	-1.081828	-1.595054	0.602679
H84	H	-0.581828	-1.095054	1.102679
H85	H	-1.191598	-1.533280	0.585298
H86	H	-0.691598	-1.033280	1.085298
H87	H	-1.102386	-1.244625	0.522543
H88	H	-0.602386	-0.744625	1.022543
H89	H	-0.918768	-1.336632	0.614711
H90	H	-0.418768	-0.836632	1.114711
N91	N	-0.910188	-1.219223	0.516476
N92	N	-0.410188	-0.719223	1.016476
H93	H	-0.972754	-1.175134	0.506512
H94	H	-0.472754	-0.675134	1.006512
H95	H	-0.866025	-1.220942	0.455969
H96	H	-0.366025	-0.720942	0.955969
H97	H	-1.099800	-1.291445	0.341556
H98	H	-0.599800	-0.791445	0.841556
N99	N	-1.110407	-1.434652	0.287354
N100	N	-0.610407	-0.934652	0.787354
H101	H	-1.048088	-1.465059	0.253589
H102	H	-0.548088	-0.965059	0.753589
H103	H	-1.154763	-1.398265	0.239058
H104	H	-0.654763	-0.898265	0.739058
N105	N	-0.909898	-1.435945	0.287391
N106	N	-0.409898	-0.935945	0.787391
H107	H	-0.863010	-1.486040	0.318308
H108	H	-0.363010	-0.986040	0.818308
H109	H	-0.868411	-1.399681	0.236993
H110	H	-0.368411	-0.899681	0.736993
N111	N	-0.907967	-1.268719	0.333403
N112	N	-0.407967	-0.768719	0.833403
H113	H	-0.860723	-1.242115	0.385617
H114	H	-0.360723	-0.742115	0.885617
H115	H	-0.969710	-1.223792	0.322960
H116	H	-0.469710	-0.723792	0.822960
H117	H	-0.917744	-1.553880	0.442654
H118	H	-0.417744	-1.053880	0.942654
N119	N	-0.909778	-1.523061	0.592211
N120	N	-0.409778	-1.023061	1.092211
H121	H	-0.863661	-1.469965	0.618671
H122	H	-0.363661	-0.969965	1.118671
H123	H	-0.867485	-1.584577	0.588065
H124	H	-0.367485	-1.084577	1.088065
N125	N	-1.109393	-1.569575	0.418806
N126	N	-0.609393	-1.069575	0.918806
H127	H	-1.155912	-1.536944	0.369518
H128	H	-0.655912	-1.036944	0.869518
H129	H	-1.151215	-1.621044	0.453203
H130	H	-0.651215	-1.121044	0.953203
