data_functionalizedCrystal
_audit_creation_method	'MofGen! by Chris Wilmer'
_symmetry_space_group_name_H-M	'P1'
_symmetry_Int_Tables_number	1
_symmetry_cell_setting	triclinic
loop_
_symmetry_equiv_pos_as_xyz
  x,y,z
_cell_length_a	11.295483
_cell_length_b	16.992694
_cell_length_c	16.992695
_cell_angle_alpha	90.668223
_cell_angle_beta	94.374931
_cell_angle_gamma	85.620289
loop_
_atom_site_label
_atom_site_type_symbol
_atom_site_fract_x
_atom_site_fract_y
_atom_site_fract_z
O1	O	0.098876	-1.055813	-0.161955
O2	O	0.598876	-0.555813	0.338045
O3	O	0.098911	-0.827415	-0.160122
O4	O	0.598911	-0.327415	0.339878
O5	O	0.098884	-0.940698	-0.046839
O6	O	0.598884	-0.440698	0.453161
O7	O	0.098903	-0.942530	-0.275238
O8	O	0.598903	-0.442530	0.224762
O9	O	-0.099164	-0.930747	-0.056773
O10	O	0.400836	-0.430747	0.443227
O11	O	-0.099137	-0.817464	-0.170056
O12	O	0.400863	-0.317464	0.329944
O13	O	-0.099172	-1.045862	-0.171889
O14	O	0.400828	-0.545862	0.328111
Cu15	Cu	-0.117238	-0.930755	-0.171879
Cu16	Cu	0.382762	-0.430755	0.328121
Cu17	Cu	0.116977	-0.942523	-0.160132
Cu18	Cu	0.616977	-0.442523	0.339868
O19	O	-0.099146	-0.932579	-0.285172
O20	O	0.400854	-0.432579	0.214828
C21	C	-0.000109	-0.793080	-0.162733
C22	C	0.499891	-0.293080	0.337267
C23	C	-0.000096	-0.705596	-0.155703
C24	C	0.499904	-0.205596	0.344297
N25	N	-0.281973	-0.922483	-0.180142
N26	N	0.218027	-0.422483	0.319858
C27	C	-0.000139	-0.933367	-0.022446
C28	C	0.499861	-0.433367	0.477554
C29	C	-0.000138	-0.926338	0.065039
C30	C	0.499862	-0.426338	0.565039
C31	C	-0.531283	-1.010339	-0.092341
C32	C	-0.031283	-0.510339	0.407659
C33	C	-0.655945	-1.004094	-0.098591
C34	C	-0.155945	-0.504094	0.401409
C35	C	-0.655961	-0.903745	-0.198887
C36	C	-0.155961	-0.403745	0.301113
C37	C	-0.531299	-0.909990	-0.192637
C38	C	-0.031299	-0.409990	0.307363
C39	C	-0.468964	-0.963290	-0.139363
C40	C	0.031036	-0.463290	0.360637
C41	C	-0.344300	-0.969538	-0.133118
C42	C	0.155700	-0.469538	0.366882
C43	C	-0.344319	-0.869186	-0.233409
C44	C	0.155681	-0.369186	0.266591
C45	C	-0.468981	-0.862941	-0.239659
C46	C	0.031019	-0.362941	0.260341
N47	N	0.281711	-0.950800	-0.151863
N48	N	0.781711	-0.450800	0.348137
C49	C	-0.000150	-1.080198	-0.169278
C50	C	0.499850	-0.580198	0.330722
C51	C	-0.000155	-1.167682	-0.176307
C52	C	0.499845	-0.667682	0.323693
C53	C	-0.000091	-0.659605	-0.223521
C54	C	0.499909	-0.159605	0.276479
C55	C	-0.000108	-0.577403	-0.216913
C56	C	0.499892	-0.077403	0.283087
C57	C	-0.000121	-0.541194	-0.142486
C58	C	0.499879	-0.041194	0.357514
C59	C	-0.000129	-0.587191	-0.074664
C60	C	0.499871	-0.087191	0.425336
C61	C	-0.000121	-0.669391	-0.081273
C62	C	0.499879	-0.169391	0.418727
C63	C	-0.000155	-0.295878	-0.115093
C64	C	0.499845	0.204122	0.384907
C65	C	-0.000160	-0.213673	-0.108489
C66	C	0.499840	0.286327	0.391511
C67	C	-0.000141	-0.203891	-0.250739
C68	C	0.499859	0.296109	0.249261
C69	C	-0.000125	-0.286093	-0.257342
C70	C	0.499875	0.213907	0.242658
C71	C	-0.000140	-0.332082	-0.189519
C72	C	0.499860	0.167918	0.310481
N73	N	-0.000135	-0.457172	-0.135730
N74	N	0.499865	0.042828	0.364270
N75	N	-0.000135	-0.416103	-0.196277
N76	N	0.499865	0.083897	0.303723
C77	C	-0.000119	-0.939911	-0.309565
C78	C	0.499881	-0.439911	0.190435
C79	C	-0.000113	-0.946940	-0.397049
C80	C	0.499887	-0.446940	0.102951
C81	C	-0.000150	-0.994156	0.111029
C82	C	0.499850	-0.494156	0.611029
C83	C	-0.000137	-0.987547	0.193231
C84	C	0.499863	-0.487547	0.693231
C85	C	-0.000122	-0.913120	0.229440
C86	C	0.499878	-0.413120	0.729440
C87	C	-0.000107	-0.845298	0.183444
C88	C	0.499893	-0.345298	0.683444
C89	C	-0.000111	-0.851908	0.101244
C90	C	0.499889	-0.351908	0.601244
C91	C	-0.000101	-0.885727	0.474755
C92	C	0.499899	-0.385727	0.974755
C93	C	-0.000101	-0.879122	0.556960
C94	C	0.499899	-0.379122	1.056960
C95	C	-0.000130	-1.021372	0.566742
C96	C	0.499870	-0.521372	1.066742
C97	C	-0.000141	-1.027975	0.484540
C98	C	0.499859	-0.527975	0.984540
C99	C	-0.000119	-0.960153	0.438552
C100	C	0.499881	-0.460153	0.938552
N101	N	-0.000113	-0.906364	0.313462
N102	N	0.499887	-0.406364	0.813462
N103	N	-0.000119	-0.966911	0.354531
N104	N	0.499881	-0.466911	0.854531
H105	H	-0.293548	-1.012939	-0.089742
H106	H	0.206452	-0.512939	0.410258
H107	H	-0.480529	-1.053743	-0.048969
H108	H	0.019471	-0.553743	0.451031
H109	H	-0.000079	-0.689080	-0.284128
H110	H	0.499921	-0.189080	0.215872
C111	C	-0.000167	-1.076026	0.071207
C112	C	0.499833	-0.576026	0.571207
H113	H	-0.000161	-1.115469	0.110373
H114	H	0.499839	-0.615469	0.610373
H115	H	-0.069231	-1.078093	0.035883
H116	H	0.430769	-0.578093	0.535883
H117	H	0.068905	-1.085031	0.042807
H118	H	0.568905	-0.585031	0.542807
C119	C	-0.000162	-1.062146	0.243816
C120	C	0.499838	-0.562146	0.743816
H121	H	-0.000189	-1.107417	0.210478
H122	H	0.499811	-0.607417	0.710478
H123	H	0.068901	-1.066003	0.279547
H124	H	0.568901	-0.566003	0.779547
H125	H	-0.069235	-1.059047	0.272623
H126	H	0.430765	-0.559047	0.772623
H127	H	-0.000153	-1.088581	0.455065
H128	H	0.499847	-0.588581	0.955065
H129	H	-0.000145	-1.076589	0.604195
H130	H	0.499855	-0.576589	1.104195
C131	C	-0.000106	-0.325921	-0.339209
C132	C	0.499894	0.174079	0.160791
H133	H	-0.000087	-0.381464	-0.333431
H134	H	0.499913	0.118536	0.166569
H135	H	-0.069163	-0.306980	-0.370821
H136	H	0.430837	0.193020	0.129179
H137	H	0.068973	-0.313900	-0.363877
H138	H	0.568973	0.186100	0.136123
H139	H	-0.000132	-0.166438	-0.305956
H140	H	0.499868	0.333562	0.194044
C141	C	-0.000154	-0.346460	-0.040493
C142	C	0.499846	0.153540	0.459507
H143	H	-0.000158	-0.400602	-0.055084
H144	H	0.499842	0.099398	0.444916
H145	H	0.068908	-0.338460	-0.006725
H146	H	0.568908	0.161540	0.493275
H147	H	-0.069228	-0.331535	-0.013651
H148	H	0.430772	0.168465	0.486349
C149	C	-0.000141	-0.547363	0.007205
C150	C	0.499859	-0.047363	0.507205
H151	H	-0.000133	-0.491822	0.001430
H152	H	0.499867	0.008178	0.501430
H153	H	-0.069206	-0.559381	0.031882
H154	H	0.430794	-0.059381	0.531882
H155	H	0.068931	-0.566311	0.038807
H156	H	0.568931	-0.066311	0.538807
C157	C	-0.000064	-0.797250	0.596790
C158	C	0.499936	-0.297250	1.096790
H159	H	-0.000037	-0.757805	0.557630
H160	H	0.499963	-0.257805	1.057630
H161	H	-0.069123	-0.788237	0.625194
H162	H	0.430877	-0.288237	1.125194
H163	H	0.069014	-0.795200	0.632112
H164	H	0.569014	-0.295200	1.132112
C165	C	-0.000099	-0.811124	0.424177
C166	C	0.499901	-0.311124	0.924177
H167	H	-0.000105	-0.765853	0.457516
H168	H	0.499895	-0.265853	0.957516
H169	H	0.068962	-0.814208	0.395366
H170	H	0.568962	-0.314208	0.895366
H171	H	-0.069175	-0.807278	0.388449
H172	H	0.430825	-0.307278	0.888449
C173	C	-0.000101	-0.777309	0.050655
C174	C	0.499899	-0.277309	0.550655
H175	H	-0.000101	-0.732035	0.083990
H176	H	0.499899	-0.232035	0.583990
H177	H	0.068963	-0.780401	0.021846
H178	H	0.568963	-0.280401	0.521846
H179	H	-0.069174	-0.773459	0.014925
H180	H	0.430826	-0.273459	0.514925
H181	H	-0.706731	-0.860345	-0.242256
H182	H	-0.206731	-0.360345	0.257744
H183	H	-0.000124	-0.706836	-0.026048
H184	H	0.499876	-0.206836	0.473952
H185	H	-0.000087	-0.784698	0.212932
H186	H	0.499913	-0.284698	0.712932
H187	H	-0.519748	-0.819543	-0.283032
H188	H	-0.019748	-0.319543	0.216968
C189	C	-0.724497	-1.055847	-0.046869
C190	C	-0.224497	-0.555847	0.453131
H191	H	-0.807670	-1.044491	-0.058215
H192	H	-0.307670	-0.544491	0.441785
H193	H	-0.704057	-1.109943	-0.057710
H194	H	-0.204057	-0.609943	0.442290
H195	H	-0.704070	-1.045021	0.007235
H196	H	-0.204070	-0.545021	0.507235
C197	C	-0.275766	-0.817438	-0.285145
C198	C	0.224234	-0.317438	0.214855
H199	H	-0.192593	-0.828790	-0.273795
H200	H	0.307407	-0.328790	0.226205
H201	H	-0.296205	-0.828264	-0.339243
H202	H	0.203795	-0.328264	0.160757
H203	H	-0.296196	-0.763336	-0.274304
H204	H	0.203804	-0.263336	0.225696
C205	C	-0.000177	-0.173844	-0.026616
C206	C	0.499823	0.326156	0.473384
H207	H	-0.000194	-0.213005	0.012830
H208	H	0.499806	0.286995	0.512830
H209	H	0.068886	-0.145447	-0.017616
H210	H	0.568886	0.354553	0.482384
H211	H	-0.069250	-0.138516	-0.024551
H212	H	0.430750	0.361484	0.475449
C213	C	-0.000099	-0.526817	-0.291513
C214	C	0.499901	-0.026817	0.208487
H215	H	-0.000075	-0.560155	-0.336784
H216	H	0.499925	-0.060155	0.163216
H217	H	-0.069167	-0.491086	-0.295360
H218	H	0.430833	0.008914	0.204640
H219	H	0.068970	-0.498010	-0.288423
H220	H	0.568970	0.001990	0.211577
