data_functionalizedCrystal
_audit_creation_method	'MofGen! by Chris Wilmer'
_symmetry_space_group_name_H-M	'P1'
_symmetry_Int_Tables_number	1
_symmetry_cell_setting	triclinic
loop_
_symmetry_equiv_pos_as_xyz
  x,y,z
_cell_length_a	9.065218
_cell_length_b	9.565339
_cell_length_c	9.065218
_cell_angle_alpha	89.997921
_cell_angle_beta	85.015885
_cell_angle_gamma	90.003684
loop_
_atom_site_label
_atom_site_type_symbol
_atom_site_fract_x
_atom_site_fract_y
_atom_site_fract_z
O1	O	1.960401	0.116257	0.216346
O2	O	1.531116	0.116259	0.234093
O3	O	1.754631	0.116255	0.010577
O4	O	1.736885	0.116261	0.439862
O5	O	1.754614	-0.116265	0.010591
O6	O	1.531098	-0.116261	0.234107
O7	O	1.960383	-0.116263	0.216360
Zn8	Zn	1.745738	-0.153180	0.225236
Zn9	Zn	1.745761	0.153176	0.225217
O10	O	1.736867	-0.116259	0.439876
C11	C	1.476120	-0.000001	0.232394
C12	C	1.312277	-0.000000	0.227294
N13	N	1.745732	-0.362259	0.225247
C14	C	1.642332	-0.453460	0.328581
C15	C	1.776053	-0.546639	0.358994
C16	C	1.612069	-0.546635	0.194846
C17	C	1.879522	-0.453386	0.255728
C18	C	1.715449	-0.453374	0.091521
C19	C	1.849266	-0.546511	0.121879
C20	C	2.015378	0.000000	0.218059
C21	C	2.179221	0.000009	0.223158
C22	C	1.752917	-0.000003	-0.044403
C23	C	1.747817	0.000004	-0.208245
N24	N	1.745778	0.362255	0.225194
C25	C	1.738582	0.000002	0.494855
C26	C	1.743681	0.000004	0.658698
H27	H	1.554971	-0.412604	0.416049
C28	C	1.965908	-0.600463	0.005113
C29	C	1.935043	-0.551086	-0.134315
C30	C	2.042475	-0.600744	-0.241904
H31	H	1.964844	-0.699763	0.004977
H32	H	2.060794	-0.568315	0.026837
H33	H	1.840182	-0.583241	-0.156033
H34	H	1.936119	-0.451792	-0.134227
H35	H	2.137360	-0.568597	-0.220181
H36	H	2.041402	-0.700043	-0.242027
H37	H	2.021555	-0.567239	-0.336516
C38	C	1.461388	-0.601167	0.160267
C39	C	1.429001	-0.551913	0.021261
C40	C	1.290214	-0.602129	-0.010639
H41	H	1.387881	-0.569340	0.233653
H42	H	1.462730	-0.700480	0.159511
H43	H	1.427646	-0.452621	0.022028
H44	H	1.502471	-0.583736	-0.052154
H45	H	1.291556	-0.701441	-0.011395
H46	H	1.216718	-0.570298	0.062755
H47	H	1.268227	-0.568728	-0.104962
H48	H	1.801698	-0.587605	0.472061
C49	C	1.681299	-0.398416	-0.059111
C50	C	1.683111	-0.252062	-0.057436
C51	C	1.651659	-0.201383	-0.196175
H52	H	1.586235	-0.430137	-0.080697
H53	H	1.753825	-0.431581	-0.132778
H54	H	1.610589	-0.218911	0.016208
H55	H	1.778163	-0.220304	-0.035876
H56	H	1.724184	-0.234547	-0.269842
H57	H	1.556595	-0.233112	-0.217749
H58	H	1.652897	-0.102077	-0.195061
H59	H	1.992604	-0.412598	0.281554
