data_functionalizedCrystal
_audit_creation_method	'MofGen! by Chris Wilmer'
_symmetry_space_group_name_H-M	'P1'
_symmetry_Int_Tables_number	1
_symmetry_cell_setting	triclinic
loop_
_symmetry_equiv_pos_as_xyz
  x,y,z
_cell_length_a	19.188930
_cell_length_b	14.044220
_cell_length_c	13.101039
_cell_angle_alpha	86.332523
_cell_angle_beta	86.639939
_cell_angle_gamma	91.833172
loop_
_atom_site_label
_atom_site_type_symbol
_atom_site_fract_x
_atom_site_fract_y
_atom_site_fract_z
O1	O	0.937307	-0.113041	-0.085551
O2	O	1.437307	0.386959	0.414449
O3	O	0.735021	-0.128972	-0.085481
O4	O	1.235021	0.371028	0.414519
O5	O	0.833127	0.016965	-0.085505
O6	O	1.333127	0.516965	0.414495
O7	O	0.839201	-0.258978	-0.085527
O8	O	1.339201	0.241022	0.414473
O9	O	0.826089	0.006477	0.084927
O10	O	1.326089	0.506477	0.584927
O11	O	0.727983	-0.139460	0.084950
O12	O	1.227983	0.360540	0.584950
O13	O	0.930269	-0.123529	0.084881
O14	O	1.430269	0.376471	0.584881
Zn15	Zn	0.828009	-0.133160	0.111975
Zn16	Zn	1.328009	0.366840	0.611975
Zn17	Zn	0.837282	-0.119341	-0.112576
Zn18	Zn	1.337282	0.380659	0.387424
O19	O	0.832163	-0.269466	0.084904
O20	O	1.332163	0.230534	0.584904
C21	C	0.705457	-0.133701	-0.000256
C22	C	1.205457	0.366299	0.499744
C23	C	0.627852	-0.132154	-0.000229
C24	C	1.127852	0.367846	0.499771
N25	N	0.821685	-0.142590	0.265225
N26	N	1.321685	0.357410	0.765225
C27	C	0.826950	0.047024	-0.000288
C28	C	1.326950	0.547024	0.499712
C29	C	0.819021	0.152217	-0.000284
C30	C	1.319021	0.652217	0.499716
C31	C	0.588454	-0.217783	-0.000252
C32	C	1.088454	0.282217	0.499748
C33	C	0.515537	-0.216328	-0.000263
C34	C	1.015537	0.283672	0.499737
C35	C	0.482021	-0.129238	-0.000272
C36	C	0.982021	0.370762	0.499728
C37	C	0.521427	-0.043598	-0.000243
C38	C	1.021427	0.456402	0.499757
C39	C	0.594343	-0.045056	-0.000222
C40	C	1.094343	0.454944	0.499778
N41	N	0.372142	-0.059097	-0.058313
N42	N	0.872142	0.440903	0.441687
N43	N	0.302875	-0.057717	-0.058336
N44	N	0.802875	0.442283	0.441664
C45	C	0.262331	-0.124839	-0.000335
C46	C	0.762331	0.375161	0.499665
N47	N	0.293671	-0.193406	0.057677
N48	N	0.793671	0.306594	0.557677
N49	N	0.362944	-0.194788	0.057695
N50	N	0.862944	0.305212	0.557695
C51	C	0.402957	-0.127647	-0.000295
C52	C	0.902957	0.372353	0.499705
C53	C	0.143869	-0.208896	-0.000368
C54	C	0.643869	0.291104	0.499632
C55	C	0.070950	-0.207437	-0.000373
C56	C	0.570950	0.292563	0.499627
C57	C	0.076842	-0.034705	-0.000363
C58	C	0.576842	0.465295	0.499637
C59	C	0.149759	-0.036166	-0.000348
C60	C	0.649759	0.463834	0.499652
C61	C	0.183268	-0.123264	-0.000355
C62	C	0.683268	0.376736	0.499645
C63	C	0.959833	-0.118800	-0.000346
C64	C	1.459833	0.381200	0.499654
C65	C	1.037439	-0.120346	-0.000380
C66	C	1.537439	0.379654	0.499620
C67	C	0.838340	-0.299525	-0.000315
C68	C	1.338340	0.200475	0.499685
C69	C	0.846269	-0.404717	-0.000326
C70	C	1.346269	0.095283	0.499674
C71	C	0.804526	0.344819	-0.000293
C72	C	1.304526	0.844819	0.499707
C73	C	0.860762	0.402686	-0.000316
C74	C	1.360762	0.902686	0.499684
C75	C	0.852696	0.509857	-0.000321
C76	C	1.352696	1.009857	0.499679
C77	C	0.812590	0.237638	-0.000288
C78	C	1.312590	0.737638	0.499712
N79	N	0.843610	-0.109904	-0.265826
N80	N	1.343610	0.390096	0.234174
C81	C	0.813083	-0.155429	0.474270
C82	C	1.313083	0.344571	0.974270
C83	C	0.852211	-0.097068	0.525136
C84	C	1.352211	0.402932	1.025136
C85	C	0.847424	-0.104212	0.641456
C86	C	1.347424	0.395788	1.141456
C87	C	0.817868	-0.148286	0.357940
C88	C	1.317868	0.351714	0.857940
H89	H	0.615733	-0.288704	-0.000260
H90	H	1.115733	0.211296	0.499740
H91	H	0.038873	-0.277170	-0.000386
H92	H	0.538873	0.222830	0.499614
H93	H	0.626420	0.024675	-0.000204
H94	H	1.126420	0.524675	0.499796
Br95	Br	0.462058	-0.332546	-0.000289
Br96	Br	0.962058	0.167454	0.499711
H97	H	0.171153	-0.279817	-0.000359
H98	H	0.671153	0.220183	0.499641
Br99	Br	0.914356	-0.005248	0.452122
Br100	Br	1.414356	0.494752	0.952122
Br101	Br	0.751262	-0.247645	0.547285
Br102	Br	1.251262	0.252355	1.047285
H103	H	0.914967	0.371745	-0.000403
H104	H	1.414967	0.871745	0.499597
H105	H	0.049557	0.036210	-0.000434
H106	H	0.549557	0.536210	0.499566
Br107	Br	0.203231	0.080051	-0.000319
Br108	Br	0.703231	0.580051	0.499681
Br109	Br	0.475943	0.074596	-0.000245
Br110	Br	0.975943	0.574596	0.499755
H111	H	0.750328	0.375762	-0.000277
H112	H	1.250328	0.875762	0.499723
