data_functionalizedCrystal
_audit_creation_method	'MofGen! by Chris Wilmer'
_symmetry_space_group_name_H-M	'P1'
_symmetry_Int_Tables_number	1
_symmetry_cell_setting	triclinic
loop_
_symmetry_equiv_pos_as_xyz
  x,y,z
_cell_length_a	15.298183
_cell_length_b	15.297510
_cell_length_c	14.909241
_cell_angle_alpha	83.058736
_cell_angle_beta	84.152145
_cell_angle_gamma	88.423408
loop_
_atom_site_label
_atom_site_type_symbol
_atom_site_fract_x
_atom_site_fract_y
_atom_site_fract_z
Zn1	Zn	-1.303619	0.562527	-0.381424
Zn2	Zn	-1.270343	0.714509	-0.262623
Zn3	Zn	-1.148783	0.543143	-0.254067
Zn4	Zn	-1.135042	0.681329	-0.431153
O5	O	-1.214447	0.625377	-0.332317
O6	O	-1.420628	0.604686	-0.348434
O7	O	-1.246042	0.697550	-0.137659
O8	O	-1.188998	0.424278	-0.246568
O9	O	-1.396180	0.716346	-0.261152
O10	O	-1.302756	0.438519	-0.340137
O11	O	-1.156732	0.571648	-0.131372
O12	O	-1.025537	0.539475	-0.294788
O13	O	-1.165580	0.659797	-0.548386
O14	O	-1.015442	0.641001	-0.424893
O15	O	-1.289433	0.572513	-0.511851
O16	O	-1.232718	0.831544	-0.309372
O17	O	-1.133314	0.807167	-0.433190
C18	C	-0.989006	0.584535	-0.364309
C19	C	-0.892559	0.567082	-0.378021
C20	C	-0.859976	0.500829	-0.430015
C21	C	-0.769361	0.484423	-0.442898
C22	C	-0.711320	0.534273	-0.403794
C23	C	-0.743902	0.600532	-0.351804
C24	C	-0.834527	0.616935	-0.338913
C25	C	-0.685871	0.650379	-0.312692
C26	C	-0.718453	0.716638	-0.260702
C27	C	-0.809069	0.733038	-0.247814
C28	C	-0.867110	0.683188	-0.286919
C29	C	-0.595247	0.633976	-0.325582
C30	C	-0.569798	0.750082	-0.234480
C31	C	-0.660412	0.766488	-0.221597
C32	C	-1.177939	0.850846	-0.377622
C33	C	-1.162402	0.947316	-0.397022
C34	C	-0.440768	0.666374	-0.300191
C35	C	-0.537214	0.683829	-0.286475
C36	C	-1.325828	1.269917	-0.193971
C37	C	-1.340425	1.179279	-0.175739
C38	C	-1.295921	1.121284	-0.231058
C39	C	-1.236817	1.153935	-0.304612
C40	C	-1.222213	1.244581	-0.322841
C41	C	-1.192306	1.095948	-0.359929
C42	C	-1.133202	1.128600	-0.433483
C43	C	-1.118602	1.219237	-0.451709
C44	C	-1.163106	1.277232	-0.396390
C45	C	-1.206909	1.005302	-0.341700
C46	C	-1.103295	0.979967	-0.470570
C47	C	-1.088698	1.070605	-0.488802
C48	C	-1.229686	0.614616	-0.563124
C49	C	-1.236179	0.610030	-0.661480
C50	C	-1.251114	1.399029	-0.286862
C51	C	-1.266720	1.302568	-0.267519
C52	C	-1.119414	0.692322	-0.884352
C53	C	-1.125512	0.688016	-0.976767
C54	C	-1.254477	0.597117	-0.938728
C55	C	-1.248379	0.601424	-0.846313
C56	C	-1.180844	0.649027	-0.819129
C57	C	-1.174743	0.653327	-0.726711
C58	C	-1.303711	0.562434	-0.688674
C59	C	-1.309809	0.558128	-0.781090
C60	C	-1.199327	0.636042	-0.102388
C61	C	-1.193041	0.640414	-0.003959
H62	H	-0.568727	0.580026	-0.367912
N63	N	-1.369980	0.515733	-0.618332
H64	H	-1.367605	0.450540	-0.623882
H65	H	-1.355837	0.525746	-0.555693
N66	N	-1.404177	1.144067	-0.096420
H67	H	-1.406674	1.077847	-0.093264
H68	H	-1.383990	1.160456	-0.038313
N69	N	-0.613585	0.516578	-0.417683
H70	H	-0.601751	0.467040	-0.456551
H71	H	-0.583250	0.571473	-0.448889
H72	H	-1.040575	1.097203	-0.548690
H73	H	-1.119745	0.692078	-0.704579
H74	H	-0.907240	0.460244	-0.461843
H75	H	-0.742839	0.430476	-0.485230
N76	N	-1.059250	0.734696	-1.047122
H77	H	-1.090525	0.779511	-1.088543
H78	H	-1.015557	0.765450	-1.015812
H79	H	-1.362051	1.317143	-0.148933
H80	H	-1.255032	0.978726	-0.281811
N81	N	-1.382649	0.506790	-0.810413
H82	H	-1.377193	0.510632	-0.878855
H83	H	-1.378113	0.443119	-0.783731
N84	N	-1.046569	0.743649	-0.855022
H85	H	-1.008574	0.770420	-0.910365
H86	H	-1.072849	0.791995	-0.819731
N87	N	-0.964842	0.700939	-0.273091
H88	H	-0.996660	0.659325	-0.305780
H89	H	-0.985234	0.691713	-0.206088
H90	H	-0.835595	0.786984	-0.205471
N91	N	-0.695559	0.837949	-0.165521
H92	H	-0.761772	0.840771	-0.163291
H93	H	-0.677735	0.824418	-0.101866
N94	N	-0.507208	0.803850	-0.192292
H95	H	-0.444857	0.783407	-0.208349
H96	H	-0.513918	0.868082	-0.216160
H97	H	-1.307808	1.047483	-0.216209
N98	N	-1.147362	1.374995	-0.416057
H99	H	-1.184528	1.406776	-0.369853
H100	H	-1.083231	1.386793	-0.412607
H101	H	-1.067054	0.932747	-0.515614
H102	H	-1.070464	1.245817	-0.511592
N103	N	-1.327319	0.545787	-0.968058
H104	H	-1.321860	0.549635	-1.036501
H105	H	-1.322790	0.482114	-0.941381
