data_functionalizedCrystal
_audit_creation_method	'MofGen! by Chris Wilmer'
_symmetry_space_group_name_H-M	'P1'
_symmetry_Int_Tables_number	1
_symmetry_cell_setting	triclinic
loop_
_symmetry_equiv_pos_as_xyz
  x,y,z
_cell_length_a	10.686220
_cell_length_b	16.120484
_cell_length_c	10.685880
_cell_angle_alpha	97.443083
_cell_angle_beta	89.641569
_cell_angle_gamma	97.070967
loop_
_atom_site_label
_atom_site_type_symbol
_atom_site_fract_x
_atom_site_fract_y
_atom_site_fract_z
Zn1	Zn	1.953705	-0.262275	-0.583880
Zn2	Zn	2.453705	0.237725	-0.083880
Zn3	Zn	1.928247	-0.392927	-0.384842
Zn4	Zn	2.428247	0.107073	0.115158
Zn5	Zn	1.727713	-0.263987	-0.390343
Zn6	Zn	2.227713	0.236013	0.109657
Zn7	Zn	1.733154	-0.414283	-0.612365
Zn8	Zn	2.233154	0.085717	-0.112365
O9	O	1.835705	-0.333368	-0.492858
O10	O	2.335705	0.166632	0.007142
O11	O	2.126553	-0.269952	-0.543254
O12	O	2.626553	0.230048	-0.043254
O13	O	1.888714	-0.367602	-0.209356
O14	O	2.388714	0.132398	0.290644
O15	O	1.766069	-0.146183	-0.406398
O16	O	2.266069	0.353817	0.093602
O17	O	2.107849	-0.365941	-0.397021
O18	O	2.607849	0.134059	0.102979
O19	O	1.932104	-0.144925	-0.548589
O20	O	2.432104	0.355075	-0.048589
O21	O	1.741383	-0.272871	-0.213398
O22	O	2.241383	0.227129	0.286602
O23	O	1.552210	-0.293579	-0.434018
O24	O	2.052210	0.206421	0.065982
O25	O	1.775341	-0.402340	-0.784802
O26	O	2.275341	0.097660	-0.284802
O27	O	1.556206	-0.404000	-0.597137
O28	O	2.056206	0.096000	-0.097137
O29	O	1.937380	-0.290660	-0.763874
O30	O	2.437380	0.209340	-0.263874
O31	O	1.893990	-0.513337	-0.424642
O32	O	2.393990	-0.013337	0.075358
O33	O	1.750655	-0.529027	-0.591802
O34	O	2.250655	-0.029027	-0.091802
C35	C	1.508515	-0.351293	-0.519266
C36	C	2.008515	0.148707	-0.019266
C37	C	1.368542	-0.358983	-0.530595
C38	C	1.868542	0.141017	-0.030595
C39	C	1.820186	-0.551668	-0.510741
C40	C	2.320186	-0.051668	-0.010741
C41	C	1.813666	-0.645053	-0.518424
C42	C	2.313666	-0.145053	-0.018424
C43	C	1.801771	-0.816029	-0.532477
C44	C	2.301771	-0.316029	-0.032477
C45	C	1.869866	-0.849855	-0.453241
C46	C	2.369866	-0.349855	0.046759
C47	C	1.863247	-0.944992	-0.461060
C48	C	2.363247	-0.444992	0.038940
C49	C	1.808388	-0.720884	-0.524659
C50	C	2.308388	-0.220884	-0.024659
C51	C	2.164172	-0.315374	-0.466347
C52	C	2.664172	0.184626	0.033653
C53	C	2.304146	-0.307705	-0.455049
C54	C	2.804146	0.192295	0.044951
C55	C	1.859807	-0.348691	-0.821306
C56	C	2.359807	0.151309	-0.321306
C57	C	1.870078	-0.355221	-0.961271
C58	C	2.370078	0.144779	-0.461271
C59	C	1.851320	-0.114215	-0.474930
C60	C	2.351320	0.385785	0.025070
C61	C	1.857974	-0.020825	-0.467290
C62	C	2.357974	0.479175	0.032710
C63	C	1.811773	-0.318040	-0.165676
C64	C	2.311773	0.181960	0.334324
C65	C	1.801763	-0.311260	-0.025673
C66	C	2.301763	0.188740	0.474327
H67	H	1.356096	-0.257922	-0.381703
H68	H	1.856096	0.242078	0.118297
H69	H	1.735407	-0.268630	-0.973733
H70	H	2.235407	0.231370	-0.473733
N71	N	1.303375	-0.421435	-0.622628
N72	N	1.803375	0.078565	-0.122628
N73	N	1.326901	-0.420606	-0.737222
N74	N	1.826901	0.079394	-0.237222
H75	H	1.280876	-0.464711	-0.802221
H76	H	1.780876	0.035289	-0.302221
H77	H	1.933134	-0.807363	-0.379533
H78	H	2.433134	-0.307363	0.120467
H79	H	1.738505	-0.858518	-0.606178
H80	H	2.238505	-0.358518	-0.106178
N81	N	1.953327	-0.408716	-1.026402
N82	N	2.453327	0.091284	-0.526402
N83	N	1.938398	-0.486030	-1.018818
N84	N	2.438398	0.013970	-0.518818
H85	H	1.997193	-0.523811	-1.064813
H86	H	2.497193	-0.023811	-0.564813
