data_functionalizedCrystal
_audit_creation_method	'MofGen! by Chris Wilmer'
_symmetry_space_group_name_H-M	'P1'
_symmetry_Int_Tables_number	1
_symmetry_cell_setting	triclinic
loop_
_symmetry_equiv_pos_as_xyz
  x,y,z
_cell_length_a	10.489716
_cell_length_b	10.489716
_cell_length_c	15.186229
_cell_angle_alpha	90.000291
_cell_angle_beta	89.997012
_cell_angle_gamma	84.529136
loop_
_atom_site_label
_atom_site_type_symbol
_atom_site_fract_x
_atom_site_fract_y
_atom_site_fract_z
O1	O	1.694054	0.179819	-0.073213
O2	O	1.322853	0.196745	-0.073215
O3	O	1.516916	0.002681	-0.073217
O4	O	1.499991	0.373883	-0.073211
O5	O	1.516903	0.002678	0.073240
O6	O	1.322840	0.196742	0.073242
O7	O	1.694041	0.179816	0.073244
Zn8	Zn	1.508438	0.188279	0.096496
Zn9	Zn	1.508456	0.188282	-0.096467
O10	O	1.499978	0.373880	0.073246
C11	C	1.275314	0.195472	0.000013
C12	C	1.133684	0.191667	0.000012
C13	C	1.035999	0.310673	0.000011
C14	C	0.958652	0.247786	0.072225
C15	C	0.958672	0.247761	-0.072170
C16	C	1.058202	0.128830	0.072285
C17	C	1.058227	0.128822	-0.072175
C18	C	0.980929	0.065848	0.000057
C19	C	1.515638	-0.044852	0.000009
C20	C	1.511833	-0.186483	0.000001
C21	C	1.630839	-0.284167	0.000010
C22	C	1.567960	-0.361521	-0.072200
C23	C	1.567920	-0.361488	0.072196
C24	C	1.449004	-0.261971	-0.072268
C25	C	1.448981	-0.261933	0.072192
C26	C	1.386015	-0.339237	-0.000035
C27	C	1.741580	0.181089	0.000014
C28	C	1.883210	0.184894	0.000010
C29	C	1.501256	0.421413	0.000018
C30	C	1.505061	0.563044	0.000021
N31	N	1.508436	0.188275	0.228189
N32	N	1.508468	0.188276	-0.228160
C33	C	1.594397	0.102374	0.453911
C34	C	1.594401	0.102371	0.546101
C35	C	1.422498	0.274182	0.546111
C36	C	1.422489	0.274177	0.453924
C37	C	1.508445	0.188275	0.407826
C38	C	1.508459	0.188276	0.592203
C39	C	1.508462	0.188274	0.692159
C40	C	1.508440	0.188276	0.307863
H41	H	1.060659	0.414190	0.000081
N42	N	0.901047	0.314314	0.153101
H43	H	0.920664	0.406727	0.153052
H44	H	0.805221	0.310394	0.152754
N45	N	1.687072	0.009692	0.404193
H46	H	1.674023	0.022716	0.338798
H47	H	1.777704	0.025278	0.420292
H48	H	1.352490	0.344129	0.416398
N49	N	1.382478	-0.204259	0.153050
H50	H	1.350402	-0.274517	0.190094
H51	H	1.444817	-0.157465	0.188524
N52	N	1.115562	0.062324	0.153238
H53	H	1.211506	0.065371	0.152753
H54	H	1.078332	0.106946	0.207671
N55	N	1.248812	-0.371635	-0.000112
H56	H	1.189359	-0.290023	-0.000668
H57	H	1.232989	-0.423970	-0.054160
H58	H	1.618203	-0.405019	-0.133248
N59	N	0.948561	-0.071364	0.000097
H60	H	1.030189	-0.130794	0.000634
H61	H	0.896228	-0.087251	0.054137
N62	N	1.115860	0.062319	-0.153045
H63	H	1.079487	0.107377	-0.207564
H64	H	1.211875	0.064694	-0.152064
H65	H	1.352515	0.344123	0.583654
H66	H	1.618177	-0.404966	0.133241
N67	N	0.900929	0.314370	-0.152971
H68	H	0.920505	0.406795	-0.152882
H69	H	0.938485	0.270362	-0.207528
H70	H	1.398800	-0.218661	-0.133383
N71	N	1.767953	-0.251490	-0.000075
H72	H	1.812766	-0.287908	-0.054673
H73	H	1.769489	-0.155372	0.000514
N74	N	1.687123	0.009738	0.595808
H75	H	1.741577	-0.044671	0.552614
H76	H	1.743949	0.059142	0.634046
