data_functionalizedCrystal
_audit_creation_method	'MofGen! by Chris Wilmer'
_symmetry_space_group_name_H-M	'P1'
_symmetry_Int_Tables_number	1
_symmetry_cell_setting	triclinic
loop_
_symmetry_equiv_pos_as_xyz
  x,y,z
_cell_length_a	23.204084
_cell_length_b	23.204045
_cell_length_c	23.204116
_cell_angle_alpha	59.996887
_cell_angle_beta	89.996849
_cell_angle_gamma	59.999904
loop_
_atom_site_label
_atom_site_type_symbol
_atom_site_fract_x
_atom_site_fract_y
_atom_site_fract_z
O1	O	0.395338	0.508351	-0.017165
O2	O	0.311534	0.390337	0.017047
O3	O	0.311533	0.508346	-0.100966
O4	O	0.395340	0.390342	0.100848
O5	O	0.407384	0.412495	-0.100966
O6	O	0.407386	0.294485	0.017047
O7	O	0.491189	0.412500	-0.017165
Zn8	Zn	0.464506	0.338274	-0.000059
Zn9	Zn	0.338218	0.464563	-0.000059
O10	O	0.491191	0.294490	0.100848
C11	C	0.492067	0.621388	-0.024963
C12	C	0.456504	0.692515	-0.020072
C13	C	0.561424	0.586875	-0.025453
C14	C	0.492070	0.517023	-0.024955
C15	C	0.456510	0.476563	-0.020056
C16	C	0.561427	0.482669	-0.025445
C17	C	0.596427	0.517028	-0.024963
C18	C	0.672445	0.476573	-0.020071
C19	C	0.457226	0.586870	-0.025446
C20	C	0.144181	0.212795	0.035745
C21	C	0.068162	0.253253	0.030849
C22	C	0.179182	0.142951	0.036231
C23	C	0.248541	0.212792	0.035749
C24	C	0.284105	0.253247	0.030857
C25	C	0.283384	0.142948	0.036235
C26	C	0.248540	0.108436	0.035744
C27	C	0.284102	0.037312	0.030848
C28	C	0.179184	0.247149	0.036235
C29	C	0.312832	-0.020147	0.026891
C30	C	0.006745	0.285940	0.026893
C31	C	0.312837	0.285931	0.026904
C32	C	0.348875	-0.092234	0.021928
C33	C	-0.070304	0.326947	0.021930
C34	C	0.348882	0.326934	0.021946
C35	C	0.248544	0.590047	-0.445864
C36	C	0.284106	0.549591	-0.481426
C37	C	0.179187	0.659892	-0.480706
C38	C	0.248544	0.590047	-0.341505
C39	C	0.284107	0.549590	-0.265486
C40	C	0.179187	0.659892	-0.376506
C41	C	0.144185	0.694406	-0.445863
C42	C	0.068167	0.765531	-0.481424
C43	C	0.283387	0.555691	-0.376507
C44	C	0.006751	0.822991	-0.510153
C45	C	0.312836	0.516905	-0.510157
C46	C	0.312837	0.516904	-0.204070
C47	C	-0.070297	0.895079	-0.546196
C48	C	0.348880	0.475900	-0.546201
C49	C	0.348881	0.475898	-0.127021
O50	O	0.903643	0.294496	0.017034
O51	O	0.701828	0.412510	-0.017179
O52	O	0.819823	0.294506	0.100834
O53	O	0.785648	0.412500	-0.100980
O54	O	0.819820	0.390363	0.100826
O55	O	0.701825	0.508367	-0.017187
O56	O	0.903640	0.390353	0.017026
Zn57	Zn	0.802732	0.464579	-0.000082
Zn58	Zn	0.802736	0.338284	-0.000072
O59	O	0.785645	0.508356	-0.100988
O60	O	0.407380	0.886609	0.017032
O61	O	0.491183	0.719005	-0.017180
O62	O	0.491179	0.718989	0.100833
O63	O	0.407384	0.886625	-0.100981
O64	O	0.395325	0.718996	0.100825
O65	O	0.395329	0.719012	-0.017189
O66	O	0.311525	0.886616	0.017023
Zn67	Zn	0.338208	0.802815	-0.000084
Zn68	Zn	0.464501	0.802806	-0.000073
O69	O	0.311530	0.886632	-0.100990
O70	O	-0.298162	1.083846	-0.592646
O71	O	-0.096350	0.916232	-0.508846
O72	O	-0.214353	0.916226	-0.508835
O73	O	-0.180159	1.083851	-0.592657
O74	O	-0.214356	0.916229	-0.604687
O75	O	-0.096353	0.916234	-0.604698
O76	O	-0.298165	1.083848	-0.688498
Zn77	Zn	-0.197259	1.000042	-0.661817
Zn78	Zn	-0.197256	1.000038	-0.535527
O79	O	-0.180162	1.083854	-0.688509
O80	O	0.395344	0.390337	-0.688506
O81	O	0.311532	0.508347	-0.604703
O82	O	0.311536	0.390335	-0.604694
O83	O	0.395340	0.508349	-0.688516
O84	O	0.407386	0.294485	-0.508843
O85	O	0.407382	0.412497	-0.508852
O86	O	0.491193	0.294487	-0.592655
Zn87	Zn	0.464506	0.338274	-0.535535
Zn88	Zn	0.338220	0.464560	-0.661823
O89	O	0.491190	0.412499	-0.592665
C90	C	0.596435	0.181463	0.310607
C91	C	0.672453	0.110338	0.346167
C92	C	0.561434	0.215976	0.345451
C93	C	0.492075	0.285822	0.206249
C94	C	0.456512	0.326280	0.130231
C95	C	0.457233	0.320177	0.241252
C96	C	0.492077	0.285821	0.310609
C97	C	0.456515	0.326277	0.346172
C98	C	0.561432	0.215977	0.241250
C99	C	0.827559	0.285873	0.310579
C100	C	0.822657	0.326337	0.346135
C101	C	0.828037	0.216032	0.345424
C102	C	0.827581	0.285857	0.206228
C103	C	0.822704	0.326303	0.130212
C104	C	0.828060	0.216015	0.241232
C105	C	0.827557	0.181511	0.310586
C106	C	0.822653	0.110391	0.346150
C107	C	0.828062	0.320219	0.241225
C108	C	0.492049	0.516998	0.310585
C109	C	0.456483	0.476541	0.346144
C110	C	0.561406	0.482636	0.345432
C111	C	0.492056	0.621364	0.206230
C112	C	0.456497	0.692496	0.130211
C113	C	0.561413	0.586844	0.241235
C114	C	0.596411	0.516993	0.310592
C115	C	0.672429	0.476531	0.346157
C116	C	0.457209	0.586849	0.241228
C117	C	0.767010	0.694370	-0.445874
C118	C	0.771908	0.765494	-0.481439
C119	C	0.766533	0.659846	-0.480711
C120	C	0.766989	0.590021	-0.341515
C121	C	0.771866	0.549575	-0.265499
C122	C	0.766513	0.555656	-0.376511
C123	C	0.767017	0.590002	-0.445865
C124	C	0.771923	0.549536	-0.481419
C125	C	0.766506	0.659865	-0.376520
C126	C	0.775888	0.516842	-0.510143
C127	C	0.775867	0.822953	-0.510172
C128	C	0.775808	0.516897	-0.204085
C129	C	0.780862	0.475827	-0.546180
C130	C	0.780833	0.895040	-0.546218
C131	C	0.780752	0.475902	-0.127038
O132	O	0.785539	0.412579	0.491094
O133	O	0.819754	0.294556	0.407303
O134	O	0.701743	0.412581	0.407278
O135	O	0.903550	0.294555	0.491119
O136	O	0.701765	0.508420	0.311429
O137	O	0.819777	0.390396	0.311454
O138	O	0.785561	0.508419	0.395245
Zn139	Zn	0.802673	0.464624	0.338132
Zn140	Zn	0.802643	0.338351	0.464417
O141	O	0.903573	0.390395	0.395271
C142	C	0.144202	1.212851	-0.445886
C143	C	0.068184	1.253314	-0.481452
C144	C	0.179207	1.247207	-0.480725
C145	C	0.248557	1.108479	-0.341524
C146	C	0.284115	1.037347	-0.265505
C147	C	0.283404	1.142994	-0.376522
C148	C	0.248564	1.212845	-0.445879
C149	C	0.284131	1.253302	-0.481436
C150	C	0.179200	1.143000	-0.376529
C151	C	0.312864	1.285987	-0.510163
C152	C	0.006768	1.286005	-0.510185
C153	C	0.312842	0.979881	-0.204089
C154	C	0.348912	1.326992	-0.546202
C155	C	-0.070280	1.327016	-0.546233
C156	C	0.348881	0.907786	-0.127040
H157	H	0.589521	0.615766	-0.026241
H158	H	0.151092	1.114118	-0.348433
H159	H	0.340367	0.499474	-0.348402
Cl160	Cl	0.135830	1.333983	-0.568709
H161	H	0.589514	0.615733	0.213134
H162	H	0.151081	0.303348	0.037024
H163	H	0.340394	1.114093	-0.348418
H164	H	0.151085	0.688768	-0.348398
Cl165	Cl	0.765292	0.704465	-0.333138
H166	H	0.589535	0.187088	0.213151
H167	H	0.589528	0.426462	-0.026224
Cl168	Cl	0.369248	0.406942	0.197873
H169	H	0.151089	0.688777	-0.537694
Cl170	Cl	0.604825	0.171392	0.433427
Cl171	Cl	0.829300	0.171395	0.197862
H172	H	0.765754	0.688732	-0.537698
H173	H	0.340371	0.114065	0.037019
H174	H	0.589501	0.426430	0.402419
H175	H	0.400241	0.615754	-0.026223
H176	H	0.400241	0.615700	0.213108
H177	H	0.151079	0.114066	0.037019
H178	H	0.828815	0.187153	0.402411
H179	H	0.828836	0.376430	0.213119
H180	H	0.765731	0.499450	-0.348402
