data_functionalizedCrystal
_audit_creation_method	'MofGen! by Chris Wilmer'
_symmetry_space_group_name_H-M	'P1'
_symmetry_Int_Tables_number	1
_symmetry_cell_setting	triclinic
loop_
_symmetry_equiv_pos_as_xyz
  x,y,z
_cell_length_a	13.897449
_cell_length_b	16.120484
_cell_length_c	13.897441
_cell_angle_alpha	92.865635
_cell_angle_beta	89.979267
_cell_angle_gamma	92.926780
loop_
_atom_site_label
_atom_site_type_symbol
_atom_site_fract_x
_atom_site_fract_y
_atom_site_fract_z
Zn1	Zn	1.455182	-0.331852	-0.564824
Zn2	Zn	1.788515	0.001482	-0.231490
Zn3	Zn	2.121849	0.334815	0.101843
Zn4	Zn	1.446874	-0.471283	-0.411694
Zn5	Zn	1.780208	-0.137950	-0.078361
Zn6	Zn	2.113541	0.195383	0.254973
Zn7	Zn	1.293869	-0.331892	-0.403544
Zn8	Zn	1.627202	0.001442	-0.070211
Zn9	Zn	1.960536	0.334775	0.263122
Zn10	Zn	1.285654	-0.471229	-0.572943
Zn11	Zn	1.618988	-0.137895	-0.239610
Zn12	Zn	1.952321	0.195438	0.093723
O13	O	1.370395	-0.401564	-0.488251
O14	O	1.703728	-0.068230	-0.154918
O15	O	2.037062	0.265103	0.178415
O16	O	1.589061	-0.350354	-0.544523
O17	O	1.922395	-0.017021	-0.211190
O18	O	2.255728	0.316313	0.122144
O19	O	1.426539	-0.452832	-0.275633
O20	O	1.759872	-0.119499	0.057700
O21	O	2.093205	0.213834	0.391033
O22	O	1.322182	-0.215221	-0.418130
O23	O	1.655515	0.118113	-0.084796
O24	O	1.988849	0.451446	0.248537
O25	O	1.582958	-0.452794	-0.432019
O26	O	1.916291	-0.119460	-0.098686
O27	O	2.249624	0.213873	0.234647
O28	O	1.440698	-0.215191	-0.536621
O29	O	1.774032	0.118142	-0.203287
O30	O	2.107365	0.451475	0.130046
O31	O	1.314126	-0.350422	-0.269646
O32	O	1.647460	-0.017088	0.063687
O33	O	1.980793	0.316245	0.397021
O34	O	1.157798	-0.350369	-0.426003
O35	O	1.491131	-0.017035	-0.092670
O36	O	1.824465	0.316298	0.240664
O37	O	1.308182	-0.452700	-0.706846
O38	O	1.641515	-0.119367	-0.373512
O39	O	1.974848	0.213966	-0.040179
O40	O	1.151763	-0.452739	-0.550460
O41	O	1.485096	-0.119406	-0.217126
O42	O	1.818430	0.213928	0.116207
O43	O	1.432733	-0.350301	-0.700880
O44	O	1.766066	-0.016968	-0.367547
O45	O	2.099400	0.316366	-0.034213
O46	O	1.418574	-0.587942	-0.439893
O47	O	1.751907	-0.254608	-0.106559
O48	O	2.085240	0.078725	0.226774
O49	O	1.300126	-0.587901	-0.558362
O50	O	1.633459	-0.254568	-0.225029
O51	O	1.966793	0.078765	0.108305
C52	C	1.119781	-0.401553	-0.488229
C53	C	1.453115	-0.068219	-0.154895
C54	C	1.786448	0.265114	0.178438
C55	C	1.012566	-0.401568	-0.488243
C56	C	1.345900	-0.068235	-0.154910
C57	C	1.679233	0.265099	0.178424
C58	C	0.816271	-0.401571	-0.488268
C59	C	1.149604	-0.068238	-0.154935
C60	C	1.482938	0.265096	0.178398
C61	C	0.925504	-0.401567	-0.488251
C62	C	1.258837	-0.068233	-0.154918
C63	C	1.592171	0.265100	0.178415
C64	C	1.357583	-0.618172	-0.500914
C65	C	1.690916	-0.284838	-0.167581
C66	C	2.024250	0.048495	0.165753
C67	C	1.352190	-0.710837	-0.506363
C68	C	1.685524	-0.377504	-0.173030
C69	C	2.018857	-0.044171	0.160303
C70	C	1.342350	-0.880499	-0.516332
C71	C	1.675684	-0.547165	-0.182999
C72	C	2.009017	-0.213832	0.150334
C73	C	1.398613	-0.921788	-0.460186
C74	C	1.731946	-0.588455	-0.126853
C75	C	2.065279	-0.255122	0.206480
C76	C	1.393137	-1.016194	-0.465733
C77	C	1.726471	-0.682860	-0.132400
C78	C	2.059804	-0.349527	0.200934
C79	C	1.347824	-0.786085	-0.510787
C80	C	1.681157	-0.452751	-0.177453
C81	C	2.014491	-0.119418	0.155880
C82	C	1.621987	-0.401576	-0.488275
C83	C	1.955321	-0.068242	-0.154941
C84	C	2.288654	0.265091	0.178392
C85	C	1.729201	-0.401581	-0.488285
C86	C	2.062534	-0.068247	-0.154951
C87	C	2.395867	0.265086	0.178382
C88	C	1.370468	-0.401490	-0.739840
C89	C	1.703801	-0.068157	-0.406507
C90	C	2.037134	0.265177	-0.073173
C91	C	1.370499	-0.401459	-0.847052
C92	C	1.703832	-0.068125	-0.513719
C93	C	2.037165	0.265208	-0.180386
C94	C	1.383283	-0.184110	-0.475560
C95	C	1.716616	0.149223	-0.142227
C96	C	2.049950	0.482557	0.191106
C97	C	1.388775	-0.091444	-0.470152
C98	C	1.722109	0.241889	-0.136819
C99	C	2.055442	0.575222	0.196514
C100	C	1.370528	-0.401402	-1.043344
C101	C	1.703862	-0.068069	-0.710011
C102	C	2.037195	0.265264	-0.376678
C103	C	1.370509	-0.401436	-0.934114
C104	C	1.703842	-0.068103	-0.600780
C105	C	2.037175	0.265231	-0.267447
C106	C	1.370382	-0.401577	-0.237638
C107	C	1.703715	-0.068244	0.095696
C108	C	2.037048	0.265090	0.429029
C109	C	1.370551	-0.401374	-0.130412
C110	C	1.703885	-0.068040	0.202921
C111	C	2.037218	0.265293	0.536254
H112	H	1.450891	-0.886236	-0.407952
H113	H	1.784225	-0.552903	-0.074618
H114	H	2.117558	-0.219570	0.258715
H115	H	1.290074	-0.916048	-0.568561
H116	H	1.623407	-0.582715	-0.235228
H117	H	1.956741	-0.249381	0.098105
