data_functionalizedCrystal
_audit_creation_method	'MofGen! by Chris Wilmer'
_symmetry_space_group_name_H-M	'P1'
_symmetry_Int_Tables_number	1
_symmetry_cell_setting	triclinic
loop_
_symmetry_equiv_pos_as_xyz
  x,y,z
_cell_length_a	19.188930
_cell_length_b	23.532407
_cell_length_c	17.666332
_cell_angle_alpha	89.988854
_cell_angle_beta	89.976766
_cell_angle_gamma	82.996728
loop_
_atom_site_label
_atom_site_type_symbol
_atom_site_fract_x
_atom_site_fract_y
_atom_site_fract_z
O1	O	0.925923	0.071102	-0.063199
O2	O	0.722581	0.080673	-0.063148
O3	O	0.830384	-0.007031	-0.063161
O4	O	0.818120	0.158806	-0.063186
O5	O	0.830365	-0.007036	0.062735
O6	O	0.722562	0.080669	0.062748
O7	O	0.925904	0.071097	0.062697
Cu8	Cu	0.824231	0.075883	0.074218
Cu9	Cu	0.824253	0.075888	-0.074669
O10	O	0.818101	0.158802	0.062711
C11	C	0.696561	0.080361	-0.000193
C12	C	0.619060	0.079431	-0.000173
C13	C	0.573972	0.130893	-0.000193
C14	C	0.501151	0.130019	-0.000201
C15	C	0.473421	0.077680	-0.000205
C16	C	0.518519	0.026211	-0.000181
C17	C	0.591339	0.027086	-0.000165
N18	N	0.365575	0.037674	-0.043078
N19	N	0.296399	0.036846	-0.043094
C20	C	0.254021	0.075038	-0.000251
N21	N	0.283431	0.114099	0.042600
N22	N	0.352613	0.114929	0.042614
C23	C	0.394462	0.076724	-0.000222
C24	C	0.129971	0.125556	-0.000278
C25	C	0.057149	0.124680	-0.000282
C26	C	0.074520	0.020870	-0.000269
C27	C	0.147340	0.021748	-0.000258
C28	C	0.175061	0.074092	-0.000266
C29	C	0.830062	-0.028250	-0.000211
C30	C	0.829123	-0.091469	-0.000205
C31	C	0.887029	-0.490449	-0.000261
C32	C	0.886157	-0.549851	-0.000267
O33	O	0.939837	-0.586482	-0.000308
N34	N	0.822068	-0.572613	-0.000250
C35	C	0.758848	-0.535970	-0.000236
O36	O	0.704255	-0.560786	-0.000223
C37	C	0.759721	-0.476569	-0.000235
C38	C	0.823814	-0.453810	-0.000244
C39	C	0.951117	-0.467690	-0.000271
C40	C	0.951989	-0.408292	-0.000264
C41	C	0.888773	-0.371653	-0.000247
C42	C	0.824685	-0.394412	-0.000237
C43	C	0.696501	-0.439927	-0.000226
C44	C	0.697379	-0.380523	-0.000227
C45	C	0.761472	-0.357764	-0.000236
C46	C	0.762342	-0.298376	-0.000214
N47	N	0.826430	-0.275614	-0.000230
C48	C	0.889646	-0.312252	-0.000247
C49	C	0.757019	-0.660717	-0.000237
C50	C	0.756146	-0.720116	-0.000232
C51	C	0.883455	-0.733993	-0.000264
C52	C	0.884328	-0.674592	-0.000264
C53	C	0.821108	-0.637954	-0.000254
C54	C	0.891472	-0.187512	-0.000232
C55	C	0.892339	-0.128108	-0.000222
C56	C	0.765029	-0.114236	-0.000193
C57	C	0.764163	-0.173634	-0.000199
C58	C	0.827390	-0.210272	-0.000221
O59	O	0.708690	-0.261710	-0.000176
O60	O	0.944230	-0.287428	-0.000270
C61	C	0.951923	0.071410	-0.000259
C62	C	1.029425	0.072340	-0.000284
C63	C	0.818423	0.180021	-0.000241
C64	C	0.819362	0.243240	-0.000252
N65	N	0.824221	0.075878	0.178938
N66	N	0.824270	0.075888	-0.179389
C67	C	0.871971	0.037062	0.218542
C68	C	0.871975	0.037059	0.297789
C69	C	0.824236	0.075883	0.337430
C70	C	0.776476	0.114702	0.297816
C71	C	0.776469	0.114700	0.218570
N72	N	0.814998	0.126298	0.461842
N73	N	0.815010	0.126298	0.537123
C74	C	0.824254	0.075891	0.576194
N75	N	0.833500	0.025481	0.537141
N76	N	0.833493	0.025482	0.461853
C77	C	0.824238	0.075889	0.423359
C78	C	0.872011	0.037068	0.701727
C79	C	0.872010	0.037064	0.780976
C80	C	0.776515	0.114713	0.781002
C81	C	0.776512	0.114711	0.701754
C82	C	0.824264	0.075889	0.662122
H83	H	0.596537	0.173516	-0.000201
H84	H	0.737584	0.146310	0.186324
O85	O	0.491669	-0.024667	-0.000289
C86	C	0.514770	-0.056020	-0.065492
H87	H	0.565186	-0.040626	-0.087218
H88	H	0.472610	-0.049316	-0.111162
C89	C	0.466931	-0.139028	-0.018992
C90	C	0.528856	-0.120123	-0.045673
H91	H	0.475618	-0.178570	-0.006769
H92	H	0.451365	-0.117904	0.024936
H93	H	0.431804	-0.133436	-0.057055
H94	H	0.563980	-0.125709	-0.007607
H95	H	0.544429	-0.141249	-0.089594
H96	H	0.628050	-0.014822	-0.000150
O97	O	0.730034	0.152437	0.336202
C98	C	0.687896	0.186708	0.284249
H99	H	0.687267	0.163358	0.227767
H100	H	0.710265	0.228972	0.275794
C101	C	0.613272	0.227274	0.384587
C102	C	0.612495	0.198593	0.315217
H103	H	0.566762	0.234608	0.403690
H104	H	0.641663	0.204187	0.419590
H105	H	0.631916	0.262490	0.377532
H106	H	0.593860	0.163374	0.322275
H107	H	0.584100	0.221675	0.280216
H108	H	0.644310	-0.458446	-0.000224
O109	O	0.918331	-0.000727	0.336192
C110	C	0.907367	-0.057084	0.316871
H111	H	0.880456	-0.056967	0.259345
H112	H	0.872737	-0.074622	0.361495
C113	C	1.011574	-0.095259	0.383851
C114	C	0.978527	-0.095115	0.313193
H115	H	1.055468	-0.118720	0.381585
H116	H	1.018960	-0.057290	0.396871
H117	H	0.982709	-0.109873	0.421030
H118	H	1.007389	-0.080495	0.276018
H119	H	0.971148	-0.133083	0.300167
H120	H	0.910892	0.005455	0.669457
O121	O	0.918466	-0.000665	0.819333
C122	C	0.960598	-0.034936	0.767354
H123	H	0.961215	-0.011588	0.710858
H124	H	0.938232	-0.077202	0.758951
C125	C	1.035242	-0.075493	0.867636
C126	C	1.036005	-0.046815	0.798248
H127	H	1.081756	-0.082824	0.886693
H128	H	1.006856	-0.052406	0.902656
H129	H	1.016601	-0.110712	0.860624
H130	H	1.054638	-0.011594	0.805263
H131	H	1.064396	-0.069896	0.763230
O132	O	0.730110	0.152348	0.819582
C133	C	0.687243	0.121934	0.865437
H134	H	0.715364	0.077313	0.877309
H135	H	0.635669	0.118167	0.834923
C136	C	0.637561	0.208880	0.926130
C137	C	0.672102	0.154077	0.940716
H138	H	0.628217	0.228708	0.972564
H139	H	0.666439	0.229371	0.895234
H140	H	0.594587	0.205733	0.900700
H141	H	0.715078	0.157225	0.966137
H142	H	0.643230	0.133587	0.971618
O143	O	1.014268	-0.386217	-0.000414
C144	C	1.052788	-0.404963	-0.065620
H145	H	1.015303	-0.417218	-0.111182
H146	H	1.091960	-0.443778	-0.050891
C147	C	1.138623	-0.341401	-0.039237
C148	C	1.092583	-0.356448	-0.095200
H149	H	1.163174	-0.311476	-0.057482
H150	H	1.112674	-0.328772	0.004695
H151	H	1.171261	-0.373751	-0.026968
H152	H	1.059942	-0.324100	-0.107461
H153	H	1.118529	-0.369070	-0.139134
O154	O	0.730106	0.152478	0.663396
C155	C	0.687957	0.186735	0.715374
H156	H	0.716581	0.187322	0.771848
H157	H	0.636223	0.168348	0.723835
C158	C	0.637978	0.247481	0.615072
C159	C	0.673138	0.248206	0.684432
H160	H	0.628833	0.285399	0.595985
H161	H	0.666372	0.224400	0.580053
H162	H	0.594870	0.232155	0.622133
H163	H	0.716248	0.263525	0.677369
H164	H	0.644750	0.271291	0.719450
O165	O	0.191172	-0.028227	-0.000116
C166	C	0.233792	-0.030824	0.065085
H167	H	0.206895	-0.001639	0.110652
H168	H	0.286654	-0.016214	0.050352
C169	C	0.278308	-0.128668	0.038687
C170	C	0.245270	-0.092826	0.094656
H171	H	0.285391	-0.166914	0.056926
H172	H	0.249596	-0.126918	-0.005242
H173	H	0.322356	-0.116486	0.026414
H174	H	0.201219	-0.105004	0.106920
H175	H	0.273974	-0.094580	0.138588
H176	H	0.464433	0.171927	-0.000215
H177	H	0.152543	0.168178	-0.000274
H178	H	0.020438	0.166588	-0.000293
O179	O	0.695557	-0.625186	-0.000317
C180	C	0.656636	-0.635463	-0.065518
H181	H	0.674113	-0.680561	-0.087264
H182	H	0.665949	-0.602984	-0.111177
C183	C	0.556469	-0.574255	-0.018979
C184	C	0.577930	-0.629647	-0.045684
H185	H	0.507919	-0.570665	-0.006747
H186	H	0.582691	-0.567329	0.024947
H187	H	0.564236	-0.547196	-0.057033
H188	H	0.570171	-0.656705	-0.007627
H189	H	0.551704	-0.636577	-0.089604
O190	O	0.635901	-0.345014	-0.000183
C191	C	0.579151	-0.377845	-0.000196
H192	H	0.597188	-0.422226	0.023633
H193	H	0.559500	-0.382020	-0.060593
C194	C	0.497185	-0.293608	0.019920
C195	C	0.519338	-0.348116	0.049193
H196	H	0.460288	-0.275269	0.050382
H197	H	0.535418	-0.271488	0.019926
H198	H	0.480815	-0.297094	-0.030410
H199	H	0.535716	-0.344628	0.099518
H200	H	0.481106	-0.370234	0.049196
H201	H	0.051943	-0.021745	-0.000319
O202	O	0.952954	-0.223014	-0.000217
C203	C	1.009699	-0.190178	-0.000242
H204	H	0.991646	-0.145806	0.023599
H205	H	1.029375	-0.185981	-0.060644
C206	C	1.091666	-0.274416	0.019835
C207	C	1.069494	-0.219919	0.049124
H208	H	1.128552	-0.292762	0.050283
H209	H	1.053436	-0.296539	0.019850
H210	H	1.108058	-0.270911	-0.030499
H211	H	1.053095	-0.223425	0.099453
H212	H	1.107722	-0.197797	0.049119
O213	O	0.701888	-0.195720	-0.000321
C214	C	0.663383	-0.176954	-0.065504
H215	H	0.700877	-0.164672	-0.111079
H216	H	0.624196	-0.138152	-0.050746
C217	C	0.577561	-0.240546	-0.039100
C218	C	0.623612	-0.225466	-0.095079
H219	H	0.553025	-0.270469	-0.057342
H220	H	0.603501	-0.253188	0.004817
H221	H	0.544912	-0.208207	-0.026807
H222	H	0.656266	-0.257803	-0.107364
H223	H	0.597677	-0.212831	-0.138998
O224	O	0.918160	-0.000828	0.180076
C225	C	0.880837	-0.035883	0.134450
H226	H	0.826138	-0.012952	0.122489
H227	H	0.876165	-0.077844	0.165210
C228	C	0.987453	-0.076634	0.073909
C229	C	0.920272	-0.048468	0.059213
H230	H	1.011778	-0.084399	0.027500
H231	H	1.012598	-0.053018	0.104649
H232	H	0.983549	-0.111598	0.099544
H233	H	0.924176	-0.013501	0.033587
H234	H	0.895127	-0.072078	0.028466
H235	H	1.002598	-0.497516	-0.000287
O236	O	0.946649	-0.652582	-0.000314
C237	C	1.002252	-0.697665	-0.000307
H238	H	0.982966	-0.737968	-0.024134
H239	H	1.021723	-0.706123	0.060087
C240	C	1.086428	-0.631539	-0.020435
C241	C	1.062742	-0.681039	-0.049704
H242	H	1.123743	-0.621283	-0.050902
H243	H	1.048968	-0.601165	-0.020436
H244	H	1.102649	-0.638594	0.029893
H245	H	1.046514	-0.673981	-0.100027
H246	H	1.100201	-0.711412	-0.049712
H247	H	0.713561	-0.084394	-0.000177
H248	H	0.944533	-0.109581	-0.000227
H249	H	0.934929	-0.763836	-0.000281
H250	H	0.703955	-0.738641	-0.000211
