data_functionalizedCrystal
_audit_creation_method	'MofGen! by Chris Wilmer'
_symmetry_space_group_name_H-M	'P1'
_symmetry_Int_Tables_number	1
_symmetry_cell_setting	triclinic
loop_
_symmetry_equiv_pos_as_xyz
  x,y,z
_cell_length_a	10.654547
_cell_length_b	19.288865
_cell_length_c	18.366186
_cell_angle_alpha	90.011479
_cell_angle_beta	89.993143
_cell_angle_gamma	96.190069
loop_
_atom_site_label
_atom_site_type_symbol
_atom_site_fract_x
_atom_site_fract_y
_atom_site_fract_z
O1	O	1.665764	-0.097545	-0.060523
O2	O	1.300086	-0.106842	-0.060533
O3	O	1.493491	-0.001132	-0.060513
O4	O	1.472358	-0.203255	-0.060543
O5	O	1.493458	-0.001127	0.060586
O6	O	1.300053	-0.106836	0.060566
O7	O	1.665731	-0.097540	0.060577
Zn8	Zn	1.482887	-0.102187	0.079799
Zn9	Zn	1.482930	-0.102194	-0.079755
O10	O	1.472325	-0.203249	0.060557
C11	C	1.253286	-0.106157	0.000016
C12	C	1.113886	-0.104116	0.000012
C13	C	1.712531	-0.098225	0.000026
C14	C	1.851930	-0.100265	0.000025
C15	C	2.048397	-0.103153	0.066027
C16	C	1.917419	-0.101225	0.066034
C17	C	1.917429	-0.101227	-0.065995
C18	C	2.048406	-0.103150	-0.066001
C19	C	2.113877	-0.104119	0.132041
C20	C	2.048388	-0.103157	0.198061
C21	C	1.917409	-0.101229	0.198068
C22	C	1.851920	-0.100264	0.132054
C23	C	1.492795	0.024751	0.000039
C24	C	1.490753	0.101868	0.000045
C25	C	1.473022	-0.229133	0.000003
C26	C	1.475063	-0.306250	-0.000008
N27	N	1.482866	-0.102182	0.188690
C28	C	1.604235	0.145822	0.000052
C29	C	1.602317	0.218282	0.000040
C30	C	1.486912	0.246784	0.000037
C31	C	1.373415	0.202821	0.000026
C32	C	1.375336	0.130363	0.000030
C33	C	1.396178	0.355667	0.042452
C34	C	1.394262	0.428124	0.042453
C35	C	1.480982	0.470269	0.000020
C36	C	1.569640	0.439949	-0.042403
C37	C	1.571561	0.367491	-0.042399
C38	C	1.484816	0.325352	0.000031
C39	C	1.592392	0.592792	0.000013
C40	C	1.590470	0.665253	-0.000003
C41	C	1.361564	0.649790	-0.000010
C42	C	1.363490	0.577331	-0.000001
C43	C	1.478907	0.548837	0.000014
N44	N	1.482960	-0.102194	-0.188646
C45	C	1.568534	-0.055397	0.226799
C46	C	1.568542	-0.055394	0.303027
C47	C	1.482894	-0.102188	0.341143
C48	C	1.397210	-0.148976	0.303024
C49	C	1.397196	-0.148973	0.226798
C50	C	1.466084	-0.165366	0.461893
C51	C	1.466106	-0.165370	0.538118
C52	C	1.482930	-0.102197	0.576250
C53	C	1.499758	-0.039017	0.538147
C54	C	1.499744	-0.039014	0.461921
C55	C	1.482899	-0.102196	0.423797
C56	C	1.568611	-0.055405	0.697014
C57	C	1.568610	-0.055401	0.773243
C58	C	1.397284	-0.148989	0.773239
C59	C	1.397279	-0.148987	0.697011
C60	C	1.482949	-0.102196	0.658904
H61	H	2.220526	-0.105691	0.132043
H62	H	2.101719	-0.103938	0.251807
C63	C	1.707840	-0.098140	0.132066
N64	N	1.599319	-0.096544	0.132075
C65	C	1.731198	0.114483	0.000062
N66	N	1.826827	0.090877	0.000068
H67	H	1.638365	-0.017302	0.665985
C68	C	1.845374	-0.100173	0.270691
N69	N	1.791119	-0.099383	0.325393
C70	C	1.845384	-0.100171	-0.138605
N71	N	1.791119	-0.099379	-0.193296
H72	H	1.282923	0.094574	0.000025
H73	H	1.452362	-0.216812	0.430853
C74	C	1.303005	-0.200473	0.184876
N75	N	1.232080	-0.239275	0.153300
H76	H	2.101728	-0.103937	-0.119756
C77	C	1.727160	0.266640	0.000052
N78	N	1.821193	0.303062	0.000064
C79	C	1.669074	0.334141	-0.089070
N80	N	1.742518	0.309022	-0.124226
H81	H	1.640256	0.474262	-0.076956
C82	C	1.238650	0.528979	-0.000005
N83	N	1.144614	0.492561	-0.000010
C84	C	1.719352	0.561446	0.000019
N85	N	1.814980	0.537838	0.000021
H86	H	1.682884	0.701040	-0.000001
C87	C	1.234616	0.681138	-0.000017
N88	N	1.138995	0.704753	-0.000024
C89	C	1.662799	-0.003932	0.344955
N90	N	1.733799	0.034826	0.376534
C91	C	1.296737	0.461469	0.089119
N92	N	1.223277	0.486582	0.124268
C93	C	1.300777	0.309315	0.089138
N94	N	1.228925	0.274403	0.124302
H95	H	1.327525	-0.187086	0.665981
H96	H	1.279451	0.226032	0.000021
H97	H	1.638289	-0.017295	0.195774
H98	H	1.452412	-0.216814	0.569136
H99	H	1.513442	0.012428	0.430901
H100	H	1.513456	0.012424	0.569193
C101	C	1.662836	-0.003919	0.815163
N102	N	1.733802	0.034861	0.846738
C103	C	1.303071	-0.200463	0.815162
N104	N	1.232106	-0.239235	0.846742
C105	C	1.302992	-0.200446	0.344953
N106	N	1.232019	-0.239213	0.376534
