data_functionalizedCrystal
_audit_creation_method	'MofGen! by Chris Wilmer'
_symmetry_space_group_name_H-M	'P1'
_symmetry_Int_Tables_number	1
_symmetry_cell_setting	triclinic
loop_
_symmetry_equiv_pos_as_xyz
  x,y,z
_cell_length_a	18.050590
_cell_length_b	18.215407
_cell_length_c	18.215399
_cell_angle_alpha	90.020595
_cell_angle_beta	90.032491
_cell_angle_gamma	90.022413
loop_
_atom_site_label
_atom_site_type_symbol
_atom_site_fract_x
_atom_site_fract_y
_atom_site_fract_z
Zn1	Zn	0.295669	-1.125084	-0.416108
Zn2	Zn	0.795669	-0.625084	0.083892
Zn3	Zn	0.419864	-1.124998	-0.293032
Zn4	Zn	0.919864	-0.624998	0.206968
Zn5	Zn	0.295692	-1.002017	-0.293053
Zn6	Zn	0.795692	-0.502017	0.206947
Zn7	Zn	0.419821	-1.001988	-0.416055
Zn8	Zn	0.919821	-0.501988	0.083945
O9	O	0.357761	-1.063522	-0.354562
O10	O	0.857761	-0.563522	0.145438
O11	O	0.312151	-1.228057	-0.399794
O12	O	0.812151	-0.728057	0.100206
O13	O	0.403419	-1.108660	-0.190050
O14	O	0.903419	-0.608660	0.309950
O15	O	0.191764	-1.018390	-0.309408
O16	O	0.691764	-0.518390	0.190592
O17	O	0.403397	-1.227993	-0.309371
O18	O	0.903397	-0.727993	0.190629
O19	O	0.191747	-1.108807	-0.399815
O20	O	0.691747	-0.608807	0.100185
O21	O	0.312191	-1.018306	-0.190066
O22	O	0.812191	-0.518306	0.309934
O23	O	0.312150	-0.899029	-0.309357
O24	O	0.812150	-0.399029	0.190643
O25	O	0.403325	-1.018341	-0.519046
O26	O	0.903325	-0.518341	-0.019046
O27	O	0.403347	-0.899007	-0.399725
O28	O	0.903347	-0.399007	0.100275
O29	O	0.312110	-1.108779	-0.519085
O30	O	0.812110	-0.608779	-0.019085
O31	O	0.523783	-1.108632	-0.309320
O32	O	1.023783	-0.608632	0.190680
O33	O	0.523751	-1.018257	-0.399704
O34	O	1.023751	-0.518257	0.100296
C35	C	0.357747	-0.872315	-0.354538
C36	C	0.857747	-0.372315	0.145462
C37	C	0.357758	-0.790516	-0.354546
C38	C	0.857758	-0.290516	0.145454
C39	C	0.405318	-0.602331	-0.401539
C40	C	0.905318	-0.102331	0.098461
C41	C	0.405319	-0.525472	-0.401547
C42	C	0.905319	-0.025472	0.098453
C43	C	0.310209	-0.525465	-0.307588
C44	C	0.810209	-0.025465	0.192412
C45	C	0.310204	-0.602322	-0.307584
C46	C	0.810204	-0.102322	0.192416
C47	C	0.357763	-0.640753	-0.354558
C48	C	0.857763	-0.140753	0.145442
C49	C	0.357769	-0.487037	-0.354570
C50	C	0.857769	0.012963	0.145430
C51	C	0.357771	-0.403703	-0.354579
C52	C	0.857771	0.096297	0.145421
C53	C	0.357761	-0.724092	-0.354551
C54	C	0.857761	-0.224092	0.145449
C55	C	0.550713	-1.063452	-0.354520
C56	C	1.050713	-0.563452	0.145480
C57	C	0.633259	-1.063489	-0.354527
C58	C	1.133259	-0.563489	0.145473
C59	C	0.832700	-1.112724	-0.305431
C60	C	1.332700	-0.612724	0.194569
C61	C	0.882032	-1.130698	-0.372595
C62	C	1.382032	-0.630698	0.127405
C63	C	0.784390	-1.063521	-0.354546
C64	C	1.284390	-0.563521	0.145454
C65	C	0.882139	-1.045612	-0.287403
C66	C	1.382139	-0.545612	0.212597
C67	C	0.930375	-1.063553	-0.354559
C68	C	1.430375	-0.563553	0.145441
C69	C	0.832635	-1.081529	-0.421746
C70	C	1.332635	-0.581529	0.078254
C71	C	0.832737	-0.996412	-0.336508
C72	C	1.332737	-0.496412	0.163492
C73	C	0.882047	-1.014360	-0.403718
C74	C	1.382047	-0.514360	0.096282
C75	C	0.700291	-1.063504	-0.354538
C76	C	1.200291	-0.563504	0.145462
C77	C	1.014471	-1.063569	-0.354575
C78	C	1.514471	-0.563569	0.145425
C79	C	1.164056	-1.063595	-0.354604
C80	C	1.664056	-0.563595	0.145396
C81	C	1.081510	-1.063582	-0.354580
C82	C	1.581510	-0.563582	0.145420
C83	C	0.357710	-1.063566	-0.546515
C84	C	0.857710	-0.563566	-0.046515
C85	C	0.357688	-1.063586	-0.628314
C86	C	0.857688	-0.563586	-0.128314
C87	C	0.357774	-0.255474	-0.354583
C88	C	0.857774	0.244526	0.145417
C89	C	0.357774	-0.337273	-0.354583
C90	C	0.857774	0.162727	0.145417
C91	C	0.310149	-1.110694	-0.816529
C92	C	0.810149	-0.610694	-0.316529
C93	C	0.310127	-1.110703	-0.893388
C94	C	0.810127	-0.610703	-0.393388
C95	C	0.405113	-1.016529	-0.893336
C96	C	0.905113	-0.516529	-0.393336
C97	C	0.405130	-1.016517	-0.816479
C98	C	0.905130	-0.516517	-0.316479
C99	C	0.357649	-1.063604	-0.778077
C100	C	0.857649	-0.563604	-0.278077
C101	C	0.357610	-1.063625	-0.931794
C102	C	0.857610	-0.563625	-0.431794
C103	C	0.357587	-1.063634	-1.015127
C104	C	0.857587	-0.563634	-0.515127
C105	C	0.357671	-1.063594	-0.694738
C106	C	0.857671	-0.563594	-0.194738
C107	C	0.357759	-1.063519	-0.163356
C108	C	0.857759	-0.563519	0.336644
C109	C	0.357571	-1.063643	-0.081557
C110	C	0.857571	-0.563643	0.418443
H111	H	0.444041	-0.633619	-0.439791
H112	H	0.944041	-0.133619	0.060209
H113	H	0.811032	-1.154352	-0.263943
H114	H	1.311032	-0.654352	0.236057
Br115	Br	0.245709	-1.174595	-0.764415
Br116	Br	0.745709	-0.674595	-0.264415
Br117	Br	0.918105	-1.225313	-0.398058
Br118	Br	1.418105	-0.725313	0.101942
H119	H	0.811066	-0.939663	-0.321221
H120	H	1.311066	-0.439663	0.178779
Br121	Br	0.918385	-1.020344	-0.192756
Br122	Br	1.418385	-0.520344	0.307244
Br123	Br	0.469858	-0.473330	-0.465313
Br124	Br	0.969858	0.026670	0.034687
Br125	Br	0.469594	-0.952598	-0.764289
Br126	Br	0.969594	-0.452598	-0.264289
Br127	Br	0.245668	-0.473304	-0.243839
Br128	Br	0.745668	0.026696	0.256161
Br129	Br	0.245664	-1.174619	-0.945570
Br130	Br	0.745664	-0.674619	-0.445570
Br131	Br	0.796552	-1.106918	-0.516421
Br132	Br	1.296552	-0.606918	-0.016421
Br133	Br	0.245653	-0.654471	-0.243827
Br134	Br	0.745653	-0.154471	0.256173
Br135	Br	0.917937	-0.945030	-0.473031
Br136	Br	1.417937	-0.445030	0.026969
Br137	Br	0.469551	-0.952632	-0.945457
Br138	Br	0.969551	-0.452632	-0.445457
