data_functionalizedCrystal
_audit_creation_method	'MofGen! by Chris Wilmer'
_symmetry_space_group_name_H-M	'P1'
_symmetry_Int_Tables_number	1
_symmetry_cell_setting	triclinic
loop_
_symmetry_equiv_pos_as_xyz
  x,y,z
_cell_length_a	14.185569
_cell_length_b	10.654550
_cell_length_c	10.654550
_cell_angle_alpha	84.484931
_cell_angle_beta	76.715528
_cell_angle_gamma	103.287245
loop_
_atom_site_label
_atom_site_type_symbol
_atom_site_fract_x
_atom_site_fract_y
_atom_site_fract_z
O1	O	0.083344	-1.639625	-0.204601
O2	O	0.083363	-1.274140	-0.221413
O3	O	0.083347	-1.465288	-0.030265
O4	O	0.083360	-1.448477	-0.395748
O5	O	-0.083492	-1.521755	0.026195
O6	O	-0.083476	-1.330607	-0.164953
O7	O	-0.083495	-1.696092	-0.148140
Cu8	Cu	-0.098719	-1.518505	-0.151391
Cu9	Cu	0.098587	-1.451727	-0.218162
O10	O	-0.083479	-1.504944	-0.339288
C11	C	-0.000055	-1.255575	-0.191950
C12	C	-0.000048	-1.116129	-0.188260
C13	C	-0.000072	-1.492287	0.044763
C14	C	-0.000070	-1.488595	0.184205
N15	N	-0.237494	-1.565483	-0.104427
C16	C	-0.605119	-1.266739	-0.403042
C17	C	-0.710144	-1.302332	-0.367476
C18	C	-0.710119	-1.471628	-0.198278
C19	C	-0.605092	-1.436045	-0.233826
C20	C	-0.552601	-1.333600	-0.336209
C21	C	-0.552574	-1.502906	-0.166994
C22	C	-0.447556	-1.467330	-0.202543
C23	C	-0.395057	-1.364891	-0.304925
C24	C	-0.447583	-1.298023	-0.371759
C25	C	-0.605067	-1.605357	-0.064617
C26	C	-0.552549	-1.672218	0.002216
C27	C	-0.447529	-1.636636	-0.033328
C28	C	-0.395030	-1.534198	-0.135710
C29	C	-0.395003	-1.703504	0.033506
C30	C	-0.289986	-1.667927	-0.002044
C31	C	-0.290013	-1.498621	-0.171259
N32	N	0.237362	-1.404759	-0.265116
C33	C	-0.000075	-1.714656	-0.177604
C34	C	-0.000076	-1.854100	-0.181296
C35	C	-0.000046	-1.036643	-0.300802
C36	C	-0.000064	-0.905628	-0.297320
C37	C	-0.000080	-0.933597	-0.068745
C38	C	-0.000069	-1.064612	-0.072226
C39	C	-0.000058	-1.477944	-0.414317
C40	C	-0.000053	-1.481634	-0.553762
C41	C	-0.000076	-1.601138	0.263693
C42	C	-0.000063	-1.597657	0.394709
C43	C	-0.000045	-1.369081	0.366740
C44	C	-0.000050	-1.372561	0.235723
H45	H	-0.247272	-1.415191	-0.254621
C46	C	0.000022	-1.242967	0.422420
C47	C	0.000055	-1.145140	0.324751
C48	C	0.000128	-1.028940	0.375988
H49	H	-0.058141	-1.256360	0.492621
H50	H	0.058228	-1.217096	0.453210
H51	H	-0.058146	-1.171006	0.293980
H52	H	0.058213	-1.131707	0.254544
H53	H	0.058334	-1.003069	0.406778
H54	H	-0.058036	-1.042347	0.446188
H55	H	0.000159	-0.962548	0.309725
H56	H	-0.404843	-1.214594	-0.455121
H57	H	-0.000073	-1.129334	0.019426
H58	H	-0.000065	-1.689301	0.459423
H59	H	-0.309545	-1.335930	-0.333873
C60	C	-0.547937	-1.155494	-0.514115
C61	C	-0.444727	-1.138634	-0.530916
C62	C	-0.392019	-1.036162	-0.633206
H63	H	-0.565020	-1.175552	-0.592340
H64	H	-0.565100	-1.077350	-0.493866
H65	H	-0.427571	-1.216761	-0.551173
H66	H	-0.427613	-1.118556	-0.452719
H67	H	-0.409182	-0.958017	-0.612957
H68	H	-0.409111	-1.056229	-0.711422
H69	H	-0.321986	-1.024701	-0.644611
H70	H	-0.437756	-1.786924	0.116859
C71	C	-0.000008	-0.819521	-0.419666
C72	C	0.000038	-0.892677	-0.522030
C73	C	0.000102	-0.813395	-0.634764
H74	H	-0.058177	-0.787503	-0.403562
H75	H	0.058191	-0.748137	-0.442820
H76	H	-0.058155	-0.964037	-0.498879
H77	H	0.058204	-0.924694	-0.538175
H78	H	0.058301	-0.742011	-0.657918
H79	H	-0.058069	-0.781382	-0.618646
H80	H	0.000142	-0.863017	-0.704234
H81	H	-0.000042	-1.280908	0.171000
H82	H	-0.000104	-0.891637	0.025728
H83	H	-0.000090	-1.695619	0.221751
C84	C	-0.767117	-1.229505	-0.439901
C85	C	-0.741608	-1.097280	-0.426995
C86	C	-0.794084	-1.030159	-0.493675
H87	H	-0.749954	-1.237880	-0.529716
H88	H	-0.837189	-1.265284	-0.404052
H89	H	-0.671552	-1.061512	-0.462849
H90	H	-0.758774	-1.088865	-0.337196
H91	H	-0.864156	-1.065938	-0.457826
H92	H	-0.776917	-1.038545	-0.583486
H93	H	-0.776791	-0.940440	-0.484918
C94	C	-0.766991	-1.582732	-0.086954
C95	C	-0.741428	-1.552636	0.027992
C96	C	-0.793789	-1.654954	0.130573
H97	H	-0.837072	-1.594433	-0.075175
H98	H	-0.749752	-1.660857	-0.107115
H99	H	-0.758675	-1.474533	0.048150
H100	H	-0.671356	-1.540947	0.016256
H101	H	-0.776549	-1.733079	0.110413
H102	H	-0.863867	-1.666648	0.142341
H103	H	-0.776445	-1.634554	0.208573
H104	H	-0.595299	-1.755634	0.085575
C105	C	-0.232967	-1.740372	0.070674
C106	C	-0.258436	-1.727594	0.202935
C107	C	-0.205900	-1.794296	0.269928
H108	H	-0.250106	-1.830167	0.062216
H109	H	-0.162903	-1.704469	0.034869
H110	H	-0.328484	-1.763502	0.238730
H111	H	-0.241294	-1.637814	0.211432
H112	H	-0.135837	-1.758394	0.234122
H113	H	-0.223044	-1.884088	0.261459
H114	H	-0.223167	-1.785626	0.359671
H115	H	-0.000036	-1.078587	-0.395282
H116	H	-0.690579	-1.634323	-0.035680
