data_functionalizedCrystal
_audit_creation_method	'MofGen! by Chris Wilmer'
_symmetry_space_group_name_H-M	'P1'
_symmetry_Int_Tables_number	1
_symmetry_cell_setting	triclinic
loop_
_symmetry_equiv_pos_as_xyz
  x,y,z
_cell_length_a	15.297475
_cell_length_b	16.625545
_cell_length_c	15.296720
_cell_angle_alpha	99.644199
_cell_angle_beta	91.617114
_cell_angle_gamma	80.328138
loop_
_atom_site_label
_atom_site_type_symbol
_atom_site_fract_x
_atom_site_fract_y
_atom_site_fract_z
Zn1	Zn	1.253363	-0.627520	-0.726586
Zn2	Zn	1.278618	-0.743622	-0.580099
Zn3	Zn	1.132243	-0.582224	-0.554827
Zn4	Zn	1.106845	-0.735696	-0.701227
O5	O	1.192767	-0.672265	-0.640685
O6	O	1.379290	-0.665194	-0.728342
O7	O	1.280400	-0.706572	-0.454172
O8	O	1.148370	-0.475415	-0.577648
O9	O	1.397845	-0.750494	-0.620719
O10	O	1.237356	-0.508694	-0.703838
O11	O	1.172859	-0.587994	-0.435605
O12	O	1.006298	-0.580309	-0.553059
O13	O	1.105082	-0.736986	-0.827166
O14	O	0.987638	-0.693064	-0.660618
O15	O	1.212728	-0.657509	-0.845796
O16	O	1.255773	-0.855388	-0.596131
O17	O	1.129571	-0.849565	-0.685123
C18	C	0.965185	-0.630912	-0.601345
C19	C	0.867820	-0.613243	-0.584536
C20	C	0.554663	-0.798555	-0.760823
C21	C	0.646142	-0.815162	-0.776613
C22	C	0.701566	-0.764684	-0.728595
C23	C	0.665502	-0.697596	-0.664784
C24	C	0.574015	-0.680991	-0.648987
C25	C	0.720918	-0.647119	-0.616760
C26	C	0.684854	-0.580032	-0.552949
C27	C	0.593375	-0.563430	-0.537156
C28	C	0.537951	-0.613908	-0.585173
C29	C	0.812405	-0.663724	-0.632557
C30	C	0.831757	-0.546160	-0.520722
C31	C	0.740278	-0.529553	-0.504932
C32	C	1.192677	-0.881735	-0.640641
C33	C	1.192713	-0.971366	-0.640665
C34	C	1.192744	-1.044157	-0.640688
C35	C	1.192792	-1.135477	-0.640716
C36	C	1.192836	-1.208263	-0.640735
C37	C	1.192883	-1.299589	-0.640762
C38	C	1.421239	-0.713781	-0.680178
C39	C	1.518599	-0.731472	-0.697008
C40	C	1.153255	-0.701416	-0.869152
C41	C	1.136417	-0.713838	-0.966510
C42	C	1.192879	-0.461984	-0.640752
C43	C	1.192926	-0.372375	-0.640781
C44	C	1.313143	-0.583346	-1.279750
C45	C	1.328969	-0.571677	-1.188278
C46	C	1.280832	-0.607216	-1.132831
C47	C	1.216867	-0.654427	-1.168867
C48	C	1.201045	-0.666102	-1.260349
C49	C	1.168734	-0.689972	-1.113430
C50	C	1.104769	-0.737183	-1.149465
C51	C	1.088949	-0.748856	-1.240939
C52	C	1.137086	-0.713317	-1.296385
C53	C	1.184556	-0.678297	-1.021948
C54	C	1.072458	-0.761053	-1.002547
C55	C	1.056633	-0.772722	-1.094019
C56	C	1.232177	-0.643179	-0.413115
C57	C	1.249184	-0.630560	-0.315786
H58	H	0.876884	-0.505057	-0.481621
H59	H	0.675499	-0.869787	-0.828566
O60	O	1.296046	-0.595877	-1.043948
C61	C	1.217408	-0.556006	-0.998860
H62	H	1.157821	-0.567307	-1.042850
H63	H	1.218410	-0.486709	-0.982293
C64	C	1.283834	-0.576917	-0.858535
C65	C	1.210647	-0.590803	-0.912561
H66	H	1.279665	-0.598378	-0.805300
H67	H	1.336816	-0.603777	-0.888911
H68	H	1.284661	-0.519169	-0.844739
H69	H	1.209828	-0.648551	-0.926366
H70	H	1.157665	-0.563954	-0.882186
O71	O	1.391100	-0.525764	-1.153415
C72	C	1.430209	-0.496915	-1.221967
H73	H	1.383054	-0.495923	-1.280974
H74	H	1.495035	-0.539770	-1.243187
C75	C	1.506975	-0.410069	-1.116005
C76	C	1.449055	-0.408844	-1.188475
H77	H	1.518604	-0.355744	-1.095346
H78	H	1.480630	-0.429507	-1.069820
H79	H	1.560990	-0.445785	-1.133698
H80	H	1.395037	-0.373136	-1.170779
H81	H	1.475391	-0.389398	-1.234657
O82	O	0.558212	-0.498246	-0.475253
C83	C	0.496678	-0.442999	-0.516066
H84	H	0.471519	-0.477490	-0.580044
H85	H	0.530250	-0.390878	-0.531860
C86	C	0.448997	-0.364104	-0.374312
C87	C	0.418091	-0.406468	-0.452887
H88	H	0.400522	-0.341566	-0.335340
H89	H	0.490456	-0.401322	-0.346815
H90	H	0.476974	-0.320675	-0.387486
H91	H	0.390125	-0.449902	-0.439714
H92	H	0.376625	-0.369256	-0.480380
H93	H	1.352334	-0.554420	-1.324903
H94	H	1.124205	-0.722815	-1.370871
H95	H	0.710901	-0.474930	-0.452976
H96	H	1.236636	-0.639856	-0.992617
H97	H	0.509530	-0.839652	-0.799906
O98	O	0.790428	-0.780957	-0.743932
C99	C	0.824885	-0.860843	-0.726534
H100	H	0.769582	-0.899638	-0.732299
H101	H	0.853675	-0.856111	-0.656652
C102	C	0.966263	-0.854444	-0.787057
C103	C	0.898341	-0.902095	-0.794146
H104	H	1.011577	-0.879890	-0.828761
H105	H	0.943051	-0.800622	-0.798776
H106	H	0.990244	-0.850505	-0.728820
H107	H	0.874354	-0.906025	-0.852379
H108	H	0.921551	-0.955919	-0.782439
O109	O	1.026880	-0.794831	-1.275851
C110	C	1.049862	-0.875811	-1.256791
H111	H	1.095024	-0.875119	-1.196194
H112	H	1.085976	-0.917722	-1.316050
C113	C	0.909708	-0.909438	-1.312202
C114	C	0.965171	-0.908587	-1.237772
H115	H	0.857467	-0.929659	-1.300474
H116	H	0.894226	-0.854882	-1.325047
H117	H	0.939813	-0.944364	-1.361577
H118	H	0.935069	-0.873655	-1.188401
H119	H	0.980646	-0.963139	-1.224918
O120	O	0.994564	-0.818694	-1.128941
C121	C	1.017539	-0.899678	-1.109892
H122	H	1.062694	-0.898996	-1.049292
H123	H	1.053656	-0.941584	-1.169152
C124	C	0.877387	-0.933294	-1.165324
C125	C	0.932842	-0.932455	-1.090889
H126	H	0.825143	-0.953514	-1.153606
H127	H	0.861909	-0.878734	-1.178161
H128	H	0.907495	-0.968214	-1.214701
H129	H	0.902738	-0.897527	-1.041517
H130	H	0.948313	-0.987009	-1.078043
H131	H	0.841759	-0.718347	-0.684513
H132	H	0.463460	-0.600389	-0.572322
H133	H	1.033263	-0.789994	-0.957402
