data_functionalizedCrystal
_audit_creation_method	'MofGen! by Chris Wilmer'
_symmetry_space_group_name_H-M	'P1'
_symmetry_Int_Tables_number	1
_symmetry_cell_setting	triclinic
loop_
_symmetry_equiv_pos_as_xyz
  x,y,z
_cell_length_a	10.686285
_cell_length_b	12.759401
_cell_length_c	12.759393
_cell_angle_alpha	89.980324
_cell_angle_beta	85.602987
_cell_angle_gamma	85.632238
loop_
_atom_site_label
_atom_site_type_symbol
_atom_site_fract_x
_atom_site_fract_y
_atom_site_fract_z
Zn1	Zn	-0.502274	1.638403	-0.561967
Zn2	Zn	-0.713314	1.651797	-0.372834
Zn3	Zn	-0.502337	1.462706	-0.386302
Zn4	Zn	-0.713221	1.476190	-0.548481
O5	O	-0.607787	1.557274	-0.467396
O6	O	-0.530281	1.787201	-0.536886
O7	O	-0.685392	1.626675	-0.227596
O8	O	-0.325753	1.474763	-0.420885
O9	O	-0.685331	1.797042	-0.397931
O10	O	-0.325706	1.603847	-0.549945
O11	O	-0.530389	1.487751	-0.237490
O12	O	-0.530299	1.317473	-0.407808
O13	O	-0.685174	1.497746	-0.697296
O14	O	-0.685235	1.327380	-0.526960
O15	O	-0.530192	1.616923	-0.707203
O16	O	-0.889878	1.639751	-0.384854
O17	O	-0.889810	1.510734	-0.513901
C18	C	-0.607765	1.284305	-0.467383
C19	C	-0.607786	1.167530	-0.467400
C20	C	-0.527198	1.107554	-0.539848
C21	C	-0.527210	0.997831	-0.539854
C22	C	-0.688411	1.008070	-0.394961
C23	C	-0.688391	1.117790	-0.394950
C24	C	-0.378478	0.838395	-0.587104
C25	C	-0.297901	0.778416	-0.659568
C26	C	-0.278669	0.812844	-0.763332
C27	C	-0.340033	0.907251	-0.794652
C28	C	-0.420620	0.967224	-0.722193
C29	C	-0.439828	0.932796	-0.618416
C30	C	-0.837125	1.277228	-0.347712
C31	C	-0.917719	1.337204	-0.275257
C32	C	-0.936964	1.302779	-0.171490
C33	C	-0.875622	1.208371	-0.140172
C34	C	-0.795028	1.148395	-0.212627
C35	C	-0.775781	1.182827	-0.316393
C36	C	-0.935628	1.578187	-0.446476
C37	C	-1.075880	1.587230	-0.437561
C38	C	-0.278665	1.536307	-0.488421
C39	C	-0.138413	1.527373	-0.497381
C40	C	-0.607666	1.557345	-0.741437
C41	C	-0.607614	1.557375	-0.858217
C42	C	-0.607809	1.831309	-0.467410
C43	C	-0.607819	1.948086	-0.467416
C44	C	-0.526902	1.619434	-0.918241
C45	C	-0.526848	1.619449	-1.027969
C46	C	-0.688228	1.495342	-1.017639
C47	C	-0.688275	1.495322	-0.907914
C48	C	-0.377973	1.647536	-1.187436
C49	C	-0.297272	1.709612	-1.247462
C50	C	-0.277925	1.810887	-1.213102
C51	C	-0.339298	1.850107	-1.118716
C52	C	-0.420008	1.788037	-1.058694
C53	C	-0.439331	1.686746	-1.093055
C54	C	-0.837151	1.467247	-0.748444
C55	C	-0.917869	1.405181	-0.688420
C56	C	-0.937229	1.303905	-0.722778
C57	C	-0.875878	1.264690	-0.817166
C58	C	-0.795161	1.326756	-0.877190
C59	C	-0.775799	1.428030	-0.842825
C60	C	-0.607816	1.557258	-0.194427
C61	C	-0.607512	1.557408	-0.077670
H62	H	-0.213060	0.764001	-0.822333
H63	H	-1.129647	1.645391	-0.379515
H64	H	-0.967835	1.437124	-0.611570
C65	C	-0.815857	1.578652	-0.710647
H66	H	-0.863971	1.593123	-0.645845
H67	H	-0.729119	1.583091	-0.701128
H68	H	-0.841373	1.628477	-0.761649
C69	C	-0.438163	1.687675	-0.863579
H70	H	-0.390077	1.724627	-0.915047
H71	H	-0.486445	1.736521	-0.817695
H72	H	-0.383196	1.643963	-0.824288
C73	C	-0.487506	1.831164	-0.954876
H74	H	-0.464424	1.900372	-0.943004
H75	H	-0.575991	1.832553	-0.959033
H76	H	-0.463717	1.787178	-0.898530
C77	C	-0.399246	1.536128	-1.225227
H78	H	-0.456089	1.504769	-1.175958
H79	H	-0.433515	1.540125	-1.291769
H80	H	-0.321251	1.494749	-1.231254
C81	C	-0.399619	0.800525	-0.472960
H82	H	-0.351546	0.735707	-0.464694
H83	H	-0.374003	0.851484	-0.426436
H84	H	-0.486358	0.790999	-0.457336
H85	H	-1.084654	1.469208	-0.555417
H86	H	-0.754038	0.967558	-0.335976
H87	H	-0.247938	0.701550	-0.634057
C88	C	-0.318019	1.961515	-1.080926
H89	H	-0.261153	1.992861	-1.130186
H90	H	-0.396001	2.002898	-1.074897
H91	H	-0.283745	1.957510	-1.014381
C92	C	-0.727544	1.044550	-0.178177
H93	H	-0.750538	1.032637	-0.105997
H94	H	-0.751396	0.988234	-0.219090
H95	H	-0.639053	1.048726	-0.188175
H96	H	-0.212216	1.861430	-1.261984
H97	H	-0.891298	1.180337	-0.055678
C98	C	-0.776959	1.427100	-1.072308
H99	H	-0.765382	1.436007	-1.146252
H100	H	-0.758497	1.355329	-1.055498
H101	H	-0.861753	1.447882	-1.048908
H102	H	-1.002626	1.351605	-0.112507
H103	H	-0.967650	1.414086	-0.300760
H104	H	-0.247303	1.677669	-1.324312
H105	H	-0.745207	1.294818	-0.954047
C106	C	-0.897168	1.153287	-0.854964
H107	H	-0.954017	1.121936	-0.805694
H108	H	-0.931439	1.157289	-0.921505
H109	H	-0.819181	1.111898	-0.860992
C110	C	-1.026022	1.235636	-0.656753
H111	H	-1.059792	1.273492	-0.595618
H112	H	-1.092645	1.218343	-0.697209
H113	H	-0.980391	1.172959	-0.636687
C114	C	-0.815950	1.315096	-0.461858
H115	H	-0.759155	1.265863	-0.500520
H116	H	-0.893976	1.321149	-0.493194
H117	H	-0.781633	1.381639	-0.462277
H118	H	-0.461560	1.148048	-0.598838
H119	H	-0.324378	0.935268	-0.879152
C120	C	-0.488108	1.071066	-0.756632
H121	H	-0.465112	1.082985	-0.828810
H122	H	-0.576593	1.066907	-0.746616
H123	H	-0.464225	1.127380	-0.715722
