data_functionalizedCrystal
_audit_creation_method	'MofGen! by Chris Wilmer'
_symmetry_space_group_name_H-M	'P1'
_symmetry_Int_Tables_number	1
_symmetry_cell_setting	triclinic
loop_
_symmetry_equiv_pos_as_xyz
  x,y,z
_cell_length_a	10.489746
_cell_length_b	15.995350
_cell_length_c	14.472310
_cell_angle_alpha	89.998838
_cell_angle_beta	89.989862
_cell_angle_gamma	95.983162
loop_
_atom_site_label
_atom_site_type_symbol
_atom_site_fract_x
_atom_site_fract_y
_atom_site_fract_z
O1	O	1.692413	-0.118146	-0.076774
O2	O	1.321063	-0.129230	-0.076789
O3	O	1.516889	-0.001862	-0.076780
O4	O	1.496587	-0.245514	-0.076783
O5	O	1.516839	-0.001869	0.076902
O6	O	1.321013	-0.129237	0.076893
O7	O	1.692363	-0.118153	0.076908
Cu8	Cu	1.506683	-0.123696	0.090933
Cu9	Cu	1.506743	-0.123687	-0.090814
O10	O	1.496537	-0.245521	0.076899
C11	C	1.273518	-0.128395	0.000050
C12	C	1.131924	-0.125888	0.000044
C13	C	0.980221	-0.043363	0.000058
C14	C	1.057013	-0.084626	0.075828
C15	C	1.057018	-0.084638	-0.075690
C16	C	0.956428	-0.162725	0.075900
C17	C	0.956428	-0.162726	-0.075687
C18	C	1.033170	-0.204046	0.000102
C19	C	1.516025	0.029335	0.000059
C20	C	1.513509	0.122300	0.000054
C21	C	1.739908	-0.118988	0.000067
C22	C	1.881502	-0.121495	0.000067
C23	C	1.497401	-0.276718	0.000058
C24	C	1.499918	-0.369683	0.000057
N25	N	1.506651	-0.123701	0.218764
C26	C	1.504472	0.460102	0.000057
C27	C	1.365008	0.413511	-0.000294
C28	C	1.367525	0.316805	0.000053
C29	C	1.508954	0.292515	0.000055
C30	C	1.577714	0.333172	0.087816
C31	C	1.574211	0.429829	0.087889
C32	C	1.577149	0.430178	-0.086876
C33	C	1.577116	0.333233	-0.088036
C34	C	1.511495	0.197802	0.000057
C35	C	1.501935	0.554815	0.000061
N36	N	1.506786	-0.123675	-0.218645
C37	C	1.506741	-0.123684	0.592855
C38	C	1.401607	-0.191603	0.553685
C39	C	1.401850	-0.191855	0.446597
C40	C	1.506695	-0.123693	0.407264
C41	C	1.639780	-0.143578	0.446106
C42	C	1.639189	-0.144062	0.553228
C43	C	1.479978	-0.035683	0.553384
C44	C	1.476925	-0.036250	0.446257
C45	C	1.506678	-0.123696	0.302376
C46	C	1.506768	-0.123683	0.697743
H47	H	1.313473	0.288713	-0.062858
H48	H	1.676601	0.461459	0.091872
C49	C	1.289996	0.440428	0.084238
H50	H	1.205840	0.411994	0.083490
H51	H	1.332549	0.426514	0.139202
H52	H	1.285303	0.499391	0.082158
H53	H	1.679975	0.461318	-0.087464
C54	C	0.897320	-0.207261	0.162534
H55	H	0.807099	-0.205377	0.162029
H56	H	0.915758	-0.264157	0.162743
H57	H	0.932624	-0.179709	0.216282
H58	H	1.385039	-0.016761	0.580448
C59	C	1.116350	-0.040063	-0.162232
H60	H	1.098607	0.016980	-0.162130
H61	H	1.206463	-0.042415	-0.161918
H62	H	1.080558	-0.067246	-0.216039
C63	C	1.748042	-0.079833	0.588235
H64	H	1.792435	-0.053566	0.536986
H65	H	1.712971	-0.038476	0.624716
H66	H	1.805891	-0.107842	0.624587
H67	H	0.912488	-0.195677	-0.139750
H68	H	1.309287	0.432382	-0.063229
H69	H	1.548526	0.016723	0.419486
H70	H	1.313069	0.289267	0.063066
C71	C	1.424374	-0.279305	0.590027
H72	H	1.497675	-0.274710	0.628966
H73	H	1.351563	-0.302179	0.624129
H74	H	1.437957	-0.315131	0.539401
H75	H	1.719883	-0.095459	0.420627
C76	C	1.116360	-0.040074	0.162361
H77	H	1.098645	0.016974	0.162272
H78	H	1.080581	-0.067265	0.216173
H79	H	1.206478	-0.042432	0.162009
C80	C	1.064965	-0.295889	0.000155
H81	H	1.030188	-0.323514	0.054031
H82	H	1.028999	-0.323828	-0.053159
H83	H	1.155339	-0.296981	-0.000352
H84	H	0.956451	0.024575	0.000135
C85	C	1.267528	-0.175692	0.588503
H86	H	1.205455	-0.217348	0.564076
H87	H	1.265800	-0.178218	0.654076
H88	H	1.248598	-0.121688	0.568821
H89	H	1.524028	0.448431	0.153490
H90	H	1.681617	0.318419	0.091081
H91	H	1.529916	0.305077	0.153123
C92	C	1.515579	0.458294	-0.176736
H93	H	1.444964	0.488548	-0.162073
H94	H	1.577128	0.493398	-0.211003
H95	H	1.486625	0.410272	-0.212561
C96	C	1.509304	0.296766	-0.175746
H97	H	1.439747	0.256888	-0.158763
H98	H	1.477986	0.340857	-0.210207
H99	H	1.568347	0.270036	-0.212374
H100	H	1.663928	-0.207055	0.419270
H101	H	1.556647	0.014870	0.578714
C102	C	1.344673	-0.015885	0.411968
H103	H	1.307747	-0.060478	0.374042
H104	H	1.290417	-0.009389	0.463467
H105	H	1.354270	0.034771	0.377221
C106	C	1.716449	0.311647	-0.095194
H107	H	1.734962	0.277371	-0.044322
H108	H	1.727271	0.282239	-0.151206
H109	H	1.773084	0.362021	-0.094447
H110	H	1.418941	-0.257142	0.420963
C111	C	1.268208	-0.175705	0.411116
H112	H	1.213278	-0.168935	0.462172
H113	H	1.275206	-0.126135	0.374523
H114	H	1.233677	-0.222100	0.374779
H115	H	1.662774	-0.208266	0.578204
