data_functionalizedCrystal
_audit_creation_method	'MofGen! by Chris Wilmer'
_symmetry_space_group_name_H-M	'P1'
_symmetry_Int_Tables_number	1
_symmetry_cell_setting	triclinic
loop_
_symmetry_equiv_pos_as_xyz
  x,y,z
_cell_length_a	19.851628
_cell_length_b	23.196402
_cell_length_c	23.196401
_cell_angle_alpha	60.007332
_cell_angle_beta	90.013441
_cell_angle_gamma	60.008379
loop_
_atom_site_label
_atom_site_type_symbol
_atom_site_fract_x
_atom_site_fract_y
_atom_site_fract_z
Zr1	Zr	0.648954	0.631043	-0.075662
O2	O	0.541388	0.751295	-0.167704
O3	O	0.681919	0.510784	-0.047449
O4	O	0.681900	0.631047	-0.167715
O5	O	0.541434	0.631030	0.047434
O6	O	0.792748	0.631059	-0.167720
O7	O	0.541408	0.631031	-0.047438
O8	O	0.792783	0.415930	0.047414
O9	O	0.541400	0.846159	-0.167700
O10	O	0.778715	0.560259	-0.035417
O11	O	0.696010	0.560250	0.035389
O12	O	0.695987	0.701844	-0.106209
O13	O	0.613281	0.701835	-0.035404
Zr14	Zr	0.825787	0.631058	0.075639
Zr15	Zr	0.825745	0.631061	-0.075670
Zr16	Zr	0.648996	0.631040	0.075647
Zr17	Zr	0.648972	0.782340	-0.075656
Zr18	Zr	0.825770	0.479761	0.075633
O19	O	0.792823	0.751316	0.047426
O20	O	0.792763	0.751320	-0.167716
O21	O	0.541449	0.751291	0.047438
O22	O	0.933353	0.510806	0.167681
O23	O	0.933293	0.510810	-0.047461
O24	O	0.681979	0.510781	0.167693
O25	O	0.933307	0.631071	-0.047457
O26	O	0.792842	0.631053	0.167692
O27	O	0.681993	0.631042	0.167697
O28	O	0.933334	0.631069	0.047415
O29	O	0.681925	0.846173	-0.167707
O30	O	0.792817	0.415928	0.167684
O31	O	0.933342	0.415942	0.167677
O32	O	0.933308	0.415944	0.047407
O33	O	0.541433	0.846157	-0.047430
O34	O	0.681959	0.846171	-0.047437
O35	O	0.778755	0.560257	0.106186
O36	O	0.861460	0.560266	0.035381
O37	O	0.778732	0.701851	-0.035412
O38	O	0.696026	0.701842	0.035394
C39	C	0.737348	0.441801	-0.000019
C40	C	0.737341	0.377571	-0.000021
C41	C	0.798424	0.295148	0.052237
C42	C	0.798429	0.234787	0.052243
C43	C	0.737358	0.256855	-0.000019
C44	C	0.676265	0.339292	-0.052281
C45	C	0.676256	0.399650	-0.052282
C46	C	0.718326	0.201267	-0.063810
C47	C	0.718340	0.140908	-0.063809
C48	C	0.737381	0.070693	-0.000016
C49	C	0.756424	0.060836	0.063781
C50	C	0.756415	0.121193	0.063780
C51	C	0.737361	0.191413	-0.000023
C52	C	0.798473	-0.077183	0.052253
C53	C	0.798473	-0.137543	0.052260
C54	C	0.676312	-0.033035	-0.052270
C55	C	0.676308	0.027322	-0.052271
C56	C	0.737393	0.005243	-0.000010
C57	C	0.516232	0.631028	-0.000001
C58	C	0.441180	0.631021	0.000003
C59	C	0.304921	0.553841	0.038593
C60	C	0.237484	0.592429	0.066576
C61	C	0.303748	0.631042	-0.000006
C62	C	0.237450	0.592449	-0.027966
C63	C	0.170999	0.631056	-0.000015
C64	C	0.237301	0.669630	0.028016
C65	C	0.237276	0.669639	-0.066563
C66	C	0.169828	0.708283	-0.038596
C67	C	0.380223	0.631031	0.000000
C68	C	0.094523	0.631073	-0.000020
C69	C	0.958509	0.631073	-0.000022
C70	C	1.033562	0.631080	-0.000026
C71	C	0.737318	0.631053	-0.189276
C72	C	0.737300	0.631054	-0.253510
C73	C	0.737393	0.820300	-0.000004
C74	C	0.737401	0.884530	-0.000002
C75	C	0.694121	0.704958	-0.320636
C76	C	0.694142	0.704959	-0.380992
C77	C	0.737331	0.631052	-0.374217
C78	C	0.780519	0.557139	-0.307079
C79	C	0.780504	0.557140	-0.246726
C80	C	0.731190	0.574426	-0.441536
C81	C	0.731199	0.574428	-0.501889
C82	C	0.737383	0.631046	-0.560364
C83	C	0.743540	0.687676	-0.558485
C84	C	0.743525	0.687677	-0.498132
C85	C	0.737353	0.631043	-0.439656
C86	C	0.694224	0.704956	-0.692937
C87	C	0.694251	0.704954	-0.753292
C88	C	0.780623	0.557132	-0.679377
C89	C	0.780602	0.557136	-0.619024
C90	C	0.737398	0.631050	-0.625809
C91	C	0.737424	0.631048	0.189253
C92	C	0.737442	0.631047	0.253487
C93	C	0.958487	0.441823	-0.000029
C94	C	1.033532	0.377601	-0.000035
C95	C	0.737401	0.441798	0.189246
C96	C	0.737412	0.377567	0.253478
C97	C	0.958540	0.441820	0.189235
C98	C	1.033603	0.377597	0.253464
C99	C	0.516202	0.820281	-0.189258
C100	C	0.441139	0.884504	-0.253487
C101	C	0.516255	0.820278	0.000006
C102	C	0.441210	0.884500	0.000012
C103	C	0.737340	0.820303	-0.189269
C104	C	0.737330	0.884534	-0.253501
C105	C	1.025582	0.347438	-0.037000
C106	C	1.096088	0.287102	-0.037020
C107	C	1.174543	0.256927	-0.000070
C108	C	1.182491	0.287097	0.036896
C109	C	1.111986	0.347435	0.036911
C110	C	0.780609	0.347407	0.320604
C111	C	0.780615	0.287064	0.380963
C112	C	0.737429	0.256878	0.374194
C113	C	0.694227	0.287043	0.307061
C114	C	0.694216	0.347390	0.246704
C115	C	1.112032	0.347442	0.246667
C116	C	1.182568	0.287106	0.307011
C117	C	1.174673	0.256922	0.374151
C118	C	1.096236	0.287083	0.380947
C119	C	1.025702	0.347422	0.320604
C120	C	0.362710	0.914666	-0.246690
C121	C	0.292174	0.975021	-0.307033
C122	C	0.300068	1.005208	-0.374174
C123	C	0.378506	0.975044	-0.380970
C124	C	0.449040	0.914694	-0.320627
C125	C	0.449160	0.914670	0.036971
C126	C	0.378654	0.975021	0.036974
C127	C	0.300199	1.005199	0.000022
C128	C	0.292250	0.975027	-0.036941
C129	C	0.362755	0.914680	-0.036948
C130	C	0.780524	0.914701	-0.246710
C131	C	0.780531	0.975045	-0.307057
C132	C	0.737337	1.005224	-0.374195
C133	C	0.694142	0.975051	-0.380985
C134	C	0.694141	0.914704	-0.320638
H135	H	0.771922	0.003667	0.115727
C136	C	0.535308	0.881512	-0.328112
H137	H	0.529899	0.908131	-0.376742
H138	H	0.564637	0.891395	-0.306108
H139	H	0.564603	0.824537	-0.306117
C140	C	0.646750	0.786250	-0.827134
H141	H	0.652953	0.775665	-0.862108
H142	H	0.589936	0.816608	-0.832438
H143	H	0.668069	0.816627	-0.832416
H144	H	0.815799	0.262511	0.435620
C145	C	0.387183	1.008244	-0.454824
H146	H	0.443994	0.981643	-0.450238
H147	H	0.361449	0.998351	-0.479896
H148	H	0.361468	1.065222	-0.479901
C149	C	0.222476	1.071580	-0.440545
H150	H	0.174638	1.085208	-0.426875
H151	H	0.222454	1.118675	-0.467856
H152	H	0.222458	1.051791	-0.467844
C153	C	0.646711	0.786254	-0.700391
H154	H	0.652876	0.775671	-0.654833
H155	H	0.668038	0.816626	-0.725452
H156	H	0.589899	0.816616	-0.725481
H157	H	0.961706	0.372005	-0.067097
H158	H	0.658975	0.999632	-0.435657
C159	C	0.646641	0.786254	-0.454840
H160	H	0.652843	0.775665	-0.489811
H161	H	0.589827	0.816615	-0.460146
H162	H	0.667964	0.816629	-0.460125
H163	H	0.112085	0.773614	-0.071234
H164	H	0.356266	0.890091	-0.192026
H165	H	0.737345	1.054362	-0.423327
H166	H	0.626540	0.357257	-0.094833
C167	C	0.238226	0.713673	-0.142576
H168	H	0.238942	0.686158	-0.162377
H169	H	0.190324	0.768234	-0.170199
H170	H	0.286018	0.713773	-0.142044
H171	H	1.118471	0.371986	0.067016
H172	H	0.748540	0.733786	-0.496605
H173	H	0.961844	0.371966	0.326148
H174	H	1.089600	0.262546	-0.067121
H175	H	0.659043	0.371938	0.192049
H176	H	0.228314	0.999571	-0.301486
H177	H	0.848208	-0.095162	0.094810
H178	H	0.815685	0.496964	-0.301566
H179	H	0.737445	0.207740	0.423347
C180	C	1.087558	0.253877	0.454801
H181	H	1.030747	0.280479	0.450215
H182	H	1.113283	0.196901	0.479876
H183	H	1.113283	0.263779	0.479875
H184	H	0.626511	0.466767	-0.094836
C185	C	0.777344	0.110364	0.133947
H186	H	0.774614	0.156366	0.124806
H187	H	0.738893	0.105505	0.156778
H188	H	0.831446	0.062542	0.163541
H189	H	1.232114	0.207790	0.423280
H190	H	1.231946	0.207796	-0.000087
H191	H	0.815704	0.999605	-0.301514
H192	H	0.815667	0.496957	-0.192067
C193	C	0.646610	0.881537	-0.328114
H194	H	0.652791	0.841273	-0.282562
H195	H	0.589802	0.924871	-0.353192
H196	H	0.667924	0.857994	-0.353194
H197	H	0.242796	1.054337	0.000033
C198	C	0.865607	0.270860	0.109727
H199	H	0.901983	0.213123	0.140855
H200	H	0.895762	0.292241	0.088258
H201	H	0.840519	0.292223	0.135548
H202	H	0.815776	0.371979	0.326129
C203	C	0.865669	-0.228211	0.109745
H204	H	0.902049	-0.232711	0.140863
H205	H	0.840600	-0.253941	0.135568
H206	H	0.895827	-0.253916	0.088265
C207	C	0.646730	0.253832	0.299621
H208	H	0.620994	0.280436	0.250999
H209	H	0.684010	0.196858	0.321633
H210	H	0.605872	0.263725	0.321633
H211	H	0.848171	0.167666	0.094800
H212	H	0.513036	0.890104	0.067066
C213	C	0.236541	0.548357	-0.059910
H214	H	0.283953	0.493511	-0.032425
H215	H	0.188256	0.549109	-0.060083
H216	H	0.236874	0.575242	-0.106926
C217	C	1.268792	0.253888	0.077551
H218	H	1.263438	0.280491	0.099571
H219	H	1.298084	0.196914	0.112511
H220	H	1.298094	0.263782	0.045649
C221	C	0.609132	-0.008754	-0.109755
H222	H	0.617886	-0.056505	-0.102272
H223	H	0.556417	0.022601	-0.107583
H224	H	0.611655	0.022613	-0.154877
C225	C	1.120732	0.380636	0.172820
H226	H	1.177548	0.354035	0.177425
H227	H	1.095016	0.370741	0.147738
H228	H	1.095015	0.437614	0.147745
H229	H	0.815760	0.496956	-0.564366
H230	H	0.626572	0.094437	-0.094829
C231	C	0.387412	1.008192	0.077642
H232	H	0.444236	0.981562	0.099657
H233	H	0.361709	1.065165	0.045753
H234	H	0.361706	0.998294	0.112619
H235	H	1.246429	0.262555	0.301465
H236	H	0.228363	0.999606	-0.067026
H237	H	0.236824	0.559800	0.122860
H238	H	0.356271	0.890118	-0.067042
H239	H	0.815697	0.890139	-0.192048
C240	C	0.750361	0.749948	-0.622795
H241	H	0.749503	0.741830	-0.659005
H242	H	0.705214	0.803606	-0.639746
H243	H	0.800589	0.742809	-0.609310
H244	H	0.702813	0.258441	-0.115762
C245	C	0.697393	0.151755	-0.133982
H246	H	0.686037	0.202222	-0.171976
H247	H	0.742875	0.108398	-0.133263
H248	H	0.650328	0.151353	-0.140004
H249	H	0.237910	0.702235	0.051724
C250	C	0.383063	0.465668	0.082745
H251	H	0.383643	0.438365	0.130032
H252	H	0.383206	0.437965	0.063356
H253	H	0.430554	0.466283	0.082098
C254	C	0.828136	0.475833	-0.671914
H255	H	0.853854	0.431818	-0.623289
H256	H	0.790875	0.472752	-0.693935
H257	H	0.869011	0.472768	-0.693907
C258	C	0.724461	0.512117	-0.503942
H259	H	0.720802	0.478380	-0.460465
H260	H	0.676533	0.540121	-0.541509
H261	H	0.771915	0.479386	-0.511100
H262	H	0.658944	0.765145	-0.326167
H263	H	0.726149	0.528321	-0.393927
