data_functionalizedCrystal
_audit_creation_method	'MofGen! by Chris Wilmer'
_symmetry_space_group_name_H-M	'P1'
_symmetry_Int_Tables_number	1
_symmetry_cell_setting	triclinic
loop_
_symmetry_equiv_pos_as_xyz
  x,y,z
_cell_length_a	10.489694
_cell_length_b	9.565339
_cell_length_c	9.065215
_cell_angle_alpha	90.006586
_cell_angle_beta	95.232677
_cell_angle_gamma	89.998168
loop_
_atom_site_label
_atom_site_type_symbol
_atom_site_fract_x
_atom_site_fract_y
_atom_site_fract_z
O1	O	-1.694834	0.116221	0.207844
O2	O	-1.323701	0.116232	0.227456
O3	O	-1.516941	0.116220	0.002968
O4	O	-1.501594	0.116233	0.432331
O5	O	-1.516930	-0.116300	0.002949
O6	O	-1.323691	-0.116289	0.227436
O7	O	-1.694824	-0.116299	0.207824
Zn8	Zn	-1.509256	-0.153211	0.217627
Zn9	Zn	-1.509269	0.153144	0.217653
O10	O	-1.501584	-0.116288	0.432311
C11	C	-1.276158	-0.000027	0.225979
C12	C	-1.134510	-0.000023	0.221592
C13	C	-1.037331	-0.000015	0.359252
C14	C	-0.959717	-0.114667	0.286512
C15	C	-0.959734	0.114580	0.286499
C16	C	-1.058762	-0.114770	0.148909
C17	C	-1.058784	0.114580	0.148916
C18	C	-0.981219	-0.000100	0.076074
N19	N	-1.509256	-0.362291	0.217608
C20	C	-1.597917	-0.546632	0.112973
C21	C	-1.625231	-0.453390	0.246157
C22	C	-1.481999	-0.453463	0.084435
C23	C	-1.536651	-0.546587	0.350912
C24	C	-1.393368	-0.546668	0.189102
C25	C	-1.420634	-0.453468	0.322382
C26	C	-0.742364	-0.000033	0.209324
C27	C	-0.884005	-0.000017	0.213781
C28	C	-1.515462	-0.000038	-0.052021
C29	C	-1.511054	-0.000034	-0.215842
N30	N	-1.509279	0.362223	0.217660
C31	C	-1.503063	-0.000026	0.487300
C32	C	-1.507471	-0.000021	0.651121
H33	H	-1.102075	0.211510	0.090856
H34	H	-1.723244	-0.412418	0.270301
H35	H	-1.672937	-0.587536	0.024565
O36	O	-0.902423	0.242969	0.363503
H37	H	-0.924502	0.242721	0.480940
O38	O	-1.263588	-0.601009	0.157056
H39	H	-1.199161	-0.511554	0.139984
O40	O	-1.567377	-0.600527	0.500154
H41	H	-1.486508	-0.665191	0.549334
O42	O	-1.070614	-0.000150	0.517839
H43	H	-1.030766	-0.095466	0.574645
O44	O	-0.902379	-0.243055	0.363462
H45	H	-0.924431	-0.242817	0.480909
O46	O	-1.115836	-0.243311	0.071985
H47	H	-1.221278	-0.242333	0.075946
O48	O	-1.451425	-0.399282	-0.064770
H49	H	-1.525145	-0.436614	-0.151443
H50	H	-0.956357	-0.000169	-0.043747
H51	H	-1.345663	-0.412821	0.410987
