data_functionalizedCrystal
_audit_creation_method	'MofGen! by Chris Wilmer'
_symmetry_space_group_name_H-M	'P1'
_symmetry_Int_Tables_number	1
_symmetry_cell_setting	triclinic
loop_
_symmetry_equiv_pos_as_xyz
  x,y,z
_cell_length_a	10.967926
_cell_length_b	14.853559
_cell_length_c	10.065875
_cell_angle_alpha	98.803502
_cell_angle_beta	93.120479
_cell_angle_gamma	84.182888
loop_
_atom_site_label
_atom_site_type_symbol
_atom_site_fract_x
_atom_site_fract_y
_atom_site_fract_z
O1	O	1.613145	0.157222	0.265917
O2	O	1.263105	0.159797	0.183587
O3	O	1.447480	0.027585	0.226954
O4	O	1.428770	0.289433	0.222551
O5	O	1.412322	0.052902	0.445673
O6	O	1.227947	0.185113	0.402307
O7	O	1.577987	0.182539	0.484637
Zn8	Zn	1.397385	0.187846	0.478198
Zn9	Zn	1.443707	0.154490	0.190026
O10	O	1.393612	0.314750	0.441270
C11	C	1.200729	0.170355	0.282411
C12	C	1.067249	0.164086	0.251016
C13	C	0.989526	0.174406	0.350322
C14	C	0.851567	0.167927	0.317876
C15	C	1.429056	0.006627	0.336112
C16	C	1.426522	-0.093541	0.335509
C17	C	1.434932	-0.530868	0.213755
C18	C	1.396601	-0.503261	0.452211
C19	C	1.398993	-0.409150	0.452775
C20	C	1.419352	-0.375893	0.333827
C21	C	1.437320	-0.436748	0.214314
C22	C	1.381013	-0.348287	0.572282
C23	C	1.383403	-0.254169	0.572851
C24	C	1.403771	-0.220912	0.453903
C25	C	1.421741	-0.281773	0.334386
C26	C	1.442101	-0.248516	0.215437
C27	C	1.460080	-0.309377	0.095921
C28	C	1.457689	-0.403490	0.095366
C29	C	1.406162	-0.126798	0.454457
C30	C	1.444490	-0.154396	0.215997
C31	C	1.640363	0.171980	0.385810
C32	C	1.773845	0.178248	0.417197
C33	C	1.412037	0.335708	0.332109
C34	C	1.414572	0.435875	0.332704
N35	N	1.365781	0.210610	0.674870
N36	N	1.475321	0.131719	-0.006644
C37	C	1.432703	0.162404	0.758390
C38	C	1.408389	0.179931	0.909838
H39	H	0.809432	0.191878	0.526245
H40	H	0.815979	0.154292	0.208829
F41	F	1.476826	-0.468267	-0.031818
F42	F	1.309959	0.250837	0.962912
F43	F	1.466168	-0.119011	0.089394
H44	H	1.476648	-0.282286	-0.000929
H45	H	1.025121	0.188032	0.459362
H46	H	1.550617	0.077465	0.952746
H47	H	1.507995	0.108154	0.717775
H48	H	1.031655	0.150451	0.141976
H49	H	1.290480	0.264854	0.715485
H50	H	1.449574	-0.580425	0.116449
H51	H	1.380017	-0.530345	0.549052
F52	F	1.359323	-0.383685	0.698861
H53	H	1.368768	-0.204624	0.670169
F54	F	1.387026	-0.062031	0.581645
