data_functionalizedCrystal
_audit_creation_method	'MofGen! by Chris Wilmer'
_symmetry_space_group_name_H-M	'P1'
_symmetry_Int_Tables_number	1
_symmetry_cell_setting	triclinic
loop_
_symmetry_equiv_pos_as_xyz
  x,y,z
_cell_length_a	14.044220
_cell_length_b	16.109301
_cell_length_c	14.586319
_cell_angle_alpha	90.005214
_cell_angle_beta	89.998609
_cell_angle_gamma	88.325179
loop_
_atom_site_label
_atom_site_type_symbol
_atom_site_fract_x
_atom_site_fract_y
_atom_site_fract_z
O1	O	-1.257643	-0.200436	-0.076149
O2	O	-0.981677	-0.193203	-0.076172
O3	O	-1.127241	-0.076352	-0.076150
O4	O	-1.112079	-0.317286	-0.076170
O5	O	-1.127231	-0.076350	0.076331
O6	O	-0.981666	-0.193200	0.076309
O7	O	-1.257633	-0.200433	0.076332
Cu8	Cu	-1.119649	-0.196816	0.090243
Cu9	Cu	-1.119661	-0.196820	-0.090083
O10	O	-1.112069	-0.317284	0.076311
C11	C	-0.946358	-0.190036	0.000066
C12	C	-0.841135	-0.180592	0.000058
C13	C	-1.126622	-0.045330	0.000091
C14	C	-1.124781	0.047102	0.000092
C15	C	-1.292952	-0.203600	0.000093
C16	C	-1.398175	-0.213044	0.000095
C17	C	-0.648479	-0.163326	0.000077
C18	C	-0.590825	-0.230306	0.000075
C19	C	-0.483625	-0.220699	0.000086
C20	C	-0.755690	-0.172932	0.000066
C21	C	-1.112688	-0.348306	0.000068
C22	C	-1.114529	-0.440738	0.000061
N23	N	-1.119647	-0.196814	0.217075
C24	C	-1.206874	0.263266	0.000084
C25	C	-1.205137	0.350116	0.000076
C26	C	-1.032429	0.343091	0.000066
C27	C	-1.034168	0.256243	0.000067
C28	C	-1.121393	0.216333	0.000081
C29	C	-1.117917	0.390031	0.000072
C30	C	-1.116032	0.484197	0.000064
C31	C	-1.123278	0.122161	0.000087
N32	N	-1.119670	-0.196816	-0.216915
C33	C	-1.184125	-0.145093	0.452091
C34	C	-1.184128	-0.145092	0.548072
C35	C	-1.055186	-0.248539	0.548063
C36	C	-1.055179	-0.248536	0.452083
C37	C	-1.119654	-0.196814	0.404100
C38	C	-1.119663	-0.196816	0.596061
C39	C	-1.119666	-0.196814	0.700128
C40	C	-1.119651	-0.196815	0.300026
H41	H	-0.621976	-0.294863	0.000066
O42	O	-1.288110	0.395797	0.000203
C43	C	-1.292280	0.446240	0.079182
H44	H	-1.217045	0.456206	0.105505
H45	H	-1.335562	0.414511	0.134486
C46	C	-1.432405	0.518501	0.022858
C47	C	-1.339999	0.530747	0.055184
H48	H	-1.461844	0.570628	0.008058
H49	H	-1.429598	0.484515	-0.030350
H50	H	-1.468461	0.492058	0.068950
H51	H	-1.303942	0.557180	0.009088
H52	H	-1.342801	0.564740	0.108384
H53	H	-1.236623	-0.102977	0.413025
O54	O	-0.951063	0.210736	-0.000058
C55	C	-0.898119	0.229798	-0.079044
H56	H	-0.921408	0.293854	-0.105370
H57	H	-0.911074	0.181403	-0.134342
C58	C	-0.762722	0.150794	-0.022729
C59	C	-0.791321	0.229471	-0.055059
H60	H	-0.696844	0.150589	-0.007936
H61	H	-0.798392	0.137948	0.030484
H62	H	-0.773526	0.110473	-0.068817
H63	H	-0.780528	0.269789	-0.008967
H64	H	-0.755646	0.242324	-0.108264
O65	O	-1.291578	0.224460	0.000250
C66	C	-1.297747	0.174424	0.079209
H67	H	-1.248222	0.198606	0.134407
H68	H	-1.275868	0.107658	0.061355
C69	C	-1.461770	0.147593	0.047222
C70	C	-1.400948	0.177298	0.115019
H71	H	-1.525429	0.149362	0.069309
H72	H	-1.457613	0.181300	-0.005977
H73	H	-1.443525	0.091957	0.032350
H74	H	-1.419185	0.232936	0.129882
H75	H	-1.405110	0.143600	0.168221
O76	O	-0.947786	0.381994	0.000102
C77	C	-0.964579	0.468713	0.000081
H78	H	-1.038554	0.483595	0.028952
H79	H	-0.959992	0.493188	-0.073071
C80	C	-0.798333	0.491996	0.024419
C81	C	-0.889187	0.510275	0.059885
H82	H	-0.751826	0.517635	0.061305
H83	H	-0.787018	0.433572	0.024429
H84	H	-0.794524	0.512393	-0.036540
H85	H	-0.892998	0.489870	0.120839
H86	H	-0.900501	0.568697	0.059887
H87	H	-1.236624	-0.102975	0.587144
H88	H	-1.002693	-0.290650	0.587140
O89	O	-0.992514	-0.298859	0.405601
C90	C	-0.935597	-0.344500	0.468531
H91	H	-0.974459	-0.348347	0.536947
H92	H	-0.865198	-0.312249	0.478746
C93	C	-0.868298	-0.428003	0.347024
C94	C	-0.916032	-0.432734	0.431052
H95	H	-0.856225	-0.482428	0.323904
H96	H	-0.906641	-0.397252	0.304626
H97	H	-0.809638	-0.401123	0.355548
H98	H	-0.974696	-0.459604	0.422525
H99	H	-0.877699	-0.463492	0.473448
O100	O	-0.611278	-0.086331	-0.000082
C101	C	-0.554720	-0.076816	-0.079038
H102	H	-0.578172	-0.121964	-0.134234
H103	H	-0.476773	-0.090325	-0.061178
C104	C	-0.537747	0.068266	-0.047058
C105	C	-0.566557	0.012820	-0.114853
H106	H	-0.545045	0.123558	-0.069149
H107	H	-0.575849	0.061856	0.006139
H108	H	-0.472794	0.056998	-0.032181
H109	H	-0.631513	0.024081	-0.129721
H110	H	-0.528467	0.019234	-0.168053
