data_functionalizedCrystal
_audit_creation_method	'MofGen! by Chris Wilmer'
_symmetry_space_group_name_H-M	'P1'
_symmetry_Int_Tables_number	1
_symmetry_cell_setting	triclinic
loop_
_symmetry_equiv_pos_as_xyz
  x,y,z
_cell_length_a	19.377372
_cell_length_b	21.606444
_cell_length_c	21.606444
_cell_angle_alpha	60.001331
_cell_angle_beta	90.001711
_cell_angle_gamma	72.112173
loop_
_atom_site_label
_atom_site_type_symbol
_atom_site_fract_x
_atom_site_fract_y
_atom_site_fract_z
Zr1	Zr	0.580545	0.861715	-0.173331
O2	O	0.484312	0.960293	-0.256882
O3	O	0.610046	0.741959	-0.147721
O4	O	0.610038	0.871080	-0.276838
O5	O	0.484325	0.831169	-0.025911
O6	O	0.709212	0.902558	-0.292577
O7	O	0.484320	0.831172	-0.127765
O8	O	0.709226	0.671583	-0.061610
O9	O	0.484311	1.062144	-0.256878
O10	O	0.696639	0.822551	-0.148540
O11	O	0.622631	0.799057	-0.060783
O12	O	0.622621	0.951081	-0.212802
O13	O	0.548613	0.927588	-0.125044
Zr14	Zr	0.738723	0.911913	-0.035987
Zr15	Zr	0.738715	0.911918	-0.198432
Zr16	Zr	0.580553	0.861710	-0.010886
Zr17	Zr	0.580543	1.024154	-0.173325
Zr18	Zr	0.738725	0.749473	-0.035993
O19	O	0.709222	1.031669	-0.061597
O20	O	0.709211	1.031675	-0.292572
O21	O	0.484324	0.960287	-0.025907
O22	O	0.834956	0.813334	0.047563
O23	O	0.834944	0.813341	-0.183411
O24	O	0.610057	0.741952	0.083254
O25	O	0.834943	0.942459	-0.183407
O26	O	0.709230	0.902548	0.067520
O27	O	0.610056	0.871070	0.083258
O28	O	0.834948	0.942456	-0.081554
O29	O	0.610036	1.102048	-0.276830
O30	O	0.709232	0.671579	0.067512
O31	O	0.834957	0.711484	0.047560
O32	O	0.834950	0.711488	-0.081562
O33	O	0.484318	1.062140	-0.127757
O34	O	0.610042	1.102045	-0.147709
O35	O	0.696647	0.822547	0.003484
O36	O	0.770655	0.846040	-0.084274
O37	O	0.696637	0.974570	-0.148535
O38	O	0.622629	0.951077	-0.060778
C39	C	0.659636	0.683627	-0.104666
C40	C	0.659637	0.614667	-0.104668
C41	C	0.698267	0.594532	-0.150478
C42	C	0.698269	0.529733	-0.150473
C43	C	0.659637	0.485072	-0.104662
C44	C	0.621006	0.505209	-0.058848
C45	C	0.621008	0.570005	-0.058849
C46	C	0.620997	0.243897	-0.058840
C47	C	0.620996	0.179100	-0.058844
C48	C	0.698259	0.203626	-0.150464
C49	C	0.698261	0.268421	-0.150465
C50	C	0.659633	0.288550	-0.104649
C51	C	0.659632	0.358812	-0.104653
C52	C	0.659634	0.414815	-0.104661
C53	C	0.461787	0.824018	-0.073262
C54	C	0.394639	0.802705	-0.062606
C55	C	-0.019378	1.068061	-0.195279
C56	C	-0.082463	1.048017	-0.185257
C57	C	-0.005185	0.913841	-0.118173
C58	C	0.057908	0.933874	-0.128187
C59	C	0.050805	1.010985	-0.166741
C60	C	0.128091	0.876798	-0.099649
C61	C	0.191178	0.896829	-0.109665
C62	C	0.184083	0.973937	-0.148220
C63	C	0.113892	1.031017	-0.176758
C64	C	0.135193	0.799687	-0.061099
C65	C	0.205376	0.742611	-0.032561
C66	C	0.268465	0.762642	-0.042572
C67	C	0.261369	0.839750	-0.081127
C68	C	0.338655	0.705562	-0.014034
C69	C	0.401742	0.725594	-0.024051
C70	C	0.324456	0.859781	-0.091144
C71	C	0.857481	0.949610	-0.136057
C72	C	0.924629	0.970923	-0.146713
C73	C	0.659624	0.886819	-0.307852
C74	C	0.659621	0.886821	-0.376814
C75	C	0.659632	1.090001	-0.104652
C76	C	0.659631	1.158961	-0.104650
C77	C	0.620984	0.953912	-0.442756
C78	C	0.620990	0.953912	-0.507552
C79	C	0.659629	0.886818	-0.506404
C80	C	0.698271	0.819723	-0.440454
C81	C	0.698268	0.819725	-0.375661
C82	C	0.698283	0.819711	-0.701759
C83	C	0.698280	0.819713	-0.766560
C84	C	0.621004	0.953898	-0.833651
C85	C	0.621002	0.953900	-0.768857
C86	C	0.659646	0.886806	-0.702914
C87	C	0.659640	0.886808	-0.632656
C88	C	0.659632	0.886815	-0.576660
C89	C	0.659644	0.886808	0.098534
C90	C	0.659647	0.886806	0.167496
C91	C	0.857483	0.746423	-0.136064
C92	C	0.924632	0.698775	-0.146722
C93	C	0.659646	0.683621	0.098527
C94	C	0.659650	0.614659	0.167486
C95	C	0.857493	0.746417	0.067129
C96	C	0.924645	0.698768	0.125433
C97	C	0.461775	1.027211	-0.276448
C98	C	0.394623	1.074860	-0.334751
C99	C	0.461785	1.027205	-0.073255
C100	C	0.394636	1.074852	-0.062596
C101	C	0.659622	1.090007	-0.307845
C102	C	0.659618	1.158969	-0.376805
C103	C	0.917530	0.664138	-0.185281
C104	C	0.980616	0.619376	-0.195309
C105	C	1.050805	0.609246	-0.166775
C106	C	1.057905	0.643889	-0.128215
C107	C	0.994819	0.688655	-0.118191
C108	C	0.698288	0.594535	0.233424
C109	C	0.698289	0.529746	0.298225
C110	C	0.659656	0.485080	0.297087
C111	C	0.621014	0.505209	0.231143
C112	C	0.621009	0.569999	0.166344
C113	C	0.994818	0.688657	0.107003
C114	C	1.057921	0.643896	0.161778
C115	C	1.050848	0.609243	0.234983
C116	C	0.980667	0.619358	0.253412
C117	C	0.917566	0.664123	0.198637
C118	C	0.324450	1.084979	-0.316322
C119	C	0.261347	1.129760	-0.371097
C120	C	0.268420	1.164416	-0.444301
C121	C	0.338601	1.154297	-0.462730
C122	C	0.401702	1.109521	-0.407956
C123	C	0.401738	1.109496	-0.024044
C124	C	0.338652	1.154277	-0.014033
C125	C	0.268463	1.164408	-0.042570
C126	C	0.261363	1.129763	-0.081127
C127	C	0.324449	1.084987	-0.091142
C128	C	0.698258	1.203617	-0.375643
C129	C	0.698268	1.268410	-0.440434
C130	C	0.659634	1.288556	-0.506385
C131	C	0.620993	1.243901	-0.507545
C132	C	0.620987	1.179106	-0.442755
H133	H	0.318671	0.922573	-0.122516
H134	H	0.659645	1.341318	-0.559135
H135	H	0.589548	0.586375	0.112657
O136	O	0.739934	0.508025	-0.199888
H137	H	0.782646	0.450106	-0.166610
H138	H	1.000591	0.716866	0.047400
H139	H	0.860430	0.672346	0.213654
O140	O	1.002490	0.725999	-0.076588
H141	H	0.946835	0.758834	-0.074408
H142	H	0.204207	1.138019	-0.104360
O143	O	0.579344	1.265642	-0.578692
H144	H	0.601681	1.218345	-0.588837
O145	O	0.252122	0.995552	-0.159031
H146	H	0.285440	0.971879	-0.105237
H147	H	0.729747	0.630897	0.234365
O148	O	0.841832	0.675067	-0.216074
H149	H	0.811235	0.652914	-0.171168
H150	H	1.115059	0.635666	0.146760
O151	O	0.316805	1.047604	-0.237370
H152	H	0.372467	1.014759	-0.202368
H153	H	0.204209	1.137989	-0.356077
O154	O	0.972948	0.582016	-0.236899
H155	H	0.999853	0.519076	-0.201120
O156	O	0.579298	1.130958	-0.444009
H157	H	0.552430	1.155864	-0.500755
O158	O	1.118909	0.560952	0.294059
H159	H	1.168891	0.559739	0.268938
O160	O	0.579338	1.026270	-0.904782
H161	H	0.536644	1.016513	-0.929434
H162	H	0.217034	1.200873	-0.488895
H163	H	0.729722	0.630894	-0.187785
O164	O	0.973048	0.581965	0.332371
H165	H	0.999955	0.602927	0.359526
O166	O	0.739927	0.316592	-0.199875
H167	H	0.766796	0.291700	-0.231725
H168	H	0.318656	1.056779	-0.122532
O169	O	0.739982	0.747353	-0.765327
H170	H	0.766867	0.700703	-0.708590
H171	H	0.344351	1.182520	-0.522339
O172	O	1.118845	0.560963	-0.177591
H173	H	1.152170	0.512493	-0.123799
H174	H	1.115061	0.635635	-0.104985
O175	O	0.739940	1.181889	-0.304516
H176	H	0.766816	1.223822	-0.314607
H177	H	0.729758	0.513367	0.351913
H178	H	0.589547	0.260276	-0.021531
H179	H	0.458838	1.101283	-0.422970
O180	O	0.579329	0.457049	-0.009444
H181	H	0.601658	0.434608	0.047997
H182	H	0.211148	0.679827	-0.001171
O183	O	0.477438	1.098587	0.006725
H184	H	0.471765	1.130215	0.035202
O185	O	0.659678	0.415188	0.366978
H186	H	0.693048	0.408697	0.413015
O187	O	0.739923	0.181912	-0.199881
H188	H	0.799303	0.171247	-0.186387
O189	O	0.579311	0.130938	-0.009446
H190	H	0.552449	0.155821	0.022413
O191	O	0.346318	1.191630	0.027564
H192	H	0.405724	1.177045	0.045736
H193	H	0.729750	0.765079	-0.648074
O194	O	0.579371	0.457013	0.229915
H195	H	0.585886	0.408572	0.286053
H196	H	0.589550	0.586398	-0.021548
H197	H	0.108107	1.093808	-0.208131
H198	H	0.729736	0.765096	-0.439524
H199	H	0.217101	1.200869	-0.034410
H200	H	0.729730	0.765093	-0.321968
O201	O	0.739945	1.316570	-0.439176
H202	H	0.766795	1.291678	-0.382428
H203	H	-0.025163	1.130853	-0.226652
H204	H	-0.139611	1.094501	-0.208500
H205	H	0.000588	0.851058	-0.086783
H206	H	0.083820	0.783380	-0.052950
H207	H	0.344427	0.642779	0.017350
H208	H	0.458889	0.679117	-0.000800
H209	H	0.589514	1.008546	-0.443700
O210	O	0.579315	1.026272	-0.578678
H211	H	0.552439	1.072924	-0.568589
H212	H	0.589535	1.008534	-0.769799
