data_functionalizedCrystal
_audit_creation_method	'MofGen! by Chris Wilmer'
_symmetry_space_group_name_H-M	'P1'
_symmetry_Int_Tables_number	1
_symmetry_cell_setting	triclinic
loop_
_symmetry_equiv_pos_as_xyz
  x,y,z
_cell_length_a	19.121063
_cell_length_b	19.121102
_cell_length_c	19.120904
_cell_angle_alpha	90.088173
_cell_angle_beta	85.258387
_cell_angle_gamma	89.873098
loop_
_atom_site_label
_atom_site_type_symbol
_atom_site_fract_x
_atom_site_fract_y
_atom_site_fract_z
Zn1	Zn	-0.343506	-1.039579	0.456040
Zn2	Zn	-0.093506	-0.789579	0.706040
Zn3	Zn	0.156494	-0.539579	0.956040
Zn4	Zn	0.406494	-0.289579	1.206040
Zn5	Zn	-0.456149	-1.039493	0.343386
Zn6	Zn	-0.206149	-0.789493	0.593386
Zn7	Zn	0.043851	-0.539493	0.843386
Zn8	Zn	0.293851	-0.289493	1.093386
Zn9	Zn	-0.333518	-0.927792	0.333417
Zn10	Zn	-0.083518	-0.677792	0.583417
Zn11	Zn	0.166482	-0.427792	0.833417
Zn12	Zn	0.416482	-0.177792	1.083417
Zn13	Zn	-0.455677	-0.917325	0.455570
Zn14	Zn	-0.205677	-0.667325	0.705570
Zn15	Zn	0.044323	-0.417325	0.955570
Zn16	Zn	0.294323	-0.167325	1.205570
O17	O	-0.397212	-0.981047	0.397103
O18	O	-0.147212	-0.731047	0.647103
O19	O	0.102788	-0.481047	0.897103
O20	O	0.352788	-0.231047	1.147103
O21	O	-0.362826	-1.137479	0.445465
O22	O	-0.112826	-0.887479	0.695465
O23	O	0.137174	-0.637479	0.945465
O24	O	0.387174	-0.387479	1.195465
O25	O	-0.435899	-1.029020	0.243797
O26	O	-0.185899	-0.779020	0.493797
O27	O	0.064101	-0.529020	0.743797
O28	O	0.314101	-0.279020	0.993797
O29	O	-0.236577	-0.947038	0.345708
O30	O	0.013423	-0.697038	0.595708
O31	O	0.263423	-0.447038	0.845708
O32	O	0.513423	-0.197038	1.095708
O33	O	-0.445584	-1.137415	0.362699
O34	O	-0.195584	-0.887415	0.612699
O35	O	0.054416	-0.637415	0.862699
O36	O	0.304416	-0.387415	1.112699
O37	O	-0.243915	-1.029167	0.435798
O38	O	0.006085	-0.779167	0.685798
O39	O	0.256085	-0.529167	0.935798
O40	O	0.506085	-0.279167	1.185798
O41	O	-0.345802	-0.946954	0.236473
O42	O	-0.095802	-0.696954	0.486473
O43	O	0.154198	-0.446954	0.736473
O44	O	0.404198	-0.196954	0.986473
O45	O	-0.345345	-0.828493	0.345252
O46	O	-0.095345	-0.578493	0.595252
O47	O	0.154655	-0.328493	0.845252
O48	O	0.404655	-0.078493	1.095252
O49	O	-0.444780	-0.929198	0.553899
O50	O	-0.194780	-0.679198	0.803899
O51	O	0.055220	-0.429198	1.053899
O52	O	0.305220	-0.179198	1.303899
O53	O	-0.435094	-0.820803	0.434997
O54	O	-0.185094	-0.570803	0.684997
O55	O	0.064906	-0.320803	0.934997
O56	O	0.314906	-0.070803	1.184997
O57	O	-0.362368	-1.019018	0.554244
O58	O	-0.112368	-0.769018	0.804244
O59	O	0.137632	-0.519018	1.054244
O60	O	0.387632	-0.269018	1.304244
O61	O	-0.554352	-1.018870	0.362243
O62	O	-0.304352	-0.768870	0.612243
O63	O	-0.054352	-0.518870	0.862243
O64	O	0.195648	-0.268870	1.112243
O65	O	-0.554005	-0.929114	0.444664
O66	O	-0.304005	-0.679114	0.694664
O67	O	-0.054005	-0.429114	0.944664
O68	O	0.195995	-0.179114	1.194664
C69	C	-0.389085	-0.799261	0.388992
C70	C	-0.139085	-0.549261	0.638992
C71	C	0.110915	-0.299261	0.888992
C72	C	0.360915	-0.049261	1.138992
C73	C	-0.385626	-0.721490	0.385539
C74	C	-0.135626	-0.471490	0.635539
C75	C	0.114374	-0.221490	0.885539
C76	C	0.364374	0.028510	1.135539
C77	C	-0.579659	-0.972865	0.404501
C78	C	-0.329659	-0.722865	0.654501
C79	C	-0.079659	-0.472865	0.904501
C80	C	0.170341	-0.222865	1.154501
C81	C	-0.657714	-0.969428	0.407691
C82	C	-0.407714	-0.719428	0.657691
C83	C	-0.157714	-0.469428	0.907691
C84	C	0.092286	-0.219428	1.157691
C85	C	-0.404635	-0.972950	0.580263
C86	C	-0.154635	-0.722950	0.830263
C87	C	0.095365	-0.472950	1.080263
C88	C	0.345365	-0.222950	1.330263
C89	C	-0.407799	-0.969500	0.658315
C90	C	-0.157799	-0.719500	0.908315
C91	C	0.092201	-0.469500	1.158315
C92	C	0.342201	-0.219500	1.408315
C93	C	-0.694545	-1.014577	0.366317
C94	C	-0.444545	-0.764577	0.616317
C95	C	-0.194545	-0.514577	0.866317
C96	C	0.055455	-0.264577	1.116317
C97	C	-0.767887	-1.011348	0.369323
C98	C	-0.517887	-0.761348	0.619323
C99	C	-0.267887	-0.511348	0.869323
C100	C	-0.017887	-0.261348	1.119323
C101	C	-0.804396	-0.962966	0.413699
C102	C	-0.554396	-0.712966	0.663699
C103	C	-0.304396	-0.462966	0.913699
C104	C	-0.054396	-0.212966	1.163699
C105	C	-0.767560	-0.917815	0.455078
C106	C	-0.517560	-0.667815	0.705078
C107	C	-0.267560	-0.417815	0.955078
C108	C	-0.017560	-0.167815	1.205078
C109	C	-0.694220	-0.921048	0.452076
C110	C	-0.444220	-0.671048	0.702076
C111	C	-0.194220	-0.421048	0.952076
C112	C	0.055780	-0.171048	1.202076
C113	C	-1.025828	-0.950869	0.424912
C114	C	-0.775828	-0.700869	0.674912
C115	C	-0.525828	-0.450869	0.924912
C116	C	-0.275828	-0.200869	1.174912
C117	C	-1.099173	-0.947638	0.427909
C118	C	-0.849173	-0.697638	0.677909
C119	C	-0.599173	-0.447638	0.927909
C120	C	-0.349173	-0.197638	1.177909
C121	C	-1.099494	-1.041173	0.342155
C122	C	-0.849494	-0.791173	0.592155
C123	C	-0.599494	-0.541173	0.842155
C124	C	-0.349494	-0.291173	1.092155
C125	C	-1.026153	-1.044399	0.339154
C126	C	-0.776153	-0.794399	0.589154
C127	C	-0.526153	-0.544399	0.839154
C128	C	-0.276153	-0.294399	1.089154
C129	C	-0.989323	-0.999250	0.380535
C130	C	-0.739323	-0.749250	0.630535
C131	C	-0.489323	-0.499250	0.880535
C132	C	-0.239323	-0.249250	1.130535
C133	C	-0.879363	-0.959663	0.416770
C134	C	-0.629363	-0.709663	0.666770
C135	C	-0.379363	-0.459663	0.916770
C136	C	-0.129363	-0.209663	1.166770
C137	C	-0.914358	-1.002557	0.377467
C138	C	-0.664358	-0.752557	0.627467
C139	C	-0.414358	-0.502557	0.877467
C140	C	-0.164358	-0.252557	1.127467
C141	C	-0.214054	-0.989280	0.389693
C142	C	0.035946	-0.739280	0.639693
C143	C	0.285946	-0.489280	0.889693
C144	C	0.535946	-0.239280	1.139693
C145	C	-0.136003	-0.992788	0.386535
C146	C	0.113997	-0.742788	0.636535
C147	C	0.363997	-0.492788	0.886535
C148	C	0.613997	-0.242788	1.136535
C149	C	-0.405372	-1.163544	0.405246
C150	C	-0.155372	-0.913544	0.655246
C151	C	0.094628	-0.663544	0.905246
C152	C	0.344628	-0.413544	1.155246
C153	C	-0.408849	-1.241313	0.408717
C154	C	-0.158849	-0.991313	0.658717
C155	C	0.091151	-0.741313	0.908717
C156	C	0.341151	-0.491313	1.158717
C157	C	-0.430793	-0.680968	0.430575
C158	C	-0.180793	-0.430968	0.680575
C159	C	0.069207	-0.180968	0.930575
C160	C	0.319207	0.069032	1.180575
C161	C	-0.427534	-0.607894	0.427334
C162	C	-0.177534	-0.357894	0.677334
C163	C	0.072466	-0.107894	0.927334
C164	C	0.322466	0.142106	1.177334
C165	C	-0.379110	-0.575344	0.379053
C166	C	-0.129110	-0.325344	0.629053
C167	C	0.120890	-0.075344	0.879053
C168	C	0.370890	0.174656	1.129053
C169	C	-0.333937	-0.615872	0.334016
C170	C	-0.083937	-0.365872	0.584016
C171	C	0.166063	-0.115872	0.834016
C172	C	0.416063	0.134128	1.084016
C173	C	-0.337194	-0.688944	0.337261
C174	C	-0.087194	-0.438944	0.587261
C175	C	0.162806	-0.188944	0.837261
C176	C	0.412806	0.061056	1.087261
C177	C	-0.366933	-0.354913	0.366924
C178	C	-0.116933	-0.104913	0.616924
C179	C	0.133067	0.145087	0.866924
C180	C	0.383067	0.395087	1.116924
C181	C	-0.363681	-0.281835	0.363681
C182	C	-0.113681	-0.031835	0.613681
C183	C	0.136319	0.218165	0.863681
C184	C	0.386319	0.468165	1.113681
C185	C	-0.457277	-0.273863	0.457000
C186	C	-0.207277	-0.023863	0.707000
C187	C	0.042723	0.226137	0.957000
C188	C	0.292723	0.476137	1.207000
C189	C	-0.460532	-0.346937	0.460238
C190	C	-0.210532	-0.096937	0.710238
C191	C	0.039468	0.153063	0.960238
C192	C	0.289468	0.403063	1.210238
C193	C	-0.415357	-0.387458	0.415203
C194	C	-0.165357	-0.137458	0.665203
C195	C	0.084643	0.112542	0.915203
C196	C	0.334643	0.362542	1.165203
C197	C	-0.375778	-0.500651	0.375738
C198	C	-0.125778	-0.250651	0.625738
C199	C	0.124222	-0.000651	0.875738
C200	C	0.374222	0.249349	1.125738
C201	C	-0.418686	-0.462149	0.418523
C202	C	-0.168686	-0.212149	0.668523
C203	C	0.081314	0.037851	0.918523
C204	C	0.331314	0.287851	1.168523
C205	C	-0.389769	-0.989156	0.214655
C206	C	-0.139769	-0.739156	0.464655
C207	C	0.110231	-0.489156	0.714655
C208	C	0.360231	-0.239156	0.964655
C209	C	-0.386414	-0.992751	0.136602
C210	C	-0.136414	-0.742751	0.386602
C211	C	0.113586	-0.492751	0.636602
C212	C	0.363586	-0.242751	0.886602
C213	C	-0.366379	-1.014640	0.695165
C214	C	-0.116379	-0.764640	0.945165
C215	C	0.133621	-0.514640	1.195165
C216	C	0.383621	-0.264640	1.445165
C217	C	-0.369348	-1.011390	0.768503
C218	C	-0.119348	-0.761390	1.018503
C219	C	0.130652	-0.511390	1.268503
C220	C	0.380652	-0.261390	1.518503
C221	C	-0.413741	-0.963001	0.804990
C222	C	-0.163741	-0.713001	1.054990
C223	C	0.086259	-0.463001	1.304990
C224	C	0.336259	-0.213001	1.554990
C225	C	-0.455162	-0.917856	0.768135
C226	C	-0.205162	-0.667856	1.018135
C227	C	0.044838	-0.417856	1.268135
C228	C	0.294838	-0.167856	1.518135
C229	C	-0.452188	-0.921103	0.694798
C230	C	-0.202188	-0.671103	0.944798
C231	C	0.047812	-0.421103	1.194798
C232	C	0.297812	-0.171103	1.444798
C233	C	-0.424862	-0.950853	1.026410
C234	C	-0.174862	-0.700853	1.276410
C235	C	0.075138	-0.450853	1.526410
C236	C	0.325138	-0.200853	1.776410
C237	C	-0.427833	-0.947610	1.099752
C238	C	-0.177833	-0.697610	1.349752
C239	C	0.072167	-0.447610	1.599752
C240	C	0.322167	-0.197610	1.849752
C241	C	-0.342019	-1.041143	1.100115
C242	C	-0.092019	-0.791143	1.350115
C243	C	0.157981	-0.541143	1.600115
C244	C	0.407981	-0.291143	1.850115
C245	C	-0.339052	-1.044390	1.026777
C246	C	-0.089052	-0.794390	1.276777
C247	C	0.160948	-0.544390	1.526777
C248	C	0.410948	-0.294390	1.776777
C249	C	-0.380470	-0.999242	0.989928
C250	C	-0.130470	-0.749242	1.239928
C251	C	0.119530	-0.499242	1.489928
C252	C	0.369530	-0.249242	1.739928
C253	C	-0.416779	-0.959679	0.879953
C254	C	-0.166779	-0.709679	1.129953
C255	C	0.083221	-0.459679	1.379953
C256	C	0.333221	-0.209679	1.629953
C257	C	-0.377429	-1.002561	0.914966
C258	C	-0.127429	-0.752561	1.164966
C259	C	0.122571	-0.502561	1.414966
C260	C	0.372571	-0.252561	1.664966
H261	H	-0.664824	-1.053972	0.330178
H262	H	-0.414824	-0.803972	0.580178
H263	H	-0.164824	-0.553972	0.830178
H264	H	0.085176	-0.303972	1.080178
H265	H	-0.464315	-0.574904	0.464006
H266	H	-0.214315	-0.324904	0.714006
H267	H	0.035685	-0.074904	0.964006
H268	H	0.285685	0.175096	1.214006
H269	H	-1.128897	-0.908248	0.464059
H270	H	-0.878897	-0.658248	0.714059
H271	H	-0.628897	-0.408248	0.964059
H272	H	-0.378897	-0.158248	1.214059
H273	H	-0.341281	-1.041956	0.885255
H274	H	-0.091281	-0.791956	1.135255
H275	H	0.158719	-0.541956	1.385255
H276	H	0.408719	-0.291956	1.635255
Cl277	Cl	-0.491676	-0.721880	0.491270
Cl278	Cl	-0.241676	-0.471880	0.741270
Cl279	Cl	0.008324	-0.221880	0.991270
Cl280	Cl	0.258324	0.028120	1.241270
H281	H	-0.300410	-0.721937	0.300591
H282	H	-0.050410	-0.471937	0.550591
H283	H	0.199590	-0.221937	0.800591
H284	H	0.449590	0.028063	1.050591
Cl285	Cl	-0.317308	-1.068171	0.814828
Cl286	Cl	-0.067308	-0.818171	1.064828
Cl287	Cl	0.182692	-0.568171	1.314828
Cl288	Cl	0.432692	-0.318171	1.564828
Cl289	Cl	-0.273056	-0.574952	0.273324
Cl290	Cl	-0.023056	-0.324952	0.523324
Cl291	Cl	0.226944	-0.074952	0.773324
Cl292	Cl	0.476944	0.175048	1.023324
Cl293	Cl	-0.283243	-1.105224	0.980913
Cl294	Cl	-0.033243	-0.855224	1.230913
Cl295	Cl	0.216757	-0.605224	1.480913
Cl296	Cl	0.466757	-0.355224	1.730913
H297	H	-0.336353	-0.474141	0.336426
H298	H	-0.086353	-0.224141	0.586426
H299	H	0.163647	0.025859	0.836426
H300	H	0.413647	0.275859	1.086426
Cl301	Cl	-0.476931	-0.894095	0.980095
Cl302	Cl	-0.226931	-0.644095	1.230095
Cl303	Cl	0.023069	-0.394095	1.480095
Cl304	Cl	0.273069	-0.144095	1.730095
H305	H	-0.491305	-0.878454	0.797848
H306	H	-0.241305	-0.628454	1.047848
H307	H	0.008695	-0.378454	1.297848
H308	H	0.258695	-0.128454	1.547848
H309	H	-0.324240	-0.255336	0.324369
H310	H	-0.074240	-0.005336	0.574369
H311	H	0.175760	0.244664	0.824369
H312	H	0.425760	0.494664	1.074369
H313	H	-0.308298	-1.077899	1.130125
H314	H	-0.058298	-0.827899	1.380125
H315	H	0.191702	-0.577899	1.630125
H316	H	0.441702	-0.327899	1.880125
Cl317	Cl	-0.310139	-0.405844	0.310310
Cl318	Cl	-0.060139	-0.155844	0.560310
Cl319	Cl	0.189861	0.094156	0.810310
Cl320	Cl	0.439861	0.344156	1.060310
H321	H	-0.330232	-1.054046	0.665463
H322	H	-0.080232	-0.804046	0.915463
H323	H	0.169768	-0.554046	1.165463
H324	H	0.419768	-0.304046	1.415463
H325	H	-0.463985	-0.908204	1.129457
H326	H	-0.213985	-0.658204	1.379457
H327	H	0.036015	-0.408204	1.629457
H328	H	0.286015	-0.158204	1.879457
H329	H	-0.494055	-0.240863	0.493666
H330	H	-0.244055	0.009137	0.743666
H331	H	0.005945	0.259137	0.993666
H332	H	0.255945	0.509137	1.243666
Cl333	Cl	-0.479560	-0.503070	0.479216
Cl334	Cl	-0.229560	-0.253070	0.729216
Cl335	Cl	0.020440	-0.003070	0.979216
Cl336	Cl	0.270440	0.246930	1.229216
H337	H	-0.499966	-0.373433	0.499552
H338	H	-0.249966	-0.123433	0.749552
H339	H	0.000034	0.126567	0.999552
H340	H	0.250034	0.376567	1.249552
Cl341	Cl	-0.814186	-1.068113	0.317309
Cl342	Cl	-0.564186	-0.818113	0.567309
Cl343	Cl	-0.314186	-0.568113	0.817309
Cl344	Cl	-0.064186	-0.318113	1.067309
Cl345	Cl	-0.813458	-0.856995	0.510870
Cl346	Cl	-0.563458	-0.606995	0.760870
Cl347	Cl	-0.313458	-0.356995	1.010870
Cl348	Cl	-0.063458	-0.106995	1.260870
Cl349	Cl	-0.504258	-0.864350	0.648472
Cl350	Cl	-0.254258	-0.614350	0.898472
Cl351	Cl	-0.004258	-0.364350	1.148472
Cl352	Cl	0.245742	-0.114350	1.398472
Cl353	Cl	-0.980262	-1.105234	0.283375
Cl354	Cl	-0.730262	-0.855234	0.533375
Cl355	Cl	-0.480262	-0.605234	0.783375
Cl356	Cl	-0.230262	-0.355234	1.033375
Cl357	Cl	-0.472588	-0.898852	0.925828
Cl358	Cl	-0.222588	-0.648852	1.175828
Cl359	Cl	0.027412	-0.398852	1.425828
Cl360	Cl	0.277412	-0.148852	1.675828
Cl361	Cl	-1.145798	-1.097932	0.290141
Cl362	Cl	-0.895798	-0.847932	0.540141
Cl363	Cl	-0.645798	-0.597932	0.790141
Cl364	Cl	-0.395798	-0.347932	1.040141
H365	H	-0.995847	-0.914106	0.458605
H366	H	-0.745847	-0.664106	0.708605
H367	H	-0.495847	-0.414106	0.958605
H368	H	-0.245847	-0.164106	1.208605
Cl369	Cl	-0.647918	-0.864288	0.504093
Cl370	Cl	-0.397918	-0.614288	0.754093
Cl371	Cl	-0.147918	-0.364288	1.004093
Cl372	Cl	0.102082	-0.114288	1.254093
H373	H	-0.884631	-1.041952	0.341339
H374	H	-0.634631	-0.791952	0.591339
H375	H	-0.384631	-0.541952	0.841339
H376	H	-0.134631	-0.291952	1.091339
H377	H	-0.909097	-0.920269	0.452900
H378	H	-0.659097	-0.670269	0.702900
H379	H	-0.409097	-0.420269	0.952900
H380	H	-0.159097	-0.170269	1.202900
