data_functionalizedCrystal
_audit_creation_method	'MofGen! by Chris Wilmer'
_symmetry_space_group_name_H-M	'P1'
_symmetry_Int_Tables_number	1
_symmetry_cell_setting	triclinic
loop_
_symmetry_equiv_pos_as_xyz
  x,y,z
_cell_length_a	19.188930
_cell_length_b	19.288864
_cell_length_c	18.366186
_cell_angle_alpha	90.022894
_cell_angle_beta	89.988632
_cell_angle_gamma	96.859488
loop_
_atom_site_label
_atom_site_type_symbol
_atom_site_fract_x
_atom_site_fract_y
_atom_site_fract_z
O1	O	0.087099	-0.921359	-0.060791
O2	O	0.098849	-0.719099	-0.060743
O3	O	-0.008682	-0.826066	-0.060754
O4	O	0.194630	-0.814393	-0.060780
O5	O	-0.008687	-0.826048	0.060345
O6	O	0.098843	-0.719081	0.060357
O7	O	0.087094	-0.921341	0.060308
Zn8	Zn	0.092968	-0.820208	0.079560
Zn9	Zn	0.092975	-0.820232	-0.079994
O10	O	0.194625	-0.814374	0.060320
C11	C	0.098468	-0.693214	-0.000186
C12	C	0.097333	-0.616110	-0.000167
C13	C	-0.034696	-0.825679	-0.000202
C14	C	-0.112200	-0.824544	-0.000196
C15	C	0.087475	-0.947227	-0.000250
C16	C	0.088609	-1.024330	-0.000274
C17	C	-0.157129	-0.887309	-0.000207
C18	C	-0.229953	-0.886243	-0.000219
C19	C	-0.257844	-0.822408	-0.000204
C20	C	-0.212906	-0.759636	-0.000196
C21	C	-0.140084	-0.760704	-0.000192
N22	N	-0.365847	-0.773609	0.041020
N23	N	-0.435026	-0.772598	0.041018
C24	C	-0.477253	-0.819187	-0.000218
N25	N	-0.447689	-0.866835	-0.041442
N26	N	-0.378504	-0.867847	-0.041436
C27	C	-0.336807	-0.821243	-0.000209
C28	C	-0.601146	-0.880800	-0.000243
C29	C	-0.673971	-0.879731	-0.000259
C30	C	-0.656922	-0.753122	-0.000229
C31	C	-0.584099	-0.754193	-0.000220
C32	C	-0.556216	-0.818034	-0.000224
C33	C	0.220638	-0.814762	-0.000234
C34	C	0.298143	-0.815896	-0.000245
N35	N	0.092963	-0.820197	0.188451
C36	C	0.160427	-0.571419	-0.000187
C37	C	0.159361	-0.498972	-0.000195
C38	C	0.095197	-0.471219	-0.000198
C39	C	0.032095	-0.515921	-0.000174
C40	C	0.033163	-0.588366	-0.000159
C41	C	0.044759	-0.362960	-0.042642
C42	C	0.043694	-0.290515	-0.042662
C43	C	0.091900	-0.247773	-0.000241
C44	C	0.141184	-0.277483	0.042190
C45	C	0.142253	-0.349929	0.042205
C46	C	0.094032	-0.392665	-0.000214
C47	C	0.153843	-0.124526	-0.000268
C48	C	0.152774	-0.052078	-0.000272
C49	C	0.025506	-0.069028	-0.000259
C50	C	0.026576	-0.141475	-0.000248
C51	C	0.090747	-0.169219	-0.000256
N52	N	0.092974	-0.820249	-0.188885
C53	C	0.045371	-0.867577	0.226546
C54	C	0.045368	-0.867582	0.302774
C55	C	0.092968	-0.820213	0.340903
C56	C	0.140563	-0.772823	0.302799
C57	C	0.140560	-0.772816	0.226573
C58	C	0.156585	-0.810919	0.461657
C59	C	0.156589	-0.810932	0.537882
C60	C	0.092977	-0.820232	0.576011
C61	C	0.029359	-0.829535	0.537906
C62	C	0.029356	-0.829527	0.461679
C63	C	0.092977	-0.820215	0.423558
C64	C	0.045378	-0.867620	0.696761
C65	C	0.045374	-0.867620	0.772990
C66	C	0.140576	-0.772864	0.773014
C67	C	0.140574	-0.772862	0.696786
C68	C	0.092976	-0.820243	0.658664
H69	H	-0.134431	-0.939293	-0.000213
Cl70	Cl	-0.083599	-0.681793	-0.000177
Cl71	Cl	-0.048569	-0.481033	-0.000174
Cl72	Cl	0.201792	-0.223759	0.095522
H73	H	-0.026738	-0.046433	-0.000306
H74	H	0.006616	-0.906200	0.804008
H75	H	-0.578442	-0.932783	-0.000249
Cl76	Cl	0.200395	-0.713248	0.178678
Cl77	Cl	-0.286445	-0.965153	-0.000234
H78	H	-0.235620	-0.707661	-0.000186
H79	H	-0.710552	-0.930844	-0.000272
H80	H	0.006612	-0.906166	0.333797
Cl81	Cl	0.232100	0.004108	-0.000292
Cl82	Cl	-0.691979	-0.672873	-0.000215
H83	H	-0.547517	-0.703083	-0.000207
Cl84	Cl	-0.014468	-0.927138	0.178622
H85	H	0.006619	-0.906199	0.665721
Cl86	Cl	0.241099	-0.606293	-0.000194
Cl87	Cl	-0.050618	-0.841214	0.413778
H88	H	-0.022440	-0.837108	0.568948
Cl89	Cl	0.204203	-0.387277	0.095547
H90	H	-0.018218	-0.624755	-0.000144
H91	H	0.210742	-0.462577	-0.000208
Cl92	Cl	0.234513	-0.159408	-0.000271
H93	H	0.179330	-0.734293	0.804059
H94	H	-0.024802	-0.177864	-0.000236
Cl95	Cl	-0.018256	-0.253172	-0.096011
Cl96	Cl	-0.015850	-0.416686	-0.095976
H97	H	0.179330	-0.734283	0.665767
Cl98	Cl	0.236565	-0.799242	0.585778
Cl99	Cl	0.236564	-0.799291	0.413732
H100	H	0.179319	-0.734253	0.333848
