data_functionalizedCrystal
_audit_creation_method	'MofGen! by Chris Wilmer'
_symmetry_space_group_name_H-M	'P1'
_symmetry_Int_Tables_number	1
_symmetry_cell_setting	triclinic
loop_
_symmetry_equiv_pos_as_xyz
  x,y,z
_cell_length_a	17.699083
_cell_length_b	16.176319
_cell_length_c	17.699083
_cell_angle_alpha	89.986173
_cell_angle_beta	96.716984
_cell_angle_gamma	90.001389
loop_
_atom_site_label
_atom_site_type_symbol
_atom_site_fract_x
_atom_site_fract_y
_atom_site_fract_z
O1	O	1.004079	0.068643	-0.095713
O2	O	1.504079	0.568643	0.404287
O3	O	0.783700	0.068672	-0.108166
O4	O	1.283700	0.568672	0.391834
O5	O	0.900116	0.068637	0.008250
O6	O	1.400116	0.568637	0.508250
O7	O	0.887663	0.068679	-0.212129
O8	O	1.387663	0.568679	0.287871
O9	O	0.900100	-0.068856	0.008257
O10	O	1.400100	0.431144	0.508257
O11	O	0.783684	-0.068821	-0.108158
O12	O	1.283684	0.431179	0.391842
O13	O	1.004063	-0.068850	-0.095706
O14	O	1.504063	0.431150	0.404294
Cu15	Cu	0.893872	-0.081390	-0.101931
Cu16	Cu	1.393872	0.418610	0.398069
Cu17	Cu	0.893891	0.081212	-0.101940
Cu18	Cu	1.393891	0.581212	0.398060
O19	O	0.887647	-0.068814	-0.212121
O20	O	1.387647	0.431186	0.287879
C21	C	0.755495	-0.000071	-0.107716
C22	C	1.255495	0.499929	0.392284
C23	C	0.671477	-0.000061	-0.106377
C24	C	1.171477	0.499939	0.393623
N25	N	0.893864	-0.195755	-0.101925
N26	N	1.393864	0.304245	0.398075
C27	C	0.622856	-0.000048	-0.174711
C28	C	1.122856	0.499952	0.325289
C29	C	0.543913	-0.000059	-0.173448
C30	C	1.043913	0.499941	0.326552
C31	C	0.513592	-0.000077	-0.103852
C32	C	1.013592	0.499923	0.396148
C33	C	0.562219	-0.000092	-0.035513
C34	C	1.062219	0.499908	0.464487
C35	C	0.641161	-0.000087	-0.036776
C36	C	1.141161	0.499913	0.463224
C37	C	0.243856	-0.000114	-0.030418
C38	C	0.743856	0.499886	0.469582
C39	C	0.164908	-0.000116	-0.029160
C40	C	0.664908	0.499884	0.470840
C41	C	0.146608	-0.000086	-0.167090
C42	C	0.646608	0.499914	0.332910
C43	C	0.225550	-0.000081	-0.168353
C44	C	0.725550	0.499919	0.331647
C45	C	0.274170	-0.000100	-0.100015
C46	C	0.774170	0.499900	0.399985
C47	C	0.359769	-0.000090	-0.101384
C48	C	0.859769	0.499910	0.398616
C49	C	0.427995	-0.000081	-0.102481
C50	C	0.927995	0.499919	0.397519
C51	C	0.945429	-0.239035	-0.050397
C52	C	1.445429	0.260965	0.449603
C53	C	0.945432	-0.325582	-0.050396
C54	C	1.445432	0.174418	0.449604
C55	C	0.893875	-0.368847	-0.101927
C56	C	1.393875	0.131153	0.398073
C57	C	0.842305	-0.325561	-0.153457
C58	C	1.342305	0.174439	0.346543
C59	C	0.842299	-0.239016	-0.153454
C60	C	1.342299	0.260984	0.346546
C61	C	0.842331	-0.674590	-0.153472
C62	C	1.342331	-0.174590	0.346528
C63	C	0.842344	-0.761141	-0.153473
C64	C	1.342344	-0.261141	0.346527
C65	C	0.945465	-0.761155	-0.050414
C66	C	1.445465	-0.261155	0.449586
C67	C	0.945458	-0.674610	-0.050410
C68	C	1.445458	-0.174610	0.449590
C69	C	0.893886	-0.631332	-0.101937
C70	C	1.393886	-0.131332	0.398063
C71	C	0.893882	-0.537487	-0.101937
C72	C	1.393882	-0.037487	0.398063
C73	C	0.893883	-0.462690	-0.101932
C74	C	1.393883	0.037310	0.398068
C75	C	1.032268	-0.000105	-0.096156
C76	C	1.532268	0.499895	0.403844
C77	C	1.116286	-0.000109	-0.097494
C78	C	1.616286	0.499891	0.402506
C79	C	0.899662	-0.000113	0.036451
C80	C	1.399662	0.499887	0.536451
C81	C	0.898323	-0.000123	0.120469
C82	C	1.398323	0.499877	0.620469
N83	N	0.893905	0.195577	-0.101941
N84	N	1.393905	0.695577	0.398059
C85	C	0.966656	-0.000138	0.169090
C86	C	1.466656	0.499862	0.669090
C87	C	0.965394	-0.000140	0.248033
C88	C	1.465394	0.499860	0.748033
C89	C	0.895798	-0.000133	0.278354
C90	C	1.395798	0.499867	0.778354
C91	C	0.827459	-0.000115	0.229727
C92	C	1.327459	0.499885	0.729727
C93	C	0.828722	-0.000107	0.150785
C94	C	1.328722	0.499893	0.650785
C95	C	0.822364	-0.000145	0.548090
C96	C	1.322364	0.499855	1.048090
C97	C	0.821106	-0.000155	0.627038
C98	C	1.321106	0.499845	1.127038
C99	C	0.959036	-0.000178	0.645338
C100	C	1.459036	0.499822	1.145338
C101	C	0.960299	-0.000170	0.566396
C102	C	1.460299	0.499830	1.066396
C103	C	0.891961	-0.000148	0.517776
C104	C	1.391961	0.499852	1.017776
C105	C	0.893330	-0.000144	0.432177
C106	C	1.393330	0.499856	0.932177
C107	C	0.894427	-0.000142	0.363951
C108	C	1.394427	0.499858	0.863951
C109	C	0.888102	-0.000092	0.759678
C110	C	1.388102	0.499908	1.259678
C111	C	0.889440	-0.000164	0.675660
C112	C	1.389440	0.499836	1.175660
H113	H	0.504328	-0.000048	-0.229092
H114	H	1.004328	0.499952	0.270908
N115	N	0.258253	-0.000050	-0.243417
N116	N	0.758253	0.499950	0.256583
H117	H	0.215472	-0.000043	-0.286516
H118	H	0.715472	0.499957	0.213484
H119	H	0.290612	-0.051016	-0.246945
H120	H	0.790612	0.448984	0.253055
N121	N	1.041722	-0.000154	0.136389
N122	N	1.541722	0.499846	0.636389
H123	H	1.084819	-0.000163	0.179172
H124	H	1.584819	0.499837	0.679172
H125	H	1.045258	0.050818	0.104027
H126	H	1.545258	0.550818	0.604027
N127	N	0.094168	-0.000067	-0.240801
N128	N	0.594168	0.499933	0.259199
H129	H	0.039557	-0.000076	-0.229445
H130	H	0.539557	0.499924	0.270555
H131	H	0.103974	-0.051028	-0.271138
H132	H	0.603974	0.448972	0.228862
H133	H	0.283434	-0.000130	0.025228
H134	H	0.783434	0.499870	0.525228
N135	N	0.693600	-0.000099	0.036930
N136	N	1.193600	0.499901	0.536930
H137	H	0.726762	0.050870	0.039480
H138	H	1.226762	0.550870	0.539480
H139	H	0.726711	-0.051102	0.039438
H140	H	1.226711	0.448898	0.539438
H141	H	0.766718	-0.000127	0.508512
H142	H	1.266718	0.499873	1.008512
H143	H	0.987456	-0.796402	-0.008455
H144	H	1.487456	-0.296402	0.491545
N145	N	0.786724	-0.807804	-0.209050
N146	N	1.286724	-0.307804	0.290950
H147	H	0.753281	-0.843727	-0.180162
H148	H	1.253281	-0.343727	0.319838
H149	H	0.815635	-0.843649	-0.242518
H150	H	1.315635	-0.343649	0.257482
H151	H	0.537526	-0.000118	0.021154
H152	H	1.037526	0.499882	0.521154
H153	H	0.987416	-0.203813	-0.008438
H154	H	1.487416	0.296187	0.491562
H155	H	0.987419	-0.360820	-0.008438
H156	H	1.487419	0.139180	0.491562
N157	N	0.786706	-0.627917	-0.209041
N158	N	1.286706	-0.127917	0.290959
H159	H	0.754048	-0.668461	-0.241685
H160	H	1.254048	-0.168461	0.258315
H161	H	0.815606	-0.591989	-0.242467
H162	H	1.315606	-0.091989	0.257533
H163	H	0.140225	-0.000132	0.027517
H164	H	0.640225	0.499868	0.527517
N165	N	1.001069	-0.627945	0.005166
N166	N	1.501069	-0.127945	0.505166
H167	H	1.033736	-0.668496	0.037811
H168	H	1.533736	-0.168496	0.537811
H169	H	0.972154	-0.592051	0.038591
H170	H	1.472154	-0.092051	0.538591
N171	N	0.786687	-0.192334	-0.209036
N172	N	1.286687	0.307666	0.290964
H173	H	0.794503	-0.130943	-0.201213
H174	H	1.294503	0.369057	0.298787
H175	H	0.733016	-0.207473	-0.200358
H176	H	1.233016	0.292527	0.299642
H177	H	0.800323	-0.360793	-0.195413
H178	H	1.300323	0.139207	0.304587
N179	N	1.035363	-0.000185	0.533693
N180	N	1.535363	0.499815	1.033693
H181	H	1.078462	-0.000194	0.576474
H182	H	1.578462	0.499806	1.076474
H183	H	1.038896	0.050788	0.501331
H184	H	1.538896	0.550788	1.001331
N185	N	1.039096	-0.000161	0.300475
N186	N	1.539096	0.499839	0.800475
H187	H	1.083376	-0.000173	0.269288
H188	H	1.583376	0.499827	0.769288
H189	H	1.041564	-0.051136	0.333632
H190	H	1.541564	0.448864	0.833632
N191	N	0.752394	-0.000114	0.262428
N192	N	1.252394	0.499886	0.762428
H193	H	0.709297	-0.000103	0.219646
H194	H	1.209297	0.499897	0.719646
H195	H	0.748870	0.050851	0.294779
H196	H	1.248870	0.550851	0.794779
N197	N	1.032743	-0.000199	0.697784
N198	N	1.532743	0.499801	1.197784
H199	H	1.035305	0.050766	0.730938
H200	H	1.535305	0.550766	1.230938
H201	H	1.076981	-0.000239	0.666545
H202	H	1.576981	0.499761	1.166545
H203	H	0.764429	-0.000150	0.651721
H204	H	1.264429	0.499850	1.151721
N205	N	0.755019	-0.000113	0.098342
N206	N	1.255019	0.499887	0.598342
H207	H	0.766378	-0.000112	0.043732
H208	H	1.266378	0.499888	0.543732
H209	H	0.724679	0.050856	0.108132
H210	H	1.224679	0.550856	0.608132
N211	N	0.655557	-0.000019	-0.249776
N212	N	1.155557	0.499981	0.250224
H213	H	0.612774	-0.000014	-0.292873
H214	H	1.112774	0.499986	0.207127
H215	H	0.687915	-0.050985	-0.253305
H216	H	1.187915	0.449015	0.246695
