data_functionalizedCrystal
_audit_creation_method	'MofGen! by Chris Wilmer'
_symmetry_space_group_name_H-M	'P1'
_symmetry_Int_Tables_number	1
_symmetry_cell_setting	triclinic
loop_
_symmetry_equiv_pos_as_xyz
  x,y,z
_cell_length_a	12.759401
_cell_length_b	18.050589
_cell_length_c	12.759393
_cell_angle_alpha	90.029827
_cell_angle_beta	90.018705
_cell_angle_gamma	90.028382
loop_
_atom_site_label
_atom_site_type_symbol
_atom_site_fract_x
_atom_site_fract_y
_atom_site_fract_z
Zn1	Zn	1.606159	-0.295618	0.593988
Zn2	Zn	2.106159	0.204382	1.093988
Zn3	Zn	1.606011	-0.419827	0.418311
Zn4	Zn	2.106011	0.080173	0.918311
Zn5	Zn	1.430460	-0.295655	0.418328
Zn6	Zn	1.930460	0.204345	0.918328
Zn7	Zn	1.430408	-0.419771	0.593953
Zn8	Zn	1.930408	0.080229	1.093953
O9	O	1.518260	-0.357718	0.506145
O10	O	2.018260	0.142282	1.006145
O11	O	1.753160	-0.312102	0.570692
O12	O	2.253160	0.187898	1.070692
O13	O	1.582684	-0.403394	0.271292
O14	O	2.082684	0.096606	0.771292
O15	O	1.453851	-0.191726	0.441651
O16	O	1.953851	0.308274	0.941651
O17	O	1.753052	-0.403358	0.441623
O18	O	2.253052	0.096642	0.941623
O19	O	1.582936	-0.191699	0.570708
O20	O	2.082936	0.308301	1.070708
O21	O	1.453707	-0.312166	0.271304
O22	O	1.953707	0.187834	0.771304
O23	O	1.283432	-0.312112	0.441617
O24	O	1.783432	0.187888	0.941617
O25	O	1.453762	-0.403263	0.740979
O26	O	1.953762	0.096737	1.240979
O27	O	1.283394	-0.403299	0.570648
O28	O	1.783394	0.096701	1.070648
O29	O	1.582885	-0.312049	0.741005
O30	O	2.082885	0.187951	1.241005
O31	O	1.582633	-0.523744	0.441589
O32	O	2.082633	-0.023744	0.941589
O33	O	1.453618	-0.523703	0.570632
O34	O	1.953618	-0.023703	1.070632
C35	C	1.245292	-0.357704	0.506131
C36	C	1.745292	0.142296	1.006131
C37	C	1.128516	-0.357716	0.506149
C38	C	1.628516	0.142284	1.006149
C39	C	1.073661	-0.405274	0.573225
C40	C	1.573661	0.094726	1.073225
C41	C	0.963937	-0.405283	0.573236
C42	C	1.463937	0.094717	1.073236
C43	C	0.963932	-0.310176	0.439088
C44	C	1.463932	0.189824	0.939088
C45	C	1.073654	-0.310163	0.439083
C46	C	1.573654	0.189837	0.939083
C47	C	1.128523	-0.452827	0.640292
C48	C	1.628523	0.047173	1.140292
C49	C	1.073668	-0.500389	0.707372
C50	C	1.573668	-0.000389	1.207372
C51	C	0.963944	-0.500398	0.707383
C52	C	1.463944	-0.000398	1.207383
C53	C	0.909075	-0.452846	0.640314
C54	C	1.409075	0.047154	1.140314
C55	C	1.518133	-0.550670	0.506127
C56	C	2.018133	-0.050670	1.006127
C57	C	1.518175	-0.633216	0.506155
C58	C	2.018175	-0.133216	1.006155
C59	C	1.448085	-0.832671	0.576304
C60	C	1.948085	-0.332671	1.076304
C61	C	1.422471	-0.882119	0.480436
C62	C	1.922471	-0.382119	0.980436
C63	C	1.518278	-0.784346	0.506169
C64	C	2.018278	-0.284346	1.006169
C65	C	1.543944	-0.881980	0.602048
C66	C	2.043944	-0.381980	1.102048
C67	C	1.518376	-0.930331	0.506191
C68	C	2.018376	-0.430331	1.006191
C69	C	1.492613	-0.832707	0.410250
C70	C	1.992613	-0.332707	0.910250
C71	C	1.614131	-0.832563	0.531927
C72	C	2.114131	-0.332563	1.031927
C73	C	1.588552	-0.881989	0.435992
C74	C	2.088552	-0.381989	0.935992
C75	C	1.518219	-0.700248	0.506158
C76	C	2.018219	-0.200248	1.006158
C77	C	1.518435	-1.014428	0.506191
C78	C	2.018435	-0.514428	1.006191
C79	C	1.792293	-0.357732	0.506160
C80	C	2.292293	0.142268	1.006160
C81	C	1.909069	-0.357738	0.506166
C82	C	2.409069	0.142262	1.006166
C83	C	1.518334	-0.357646	0.780178
C84	C	2.018334	0.142354	1.280178
C85	C	1.518366	-0.357615	0.896955
C86	C	2.018366	0.142385	1.396955
C87	C	1.518415	-0.164012	0.506185
C88	C	2.018415	0.335988	1.006185
C89	C	1.518482	-0.081467	0.506203
C90	C	2.018482	0.418533	1.006203
C91	C	1.518246	-0.357736	0.233178
C92	C	2.018246	0.142264	0.733178
C93	C	1.518418	-0.357558	0.116401
C94	C	2.018418	0.142442	0.616401
C95	C	1.451252	-0.310077	1.061548
C96	C	1.951252	0.189923	1.561548
C97	C	1.451228	-0.310103	0.951824
C98	C	1.951228	0.189897	1.451824
C99	C	1.585539	-0.405098	0.951816
C100	C	2.085539	0.094902	1.451816
C101	C	1.585567	-0.405068	1.061539
C102	C	2.085567	0.094932	1.561539
C103	C	1.384103	-0.262567	1.116411
C104	C	1.884103	0.237433	1.616411
C105	C	1.316931	-0.215083	1.061557
C106	C	1.816931	0.284917	1.561557
C107	C	1.316907	-0.215109	0.951833
C108	C	1.816907	0.284891	1.451833
C109	C	1.384056	-0.262620	0.896962
C110	C	1.884056	0.237380	1.396962
H111	H	0.919248	-0.271462	0.384483
H112	H	1.419248	0.228538	0.884483
H113	H	1.695126	-0.810782	0.553739
H114	H	2.195126	-0.310782	1.053739
Br115	Br	1.148106	-0.245618	0.348053
Br116	Br	1.648106	0.254382	0.848053
Br117	Br	1.225760	-0.150659	0.877390
Br118	Br	1.725760	0.349341	1.377390
H119	H	0.919285	-0.539120	0.762010
H120	H	1.419285	-0.039120	1.262010
H121	H	1.388638	-0.811016	0.635531
H122	H	1.888638	-0.311016	1.135531
H123	H	1.640207	-0.443780	0.907132
H124	H	2.140207	0.056220	1.407132
Br125	Br	1.287436	-0.918396	0.444123
Br126	Br	1.787436	-0.418396	0.944123
Br127	Br	1.456344	-0.796787	0.275078
Br128	Br	1.956344	-0.296787	0.775078
H129	H	1.647954	-0.903507	0.376622
H130	H	2.147954	-0.403507	0.876622
H131	H	0.819730	-0.452851	0.640338
H132	H	1.319730	0.047149	1.140338
H133	H	1.565614	-0.903624	0.683124
H134	H	2.065614	-0.403624	1.183124
Br135	Br	1.676733	-0.469499	1.135990
Br136	Br	2.176733	0.030501	1.635990
H137	H	1.118350	-0.539099	0.761983
H138	H	1.618350	-0.039099	1.261983
H139	H	1.262268	-0.176397	1.106240
H140	H	1.762268	0.323603	1.606240
Br141	Br	1.277434	-0.452821	0.640273
Br142	Br	1.777434	0.047179	1.140273
Br143	Br	1.384121	-0.262536	1.265321
Br144	Br	1.884121	0.237464	1.765321
Br145	Br	1.384033	-0.262646	0.748050
Br146	Br	1.884033	0.237354	1.248050
