data_functionalizedCrystal
_audit_creation_method	'MofGen! by Chris Wilmer'
_symmetry_space_group_name_H-M	'P1'
_symmetry_Int_Tables_number	1
_symmetry_cell_setting	triclinic
loop_
_symmetry_equiv_pos_as_xyz
  x,y,z
_cell_length_a	14.044191
_cell_length_b	13.101039
_cell_length_c	10.654546
_cell_angle_alpha	93.385731
_cell_angle_beta	91.162349
_cell_angle_gamma	93.662449
loop_
_atom_site_label
_atom_site_type_symbol
_atom_site_fract_x
_atom_site_fract_y
_atom_site_fract_z
O1	O	1.264870	0.085203	-0.296678
O2	O	1.764870	0.585203	0.203322
O3	O	0.988829	0.085215	-0.285734
O4	O	1.488829	0.585215	0.214266
O5	O	1.133196	0.085178	-0.109107
O6	O	1.633196	0.585178	0.390893
O7	O	1.120503	0.085239	-0.473305
O8	O	1.620503	0.585239	0.026695
O9	O	1.122838	-0.085249	-0.121803
O10	O	1.622838	0.414751	0.378197
O11	O	0.978471	-0.085213	-0.298430
O12	O	1.478471	0.414787	0.201570
O13	O	1.254512	-0.085224	-0.309374
O14	O	1.754512	0.414776	0.190626
Zn15	Zn	1.114847	-0.112277	-0.305918
Zn16	Zn	1.614847	0.387723	0.194082
Zn17	Zn	1.128494	0.112268	-0.289190
Zn18	Zn	1.628494	0.612268	0.210810
O19	O	1.110145	-0.085188	-0.486001
O20	O	1.610145	0.414812	0.013999
C21	C	0.948304	0.000002	-0.287295
C22	C	1.448304	0.500002	0.212705
C23	C	0.842985	0.000005	-0.273016
C24	C	1.342985	0.500005	0.226984
C25	C	0.593192	0.000007	-0.348181
C26	C	1.093192	0.500007	0.151819
C27	C	0.650155	-0.000008	-0.246932
C28	C	1.150155	0.499992	0.253068
C29	C	0.757455	-0.000001	-0.261448
C30	C	1.257455	0.499999	0.238552
C31	C	0.485882	0.000000	-0.333666
C32	C	0.985882	0.500000	0.166334
N33	N	1.105540	-0.265524	-0.317333
N34	N	1.605540	0.234476	0.182667
C35	C	1.092878	-0.474563	-0.332877
C36	C	1.592878	0.025437	0.167123
C37	C	1.150468	-0.525453	-0.262226
C38	C	1.650468	-0.025453	0.237774
C39	C	1.143422	-0.641770	-0.270874
C40	C	1.643422	-0.141770	0.229126
C41	C	1.099922	-0.358236	-0.324230
C42	C	1.599922	0.141764	0.175770
C43	C	1.295037	-0.000009	-0.307813
C44	C	1.795037	0.499991	0.192187
C45	C	1.400357	-0.000006	-0.322091
C46	C	1.900357	0.499994	0.177909
C47	C	1.127085	-0.000041	-0.068564
C48	C	1.627085	0.499959	0.431436
C49	C	1.124297	-0.000058	0.071159
C50	C	1.624297	0.499942	0.571159
N51	N	1.137808	0.265514	-0.277765
N52	N	1.637808	0.765514	0.222235
C53	C	1.209298	-0.000075	0.142099
C54	C	1.709298	0.499925	0.642099
C55	C	1.206672	-0.000087	0.273383
C56	C	1.706672	0.499913	0.773383
C57	C	1.034038	-0.000068	0.262775
C58	C	1.534038	0.499932	0.762775
C59	C	1.036664	-0.000049	0.131494
C60	C	1.536664	0.499951	0.631494
C61	C	1.308967	-0.000090	0.148224
C62	C	1.808967	0.499910	0.648224
C63	C	1.306341	-0.000102	0.279508
C64	C	1.806341	0.499898	0.779508
C65	C	1.116256	-0.000003	0.473453
C66	C	1.616256	0.499997	0.973453
C67	C	1.119045	-0.000089	0.333724
C68	C	1.619045	0.499911	0.833724
H69	H	0.618343	0.000048	-0.149342
H70	H	1.118343	0.500048	0.350658
H71	H	0.625007	0.000027	-0.445758
H72	H	1.125007	0.500027	0.054242
H73	H	1.352286	0.071231	0.120260
H74	H	1.852286	0.571231	0.620260
C75	C	1.019108	-0.533705	-0.423331
C76	C	1.519108	-0.033705	0.076669
H77	H	0.983888	-0.486482	-0.466511
H78	H	1.483888	0.013518	0.033489
H79	H	1.051132	-0.575562	-0.482482
H80	H	1.551132	-0.075562	0.017518
H81	H	0.976773	-0.575555	-0.376783
H82	H	1.476773	-0.075555	0.123217
H83	H	1.205064	-0.481665	-0.195246
H84	H	1.705064	0.018335	0.304754
H85	H	0.962690	-0.000060	0.311915
H86	H	1.462690	0.499940	0.811915
C87	C	0.943164	-0.000023	0.053464
C88	C	1.443164	0.499977	0.553464
H89	H	0.890600	-0.000030	0.108202
H90	H	1.390600	0.499970	0.608202
H91	H	0.944217	0.059415	0.006454
H92	H	1.444217	0.559415	0.506454
H93	H	0.936983	-0.059455	-0.002392
H94	H	1.436983	0.440545	0.497608
H95	H	1.336233	-0.073673	0.103925
H96	H	1.836233	0.426327	0.603925
H97	H	1.340935	0.073476	0.327604
H98	H	1.840935	0.573476	0.827604
H99	H	1.339561	-0.071432	0.312179
H100	H	1.839561	0.428568	0.812179
