data_functionalizedCrystal
_audit_creation_method	'MofGen! by Chris Wilmer'
_symmetry_space_group_name_H-M	'P1'
_symmetry_Int_Tables_number	1
_symmetry_cell_setting	triclinic
loop_
_symmetry_equiv_pos_as_xyz
  x,y,z
_cell_length_a	12.759401
_cell_length_b	16.625546
_cell_length_c	16.625539
_cell_angle_alpha	90.028532
_cell_angle_beta	90.013955
_cell_angle_gamma	90.021512
loop_
_atom_site_label
_atom_site_type_symbol
_atom_site_fract_x
_atom_site_fract_y
_atom_site_fract_z
Zn1	Zn	1.606151	-0.321036	0.455831
Zn2	Zn	1.939484	0.012298	0.789164
Zn3	Zn	2.272817	0.345631	1.122498
Zn4	Zn	1.606035	-0.455874	0.320993
Zn5	Zn	1.939369	-0.122541	0.654327
Zn6	Zn	2.272702	0.210792	0.987660
Zn7	Zn	1.430467	-0.321057	0.321019
Zn8	Zn	1.763800	0.012276	0.654352
Zn9	Zn	2.097134	0.345609	0.987685
Zn10	Zn	1.430418	-0.455828	0.455790
Zn11	Zn	1.763751	-0.122494	0.789124
Zn12	Zn	2.097084	0.210839	1.122457
O13	O	1.518268	-0.388449	0.388408
O14	O	1.851601	-0.055115	0.721742
O15	O	2.184934	0.278218	1.055075
O16	O	1.753157	-0.338933	0.437951
O17	O	2.086490	-0.005599	0.771284
O18	O	2.419823	0.327734	1.104617
O19	O	1.582718	-0.438019	0.208164
O20	O	1.916052	-0.104686	0.541497
O21	O	2.249385	0.228648	0.874831
O22	O	1.453841	-0.208222	0.338929
O23	O	1.787174	0.125111	0.672263
O24	O	2.120507	0.458445	1.005596
O25	O	1.753072	-0.437998	0.338886
O26	O	2.086405	-0.104665	0.672219
O27	O	2.419738	0.228668	1.005553
O28	O	1.582915	-0.208206	0.437975
O29	O	1.916248	0.125127	0.771309
O30	O	2.249582	0.458461	1.104642
O31	O	1.453729	-0.338970	0.208183
O32	O	1.787062	-0.005636	0.541516
O33	O	2.120396	0.327697	0.874850
O34	O	1.283439	-0.338924	0.338890
O35	O	1.616773	-0.005591	0.672224
O36	O	1.950106	0.327742	1.005557
O37	O	1.453757	-0.437919	0.568628
O38	O	1.787090	-0.104585	0.901962
O39	O	2.120423	0.228748	1.235295
O40	O	1.283403	-0.437940	0.437906
O41	O	1.616736	-0.104606	0.771240
O42	O	1.950070	0.228727	1.104573
O43	O	1.582867	-0.338888	0.568658
O44	O	1.916200	-0.005554	0.901991
O45	O	2.249534	0.327779	1.235325
O46	O	1.582670	-0.568701	0.338847
O47	O	1.916004	-0.235367	0.672180
O48	O	2.249337	0.097966	1.005513
O49	O	1.453645	-0.568666	0.437882
O50	O	1.786978	-0.235333	0.771215
O51	O	2.120311	0.098000	1.104548
C52	C	1.245300	-0.388430	0.388397
C53	C	1.578634	-0.055096	0.721730
C54	C	1.911967	0.278237	1.055064
C55	C	1.128524	-0.388441	0.388411
C56	C	1.461857	-0.055108	0.721745
C57	C	1.795190	0.278226	1.055078
C58	C	1.073699	-0.336955	0.440074
C59	C	1.407032	-0.003622	0.773408
C60	C	1.740366	0.329712	1.106741
C61	C	0.963975	-0.336971	0.440079
C62	C	1.297308	-0.003637	0.773413
C63	C	1.630641	0.329696	1.106746
C64	C	0.963910	-0.439965	0.336756
C65	C	1.297243	-0.106632	0.670090
C66	C	1.630577	0.226702	1.003423
C67	C	1.073632	-0.439945	0.336748
C68	C	1.406966	-0.106611	0.670081
C69	C	1.740299	0.226722	1.003415
C70	C	1.073735	-0.277494	0.499730
C71	C	1.407069	0.055839	0.833063
C72	C	1.740402	0.389172	1.166396
C73	C	0.964011	-0.277510	0.499735
C74	C	1.297345	0.055823	0.833068
C75	C	1.630678	0.389157	1.166401
C76	C	1.518168	-0.597940	0.388375
C77	C	1.851502	-0.264606	0.721708
C78	C	2.184835	0.068727	1.055041
C79	C	1.518222	-0.687561	0.388387
C80	C	1.851555	-0.354227	0.721720
C81	C	2.184889	-0.020894	1.055054
C82	C	1.518405	-1.015736	0.388471
C83	C	1.851738	-0.682403	0.721804
C84	C	2.185072	-0.349070	1.055138
C85	C	1.518351	-0.924428	0.388450
C86	C	1.851684	-0.591094	0.721783
C87	C	2.185017	-0.257761	1.055117
C88	C	1.518313	-0.851651	0.388429
C89	C	1.851646	-0.518318	0.721762
C90	C	2.184979	-0.184985	1.055095
C91	C	1.518260	-0.760337	0.388408
C92	C	1.851593	-0.427004	0.721742
C93	C	2.184927	-0.093670	1.055075
C94	C	1.792301	-0.388468	0.388420
C95	C	2.125634	-0.055135	0.721753
C96	C	2.458968	0.278198	1.055087
C97	C	1.909078	-0.388477	0.388425
C98	C	2.242411	-0.055143	0.721758
C99	C	2.575744	0.278190	1.055092
C100	C	1.518319	-0.388395	0.598717
C101	C	1.851653	-0.055062	0.932051
C102	C	2.184986	0.278271	1.265384
C103	C	1.518341	-0.388373	0.688338
C104	C	1.851674	-0.055039	1.021672
C105	C	2.185008	0.278294	1.355005
C106	C	1.518396	-0.178140	0.388460
C107	C	1.851729	0.155194	0.721793
C108	C	2.185063	0.488527	1.055126
C109	C	1.518451	-0.088519	0.388482
C110	C	1.851784	0.244815	0.721815
C111	C	2.185118	0.578148	1.055148
C112	C	1.518277	-0.388444	0.178917
C113	C	1.851610	-0.055110	0.512251
C114	C	2.184944	0.278223	0.845584
C115	C	1.518458	-0.388239	0.089297
C116	C	1.851792	-0.054906	0.422630
C117	C	2.185125	0.278428	0.755963
C118	C	1.518358	-0.388355	0.761121
C119	C	1.851692	-0.055022	1.094454
C120	C	2.185025	0.278312	1.427788
C121	C	1.518383	-0.388325	0.852429
C122	C	1.851716	-0.054992	1.185763
C123	C	2.185049	0.278342	1.519096
C124	C	1.518408	-0.388297	0.925206
C125	C	1.851741	-0.054963	1.258539
C126	C	2.185074	0.278370	1.591873
C127	C	1.518434	-0.388267	1.016520
C128	C	1.851767	-0.054934	1.349854
C129	C	2.185100	0.278399	1.683187
H130	H	0.919204	-0.481898	0.294694
H131	H	1.252537	-0.148564	0.628027
H132	H	1.585871	0.184769	0.961361
H133	H	0.929982	-0.218161	0.477484
H134	H	1.263316	0.115172	0.810817
H135	H	1.596649	0.448505	1.144150
H136	H	0.934257	-0.294322	0.562155
H137	H	1.267590	0.039012	0.895488
H138	H	1.600923	0.372345	1.228822
H139	H	1.103515	-0.215019	0.483116
H140	H	1.436848	0.118314	0.816450
H141	H	1.770181	0.451648	1.149783
H142	H	1.107790	-0.299937	0.559005
H143	H	1.441124	0.033396	0.892338
H144	H	1.774457	0.366730	1.225671
H145	H	1.118267	-0.481862	0.294671
H146	H	1.451600	-0.148529	0.628005
H147	H	1.784933	0.184805	0.961338
