data_functionalizedCrystal
_audit_creation_method	'MofGen! by Chris Wilmer'
_symmetry_space_group_name_H-M	'P1'
_symmetry_Int_Tables_number	1
_symmetry_cell_setting	triclinic
loop_
_symmetry_equiv_pos_as_xyz
  x,y,z
_cell_length_a	16.959455
_cell_length_b	16.959447
_cell_length_c	14.908520
_cell_angle_alpha	93.266153
_cell_angle_beta	93.319742
_cell_angle_gamma	89.980656
loop_
_atom_site_label
_atom_site_type_symbol
_atom_site_fract_x
_atom_site_fract_y
_atom_site_fract_z
Zn1	Zn	1.190232	-0.465109	-0.359165
Zn2	Zn	1.182514	-0.340554	-0.510042
Zn3	Zn	1.058052	-0.332942	-0.359199
Zn4	Zn	1.050394	-0.472684	-0.509979
O5	O	1.120298	-0.402822	-0.434596
O6	O	1.299818	-0.448602	-0.379191
O7	O	1.165979	-0.228936	-0.490072
O8	O	1.082021	-0.344119	-0.232950
O9	O	1.294148	-0.357092	-0.490039
O10	O	1.179132	-0.441221	-0.232925
O11	O	1.074538	-0.223343	-0.379249
O12	O	0.946426	-0.351464	-0.379188
O13	O	1.068968	-0.582288	-0.489933
O14	O	0.940799	-0.454132	-0.489966
O15	O	1.171707	-0.576723	-0.379131
O16	O	1.158553	-0.364438	-0.636278
O17	O	1.061485	-0.461513	-0.636232
C18	C	0.914933	-0.402795	-0.434575
C19	C	0.827076	-0.402802	-0.434587
C20	C	0.788712	-0.349425	-0.376828
C21	C	0.782885	-0.456192	-0.492353
C22	C	0.700339	-0.456204	-0.492363
C23	C	0.661975	-0.402827	-0.434604
C24	C	0.706158	-0.349437	-0.376835
C25	C	0.656151	-0.509598	-0.550125
C26	C	0.573599	-0.509613	-0.550137
C27	C	0.535234	-0.456231	-0.492382
C28	C	0.579421	-0.402839	-0.434611
C29	C	0.541058	-0.349461	-0.376852
C30	C	0.585244	-0.296064	-0.319084
C31	C	0.667792	-0.296055	-0.319079
C32	C	0.452685	-0.456240	-0.492387
C33	C	0.458504	-0.349473	-0.376858
C34	C	1.120344	-0.608987	-0.434521
C35	C	1.120364	-0.696842	-0.434489
C36	C	1.072829	-1.065407	-0.376693
C37	C	1.168047	-1.071218	-0.492095
C38	C	1.168033	-0.988674	-0.492116
C39	C	1.120414	-0.944492	-0.434426
C40	C	1.072811	-0.982855	-0.376715
C41	C	1.215629	-0.950305	-0.549833
C42	C	1.215616	-0.867755	-0.549857
C43	C	1.168001	-0.823571	-0.492161
C44	C	1.120396	-0.861939	-0.434447
C45	C	1.072778	-0.817758	-0.376757
C46	C	1.025177	-0.856124	-0.319037
C47	C	1.025196	-0.938672	-0.319019
C48	C	1.167982	-0.741024	-0.492179
C49	C	1.072760	-0.735205	-0.376778
C50	C	1.326465	-0.402851	-0.434618
C51	C	1.414321	-0.402863	-0.434628
C52	C	1.108372	-0.414640	-0.668989
C53	C	1.103342	-0.419723	-0.769263
C54	C	1.120301	-0.197457	-0.434606
C55	C	1.120447	-0.109589	-0.434384
C56	C	1.195072	-0.328270	-0.957675
C57	C	1.190349	-0.333042	-1.051892
C58	C	1.089178	-0.434044	-1.051914
C59	C	1.093901	-0.429271	-0.957697
C60	C	1.146849	-0.376382	-0.910581
C61	C	1.151568	-0.371606	-0.816363
C62	C	1.050401	-0.472611	-0.816387
C63	C	1.045678	-0.477383	-0.910604
C64	C	1.132292	-0.390975	-0.199288
C65	C	1.137403	-0.385927	-0.099014
H66	H	0.703776	-0.252583	-0.272048
H67	H	1.011132	-0.511784	-0.778033
H68	H	1.046075	-0.477110	-1.090292
H69	H	0.553997	-0.252608	-0.272053
Br70	Br	1.232659	-1.131180	-0.570396
Br71	Br	0.973828	-0.549163	-0.974555
Br72	Br	1.008235	-1.117472	-0.298357
Br73	Br	1.008138	-0.675250	-0.298472
H74	H	1.229619	-0.293866	-1.090232
Br75	Br	0.708218	-0.582021	-0.628524
Br76	Br	0.960554	-0.796153	-0.240747
H77	H	0.824691	-0.305949	-0.329798
H78	H	1.194679	-0.328538	-0.778002
Br79	Br	0.960599	-0.990744	-0.240694
H80	H	1.254388	-0.986284	-0.596811
Br81	Br	1.266913	-0.256479	-0.893727
Br82	Br	0.834950	-0.528625	-0.570742
H83	H	0.537630	-0.553091	-0.597176
Br84	Br	0.406445	-0.277022	-0.298474
Br85	Br	1.280218	-0.815693	-0.628185
Br86	Br	1.232569	-0.688958	-0.570515
Br87	Br	0.392722	-0.528708	-0.570770
