data_functionalizedCrystal
_audit_creation_method	'MofGen! by Chris Wilmer'
_symmetry_space_group_name_H-M	'P1'
_symmetry_Int_Tables_number	1
_symmetry_cell_setting	triclinic
loop_
_symmetry_equiv_pos_as_xyz
  x,y,z
_cell_length_a	23.532407
_cell_length_b	14.853567
_cell_length_c	13.930277
_cell_angle_alpha	90.000757
_cell_angle_beta	89.990330
_cell_angle_gamma	96.758196
loop_
_atom_site_label
_atom_site_type_symbol
_atom_site_fract_x
_atom_site_fract_y
_atom_site_fract_z
O1	O	0.755739	-0.109437	-0.079877
O2	O	0.589945	-0.125272	-0.079866
O3	O	0.677271	0.013923	-0.079875
O4	O	0.668414	-0.248633	-0.079868
O5	O	0.677259	0.013926	0.079787
O6	O	0.589933	-0.125269	0.079796
O7	O	0.755727	-0.109435	0.079785
Zn8	Zn	0.672828	-0.117352	0.105140
Zn9	Zn	0.672844	-0.117355	-0.105221
O10	O	0.668402	-0.248630	0.079793
C11	C	0.568721	-0.124868	-0.000034
C12	C	0.505499	-0.123655	-0.000030
C13	C	0.676864	0.047509	-0.000047
C14	C	0.675661	0.147580	-0.000055
C15	C	0.776951	-0.109839	-0.000050
C16	C	0.840174	-0.111052	-0.000060
C17	C	1.238950	-0.036283	-0.000028
C18	C	1.298355	-0.037409	-0.000024
O19	O	1.334797	0.031903	0.000009
N20	N	1.321343	-0.120161	-0.000025
C21	C	1.284921	-0.201791	-0.000020
O22	O	1.309929	-0.272282	-0.000020
C23	C	1.225517	-0.200664	-0.000018
C24	C	1.202534	-0.117907	-0.000027
C25	C	1.215966	0.046468	-0.000036
C26	C	1.156565	0.047594	-0.000042
C27	C	1.120148	-0.034031	-0.000041
C28	C	1.143133	-0.116781	-0.000033
C29	C	1.189097	-0.282294	-0.000006
C30	C	1.129690	-0.281160	-0.000003
C31	C	1.106706	-0.198403	-0.000012
C32	C	1.047315	-0.197280	-0.000037
N33	N	1.024328	-0.114528	-0.000036
C34	C	1.060744	-0.032904	-0.000038
C35	C	1.409674	-0.204152	-0.000024
C36	C	1.469077	-0.205280	-0.000033
C37	C	1.482507	-0.040897	-0.000035
C38	C	1.423103	-0.039770	-0.000033
C39	C	1.386687	-0.121400	-0.000023
C40	C	0.935997	-0.030546	-0.000052
C41	C	0.876590	-0.029427	-0.000062
C42	C	0.863166	-0.193810	-0.000054
C43	C	0.922567	-0.194929	-0.000049
C44	C	0.958982	-0.113289	-0.000045
O45	O	1.010838	-0.266555	-0.000066
O46	O	1.035729	0.037575	-0.000026
C47	C	0.668809	-0.282216	-0.000037
C48	C	0.670012	-0.382286	-0.000035
N49	N	0.672822	-0.117348	0.248706
C50	C	0.618704	0.559490	-0.000033
C51	C	0.722449	0.581906	-0.000040
C52	C	0.723580	0.487885	-0.000046
C53	C	0.672272	0.429662	-0.000044
C54	C	0.619833	0.465460	-0.000036
C55	C	0.776017	0.452079	-0.000044
C56	C	0.777150	0.358053	-0.000048
C57	C	0.725842	0.299828	-0.000053
C58	C	0.673401	0.335631	-0.000046
C59	C	0.622093	0.277408	-0.000044
C60	C	0.569652	0.313210	-0.000044
C61	C	0.568524	0.407235	-0.000041
C62	C	0.726969	0.205803	-0.000057
C63	C	0.623222	0.183378	-0.000047
N64	N	0.672856	-0.117351	-0.248788
C65	C	0.634175	-0.178967	0.700979
C66	C	0.711529	-0.055736	0.700941
C67	C	0.711523	-0.055734	0.600445
C68	C	0.672842	-0.117349	0.550212
C69	C	0.634168	-0.178968	0.600474
C70	C	0.750200	0.005878	0.550175
C71	C	0.750195	0.005882	0.449673
C72	C	0.711511	-0.055730	0.399438
C73	C	0.672835	-0.117350	0.449707
C74	C	0.634155	-0.178966	0.399473
C75	C	0.595475	-0.240583	0.449740
C76	C	0.595484	-0.240580	0.550239
C77	C	0.711502	-0.055733	0.298939
C78	C	0.634148	-0.178967	0.298968
H79	H	0.857880	0.037967	-0.000071
O80	O	0.787705	0.065945	0.400992
C81	C	0.778320	0.155049	0.425726
H82	H	0.732707	0.155006	0.453314
H83	H	0.784844	0.200466	0.359723
H84	H	0.809821	0.181728	0.484138
H85	H	0.563984	-0.290755	0.408829
O86	O	0.971284	0.048840	-0.000097
C87	C	0.938248	0.122110	-0.000084
H88	H	0.893938	0.098802	-0.030308
H89	H	0.960107	0.179267	-0.046447
H90	H	0.933986	0.147509	0.076510
H91	H	1.380027	-0.270630	-0.000023
H92	H	0.769666	0.176657	-0.000051
O93	O	0.749047	0.004078	0.749882
C94	C	0.740772	-0.009153	0.849364
H95	H	0.695524	-0.043214	0.863111
H96	H	0.747058	0.059170	0.887562
H97	H	0.773042	-0.054113	0.877863
O98	O	0.519760	0.256777	-0.000001
C99	C	0.473231	0.308530	-0.000030
H100	H	0.487623	0.378843	0.030196
H101	H	0.437275	0.273517	0.046324
H102	H	0.457169	0.315077	-0.076629
H103	H	0.764221	0.629316	-0.000034
O104	O	1.211488	-0.362624	0.000119
C105	C	1.245431	-0.368212	0.082817
H106	H	1.260162	-0.297024	0.110389
H107	H	1.284361	-0.403791	0.064210
H108	H	1.219218	-0.408341	0.140719
H109	H	0.525829	0.436394	-0.000040
O110	O	1.134337	0.128064	0.000004
C111	C	1.179227	0.199856	-0.000016
H112	H	1.219597	0.174943	0.030205
H113	H	1.166764	0.257665	0.046345
H114	H	1.187618	0.225013	-0.076612
H115	H	1.100042	-0.347635	0.000010
H116	H	1.487785	-0.272669	-0.000039
O117	O	1.400712	0.040563	0.000093
C118	C	1.366759	0.046153	0.082798
H119	H	1.352021	-0.025036	0.110371
H120	H	1.327833	0.081738	0.064203
H121	H	1.392967	0.086275	0.140697
H122	H	0.563994	-0.290747	0.591172
O123	O	0.596629	-0.238947	0.250219
C124	C	0.605944	-0.328117	0.274796
H125	H	0.651539	-0.328192	0.302404
H126	H	0.599424	-0.373420	0.208708
H127	H	0.574403	-0.354845	0.333146
O128	O	0.596659	-0.238786	0.749950
C129	C	0.604944	-0.225560	0.849426
H130	H	0.650194	-0.191501	0.863138
H131	H	0.598661	-0.293885	0.887623
H132	H	0.572679	-0.180600	0.877958
O133	O	0.787689	0.065814	0.599021
C134	C	0.757145	0.121167	0.657181
H135	H	0.712236	0.122330	0.626900
H136	H	0.780324	0.193012	0.658327
H137	H	0.754177	0.092920	0.733345
O138	O	0.749014	0.004227	0.250142
C139	C	0.739714	0.093408	0.274711
H140	H	0.694125	0.093502	0.302370
H141	H	0.746225	0.138694	0.208607
H142	H	0.771269	0.120142	0.333021
O143	O	0.567751	0.594220	-0.000203
C144	C	0.536472	0.564403	-0.082880
H145	H	0.567139	0.545113	-0.140675
H146	H	0.512201	0.621150	-0.110638
H147	H	0.504783	0.502835	-0.064182
H148	H	1.245611	0.112940	-0.000035
H149	H	1.512169	0.025566	-0.000037
H150	H	0.941281	-0.262316	-0.000043
H151	H	0.817789	0.499491	-0.000036
H152	H	0.833505	-0.260266	-0.000058
H153	H	0.581440	0.135978	-0.000050
O154	O	0.828138	0.323429	-0.000097
C155	C	0.873180	0.394981	-0.000072
H156	H	0.857170	0.458722	-0.030291
H157	H	0.909789	0.375660	-0.046432
H158	H	0.889005	0.408421	0.076526
