data_functionalizedCrystal
_audit_creation_method	'MofGen! by Chris Wilmer'
_symmetry_space_group_name_H-M	'P1'
_symmetry_Int_Tables_number	1
_symmetry_cell_setting	triclinic
loop_
_symmetry_equiv_pos_as_xyz
  x,y,z
_cell_length_a	14.971496
_cell_length_b	14.971482
_cell_length_c	14.048226
_cell_angle_alpha	90.007580
_cell_angle_beta	90.003149
_cell_angle_gamma	83.615366
loop_
_atom_site_label
_atom_site_type_symbol
_atom_site_fract_x
_atom_site_fract_y
_atom_site_fract_z
O1	O	0.116542	1.186956	0.079150
O2	O	0.130505	0.926556	0.079155
O3	O	-0.006676	1.063731	0.079144
O4	O	0.253723	1.049781	0.079161
O5	O	-0.006673	1.063709	-0.079177
O6	O	0.130508	0.926534	-0.079166
O7	O	0.116546	1.186934	-0.079171
Zn8	Zn	0.123528	1.056730	-0.104306
Zn9	Zn	0.123523	1.056759	0.104290
O10	O	0.253727	1.049759	-0.079160
C11	C	0.129883	0.893220	-0.000005
C12	C	0.128013	0.793923	-0.000003
C13	C	0.127135	0.747266	-0.086305
C14	C	0.125364	0.653967	-0.086307
C15	C	0.124478	0.607327	-0.000005
C16	C	0.125354	0.653990	0.086304
C17	C	0.127118	0.747288	0.086304
C18	C	0.121679	0.459528	0.086298
C19	C	0.119916	0.366224	0.086298
C20	C	0.119924	0.366208	-0.086313
C21	C	0.121688	0.459505	-0.086313
C22	C	0.122566	0.506162	-0.000004
C23	C	-0.039999	1.063094	-0.000017
C24	C	-0.139295	1.061220	-0.000017
C25	C	-0.567001	1.053164	0.086309
C26	C	-0.473702	1.054930	0.086305
C27	C	-0.427057	1.055795	0.000000
C28	C	-0.473716	1.054903	-0.086306
C29	C	-0.567015	1.053143	-0.086301
C30	C	-0.279253	1.058568	-0.086311
C31	C	-0.185948	1.060325	-0.086316
C32	C	-0.185941	1.060354	0.086295
C33	C	-0.279239	1.058595	0.086300
C34	C	-0.325892	1.057701	-0.000007
C35	C	0.287049	1.050395	0.000003
C36	C	0.386346	1.052270	0.000010
C37	C	0.117168	1.220270	-0.000009
C38	C	0.119037	1.319567	-0.000004
N39	N	0.123530	1.056717	-0.246666
C40	C	0.062795	1.117529	-0.703511
C41	C	0.062801	1.117521	-0.603853
C42	C	0.123522	1.056759	-0.554036
C43	C	0.184247	0.996006	-0.603882
C44	C	0.184245	0.996019	-0.703538
C45	C	0.184247	0.995982	-0.396168
C46	C	0.184249	0.995967	-0.296505
C47	C	0.062803	1.117484	-0.296483
C48	C	0.062801	1.117497	-0.396139
C49	C	0.123525	1.056743	-0.445978
N50	N	0.123513	1.056780	0.246650
H51	H	0.127863	0.785233	-0.156583
H52	H	0.122415	0.497477	-0.156588
N53	N	0.249738	0.930458	-0.449933
H54	H	0.313241	0.940816	-0.432585
H55	H	0.239249	0.866996	-0.432589
H56	H	-0.147950	1.061075	0.156568
H57	H	0.124633	0.615986	-0.156582
N58	N	-0.002697	1.183073	-0.757233
H59	H	0.031555	1.222710	-0.798566
H60	H	-0.042348	1.148800	-0.798538
N61	N	-0.002682	1.183036	-0.449877
H62	H	0.031580	1.222666	-0.491209
H63	H	-0.042326	1.148759	-0.491185
N64	N	0.118981	0.315887	-0.179403
H65	H	0.118988	0.249554	-0.166312
H66	H	0.063248	0.338520	-0.216518
H67	H	0.233692	0.946535	-0.563316
H68	H	0.119195	0.328251	0.156572
H69	H	-0.147968	1.061001	-0.156593
N70	N	-0.617334	1.052183	-0.179383
H71	H	-0.648860	0.996052	-0.183229
H72	H	-0.663183	1.106899	-0.183167
H73	H	0.013360	1.166951	-0.255898
H74	H	0.233689	0.946552	-0.744116
H75	H	0.127836	0.785274	0.156580
N76	N	0.249743	0.930434	-0.242774
H77	H	0.313243	0.940809	-0.260104
H78	H	0.240445	0.939678	-0.172098
N79	N	-0.617311	1.052241	0.179395
H80	H	-0.663209	1.106918	0.183227
H81	H	-0.648776	0.996074	0.183196
H82	H	-0.317235	1.057841	-0.156591
H83	H	0.122394	0.497513	0.156580
N84	N	0.124391	0.603683	0.179384
H85	H	0.179064	0.557781	0.183237
H86	H	0.125179	0.647457	0.234005
H87	H	-0.435722	1.055660	0.156578
N88	N	-0.329563	1.057739	0.179382
H89	H	-0.285857	1.058602	0.234056
H90	H	-0.375433	1.112445	0.183073
N91	N	-0.423404	1.055844	-0.179389
H92	H	-0.377505	1.001168	-0.183236
H93	H	-0.467176	1.055047	-0.234007
N94	N	-0.002688	1.183045	-0.550098
H95	H	0.007719	1.246535	-0.567432
H96	H	-0.066161	1.172601	-0.567468
