data_functionalizedCrystal
_audit_creation_method	'MofGen! by Chris Wilmer'
_symmetry_space_group_name_H-M	'P1'
_symmetry_Int_Tables_number	1
_symmetry_cell_setting	triclinic
loop_
_symmetry_equiv_pos_as_xyz
  x,y,z
_cell_length_a	16.120530
_cell_length_b	12.759394
_cell_length_c	12.759387
_cell_angle_alpha	90.032817
_cell_angle_beta	87.081456
_cell_angle_gamma	92.889523
loop_
_atom_site_label
_atom_site_type_symbol
_atom_site_fract_x
_atom_site_fract_y
_atom_site_fract_z
Zn1	Zn	1.274620	0.499749	-0.675419
Zn2	Zn	1.274537	0.675464	-0.499732
Zn3	Zn	1.135198	0.490885	-0.490850
Zn4	Zn	1.135188	0.666465	-0.666470
O5	O	1.204886	0.583141	-0.583118
O6	O	1.391276	0.530533	-0.659577
O7	O	1.256023	0.651035	-0.351531
O8	O	1.153732	0.345042	-0.515362
O9	O	1.391215	0.659630	-0.530500
O10	O	1.256165	0.351554	-0.650964
O11	O	1.153652	0.515426	-0.345005
O12	O	1.018530	0.506700	-0.506684
O13	O	1.153714	0.644294	-0.814680
O14	O	1.018523	0.635699	-0.635711
O15	O	1.256155	0.521808	-0.821255
O16	O	1.256013	0.821289	-0.521821
O17	O	1.153634	0.814678	-0.644323
C18	C	1.204836	0.856105	-0.583089
C19	C	1.204891	0.972885	-0.583117
C20	C	0.988276	0.569262	-0.569263
C21	C	0.895609	0.563350	-0.563361
C22	C	1.204943	0.583036	-0.857155
C23	C	1.204967	0.582991	-0.973933
C24	C	0.725946	0.552531	-0.552594
C25	C	0.684667	0.613827	-0.613718
C26	C	0.590260	0.607808	-0.607728
C27	C	0.820361	0.558549	-0.558583
C28	C	1.422342	0.597074	-0.597027
C29	C	1.515009	0.603012	-0.602955
C30	C	1.204959	0.309112	-0.583171
C31	C	1.204990	0.192337	-0.583194
C32	C	1.311579	0.979721	-0.455662
C33	C	1.364944	1.038001	-0.391948
C34	C	1.364993	1.147726	-0.391980
C35	C	1.311672	1.199173	-0.455734
C36	C	1.258307	1.140892	-0.519448
C37	C	1.258262	1.031166	-0.519407
C38	C	1.151625	1.134057	-0.646907
C39	C	1.151570	1.024332	-0.646872
C40	C	1.098304	1.185504	-0.710662
C41	C	1.044933	1.127223	-0.774372
C42	C	1.044885	1.017492	-0.774336
C43	C	1.098205	0.966052	-0.710585
C44	C	1.098374	0.441772	-0.967158
C45	C	1.045093	0.371143	-1.018632
C46	C	1.045118	0.371106	-1.128355
C47	C	1.098428	0.441709	-1.186607
C48	C	1.151709	0.512338	-1.135133
C49	C	1.151680	0.512365	-1.025407
C50	C	1.258296	0.653561	-1.141908
C51	C	1.258277	0.653594	-1.032185
C52	C	1.311606	0.724163	-1.200160
C53	C	1.364893	0.794789	-1.148687
C54	C	1.364866	0.794822	-1.038956
C55	C	1.311558	0.724223	-0.980711
C56	C	1.204878	0.583172	-0.310150
C57	C	1.205015	0.582931	-0.193382
H58	H	0.720228	0.670823	-0.670549
N59	N	1.419503	1.207276	-0.326911
N60	N	1.472639	1.271822	-0.367340
H61	H	1.511136	1.313880	-0.321385
N62	N	0.681343	0.481022	-0.481315
N63	N	0.632756	0.411080	-0.515371
H64	H	0.601246	0.360578	-0.465029
N65	N	1.098177	0.853973	-0.710543
N66	N	1.163189	0.809085	-0.736698
H67	H	1.163175	0.729928	-0.736668
H68	H	1.311533	0.890377	-0.455615
N69	N	1.098339	0.441810	-0.855078
N70	N	1.080868	0.522652	-0.804958
H71	H	1.080840	0.522676	-0.725800
H72	H	1.098436	0.441682	-1.275949
H73	H	1.408359	0.996104	-0.340042
N74	N	1.311745	1.311254	-0.455772
N75	N	1.359404	1.363278	-0.398891
H76	H	1.359457	1.442437	-0.398919
H77	H	1.311619	0.724134	-1.289502
N78	N	1.419361	0.866891	-1.208172
N79	N	1.466942	0.929935	-1.162207
H80	H	1.505416	0.980854	-1.204221
H81	H	1.001687	0.313662	-0.971191
H82	H	1.408257	0.852334	-0.997053
H83	H	1.098351	1.274848	-0.710688
H84	H	1.001527	1.169120	-0.826280
N85	N	1.311530	0.724229	-0.868632
N86	N	1.263934	0.661184	-0.816640
H87	H	1.263912	0.661184	-0.737482
H88	H	1.001731	0.313595	-1.170265
N89	N	0.990374	0.957980	-0.839436
N90	N	0.942779	1.003932	-0.896353
H91	H	0.904280	0.961906	-0.942333
