data_functionalizedCrystal
_audit_creation_method	'MofGen! by Chris Wilmer'
_symmetry_space_group_name_H-M	'P1'
_symmetry_Int_Tables_number	1
_symmetry_cell_setting	triclinic
loop_
_symmetry_equiv_pos_as_xyz
  x,y,z
_cell_length_a	6.817900
_cell_length_b	16.015009
_cell_length_c	12.200875
_cell_angle_alpha	77.060380
_cell_angle_beta	107.143593
_cell_angle_gamma	104.487874
loop_
_atom_site_label
_atom_site_type_symbol
_atom_site_fract_x
_atom_site_fract_y
_atom_site_fract_z
V1	V	-4.046948	-0.119720	-0.307674
O2	O	-4.056030	0.005551	-0.353170
O3	O	-3.977214	-0.237190	-0.256180
O4	O	-4.016984	-0.117967	-0.464394
O5	O	-4.015984	-0.114498	-0.143515
V6	V	-4.530952	-0.104726	-0.294039
O7	O	-4.307153	-0.152611	-0.337583
O8	O	-4.720945	-0.071834	-0.264130
O9	O	-4.377480	0.012745	-0.345533
O10	O	-4.639267	-0.229997	-0.248543
O11	O	-4.679313	-0.109948	-0.458198
O12	O	-4.337709	-0.106479	-0.137319
C13	C	-3.816428	-0.265824	-0.238582
C14	C	-3.840822	-0.361859	-0.197524
C15	C	-3.824971	-0.484823	-0.039787
C16	C	-3.802054	-0.394586	-0.078379
C17	C	-3.902536	-0.419364	-0.278125
C18	C	-3.925471	-0.509606	-0.239551
C19	C	-3.886683	-0.542327	-0.120381
C20	C	-3.987183	-0.567110	-0.320144
C21	C	-4.010106	-0.657343	-0.281572
C22	C	-3.971317	-0.690072	-0.162406
C23	C	-3.909605	-0.632561	-0.081808
C24	C	-4.025956	-0.534386	-0.439313
C25	C	-4.087668	-0.591890	-0.519907
C26	C	-4.110606	-0.682126	-0.481335
C27	C	-4.071817	-0.714855	-0.362170
C28	C	-4.172317	-0.739637	-0.561933
C29	C	-4.195240	-0.829871	-0.523361
C30	C	-4.094740	-0.805088	-0.323597
C31	C	-3.867158	-0.113742	-0.504179
C32	C	-3.923802	-0.113086	-0.631974
C33	C	-4.027468	-0.111886	-0.865949
C34	C	-3.969772	-0.112554	-0.735749
C35	C	-4.201606	0.041374	-0.363126
C36	C	-4.156452	0.137408	-0.404191
C37	C	-4.150876	-0.110706	-0.097527
C38	C	-4.073472	-0.111358	0.030268
H39	H	-3.751784	-0.347766	-0.012741
F40	F	-4.053475	-0.839918	-0.196762
F41	F	-4.213559	-0.704800	-0.688758
F42	F	-4.001549	-0.438350	-0.480363
H43	H	-3.793400	-0.511467	0.057252
F44	F	-4.260987	-0.891076	-0.609138
H45	H	-3.934104	-0.392709	-0.375154
F46	F	-4.128929	-0.557055	-0.646732
H47	H	-3.989971	-0.763546	-0.131002
H48	H	-3.878034	-0.659204	0.015232
