data_functionalizedCrystal
_audit_creation_method	'MofGen! by Chris Wilmer'
_symmetry_space_group_name_H-M	'P1'
_symmetry_Int_Tables_number	1
_symmetry_cell_setting	triclinic
loop_
_symmetry_equiv_pos_as_xyz
  x,y,z
_cell_length_a	12.837943
_cell_length_b	13.339070
_cell_length_c	11.892095
_cell_angle_alpha	94.950121
_cell_angle_beta	85.689438
_cell_angle_gamma	105.229117
loop_
_atom_site_label
_atom_site_type_symbol
_atom_site_fract_x
_atom_site_fract_y
_atom_site_fract_z
O1	O	1.458153	0.264493	-0.093975
O2	O	1.958153	0.764493	0.406025
O3	O	1.152505	0.251131	-0.093982
O4	O	1.652505	0.751131	0.406018
O5	O	1.270251	0.107167	-0.093976
O6	O	1.770251	0.607167	0.406024
O7	O	1.340408	0.408457	-0.093981
O8	O	1.840408	0.908457	0.406019
O9	O	1.260427	0.119150	0.094031
O10	O	1.760427	0.619150	0.594031
O11	O	1.142682	0.263114	0.094025
O12	O	1.642682	0.763114	0.594025
O13	O	1.448330	0.276476	0.094032
O14	O	1.948330	0.776476	0.594032
Zn15	Zn	1.293946	0.271697	0.123879
Zn16	Zn	1.793946	0.771697	0.623879
Zn17	Zn	1.306889	0.255909	-0.123828
Zn18	Zn	1.806889	0.755909	0.376172
O19	O	1.330585	0.420439	0.094026
O20	O	1.830585	0.920439	0.594026
C21	C	1.107675	0.252608	0.000021
C22	C	1.607675	0.752608	0.500021
C23	C	0.988726	0.239146	0.000018
C24	C	1.488726	0.739146	0.500018
C25	C	0.794315	0.400986	0.000032
C26	C	1.294315	0.900986	0.500032
C27	C	0.682553	0.388342	0.000030
C28	C	1.182553	0.888342	0.500030
C29	C	0.653436	0.201215	0.000021
C30	C	1.153436	0.701215	0.500021
C31	C	0.765199	0.213859	0.000023
C32	C	1.265199	0.713859	0.500023
C33	C	0.835635	0.313748	0.000026
C34	C	1.335635	0.813748	0.500026
C35	C	0.947400	0.326390	0.000020
C36	C	1.447400	0.826390	0.500020
C37	C	0.918281	0.139265	0.000019
C38	C	1.418281	0.639265	0.500019
C39	C	0.806519	0.126621	0.000017
C40	C	1.306519	0.626621	0.500017
C41	C	1.253488	0.074327	0.000026
C42	C	1.753488	0.574327	0.500026
C43	C	1.218164	-0.041381	0.000021
C44	C	1.718164	0.458619	0.500021
C45	C	1.492830	-0.379696	0.000028
C46	C	1.992830	0.120304	0.500028
C47	C	1.526022	-0.270983	0.000039
C48	C	2.026022	0.229017	0.500039
C49	C	1.449060	-0.213577	0.000034
C50	C	1.949060	0.286423	0.500034
C51	C	1.338901	-0.264895	0.000018
C52	C	1.838901	0.235105	0.500018
C53	C	1.305705	-0.373618	0.000016
C54	C	1.805705	0.126382	0.500016
C55	C	1.261935	-0.207499	0.000022
C56	C	1.761935	0.292501	0.500022
C57	C	1.151776	-0.258817	0.000007
C58	C	1.651776	0.241183	0.500007
C59	C	1.118585	-0.367530	0.000003
C60	C	1.618585	0.132470	0.500003
C61	C	1.195547	-0.424936	0.000008
C62	C	1.695547	0.075064	0.500008
C63	C	1.295131	-0.098776	0.000025
C64	C	1.795131	0.401224	0.500025
C65	C	1.108006	-0.092698	0.000013
C66	C	1.608006	0.407302	0.500013
C67	C	1.074814	-0.201411	0.000002
C68	C	1.574814	0.298589	0.500002
C69	C	1.493161	0.274998	0.000027
C70	C	1.993161	0.774998	0.500027
C71	C	1.612110	0.288460	0.000023
C72	C	2.112110	0.788460	0.500023
C73	C	1.347347	0.453280	0.000022
C74	C	1.847347	0.953280	0.500022
C75	C	1.382672	0.568986	0.000020
C76	C	1.882672	1.068986	0.500020
N77	N	1.285121	0.282472	0.292933
N78	N	1.785121	0.782472	0.792933
N79	N	1.315720	0.245127	-0.292882
N80	N	1.815720	0.745127	0.207118
C81	C	1.377114	0.170089	0.529585
C82	C	1.877114	0.670089	1.029585
C83	C	1.370955	0.177629	0.647927
C84	C	1.870955	0.677629	1.147927
C85	C	1.266638	0.305086	0.647959
C86	C	1.766638	0.805086	1.147959
C87	C	1.272797	0.297546	0.529618
C88	C	1.772797	0.797546	1.029618
C89	C	1.328038	0.230047	0.470435
C90	C	1.828038	0.730047	0.970435
C91	C	1.334203	0.222513	0.352091
C92	C	1.834203	0.722513	0.852091
C93	C	1.229880	0.349963	0.352126
C94	C	1.729880	0.849963	0.852126
C95	C	1.223721	0.357503	0.470468
C96	C	1.723721	0.857503	0.970468
H97	H	0.851666	0.482319	0.000033
H98	H	1.351666	0.982319	0.500033
H99	H	1.555480	-0.426445	0.000041
H100	H	2.055480	0.073555	0.500041
Br101	Br	1.409179	0.130913	0.271773
Br102	Br	1.909179	0.630913	0.771773
H103	H	0.749154	0.045295	0.000027
H104	H	1.249154	0.545295	0.500027
Br105	Br	0.974363	0.020861	-0.000012
Br106	Br	1.474363	0.520861	0.499988
Br107	Br	0.626478	0.506742	0.000045
Br108	Br	1.126478	1.006742	0.500045
Br109	Br	1.444628	-0.029143	0.000050
Br110	Br	1.944628	0.470857	0.500050
Br111	Br	0.557827	0.065664	0.000036
Br112	Br	1.057827	0.565664	0.500036
H113	H	1.422103	0.115136	0.481398
H114	H	1.922103	0.615136	0.981398
H115	H	1.410916	0.128805	0.696084
H116	H	1.910916	0.628805	1.196084
H117	H	1.178741	0.412457	0.518668
H118	H	1.678741	0.912457	1.018668
H119	H	1.476092	-0.125058	0.000044
H120	H	1.976092	0.374942	0.500044
H121	H	1.615714	-0.229208	0.000053
H122	H	2.115714	0.270792	0.500053
H123	H	1.168527	-0.513460	-0.000005
H124	H	1.668527	-0.013460	0.499995
Br125	Br	1.191653	0.396672	0.728290
Br126	Br	1.691653	0.896672	1.228290
H127	H	1.189923	0.398788	0.303952
H128	H	1.689923	0.898788	0.803952
H129	H	1.028886	-0.409309	-0.000001
H130	H	1.528886	0.090691	0.499999
H131	H	0.985120	-0.243210	-0.000010
H132	H	1.485120	0.256790	0.499990
H133	H	1.004748	0.407725	0.000025
H134	H	1.504748	0.907725	0.500025
H135	H	1.045336	-0.045958	0.000015
H136	H	1.545336	0.454042	0.500015
