data_functionalizedCrystal
_audit_creation_method	'MofGen! by Chris Wilmer'
_symmetry_space_group_name_H-M	'P1'
_symmetry_Int_Tables_number	1
_symmetry_cell_setting	triclinic
loop_
_symmetry_equiv_pos_as_xyz
  x,y,z
_cell_length_a	13.032721
_cell_length_b	12.827893
_cell_length_c	12.827885
_cell_angle_alpha	90.021189
_cell_angle_beta	97.149035
_cell_angle_gamma	82.797428
loop_
_atom_site_label
_atom_site_type_symbol
_atom_site_fract_x
_atom_site_fract_y
_atom_site_fract_z
Zn1	Zn	-0.416040	-1.544791	-0.643702
Zn2	Zn	-0.590818	-1.522472	-0.491144
Zn3	Zn	-0.416085	-1.370027	-0.468976
Zn4	Zn	-0.590734	-1.347815	-0.665827
O5	O	-0.503419	-1.446276	-0.567412
O6	O	-0.439241	-1.688065	-0.623483
O7	O	-0.567693	-1.502204	-0.341974
O8	O	-0.269842	-1.411847	-0.473617
O9	O	-0.567649	-1.671666	-0.511399
O10	O	-0.269809	-1.540246	-0.601987
O11	O	-0.439317	-1.390204	-0.325687
O12	O	-0.439236	-1.220847	-0.495070
O13	O	-0.567507	-1.373989	-0.809121
O14	O	-0.567550	-1.204527	-0.639696
O15	O	-0.439159	-1.518707	-0.792866
O16	O	-0.737044	-1.480666	-0.532853
O17	O	-0.736982	-1.352346	-0.661192
C18	C	-0.503390	-1.174770	-0.567379
C19	C	-0.503402	-1.058615	-0.567393
C20	C	-0.439837	-0.894843	-0.495944
C21	C	-0.439822	-1.014895	-0.495928
C22	C	-0.774930	-1.411702	-0.601851
C23	C	-0.891084	-1.397007	-0.616620
C24	C	-0.942865	-1.454001	-0.559751
C25	C	-1.062916	-1.438814	-0.575014
C26	C	-0.230848	-1.481014	-0.532861
C27	C	-0.114694	-1.495817	-0.518138
C28	C	-0.503319	-1.446360	-0.839970
C29	C	-0.503276	-1.446396	-0.956117
C30	C	-0.503441	-0.718844	-0.567436
C31	C	-0.503428	-0.834998	-0.567422
C32	C	-0.439753	-1.518015	-0.999857
C33	C	-0.439708	-1.518054	-1.119902
C34	C	-0.503444	-1.446262	-0.295905
C35	C	-0.503192	-1.446467	-0.179721
H36	H	-0.557851	-1.007187	-0.628589
Br37	Br	-0.594149	-0.897728	-0.669412
H38	H	-0.898322	-1.514044	-0.499769
Br39	Br	-0.593861	-1.344232	-1.041818
H40	H	-1.070153	-1.555864	-0.458151
Br41	Br	-0.349096	-0.832116	-0.393971
H42	H	-0.385327	-1.579373	-1.157548
H43	H	-1.107457	-1.378776	-0.635008
H44	H	-0.385383	-1.066329	-0.434729
H45	H	-0.935630	-1.336973	-0.676610
Br46	Br	-0.349128	-1.620144	-0.914151
H47	H	-0.557583	-1.385151	-1.142082
