data_functionalizedCrystal
_audit_creation_method	'MofGen! by Chris Wilmer'
_symmetry_space_group_name_H-M	'P1'
_symmetry_Int_Tables_number	1
_symmetry_cell_setting	triclinic
loop_
_symmetry_equiv_pos_as_xyz
  x,y,z
_cell_length_a	16.120530
_cell_length_b	21.395361
_cell_length_c	21.395355
_cell_angle_alpha	90.021511
_cell_angle_beta	87.079043
_cell_angle_gamma	92.874023
loop_
_atom_site_label
_atom_site_type_symbol
_atom_site_fract_x
_atom_site_fract_y
_atom_site_fract_z
Zn1	Zn	1.274542	0.298157	-0.402756
Zn2	Zn	1.774542	0.798157	0.097244
Zn3	Zn	1.274412	0.402911	-0.297968
Zn4	Zn	1.774412	0.902911	0.202032
Zn5	Zn	1.135113	0.292835	-0.292686
Zn6	Zn	1.635113	0.792835	0.207314
Zn7	Zn	1.135072	0.397577	-0.397405
Zn8	Zn	1.635072	0.897577	0.102595
O9	O	1.204785	0.347870	-0.347704
O10	O	1.704785	0.847870	0.152296
O11	O	1.391190	0.316512	-0.393305
O12	O	1.891190	0.816512	0.106695
O13	O	1.255897	0.388315	-0.209588
O14	O	1.755897	0.888315	0.290412
O15	O	1.153680	0.205866	-0.307316
O16	O	1.653680	0.705866	0.192684
O17	O	1.391095	0.393475	-0.316318
O18	O	1.891095	0.893475	0.183682
O19	O	1.256118	0.209776	-0.388183
O20	O	1.756118	0.709776	0.111817
O21	O	1.153554	0.307442	-0.205707
O22	O	1.653554	0.807442	0.294293
O23	O	1.018442	0.302270	-0.302127
O24	O	1.518442	0.802270	0.197873
O25	O	1.153610	0.384383	-0.485794
O26	O	1.653610	0.884383	0.014206
O27	O	1.018412	0.379223	-0.379064
O28	O	1.518412	0.879223	0.120936
O29	O	1.256078	0.311340	-0.489725
O30	O	1.756078	0.811340	0.010275
O31	O	1.255857	0.489879	-0.311129
O32	O	1.755857	0.989879	0.188871
O33	O	1.153484	0.485960	-0.384185
O34	O	1.653484	0.985960	0.115815
C35	C	0.988177	0.339591	-0.339442
C36	C	1.488177	0.839591	0.160558
C37	C	0.895511	0.336064	-0.335923
C38	C	1.395511	0.836064	0.164077
C39	C	1.204675	0.510654	-0.347664
C40	C	1.704675	1.010654	0.152336
C41	C	1.204704	0.580296	-0.347672
C42	C	1.704704	1.080296	0.152328
C43	C	1.204854	0.347860	-0.511129
C44	C	1.704854	0.847860	-0.011129
C45	C	1.204884	0.347856	-0.580772
C46	C	1.704884	0.847856	-0.080772
C47	C	0.725850	0.329610	-0.329503
C48	C	1.225850	0.829610	0.170497
C49	C	0.684560	0.366176	-0.365950
C50	C	1.184560	0.866176	0.134050
C51	C	0.590155	0.362585	-0.362378
C52	C	1.090155	0.862585	0.137622
C53	C	0.820264	0.333200	-0.333074
C54	C	1.320264	0.833200	0.166926
C55	C	1.422238	0.356182	-0.355998
C56	C	1.922238	0.856182	0.144002
C57	C	1.514904	0.359724	-0.359532
C58	C	2.014904	0.859724	0.140468
C59	C	1.204918	0.184452	-0.347757
C60	C	1.704918	0.684452	0.152243
C61	C	1.204975	0.114813	-0.347780
C62	C	1.704975	0.614813	0.152220
C63	C	1.258056	0.615031	-0.309674
C64	C	1.758056	1.115031	0.190326
C65	C	1.258095	0.680468	-0.309690
C66	C	1.758095	1.180468	0.190310
C67	C	1.204767	0.711167	-0.347695
C68	C	1.704767	1.211167	0.152305
C69	C	1.151410	0.676424	-0.385701
C70	C	1.651410	1.176424	0.114299
C71	C	1.151379	0.610988	-0.385689
C72	C	1.651379	1.110988	0.114311
C73	C	1.129700	0.812017	-0.349748
C74	C	1.629700	1.312017	0.150252
C75	C	1.129730	0.877451	-0.349756
C76	C	1.629730	1.377451	0.150244
C77	C	1.204864	0.912991	-0.347736
C78	C	1.704864	1.412991	0.152264
C79	C	1.279969	0.883089	-0.345695
C80	C	1.779969	1.383089	0.154305
C81	C	1.279938	0.817654	-0.345683
C82	C	1.779938	1.317654	0.154317
C83	C	1.204795	0.782120	-0.347713
C84	C	1.704795	1.282120	0.152287
C85	C	1.258263	1.018680	-0.309753
C86	C	1.758263	1.518680	0.190247
C87	C	1.258303	1.084118	-0.309773
C88	C	1.758303	1.584118	0.190227
C89	C	1.151611	1.080073	-0.385781
C90	C	1.651611	1.580073	0.114219
C91	C	1.151578	1.014636	-0.385764
C92	C	1.651578	1.514636	0.114236
C93	C	1.204903	0.983944	-0.347747
C94	C	1.704903	1.483944	0.152253
C95	C	1.258236	0.309820	-0.615533
C96	C	1.758236	0.809820	-0.115533
C97	C	1.258235	0.309793	-0.680968
C98	C	1.758235	0.809793	-0.180968
C99	C	1.204890	0.347813	-0.711641
C100	C	1.704890	0.847813	-0.211641
C101	C	1.151527	0.385851	-0.676871
C102	C	1.651527	0.885851	-0.176871
C103	C	1.151524	0.385873	-0.611437
C104	C	1.651524	0.885873	-0.111437
C105	C	1.198269	0.403976	-0.815051
C106	C	1.698269	0.903976	-0.315051
C107	C	1.198278	0.403956	-0.880484
C108	C	1.698278	0.903956	-0.380484
C109	C	1.204895	0.347747	-0.913462
C110	C	1.704895	0.847747	-0.413462
C111	C	1.211521	0.291558	-0.880998
C112	C	1.711521	0.791558	-0.380998
C113	C	1.211517	0.291579	-0.815564
C114	C	1.711517	0.791579	-0.315564
C115	C	1.204887	0.347794	-0.782593
C116	C	1.704887	0.847794	-0.282593
C117	C	1.258249	0.309679	-1.019175
C118	C	1.758249	0.809679	-0.519175
C119	C	1.258242	0.309651	-1.084612
C120	C	1.758242	0.809651	-0.584612
C121	C	1.151539	0.385715	-1.080513
C122	C	1.651539	0.885715	-0.580513
C123	C	1.151541	0.385737	-1.015078
C124	C	1.651541	0.885737	-0.515078
C125	C	1.204901	0.347721	-0.984413
C126	C	1.704901	0.847721	-0.484413
C127	C	1.204764	0.347837	-0.184915
C128	C	1.704764	0.847837	0.315085
C129	C	1.204896	0.347671	-0.115279
C130	C	1.704896	0.847671	0.384721
H131	H	0.720111	0.400177	-0.399837
H132	H	1.220111	0.900177	0.100163
C133	C	0.677830	0.283686	-0.283722
C134	C	1.177830	0.783686	0.216278
H135	H	0.619760	0.287275	-0.287294
H136	H	1.119760	0.787275	0.212706
H137	H	0.692078	0.242130	-0.293490
H138	H	1.192078	0.742130	0.206510
H139	H	0.692011	0.293332	-0.242133
H140	H	1.192011	0.793332	0.257867
C141	C	1.092845	0.427723	-0.573199
C142	C	1.592845	0.927723	-0.073199
H143	H	1.061078	0.450367	-0.600835
H144	H	1.561078	0.950367	-0.100835
H145	H	1.056539	0.402382	-0.546275
H146	H	1.556539	0.902382	-0.046275
H147	H	1.124728	0.456251	-0.548901
H148	H	1.624728	0.956251	-0.048901
C149	C	1.316721	0.581273	-0.267865
C150	C	1.816721	1.081273	0.232135
H151	H	1.348507	0.611336	-0.245241
H152	H	1.848507	1.111336	0.254759
H153	H	1.284839	0.554563	-0.239325
H154	H	1.784839	1.054563	0.260675
H155	H	1.353023	0.557098	-0.293240
H156	H	1.853023	1.057098	0.206760
C157	C	1.191001	0.465760	-0.916192
C158	C	1.691001	0.965760	-0.416192
H159	H	1.191964	0.457700	-0.959885
H160	H	1.691964	0.957700	-0.459885
H161	H	1.140230	0.483859	-0.903524
H162	H	1.640230	0.983859	-0.403524
H163	H	1.236336	0.493850	-0.907201
H164	H	1.736336	0.993850	-0.407201
H165	H	1.301686	0.993689	-0.278800
H166	H	1.801686	1.493689	0.221200
H167	H	1.108193	1.105067	-0.416729
H168	H	1.608193	1.605067	0.083271
H169	H	1.107991	0.701423	-0.416646
H170	H	1.607991	1.201423	0.083354
C171	C	1.316782	0.718686	-0.267891
C172	C	1.816782	1.218686	0.232109
H173	H	1.309166	0.762053	-0.273347
H174	H	1.809166	1.262053	0.226653
H175	H	1.304602	0.707530	-0.225320
H176	H	1.804602	1.207530	0.274680
H177	H	1.372792	0.710060	-0.279230
H178	H	1.872792	1.210060	0.220770
H179	H	1.216910	0.245787	-0.907847
H180	H	1.716910	0.745787	-0.407847
C181	C	1.092684	0.572778	-0.427484
C182	C	1.592684	1.072778	0.072516
H183	H	1.060925	0.600431	-0.450120
H184	H	1.560925	1.100431	0.049880
H185	H	1.124544	0.548429	-0.456012
H186	H	1.624544	1.048429	0.043988
H187	H	1.056358	0.545907	-0.402099
H188	H	1.556358	1.045907	0.097901
C189	C	1.362547	0.784764	-0.343448
C190	C	1.862547	1.284764	0.156552
H191	H	1.407303	0.815297	-0.342252
H192	H	1.907303	1.315297	0.157748
H193	H	1.361479	0.759214	-0.307086
H194	H	1.861479	1.259214	0.192914
H195	H	1.369832	0.759495	-0.379642
H196	H	1.869832	1.259495	0.120358
C197	C	1.047119	0.910337	-0.352000
C198	C	1.547119	1.410337	0.148000
H199	H	1.002369	0.879800	-0.353214
H200	H	1.502369	1.379800	0.146786
H201	H	1.039820	0.935608	-0.315815
H202	H	1.539820	1.435608	0.184185
H203	H	1.048197	0.935884	-0.388369
H204	H	1.548197	1.435884	0.111631
C205	C	1.362621	0.922174	-0.343478
C206	C	1.862621	1.422174	0.156522
H207	H	1.351888	0.965428	-0.343786
H208	H	1.851888	1.465428	0.156214
H209	H	1.389303	0.912475	-0.306368
H210	H	1.889303	1.412475	0.193632
H211	H	1.397658	0.912741	-0.378923
H212	H	1.897658	1.412741	0.121077
C213	C	1.316993	1.122327	-0.267973
C214	C	1.816993	1.622327	0.232027
H215	H	1.348739	1.094673	-0.245328
H216	H	1.848739	1.594673	0.254672
H217	H	1.353319	1.149201	-0.293349
H218	H	1.853319	1.649201	0.206651
H219	H	1.285123	1.146673	-0.239444
H220	H	1.785123	1.646673	0.260556
C221	C	1.092885	0.976423	-0.427556
C222	C	1.592885	1.476423	0.072444
H223	H	1.100508	0.933056	-0.422110
H224	H	1.600508	1.433056	0.077890
H225	H	1.036880	0.985051	-0.416220
H226	H	1.536880	1.485051	0.083780
H227	H	1.105071	0.987581	-0.470130
H228	H	1.605071	1.487581	0.029870
H229	H	1.192657	0.449728	-0.788198
H230	H	1.692657	0.949728	-0.288198
C231	C	1.092853	0.427676	-0.710608
C232	C	1.592853	0.927676	-0.210608
H233	H	1.100503	0.422221	-0.754558
H234	H	1.600503	0.922221	-0.254558
H235	H	1.036843	0.416371	-0.697739
H236	H	1.536843	0.916371	-0.197739
H237	H	1.105026	0.470244	-0.700347
H238	H	1.605026	0.970244	-0.200347
C239	C	1.047049	0.772928	-0.351975
C240	C	1.547049	1.272928	0.148025
H241	H	1.002325	0.800107	-0.353184
H242	H	1.502325	1.300107	0.146816
H243	H	1.048097	0.747423	-0.388330
H244	H	1.548097	1.247423	0.111670
H245	H	1.039731	0.747147	-0.315776
H246	H	1.539731	1.247147	0.184224
H247	H	1.301685	0.278863	-0.590570
H248	H	1.801685	0.778863	-0.090570
C249	C	1.316931	0.267957	-0.719213
C250	C	1.816931	0.767957	-0.219213
H251	H	1.348713	0.245323	-0.691579
H252	H	1.848713	0.745323	-0.191579
H253	H	1.285071	0.239430	-0.743522
H254	H	1.785071	0.739430	-0.243522
H255	H	1.353236	0.293316	-0.746127
H256	H	1.853236	0.793316	-0.246127
H257	H	1.216910	0.245827	-0.789134
H258	H	1.716910	0.745827	-0.289134
H259	H	1.301693	0.278720	-0.994206
H260	H	1.801693	0.778720	-0.494206
C261	C	1.316934	0.267810	-1.122849
C262	C	1.816934	0.767810	-0.622849
H263	H	1.348716	0.245178	-1.095212
H264	H	1.848716	0.745178	-0.595212
H265	H	1.285071	0.239280	-1.147153
H266	H	1.785071	0.739280	-0.647153
H267	H	1.353239	0.293164	-1.149767
H268	H	1.853239	0.793164	-0.649767
C269	C	1.092866	0.427541	-1.114245
C270	C	1.592866	0.927541	-0.614245
H271	H	1.100513	0.422085	-1.158195
H272	H	1.600513	0.922085	-0.658195
H273	H	1.036855	0.416240	-1.101375
H274	H	1.536855	0.916240	-0.601375
H275	H	1.105044	0.470108	-1.103985
H276	H	1.605044	0.970108	-0.603985
H277	H	1.108101	0.416714	-0.986775
H278	H	1.608101	0.916714	-0.486775
