data_functionalizedCrystal
_audit_creation_method	'MofGen! by Chris Wilmer'
_symmetry_space_group_name_H-M	'P1'
_symmetry_Int_Tables_number	1
_symmetry_cell_setting	triclinic
loop_
_symmetry_equiv_pos_as_xyz
  x,y,z
_cell_length_a	13.033286
_cell_length_b	19.120786
_cell_length_c	13.032268
_cell_angle_alpha	94.409956
_cell_angle_beta	105.163409
_cell_angle_gamma	85.589488
loop_
_atom_site_label
_atom_site_type_symbol
_atom_site_fract_x
_atom_site_fract_y
_atom_site_fract_z
Zn1	Zn	1.522551	-0.440946	-0.369032
Zn2	Zn	1.539171	-0.544179	-0.185614
Zn3	Zn	1.368980	-0.414778	-0.215518
Zn4	Zn	1.339087	-0.544152	-0.385769
O5	O	1.442447	-0.486014	-0.288983
O6	O	1.672761	-0.465603	-0.325182
O7	O	1.536061	-0.516073	-0.041568
O8	O	1.394905	-0.320902	-0.241393
O9	O	1.684972	-0.541448	-0.190425
O10	O	1.507733	-0.340128	-0.354179
O11	O	1.411022	-0.421003	-0.063539
O12	O	1.217008	-0.420976	-0.257622
O13	O	1.343958	-0.541401	-0.531561
O14	O	1.195047	-0.516027	-0.382704
O15	O	1.478748	-0.465577	-0.519265
O16	O	1.507076	-0.641522	-0.206654
O17	O	1.360075	-0.641502	-0.353707
C18	C	1.167651	-0.465660	-0.325225
C19	C	1.050088	-0.456971	-0.340753
C20	C	1.003734	-0.490550	-0.280905
C21	C	0.882226	-0.481571	-0.296953
C22	C	1.432161	-0.666757	-0.278771
C23	C	1.427852	-0.744089	-0.274425
C24	C	1.484514	-0.790370	-0.331166
C25	C	1.480461	-0.863031	-0.327085
C26	C	1.419752	-0.889411	-0.266255
C27	C	1.363084	-0.843125	-0.209512
C28	C	1.367131	-0.770464	-0.213600
C29	C	1.404590	-1.108301	-0.250977
C30	C	1.400550	-1.180967	-0.246890
C31	C	1.517926	-1.200869	-0.364465
C32	C	1.521973	-1.128206	-0.368543
C33	C	1.465300	-1.081926	-0.311804
C34	C	1.415611	-0.963683	-0.262079
C35	C	1.469436	-1.007656	-0.315987
C36	C	1.718316	-0.506448	-0.252601
C37	C	1.835875	-0.515155	-0.237097
C38	C	1.406165	-0.506405	-0.564864
C39	C	1.390704	-0.515095	-0.682428
C40	C	1.452800	-0.304569	-0.299255
C41	C	1.457211	-0.227248	-0.303632
C42	C	1.450502	-0.481452	-0.728757
C43	C	1.434523	-0.490432	-0.850265
C44	C	1.478652	-0.465656	-0.014171
C45	C	1.494329	-0.456785	0.103408
H46	H	0.886138	-0.550561	-0.173981
C47	C	0.982182	-0.409146	-0.426021
N48	N	0.931036	-0.373121	-0.490243
H49	H	1.533955	-0.768897	-0.380695
C50	C	1.542810	-0.913938	-0.389490
N51	N	1.589779	-0.952280	-0.436491
C52	C	1.588780	-1.099195	-0.435438
N53	N	1.639110	-1.077344	-0.485814
H54	H	1.366185	-0.985169	-0.212548
C55	C	1.580254	-1.251782	-0.426882
N56	N	1.627197	-1.290131	-0.473901
C57	C	1.333757	-1.209982	-0.179975
N58	N	1.283452	-1.231836	-0.129577
C59	C	1.535645	-0.433556	-0.660821
N60	N	1.599777	-0.397480	-0.609652
H61	H	1.358447	-1.070625	-0.204775
H62	H	1.320990	-0.732782	-0.167397
C63	C	1.579482	-0.408889	-0.828661
N64	N	1.643619	-0.372816	-0.777494
H65	H	1.054003	-0.525950	-0.217790
C66	C	0.814323	-0.433744	-0.382225
N67	N	0.763178	-0.397719	-0.446448
C68	C	1.305554	-0.562986	-0.750365
N69	N	1.241417	-0.599058	-0.801534
H70	H	1.313648	-0.864608	-0.159988
H71	H	1.518861	-0.986175	-0.365519
H72	H	1.371487	-0.525881	-0.900555
