data_functionalizedCrystal
_audit_creation_method	'MofGen! by Chris Wilmer'
_symmetry_space_group_name_H-M	'P1'
_symmetry_Int_Tables_number	1
_symmetry_cell_setting	triclinic
loop_
_symmetry_equiv_pos_as_xyz
  x,y,z
_cell_length_a	10.540539
_cell_length_b	15.944551
_cell_length_c	9.616153
_cell_angle_alpha	89.996788
_cell_angle_beta	89.995174
_cell_angle_gamma	84.012115
loop_
_atom_site_label
_atom_site_type_symbol
_atom_site_fract_x
_atom_site_fract_y
_atom_site_fract_z
O1	O	1.684280	0.118370	-0.115583
O2	O	1.314716	0.129523	-0.115601
O3	O	1.509590	0.001731	-0.115579
O4	O	1.489406	0.246161	-0.115605
O5	O	1.509563	0.001734	0.115712
O6	O	1.314689	0.129525	0.115690
O7	O	1.684254	0.118372	0.115708
Zn8	Zn	1.499467	0.123949	0.152422
Zn9	Zn	1.499502	0.123946	-0.152315
O10	O	1.489379	0.246163	0.115686
C11	C	1.267411	0.128688	0.000043
C12	C	1.126497	0.126185	0.000036
C13	C	0.944375	0.030298	0.000587
C14	C	1.090959	0.032835	0.000051
C15	C	1.064228	0.171108	-0.132042
C16	C	0.917727	0.167922	-0.132138
C17	C	0.917182	0.169824	0.130883
C18	C	1.064152	0.170684	0.132615
C19	C	1.508739	-0.029566	0.000067
C20	C	1.506227	-0.122827	0.000067
C21	C	1.379430	-0.338440	0.000042
C22	C	1.438297	-0.399105	0.114086
C23	C	1.501682	-0.293580	0.000056
C24	C	1.438352	-0.399091	-0.113950
C25	C	1.497283	-0.458519	0.000040
C26	C	1.560583	-0.353017	0.114194
C27	C	1.560621	-0.352996	-0.113944
C28	C	1.619577	-0.413643	0.000128
C29	C	1.504213	-0.198563	0.000067
C30	C	1.494762	-0.553535	0.000039
C31	C	1.731559	0.119207	0.000061
C32	C	1.872473	0.121710	0.000058
C33	C	1.490231	0.277461	0.000037
C34	C	1.492743	0.370722	0.000027
N35	N	1.499452	0.123951	0.360396
N36	N	1.499527	0.123937	-0.360289
C37	C	1.394895	0.192081	0.580755
C38	C	1.395120	0.192337	0.419587
C39	C	1.631904	0.143890	0.418850
C40	C	1.631333	0.144372	0.580067
C41	C	1.472882	0.035659	0.580316
C42	C	1.469828	0.036231	0.419089
H43	H	1.105550	0.137866	0.230326
H44	H	1.386639	-0.419477	-0.210371
H45	H	1.296131	0.180269	0.619562
H46	H	1.296666	0.180340	0.380069
H47	H	1.378404	0.016683	0.621050
H48	H	0.889980	0.134718	-0.230861
H49	H	1.277955	-0.305737	0.000151
H50	H	1.087451	0.238743	0.140582
H51	H	0.868844	0.235058	-0.138140
H52	H	1.721141	-0.446196	0.000197
H53	H	1.654811	0.208777	0.617650
H54	H	0.869037	0.237250	0.131769
H55	H	1.107252	0.139900	-0.230331
H56	H	1.386578	-0.419520	0.210495
H57	H	0.914679	-0.006426	-0.093599
H58	H	1.085648	0.239662	-0.136963
H59	H	1.612236	-0.332717	0.210715
H60	H	1.612295	-0.332559	-0.210358
H61	H	1.411676	0.257205	0.621247
H62	H	1.412127	0.257832	0.381001
H63	H	1.134043	-0.002512	0.094731
H64	H	1.711624	0.096739	0.619064
H65	H	0.886035	0.139615	0.230998
H66	H	0.916281	-0.006580	0.095308
H67	H	1.711616	0.095612	0.380505
H68	H	1.541078	-0.016915	0.378802
H69	H	1.655935	0.207567	0.378454
H70	H	1.133200	-0.002764	-0.094786
H71	H	1.372395	0.021118	0.380886
H72	H	1.549185	-0.015061	0.618440
