data_functionalizedCrystal
_audit_creation_method	'MofGen! by Chris Wilmer'
_symmetry_space_group_name_H-M	'P1'
_symmetry_Int_Tables_number	1
_symmetry_cell_setting	triclinic
loop_
_symmetry_equiv_pos_as_xyz
  x,y,z
_cell_length_a	16.120484
_cell_length_b	16.120566
_cell_length_c	16.625539
_cell_angle_alpha	92.920705
_cell_angle_beta	92.868615
_cell_angle_gamma	89.831930
loop_
_atom_site_label
_atom_site_type_symbol
_atom_site_fract_x
_atom_site_fract_y
_atom_site_fract_z
Zn1	Zn	-0.395590	-1.254482	-0.536801
Zn2	Zn	0.104410	-0.754482	-0.036801
Zn3	Zn	-0.534650	-1.247323	-0.408429
Zn4	Zn	-0.034650	-0.747323	0.091571
Zn5	Zn	-0.388559	-1.115420	-0.394818
Zn6	Zn	0.111441	-0.615420	0.105182
Zn7	Zn	-0.527544	-1.108334	-0.536055
Zn8	Zn	-0.027544	-0.608334	-0.036055
O9	O	-0.461586	-1.181390	-0.469026
O10	O	0.038414	-0.681390	0.030974
O11	O	-0.419952	-1.369898	-0.525780
O12	O	0.080048	-0.869898	-0.025780
O13	O	-0.515303	-1.229795	-0.293791
O14	O	-0.015303	-0.729795	0.206209
O15	O	-0.273129	-1.139828	-0.408268
O16	O	0.226871	-0.639828	0.091732
O17	O	-0.522120	-1.364639	-0.431466
O18	O	-0.022120	-0.864639	0.068534
O19	O	-0.278294	-1.241996	-0.512582
O20	O	0.221706	-0.741996	-0.012582
O21	O	-0.407970	-1.132886	-0.283791
O22	O	0.092030	-0.632886	0.216209
O23	O	-0.401080	-0.998114	-0.407545
O24	O	0.098920	-0.498114	0.092455
O25	O	-0.510008	-1.127752	-0.648987
O26	O	-0.010008	-0.627752	-0.148987
O27	O	-0.503191	-0.992908	-0.511312
O28	O	-0.003191	-0.492908	-0.011312
O29	O	-0.413062	-1.235126	-0.649534
O30	O	0.086938	-0.735126	-0.149534
O31	O	-0.650071	-1.222925	-0.430743
O32	O	-0.150071	-0.722925	0.069257
O33	O	-0.644850	-1.120810	-0.524510
O34	O	-0.144850	-0.620810	-0.024510
C35	C	-0.450602	-0.965339	-0.457871
C36	C	0.049398	-0.465339	0.042129
C37	C	-0.445923	-0.872910	-0.453119
C38	C	0.054077	-0.372910	0.046881
C39	C	-0.437361	-0.703683	-0.444450
C40	C	0.062639	-0.203683	0.055550
C41	C	-0.485882	-0.659934	-0.493612
C42	C	0.014118	-0.159934	0.006388
C43	C	-0.481118	-0.565770	-0.488788
C44	C	0.018882	-0.065770	0.011212
C45	C	-0.442124	-0.797855	-0.449272
C46	C	0.057876	-0.297855	0.050728
C47	C	-0.677633	-1.170345	-0.479041
C48	C	-0.177633	-0.670345	0.020959
C49	C	-0.770063	-1.165695	-0.483357
C50	C	-0.270063	-0.665695	0.016643
C51	C	-0.939294	-1.157212	-0.491253
C52	C	-0.439294	-0.657212	0.008747
C53	C	-0.983045	-1.205716	-0.446820
C54	C	-0.483045	-0.705716	0.053180
C55	C	-1.077210	-1.200996	-0.451213
C56	C	-0.577210	-0.700996	0.048787
C57	C	-0.845120	-1.161931	-0.486861
C58	C	-0.345120	-0.661931	0.013139
C59	C	-0.244696	-1.192501	-0.458990
C60	C	0.255304	-0.692501	0.041010
C61	C	-0.152270	-1.197236	-0.454713
C62	C	0.347730	-0.697236	0.045287
C63	C	-0.461527	-1.181447	-0.679335
C64	C	0.038473	-0.681447	-0.179335
C65	C	-0.461501	-1.181471	-0.768956
C66	C	0.038499	-0.681471	-0.268956
C67	C	-0.472616	-0.398284	-0.480211
C68	C	0.027384	0.101716	0.019789
C69	C	-0.477323	-0.490711	-0.484945
C70	C	0.022677	0.009289	0.015055
C71	C	-0.461410	-1.181514	-1.097129
C72	C	0.038590	-0.681514	-0.597129
C73	C	-0.461438	-1.181500	-1.005822
C74	C	0.038562	-0.681500	-0.505822
C75	C	-0.461456	-1.181493	-0.933046
C76	C	0.038544	-0.681493	-0.433046
C77	C	-0.461483	-1.181478	-0.841732
C78	C	0.038517	-0.681478	-0.341732
C79	C	-0.461587	-1.181384	-0.259535
C80	C	0.038413	-0.681384	0.240465
C81	C	-0.461386	-1.181532	-0.169912
C82	C	0.038614	-0.681532	0.330088
H83	H	-0.530998	-0.693198	-0.539325
H84	H	-0.030998	-0.193198	-0.039325
H85	H	-0.972557	-1.112144	-0.532589
H86	H	-0.472557	-0.612144	-0.032589
H87	H	-0.392248	-0.670421	-0.398741
H88	H	0.107752	-0.170421	0.101259
H89	H	-0.949779	-1.250787	-0.405479
H90	H	-0.449779	-0.750787	0.094521
