data_functionalizedCrystal
_audit_creation_method	'MofGen! by Chris Wilmer'
_symmetry_space_group_name_H-M	'P1'
_symmetry_Int_Tables_number	1
_symmetry_cell_setting	triclinic
loop_
_symmetry_equiv_pos_as_xyz
  x,y,z
_cell_length_a	9.065218
_cell_length_b	19.288865
_cell_length_c	18.366186
_cell_angle_alpha	90.011479
_cell_angle_beta	89.990902
_cell_angle_gamma	95.923934
loop_
_atom_site_label
_atom_site_type_symbol
_atom_site_fract_x
_atom_site_fract_y
_atom_site_fract_z
O1	O	1.956843	-0.101842	-0.060561
O2	O	2.456843	0.398158	0.439439
O3	O	1.527266	-0.110195	-0.060563
O4	O	2.027266	0.389805	0.439437
O5	O	1.754467	-0.004985	-0.060548
O6	O	2.254467	0.495015	0.439452
O7	O	1.729642	-0.207053	-0.060577
O8	O	2.229642	0.292947	0.439423
O9	O	1.754429	-0.004979	0.060552
O10	O	2.254429	0.495021	0.560552
O11	O	1.527227	-0.110190	0.060536
O12	O	2.027227	0.389810	0.560536
O13	O	1.956805	-0.101836	0.060538
O14	O	2.456805	0.398164	0.560538
Zn15	Zn	1.742010	-0.106012	0.079764
Zn16	Zn	2.242010	0.393988	0.579764
Zn17	Zn	1.742061	-0.106020	-0.079789
Zn18	Zn	2.242061	0.393980	0.420211
O19	O	1.729603	-0.207047	0.060523
O20	O	2.229603	0.292953	0.560523
C21	C	1.753649	0.020901	0.000004
C22	C	2.253649	0.520901	0.500004
C23	C	1.751251	0.098023	0.000010
C24	C	2.251251	0.598023	0.500010
C25	C	1.472288	-0.109390	-0.000014
C26	C	1.972288	0.390610	0.499986
C27	C	1.308529	-0.106989	-0.000014
C28	C	1.808529	0.393011	0.499986
N29	N	1.741986	-0.106007	0.188655
N30	N	2.241986	0.393993	0.688655
C31	C	2.011782	-0.102642	-0.000013
C32	C	2.511782	0.397358	0.499987
C33	C	2.175541	-0.105043	-0.000018
C34	C	2.675541	0.394957	0.499982
C35	C	1.730421	-0.232933	-0.000031
C36	C	2.230421	0.267067	0.499969
C37	C	1.732819	-0.310055	-0.000042
C38	C	2.232819	0.189945	0.499958
C39	C	1.884563	0.141684	0.000015
C40	C	2.384563	0.641684	0.500015
C41	C	1.882310	0.214149	0.000003
C42	C	2.382310	0.714149	0.500003
C43	C	1.746738	0.242949	0.000002
C44	C	2.246738	0.742949	0.500002
C45	C	1.613409	0.199278	-0.000006
C46	C	2.113409	0.699278	0.499994
C47	C	1.615666	0.126815	-0.000002
C48	C	2.115666	0.626815	0.499998
C49	C	1.640149	0.352066	0.042420
C50	C	2.140149	0.852066	0.542420
C51	C	1.637898	0.424528	0.042420
C52	C	2.137898	0.924528	0.542420
C53	C	1.739773	0.466448	-0.000014
C54	C	2.239773	0.966448	0.499986
C55	C	1.843923	0.435900	-0.042440
C56	C	2.343923	0.935900	0.457560
C57	C	1.846180	0.363437	-0.042436
C58	C	2.346180	0.863437	0.457564
C59	C	1.744276	0.321522	-0.000003
C60	C	2.244276	0.821522	0.499997
C61	C	1.870651	0.588685	-0.000024
C62	C	2.370651	1.088685	0.499976
C63	C	1.868392	0.661150	-0.000040
C64	C	2.368392	1.161150	0.499960
C65	C	1.599488	0.646278	-0.000042
C66	C	2.099488	1.146278	0.499958
C67	C	1.601750	0.573814	-0.000033
C68	C	2.101750	1.073814	0.499967
C69	C	1.737335	0.545022	-0.000021
C70	C	2.237335	1.045022	0.499979
N71	N	1.742096	-0.106019	-0.188681
N72	N	2.242096	0.393981	0.311319
C73	C	1.842624	-0.059443	0.226763
C74	C	2.342624	0.440557	0.726763
C75	C	1.842633	-0.059440	0.302990
C76	C	2.342633	0.440560	0.802990
C77	C	1.742019	-0.106013	0.341108
C78	C	2.242019	0.393987	0.841108
C79	C	1.641362	-0.152580	0.302992
C80	C	2.141362	0.347420	0.802992
C81	C	1.641346	-0.152577	0.226765
C82	C	2.141346	0.347423	0.726765
C83	C	1.722271	-0.169147	0.461859
C84	C	2.222271	0.330853	0.961859
C85	C	1.722297	-0.169151	0.538084
C86	C	2.222297	0.330849	1.038084
C87	C	1.742061	-0.106022	0.576216
C88	C	2.242061	0.393978	1.076216
C89	C	1.761829	-0.042886	0.538113
C90	C	2.261829	0.457114	1.038113
C91	C	1.761813	-0.042883	0.461886
C92	C	2.261813	0.457117	0.961886
C93	C	1.742025	-0.106021	0.423763
C94	C	2.242025	0.393979	0.923763
C95	C	1.842714	-0.059451	0.696978
C96	C	2.342714	0.440549	1.196978
C97	C	1.842713	-0.059447	0.773207
C98	C	2.342713	0.440553	1.273207
C99	C	1.641449	-0.152593	0.773207
C100	C	2.141449	0.347407	1.273207
C101	C	1.641443	-0.152591	0.696979
C102	C	2.141443	0.347409	1.196979
C103	C	1.742083	-0.106021	0.658869
C104	C	2.242083	0.393979	1.158869
H105	H	1.994967	0.118247	0.000022
H106	H	2.494967	0.618247	0.500022
H107	H	1.924567	-0.021521	0.195736
H108	H	2.424567	0.478479	0.695736
H109	H	1.557187	0.317939	0.076979
H110	H	2.057187	0.817939	0.576979
F111	F	1.949751	-0.009878	0.343554
F112	F	2.449751	0.490122	0.843554
F113	F	1.782839	0.024309	0.421337
F114	F	2.282839	0.524309	0.921337
H115	H	1.981053	0.565241	-0.000017
H116	H	2.481053	1.065241	0.499983
H117	H	1.503025	0.222732	-0.000009
H118	H	2.003025	0.722732	0.499991
F119	F	1.957014	0.330927	-0.087590
F120	F	2.457014	0.830927	0.412410
H121	H	1.553087	0.449394	0.076961
H122	H	2.053087	0.949394	0.576961
H123	H	1.507104	0.091265	-0.000005
H124	H	2.007104	0.591265	0.499995
F125	F	1.949818	-0.009884	0.656418
F126	F	2.449818	0.490116	1.156418
H127	H	1.777922	0.008520	0.569157
H128	H	2.277922	0.508520	1.069157
H129	H	1.924660	-0.021525	0.804234
H130	H	2.424660	0.478475	1.304234
H131	H	1.559522	-0.190511	0.804242
H132	H	2.059522	0.309489	1.304242
H133	H	1.559500	-0.190511	0.665950
H134	H	2.059500	0.309489	1.165950
H135	H	1.926878	0.470031	-0.076995
H136	H	2.426878	0.970031	0.423005
F137	F	1.701268	-0.236346	0.578629
F138	F	2.201268	0.263654	1.078629
F139	F	2.010289	0.707618	-0.000040
F140	F	2.510289	1.207618	0.499960
F141	F	1.455201	0.676924	-0.000046
F142	F	1.955201	1.176924	0.499954
F143	F	1.459859	0.527344	-0.000034
F144	F	1.959859	1.027344	0.499966
F145	F	1.701342	-0.236345	0.421285
F146	F	2.201342	0.263655	0.921285
H147	H	1.559438	-0.190500	0.334031
H148	H	2.059438	0.309500	0.834031
H149	H	1.990872	0.249704	0.000004
H150	H	2.490872	0.749704	0.500004
F151	F	1.534230	-0.202139	0.186207
F152	F	2.034230	0.297861	0.686207
