data_functionalizedCrystal
_audit_creation_method	'MofGen! by Chris Wilmer'
_symmetry_space_group_name_H-M	'P1'
_symmetry_Int_Tables_number	1
_symmetry_cell_setting	triclinic
loop_
_symmetry_equiv_pos_as_xyz
  x,y,z
_cell_length_a	12.594517
_cell_length_b	12.594516
_cell_length_c	13.897441
_cell_angle_alpha	90.026725
_cell_angle_beta	89.984820
_cell_angle_gamma	89.973312
loop_
_atom_site_label
_atom_site_type_symbol
_atom_site_fract_x
_atom_site_fract_y
_atom_site_fract_z
Zn1	Zn	1.627197	0.423710	-0.545264
Zn2	Zn	1.627052	0.601720	-0.383976
Zn3	Zn	1.449198	0.423756	-0.383998
Zn4	Zn	1.449150	0.601646	-0.545245
O5	O	1.538149	0.512708	-0.464621
O6	O	1.776124	0.447335	-0.523868
O7	O	1.603419	0.578163	-0.248998
O8	O	1.472891	0.274804	-0.405408
O9	O	1.776017	0.578118	-0.405371
O10	O	1.603666	0.274770	-0.523889
O11	O	1.472750	0.447414	-0.249014
O12	O	1.300246	0.447342	-0.405389
O13	O	1.472809	0.577992	-0.680229
O14	O	1.300211	0.578037	-0.523856
O15	O	1.603619	0.447263	-0.680243
O16	O	1.603372	0.750656	-0.405352
O17	O	1.472668	0.750602	-0.523835
C18	C	1.261608	0.512687	-0.464623
C19	C	1.143303	0.512704	-0.464647
C20	C	1.003298	0.583918	-0.528962
C21	C	1.074062	0.609826	-0.440928
C22	C	1.074110	0.486844	-0.552671
C23	C	1.003282	0.538697	-0.376538
C24	C	1.003324	0.415669	-0.488340
C25	C	1.074056	0.441540	-0.400246
C26	C	1.538028	0.789249	-0.464610
C27	C	1.538074	0.907554	-0.464637
C28	C	1.466964	0.976817	-0.529035
C29	C	1.441016	1.047682	-0.441020
C30	C	1.564079	1.047488	-0.552666
C31	C	1.512074	0.976862	-0.376576
C32	C	1.635183	0.976661	-0.488282
C33	C	1.609272	1.047495	-0.400206
C34	C	1.815770	0.512729	-0.464619
C35	C	1.934076	0.512739	-0.464618
C36	C	1.538225	0.512614	-0.716214
C37	C	1.538257	0.512574	-0.823428
C38	C	1.538253	1.235087	-0.464652
C39	C	1.538178	1.116782	-0.464661
C40	C	1.538286	0.512502	-1.019723
C41	C	1.538267	0.512545	-0.910491
C42	C	1.538135	0.512725	-0.214007
C43	C	1.538309	0.512465	-0.106793
H44	H	1.105134	0.691901	-0.420869
O45	O	1.111281	0.460908	-0.641515
C46	C	1.174420	0.544556	-0.677105
H47	H	1.151345	0.621732	-0.639637
H48	H	1.261680	0.526606	-0.662555
C49	C	1.185031	0.461132	-0.832265
C50	C	1.156682	0.555924	-0.786253
H51	H	1.174094	0.468143	-0.899594
H52	H	1.142496	0.404775	-0.808288
H53	H	1.257745	0.446185	-0.820131
H54	H	1.083966	0.570863	-0.798378
H55	H	1.199205	0.612284	-0.810235
O56	O	1.110719	0.369701	-0.335204
C57	C	1.024124	0.320119	-0.289250
H58	H	0.951273	0.373586	-0.294213
H59	H	1.006695	0.241069	-0.325976
C60	C	1.140961	0.234849	-0.176641
C61	C	1.051486	0.300522	-0.182729
H62	H	1.157840	0.222755	-0.110935
H63	H	1.199303	0.268249	-0.207603
H64	H	1.126426	0.168981	-0.207252
H65	H	1.066027	0.366392	-0.152130
H66	H	0.993147	0.267132	-0.151759
O67	O	0.966274	0.655940	-0.593671
C68	C	1.002341	0.758155	-0.568322
H69	H	1.022186	0.760054	-0.488311
H70	H	1.076413	0.778158	-0.611844
C71	C	0.890498	0.837890	-0.688189
C72	C	0.914863	0.840225	-0.589917
H73	H	0.836541	0.888516	-0.701514
H74	H	0.866202	0.769026	-0.705271
H75	H	0.952233	0.854557	-0.724446
H76	H	0.853133	0.823545	-0.553663
H77	H	0.939148	0.909088	-0.572830
O78	O	1.394977	0.939833	-0.593801
C79	C	1.292756	0.976050	-0.568530
H80	H	1.290806	0.995959	-0.488521
H81	H	1.272808	1.050113	-0.612066
C82	C	1.213070	0.864214	-0.688462
C83	C	1.210672	0.888659	-0.590191
H84	H	1.162435	0.810311	-0.701827
H85	H	1.281938	0.839817	-0.705490
H86	H	1.196450	0.925942	-0.724730
H87	H	1.227305	0.826936	-0.553925
H88	H	1.141805	0.913044	-0.573157
H89	H	1.490025	0.945967	-0.302120
H90	H	0.972300	0.560684	-0.302065
O91	O	1.681183	1.084349	-0.335312
C92	C	1.758306	1.145870	-0.383220
H93	H	1.761451	1.121876	-0.462274
H94	H	1.736573	1.233516	-0.377357
C95	C	1.863797	1.156556	-0.239587
C96	C	1.867666	1.127080	-0.336681
H97	H	1.931255	1.144970	-0.210878
H98	H	1.811837	1.115112	-0.207309
H99	H	1.845682	1.229593	-0.234714
H100	H	1.885768	1.054041	-0.341552
H101	H	1.919632	1.168511	-0.368959
H102	H	0.972227	0.333618	-0.508424
O103	O	1.343110	1.085031	-0.417298
C104	C	1.303664	1.148140	-0.493062
H105	H	1.372755	1.179081	-0.538013
H106	H	1.249000	1.098350	-0.540369
C107	C	1.156226	1.204535	-0.395988
C108	C	1.241085	1.242545	-0.451193
H109	H	1.117620	1.262767	-0.370163
H110	H	1.182799	1.162015	-0.344945
H111	H	1.110685	1.163043	-0.435419
H112	H	1.286631	1.284025	-0.411759
H113	H	1.214518	1.285075	-0.502229
H114	H	1.717238	0.945445	-0.508303
O115	O	1.590153	1.084374	-0.641537
C116	C	1.514899	1.048384	-0.709179
H117	H	1.474334	0.973914	-0.680560
H118	H	1.452936	1.112913	-0.721758
C119	C	1.621017	1.113964	-0.839885
C120	C	1.571201	1.022493	-0.804738
H121	H	1.655744	1.097997	-0.898832
H122	H	1.671716	1.138215	-0.794314
H123	H	1.569372	1.167729	-0.850359
H124	H	1.622848	0.968735	-0.794253
H125	H	1.520512	0.998232	-0.850310
