data_functionalizedCrystal
_audit_creation_method	'MofGen! by Chris Wilmer'
_symmetry_space_group_name_H-M	'P1'
_symmetry_Int_Tables_number	1
_symmetry_cell_setting	triclinic
loop_
_symmetry_equiv_pos_as_xyz
  x,y,z
_cell_length_a	15.995350
_cell_length_b	14.853566
_cell_length_c	13.330367
_cell_angle_alpha	89.995295
_cell_angle_beta	89.997588
_cell_angle_gamma	83.563394
loop_
_atom_site_label
_atom_site_type_symbol
_atom_site_fract_x
_atom_site_fract_y
_atom_site_fract_z
O1	O	0.109312	1.196222	-0.083352
O2	O	0.122335	0.933745	-0.083368
O3	O	-0.006056	1.072159	-0.083359
O4	O	0.237703	1.057809	-0.083361
O5	O	-0.006059	1.072138	0.083488
O6	O	0.122332	0.933725	0.083479
O7	O	0.109309	1.196202	0.083495
Cu8	Cu	0.115820	1.064962	0.098722
Cu9	Cu	0.115824	1.064985	-0.098595
O10	O	0.237700	1.057789	0.083486
C11	C	0.121744	0.900147	0.000053
C12	C	0.119976	0.800066	0.000047
C13	C	0.112501	0.376902	-0.090884
C14	C	0.112498	0.376901	0.091020
C15	C	0.114158	0.470933	0.091017
C16	C	0.114991	0.517953	0.000062
C17	C	0.114163	0.470942	-0.090889
C18	C	0.114994	0.517950	0.181966
C19	C	0.116655	0.611988	0.181967
C20	C	0.117482	0.659011	0.091011
C21	C	0.116653	0.611994	0.000056
C22	C	0.117486	0.659014	-0.090898
C23	C	0.116652	0.611999	-0.181855
C24	C	0.114990	0.517965	-0.181845
C25	C	0.119144	0.753045	0.091002
C26	C	0.119149	0.753054	-0.090904
C27	C	-0.037253	1.071555	0.000063
C28	C	-0.130205	1.069777	0.000057
C29	C	-0.467960	1.063389	0.000060
C30	C	-0.420640	0.964814	-0.000320
C31	C	-0.323948	0.966593	0.000056
C32	C	-0.300396	1.066558	0.000058
C33	C	-0.341419	1.115167	0.095337
C34	C	-0.438057	1.112691	0.095417
C35	C	-0.438410	1.114750	-0.094320
C36	C	-0.341464	1.114727	-0.095579
C37	C	-0.205696	1.068353	0.000060
C38	C	-0.562660	1.061597	0.000065
C39	C	0.268897	1.058392	0.000062
C40	C	0.361849	1.060170	0.000061
C41	C	0.109900	1.229800	0.000071
C42	C	0.111668	1.329881	0.000071
N43	N	0.115818	1.064952	0.237503
N44	N	0.115820	1.065003	-0.237376
C45	C	0.172653	1.003693	0.710122
C46	C	0.058988	1.126302	0.710098
C47	C	0.058986	1.126292	0.605080
C48	C	0.115818	1.064982	0.552578
C49	C	0.172654	1.003683	0.605094
C50	C	0.002157	1.187596	0.552556
C51	C	0.002153	1.187589	0.447531
C52	C	0.058982	1.126274	0.395027
C53	C	0.115819	1.064972	0.447549
C54	C	0.172652	1.003663	0.395047
C55	C	0.229486	0.942355	0.447568
C56	C	0.229483	0.942368	0.552590
C57	C	0.058985	1.126261	0.290005
C58	C	0.172653	1.003652	0.290019
H59	H	-0.295569	0.928382	-0.068244
H60	H	-0.439216	0.925422	-0.068647
H61	H	-0.440281	0.925581	0.067621
H62	H	0.275756	0.892455	0.595358
O63	O	0.003666	1.185809	0.760990
C64	C	-0.141842	1.238579	0.793185
C65	C	-0.079275	1.171155	0.735462
H66	H	-0.208913	1.226742	0.772583
H67	H	-0.130891	1.310806	0.772509
H68	H	-0.132032	1.228062	0.877262
H69	H	-0.089048	1.181589	0.651372
H70	H	-0.090242	1.098952	0.756222
O71	O	-0.322899	1.201637	-0.102585
C72	C	-0.258398	1.311326	-0.200715
C73	C	-0.279379	1.212874	-0.192907
H74	H	-0.223225	1.320448	-0.273745
H75	H	-0.217322	1.327034	-0.134501
H76	H	-0.319178	1.359403	-0.199707
H77	H	-0.218644	1.164733	-0.193944
H78	H	-0.320490	1.197242	-0.259118
H79	H	-0.296129	0.928108	0.068468
H80	H	-0.456401	1.077228	0.166638
O81	O	-0.309077	1.072330	-0.179702
C82	C	-0.337543	0.991602	-0.330456
C83	C	-0.374337	1.039570	-0.235215
H84	H	-0.390291	0.965120	-0.375375
H85	H	-0.289288	0.932553	-0.308400
H86	H	-0.305810	1.041688	-0.378138
H87	H	-0.406113	0.989555	-0.187490
H88	H	-0.422550	1.098633	-0.257341
H89	H	0.119831	0.791319	0.165057
H90	H	0.218931	0.953723	0.247278
H91	H	-0.327208	1.188608	0.098882
H92	H	0.111818	0.338619	-0.164938
H93	H	-0.313077	1.081389	0.166239
H94	H	-0.470221	1.185063	0.099741
O95	O	0.117577	0.657763	-0.270141
C96	C	0.191970	0.753681	-0.375728
C97	C	0.191017	0.701907	-0.275704
H98	H	0.251349	0.789369	-0.380268
H99	H	0.134243	0.806018	-0.380284
H100	H	0.191046	0.703923	-0.440722
H101	H	0.191970	0.751596	-0.210653
H102	H	0.248739	0.649557	-0.271236
H103	H	0.218924	0.953775	0.752887
O104	O	-0.053090	1.247222	0.603398
C105	C	-0.165892	1.368769	0.592306
C106	C	-0.103346	1.301314	0.534596
H107	H	-0.206553	1.412507	0.536704
H108	H	-0.129726	1.413872	0.641452
H109	H	-0.207744	1.329814	0.641496
H110	H	-0.061479	1.340194	0.485351
H111	H	-0.139564	1.256211	0.485512
H112	H	-0.044125	1.237507	0.404775
O113	O	0.003704	1.185842	0.239143
C114	C	-0.108995	1.307501	0.250208
C115	C	-0.046444	1.240058	0.307933
H116	H	-0.149544	1.351366	0.305800
H117	H	-0.150953	1.268628	0.201080
H118	H	-0.072748	1.352484	0.200997
H119	H	-0.082622	1.195059	0.357198
H120	H	-0.004486	1.278988	0.356998
H121	H	0.119824	0.791332	-0.164972
O122	O	0.114336	0.472230	-0.270165
C123	C	0.184928	0.355806	-0.375684
C124	C	0.185778	0.407550	-0.275641
H125	H	0.242674	0.303488	-0.380135
H126	H	0.185861	0.405511	-0.440738
H127	H	0.125577	0.320070	-0.380213
H128	H	0.245120	0.443289	-0.271014
H129	H	0.184801	0.357803	-0.210634
O130	O	0.111729	0.331364	0.179457
C131	C	0.111841	0.341288	0.359883
C132	C	0.112737	0.392972	0.259795
H133	H	0.112639	0.391079	0.424862
H134	H	0.169629	0.289037	0.364504
H135	H	0.052527	0.305485	0.364373
H136	H	0.172013	0.428829	0.255238
H137	H	0.054910	0.445172	0.255216
O138	O	-0.476334	1.201400	-0.095143
C139	C	-0.607216	1.298974	-0.099584
C140	C	-0.564370	1.200806	-0.098689
H141	H	-0.678401	1.298526	-0.102429
H142	H	-0.585566	1.335836	-0.168238
H143	H	-0.589394	1.335239	-0.028667
H144	H	-0.582172	1.164464	-0.169558
H145	H	-0.586022	1.164012	-0.029987
H146	H	0.114322	0.479659	0.256017
O147	O	0.284728	0.882925	0.396452
C148	C	0.399080	0.863732	0.277917
C149	C	0.336555	0.931131	0.335730
H150	H	0.441009	0.902679	0.228825
H151	H	0.362895	0.818714	0.228685
H152	H	0.439662	0.819896	0.333507
H153	H	0.295956	0.975026	0.280213
H154	H	0.372790	0.976086	0.384977
O155	O	0.117420	0.657520	0.270406
C156	C	0.117289	0.647581	0.450832
C157	C	0.116405	0.595905	0.350748
H158	H	0.116487	0.597785	0.515815
H159	H	0.059499	0.699830	0.455447
H160	H	0.176601	0.683386	0.455324
H161	H	0.057131	0.560045	0.346190
H162	H	0.174234	0.543707	0.346177
H163	H	-0.458985	1.082530	-0.166535
