data_functionalizedCrystal
_audit_creation_method	'MofGen! by Chris Wilmer'
_symmetry_space_group_name_H-M	'P1'
_symmetry_Int_Tables_number	1
_symmetry_cell_setting	triclinic
loop_
_symmetry_equiv_pos_as_xyz
  x,y,z
_cell_length_a	6.817900
_cell_length_b	7.190334
_cell_length_c	15.301126
_cell_angle_alpha	89.708258
_cell_angle_beta	104.177575
_cell_angle_gamma	60.611776
loop_
_atom_site_label
_atom_site_type_symbol
_atom_site_fract_x
_atom_site_fract_y
_atom_site_fract_z
V1	V	-4.226574	0.665641	-0.123319
O2	O	-4.206512	0.652303	0.007406
O3	O	-4.180352	0.661730	-0.245945
O4	O	-4.263664	0.955658	-0.120773
O5	O	-4.122624	0.356341	-0.118632
V6	V	-4.698842	0.628569	-0.107760
O7	O	-4.512521	0.746964	-0.157450
O8	O	-4.863093	0.547247	-0.073629
O9	O	-4.521858	0.632480	0.014866
O10	O	-4.836301	0.641907	-0.238485
O11	O	-4.920190	0.937869	-0.112447
O12	O	-4.438546	0.338552	-0.110306
C13	C	-4.023116	0.651395	-0.275858
C14	C	-4.067180	0.650131	-0.376102
C15	C	-4.273262	0.660199	-0.427766
C16	C	-4.314660	0.659023	-0.521956
C17	C	-4.149965	0.647764	-0.564479
C18	C	-3.943869	0.637702	-0.512809
C19	C	-3.902482	0.638893	-0.418621
C20	C	-4.030143	0.635215	-0.709125
C21	C	-4.071530	0.634019	-0.803318
C22	C	-4.442321	0.655345	-0.812460
C23	C	-4.400934	0.656536	-0.718273
C24	C	-4.194838	0.646470	-0.666608
C25	C	-4.129399	1.026326	-0.116185
C26	C	-4.243119	1.267876	-0.114889
C27	C	-4.342434	0.642809	0.044775
C28	C	-4.277612	0.644088	0.145017
H29	H	-4.535040	0.665692	-0.683652
H30	H	-3.809781	0.628547	-0.547439
O31	O	-4.642289	0.664809	-0.862712
C32	C	-4.583956	0.479083	-0.905608
H33	H	-4.398088	0.407792	-0.911814
H34	H	-4.594079	0.354794	-0.863267
C35	C	-4.985927	0.627961	-0.993656
C36	C	-4.757647	0.540411	-1.001286
H37	H	-5.093072	0.665785	-1.052673
H38	H	-5.025231	0.753085	-0.964754
H39	H	-4.994330	0.524372	-0.958369
H40	H	-4.749240	0.644008	-1.036563
H41	H	-4.718346	0.415304	-1.030196
H42	H	-3.937450	0.624915	-0.837942
H43	H	-3.862330	0.627034	-0.667063
O44	O	-3.702062	0.628718	-0.368445
C45	C	-3.506047	0.436327	-0.376861
H46	H	-3.560659	0.312486	-0.397157
H47	H	-3.435572	0.470954	-0.431355
C48	C	-3.246285	0.498783	-0.260093
C49	C	-3.313356	0.346674	-0.285014
H50	H	-3.127417	0.443484	-0.203440
H51	H	-3.378341	0.628406	-0.254426
H52	H	-3.187570	0.527626	-0.305513
H53	H	-3.372095	0.317854	-0.239601
H54	H	-3.181304	0.217044	-0.290672
H55	H	-4.407371	0.669347	-0.393150
H56	H	-4.482470	0.667225	-0.564018
