data_functionalizedCrystal
_audit_creation_method	'MofGen! by Chris Wilmer'
_symmetry_space_group_name_H-M	'P1'
_symmetry_Int_Tables_number	1
_symmetry_cell_setting	triclinic
loop_
_symmetry_equiv_pos_as_xyz
  x,y,z
_cell_length_a	10.723024
_cell_length_b	27.732048
_cell_length_c	9.798715
_cell_angle_alpha	89.991917
_cell_angle_beta	89.996609
_cell_angle_gamma	83.555262
loop_
_atom_site_label
_atom_site_type_symbol
_atom_site_fract_x
_atom_site_fract_y
_atom_site_fract_z
O1	O	1.654382	0.067789	-0.113499
O2	O	1.290961	0.074278	-0.113505
O3	O	1.483959	0.000707	-0.113476
O4	O	1.461384	0.141360	-0.113528
O5	O	1.483944	0.000707	0.113507
O6	O	1.290947	0.074278	0.113477
O7	O	1.654368	0.067789	0.113483
Zn8	Zn	1.472655	0.071033	0.149519
Zn9	Zn	1.472674	0.071033	-0.149540
O10	O	1.461370	0.141360	0.113454
C11	C	1.244474	0.073806	-0.000014
C12	C	1.105978	0.072393	-0.000016
C13	C	1.029292	0.113559	-0.000032
C14	C	0.886149	0.112100	-0.000033
C15	C	1.483478	-0.017303	0.000019
C16	C	1.482051	-0.070967	0.000030
C17	C	1.587117	-0.409130	-0.000038
C18	C	1.581823	-0.610822	-0.000057
O19	O	1.677898	-0.641481	-0.000115
N20	N	1.467383	-0.630656	-0.000058
C21	C	1.354259	-0.600064	-0.000063
O22	O	1.256800	-0.621562	-0.000078
C23	C	1.359554	-0.398373	-0.000053
C24	C	1.474001	-0.378541	-0.000039
C25	C	1.701554	-0.389298	-0.000025
C26	C	1.702877	-0.338877	-0.000013
C27	C	1.589761	-0.308289	-0.000013
C28	C	1.475324	-0.328121	-0.000026
C29	C	1.246432	-0.367781	-0.000068
C30	C	1.247766	-0.317356	-0.000069
C31	C	1.362213	-0.297524	-0.000054
C32	C	1.363531	-0.247113	-0.000015
N33	N	1.477970	-0.227278	-0.000014
C34	C	1.591085	-0.257867	-0.000014
C35	C	1.351487	-0.705956	-0.000065
C36	C	1.350163	-0.756378	-0.000065
C37	C	1.577727	-0.767133	-0.000062
C38	C	1.579050	-0.716709	-0.000052
C39	C	1.465926	-0.686121	-0.000064
C40	C	1.593854	-0.151980	0.000013
C41	C	1.595166	-0.101555	0.000031
C42	C	1.367603	-0.090805	0.000021
C43	C	1.366290	-0.141226	0.000010
C44	C	1.479425	-0.171813	0.000002
O45	O	1.267507	-0.216425	0.000028
O46	O	1.688531	-0.236359	-0.000029
C47	C	1.585794	-0.459550	-0.000050
C48	C	1.471357	-0.479382	-0.000063
C49	C	1.358241	-0.448793	-0.000064
C50	C	1.470033	-0.529804	-0.000063
C51	C	1.583148	-0.560392	-0.000062
C52	C	1.697587	-0.540558	-0.000062
C53	C	1.698910	-0.490138	-0.000049
C54	C	1.243802	-0.468628	-0.000065
C55	C	1.242489	-0.519048	-0.000075
C56	C	1.355604	-0.549637	-0.000074
C57	C	1.700855	0.068261	-0.000010
C58	C	1.839351	0.069674	-0.000018
C59	C	1.461851	0.159370	-0.000044
C60	C	1.463278	0.213034	-0.000064
N61	N	1.472651	0.071033	0.353618
N62	N	1.472687	0.071030	-0.353640
C63	C	1.553691	0.040006	0.421408
C64	C	1.553711	0.040005	0.578570
H65	H	1.065659	0.036068	-0.000037
O66	O	1.636303	0.008315	0.351671
C67	C	1.569787	-0.021641	0.269028
H68	H	1.471843	-0.002647	0.247805
H69	H	1.621874	-0.029093	0.168470
H70	H	1.561859	-0.057407	0.323977
O71	O	1.703671	-0.181737	0.000193
C72	C	1.709728	-0.211224	0.117763
H73	H	1.610740	-0.214118	0.156944
H74	H	1.756973	-0.248954	0.091324
H75	H	1.766367	-0.194446	0.200089
O76	O	1.131273	-0.538286	-0.000330
C77	C	1.062390	-0.522668	-0.117874
H78	H	1.129347	-0.511950	-0.200023
H79	H	1.009904	-0.553381	-0.157356
H80	H	0.992219	-0.490045	-0.091295
H81	H	1.623098	0.013443	0.636866
H82	H	1.155645	-0.292453	-0.000081
O83	O	1.389941	0.102788	0.423023
C84	C	1.409631	0.150683	0.388216
H85	H	1.457640	0.150779	0.284426
H86	H	1.315520	0.174250	0.383482
H87	H	1.471653	0.165750	0.468590
H88	H	0.905234	0.034430	-0.000013
O89	O	1.077587	0.156855	-0.000102
C90	C	1.209757	0.148673	-0.000056
H91	H	1.240923	0.111046	-0.043018
H92	H	1.249282	0.177244	-0.065959
H93	H	1.245941	0.151114	0.108841
H94	H	1.273098	-0.157373	0.000036
O95	O	1.706456	-0.082372	-0.000021
C96	C	1.806006	-0.120186	0.000006
H97	H	1.771702	-0.154548	-0.042974
H98	H	1.885971	-0.109376	-0.065890
H99	H	1.840845	-0.127211	0.108900
H100	H	1.796071	-0.322736	-0.000006
O101	O	1.811559	-0.418937	0.000041
C102	C	1.912831	-0.390610	0.000016
H103	H	1.880391	-0.353093	0.042979
H104	H	1.992024	-0.408936	0.065928
H105	H	1.947971	-0.386896	-0.108875
O106	O	0.807374	0.154100	0.000008
C107	C	0.681991	0.143293	-0.000029
H108	H	0.677851	0.105306	0.042959
H109	H	0.622406	0.170853	0.065856
H110	H	0.644329	0.144982	-0.108926
H111	H	1.403306	0.097596	0.588073
H112	H	1.669830	-0.792046	-0.000060
O113	O	1.690332	-0.697527	-0.000112
C114	C	1.789878	-0.735343	-0.000073
H115	H	1.755568	-0.769706	-0.043039
H116	H	1.869844	-0.724538	-0.065975
H117	H	1.824716	-0.742364	0.108823
H118	H	1.256969	-0.772520	-0.000053
O119	O	1.241508	-0.676296	-0.000247
C120	C	1.171985	-0.685335	-0.117816
H121	H	1.203396	-0.723471	-0.157013
H122	H	1.067853	-0.682150	-0.091371
H123	H	1.188486	-0.657695	-0.200132
O124	O	1.135333	-0.387093	-0.000278
C125	C	1.127753	-0.415917	-0.117862
H126	H	1.226347	-0.428147	-0.157033
H127	H	1.078637	-0.449094	-0.091446
H128	H	1.072148	-0.393819	-0.200187
O129	O	1.257842	-0.061018	-0.000042
C130	C	1.283565	-0.012263	-0.000001
H131	H	1.381539	-0.010001	-0.042960
H132	H	1.211420	0.010343	-0.065909
H133	H	1.278535	0.002296	0.108894
H134	H	1.792104	-0.473996	-0.000038
H135	H	1.789690	-0.565472	-0.000055
H136	H	1.151687	-0.443727	-0.000068
