data_functionalizedCrystal
_audit_creation_method	'MofGen! by Chris Wilmer'
_symmetry_space_group_name_H-M	'P1'
_symmetry_Int_Tables_number	1
_symmetry_cell_setting	triclinic
loop_
_symmetry_equiv_pos_as_xyz
  x,y,z
_cell_length_a	23.532407
_cell_length_b	23.532407
_cell_length_c	22.010155
_cell_angle_alpha	89.999577
_cell_angle_beta	89.996931
_cell_angle_gamma	82.848678
loop_
_atom_site_label
_atom_site_type_symbol
_atom_site_fract_x
_atom_site_fract_y
_atom_site_fract_z
O1	O	0.755264	0.069127	-0.050455
O2	O	0.589400	0.079130	-0.050474
O3	O	0.677334	-0.008803	-0.050453
O4	O	0.667330	0.157060	-0.050476
O5	O	0.677318	-0.008790	0.050597
O6	O	0.589384	0.079143	0.050576
O7	O	0.755248	0.069140	0.050595
Cu8	Cu	0.672315	0.074143	0.059812
Cu9	Cu	0.672333	0.074127	-0.059691
O10	O	0.667314	0.157073	0.050574
C11	C	0.568176	0.078882	0.000049
C12	C	0.504959	0.078116	0.000042
C13	C	0.677071	-0.030013	0.000074
C14	C	0.676305	-0.093230	0.000078
C15	C	0.105856	0.125350	0.000063
C16	C	0.046456	0.124638	0.000067
O17	O	0.009711	0.168424	0.000083
N18	N	0.023830	0.072362	0.000073
C19	C	0.060607	0.020794	0.000082
O20	O	0.035908	-0.023737	0.000088
C21	C	0.120006	0.021506	0.000082
C22	C	0.142629	0.073785	0.000070
C23	C	0.128479	0.177625	0.000051
C24	C	0.187876	0.178336	0.000046
C25	C	0.224649	0.126772	0.000053
C26	C	0.202025	0.074497	0.000065
C27	C	0.156783	-0.030062	0.000096
C28	C	0.216185	-0.029345	0.000097
C29	C	0.238808	0.022934	0.000084
C30	C	0.298194	0.023643	0.000067
N31	N	0.320820	0.075920	0.000061
C32	C	0.284048	0.127484	0.000054
C33	C	-0.064135	0.019302	0.000082
C34	C	-0.123533	0.018589	0.000077
C35	C	-0.137680	0.122434	0.000063
C36	C	-0.078281	0.123146	0.000064
C37	C	-0.041509	0.071578	0.000076
C38	C	0.408784	0.128974	0.000043
C39	C	0.468186	0.129680	0.000035
C40	C	0.482329	0.025836	0.000052
C41	C	0.422932	0.025129	0.000057
C42	C	0.386160	0.076702	0.000054
O43	O	0.334974	-0.020119	0.000054
O44	O	0.308755	0.172007	0.000055
C45	C	0.723539	-0.492333	0.000050
C46	C	0.722827	-0.551733	0.000046
O47	O	0.766613	-0.588478	0.000028
N48	N	0.670551	-0.574359	0.000040
C49	C	0.618983	-0.537582	0.000033
O50	O	0.574452	-0.562281	0.000027
C51	C	0.619695	-0.478182	0.000033
C52	C	0.671974	-0.455560	0.000045
C53	C	0.775814	-0.469710	0.000061
C54	C	0.776525	-0.410313	0.000067
C55	C	0.724961	-0.373540	0.000062
C56	C	0.672685	-0.396164	0.000051
C57	C	0.568127	-0.441406	0.000022
C58	C	0.568844	-0.382004	0.000022
C59	C	0.621123	-0.359381	0.000034
C60	C	0.621832	-0.299995	0.000052
N61	N	0.674109	-0.277368	0.000057
C62	C	0.725673	-0.314141	0.000062
C63	C	0.617491	-0.662324	0.000031
C64	C	0.616778	-0.721722	0.000035
C65	C	0.720623	-0.735869	0.000047
C66	C	0.721335	-0.676470	0.000047
C67	C	0.669767	-0.639698	0.000037
C68	C	0.727163	-0.189405	0.000075
C69	C	0.727869	-0.130003	0.000083
C70	C	0.624025	-0.115860	0.000069
C71	C	0.623318	-0.175257	0.000064
C72	C	0.674891	-0.212029	0.000065
O73	O	0.578070	-0.263215	0.000067
O74	O	0.770196	-0.289433	0.000060
C75	C	0.776472	0.069388	0.000071
C76	C	0.839689	0.070154	0.000073
C77	C	0.667577	0.178283	0.000046
C78	C	0.668343	0.241500	0.000037
N79	N	0.672305	0.074153	0.143865
N80	N	0.672347	0.074112	-0.143744
C81	C	0.711273	0.035196	0.563653
C82	C	0.711275	0.035192	0.627261
O83	O	0.744384	0.002076	0.660160
N84	N	0.672333	0.074115	0.659072
C85	C	0.633382	0.113041	0.627272
O86	O	0.600259	0.146148	0.660170
C87	C	0.633377	0.113042	0.563665
C88	C	0.672326	0.074120	0.531858
C89	C	0.750217	-0.003723	0.531846
C90	C	0.750215	-0.003719	0.468243
C91	C	0.711268	0.035205	0.436447
C92	C	0.672324	0.074125	0.468255
C93	C	0.594424	0.151965	0.531866
C94	C	0.594422	0.151962	0.468256
C95	C	0.633370	0.113040	0.436448
C96	C	0.633374	0.113054	0.372856
N97	N	0.672317	0.074130	0.341045
C98	C	0.711263	0.035206	0.372841
C99	C	0.633395	0.113036	0.760850
C100	C	0.633402	0.113039	0.824455
C101	C	0.711294	0.035188	0.824440
C102	C	0.711290	0.035189	0.760833
C103	C	0.672337	0.074113	0.729039
C104	C	0.711256	0.035220	0.239269
C105	C	0.711252	0.035229	0.175660
C106	C	0.633358	0.113077	0.175681
C107	C	0.633364	0.113070	0.239284
C108	C	0.672315	0.074136	0.271077
O109	O	0.600282	0.146151	0.339916
O110	O	0.744376	0.002100	0.339935
H111	H	0.486602	0.172255	0.000025
H112	H	0.769159	-0.219337	0.000073
C113	C	0.088466	0.233554	0.000068
C114	C	0.031600	0.221756	0.000082
C115	C	-0.005272	0.273268	0.000100
H116	H	0.095230	0.255035	-0.035166
H117	H	0.095259	0.255016	0.035316
H118	H	0.024809	0.200304	-0.035161
H119	H	0.024818	0.200284	0.035314
H120	H	0.001521	0.294730	0.035347
H121	H	0.001497	0.294744	-0.035135
H122	H	-0.043860	0.265270	0.000115
H123	H	0.378851	0.170970	0.000042
C124	C	0.831787	-0.509655	-0.000057
C125	C	0.834439	-0.544163	-0.052051
C126	C	0.886000	-0.580958	-0.052180
H127	H	0.833721	-0.533174	0.035141
H128	H	0.863033	-0.487685	-0.000084
H129	H	0.803202	-0.566131	-0.052019
H130	H	0.832515	-0.520660	-0.087258
H131	H	0.917246	-0.558987	-0.052207
H132	H	0.887929	-0.604472	-0.016980
H133	H	0.887809	-0.604371	-0.087460
C134	C	-0.177584	0.178439	-0.000064
C135	C	-0.167418	0.209928	-0.052064
C136	C	-0.204172	0.261515	-0.052206
H137	H	-0.170793	0.199961	0.035131
H138	H	-0.216208	0.170548	-0.000093
H139	H	-0.128804	0.217820	-0.052029
H140	H	-0.174213	0.188423	-0.087267
H141	H	-0.242796	0.253624	-0.052235
H142	H	-0.197378	0.283032	-0.017009
H143	H	-0.197283	0.282884	-0.087489
C144	C	0.753456	-0.007113	0.273814
C145	C	0.723327	-0.041841	0.310320
C146	C	0.762184	-0.080846	0.342146
H147	H	0.777063	0.013185	0.298675
H148	H	0.776641	-0.030322	0.245775
H149	H	0.700153	-0.018635	0.338357
H150	H	0.699723	-0.062152	0.285474
H151	H	0.785368	-0.104054	0.314106
H152	H	0.785789	-0.060543	0.367003
H153	H	0.741748	-0.104417	0.366914
H154	H	0.404512	-0.017441	0.000058
H155	H	0.770443	-0.111587	0.000094
H156	H	0.819097	-0.391900	0.000074
C157	C	0.559958	-0.746169	-0.000001
C158	C	0.514957	-0.701244	-0.000019
C159	C	0.462605	-0.723740	-0.000065
H160	H	0.557432	-0.769039	0.035225
H161	H	0.557494	-0.769027	-0.035257
H162	H	0.517420	-0.678396	0.035233
H163	H	0.517465	-0.678370	-0.035243
H164	H	0.460141	-0.746598	-0.035320
H165	H	0.460084	-0.746611	0.035162
H166	H	0.432065	-0.693263	-0.000083
C167	C	-0.024185	-0.036673	0.000208
C168	C	0.010318	-0.039307	0.052203
C169	C	0.047118	-0.090865	0.052344
H170	H	-0.000664	-0.038614	-0.034990
H171	H	-0.046152	-0.067921	0.000243
H172	H	0.032283	-0.008067	0.052162
H173	H	-0.013187	-0.037376	0.087409
H174	H	0.025152	-0.122114	0.052379
H175	H	0.070635	-0.092802	0.017144
H176	H	0.070529	-0.092662	0.087625
C177	C	0.561516	-0.622374	-0.000095
C178	C	0.558885	-0.587869	-0.052090
C179	C	0.507326	-0.551069	-0.052233
H180	H	0.559572	-0.598855	0.035102
H181	H	0.530268	-0.644341	-0.000131
H182	H	0.590124	-0.565904	-0.052049
H183	H	0.560818	-0.611373	-0.087296
H184	H	0.476078	-0.573036	-0.052268
H185	H	0.505387	-0.527554	-0.017033
H186	H	0.505532	-0.527657	-0.087513
H187	H	0.763906	-0.658056	0.000056
C188	C	0.511306	-0.465846	-0.000025
C189	C	0.466308	-0.420918	-0.000049
C190	C	0.413953	-0.443409	-0.000102
H191	H	0.508773	-0.488716	0.035201
H192	H	0.508844	-0.488704	-0.035280
H193	H	0.468769	-0.398070	0.035203
H194	H	0.468822	-0.398045	-0.035273
H195	H	0.411491	-0.466267	-0.035357
H196	H	0.411427	-0.466278	0.035125
H197	H	0.383416	-0.412929	-0.000124
C198	C	0.512871	-0.342052	-0.000112
C199	C	0.510248	-0.307545	-0.052106
C200	C	0.458693	-0.270741	-0.052253
H201	H	0.510926	-0.318534	0.035086
H202	H	0.481620	-0.364016	-0.000152
H203	H	0.541490	-0.285583	-0.052060
H204	H	0.512183	-0.331048	-0.087313
H205	H	0.427442	-0.292705	-0.052293
H206	H	0.456752	-0.247227	-0.017052
H207	H	0.456903	-0.247328	-0.087532
H208	H	0.601676	0.144737	0.734966
C209	C	0.522234	-0.030163	-0.000065
C210	C	0.512073	-0.061667	-0.052053
C211	C	0.548830	-0.113253	-0.052182
H212	H	0.515443	-0.051676	0.035137
H213	H	0.560857	-0.022270	-0.000100
H214	H	0.473459	-0.069562	-0.052012
H215	H	0.518868	-0.040172	-0.087264
H216	H	0.587453	-0.105359	-0.052217
H217	H	0.542036	-0.134761	-0.016977
H218	H	0.541944	-0.134632	-0.087458
C219	C	0.753566	-0.007097	0.141237
C220	C	0.787661	-0.041196	0.182702
C221	C	0.826639	-0.080197	0.151016
H222	H	0.777211	0.013203	0.116421
H223	H	0.733229	-0.030732	0.116438
H224	H	0.807996	-0.017564	0.207491
H225	H	0.764033	-0.061509	0.207519
H226	H	0.806303	-0.103832	0.126217
H227	H	0.850280	-0.059892	0.126201
H228	H	0.849774	-0.103341	0.179145
C229	C	0.212458	0.235085	-0.000097
C230	C	0.246129	0.238532	-0.052098
C231	C	0.268769	0.290808	-0.052257
H232	H	0.235373	0.237595	0.035097
H233	H	0.182055	0.265701	-0.000135
H234	H	0.276528	0.207924	-0.052054
H235	H	0.223227	0.236032	-0.087300
H236	H	0.238366	0.321424	-0.052296
H237	H	0.291682	0.293313	-0.017062
H238	H	0.291614	0.293156	-0.087542
H239	H	-0.059867	0.165717	0.000057
H240	H	0.762610	-0.765821	0.000048
H241	H	0.580748	-0.193677	0.000071
H242	H	-0.141947	-0.023982	0.000078
C243	C	0.792524	-0.046047	0.433824
C244	C	0.826616	-0.080143	0.475294
C245	C	0.865592	-0.119151	0.443615
H246	H	0.816171	-0.025753	0.409005
H247	H	0.772186	-0.069684	0.409028
H248	H	0.846953	-0.056509	0.500079
H249	H	0.802985	-0.100450	0.500114
H250	H	0.845254	-0.142788	0.418819
H251	H	0.889235	-0.098852	0.418797
H252	H	0.888724	-0.142293	0.471747
C253	C	0.132343	-0.086883	0.000147
C254	C	0.177271	-0.131881	0.000174
C255	C	0.154780	-0.184236	0.000232
H256	H	0.109475	-0.089417	-0.035079
H257	H	0.109483	-0.089344	0.035403
H258	H	0.200121	-0.129421	-0.035078
H259	H	0.200142	-0.129366	0.035397
H260	H	0.131920	-0.186697	0.035488
H261	H	0.131913	-0.186763	-0.034994
H262	H	0.185260	-0.214773	0.000257
H263	H	0.246123	-0.071339	0.000107
H264	H	0.582043	-0.085909	0.000067
C265	C	0.792418	-0.046052	0.566392
C266	C	0.762295	-0.080780	0.602903
C267	C	0.801158	-0.119784	0.634724
H268	H	0.816027	-0.025753	0.591249
H269	H	0.815599	-0.069259	0.538349
H270	H	0.739124	-0.057575	0.630942
H271	H	0.738689	-0.101092	0.578061
H272	H	0.824339	-0.142992	0.606681
H273	H	0.824765	-0.099480	0.659577
H274	H	0.780725	-0.143356	0.659496
C275	C	0.753599	-0.007137	0.726412
C276	C	0.787697	-0.041230	0.767880
C277	C	0.826674	-0.080234	0.736197
H278	H	0.777242	0.013161	0.701592
H279	H	0.733262	-0.030775	0.701618
H280	H	0.808032	-0.017595	0.792664
H281	H	0.764069	-0.061540	0.792701
H282	H	0.806337	-0.103873	0.711402
H283	H	0.850313	-0.059932	0.711378
H284	H	0.849810	-0.103375	0.764328
C285	C	0.591055	0.155327	0.858875
C286	C	0.556940	0.189404	0.817407
C287	C	0.517915	0.228360	0.849090
H288	H	0.611336	0.178987	0.883690
H289	H	0.567432	0.134974	0.883674
H290	H	0.580559	0.209755	0.792618
H291	H	0.536646	0.165760	0.792591
H292	H	0.494292	0.208007	0.873890
H293	H	0.538201	0.252015	0.873904
H294	H	0.494760	0.251482	0.820959
H295	H	0.743006	0.003493	0.850339
C296	C	0.552070	0.194249	0.566279
C297	C	0.517955	0.228319	0.524808
C298	C	0.478924	0.267274	0.556485
H299	H	0.572348	0.217913	0.591093
H300	H	0.528449	0.173895	0.591080
H301	H	0.541573	0.248671	0.500018
H302	H	0.497664	0.204671	0.499992
H303	H	0.455303	0.246921	0.581285
H304	H	0.499207	0.290934	0.581298
H305	H	0.455769	0.290392	0.528352
C306	C	0.552221	0.194253	0.433659
C307	C	0.582353	0.228959	0.397131
C308	C	0.543499	0.267920	0.365247
H309	H	0.529012	0.217486	0.461646
H310	H	0.528639	0.173903	0.408812
H311	H	0.605926	0.249308	0.421976
H312	H	0.605560	0.205742	0.369132
H313	H	0.519917	0.247569	0.340400
H314	H	0.520292	0.291149	0.393238
H315	H	0.563938	0.291469	0.340455
H316	H	0.601654	0.144769	0.265183
H317	H	0.601650	0.144771	0.149783
