data_functionalizedCrystal
_audit_creation_method	'MofGen! by Chris Wilmer'
_symmetry_space_group_name_H-M	'P1'
_symmetry_Int_Tables_number	1
_symmetry_cell_setting	triclinic
loop_
_symmetry_equiv_pos_as_xyz
  x,y,z
_cell_length_a	29.839134
_cell_length_b	29.839126
_cell_length_c	18.050589
_cell_angle_alpha	89.983119
_cell_angle_beta	90.023083
_cell_angle_gamma	89.970362
loop_
_atom_site_label
_atom_site_type_symbol
_atom_site_fract_x
_atom_site_fract_y
_atom_site_fract_z
Zn1	Zn	0.686795	-0.254148	-0.295818
Zn2	Zn	1.020128	0.079186	0.037515
Zn3	Zn	1.353461	0.412519	0.370849
Zn4	Zn	0.686734	-0.179027	-0.419999
Zn5	Zn	1.020068	0.154306	-0.086665
Zn6	Zn	1.353401	0.487639	0.246668
Zn7	Zn	0.611668	-0.179017	-0.295816
Zn8	Zn	0.945001	0.154316	0.037518
Zn9	Zn	1.278334	0.487649	0.370851
Zn10	Zn	0.611643	-0.254116	-0.419960
Zn11	Zn	0.944976	0.079218	-0.086626
Zn12	Zn	1.278309	0.412551	0.246707
O13	O	0.649210	-0.216577	-0.357898
O14	O	0.982543	0.116756	-0.024565
O15	O	1.315876	0.450090	0.308769
O16	O	0.749654	-0.244200	-0.312308
O17	O	1.082987	0.089133	0.021025
O18	O	1.416321	0.422466	0.354359
O19	O	0.676762	-0.116159	-0.403541
O20	O	1.010095	0.217175	-0.070207
O21	O	1.343428	0.550508	0.263126
O22	O	0.621669	-0.188993	-0.191891
O23	O	0.955002	0.144341	0.141442
O24	O	1.288336	0.477674	0.474775
O25	O	0.749609	-0.189010	-0.403543
O26	O	1.082943	0.144324	-0.070210
O27	O	1.416276	0.477657	0.263124
O28	O	0.676865	-0.244191	-0.191893
O29	O	1.010198	0.089142	0.141440
O30	O	1.343531	0.422476	0.474773
O31	O	0.621610	-0.116151	-0.312304
O32	O	0.954944	0.217182	0.021029
O33	O	1.288277	0.550515	0.354363
O34	O	0.548797	-0.188962	-0.312266
O35	O	0.882130	0.144372	0.021067
O36	O	1.215464	0.477705	0.354400
O37	O	0.621627	-0.316987	-0.403477
O38	O	0.954960	0.016346	-0.070143
O39	O	1.288293	0.349680	0.263190
O40	O	0.548779	-0.244136	-0.403474
O41	O	0.882112	0.089197	-0.070141
O42	O	1.215446	0.422531	0.263192
O43	O	0.676841	-0.317011	-0.312270
O44	O	1.010174	0.016323	0.021063
O45	O	1.343507	0.349656	0.354396
O46	O	0.676737	-0.188979	-0.523918
O47	O	1.010071	0.144355	-0.190585
O48	O	1.343404	0.477688	0.142749
O49	O	0.621568	-0.244146	-0.523889
O50	O	0.954901	0.089188	-0.190556
O51	O	1.288235	0.422521	0.142777
C52	C	0.532487	-0.216545	-0.357866
C53	C	0.865821	0.116789	-0.024533
C54	C	1.199154	0.450122	0.308800
C55	C	0.482553	-0.216541	-0.357871
C56	C	0.815886	0.116792	-0.024538
C57	C	1.149219	0.450125	0.308796
C58	C	0.172909	-0.245271	-0.405460
C59	C	0.506243	0.088062	-0.072127
C60	C	0.839576	0.421396	0.261206
C61	C	-0.014764	-0.245291	-0.405481
C62	C	0.318570	0.088042	-0.072148
C63	C	0.651903	0.421376	0.261186
O64	O	-0.039029	-0.269699	-0.445908
O65	O	0.294305	0.063634	-0.112575
O66	O	0.627638	0.396968	0.220758
N67	N	-0.038232	-0.216611	-0.357925
N68	N	0.295101	0.116723	-0.024592
N69	N	0.628434	0.450056	0.308741
C70	C	-0.014780	-0.187926	-0.310357
C71	C	0.318554	0.145408	0.022976
C72	C	0.651887	0.478741	0.356309
O73	O	-0.039047	-0.163535	-0.269903
O74	O	0.294286	0.169798	0.063430
O75	O	0.627619	0.503132	0.396764
C76	C	0.172892	-0.187908	-0.310333
C77	C	0.506226	0.145425	0.023000
C78	C	0.839559	0.478758	0.356334
C79	C	0.196359	-0.216587	-0.357897
C80	C	0.529692	0.116746	-0.024564
C81	C	0.863025	0.450080	0.308769
C82	C	0.196376	-0.273948	-0.453020
C83	C	0.529709	0.059385	-0.119687
C84	C	0.863042	0.392719	0.213647
C85	C	0.243291	-0.273941	-0.453017
C86	C	0.576624	0.059392	-0.119684
C87	C	0.909958	0.392726	0.213649
C88	C	0.266740	-0.245257	-0.405455
C89	C	0.600074	0.088076	-0.072121
C90	C	0.933407	0.421410	0.261212
C91	C	0.243274	-0.216580	-0.357895
C92	C	0.576607	0.116753	-0.024561
C93	C	0.909941	0.450087	0.308772
C94	C	0.196344	-0.159226	-0.262762
C95	C	0.529678	0.174108	0.070571
C96	C	0.863011	0.507441	0.403905
C97	C	0.243265	-0.159225	-0.262759
C98	C	0.576599	0.174109	0.070575
C99	C	0.909932	0.507442	0.403908
C100	C	0.266731	-0.187904	-0.310323
C101	C	0.600065	0.145430	0.023010
C102	C	0.933398	0.478763	0.356343
C103	C	0.313639	-0.187889	-0.310329
C104	C	0.646972	0.145444	0.023004
C105	C	0.980305	0.478778	0.356338
N106	N	0.337107	-0.216569	-0.357885
N107	N	0.670441	0.116764	-0.024552
N108	N	1.003774	0.450097	0.308782
C109	C	0.313658	-0.245253	-0.405448
C110	C	0.646991	0.088080	-0.072114
C111	C	0.980325	0.421413	0.261219
C112	C	-0.113310	-0.187936	-0.310374
C113	C	0.220023	0.145397	0.022959
C114	C	0.553356	0.478731	0.356292
C115	C	-0.160228	-0.187940	-0.310381
C116	C	0.173105	0.145394	0.022952
C117	C	0.506439	0.478727	0.356286
C118	C	-0.160209	-0.245306	-0.405504
C119	C	0.173124	0.088027	-0.072171
C120	C	0.506458	0.421361	0.261162
C121	C	-0.113290	-0.245300	-0.405501
C122	C	0.220043	0.088034	-0.072167
C123	C	0.553376	0.421367	0.261166
C124	C	-0.089842	-0.216616	-0.357930
C125	C	0.243492	0.116717	-0.024597
C126	C	0.576825	0.450050	0.308736
C127	C	0.412184	-0.245236	-0.405439
C128	C	0.745517	0.088097	-0.072105
C129	C	1.078851	0.421430	0.261228
C130	C	0.459104	-0.245225	-0.405434
C131	C	0.792437	0.088108	-0.072100
C132	C	1.125770	0.421441	0.261233
C133	C	0.459080	-0.187861	-0.310308
C134	C	0.792414	0.145472	0.023025
C135	C	1.125747	0.478806	0.356359
C136	C	0.412165	-0.187870	-0.310315
C137	C	0.745498	0.145463	0.023018
C138	C	1.078831	0.478797	0.356351
C139	C	0.388718	-0.216561	-0.357883
C140	C	0.722051	0.116772	-0.024550
C141	C	1.055384	0.450105	0.308784
O142	O	0.337933	-0.163498	-0.269917
O143	O	0.671266	0.169836	0.063416
O144	O	1.004599	0.503169	0.396750
O145	O	0.337934	-0.269647	-0.445884
O146	O	0.671267	0.063686	-0.112551
O147	O	1.004601	0.397019	0.220782
C148	C	0.125994	-0.245278	-0.405463
C149	C	0.459327	0.088055	-0.072130
C150	C	0.792661	0.421389	0.261204
C151	C	0.102528	-0.216601	-0.357903
C152	C	0.435861	0.116732	-0.024570
C153	C	0.769194	0.450065	0.308763
C154	C	0.125977	-0.187917	-0.310340
C155	C	0.459310	0.145416	0.022993
C156	C	0.792644	0.478749	0.356326
C157	C	0.055610	-0.216605	-0.357910
C158	C	0.388943	0.116728	-0.024577
C159	C	0.722277	0.450062	0.308757
C160	C	0.032161	-0.245289	-0.405473
C161	C	0.365494	0.088045	-0.072139
C162	C	0.698827	0.421378	0.261194
C163	C	0.055629	-0.273969	-0.453029
C164	C	0.388963	0.059364	-0.119695
C165	C	0.722296	0.392698	0.213638
C166	C	0.102545	-0.273962	-0.453026
C167	C	0.435878	0.059371	-0.119693
C168	C	0.769211	0.392705	0.213641
C169	C	0.102508	-0.159237	-0.262785
C170	C	0.435842	0.174096	0.070549
C171	C	0.769175	0.507430	0.403882
C172	C	0.055593	-0.159246	-0.262792
C173	C	0.388926	0.174087	0.070541
C174	C	0.722260	0.507421	0.403875
C175	C	0.032144	-0.187930	-0.310355
C176	C	0.365477	0.145403	0.022979
C177	C	0.698810	0.478737	0.356312
C178	C	0.649238	-0.333755	-0.357870
C179	C	0.982571	-0.000422	-0.024536
C180	C	1.315904	0.332911	0.308797
C181	C	0.649249	-0.383690	-0.357857
C182	C	0.982583	-0.050356	-0.024524
C183	C	1.315916	0.282977	0.308809
C184	C	0.620541	-0.693332	-0.310276
C185	C	0.953875	-0.359999	0.023057
C186	C	1.287208	-0.026666	0.356390
C187	C	0.620554	-0.881006	-0.310225
C188	C	0.953887	-0.547672	0.023109
C189	C	1.287221	-0.214339	0.356442
O190	O	0.596123	-0.905270	-0.269844
O191	O	0.929456	-0.571936	0.063490
O192	O	1.262789	-0.238603	0.396823
N193	N	0.649271	-0.904475	-0.357718
N194	N	0.982604	-0.571142	-0.024385
N195	N	1.315937	-0.237808	0.308949
C196	C	0.677984	-0.881024	-0.405231
C197	C	1.011318	-0.547690	-0.071898
C198	C	1.344651	-0.214357	0.261435
O199	O	0.702407	-0.905292	-0.445631
O200	O	1.035740	-0.571959	-0.112298
O201	O	1.369073	-0.238625	0.221035
C202	C	0.677969	-0.693351	-0.405286
C203	C	1.011302	-0.360018	-0.071953
C204	C	1.344636	-0.026685	0.261381
C205	C	0.649254	-0.669884	-0.357784
C206	C	0.982587	-0.336551	-0.024451
C207	C	1.315920	-0.003217	0.308883
C208	C	0.591828	-0.669865	-0.262779
C209	C	0.925161	-0.336532	0.070554
C210	C	1.258494	-0.003199	0.403888
C211	C	0.591827	-0.622950	-0.262789
C212	C	0.925160	-0.289616	0.070544
C213	C	1.258493	0.043717	0.403877
C214	C	0.620539	-0.599501	-0.310297
C215	C	0.953872	-0.266168	0.023036
C216	C	1.287206	0.067165	0.356369
C217	C	0.649252	-0.622969	-0.357795
C218	C	0.982586	-0.289635	-0.024461
C219	C	1.315919	0.043698	0.308872
C220	C	0.706680	-0.669901	-0.452802
C221	C	1.040013	-0.336567	-0.119469
C222	C	1.373347	-0.003234	0.213864
C223	C	0.706673	-0.622979	-0.452813
C224	C	1.040006	-0.289646	-0.119480
C225	C	1.373340	0.043687	0.213854
C226	C	0.677957	-0.599512	-0.405311
C227	C	1.011291	-0.266179	-0.071978
C228	C	1.344624	0.067154	0.261355
C229	C	0.677964	-0.552605	-0.405313
C230	C	1.011297	-0.219272	-0.071980
C231	C	1.344630	0.114062	0.261354
N232	N	0.649247	-0.529135	-0.357820
N233	N	0.982580	-0.195802	-0.024486
N234	N	1.315913	0.137531	0.308847
C235	C	0.620534	-0.552584	-0.310312
C236	C	0.953868	-0.219250	0.023022
C237	C	1.287201	0.114083	0.356355
C238	C	0.677991	-0.979554	-0.405198
C239	C	1.011324	-0.646221	-0.071865
C240	C	1.344658	-0.312887	0.261469
C241	C	0.677995	-1.026472	-0.405184
C242	C	1.011329	-0.693139	-0.071850
C243	C	1.344662	-0.359805	0.261483
C244	C	0.620564	-1.026451	-0.310178
C245	C	0.953898	-0.693117	0.023155
C246	C	1.287231	-0.359784	0.356489
C247	C	0.620562	-0.979532	-0.310189
C248	C	0.953896	-0.646199	0.023144
C249	C	1.287229	-0.312865	0.356478
C250	C	0.649274	-0.956085	-0.357705
C251	C	0.982608	-0.622751	-0.024371
C252	C	1.315941	-0.289418	0.308962
C253	C	0.620534	-0.454058	-0.310337
C254	C	0.953868	-0.120724	0.022996
C255	C	1.287201	0.212609	0.356330
C256	C	0.620537	-0.407138	-0.310350
C257	C	0.953870	-0.073805	0.022984
C258	C	1.287204	0.259529	0.356317
C259	C	0.677966	-0.407163	-0.405358
C260	C	1.011300	-0.073830	-0.072024
C261	C	1.344633	0.259503	0.261309
C262	C	0.677966	-0.454079	-0.405343
C263	C	1.011299	-0.120746	-0.072009
C264	C	1.344632	0.212588	0.261324
C265	C	0.649246	-0.477525	-0.357830
C266	C	0.982579	-0.144192	-0.024497
C267	C	1.315913	0.189142	0.308837
O268	O	0.702378	-0.528312	-0.445679
O269	O	1.035712	-0.194979	-0.112346
O270	O	1.369045	0.138355	0.220988
O271	O	0.596109	-0.528307	-0.269929
O272	O	0.929442	-0.194974	0.063404
O273	O	1.262775	0.138360	0.396738
C274	C	0.620542	-0.740248	-0.310266
C275	C	0.953876	-0.406915	0.023068
C276	C	1.287209	-0.073581	0.356401
C277	C	0.649256	-0.763715	-0.357763
C278	C	0.982589	-0.430382	-0.024430
C279	C	1.315923	-0.097048	0.308904
C280	C	0.677968	-0.740267	-0.405271
C281	C	1.011302	-0.406933	-0.071938
C282	C	1.344635	-0.073600	0.261396
C283	C	0.649260	-0.810633	-0.357749
C284	C	0.982594	-0.477300	-0.024415
C285	C	1.315927	-0.143966	0.308918
C286	C	0.620548	-0.834081	-0.310241
C287	C	0.953881	-0.500748	0.023093
C288	C	1.287215	-0.167415	0.356426
C289	C	0.591831	-0.810612	-0.262747
C290	C	0.925165	-0.477278	0.070586
C291	C	1.258498	-0.143945	0.403919
C292	C	0.591830	-0.763696	-0.262758
C293	C	0.925163	-0.430363	0.070575
C294	C	1.258497	-0.097030	0.403909
C295	C	0.706685	-0.763736	-0.452764
C296	C	1.040018	-0.430403	-0.119431
C297	C	1.373352	-0.097070	0.213902
C298	C	0.706684	-0.810652	-0.452749
C299	C	1.040018	-0.477319	-0.119416
C300	C	1.373351	-0.143985	0.213917
C301	C	0.677972	-0.834100	-0.405241
C302	C	1.011305	-0.500767	-0.071908
C303	C	1.344639	-0.167433	0.261425
C304	C	0.766388	-0.216610	-0.357930
C305	C	1.099721	0.116724	-0.024597
C306	C	1.433055	0.450057	0.308737
C307	C	0.816323	-0.216624	-0.357944
C308	C	1.149656	0.116710	-0.024611
C309	C	1.482989	0.450043	0.308723
C310	C	0.649156	-0.216570	-0.550850
C311	C	0.982489	0.116764	-0.217517
C312	C	1.315822	0.450097	0.115817
C313	C	0.649173	-0.216581	-0.633396
C314	C	0.982507	0.116752	-0.300063
C315	C	1.315840	0.450085	0.033271
C316	C	0.649208	-0.099854	-0.357873
C317	C	0.982541	0.233479	-0.024539
C318	C	1.315875	0.566812	0.308794
C319	C	0.649283	-0.049920	-0.357676
C320	C	0.982616	0.283413	-0.024342
C321	C	1.315950	0.616746	0.308991
C322	C	0.619202	-0.246571	-0.832858
C323	C	0.952535	0.086763	-0.499525
C324	C	1.285868	0.420096	-0.166191
C325	C	0.608250	-0.205574	-0.882289
C326	C	0.941584	0.127759	-0.548955
C327	C	1.274917	0.461092	-0.215622
C328	C	0.649218	-0.216587	-0.784526
C329	C	0.982551	0.116746	-0.451193
C330	C	1.315884	0.450079	-0.117860
C331	C	0.660191	-0.257588	-0.882177
C332	C	0.993525	0.075745	-0.548844
C333	C	1.326858	0.409078	-0.215510
C334	C	0.649259	-0.216597	-0.930511
C335	C	0.982593	0.116737	-0.597178
C336	C	1.315926	0.450070	-0.263845
C337	C	0.638245	-0.175569	-0.832870
C338	C	0.971578	0.157764	-0.499536
C339	C	1.304911	0.491097	-0.166203
C340	C	0.690204	-0.227611	-0.832754
C341	C	1.023538	0.105723	-0.499421
C342	C	1.356871	0.439056	-0.166087
C343	C	0.679269	-0.186586	-0.882162
C344	C	1.012602	0.146747	-0.548829
C345	C	1.345935	0.480081	-0.215496
C346	C	0.649192	-0.216582	-0.700428
C347	C	0.982526	0.116751	-0.367095
C348	C	1.315859	0.450084	-0.033761
C349	C	0.649285	-0.216597	-1.014608
C350	C	0.982618	0.116737	-0.681274
C351	C	1.315951	0.450070	-0.347941
C352	C	0.649276	-0.216594	-0.164192
C353	C	0.982610	0.116739	0.169141
C354	C	1.315943	0.450072	0.502474
C355	C	0.649305	-0.216602	-0.081647
C356	C	0.982638	0.116732	0.251687
C357	C	1.315972	0.450065	0.585020
H358	H	0.262393	-0.297295	-0.491748
H359	H	0.595726	0.036038	-0.158414
H360	H	0.929060	0.369371	0.174919
H361	H	0.730065	-0.744649	-0.491455
H362	H	1.063398	-0.411316	-0.158121
H363	H	1.396732	-0.077983	0.175212
Cl364	Cl	0.026141	-0.310027	-0.512824
Cl365	Cl	0.359474	0.023307	-0.179491
Cl366	Cl	0.692808	0.356640	0.153842
Cl367	Cl	0.623879	-0.122025	-0.799574
Cl368	Cl	0.957212	0.211308	-0.466240
Cl369	Cl	1.290546	0.544642	-0.132907
Cl370	Cl	0.714073	-0.483581	-0.465047
Cl371	Cl	1.047406	-0.150248	-0.131714
Cl372	Cl	1.380740	0.183085	0.201620
Cl373	Cl	0.579957	-0.285664	-0.799429
Cl374	Cl	0.913290	0.047670	-0.466096
Cl375	Cl	1.246623	0.381003	-0.132763
Cl376	Cl	0.555737	-0.840099	-0.203022
Cl377	Cl	0.889071	-0.506765	0.130311
Cl378	Cl	1.222404	-0.173432	0.463645
H379	H	0.704670	-0.161205	-0.903675
H380	H	1.038003	0.172129	-0.570341
H381	H	1.371337	0.505462	-0.237008
Cl382	Cl	0.742769	-0.593506	-0.512553
Cl383	Cl	1.076102	-0.260172	-0.179219
Cl384	Cl	1.409436	0.073161	0.154114
H385	H	0.121596	-0.135879	-0.224052
H386	H	0.454929	0.197455	0.109281
H387	H	0.788263	0.530788	0.442614
H388	H	0.669456	-0.292259	-0.903836
H389	H	1.002789	0.041075	-0.570502
H390	H	1.336123	0.374408	-0.237169
Cl391	Cl	0.584436	-0.377639	-0.250627
Cl392	Cl	0.917769	-0.044306	0.082706
Cl393	Cl	1.251102	0.289027	0.416040
H394	H	0.478208	-0.268580	-0.444169
H395	H	0.811541	0.064754	-0.110836
H396	H	1.144874	0.398087	0.222498
H397	H	0.724838	-0.236946	-0.810981
H398	H	1.058172	0.096388	-0.477648
H399	H	1.391505	0.429721	-0.144315
H400	H	0.730063	-0.688999	-0.491484
H401	H	1.063396	-0.355666	-0.158151
H402	H	1.396730	-0.022333	0.175183
Cl403	Cl	0.166905	-0.310013	-0.512822
Cl404	Cl	0.500238	0.023321	-0.179489
Cl405	Cl	0.833572	0.356654	0.153844
Cl406	Cl	-0.189697	-0.281369	-0.465292
Cl407	Cl	0.143637	0.051964	-0.131959
Cl408	Cl	0.476970	0.385298	0.201375
H409	H	0.393099	-0.268600	-0.444171
H410	H	0.726432	0.064733	-0.110838
H411	H	1.059766	0.398066	0.222496
H412	H	0.701345	-0.388063	-0.444035
H413	H	1.034678	-0.054730	-0.110702
H414	H	1.368011	0.278603	0.222632
Cl415	Cl	0.026098	-0.123187	-0.202992
Cl416	Cl	0.359432	0.210146	0.130341
Cl417	Cl	0.692765	0.543479	0.463675
Cl418	Cl	0.742789	-0.840148	-0.512471
Cl419	Cl	1.076122	-0.506814	-0.179137
Cl420	Cl	1.409455	-0.173481	0.154196
H421	H	0.573609	-0.196259	-0.904063
H422	H	0.906942	0.137074	-0.570730
H423	H	1.240275	0.470408	-0.237397
Cl424	Cl	-0.189723	-0.151879	-0.250593
Cl425	Cl	0.143611	0.181454	0.082740
Cl426	Cl	0.476944	0.514788	0.416074
H427	H	-0.094187	-0.268653	-0.444231
H428	H	0.239146	0.064680	-0.110897
H429	H	0.572480	0.398013	0.222436
H430	H	-0.094223	-0.164577	-0.271636
H431	H	0.239110	0.168757	0.061697
H432	H	0.572444	0.502090	0.395031
Cl433	Cl	0.166855	-0.123173	-0.202957
Cl434	Cl	0.500189	0.210160	0.130376
Cl435	Cl	0.833522	0.543494	0.463709
H436	H	0.393058	-0.164516	-0.271586
H437	H	0.726391	0.168817	0.061747
H438	H	1.059724	0.502150	0.395080
Cl439	Cl	0.272740	-0.123163	-0.202952
Cl440	Cl	0.606074	0.210170	0.130382
Cl441	Cl	0.939407	0.543503	0.463715
Cl442	Cl	0.584461	-0.950035	-0.250472
Cl443	Cl	0.917794	-0.616702	0.082861
Cl444	Cl	1.251127	-0.283369	0.416194
H445	H	0.121647	-0.297316	-0.491757
H446	H	0.454980	0.036018	-0.158424
H447	H	0.788313	0.369351	0.174909
Cl448	Cl	0.488568	-0.151804	-0.250517
Cl449	Cl	0.821901	0.181530	0.082816
Cl450	Cl	1.155235	0.514863	0.416149
H451	H	0.568447	-0.744593	-0.224077
H452	H	0.901780	-0.411260	0.109256
H453	H	1.235114	-0.077927	0.442590
H454	H	0.597149	-0.473142	-0.271647
H455	H	0.930482	-0.139809	0.061686
H456	H	1.263815	0.193525	0.395020
H457	H	0.568442	-0.603847	-0.224111
H458	H	0.901775	-0.270514	0.109222
H459	H	1.235108	0.062820	0.442555
H460	H	0.597187	-1.045550	-0.271493
H461	H	0.930520	-0.712217	0.061840
H462	H	1.263853	-0.378884	0.395173
Cl463	Cl	0.714102	-1.055968	-0.464893
Cl464	Cl	1.047436	-0.722634	-0.131560
Cl465	Cl	1.380769	-0.389301	0.201773
Cl466	Cl	0.714092	-0.950084	-0.464934
Cl467	Cl	1.047425	-0.616751	-0.131601
Cl468	Cl	1.380759	-0.283417	0.201732
Cl469	Cl	0.555722	-0.699335	-0.203055
Cl470	Cl	0.889055	-0.366001	0.130278
Cl471	Cl	1.222388	-0.032668	0.463611
