data_functionalizedCrystal
_audit_creation_method	'MofGen! by Chris Wilmer'
_symmetry_space_group_name_H-M	'P1'
_symmetry_Int_Tables_number	1
_symmetry_cell_setting	triclinic
loop_
_symmetry_equiv_pos_as_xyz
  x,y,z
_cell_length_a	10.654550
_cell_length_b	15.021413
_cell_length_c	10.654550
_cell_angle_alpha	89.994777
_cell_angle_beta	84.484903
_cell_angle_gamma	90.010914
loop_
_atom_site_label
_atom_site_type_symbol
_atom_site_fract_x
_atom_site_fract_y
_atom_site_fract_z
O1	O	1.667848	0.074103	0.176382
O2	O	1.302370	0.074088	0.193188
O3	O	1.493512	0.074093	0.002046
O4	O	1.476706	0.074099	0.367524
O5	O	1.493481	-0.073972	0.002073
O6	O	1.302339	-0.073976	0.193215
O7	O	1.667818	-0.073961	0.176409
Zn8	Zn	1.485074	-0.097477	0.184817
Zn9	Zn	1.485114	0.097604	0.184781
O10	O	1.476675	-0.073966	0.367552
C11	C	1.255556	0.000054	0.191968
C12	C	1.116113	0.000049	0.188276
C13	C	1.036627	0.000064	0.300817
C14	C	0.905607	0.000079	0.297341
C15	C	0.933570	0.000068	0.068771
C16	C	1.064588	0.000047	0.072249
C17	C	1.020482	0.000074	0.432780
C18	C	0.889461	0.000089	0.429304
N19	N	1.485055	-0.230615	0.184840
C20	C	1.396657	-0.470300	0.273183
C21	C	1.510355	-0.529629	0.298547
C22	C	1.485087	-0.412221	0.184809
C23	C	1.371421	-0.529634	0.159473
C24	C	1.485108	-0.587646	0.184782
C25	C	1.598842	-0.470245	0.210231
C26	C	1.459834	-0.470244	0.071107
C27	C	1.573613	-0.529546	0.096424
C28	C	1.485074	-0.311164	0.184828
C29	C	1.485135	-0.688701	0.184762
C30	C	1.714631	0.000075	0.177630
C31	C	1.854074	0.000086	0.181321
C32	C	1.492263	0.000062	-0.044739
C33	C	1.488571	0.000065	-0.184182
N34	N	1.485142	0.230742	0.184747
C35	C	1.601112	0.000066	-0.263668
C36	C	1.597636	0.000072	-0.394688
C37	C	1.369066	0.000071	-0.366725
C38	C	1.372544	0.000071	-0.235707
C39	C	1.733075	0.000063	-0.279813
C40	C	1.729599	0.000069	-0.410834
C41	C	1.477925	0.000067	0.414336
C42	C	1.481616	0.000070	0.553779
H43	H	0.843777	-0.063834	0.469196
H44	H	1.280902	0.000082	-0.170993
H45	H	1.769493	0.064001	-0.456489
H46	H	1.775084	-0.063866	-0.244174
H47	H	0.847741	0.062059	0.479014
H48	H	1.274601	0.000078	-0.408693
H49	H	1.779308	-0.061892	-0.452583
H50	H	1.784703	0.062025	-0.250466
H51	H	1.129302	0.000022	-0.019393
H52	H	1.531733	-0.555714	0.394691
O53	O	0.877999	0.000070	-0.056369
H54	H	0.773539	0.000091	-0.039883
H55	H	1.049800	-0.061894	0.484402
H56	H	1.056151	0.064000	0.474788
H57	H	1.321951	-0.444286	0.347979
O58	O	1.726216	-0.435848	0.238761
H59	H	1.725191	-0.361961	0.238599
O60	O	1.431466	-0.435660	-0.056205
H61	H	1.503945	-0.460434	-0.129702
O62	O	1.672780	-0.563808	-0.002587
H63	H	1.766993	-0.539895	0.018739
H64	H	1.275287	-0.555723	0.138057
