data_functionalizedCrystal
_audit_creation_method	'MofGen! by Chris Wilmer'
_symmetry_space_group_name_H-M	'P1'
_symmetry_Int_Tables_number	1
_symmetry_cell_setting	triclinic
loop_
_symmetry_equiv_pos_as_xyz
  x,y,z
_cell_length_a	14.519709
_cell_length_b	12.503572
_cell_length_c	14.519731
_cell_angle_alpha	93.524736
_cell_angle_beta	96.315500
_cell_angle_gamma	93.519209
loop_
_atom_site_label
_atom_site_type_symbol
_atom_site_fract_x
_atom_site_fract_y
_atom_site_fract_z
O1	O	1.229178	0.089193	-0.115571
O2	O	1.729178	0.589193	0.384429
O3	O	0.960704	0.089227	-0.129806
O4	O	1.460704	0.589227	0.370194
O5	O	1.102048	0.089187	0.011547
O6	O	1.602048	0.589187	0.511547
O7	O	1.087834	0.089233	-0.256924
O8	O	1.587834	0.589233	0.243076
O9	O	1.091418	-0.089452	0.000899
O10	O	1.591418	0.410548	0.500899
O11	O	0.950074	-0.089412	-0.140454
O12	O	1.450074	0.410588	0.359546
O13	O	1.218548	-0.089446	-0.126219
O14	O	1.718548	0.410554	0.373781
Cu15	Cu	1.083341	-0.105740	-0.134309
Cu16	Cu	1.583341	0.394260	0.365691
Cu17	Cu	1.095912	0.105521	-0.121716
Cu18	Cu	1.595912	0.605521	0.378284
O19	O	1.077205	-0.089406	-0.267572
O20	O	1.577205	0.410594	0.232428
C21	C	0.921030	-0.000088	-0.134466
C22	C	1.421030	0.499912	0.365534
C23	C	0.818649	-0.000076	-0.132477
C24	C	1.318649	0.499924	0.367523
N25	N	1.074506	-0.254330	-0.143165
N26	N	1.574506	0.245670	0.356835
C27	C	0.443750	-0.000126	-0.125161
C28	C	0.943750	0.499874	0.374839
C29	C	0.548059	-0.000112	-0.127192
C30	C	1.048059	0.499888	0.372808
C31	C	0.631196	-0.000100	-0.128819
C32	C	1.131196	0.499900	0.371181
C33	C	0.735512	-0.000088	-0.130851
C34	C	1.235512	0.499912	0.369149
C35	C	1.061509	-0.473442	-0.156201
C36	C	1.561509	0.026558	0.343799
C37	C	1.117748	-0.526784	-0.099819
C38	C	1.617748	-0.026784	0.400181
C39	C	1.110516	-0.648706	-0.107073
C40	C	1.610516	-0.148706	0.392927
C41	C	1.068739	-0.351509	-0.148949
C42	C	1.568739	0.148491	0.351051
C43	C	1.258223	-0.000128	-0.121559
C44	C	1.758223	0.499872	0.378441
C45	C	1.360604	-0.000134	-0.123547
C46	C	1.860604	0.499866	0.376453
C47	C	1.096067	-0.000135	0.040582
C48	C	1.596067	0.499865	0.540582
C49	C	1.094070	-0.000145	0.142962
C50	C	1.594070	0.499855	0.642962
N51	N	1.104754	0.254111	-0.112852
N52	N	1.604754	0.754111	0.387148
C53	C	1.092448	-0.000150	0.226106
C54	C	1.592448	0.499850	0.726106
C55	C	1.090421	-0.000150	0.330415
C56	C	1.590421	0.499850	0.830415
C57	C	1.088813	-0.000151	0.413554
C58	C	1.588813	0.499849	0.913554
C59	C	1.086786	-0.000154	0.517869
C60	C	1.586786	0.499846	1.017869
C61	C	1.083185	-0.000104	0.703391
C62	C	1.583185	0.499896	1.203391
C63	C	1.085178	-0.000154	0.601008
C64	C	1.585178	0.499846	1.101008
H65	H	1.171327	-0.480887	-0.046102
H66	H	1.671327	0.019113	0.453898
F67	F	0.991483	-0.533427	-0.226412
F68	F	1.491483	-0.033427	0.273588
