data_functionalizedCrystal
_audit_creation_method	'MofGen! by Chris Wilmer'
_symmetry_space_group_name_H-M	'P1'
_symmetry_Int_Tables_number	1
_symmetry_cell_setting	triclinic
loop_
_symmetry_equiv_pos_as_xyz
  x,y,z
_cell_length_a	10.967874
_cell_length_b	10.654541
_cell_length_c	9.482944
_cell_angle_alpha	100.343865
_cell_angle_beta	112.344705
_cell_angle_gamma	84.598904
loop_
_atom_site_label
_atom_site_type_symbol
_atom_site_fract_x
_atom_site_fract_y
_atom_site_fract_z
O1	O	1.738208	0.257186	0.556360
O2	O	1.361312	0.260294	0.461941
O3	O	1.558426	0.076314	0.511312
O4	O	1.541094	0.441166	0.506988
O5	O	1.521887	0.039759	0.260365
O6	O	1.324772	0.223739	0.210993
O7	O	1.701669	0.220631	0.305412
Cu8	Cu	1.509885	0.218847	0.235289
Cu9	Cu	1.553096	0.262077	0.532064
O10	O	1.504555	0.404611	0.256041
C11	C	1.294782	0.239028	0.324377
C12	C	1.150982	0.230110	0.288353
C13	C	1.105801	0.245070	0.402290
C14	C	0.957177	0.235853	0.365060
C15	C	1.538884	0.011192	0.385521
C16	C	1.535079	-0.128389	0.384570
C17	C	1.770781	-0.147796	0.443599
C18	C	1.886838	-0.223074	0.472661
C19	C	1.883255	-0.354222	0.471768
C20	C	1.763602	-0.410093	0.441814
C21	C	1.647545	-0.334815	0.412752
C22	C	1.651140	-0.203666	0.413644
C23	C	1.411847	-0.315406	0.353734
C24	C	1.415426	-0.184260	0.354616
C25	C	1.292194	-0.371277	0.323780
C26	C	1.176132	-0.296001	0.294707
C27	C	1.179721	-0.164846	0.295599
C28	C	1.299369	-0.108982	0.325554
C29	C	1.768199	0.241897	0.442979
C30	C	1.912000	0.250816	0.479014
C31	C	1.524097	0.469733	0.381836
C32	C	1.527904	0.609316	0.382796
N33	N	1.479501	0.188441	0.026556
C34	C	1.544125	0.253108	-0.029451
C35	C	1.518856	0.227798	-0.203200
N36	N	1.583490	0.292474	0.740799
H37	H	0.885830	0.216227	0.239943
H38	H	1.760698	-0.516878	0.441108
N39	N	1.681567	0.390634	-0.152345
H40	H	1.653129	0.476964	-0.185881
H41	H	1.771529	0.365788	-0.156239
N42	N	1.200293	0.271066	0.568018
H43	H	1.175761	0.355689	0.619537
H44	H	1.293036	0.273897	0.570996
N45	N	1.056359	0.203709	0.122726
H46	H	0.989427	0.276544	0.099991
H47	H	1.009560	0.121911	0.105776
N48	N	1.774641	-0.006349	0.444535
H49	H	1.868045	0.017621	0.467914
H50	H	1.742729	0.042521	0.526179
N51	N	1.054529	-0.083675	0.264233
H52	H	1.037207	-0.042394	0.170252
H53	H	1.064383	-0.015335	0.356386
N54	N	1.381440	0.090273	-0.080294
H55	H	1.377291	0.086105	-0.189268
H56	H	1.291494	0.115058	-0.076321
H57	H	0.983343	0.270458	0.604131
N58	N	1.303237	0.032467	0.326509
H59	H	1.396644	0.056434	0.349896
H60	H	1.271327	0.081328	0.408159
H61	H	1.984256	-0.177572	0.497036
N62	N	1.288333	-0.512730	0.322812
H63	H	1.227640	-0.554060	0.217981
H64	H	1.254792	-0.526853	0.404109
H65	H	1.977761	-0.415512	0.495445
H66	H	1.078722	-0.341500	0.270330
H67	H	1.618165	0.327204	0.051232
N68	N	1.420784	0.129631	-0.310048
H69	H	1.449232	0.043304	-0.276505
H70	H	1.416677	0.125574	-0.418984
