data_functionalizedCrystal
_audit_creation_method	'MofGen! by Chris Wilmer'
_symmetry_space_group_name_H-M	'P1'
_symmetry_Int_Tables_number	1
_symmetry_cell_setting	triclinic
loop_
_symmetry_equiv_pos_as_xyz
  x,y,z
_cell_length_a	17.077404
_cell_length_b	13.897448
_cell_length_c	13.897441
_cell_angle_alpha	90.028012
_cell_angle_beta	89.978207
_cell_angle_gamma	89.980206
loop_
_atom_site_label
_atom_site_type_symbol
_atom_site_fract_x
_atom_site_fract_y
_atom_site_fract_z
Zn1	Zn	1.200090	0.383978	-0.545426
Zn2	Zn	1.450090	0.633978	-0.295426
Zn3	Zn	1.700090	0.883978	-0.045426
Zn4	Zn	1.950090	1.133978	0.204574
Zn5	Zn	1.200000	0.545300	-0.384134
Zn6	Zn	1.450000	0.795300	-0.134134
Zn7	Zn	1.700000	1.045300	0.115866
Zn8	Zn	1.950000	1.295300	0.365866
Zn9	Zn	1.068817	0.384021	-0.384141
Zn10	Zn	1.318817	0.634021	-0.134141
Zn11	Zn	1.568817	0.884021	0.115859
Zn12	Zn	1.818817	1.134021	0.365859
Zn13	Zn	1.068798	0.545234	-0.545384
Zn14	Zn	1.318798	0.795234	-0.295384
Zn15	Zn	1.568798	1.045234	-0.045384
Zn16	Zn	1.818798	1.295234	0.204616
O17	O	1.134426	0.464633	-0.464771
O18	O	1.384426	0.714633	-0.214771
O19	O	1.634426	0.964633	0.035229
O20	O	1.884426	1.214633	0.285229
O21	O	1.309925	0.405388	-0.524045
O22	O	1.559925	0.655388	-0.274045
O23	O	1.809925	0.905388	-0.024045
O24	O	2.059925	1.155388	0.225955
O25	O	1.182568	0.523952	-0.249154
O26	O	1.432568	0.773952	0.000846
O27	O	1.682568	1.023952	0.250846
O28	O	1.932568	1.273952	0.500846
O29	O	1.086277	0.249034	-0.405556
O30	O	1.336277	0.499034	-0.155556
O31	O	1.586277	0.749034	0.094444
O32	O	1.836277	0.999034	0.344444
O33	O	1.309859	0.523910	-0.405545
O34	O	1.559859	0.773910	-0.155545
O35	O	1.809859	1.023910	0.094455
O36	O	2.059859	1.273910	0.344455
O37	O	1.182723	0.249002	-0.524051
O38	O	1.432723	0.499002	-0.274051
O39	O	1.682723	0.749002	-0.024051
O40	O	1.932723	0.999002	0.225949
O41	O	1.086189	0.405461	-0.249159
O42	O	1.336189	0.655461	0.000841
O43	O	1.586189	0.905461	0.250841
O44	O	1.836189	1.155461	0.500841
O45	O	0.958968	0.405397	-0.405516
O46	O	1.208968	0.655397	-0.155516
O47	O	1.458968	0.905397	0.094484
O48	O	1.708968	1.155397	0.344484
O49	O	1.086244	0.523797	-0.680371
O50	O	1.336244	0.773797	-0.430371
O51	O	1.586244	1.023797	-0.180371
O52	O	1.836244	1.273797	0.069629
O53	O	0.958954	0.523839	-0.523980
O54	O	1.208954	0.773839	-0.273980
O55	O	1.458954	1.023839	-0.023980
O56	O	1.708954	1.273839	0.226020
O57	O	1.182704	0.405323	-0.680402
O58	O	1.432704	0.655323	-0.430402
O59	O	1.682704	0.905323	-0.180402
O60	O	1.932704	1.155323	0.069598
O61	O	1.182550	0.680273	-0.405504
O62	O	1.432550	0.930273	-0.155504
O63	O	1.682550	1.180273	0.094496
O64	O	1.932550	1.430273	0.344496
O65	O	1.086156	0.680224	-0.523974
O66	O	1.336156	0.930224	-0.273974
O67	O	1.586156	1.180224	-0.023974
O68	O	1.836156	1.430224	0.226026
C69	C	0.930478	0.464616	-0.464745
C70	C	1.180478	0.714616	-0.214745
C71	C	1.430478	0.964616	0.035255
C72	C	1.680478	1.214616	0.285255
C73	C	0.843229	0.464632	-0.464756
C74	C	1.093229	0.714632	-0.214756
C75	C	1.343229	0.964632	0.035244
C76	C	1.593229	1.214632	0.285244
C77	C	0.802252	0.526397	-0.526342
C78	C	1.052252	0.776397	-0.276342
C79	C	1.302252	1.026397	-0.026342
C80	C	1.552252	1.276397	0.223658
C81	C	0.720271	0.526400	-0.526357
C82	C	0.970271	0.776400	-0.276357
C83	C	1.220271	1.026400	-0.026357
C84	C	1.470271	1.276400	0.223643
C85	C	0.679269	0.464640	-0.464782
C86	C	0.929269	0.714640	-0.214782
C87	C	1.179269	0.964640	0.035218
C88	C	1.429269	1.214640	0.285218
C89	C	0.720252	0.402867	-0.403193
C90	C	0.970252	0.652867	-0.153193
C91	C	1.220252	0.902867	0.096807
C92	C	1.470252	1.152867	0.346807
C93	C	0.802231	0.402861	-0.403183
C94	C	1.052231	0.652861	-0.153183
C95	C	1.302231	0.902861	0.096817
C96	C	1.552231	1.152861	0.346817
C97	C	0.549382	0.402886	-0.403216
C98	C	0.799382	0.652886	-0.153216
C99	C	1.049382	0.902886	0.096784
C100	C	1.299382	1.152886	0.346784
C101	C	0.467397	0.402894	-0.403225
C102	C	0.717397	0.652894	-0.153225
C103	C	0.967397	0.902894	0.096775
C104	C	1.217397	1.152894	0.346775
C105	C	0.467422	0.526425	-0.526390
C106	C	0.717422	0.776425	-0.276390
C107	C	0.967422	1.026425	-0.026390
C108	C	1.217422	1.276425	0.223610
C109	C	0.549401	0.526419	-0.526380
C110	C	0.799401	0.776419	-0.276380
C111	C	1.049401	1.026419	-0.026380
C112	C	1.299401	1.276419	0.223620
C113	C	0.590378	0.464647	-0.464791
C114	C	0.840378	0.714647	-0.214791
C115	C	1.090378	0.964647	0.035209
C116	C	1.340378	1.214647	0.285209
C117	C	1.134362	0.715248	-0.464755
C118	C	1.384362	0.965248	-0.214755
C119	C	1.634362	1.215248	0.035245
C120	C	1.884362	1.465248	0.285245
C121	C	1.134407	0.822462	-0.464780
C122	C	1.384407	1.072462	-0.214780
C123	C	1.634407	1.322462	0.035220
C124	C	1.884407	1.572462	0.285220
C125	C	1.134484	1.018757	-0.464849
C126	C	1.384484	1.268757	-0.214849
C127	C	1.634484	1.518757	0.035151
C128	C	1.884484	1.768757	0.285151
C129	C	1.134439	0.909524	-0.464814
C130	C	1.384439	1.159524	-0.214814
C131	C	1.634439	1.409524	0.035186
C132	C	1.884439	1.659524	0.285186
C133	C	1.339171	0.464652	-0.464799
C134	C	1.589171	0.714652	-0.214799
C135	C	1.839171	0.964652	0.035201
C136	C	2.089171	1.214652	0.285201
C137	C	1.426420	0.464659	-0.464810
C138	C	1.676420	0.714659	-0.214810
C139	C	1.926420	0.964659	0.035190
C140	C	2.176420	1.214659	0.285190
C141	C	1.134482	0.464548	-0.716364
C142	C	1.384482	0.714548	-0.466364
C143	C	1.634482	0.964548	-0.216364
C144	C	1.884482	1.214548	0.033636
C145	C	1.134506	0.464512	-0.823578
C146	C	1.384506	0.714512	-0.573578
C147	C	1.634506	0.964512	-0.323578
C148	C	1.884506	1.214512	-0.073578
C149	C	1.134505	1.213040	-0.464820
C150	C	1.384505	1.463040	-0.214820
C151	C	1.634505	1.713040	0.035180
C152	C	1.884505	1.963040	0.285180
C153	C	1.134522	1.105826	-0.464870
C154	C	1.384522	1.355826	-0.214870
C155	C	1.634522	1.605826	0.035130
C156	C	1.884522	1.855826	0.285130
C157	C	1.134527	0.464447	-1.019874
C158	C	1.384527	0.714447	-0.769874
C159	C	1.634527	0.964447	-0.519874
C160	C	1.884527	1.214447	-0.269874
C161	C	1.134513	0.464485	-0.910641
C162	C	1.384513	0.714485	-0.660641
C163	C	1.634513	0.964485	-0.410641
C164	C	1.884513	1.214485	-0.160641
C165	C	1.134416	0.464649	-0.214157
C166	C	1.384416	0.714649	0.035843
C167	C	1.634416	0.964649	0.285843
C168	C	1.884416	1.214649	0.535843
C169	C	1.134544	0.464413	-0.106944
C170	C	1.384544	0.714413	0.143056
C171	C	1.634544	0.964413	0.393056
C172	C	1.884544	1.214413	0.643056
H173	H	0.582783	0.576714	-0.576515
H174	H	0.832783	0.826714	-0.326515
H175	H	1.082783	1.076714	-0.076515
H176	H	1.332783	1.326714	0.173485
H177	H	0.686862	0.352577	-0.353061
H178	H	0.936862	0.602577	-0.103061
H179	H	1.186862	0.852577	0.146939
H180	H	1.436862	1.102577	0.396939
H181	H	0.835630	0.576693	-0.576481
H182	H	1.085630	0.826693	-0.326481
H183	H	1.335630	1.076693	-0.076481
H184	H	1.585630	1.326693	0.173519
Cl185	Cl	0.600895	0.325229	-0.325788
Cl186	Cl	0.850895	0.575229	-0.075788
Cl187	Cl	1.100895	0.825229	0.174212
Cl188	Cl	1.350895	1.075229	0.424212
Cl189	Cl	0.668761	0.604052	-0.603783
Cl190	Cl	0.918761	0.854052	-0.353783
Cl191	Cl	1.168761	1.104052	-0.103783
Cl192	Cl	1.418761	1.354052	0.146217
H193	H	0.434055	0.576719	-0.576542
H194	H	0.684055	0.826719	-0.326542
H195	H	0.934055	1.076719	-0.076542
H196	H	1.184055	1.326719	0.173458
H197	H	0.434016	0.352592	-0.353096
H198	H	0.684016	0.602592	-0.103096
H199	H	0.934016	0.852592	0.146904
H200	H	1.184016	1.102592	0.396904
H201	H	0.835593	0.352560	-0.353039
H202	H	1.085593	0.602560	-0.103039
H203	H	1.335593	0.852560	0.146961
H204	H	1.585593	1.102560	0.396961
