data_functionalizedCrystal
_audit_creation_method	'MofGen! by Chris Wilmer'
_symmetry_space_group_name_H-M	'P1'
_symmetry_Int_Tables_number	1
_symmetry_cell_setting	triclinic
loop_
_symmetry_equiv_pos_as_xyz
  x,y,z
_cell_length_a	15.944551
_cell_length_b	19.188930
_cell_length_c	15.021413
_cell_angle_alpha	89.998889
_cell_angle_beta	89.997174
_cell_angle_gamma	83.321760
loop_
_atom_site_label
_atom_site_type_symbol
_atom_site_fract_x
_atom_site_fract_y
_atom_site_fract_z
O1	O	1.114192	0.090039	-0.073949
O2	O	1.364192	0.340039	0.176051
O3	O	1.614192	0.590039	0.426051
O4	O	1.864192	0.840039	0.676051
O5	O	0.869601	0.101141	-0.073973
O6	O	1.119601	0.351141	0.176027
O7	O	1.369601	0.601141	0.426027
O8	O	1.619601	0.851141	0.676027
O9	O	0.998955	-0.006048	-0.073943
O10	O	1.248955	0.243952	0.176057
O11	O	1.498955	0.493952	0.426057
O12	O	1.748955	0.743952	0.676057
O13	O	0.984838	0.197227	-0.073979
O14	O	1.234838	0.447227	0.176021
O15	O	1.484838	0.697227	0.426021
O16	O	1.734838	0.947227	0.676021
O17	O	0.998934	-0.006033	0.074121
O18	O	1.248934	0.243967	0.324121
O19	O	1.498934	0.493967	0.574121
O20	O	1.748934	0.743967	0.824121
O21	O	0.869580	0.101156	0.074091
O22	O	1.119580	0.351156	0.324091
O23	O	1.369580	0.601156	0.574091
O24	O	1.619580	0.851156	0.824091
O25	O	1.114171	0.090054	0.074115
O26	O	1.364171	0.340054	0.324115
O27	O	1.614171	0.590054	0.574115
O28	O	1.864171	0.840054	0.824115
Zn29	Zn	0.991873	0.095607	0.097611
Zn30	Zn	1.241873	0.345607	0.347611
Zn31	Zn	1.491873	0.595607	0.597611
Zn32	Zn	1.741873	0.845607	0.847611
Zn33	Zn	0.991900	0.095587	-0.097470
Zn34	Zn	1.241900	0.345587	0.152530
Zn35	Zn	1.491900	0.595587	0.402530
Zn36	Zn	1.741900	0.845587	0.652530
O37	O	0.984817	0.197242	0.074085
O38	O	1.234817	0.447242	0.324085
O39	O	1.484817	0.697242	0.574085
O40	O	1.734817	0.947242	0.824085
C41	C	0.838298	0.100687	0.000056
C42	C	1.088298	0.350687	0.250056
C43	C	1.338298	0.600687	0.500056
C44	C	1.588298	0.850687	0.750056
C45	C	0.745057	0.099306	0.000048
C46	C	0.995057	0.349306	0.250048
C47	C	1.245057	0.599306	0.500048
C48	C	1.495057	0.849306	0.750048
C49	C	0.998487	-0.032052	0.000091
C50	C	1.248487	0.217948	0.250091
C51	C	1.498487	0.467948	0.500091
C52	C	1.748487	0.717948	0.750091
C53	C	0.997115	-0.109560	0.000099
C54	C	1.247115	0.140440	0.250099
C55	C	1.497115	0.390440	0.500099
C56	C	1.747115	0.640440	0.750099
C57	C	0.530462	0.029563	0.000078
C58	C	0.780462	0.279563	0.250078
C59	C	1.030462	0.529563	0.500078
C60	C	1.280462	0.779563	0.750078
C61	C	0.469331	0.061941	-0.072931
C62	C	0.719331	0.311941	0.177069
C63	C	0.969331	0.561941	0.427069
C64	C	1.219331	0.811941	0.677069
C65	C	0.574341	0.096806	0.000059
C66	C	0.824341	0.346806	0.250059
C67	C	1.074341	0.596806	0.500059
C68	C	1.324341	0.846806	0.750059
C69	C	0.469332	0.061972	0.073048
C70	C	0.719332	0.311972	0.323048
C71	C	0.969332	0.561972	0.573048
C72	C	1.219332	0.811972	0.823048
C73	C	0.409437	0.094386	0.000074
C74	C	0.659437	0.344386	0.250074
C75	C	0.909437	0.594386	0.500074
C76	C	1.159437	0.844386	0.750074
C77	C	0.514438	0.129203	-0.073010
C78	C	0.764438	0.379203	0.176990
C79	C	1.014438	0.629203	0.426990
C80	C	1.264438	0.879203	0.676990
C81	C	0.514446	0.129225	0.073035
C82	C	0.764446	0.379225	0.323035
C83	C	1.014446	0.629225	0.573035
C84	C	1.264446	0.879225	0.823035
C85	C	0.453332	0.161652	0.000008
C86	C	0.703332	0.411652	0.250008
C87	C	0.953332	0.661652	0.500008
C88	C	1.203332	0.911652	0.750008
C89	C	0.669338	0.098198	0.000050
C90	C	0.919338	0.348198	0.250050
C91	C	1.169338	0.598198	0.500050
C92	C	1.419338	0.848198	0.750050
C93	C	0.314441	0.093000	0.000076
C94	C	0.564441	0.343000	0.250076
C95	C	0.814441	0.593000	0.500076
C96	C	1.064441	0.843000	0.750076
C97	C	1.073016	-0.154288	0.000111
C98	C	1.323016	0.095712	0.250111
C99	C	1.573016	0.345712	0.500111
C100	C	1.823016	0.595712	0.750111
C101	C	1.071726	-0.227115	0.000096
C102	C	1.321726	0.022885	0.250096
C103	C	1.571726	0.272885	0.500096
C104	C	1.821726	0.522885	0.750096
C105	C	0.994532	-0.255211	0.000088
C106	C	1.244532	-0.005211	0.250088
C107	C	1.494532	0.244789	0.500088
C108	C	1.744532	0.494789	0.750088
C109	C	0.918622	-0.210474	0.000072
C110	C	1.168622	0.039526	0.250072
C111	C	1.418622	0.289526	0.500072
C112	C	1.668622	0.539526	0.750072
C113	C	0.919913	-0.137648	0.000077
C114	C	1.169913	0.112352	0.250077
C115	C	1.419913	0.362352	0.500077
C116	C	1.669913	0.612352	0.750077
N117	N	0.935519	-0.363364	0.050472
N118	N	1.185519	-0.113364	0.300472
N119	N	1.435519	0.136636	0.550472
N120	N	1.685519	0.386636	0.800472
N121	N	0.934298	-0.432546	0.050468
N122	N	1.184298	-0.182546	0.300468
N123	N	1.434298	0.067454	0.550468
N124	N	1.684298	0.317454	0.800468
C125	C	0.990637	-0.474630	0.000070
C126	C	1.240637	-0.224630	0.250070
C127	C	1.490637	0.025370	0.500070
C128	C	1.740637	0.275370	0.750070
N129	N	1.048256	-0.444921	-0.050314
N130	N	1.298256	-0.194921	0.199686
N131	N	1.548256	0.055079	0.449686
N132	N	1.798256	0.305079	0.699686
N133	N	1.049480	-0.375733	-0.050307
N134	N	1.299480	-0.125733	0.199693
N135	N	1.549480	0.124267	0.449693
N136	N	1.799480	0.374267	0.699693
C137	C	0.993123	-0.334178	0.000082
C138	C	1.243123	-0.084178	0.250082
C139	C	1.493123	0.165822	0.500082
C140	C	1.743123	0.415822	0.750082
C141	C	1.065145	-0.598326	0.000064
C142	C	1.315145	-0.348326	0.250064
C143	C	1.565145	-0.098326	0.500064
C144	C	1.815145	0.151674	0.750064
C145	C	1.063852	-0.671154	0.000044
C146	C	1.313852	-0.421154	0.250044
C147	C	1.563852	-0.171154	0.500044
C148	C	1.813852	0.078846	0.750044
C149	C	0.910745	-0.654511	0.000029
C150	C	1.160745	-0.404511	0.250029
C151	C	1.410745	-0.154511	0.500029
C152	C	1.660745	0.095489	0.750029
C153	C	0.912040	-0.581685	0.000040
C154	C	1.162040	-0.331685	0.250040
C155	C	1.412040	-0.081685	0.500040
C156	C	1.662040	0.168315	0.750040
C157	C	0.989242	-0.553597	0.000062
C158	C	1.239242	-0.303597	0.250062
C159	C	1.489242	-0.053597	0.500062
C160	C	1.739242	0.196403	0.750062
C161	C	1.145474	0.090507	0.000083
C162	C	1.395474	0.340507	0.250083
C163	C	1.645474	0.590507	0.500083
C164	C	1.895474	0.840507	0.750083
C165	C	1.238715	0.091889	0.000086
C166	C	1.488715	0.341889	0.250086
C167	C	1.738715	0.591889	0.500086
C168	C	1.988715	0.841889	0.750086
C169	C	0.985285	0.223247	0.000048
C170	C	1.235285	0.473247	0.250048
C171	C	1.485285	0.723247	0.500048
C172	C	1.735285	0.973247	0.750048
C173	C	0.986657	0.300755	0.000035
C174	C	1.236657	0.550755	0.250035
C175	C	1.486657	0.800755	0.500035
C176	C	1.736657	1.050755	0.750035
N177	N	0.991860	0.095621	0.230749
N178	N	1.241860	0.345621	0.480749
N179	N	1.491860	0.595621	0.730749
N180	N	1.741860	0.845621	0.980749
N181	N	0.991919	0.095568	-0.230607
N182	N	1.241919	0.345568	0.019393
N183	N	1.491919	0.595568	0.269393
N184	N	1.741919	0.845568	0.519393
C185	C	0.932038	0.145161	0.470418
C186	C	1.182038	0.395161	0.720418
C187	C	1.432038	0.645161	0.970418
C188	C	1.682038	0.895161	1.220418
C189	C	1.007887	0.158716	0.529757
C190	C	1.257887	0.408716	0.779757
C191	C	1.507887	0.658716	1.029757
C192	C	1.757887	0.908716	1.279757
C193	C	0.991882	0.095603	0.412356
C194	C	1.241882	0.345603	0.662356
C195	C	1.491882	0.595603	0.912356
C196	C	1.741882	0.845603	1.162356
C197	C	0.916053	0.082064	0.529759
C198	C	1.166053	0.332064	0.779759
C199	C	1.416053	0.582064	1.029759
C200	C	1.666053	0.832064	1.279759
C201	C	0.991896	0.095588	0.587780
C202	C	1.241896	0.345588	0.837780
C203	C	1.491896	0.595588	1.087780
C204	C	1.741896	0.845588	1.337780
C205	C	1.067770	0.109189	0.470388
C206	C	1.317770	0.359189	0.720388
C207	C	1.567770	0.609189	0.970388
C208	C	1.817770	0.859189	1.220388
C209	C	0.975885	0.032510	0.470384
C210	C	1.225885	0.282510	0.720384
C211	C	1.475885	0.532510	0.970384
C212	C	1.725885	0.782510	1.220384
C213	C	1.051789	0.046038	0.529697
C214	C	1.301789	0.296038	0.779697
C215	C	1.551789	0.546038	1.029697
C216	C	1.801789	0.796038	1.279697
C217	C	0.991872	0.095614	0.311299
C218	C	1.241872	0.345614	0.561299
C219	C	1.491872	0.595614	0.811299
C220	C	1.741872	0.845614	1.061299
C221	C	0.991914	0.095577	0.688835
C222	C	1.241914	0.345577	0.938835
C223	C	1.491914	0.595577	1.188835
C224	C	1.741914	0.845577	1.438835
H225	H	0.564003	-0.026244	-0.000002
H226	H	0.814003	0.223756	0.249998
H227	H	1.064003	0.473756	0.499998
H228	H	1.314003	0.723756	0.749998
H229	H	0.851919	0.070620	0.555840
H230	H	1.101919	0.320620	0.805840
H231	H	1.351919	0.570620	1.055840
H232	H	1.601919	0.820620	1.305840
H233	H	0.449344	0.033525	0.134770
H234	H	0.699344	0.283525	0.384770
H235	H	0.949344	0.533525	0.634770
H236	H	1.199344	0.783525	0.884770
Br237	Br	0.847772	0.215066	0.427032
Br238	Br	1.097772	0.465066	0.677032
Br239	Br	1.347772	0.715066	0.927032
Br240	Br	1.597772	0.965066	1.177032
Br241	Br	0.436007	0.014531	-0.175796
Br242	Br	0.686007	0.264531	0.074204
Br243	Br	0.936007	0.514531	0.324204
Br244	Br	1.186007	0.764531	0.574204
H245	H	0.534328	0.157617	-0.134801
H246	H	0.784328	0.407617	0.115199
H247	H	1.034328	0.657617	0.365199
H248	H	1.284328	0.907617	0.615199
Br249	Br	0.805979	-0.692633	0.000009
Br250	Br	1.055979	-0.442633	0.250009
Br251	Br	1.305979	-0.192633	0.500009
Br252	Br	1.555979	0.057367	0.750009
Br253	Br	0.397714	0.254761	-0.000071
Br254	Br	0.647714	0.504761	0.249929
Br255	Br	0.897714	0.754761	0.499929
Br256	Br	1.147714	1.004761	0.749929
Br257	Br	0.547811	0.176602	0.175902
Br258	Br	0.797811	0.426602	0.425902
Br259	Br	1.047811	0.676602	0.675902
Br260	Br	1.297811	0.926602	0.925902
H261	H	0.850233	-0.545266	0.000035
H262	H	1.100233	-0.295266	0.250035
H263	H	1.350233	-0.045266	0.500035
H264	H	1.600233	0.204734	0.750035
Br265	Br	1.177789	-0.116172	0.000116
Br266	Br	1.427789	0.133828	0.250116
Br267	Br	1.677789	0.383828	0.500116
Br268	Br	1.927789	0.633828	0.750116
Br269	Br	1.174742	-0.287829	0.000108
Br270	Br	1.424742	-0.037829	0.250108
Br271	Br	1.674742	0.212171	0.500108
Br272	Br	1.924742	0.462171	0.750108
H273	H	1.125662	-0.707571	0.000049
H274	H	1.375662	-0.457571	0.250049
H275	H	1.625662	-0.207571	0.500049
H276	H	1.875662	0.042429	0.750049
H277	H	1.131917	0.120698	0.444419
H278	H	1.381917	0.370698	0.694419
H279	H	1.631917	0.620698	0.944419
H280	H	1.881917	0.870698	1.194419
Br281	Br	1.136237	-0.023830	0.572812
Br282	Br	1.386237	0.226170	0.822812
Br283	Br	1.636237	0.476170	1.072812
Br284	Br	1.886237	0.726170	1.322812
Br285	Br	0.953274	-0.056383	0.426880
Br286	Br	1.203274	0.193617	0.676880
Br287	Br	1.453274	0.443617	0.926880
Br288	Br	1.703274	0.693617	1.176880
H289	H	0.858103	-0.101230	0.000068
H290	H	1.108103	0.148770	0.250068
H291	H	1.358103	0.398770	0.500068
H292	H	1.608103	0.648770	0.750068
Br293	Br	0.813857	-0.248602	0.000049
Br294	Br	1.063857	0.001398	0.250049
Br295	Br	1.313857	0.251398	0.500049
Br296	Br	1.563857	0.501398	0.750049
H297	H	1.021431	0.212066	0.555837
H298	H	1.271431	0.462066	0.805837
H299	H	1.521431	0.712066	1.055837
H300	H	1.771431	0.962066	1.305837
H301	H	1.128007	-0.575456	0.000078
H302	H	1.378007	-0.325456	0.250078
H303	H	1.628007	-0.075456	0.500078
H304	H	1.878007	0.174544	0.750078
