data_functionalizedCrystal
_audit_creation_method	'MofGen! by Chris Wilmer'
_symmetry_space_group_name_H-M	'P1'
_symmetry_Int_Tables_number	1
_symmetry_cell_setting	triclinic
loop_
_symmetry_equiv_pos_as_xyz
  x,y,z
_cell_length_a	19.077409
_cell_length_b	12.759393
_cell_length_c	19.077068
_cell_angle_alpha	92.261232
_cell_angle_beta	94.533134
_cell_angle_gamma	92.270415
loop_
_atom_site_label
_atom_site_type_symbol
_atom_site_fract_x
_atom_site_fract_y
_atom_site_fract_z
Zn1	Zn	1.066438	-0.544523	-0.237283
Zn2	Zn	1.061604	-0.376182	-0.355193
Zn3	Zn	0.948546	-0.376184	-0.242060
Zn4	Zn	0.943779	-0.559136	-0.359876
O5	O	1.005092	-0.464007	-0.298603
O6	O	1.164445	-0.516076	-0.248966
O7	O	1.046579	-0.229166	-0.340225
O8	O	0.968202	-0.392400	-0.142774
O9	O	1.160894	-0.392397	-0.335594
O10	O	1.054817	-0.516078	-0.139265
O11	O	0.963515	-0.229167	-0.257106
O12	O	0.849265	-0.406569	-0.261647
O13	O	0.960078	-0.704215	-0.343574
O14	O	0.845763	-0.540983	-0.348206
O15	O	1.050195	-0.693479	-0.253506
O16	O	1.041956	-0.406566	-0.454466
O17	O	0.955391	-0.540981	-0.457907
C18	C	0.821935	-0.475363	-0.305953
C19	C	0.743579	-0.480247	-0.309115
C20	C	0.302326	-0.515324	-0.331733
C21	C	0.375949	-0.510715	-0.328768
C22	C	0.414564	-0.438536	-0.282146
C23	C	0.379552	-0.370954	-0.238492
C24	C	0.305930	-0.375558	-0.241461
C25	C	0.634945	-0.417269	-0.268429
C26	C	0.708572	-0.412672	-0.265462
C27	C	0.704964	-0.552433	-0.355739
C28	C	0.631341	-0.557035	-0.358701
C29	C	0.596335	-0.489449	-0.315050
N30	N	0.489819	-0.433826	-0.279113
N31	N	0.521081	-0.494154	-0.318087
C32	C	1.005144	-0.738032	-0.298530
C33	C	1.005166	-0.854806	-0.298499
C34	C	1.052097	-0.904079	-0.251596
C35	C	1.052114	-1.013801	-0.251569
C36	C	0.958269	-1.024967	-0.345356
C37	C	0.958248	-0.915247	-0.345378
C38	C	1.099014	-0.843638	-0.204717
C39	C	1.145949	-0.892910	-0.157810
C40	C	1.145967	-1.002632	-0.157784
C41	C	1.099050	-1.063081	-0.204664
C42	C	1.188963	-0.452607	-0.291224
C43	C	1.267319	-0.447749	-0.288080
C44	C	0.997651	-0.475381	-0.481765
C45	C	0.994532	-0.480278	-0.560120
C46	C	1.005082	-0.191041	-0.298623
C47	C	1.005205	-0.074247	-0.298450
C48	C	1.038172	-0.412649	-0.595116
C49	C	1.035243	-0.417261	-0.668738
C50	C	0.988670	-0.489497	-0.707365
C51	C	0.945028	-0.557133	-0.672364
C52	C	0.947961	-0.552525	-0.598742
C53	C	0.975064	-0.510781	-0.927744
C54	C	0.972132	-0.515381	-1.001371
C55	C	1.062348	-0.375510	-0.997740
C56	C	1.065275	-0.370905	-0.924118
C57	C	1.021635	-0.438544	-0.889123
N58	N	0.985673	-0.494211	-0.782619
N59	N	1.024636	-0.433835	-0.813870
C60	C	1.012581	-0.452610	-0.114725
C61	C	1.015772	-0.447753	-0.036367
H62	H	0.733474	-0.607457	-0.391279
O63	O	0.593726	-0.627117	-0.403930
C64	C	0.521238	-0.616673	-0.397201
H65	H	0.513376	-0.579649	-0.343174
H66	H	0.498628	-0.564521	-0.439814
C67	C	0.492873	-0.771199	-0.471625
C68	C	0.483217	-0.725734	-0.405266
H69	H	0.469419	-0.838471	-0.476603
H70	H	0.541710	-0.778234	-0.476161
H71	H	0.474032	-0.727729	-0.507128
H72	H	0.502066	-0.769197	-0.369764
H73	H	0.434383	-0.718709	-0.400724
H74	H	0.920023	-0.875129	-0.383560
O75	O	1.191492	-0.834039	-0.112337
C76	C	1.181402	-0.726631	-0.122402
H77	H	1.156098	-0.716441	-0.177738
H78	H	1.145557	-0.695235	-0.082101
C79	C	1.284061	-0.677995	-0.045125
C80	C	1.252987	-0.665479	-0.113091
H81	H	1.328217	-0.640271	-0.039378
H82	H	1.290858	-0.750357	-0.038341
H83	H	1.254183	-0.651832	-0.011548
H84	H	1.282861	-0.691654	-0.146666
H85	H	1.246197	-0.593119	-0.119881
O86	O	1.191621	-1.050329	-0.112195
C87	C	1.233011	-0.973450	-0.070813
H88	H	1.234260	-0.896875	-0.099609
H89	H	1.209379	-0.960066	-0.018308
C90	C	1.306928	-1.105043	-0.022269
C91	C	1.308466	-1.010995	-0.057640
H92	H	1.353471	-1.128203	-0.014140
H93	H	1.279041	-1.156839	-0.050146
H94	H	1.287230	-1.093877	0.021481
H95	H	1.328154	-1.022165	-0.101392
H96	H	1.336358	-0.959201	-0.029769
O97	O	1.083314	-0.342370	-0.557569
C98	C	1.044899	-0.274305	-0.516654
H99	H	0.988494	-0.272581	-0.541121
H100	H	1.044682	-0.303443	-0.460939
C101	C	1.148702	-0.165039	-0.484119
C102	C	1.079425	-0.162915	-0.514173
H103	H	1.170000	-0.096329	-0.482585
H104	H	1.174584	-0.210897	-0.511682
H105	H	1.148512	-0.189326	-0.437693
H106	H	1.079617	-0.138641	-0.560601
H107	H	1.053544	-0.117050	-0.486617
H108	H	1.099060	-1.152423	-0.204631
O109	O	1.077582	-0.351666	-0.702865
C110	C	1.035854	-0.288895	-0.747195
H111	H	0.981929	-0.329764	-0.760349
H112	H	1.029366	-0.209635	-0.719269
C113	C	1.138111	-0.221992	-0.799416
C114	C	1.071882	-0.272192	-0.815577
H115	H	1.160335	-0.211684	-0.841596
H116	H	1.166225	-0.264279	-0.769549
H117	H	1.132695	-0.155948	-0.776144
H118	H	1.077299	-0.338240	-0.838840
H119	H	1.043769	-0.229916	-0.845450
H120	H	0.907110	-0.615954	-0.703819
O121	O	1.104719	-0.309930	-1.031844
C122	C	1.092136	-0.329467	-1.105107
H123	H	1.068611	-0.412576	-1.116066
H124	H	1.053792	-0.270733	-1.127577
C125	C	1.190861	-0.215809	-1.126518
C126	C	1.161973	-0.317887	-1.139979
H127	H	1.233939	-0.208661	-1.148030
H128	H	1.199337	-0.202642	-1.077160
H129	H	1.158901	-0.166875	-1.145244
H130	H	1.193929	-0.366818	-1.121246
H131	H	1.153504	-0.331062	-1.189336
H132	H	0.410998	-0.312179	-0.200534
H133	H	0.920071	-1.074193	-0.383523
H134	H	1.103198	-0.312085	-0.892669
H135	H	0.939530	-0.565854	-0.899258
O136	O	0.905501	-0.618267	-0.564857
C137	C	0.863778	-0.683033	-0.614734
H138	H	0.859254	-0.643430	-0.667336
H139	H	0.889261	-0.761739	-0.621466
C140	C	0.795447	-0.749599	-0.524459
C141	C	0.789886	-0.700954	-0.589065
H142	H	0.749868	-0.760659	-0.508625
H143	H	0.823558	-0.705969	-0.490856
H144	H	0.816686	-0.815182	-0.530078
H145	H	0.768656	-0.635368	-0.583443
H146	H	0.761770	-0.744575	-0.622667
H147	H	0.404449	-0.565740	-0.364316
H148	H	0.934215	-0.574223	-1.032818
O149	O	0.745976	-0.342445	-0.220162
C150	C	0.699293	-0.283789	-0.182262
H151	H	0.645638	-0.285163	-0.213246
H152	H	0.693653	-0.319542	-0.129060
C153	C	0.794296	-0.167878	-0.132820
C154	C	0.728398	-0.169558	-0.170878
H155	H	0.812251	-0.097416	-0.125795
H156	H	0.825749	-0.207397	-0.158352
H157	H	0.789588	-0.197677	-0.088489
H158	H	0.733109	-0.139771	-0.215212
H159	H	0.696947	-0.130031	-0.145354
H160	H	0.270891	-0.574106	-0.369694
H161	H	0.606452	-0.362231	-0.232888
H162	H	1.099007	-0.754296	-0.204734
H163	H	0.277428	-0.320533	-0.205912
