data_functionalizedCrystal
_audit_creation_method	'MofGen! by Chris Wilmer'
_symmetry_space_group_name_H-M	'P1'
_symmetry_Int_Tables_number	1
_symmetry_cell_setting	triclinic
loop_
_symmetry_equiv_pos_as_xyz
  x,y,z
_cell_length_a	18.215407
_cell_length_b	8.497374
_cell_length_c	18.215399
_cell_angle_alpha	89.988708
_cell_angle_beta	89.983140
_cell_angle_gamma	89.997226
loop_
_atom_site_label
_atom_site_type_symbol
_atom_site_fract_x
_atom_site_fract_y
_atom_site_fract_z
Zn1	Zn	-1.125194	0.628235	0.416143
Zn2	Zn	-1.125153	0.892057	0.293112
Zn3	Zn	-1.002126	0.628267	0.293096
Zn4	Zn	-1.002143	0.891949	0.416143
O5	O	-1.063654	0.760127	0.354624
O6	O	-1.228173	0.663263	0.399829
O7	O	-1.108809	0.857123	0.190126
O8	O	-1.018461	0.407500	0.309412
O9	O	-1.228143	0.857092	0.309439
O10	O	-1.108878	0.407477	0.399813
O11	O	-1.018422	0.663317	0.190114
O12	O	-0.899144	0.663213	0.309413
O13	O	-1.018490	0.856908	0.519128
O14	O	-0.899157	0.856939	0.399815
O15	O	-1.108895	0.663159	0.519127
O16	O	-1.108826	1.112805	0.309439
O17	O	-1.018451	1.112726	0.399830
C18	C	-0.872448	0.760069	0.354613
C19	C	-0.790649	0.760082	0.354625
C20	C	-0.525617	0.861139	0.401632
C21	C	-0.602476	0.861129	0.401628
C22	C	-0.602432	0.659100	0.307629
C23	C	-0.525575	0.659119	0.307630
C24	C	-0.487169	0.760136	0.354635
C25	C	-0.640885	0.760108	0.354631
C26	C	-0.724219	0.760097	0.354627
C27	C	-0.403830	0.760150	0.354639
C28	C	-0.255607	0.760174	0.354636
C29	C	-0.337406	0.760162	0.354641
C30	C	-1.063645	1.170007	0.354634
C31	C	-1.063664	1.348651	0.354622
C32	C	-1.063699	0.760018	0.546577
C33	C	-1.063718	0.759972	0.628376
C34	C	-1.063652	0.760121	0.163417
C35	C	-1.063775	0.759723	0.081619
C36	C	-1.110809	0.658992	0.816571
C37	C	-1.110817	0.658946	0.893429
C38	C	-1.016679	0.860708	0.893419
C39	C	-1.016667	0.860744	0.816561
C40	C	-1.063736	0.759889	0.778139
C41	C	-1.063757	0.759806	0.931855
C42	C	-1.063766	0.759757	1.015189
C43	C	-1.063726	0.759936	0.694800
H44	H	-0.633777	0.943378	0.439897
O45	O	-0.488275	0.959044	0.447365
C46	C	-0.443812	0.869365	0.494945
H47	H	-0.466966	0.745123	0.499575
H48	H	-0.385556	0.863882	0.472195
C49	C	-0.414220	1.099239	0.565712
C50	C	-0.442662	0.946646	0.571403
H51	H	-0.413507	1.146911	0.612874
H52	H	-0.444173	1.159660	0.533655
H53	H	-0.365676	1.094648	0.546751
H54	H	-0.491208	0.951239	0.590356
H55	H	-0.412717	0.886227	0.603466
H56	H	-1.149133	0.576865	0.785290
O57	O	-0.639855	0.561018	0.262045
C58	C	-0.715936	0.582681	0.272109
H59	H	-0.726454	0.634497	0.328869
H60	H	-0.737742	0.666569	0.228401
C61	C	-0.742462	0.359391	0.195760
C62	C	-0.755380	0.423019	0.265476
H63	H	-0.766794	0.260906	0.191665
H64	H	-0.691204	0.344798	0.188977
H65	H	-0.760633	0.429312	0.159344
H66	H	-0.737200	0.353107	0.301889
H67	H	-0.806635	0.437596	0.272265
O68	O	-0.971018	0.958991	0.779257
C69	C	-0.987087	1.116218	0.798052
H70	H	-1.045882	1.124190	0.819190
H71	H	-0.947635	1.157430	0.842656
C72	C	-0.906300	1.211735	0.703811
C73	C	-0.978515	1.221528	0.729768
H74	H	-0.901009	1.276698	0.661692
H75	H	-0.895472	1.105808	0.691150
H76	H	-0.873432	1.246076	0.740988
H77	H	-1.011381	1.187169	0.692595
H78	H	-0.989348	1.327452	0.742421
H79	H	-0.494270	0.576868	0.269356
H80	H	-1.149147	0.576783	0.924717
H81	H	-0.978359	0.942824	0.924711
