data_functionalizedCrystal
_audit_creation_method	'MofGen! by Chris Wilmer'
_symmetry_space_group_name_H-M	'P1'
_symmetry_Int_Tables_number	1
_symmetry_cell_setting	triclinic
loop_
_symmetry_equiv_pos_as_xyz
  x,y,z
_cell_length_a	10.654544
_cell_length_b	14.971496
_cell_length_c	13.448316
_cell_angle_alpha	89.992488
_cell_angle_beta	89.992199
_cell_angle_gamma	84.051488
loop_
_atom_site_label
_atom_site_type_symbol
_atom_site_fract_x
_atom_site_fract_y
_atom_site_fract_z
O1	O	1.666505	0.125632	-0.082719
O2	O	1.300898	0.137601	-0.082716
O3	O	1.493494	0.001471	-0.082709
O4	O	1.473908	0.261763	-0.082726
O5	O	1.493470	0.001462	0.082675
O6	O	1.300874	0.137593	0.082668
O7	O	1.666480	0.125623	0.082665
Cu8	Cu	1.483675	0.131607	0.097767
Cu9	Cu	1.483703	0.131618	-0.097818
O10	O	1.473884	0.261754	0.082658
C11	C	1.254097	0.136718	-0.000023
C12	C	1.114682	0.134089	-0.000022
C13	C	1.492604	-0.031863	-0.000017
C14	C	1.489972	-0.131174	-0.000016
C15	C	1.478658	-0.558935	-0.090193
C16	C	1.481137	-0.465622	-0.090188
C17	C	1.482355	-0.418977	-0.000034
C18	C	1.481107	-0.465650	0.090122
C19	C	1.478636	-0.558961	0.090117
C20	C	1.486252	-0.271159	0.090127
C21	C	1.488720	-0.177840	0.090133
C22	C	1.488753	-0.177819	-0.090178
C23	C	1.486283	-0.271131	-0.090183
C24	C	1.485032	-0.317797	-0.000027
C25	C	1.114631	0.134090	0.180285
C26	C	1.049108	0.132858	0.270435
C27	C	0.918116	0.130386	0.270431
C28	C	0.852644	0.129143	0.180266
C29	C	0.918166	0.130376	0.090116
C30	C	1.049161	0.132850	0.090130
C31	C	0.918219	0.130368	-0.090188
C32	C	1.049210	0.132847	-0.090186
C33	C	0.852746	0.129126	-0.180352
C34	C	0.918268	0.130364	-0.270504
C35	C	1.049268	0.132837	-0.270496
C36	C	1.114732	0.134079	-0.180336
C37	C	1.713281	0.126507	-0.000030
C38	C	1.852696	0.129136	-0.000038
C39	C	1.474774	0.295088	-0.000037
C40	C	1.477406	0.394399	-0.000044
N41	N	1.483664	0.131600	0.235331
N42	N	1.483724	0.131618	-0.235383
C43	C	1.568972	0.071346	0.287375
C44	C	1.568980	0.071345	0.391478
C45	C	1.483685	0.131603	0.443536
C46	C	1.398367	0.191860	0.391485
C47	C	1.398355	0.191855	0.287384
C48	C	1.398402	0.191866	0.608465
C49	C	1.398416	0.191872	0.712574
C50	C	1.569027	0.071356	0.712560
C51	C	1.569015	0.071352	0.608458
C52	C	1.483699	0.131609	0.556415
H53	H	1.477655	-0.596906	-0.163607
F54	F	1.307554	0.255983	0.231997
H55	H	1.638443	0.022282	0.433852
F56	F	1.118993	0.134142	-0.366449
H57	H	0.864951	0.129347	-0.343909
H58	H	1.485284	-0.309107	-0.163595
F59	F	0.713231	0.126507	0.180267
F60	F	1.482473	-0.415961	-0.186138
H61	H	1.638434	0.022281	0.244996
F62	F	1.477310	-0.608627	0.186066
F63	F	1.307594	0.255998	0.553081
H64	H	1.638474	0.022290	0.566073
H65	H	0.746087	0.127106	-0.180349
H66	H	1.489761	-0.139818	-0.163587
F67	F	1.490040	-0.128200	0.186085
F68	F	1.118797	0.134180	0.366389
H69	H	0.864767	0.129389	0.343839
H70	H	1.221392	0.136098	-0.180321
F71	F	1.254042	0.136734	0.180297
H72	H	1.328912	0.240920	0.433877
F73	F	1.659827	0.007227	0.767952
F74	F	1.482411	-0.416004	0.186072
F75	F	1.307631	0.256006	0.767970
H76	H	1.485235	-0.309152	0.163542
