data_functionalizedCrystal
_audit_creation_method	'MofGen! by Chris Wilmer'
_symmetry_space_group_name_H-M	'P1'
_symmetry_Int_Tables_number	1
_symmetry_cell_setting	triclinic
loop_
_symmetry_equiv_pos_as_xyz
  x,y,z
_cell_length_a	12.827892
_cell_length_b	12.827893
_cell_length_c	18.215399
_cell_angle_alpha	90.017515
_cell_angle_beta	90.023838
_cell_angle_gamma	90.015553
loop_
_atom_site_label
_atom_site_type_symbol
_atom_site_fract_x
_atom_site_fract_y
_atom_site_fract_z
Zn1	Zn	-0.416039	1.597653	0.416091
Zn2	Zn	-0.082706	1.930987	0.749425
Zn3	Zn	0.250627	2.264320	1.082758
Zn4	Zn	-0.590799	1.597552	0.293034
Zn5	Zn	-0.257465	1.930886	0.626367
Zn6	Zn	0.075868	2.264219	0.959701
Zn7	Zn	-0.416073	1.422900	0.293044
Zn8	Zn	-0.082739	1.756233	0.626377
Zn9	Zn	0.250594	2.089566	0.959710
Zn10	Zn	-0.590739	1.422880	0.416064
Zn11	Zn	-0.257406	1.756213	0.749397
Zn12	Zn	0.075927	2.089547	1.082730
O13	O	-0.503412	1.510246	0.354558
O14	O	-0.170079	1.843580	0.687892
O15	O	0.163254	2.176913	1.021225
O16	O	-0.439232	1.743876	0.399775
O17	O	-0.105899	2.077209	0.733108
O18	O	0.227434	2.410543	1.066442
O19	O	-0.567659	1.574350	0.190051
O20	O	-0.234326	1.907683	0.523384
O21	O	0.099007	2.241017	0.856718
O22	O	-0.269832	1.446132	0.309382
O23	O	0.063501	1.779465	0.642715
O24	O	0.396835	2.112798	0.976049
O25	O	-0.567627	1.743802	0.309365
O26	O	-0.234294	2.077135	0.642699
O27	O	0.099040	2.410468	0.976032
O28	O	-0.269808	1.574522	0.399784
O29	O	0.063526	1.907856	0.733118
O30	O	0.396859	2.241189	1.066451
O31	O	-0.439289	1.446034	0.190058
O32	O	-0.105956	1.779367	0.523391
O33	O	0.227378	2.112700	0.856725
O34	O	-0.439232	1.276661	0.309355
O35	O	-0.105898	1.609994	0.642689
O36	O	0.227435	1.943328	0.976022
O37	O	-0.567526	1.446098	0.519052
O38	O	-0.234193	1.779432	0.852385
O39	O	0.099140	2.112765	1.185718
O40	O	-0.567559	1.276647	0.399738
O41	O	-0.234225	1.609980	0.733071
O42	O	0.099108	1.943313	1.066404
O43	O	-0.439175	1.574504	0.519072
O44	O	-0.105842	1.907837	0.852405
O45	O	0.227492	2.241170	1.185739
O46	O	-0.737027	1.574331	0.309338
O47	O	-0.403693	1.907665	0.642672
O48	O	-0.070360	2.240998	0.976005
O49	O	-0.736983	1.446000	0.399728
O50	O	-0.403650	1.779334	0.733061
O51	O	-0.070317	2.112667	1.066395
C52	C	-0.503393	1.238736	0.354545
C53	C	-0.170060	1.572070	0.687878
C54	C	0.163273	1.905403	1.021212
C55	C	-0.503410	1.122583	0.354557
C56	C	-0.170077	1.455917	0.687890
C57	C	0.163257	1.789250	1.021223
C58	C	-0.567026	0.950775	0.399223
C59	C	-0.233692	1.284108	0.732556
C60	C	0.099641	1.617441	1.065889
C61	C	-0.567010	1.070825	0.399212
C62	C	-0.233676	1.404158	0.732545
C63	C	0.099657	1.737492	1.065878
C64	C	-0.774922	1.510181	0.354545
C65	C	-0.441589	1.843514	0.687879
C66	C	-0.108256	2.176848	1.021212
C67	C	-0.891075	1.510249	0.354564
C68	C	-0.557742	1.843582	0.687898
C69	C	-0.224409	2.176915	1.021231
C70	C	-0.942847	1.573826	0.309886
C71	C	-0.609514	1.907160	0.643220
C72	C	-0.276180	2.240493	0.976553
C73	C	-1.062897	1.573898	0.309905
C74	C	-0.729564	1.907231	0.643238
C75	C	-0.396231	2.240564	0.976572
C76	C	-0.230842	1.510340	0.354587
C77	C	0.102491	1.843674	0.687921
C78	C	0.435824	2.177007	1.021254
C79	C	-0.114689	1.510381	0.354600
C80	C	0.218644	1.843714	0.687933
C81	C	0.551977	2.177047	1.021266
C82	C	-0.503340	1.510310	0.546511
C83	C	-0.170007	1.843643	0.879845
C84	C	0.163326	2.176977	1.213178
C85	C	-0.503310	1.510337	0.628310
C86	C	-0.169976	1.843670	0.961643
C87	C	0.163357	2.177004	1.294977
C88	C	-0.503433	1.782816	0.354572
C89	C	-0.170099	2.116150	0.687905
C90	C	0.163234	2.449483	1.021239
C91	C	-0.503441	1.898970	0.354578
C92	C	-0.170108	2.232303	0.687911
C93	C	0.163226	2.565636	1.021245
C94	C	-0.503409	1.510243	0.163352
C95	C	-0.170075	1.843576	0.496685
C96	C	0.163258	2.176910	0.830019
C97	C	-0.503145	1.510418	0.081553
C98	C	-0.169812	1.843752	0.414887
C99	C	0.163522	2.177085	0.748220
C100	C	-0.436415	1.577222	0.816516
C101	C	-0.103081	1.910555	1.149849
C102	C	0.230252	2.243888	1.483183
C103	C	-0.436384	1.577234	0.893375
C104	C	-0.103051	1.910568	1.226708
C105	C	0.230283	2.243901	1.560041
C106	C	-0.570043	1.443526	0.893342
C107	C	-0.236710	1.776860	1.226676
C108	C	0.096623	2.110193	1.560009
C109	C	-0.570068	1.443509	0.816485
C110	C	-0.236734	1.776843	1.149818
C111	C	0.096599	2.110176	1.483152
C112	C	-0.503255	1.510363	0.778074
C113	C	-0.169922	1.843696	1.111407
C114	C	0.163412	2.177030	1.444740
C115	C	-0.503200	1.510392	0.931790
C116	C	-0.169867	1.843726	1.265123
C117	C	0.163467	2.177059	1.598457
C118	C	-0.503167	1.510405	1.015124
C119	C	-0.169834	1.843739	1.348457
C120	C	0.163499	2.177072	1.681790
C121	C	-0.503286	1.510349	0.694735
C122	C	-0.169952	1.843682	1.028068
C123	C	0.163381	2.177016	1.361401
H124	H	-0.448966	1.078039	0.316336
H125	H	-0.115633	1.411372	0.649669
H126	H	0.217701	1.744706	0.983002
F127	F	-0.365250	1.648401	0.934284
F128	F	-0.031917	1.981735	1.267618
F129	F	0.301416	2.315068	1.600951
H130	H	-0.624442	1.389099	0.924626
H131	H	-0.291109	1.722432	1.257959
H132	H	0.042225	2.055766	1.591293
H133	H	-1.107420	1.628326	0.271653
H134	H	-0.774086	1.961659	0.604986
H135	H	-0.440753	2.294993	0.938319
F136	F	-0.432275	0.957161	0.304603
F137	F	-0.098942	1.290494	0.637936
F138	F	0.234392	1.623827	0.971269
H139	H	-0.624496	1.389058	0.785184
H140	H	-0.291163	1.722391	1.118518
H141	H	0.042170	2.055724	1.451851
F142	F	-1.056506	1.439224	0.404596
F143	F	-0.723172	1.772557	0.737929
F144	F	-0.389839	2.105891	1.071263
F145	F	-0.949304	1.439175	0.404584
F146	F	-0.615971	1.772508	0.737917
F147	F	-0.282637	2.105842	1.071251
H148	H	-0.382008	1.631655	0.785244
H149	H	-0.048675	1.964989	1.118577
H150	H	0.284658	2.298322	1.451910
F151	F	-0.638160	1.129053	0.449176
F152	F	-0.304827	1.462386	0.782510
F153	F	0.028506	1.795720	1.115843
H154	H	-0.621479	0.906250	0.437450
H155	H	-0.288145	1.239584	0.770783
H156	H	0.045188	1.572917	1.104117
H157	H	-0.898296	1.628209	0.271624
H158	H	-0.564963	1.961543	0.604958
H159	H	-0.231630	2.294876	0.938291
