data_functionalizedCrystal
_audit_creation_method	'MofGen! by Chris Wilmer'
_symmetry_space_group_name_H-M	'P1'
_symmetry_Int_Tables_number	1
_symmetry_cell_setting	triclinic
loop_
_symmetry_equiv_pos_as_xyz
  x,y,z
_cell_length_a	11.026607
_cell_length_b	11.026644
_cell_length_c	9.482900
_cell_angle_alpha	78.598751
_cell_angle_beta	101.363848
_cell_angle_gamma	108.585082
loop_
_atom_site_label
_atom_site_type_symbol
_atom_site_fract_x
_atom_site_fract_y
_atom_site_fract_z
O1	O	-1.742225	-0.518007	-0.120879
O2	O	-1.375647	-0.457244	-0.120883
O3	O	-1.528557	-0.304337	-0.120880
O4	O	-1.589315	-0.670914	-0.120881
O5	O	-1.497533	-0.335555	0.120912
O6	O	-1.344622	-0.488462	0.120909
O7	O	-1.711200	-0.549225	0.120913
Cu8	Cu	-1.525078	-0.521694	0.142989
Cu9	Cu	-1.561769	-0.484775	-0.142958
O10	O	-1.558290	-0.702132	0.120911
C11	C	-1.312475	-0.461643	0.000013
C12	C	-1.170462	-0.428226	0.000011
N13	N	-1.499282	-0.547662	0.344109
C14	C	-1.774373	-0.544826	0.000015
C15	C	-1.916387	-0.578241	0.000007
C16	C	-1.501836	-0.272287	0.000013
C17	C	-1.468423	-0.130273	0.000004
C18	C	-1.116811	-0.520495	0.000010
C19	C	-0.970033	-0.485959	0.000008
C20	C	-1.526165	0.070153	0.000009
C21	C	-1.560704	-0.076625	0.000006
C22	C	-1.585013	0.265818	0.000014
C23	C	-1.618433	0.123805	0.000011
N24	N	-1.587574	-0.458799	-0.344078
C25	C	-1.554150	-0.492426	0.416309
C26	C	-1.532698	-0.514043	0.583726
H27	H	-1.179542	-0.625058	0.000018
H28	H	-1.107735	-0.323659	-0.000026
H29	H	-1.436420	-0.610951	0.406238
H30	H	-1.665280	-0.139343	-0.000046
H31	H	-1.421604	0.132883	0.000001
H32	H	-1.723002	0.061082	-0.000041
H33	H	-1.363854	-0.067548	-0.000003
H34	H	-1.617000	-0.429125	0.354181
H35	H	-1.650428	-0.395494	0.593798
H36	H	-0.907311	-0.381385	-0.000029
H37	H	-0.979111	-0.682812	0.000016
H38	H	-1.469832	-0.577337	0.645849
