data_functionalizedCrystal
_audit_creation_method	'MofGen! by Chris Wilmer'
_symmetry_space_group_name_H-M	'P1'
_symmetry_Int_Tables_number	1
_symmetry_cell_setting	triclinic
loop_
_symmetry_equiv_pos_as_xyz
  x,y,z
_cell_length_a	16.109302
_cell_length_b	15.625429
_cell_length_c	15.186229
_cell_angle_alpha	71.919106
_cell_angle_beta	89.994701
_cell_angle_gamma	83.865709
loop_
_atom_site_label
_atom_site_type_symbol
_atom_site_fract_x
_atom_site_fract_y
_atom_site_fract_z
O1	O	1.103291	0.115882	-0.110266
O2	O	0.861250	0.130302	-0.114863
O3	O	0.988738	-0.008146	-0.070658
O4	O	0.975803	0.254330	-0.154471
O5	O	0.988729	-0.008148	0.075800
O6	O	0.861241	0.130300	0.031595
O7	O	1.103283	0.115880	0.036192
Zn8	Zn	0.982261	0.123090	0.057147
Zn9	Zn	0.982272	0.123092	-0.135818
O10	O	0.975795	0.254328	-0.008013
C11	C	0.830270	0.129717	-0.041447
C12	C	0.737972	0.127965	-0.040885
C13	C	0.525621	0.123914	0.040234
C14	C	0.438898	0.122259	0.040760
C15	C	0.438918	0.122265	-0.118918
C16	C	0.525640	0.123914	-0.119441
C17	C	0.568988	0.124743	-0.039863
C18	C	0.395544	0.121439	-0.038815
C19	C	0.301516	0.119644	-0.038246
C20	C	0.663023	0.126537	-0.040432
C21	C	0.988148	-0.041734	0.013294
C22	C	0.986394	-0.141814	0.045245
C23	C	0.980624	-0.470957	-0.248810
C24	C	0.978971	-0.564996	-0.218759
C25	C	0.978962	-0.564985	-0.059101
C26	C	0.980619	-0.470944	-0.089138
C27	C	0.981448	-0.423938	-0.183993
C28	C	0.981443	-0.423925	-0.024322
C29	C	0.983095	-0.329892	-0.054357
C30	C	0.983922	-0.282879	-0.149208
C31	C	0.983100	-0.329905	-0.214028
C32	C	0.980608	-0.470932	0.070533
C33	C	0.981432	-0.423913	0.135349
C34	C	0.983090	-0.329879	0.105315
C35	C	0.983917	-0.282866	0.010464
C36	C	0.983912	-0.282853	0.170135
C37	C	0.985564	-0.188820	0.140100
C38	C	0.985569	-0.188833	-0.019571
C39	C	1.134263	0.116465	-0.037226
C40	C	1.226561	0.118217	-0.037794
C41	C	0.976384	0.287917	-0.091967
C42	C	0.978139	0.387996	-0.123924
N43	N	0.982259	0.123087	0.188840
N44	N	0.982280	0.123088	-0.267509
C45	C	1.038730	0.061803	0.434130
C46	C	1.038733	0.061801	0.526321
C47	C	0.925803	0.184375	0.487194
C48	C	0.925797	0.184372	0.395007
C49	C	0.982265	0.123087	0.368477
C50	C	0.982274	0.123088	0.552854
C51	C	0.982276	0.123086	0.652811
C52	C	0.982262	0.123088	0.268514
H53	H	0.986252	-0.150559	-0.096811
H54	H	0.983229	-0.321139	0.247366
C55	C	0.863690	0.251783	0.516386
N56	N	0.816904	0.302555	0.538373
H57	H	0.403613	0.121591	-0.183708
H58	H	0.560951	0.124587	-0.184669
C59	C	0.391197	0.121357	0.128870
N60	N	0.355268	0.120681	0.195238
H61	H	0.985258	-0.206310	-0.173661
C62	C	0.863716	0.251833	0.322769
N63	N	0.816971	0.302657	0.268356
C64	C	1.100840	-0.005619	0.404954
N65	N	1.147620	-0.056406	0.382982
H66	H	1.084710	0.011897	0.579775
H67	H	0.983783	-0.291631	-0.291268
C68	C	0.573302	0.124815	0.127775
N69	N	0.609214	0.125490	0.193715
H70	H	0.978284	-0.603270	0.018130
C71	C	0.986476	-0.137096	0.211402
N72	N	0.987161	-0.098138	0.265108
H73	H	0.981307	-0.432683	-0.326050
H74	H	0.980754	-0.462198	0.212581
H75	H	0.978292	-0.603275	-0.271548
C76	C	0.978801	-0.574373	0.103570
N77	N	0.977444	-0.652286	0.128453
