data_functionalizedCrystal
_audit_creation_method	'MofGen! by Chris Wilmer'
_symmetry_space_group_name_H-M	'P1'
_symmetry_Int_Tables_number	1
_symmetry_cell_setting	triclinic
loop_
_symmetry_equiv_pos_as_xyz
  x,y,z
_cell_length_a	19.188933
_cell_length_b	23.532357
_cell_length_c	17.666332
_cell_angle_alpha	89.987974
_cell_angle_beta	89.992061
_cell_angle_gamma	82.986930
loop_
_atom_site_label
_atom_site_type_symbol
_atom_site_fract_x
_atom_site_fract_y
_atom_site_fract_z
O1	O	0.925906	0.071109	-0.062932
O2	O	0.722562	0.080679	-0.062941
O3	O	0.830384	-0.007026	-0.062921
O4	O	0.818084	0.158815	-0.062952
O5	O	0.830365	-0.007031	0.062976
O6	O	0.722544	0.080675	0.062956
O7	O	0.925887	0.071104	0.062965
Cu8	Cu	0.824214	0.075889	0.074456
Cu9	Cu	0.824236	0.075895	-0.074432
O10	O	0.818065	0.158810	0.062945
C11	C	0.696543	0.080367	0.000007
C12	C	0.619042	0.079436	0.000005
C13	C	0.065819	0.072795	-0.068612
C14	C	0.138641	0.073666	-0.068615
C15	C	0.175046	0.074102	0.000011
C16	C	0.138626	0.073651	0.068645
C17	C	0.065807	0.072774	0.068646
N18	N	0.283943	0.107885	0.051086
N19	N	0.353118	0.108719	0.051080
C20	C	0.394445	0.076743	0.000011
N21	N	0.363984	0.043908	-0.051063
N22	N	0.294802	0.043076	-0.051059
C23	C	0.254006	0.075052	0.000017
C24	C	0.509818	0.078134	-0.068622
C25	C	0.582641	0.079001	-0.068622
C26	C	0.582625	0.078993	0.068640
C27	C	0.509804	0.078119	0.068638
C28	C	0.473404	0.077692	0.000005
C29	C	0.830067	-0.028246	0.000030
C30	C	0.829142	-0.091467	0.000037
C31	C	0.823345	-0.483488	-0.068630
C32	C	0.822466	-0.542889	-0.068635
O33	O	0.821996	-0.573604	-0.126999
N34	N	0.822020	-0.572604	-0.000009
C35	C	0.822446	-0.542913	0.068625
O36	O	0.821985	-0.573642	0.126996
C37	C	0.823320	-0.483512	0.068629
C38	C	0.823773	-0.453802	-0.000001
C39	C	0.823798	-0.453777	-0.137254
C40	C	0.824678	-0.394380	-0.137250
C41	C	0.825107	-0.364694	-0.068621
C42	C	0.824654	-0.394404	0.000003
C43	C	0.823741	-0.453822	0.137262
C44	C	0.824615	-0.394417	0.137260
C45	C	0.825068	-0.364707	0.068630
C46	C	0.825963	-0.305321	0.068637
N47	N	0.826409	-0.275607	0.000012
C48	C	0.825981	-0.305293	-0.068617
C49	C	0.820608	-0.667659	0.068612
C50	C	0.819739	-0.727059	0.068610
C51	C	0.819758	-0.727030	-0.068650
C52	C	0.820633	-0.667630	-0.068647
C53	C	0.821055	-0.637944	-0.000013
C54	C	0.827831	-0.180555	-0.068602
C55	C	0.828714	-0.121153	-0.068592
C56	C	0.828691	-0.121186	0.068668
C57	C	0.827812	-0.180583	0.068657
C58	C	0.827379	-0.210266	0.000016
O59	O	0.826430	-0.274568	0.126971
O60	O	0.826433	-0.274555	-0.126978
C61	C	0.951907	0.071417	0.000015
C62	C	1.029408	0.072348	0.000013
C63	C	0.818382	0.180030	-0.000008
C64	C	0.819307	0.243250	-0.000020
N65	N	0.824203	0.075885	0.179175
N66	N	0.824252	0.075894	-0.179151
C67	C	0.871962	0.037068	0.218794
C68	C	0.871966	0.037065	0.298041
C69	C	0.824218	0.075889	0.337667
C70	C	0.776450	0.114709	0.298039
C71	C	0.776443	0.114707	0.218793
N72	N	0.814970	0.126306	0.462076
N73	N	0.814981	0.126306	0.537357
C74	C	0.824236	0.075897	0.576431
N75	N	0.833494	0.025487	0.537382
N76	N	0.833486	0.025487	0.462094
C77	C	0.824220	0.075896	0.423596
C78	C	0.872002	0.037074	0.701979
C79	C	0.872001	0.037070	0.781228
C80	C	0.776489	0.114720	0.781225
C81	C	0.776486	0.114718	0.701977
C82	C	0.824247	0.075896	0.662359
H83	H	0.168292	0.074033	-0.124500
H84	H	0.821001	-0.643443	-0.124531
C85	C	0.768890	-0.096349	0.185635
C86	C	0.829145	-0.088541	0.144099
H87	H	0.769166	-0.076195	0.232204
H88	H	0.728332	-0.082171	0.157418
H89	H	0.768316	-0.135979	0.195462
H90	H	0.829717	-0.048912	0.134267
H91	H	0.869715	-0.102717	0.172323
C92	C	0.734074	0.149196	0.580498
C93	C	0.723997	0.157395	0.658422
H94	H	0.701664	0.175542	0.553611
H95	H	0.780620	0.155285	0.567504
H96	H	0.726760	0.111199	0.567532
H97	H	0.731316	0.195390	0.671390
H98	H	0.677440	0.151310	0.671421
C99	C	0.655387	0.148406	0.805638
C100	C	0.724000	0.157396	0.824772
H101	H	0.622982	0.174750	0.832529
H102	H	0.648554	0.153963	0.752778
H103	H	0.648090	0.110409	0.818643
H104	H	0.731299	0.195392	0.811762
H105	H	0.730836	0.151843	0.877644
C106	C	0.436115	0.028176	0.148275
C107	C	0.469779	0.077630	0.144077
H108	H	0.411411	0.027871	0.194853
H109	H	0.404013	0.027798	0.107411
H110	H	0.470094	-0.004680	0.145420
H111	H	0.435799	0.110487	0.146926
H112	H	0.501884	0.078013	0.184952
H113	H	0.910890	0.005458	0.813486
C114	C	0.681362	0.127262	0.387187
C115	C	0.723966	0.157386	0.341596
H116	H	0.648962	0.153609	0.414079
H117	H	0.656418	0.103609	0.356287
H118	H	0.709816	0.104144	0.422122
H119	H	0.695512	0.180500	0.306657
H120	H	0.748913	0.181048	0.372498
C121	C	0.762668	-0.514043	0.216880
C122	C	0.823213	-0.486459	0.212710
H123	H	0.762338	-0.534189	0.263462
H124	H	0.722307	-0.486416	0.213993
H125	H	0.762307	-0.540239	0.176019
H126	H	0.823572	-0.460260	0.253568
H127	H	0.863585	-0.514089	0.215604
C128	C	0.881613	-0.607432	0.148261
C129	C	0.821083	-0.635031	0.144061
H130	H	0.881902	-0.587289	0.194838
H131	H	0.921985	-0.635051	0.145405
H132	H	0.881996	-0.581231	0.107393
H133	H	0.820703	-0.661235	0.184926
H134	H	0.780701	-0.607409	0.146924
C135	C	0.824487	-0.400414	0.272936
C136	C	0.825073	-0.361787	0.212706
H137	H	0.824772	-0.380270	0.319512
H138	H	0.783429	-0.419135	0.270067
H139	H	0.864871	-0.428030	0.270083
H140	H	0.784686	-0.334174	0.215557
H141	H	0.866135	-0.343057	0.215577
H142	H	0.829085	-0.096965	-0.124481
H143	H	0.036161	0.072413	0.124530
H144	H	0.737551	0.146318	0.186535
H145	H	0.168272	0.074005	0.124520
H146	H	0.036188	0.072445	-0.124499
C147	C	0.766798	-0.240852	0.148281
C148	C	0.827330	-0.213253	0.144090
H149	H	0.766503	-0.261022	0.194848
H150	H	0.726428	-0.213230	0.145441
H151	H	0.766418	-0.267029	0.107399
H152	H	0.827708	-0.187073	0.184968
H153	H	0.867711	-0.240878	0.146937
H154	H	0.827475	-0.204715	-0.124497
H155	H	0.910850	0.005455	0.186539
C156	C	0.818410	-0.818079	-0.129593
C157	C	0.819279	-0.759669	-0.144091
H158	H	0.818109	-0.838227	-0.176164
H159	H	0.858982	-0.832261	-0.101401
H160	H	0.777540	-0.823361	-0.101391
H161	H	0.860152	-0.754386	-0.172288
H162	H	0.778702	-0.745482	-0.172295
H163	H	0.480180	0.077784	-0.124507
H164	H	0.910858	0.005454	0.330305
C165	C	0.823917	-0.447768	-0.272923
C166	C	0.823334	-0.486402	-0.212700
H167	H	0.823639	-0.467908	-0.319503
H168	H	0.783537	-0.420158	-0.270068
H169	H	0.864980	-0.429043	-0.270047
H170	H	0.782268	-0.505123	-0.215574
H171	H	0.863718	-0.514022	-0.215557
C172	C	0.694240	0.080332	0.129585
C173	C	0.622633	0.079470	0.144076
H174	H	0.718940	0.080628	0.176159
H175	H	0.711733	0.047276	0.101395
H176	H	0.700608	0.113684	0.101383
H177	H	0.616264	0.046115	0.172274
H178	H	0.605135	0.112529	0.172278
H179	H	0.910890	0.005460	0.669721
H180	H	0.612287	0.079361	-0.124507
C181	C	0.825867	-0.303298	-0.198209
C182	C	0.825057	-0.361713	-0.212690
H183	H	0.826070	-0.283132	-0.244787
H184	H	0.785323	-0.289160	-0.169939
H185	H	0.866767	-0.297987	-0.170091
H186	H	0.784154	-0.367024	-0.240803
H187	H	0.865605	-0.375856	-0.240972
C188	C	0.819808	-0.721105	0.204283
C189	C	0.819247	-0.759713	0.144050
H190	H	0.819496	-0.741264	0.250857
H191	H	0.860870	-0.702387	0.201429
H192	H	0.779428	-0.693486	0.201417
H193	H	0.859630	-0.787330	0.146912
H194	H	0.778180	-0.778441	0.146905
