data_functionalizedCrystal
_audit_creation_method	'MofGen! by Chris Wilmer'
_symmetry_space_group_name_H-M	'P1'
_symmetry_Int_Tables_number	1
_symmetry_cell_setting	triclinic
loop_
_symmetry_equiv_pos_as_xyz
  x,y,z
_cell_length_a	16.992701
_cell_length_b	14.519731
_cell_length_c	16.053802
_cell_angle_alpha	92.569546
_cell_angle_beta	87.243340
_cell_angle_gamma	87.178012
loop_
_atom_site_label
_atom_site_type_symbol
_atom_site_fract_x
_atom_site_fract_y
_atom_site_fract_z
O1	O	1.043981	0.191918	-0.069438
O2	O	1.543981	0.691918	0.430562
O3	O	0.815693	0.189775	-0.069439
O4	O	1.315693	0.689775	0.430561
O5	O	0.935881	0.057043	-0.069431
O6	O	1.435881	0.557043	0.430569
O7	O	0.923793	0.324650	-0.069446
O8	O	1.423793	0.824650	0.430554
O9	O	0.929265	0.064317	0.069428
O10	O	1.429265	0.564317	0.569428
O11	O	0.809077	0.197049	0.069420
O12	O	1.309077	0.697049	0.569420
O13	O	1.037366	0.199192	0.069420
O14	O	1.537366	0.699192	0.569420
Zn15	Zn	0.922171	0.199275	0.091467
Zn16	Zn	1.422171	0.699275	0.591467
Zn17	Zn	0.930887	0.189692	-0.091485
Zn18	Zn	1.430887	0.689692	0.408515
O19	O	0.917178	0.331923	0.069412
O20	O	1.417178	0.831923	0.569412
C21	C	0.783169	0.190652	-0.000009
C22	C	1.283169	0.690652	0.499991
C23	C	0.696112	0.182418	-0.000009
C24	C	1.196112	0.682418	0.499991
C25	C	0.207071	0.127090	-0.000009
C26	C	0.707071	0.627090	0.499991
C27	C	0.288869	0.134834	-0.000005
C28	C	0.788869	0.634834	0.499995
C29	C	0.320541	0.222038	-0.000013
C30	C	0.820541	0.722038	0.499987
C31	C	0.270409	0.301503	-0.000018
C32	C	0.770409	0.801503	0.499982
C33	C	0.188613	0.293758	-0.000017
C34	C	0.688613	0.793758	0.499983
C35	C	0.564185	0.254137	-0.000013
C36	C	1.064185	0.754137	0.499987
C37	C	0.645988	0.261876	-0.000017
C38	C	1.145988	0.761876	0.499983
C39	C	0.664442	0.095207	-0.000002
C40	C	1.164442	0.595207	0.499998
C41	C	0.582643	0.087470	-0.000005
C42	C	1.082643	0.587470	0.499995
C43	C	0.532519	0.166935	-0.000006
C44	C	1.032519	0.666935	0.499994
N45	N	0.404151	0.229956	-0.000011
N46	N	0.904151	0.729956	0.499989
N47	N	0.448910	0.159016	-0.000002
N48	N	0.948910	0.659016	0.499998
C49	C	0.932007	0.026280	-0.000002
C50	C	1.432007	0.526280	0.499998
C51	C	0.930309	-0.076222	-0.000001
C52	C	1.430309	0.423778	0.499999
C53	C	0.928930	-0.159465	-0.000003
C54	C	1.428930	0.340535	0.499997
C55	C	0.927207	-0.263898	-0.000009
C56	C	1.427207	0.236102	0.499991
C57	C	0.925840	-0.347135	-0.000015
C58	C	1.425840	0.152865	0.499985
C59	C	0.924117	-0.451574	-0.000020
C60	C	1.424117	0.048426	0.499980
C61	C	1.069890	0.198315	-0.000011
C62	C	1.569890	0.698315	0.499989
C63	C	1.156947	0.206549	-0.000017
C64	C	1.656947	0.706549	0.499983
C65	C	0.921052	0.362686	-0.000019
C66	C	1.421052	0.862686	0.499981
C67	C	0.922750	0.465188	-0.000025
C68	C	1.422750	0.965188	0.499975
N69	N	0.916228	0.205816	0.216327
N70	N	1.416228	0.705816	0.716327
N71	N	0.936837	0.183144	-0.216345
N72	N	1.436837	0.683144	0.283655
C73	C	0.967387	0.149361	0.260024
C74	C	1.467387	0.649361	0.760024
C75	C	0.963237	0.153945	0.347430
C76	C	1.463237	0.653945	0.847430
C77	C	0.907932	0.214990	0.391138
C78	C	1.407932	0.714990	0.891138
C79	C	0.856768	0.271446	0.347435
C80	C	1.356768	0.771446	0.847435
C81	C	0.860914	0.266857	0.260030
C82	C	1.360914	0.766857	0.760030
C83	C	0.889819	0.235012	0.652546
C84	C	1.389819	0.735012	1.152546
C85	C	0.885678	0.239599	0.739957
C86	C	1.385678	0.739599	1.239957
C87	C	0.992147	0.122096	0.739947
C88	C	1.492147	0.622096	1.239947
C89	C	0.996292	0.117516	0.652541
C90	C	1.496292	0.617516	1.152541
C91	C	0.945125	0.173969	0.608845
C92	C	1.445125	0.673969	1.108845
N93	N	0.903691	0.219679	0.480481
N94	N	1.403691	0.719679	0.980481
N95	N	0.949363	0.169274	0.519503
N96	N	1.449363	0.669274	1.019503
H97	H	0.523383	0.318844	-0.000017
H98	H	1.023383	0.818844	0.499983
O99	O	1.018415	0.093059	0.394568
O100	O	1.518415	0.593059	0.894568
H101	H	1.054680	0.136817	0.434381
H102	H	1.554680	0.636817	0.934381
O103	O	1.055952	0.051674	0.605413
O104	O	1.555952	0.551674	1.105413
H105	H	1.096012	0.091252	0.565588
H106	H	1.596012	0.591252	1.065588
H107	H	1.033804	0.076133	0.775532
H108	H	1.533804	0.576133	1.275532
O109	O	0.342929	0.049129	0.000007
O110	O	0.842929	0.549129	0.500007
H111	H	0.383341	0.045704	-0.056583
H112	H	0.883341	0.545704	0.443417
H113	H	0.556863	0.016459	0.000002
H114	H	1.056863	0.516459	0.500002
H115	H	0.671770	0.332892	-0.000012
H116	H	1.171770	0.832892	0.499988
O117	O	0.718501	0.009501	0.000015
O118	O	1.218501	0.509501	0.500015
H119	H	0.780700	0.029533	0.000022
H120	H	1.280700	0.529533	0.500022
H121	H	0.840639	0.289312	0.775540
H122	H	1.340639	0.789312	1.275540
H123	H	0.848158	0.280980	0.616976
H124	H	1.348158	0.780980	1.116976
O125	O	0.304563	0.395562	-0.000028
O126	O	0.804563	0.895562	0.499972
H127	H	0.369863	0.387600	-0.000036
H128	H	0.869863	0.887600	0.499964
H129	H	0.147802	0.358462	-0.000020
H130	H	0.647802	0.858462	0.499980
O131	O	0.797118	0.337294	0.394570
O132	O	1.297118	0.837294	0.894570
H133	H	0.802834	0.331011	0.462690
H134	H	1.302834	0.831011	0.962690
O135	O	1.027035	0.083516	0.212883
O136	O	1.527035	0.583516	0.712883
H137	H	1.061905	0.045023	0.257956
H138	H	1.561905	0.545023	0.757956
O139	O	0.805738	0.327739	0.212885
O140	O	1.305738	0.827739	0.712885
H141	H	0.815035	0.401267	0.229631
H142	H	1.315035	0.901267	0.729631
O143	O	0.172912	0.033035	0.000007
O144	O	0.672912	0.533035	0.500007
H145	H	0.221512	-0.020915	0.000023
H146	H	0.721512	0.479085	0.500023
