data_functionalizedCrystal
_audit_creation_method	'MofGen! by Chris Wilmer'
_symmetry_space_group_name_H-M	'P1'
_symmetry_Int_Tables_number	1
_symmetry_cell_setting	triclinic
loop_
_symmetry_equiv_pos_as_xyz
  x,y,z
_cell_length_a	16.994747
_cell_length_b	19.121102
_cell_length_c	19.120904
_cell_angle_alpha	89.911827
_cell_angle_beta	87.578245
_cell_angle_gamma	87.557125
loop_
_atom_site_label
_atom_site_type_symbol
_atom_site_fract_x
_atom_site_fract_y
_atom_site_fract_z
Zn1	Zn	-0.385854	1.054979	0.442112
Zn2	Zn	-0.512385	1.059942	0.324892
Zn3	Zn	-0.374635	0.942744	0.319894
Zn4	Zn	-0.511855	0.937754	0.437094
O5	O	-0.446182	0.998855	0.380998
O6	O	-0.407556	1.153745	0.430754
O7	O	-0.489638	1.048561	0.226123
O8	O	-0.265743	0.957644	0.336116
O9	O	-0.500518	1.157391	0.344633
O10	O	-0.273986	1.040102	0.425908
O11	O	-0.388434	0.962456	0.222452
O12	O	-0.387920	0.843975	0.331250
O13	O	-0.499614	0.949138	0.535865
O14	O	-0.488735	0.840308	0.417356
O15	O	-0.407042	1.035263	0.539552
O16	O	-0.622695	1.043722	0.339767
O17	O	-0.622305	0.953951	0.422201
C18	C	-0.437053	0.816704	0.373216
C19	C	-0.433167	0.738778	0.369904
C20	C	-0.151124	0.998889	0.381012
C21	C	-0.240446	0.998881	0.381011
C22	C	-0.651121	0.998842	0.380980
C23	C	-0.740442	0.998860	0.380957
C24	C	-0.483903	0.700281	0.413108
C25	C	-0.480242	0.627061	0.409999
C26	C	-0.425848	0.592340	0.363682
C27	C	-0.375106	0.630842	0.320476
C28	C	-0.378764	0.704061	0.323589
C29	C	-0.412170	0.371363	0.352047
C30	C	-0.408517	0.298139	0.348935
C31	C	-0.513652	0.294363	0.438460
C32	C	-0.517309	0.367583	0.441566
C33	C	-0.466565	0.406079	0.398363
C34	C	-0.422106	0.517498	0.360501
C35	C	-0.470303	0.480919	0.401547
Zn36	Zn	0.119497	1.059844	0.324731
Zn37	Zn	0.120016	0.937901	0.437200
Zn38	Zn	-0.017699	1.055132	0.441977
Zn39	Zn	-0.006544	0.942630	0.320005
O40	O	0.053818	0.998877	0.380978
O41	O	0.229949	1.043661	0.339629
O42	O	0.097296	0.949501	0.535948
O43	O	-0.004385	1.153873	0.430401
O44	O	0.230329	0.954070	0.422260
O45	O	0.096413	1.157335	0.344261
O46	O	-0.003882	1.035630	0.539458
O47	O	-0.126601	1.040216	0.425818
O48	O	0.014627	0.962130	0.222518
O49	O	-0.118406	0.957561	0.336206
O50	O	0.107229	1.048246	0.225990
O51	O	0.108113	0.840412	0.417678
O52	O	0.015130	0.843887	0.331575
C53	C	-0.454520	0.991090	0.563857
C54	C	-0.458074	0.987782	0.641781
C55	C	-0.455348	1.181717	0.388810
C56	C	-0.459253	1.259642	0.392140
C57	C	-0.437822	1.006629	0.198852
C58	C	-0.434053	1.010074	0.120934
C59	C	-0.411548	1.031065	0.680310
C60	C	-0.414883	1.027948	0.753528
C61	C	-0.464749	0.981550	0.788214
C62	C	-0.511276	0.938261	0.749680
C63	C	-0.507936	0.941375	0.676464
C64	C	-0.477240	0.969900	1.009183
C65	C	-0.480579	0.966790	1.082405
C66	C	-0.384184	1.056476	1.086248
C67	C	-0.380852	1.059590	1.013030
C68	C	-0.427376	1.016298	0.974502
C69	C	-0.468161	0.978364	0.863054
C70	C	-0.423960	1.019481	0.899663
C71	C	0.062890	0.816709	0.373597
C72	C	0.066793	0.738776	0.370460
C73	C	0.062115	1.006241	0.198102
C74	C	0.065651	1.009379	0.120172
C75	C	0.044712	1.181756	0.388391
C76	C	0.040832	1.259688	0.391549
C77	C	0.045594	0.991590	0.563145
C78	C	0.042197	0.988645	0.641083
C79	C	0.117085	0.700391	0.413780
C80	C	0.120768	0.627165	0.410832
C81	C	0.074154	0.592325	0.364567
C82	C	0.023860	0.630715	0.321242
C83	C	0.020182	0.703940	0.324187
C84	C	0.115524	1.055695	0.085378
C85	C	0.118845	1.058658	0.012155
C86	C	0.072297	1.015301	-0.026275
C87	C	0.022418	0.968983	0.008523
C88	C	0.019093	0.966024	0.081746
C89	C	-0.013477	1.294487	0.437882
C90	C	-0.017138	1.367712	0.440850
C91	C	0.033513	1.406137	0.397488
C92	C	0.087824	1.371333	0.351151
C93	C	0.091481	1.298109	0.348180
C94	C	-0.012425	1.031785	0.679468
C95	C	-0.015617	1.029032	0.752700
C96	C	0.035808	0.983136	0.787546
C97	C	0.090435	0.939994	0.749156
C98	C	0.093631	0.942751	0.675925
H99	H	-0.521558	0.595720	0.445180
H100	H	-0.337446	0.735404	0.288411
H101	H	-0.508765	0.940589	0.891305
H102	H	-0.060103	1.064164	0.783946
H103	H	-0.054297	1.069168	0.651106
H104	H	0.129062	1.402630	0.315848
H105	H	-0.021517	0.928305	0.110069
N106	N	0.075687	1.018319	-0.101070
N107	N	0.014916	1.034296	-0.133156
H108	H	0.017313	1.036428	-0.185980
N109	N	0.032539	0.980306	0.862348
N110	N	0.078450	0.939321	0.893459
H111	H	0.076137	0.937322	0.946288
H112	H	-0.514588	0.509192	0.439261
H113	H	0.077160	0.532700	0.362173
H114	H	0.135710	1.269781	0.310453
N115	N	-0.065224	1.255257	0.482185
N116	N	-0.113709	1.286349	0.523544
H117	H	-0.150262	1.258648	0.554834
H118	H	0.132303	0.902626	0.777539
N119	N	-0.565478	0.255029	0.482582
N120	N	-0.562209	0.189657	0.479798
H121	H	-0.598812	0.161876	0.510962
N122	N	-0.072622	1.403243	0.488187
N123	N	-0.117833	1.368922	0.526902
H124	H	-0.157020	1.394012	0.560335
N125	N	0.149432	0.898676	0.636732
N126	N	0.195338	0.857701	0.667859
H127	H	0.234752	0.826570	0.640182
H128	H	0.030528	1.465761	0.399915
N129	N	-0.539478	0.735733	0.460419
N130	N	-0.584773	0.701348	0.498990
H131	H	-0.624024	0.726384	0.532405
H132	H	-0.551875	0.900480	0.777928
H133	H	-0.020775	0.735188	0.288911
N134	N	-0.572878	0.403036	0.488880
N135	N	-0.618175	0.368654	0.527453
H136	H	-0.657424	0.393693	0.560868
N137	N	-0.352938	0.262680	0.301627
N138	N	-0.280786	0.270650	0.306738
H139	H	-0.241535	0.245607	0.273328
N140	N	-0.360337	0.410669	0.307908
N141	N	-0.311780	0.379657	0.266554
H142	H	-0.275172	0.407418	0.235376
H143	H	-0.377820	0.489220	0.322788
N144	N	-0.319542	0.595367	0.273173
N145	N	-0.316283	0.529994	0.270398
H146	H	-0.277041	0.504940	0.236989
N147	N	-0.360600	1.078459	0.644893
N148	N	-0.287956	1.073466	0.652882
H149	H	-0.251969	1.106937	0.627870
N150	N	-0.367350	1.072156	0.792882
N151	N	-0.293959	1.067866	0.784509
H152	H	-0.260385	1.099090	0.812302
N153	N	-0.329903	1.106984	0.977616
N154	N	-0.257259	1.101996	0.985604
H155	H	-0.221276	1.135472	0.960595
N156	N	-0.336670	1.100690	1.125614
N157	N	-0.339657	1.097907	1.190985
H158	H	-0.306097	1.129134	1.218789
N159	N	-0.531504	0.919388	1.117849
N160	N	-0.534478	0.916619	1.183220
H161	H	-0.570442	0.883144	1.208254
H162	H	0.153435	1.091001	0.116658
H163	H	-0.515136	0.934659	0.977823
N164	N	-0.025120	0.924682	-0.030726
N165	N	-0.069645	0.883322	0.000339
H166	H	-0.103215	0.852030	-0.027382
N167	N	-0.555461	0.897152	0.637115
N168	N	-0.599979	0.855726	0.668092
H169	H	-0.633542	0.824489	0.640303
H170	H	-0.014089	0.602337	0.283573
H171	H	-0.383356	1.057256	0.871418
N172	N	0.164709	0.735958	0.461045
N173	N	0.209611	0.701666	0.499712
H174	H	0.243253	0.726781	0.533093
N175	N	0.172147	0.587970	0.455096
N176	N	0.213751	0.619091	0.496406
H177	H	0.250037	0.591413	0.527669
N178	N	0.169801	1.105976	-0.023370
N179	N	0.211362	1.144675	0.010956
H180	H	0.247351	1.178094	-0.014131
