data_functionalizedCrystal
_audit_creation_method	'MofGen! by Chris Wilmer'
_symmetry_space_group_name_H-M	'P1'
_symmetry_Int_Tables_number	1
_symmetry_cell_setting	triclinic
loop_
_symmetry_equiv_pos_as_xyz
  x,y,z
_cell_length_a	16.974885
_cell_length_b	26.210047
_cell_length_c	16.992695
_cell_angle_alpha	90.004590
_cell_angle_beta	92.976847
_cell_angle_gamma	86.357003
loop_
_atom_site_label
_atom_site_type_symbol
_atom_site_fract_x
_atom_site_fract_y
_atom_site_fract_z
O1	O	1.055447	-0.001111	-0.099901
O2	O	1.555447	0.498889	0.400099
O3	O	0.826049	0.008354	-0.112633
O4	O	1.326049	0.508354	0.387367
O5	O	0.939828	0.003655	0.007875
O6	O	1.439828	0.503655	0.507875
O7	O	0.941668	0.003587	-0.220409
O8	O	1.441668	0.503587	0.279591
O9	O	0.939806	-0.081202	0.007856
O10	O	1.439806	0.418798	0.507856
O11	O	0.826027	-0.076504	-0.112652
O12	O	1.326027	0.423496	0.387348
O13	O	1.055425	-0.085968	-0.099920
O14	O	1.555425	0.414032	0.400080
Cu15	Cu	0.940724	-0.088984	-0.106288
Cu16	Cu	1.440724	0.411016	0.393712
Cu17	Cu	0.940750	0.011369	-0.106265
Cu18	Cu	1.440750	0.511369	0.393735
O19	O	0.941645	-0.081270	-0.220428
O20	O	1.441645	0.418730	0.279572
C21	C	0.796549	-0.032858	-0.112159
C22	C	1.296549	0.467142	0.387841
C23	C	0.708683	-0.029233	-0.110708
C24	C	1.208683	0.470767	0.389292
C25	C	0.214090	-0.003828	-0.102516
C26	C	0.714090	0.496172	0.397484
C27	C	0.296650	-0.007241	-0.103879
C28	C	0.796650	0.492759	0.396121
C29	C	0.337909	-0.055203	-0.104576
C30	C	0.837909	0.444797	0.395424
C31	C	0.296605	-0.099756	-0.103903
C32	C	0.796605	0.400244	0.396097
C33	C	0.214047	-0.096342	-0.102534
C34	C	0.714047	0.403658	0.397466
C35	C	0.584820	-0.070372	-0.108666
C36	C	1.084820	0.429628	0.391334
C37	C	0.667384	-0.073782	-0.110037
C38	C	1.167384	0.426218	0.389963
C39	C	0.667423	0.018733	-0.110012
C40	C	1.167423	0.518733	0.389988
C41	C	0.584863	0.022142	-0.108648
C42	C	1.084863	0.522142	0.391352
C43	C	0.543566	-0.022410	-0.107970
C44	C	1.043566	0.477590	0.392030
N45	N	0.422299	-0.058693	-0.105972
N46	N	0.922299	0.441307	0.394028
N47	N	0.459179	-0.018920	-0.106569
N48	N	0.959179	0.481080	0.393431
N49	N	0.940711	-0.159567	-0.106303
N50	N	1.440711	0.340433	0.393697
C51	C	0.991127	-0.514163	-0.052917
C52	C	1.491127	-0.014163	0.447083
C53	C	0.991143	-0.727823	-0.052906
C54	C	1.491143	-0.227823	0.447094
O55	O	1.033979	-0.757213	-0.007518
O56	O	1.533979	-0.257213	0.492482
N57	N	0.940753	-0.752463	-0.106248
N58	N	1.440753	-0.252463	0.393752
C59	C	0.890351	-0.723685	-0.159594
C60	C	1.390351	-0.223685	0.340406
O61	O	0.847486	-0.749546	-0.204959
O62	O	1.347486	-0.249546	0.295041
C63	C	0.890331	-0.510027	-0.159600
C64	C	1.390331	-0.010027	0.340400
C65	C	0.940730	-0.485389	-0.106260
C66	C	1.440730	0.014611	0.393740
C67	C	1.041521	-0.489526	0.000420
C68	C	1.541521	0.010474	0.500420
C69	C	1.041520	-0.436114	0.000414
C70	C	1.541520	0.063886	0.500414
C71	C	0.991123	-0.407340	-0.052929
C72	C	1.491123	0.092660	0.447071
C73	C	0.940729	-0.431978	-0.106266
C74	C	1.440729	0.068022	0.393734
C75	C	0.839926	-0.481250	-0.212941
C76	C	1.339926	0.018750	0.287059
C77	C	0.839924	-0.427832	-0.212937
C78	C	1.339924	0.072168	0.287063
C79	C	0.890323	-0.403194	-0.159596
C80	C	1.390323	0.096806	0.340404
C81	C	0.890331	-0.349792	-0.159615
C82	C	1.390331	0.150208	0.340385
N83	N	0.940721	-0.325152	-0.106272
N84	N	1.440721	0.174848	0.393728
C85	C	0.991118	-0.353926	-0.052929
C86	C	1.491118	0.146074	0.447071
C87	C	0.890367	-0.835859	-0.159588
C88	C	1.390367	-0.335859	0.340412
C89	C	0.890372	-0.889273	-0.159587
C90	C	1.390372	-0.389273	0.340413
C91	C	0.991164	-0.893407	-0.052898
C92	C	1.491164	-0.393407	0.447102
C93	C	0.991161	-0.839992	-0.052903
C94	C	1.491161	-0.339992	0.447097
C95	C	0.940757	-0.811219	-0.106245
C96	C	1.440757	-0.311219	0.393755
C97	C	0.991111	-0.241758	-0.052947
C98	C	1.491111	0.258242	0.447053
C99	C	0.991107	-0.188341	-0.052960
C100	C	1.491107	0.311659	0.447040
C101	C	0.890313	-0.184212	-0.159646
C102	C	1.390313	0.315788	0.340354
C103	C	0.890320	-0.237624	-0.159636
C104	C	1.390320	0.262376	0.340364
C105	C	0.940721	-0.266395	-0.106280
C106	C	1.440721	0.233605	0.393720
O107	O	0.847512	-0.320369	-0.204972
O108	O	1.347512	0.179631	0.295028
O109	O	1.033964	-0.328055	-0.007559
O110	O	1.533964	0.171945	0.492441
C111	C	0.991128	-0.567575	-0.052911
C112	C	1.491128	-0.067575	0.447089
C113	C	0.940734	-0.592212	-0.106247
C114	C	1.440734	-0.092212	0.393753
C115	C	0.890337	-0.563438	-0.159590
C116	C	1.390337	-0.063438	0.340410
C117	C	0.940740	-0.645627	-0.106247
C118	C	1.440740	-0.145627	0.393753
C119	C	0.991136	-0.674401	-0.052904
C120	C	1.491136	-0.174401	0.447096
C121	C	1.041526	-0.649760	0.000439
C122	C	1.541526	-0.149760	0.500439
C123	C	1.041525	-0.596349	0.000432
C124	C	1.541525	-0.096349	0.500432
C125	C	0.839947	-0.588079	-0.212933
C126	C	1.339947	-0.088079	0.287067
C127	C	0.839954	-0.641491	-0.212923
C128	C	1.339954	-0.141491	0.287077
C129	C	0.890350	-0.670265	-0.159580
C130	C	1.390350	-0.170265	0.340420
C131	C	1.084924	-0.044755	-0.100394
C132	C	1.584924	0.455245	0.399606
C133	C	1.172791	-0.048377	-0.101845
C134	C	1.672791	0.451623	0.398155
C135	C	0.937451	-0.038676	0.037075
C136	C	1.437451	0.461324	0.537075
C137	C	0.930392	-0.038384	0.124112
C138	C	1.430392	0.461616	0.624112
N139	N	0.940769	0.081953	-0.106244
N140	N	1.440769	0.581953	0.393756
C141	C	0.944022	-0.038938	-0.249628
C142	C	1.444022	0.461062	0.250372
C143	C	0.951082	-0.039226	-0.336665
C144	C	1.451082	0.460774	0.163335
C145	C	0.998506	-0.041195	0.174427
C146	C	1.498506	0.458805	0.674427
C147	C	0.991868	-0.040916	0.256206
C148	C	1.491868	0.459084	0.756206
C149	C	0.917115	-0.037831	0.287669
C150	C	1.417115	0.462169	0.787669
C151	C	0.848996	-0.035018	0.237347
C152	C	1.348996	0.464982	0.737347
C153	C	0.855635	-0.035293	0.155569
C154	C	1.355635	0.464707	0.655569
C155	C	0.889601	-0.036688	0.531236
C156	C	1.389601	0.463312	1.031236
C157	C	0.882968	-0.036415	0.613020
C158	C	1.382968	0.463585	1.113020
C159	C	1.025841	-0.042312	0.631874
C160	C	1.525841	0.457688	1.131874
C161	C	1.032473	-0.042590	0.550093
C162	C	1.532473	0.457410	1.050093
C163	C	0.964353	-0.039775	0.499779
C164	C	1.464353	0.460225	0.999779
N165	N	0.910329	-0.037547	0.371260
N166	N	1.410329	0.462453	0.871260
N167	N	0.971141	-0.040055	0.416189
N168	N	1.471141	0.459945	0.916189
H169	H	0.330205	-0.138808	-0.104466
H170	H	0.830205	0.361192	0.395534
N171	N	0.806614	-0.033266	0.645178
N172	N	1.306614	0.466734	1.145178
N173	N	0.786969	-0.068227	0.688704
N174	N	1.286969	0.431773	1.188704
H175	H	0.733048	-0.066005	0.711419
H176	H	1.233048	0.433995	1.211419
N177	N	1.093053	-0.410983	0.054889
N178	N	1.593053	0.089017	0.554889
N179	N	1.087453	-0.416723	0.127366
N180	N	1.587453	0.083277	0.627366
H181	H	1.123871	-0.398986	0.165834
H182	H	1.623871	0.101014	0.665834
H183	H	0.701056	0.055005	-0.110562
H184	H	1.201056	0.555005	0.389438
H185	H	1.081299	-0.044603	0.672848
H186	H	1.581299	0.455397	1.172848
N187	N	0.171858	-0.141848	-0.101868
N188	N	0.671858	0.358152	0.398132
N189	N	0.121984	-0.150104	-0.156349
N190	N	0.621984	0.349896	0.343651
H191	H	0.092189	-0.182244	-0.155878
H192	H	0.592189	0.317756	0.344122
H193	H	1.093344	-0.045103	0.524483
H194	H	1.593344	0.454897	1.024483
H195	H	0.700975	-0.112841	-0.110611
H196	H	1.200975	0.387159	0.389389
H197	H	0.551207	-0.106650	-0.108103
H198	H	1.051207	0.393350	0.391897
N199	N	1.042588	-0.163183	0.001542
N200	N	1.542588	0.336817	0.501542
N201	N	1.087571	-0.188884	0.049172
N202	N	1.587571	0.311116	0.549172
H203	H	1.123924	-0.171119	0.087668
H204	H	1.623924	0.328881	0.587668
H205	H	1.032200	-0.916844	-0.009465
H206	H	1.532200	-0.416844	0.490535
N207	N	1.042596	-0.271134	0.001562
N208	N	1.542596	0.228866	0.501562
N209	N	1.087583	-0.249121	0.049177
N210	N	1.587583	0.250879	0.549177
H211	H	1.123948	-0.269867	0.087672
H212	H	1.623948	0.230133	0.587672
N213	N	1.093006	-0.518904	0.054922
N214	N	1.593006	-0.018904	0.554922
N215	N	1.137990	-0.496890	0.102537
N216	N	1.637990	0.003110	0.602537
H217	H	1.174359	-0.517635	0.141031
H218	H	1.674359	-0.017635	0.641031
N219	N	1.042604	-0.814834	0.001628
N220	N	1.542604	-0.314834	0.501628
N221	N	1.087568	-0.840537	0.049273
N222	N	1.587568	-0.340537	0.549273
H223	H	1.123886	-0.822771	0.087805
H224	H	1.623886	-0.322771	0.587805
N225	N	0.838898	-0.914429	-0.214090
N226	N	1.338898	-0.414429	0.285910
N227	N	0.793907	-0.888725	-0.261711
N228	N	1.293907	-0.388725	0.238289
H229	H	0.757549	-0.906489	-0.300204
H230	H	1.257549	-0.406489	0.199796
H231	H	0.834133	-0.034396	0.490280
H232	H	1.334133	0.465604	0.990280
N233	N	0.838869	-0.806479	-0.214083
N234	N	1.338869	-0.306479	0.285917
N235	N	0.793885	-0.828492	-0.261701
N236	N	1.293885	-0.328492	0.238299
H237	H	0.757515	-0.807745	-0.300191
H238	H	1.257515	-0.307745	0.199809
H239	H	0.849288	-0.257684	-0.203078
H240	H	1.349288	0.242316	0.296922
N241	N	0.788450	-0.398442	-0.267440
N242	N	1.288450	0.101558	0.232560
N243	N	0.816604	-0.369802	-0.316104
N244	N	1.316604	0.130198	0.183896
H245	H	0.780253	-0.349046	-0.354599
H246	H	1.280253	0.150954	0.145401
N247	N	0.838846	-0.154807	-0.214130
N248	N	1.338846	0.345193	0.285870
N249	N	0.838855	-0.107117	-0.214118
N250	N	1.338855	0.392883	0.285882
H251	H	0.802503	-0.086347	-0.252595
H252	H	1.302503	0.413653	0.247405
H253	H	0.788131	-0.032502	0.262970
H254	H	1.288131	0.467498	0.762970
H255	H	0.800169	-0.033004	0.114603
H256	H	1.300169	0.466996	0.614603
H257	H	1.059378	-0.043711	0.148817
H258	H	1.559378	0.456289	0.648817
H259	H	0.798886	-0.501302	-0.256375
H260	H	1.298886	-0.001302	0.243625
N261	N	0.171959	0.045170	-0.101811
N262	N	0.671959	0.545170	0.398189
N263	N	0.208847	0.084942	-0.102408
N264	N	0.708847	0.584942	0.397592
H265	H	0.179096	0.119548	-0.101908
H266	H	0.679096	0.619548	0.398092
H267	H	1.082564	-0.576293	0.043867
H268	H	1.582564	-0.076293	0.543867
H269	H	0.330272	0.029036	-0.104421
H270	H	0.830272	0.529036	0.395579
N271	N	1.093000	-0.679165	0.054923
N272	N	1.593000	-0.179165	0.554923
N273	N	1.092984	-0.726855	0.054915
N274	N	1.592984	-0.226855	0.554915
H275	H	1.129330	-0.747626	0.093396
H276	H	1.629330	-0.247626	0.593396
H277	H	0.551275	0.061199	-0.108079
H278	H	1.051275	0.561199	0.391921
N279	N	0.788455	-0.666652	-0.267403
N280	N	1.288455	-0.166652	0.232597
N281	N	0.737805	-0.694366	-0.242542
N282	N	1.237805	-0.194366	0.257458
H283	H	0.701430	-0.712135	-0.281012
H284	H	1.201430	-0.212135	0.218988
H285	H	0.798907	-0.564655	-0.256370
H286	H	1.298907	-0.064655	0.243630
N287	N	1.061453	-0.043783	0.307590
N288	N	1.561453	0.456217	0.807590
N289	N	1.128192	-0.046539	0.279489
N290	N	1.628192	0.453461	0.779489
H291	H	1.177341	-0.048561	0.315778
H292	H	1.677341	0.451439	0.815778
