data_functionalizedCrystal
_audit_creation_method	'MofGen! by Chris Wilmer'
_symmetry_space_group_name_H-M	'P1'
_symmetry_Int_Tables_number	1
_symmetry_cell_setting	triclinic
loop_
_symmetry_equiv_pos_as_xyz
  x,y,z
_cell_length_a	12.759401
_cell_length_b	21.295417
_cell_length_c	12.759393
_cell_angle_alpha	89.960626
_cell_angle_beta	89.982620
_cell_angle_gamma	90.030668
loop_
_atom_site_label
_atom_site_type_symbol
_atom_site_fract_x
_atom_site_fract_y
_atom_site_fract_z
Zn1	Zn	1.606128	-0.250568	-0.593926
Zn2	Zn	1.605978	-0.355853	-0.418223
Zn3	Zn	1.430434	-0.250601	-0.418265
Zn4	Zn	1.430371	-0.355804	-0.593864
O5	O	1.518228	-0.303206	-0.506069
O6	O	1.753129	-0.264541	-0.570626
O7	O	1.582655	-0.341925	-0.271207
O8	O	1.453830	-0.162508	-0.441611
O9	O	1.753019	-0.341893	-0.441538
O10	O	1.582912	-0.162483	-0.570668
O11	O	1.453683	-0.264598	-0.271238
O12	O	1.283404	-0.264550	-0.441551
O13	O	1.453722	-0.341810	-0.740893
O14	O	1.283358	-0.341842	-0.570562
O15	O	1.582850	-0.264493	-0.740939
O16	O	1.582593	-0.443935	-0.441478
O17	O	1.453576	-0.443900	-0.570521
C18	C	1.245260	-0.303195	-0.506055
C19	C	1.128484	-0.303205	-0.506074
C20	C	1.073625	-0.343515	-0.573139
C21	C	0.963901	-0.343523	-0.573151
C22	C	0.963904	-0.262909	-0.439022
C23	C	1.073626	-0.262898	-0.439017
C24	C	1.128483	-0.383822	-0.640196
C25	C	1.073624	-0.424136	-0.707266
C26	C	0.963900	-0.424144	-0.707277
C27	C	0.909034	-0.383838	-0.640219
C28	C	1.518090	-0.466758	-0.506011
C29	C	1.518127	-0.536726	-0.506021
C30	C	1.585366	-0.569591	-0.438898
C31	C	1.585416	-0.635333	-0.438921
C32	C	1.518207	-0.668209	-0.506058
C33	C	1.450963	-0.635336	-0.573195
C34	C	1.450923	-0.569595	-0.573177
N35	N	1.426299	-0.771474	-0.514062
N36	N	1.426340	-0.833925	-0.514073
C37	C	1.518324	-0.866283	-0.506118
N38	N	1.610268	-0.833831	-0.498130
N39	N	1.610226	-0.771373	-0.498114
C40	C	1.518243	-0.739494	-0.506085
C41	C	1.585623	-0.970433	-0.439016
C42	C	1.585674	-1.036177	-0.439047
C43	C	1.451212	-1.036179	-0.573315
C44	C	1.451170	-0.970437	-0.573289
C45	C	1.518374	-0.937568	-0.506134
C46	C	1.792261	-0.303219	-0.506084
C47	C	1.909037	-0.303224	-0.506091
C48	C	1.518296	-0.303142	-0.780103
C49	C	1.518325	-0.303115	-0.896880
C50	C	1.518395	-0.139016	-0.506151
C51	C	1.518466	-0.069048	-0.506185
C52	C	1.451198	-0.262843	-0.951764
C53	C	1.451230	-0.262824	-1.061488
C54	C	1.585524	-0.343351	-1.061434
C55	C	1.585487	-0.343373	-0.951712
C56	C	1.384036	-0.222586	-0.896932
C57	C	1.316905	-0.182310	-0.951816
C58	C	1.316937	-0.182291	-1.061541
C59	C	1.384100	-0.222548	-1.116380
C60	C	1.518220	-0.303225	-0.233102
C61	C	1.518395	-0.303075	-0.116326
H62	H	0.919236	-0.456965	-0.761896
H63	H	1.118293	-0.230070	-0.384415
Cl64	Cl	1.669955	-0.393954	-1.130376
H65	H	1.262268	-0.149501	-1.106225
H66	H	1.640348	-0.943670	-0.384338
H67	H	1.640435	-1.062934	-0.384389
Cl68	Cl	1.366727	-1.077502	-0.657724
H69	H	1.384118	-0.222531	-1.205725
H70	H	1.217825	-0.383821	-0.640192
Cl71	Cl	1.142595	-0.474800	-0.791569
H72	H	1.640174	-0.662097	-0.384261
Cl73	Cl	1.669871	-0.394004	-0.882709
H74	H	0.819690	-0.383842	-0.640243
H75	H	1.396243	-0.662108	-0.627859
Cl76	Cl	0.894930	-0.212244	-0.354724
H77	H	1.640090	-0.542831	-0.384219
Cl78	Cl	1.366631	-0.929119	-0.657674
H79	H	1.396168	-0.542836	-0.627838
Cl80	Cl	1.383996	-0.222604	-0.758993
H81	H	1.262217	-0.149538	-0.907159
