data_functionalizedCrystal
_audit_creation_method	'MofGen! by Chris Wilmer'
_symmetry_space_group_name_H-M	'P1'
_symmetry_Int_Tables_number	1
_symmetry_cell_setting	triclinic
loop_
_symmetry_equiv_pos_as_xyz
  x,y,z
_cell_length_a	14.971482
_cell_length_b	10.489741
_cell_length_c	13.448316
_cell_angle_alpha	89.993703
_cell_angle_beta	89.993798
_cell_angle_gamma	84.075891
loop_
_atom_site_label
_atom_site_type_symbol
_atom_site_fract_x
_atom_site_fract_y
_atom_site_fract_z
O1	O	1.187895	0.166200	-0.082678
O2	O	0.927608	0.186110	-0.082683
O3	O	1.063674	-0.009512	-0.082675
O4	O	1.051829	0.361821	-0.082687
O5	O	1.063657	-0.009524	0.082709
O6	O	0.927591	0.186098	0.082701
O7	O	1.187878	0.166188	0.082705
Cu8	Cu	1.057733	0.176142	0.097804
Cu9	Cu	1.057753	0.176156	-0.097782
O10	O	1.051812	0.361809	0.082697
C11	C	0.894270	0.185215	0.000008
C12	C	0.794957	0.182549	0.000006
C13	C	0.748296	0.181287	0.090158
C14	C	0.654983	0.178761	0.090159
C15	C	0.608332	0.177508	0.000008
C16	C	0.655000	0.178766	-0.090151
C17	C	0.748312	0.181282	-0.090151
C18	C	0.460509	0.173525	-0.090144
C19	C	0.367190	0.171011	-0.090145
C20	C	0.367179	0.171004	0.090166
C21	C	0.460491	0.173520	0.090166
C22	C	0.507153	0.174781	0.000007
C23	C	1.062771	-0.057039	0.000017
C24	C	1.060094	-0.198637	0.000015
C25	C	0.973519	-0.265774	0.000006
C26	C	1.014408	-0.358376	0.081549
C27	C	1.014446	-0.358339	-0.081506
C28	C	1.101019	-0.289375	0.081626
C29	C	1.101044	-0.289328	-0.081503
C30	C	1.141996	-0.381904	0.000060
C31	C	1.221216	0.167083	0.000012
C32	C	1.320529	0.169749	0.000007
C33	C	1.052715	0.409337	0.000004
C34	C	1.055392	0.550935	-0.000001
N35	N	1.057725	0.176131	0.235368
N36	N	1.057768	0.176157	-0.235346
C37	C	1.117994	0.089545	0.287412
C38	C	1.118000	0.089544	0.391516
C39	C	1.057740	0.176136	0.443573
C40	C	0.997464	0.262726	0.391521
C41	C	0.997455	0.262720	0.287420
C42	C	0.997489	0.262734	0.608501
C43	C	0.997499	0.262742	0.712610
C44	C	1.118034	0.089559	0.712597
C45	C	1.118025	0.089553	0.608496
C46	C	1.057750	0.176145	0.556451
H47	H	0.786271	0.182318	0.163570
F48	F	1.182144	-0.002611	0.446905
F49	F	0.605325	0.177436	0.186112
H50	H	0.329183	0.169978	0.163577
F51	F	0.966520	-0.398363	0.171657
H52	H	0.617011	0.177736	-0.163554
F53	F	0.880480	-0.199799	0.000106
F54	F	1.182164	-0.002599	0.553092
H55	H	0.498471	0.174549	0.163576
H56	H	1.137612	-0.258972	0.150642
F57	F	1.235118	-0.447588	0.000118
H58	H	0.948404	0.333243	0.566131
H59	H	1.137652	-0.258703	-0.150445
H60	H	0.977810	-0.388873	-0.150451
F61	F	1.182137	-0.002613	0.232019
F62	F	0.317543	0.169675	-0.186094
F63	F	0.797973	0.182620	-0.186103
H64	H	0.498498	0.174552	-0.163562
H65	H	1.167111	0.019053	0.754977
F66	F	0.933360	0.354904	0.768006
F67	F	0.933325	0.354879	0.446925
H68	H	0.948376	0.333225	0.245047
