data_functionalizedCrystal
_audit_creation_method	'MofGen! by Chris Wilmer'
_symmetry_space_group_name_H-M	'P1'
_symmetry_Int_Tables_number	1
_symmetry_cell_setting	triclinic
loop_
_symmetry_equiv_pos_as_xyz
  x,y,z
_cell_length_a	16.625548
_cell_length_b	21.395361
_cell_length_c	21.395356
_cell_angle_alpha	90.030681
_cell_angle_beta	89.976434
_cell_angle_gamma	89.968224
loop_
_atom_site_label
_atom_site_type_symbol
_atom_site_fract_x
_atom_site_fract_y
_atom_site_fract_z
Zn1	Zn	1.232658	0.249437	-0.354248
Zn2	Zn	1.232535	0.354213	-0.249465
Zn3	Zn	1.097813	0.249455	-0.249485
Zn4	Zn	1.097771	0.354182	-0.354205
O5	O	1.165194	0.301822	-0.301851
O6	O	1.345474	0.263340	-0.340358
O7	O	1.214630	0.340338	-0.161790
O8	O	1.115770	0.161775	-0.263408
O9	O	1.345384	0.340319	-0.263374
O10	O	1.214840	0.161761	-0.340377
O11	O	1.115650	0.263373	-0.161804
O12	O	0.984975	0.263343	-0.263366
O13	O	1.115698	0.340267	-0.441889
O14	O	0.984944	0.340285	-0.340304
O15	O	1.214799	0.263310	-0.441920
O16	O	1.214589	0.441887	-0.263333
O17	O	1.115579	0.441864	-0.340285
C18	C	0.955703	0.301813	-0.301833
C19	C	0.866082	0.301824	-0.301841
C20	C	1.165258	0.301783	-0.465274
C21	C	1.165285	0.301766	-0.534915
C22	C	1.165088	0.464609	-0.301816
C23	C	1.165116	0.534251	-0.301822
C24	C	0.537907	0.301828	-0.301867
C25	C	0.629215	0.301825	-0.301858
C26	C	0.701992	0.301827	-0.301853
C27	C	0.793306	0.301823	-0.301845
C28	C	1.375503	0.301831	-0.301869
C29	C	1.465124	0.301835	-0.301876
C30	C	1.165323	0.138399	-0.301899
C31	C	1.165378	0.068757	-0.301920
C32	C	1.216716	0.566955	-0.261794
C33	C	1.216754	0.632390	-0.261808
C34	C	1.165177	0.665119	-0.301843
C35	C	1.113573	0.632407	-0.341879
C36	C	1.113542	0.566973	-0.341868
C37	C	1.092577	0.768834	-0.306753
C38	C	1.092606	0.834267	-0.306760
C39	C	1.165271	0.866940	-0.301880
C40	C	1.237909	0.834171	-0.296981
C41	C	1.237878	0.768737	-0.296970
C42	C	1.165204	0.736071	-0.301860
C43	C	1.216916	0.970596	-0.261865
C44	C	1.216955	1.036033	-0.261884
C45	C	1.113766	1.036048	-0.341952
C46	C	1.113735	0.970613	-0.341936
C47	C	1.165308	0.937891	-0.301890
C48	C	1.113760	0.261686	-0.567626
C49	C	1.113757	0.261675	-0.633062
C50	C	1.165294	0.301737	-0.665784
C51	C	1.216822	0.341825	-0.633065
C52	C	1.216818	0.341840	-0.567631
C53	C	1.237941	0.306662	-0.769470
C54	C	1.237947	0.306642	-0.834903
C55	C	1.165307	0.301694	-0.867605
C56	C	1.092658	0.296753	-0.834865
C57	C	1.092654	0.296767	-0.769431
C58	C	1.165304	0.301725	-0.736736
C59	C	1.113775	0.261599	-0.971268
C60	C	1.113771	0.261592	-1.036705
C61	C	1.216843	0.341739	-1.036707
C62	C	1.216840	0.341749	-0.971271
C63	C	1.165307	0.301676	-0.938556
C64	C	1.165177	0.301815	-0.139063
C65	C	1.165307	0.301655	-0.069422
H66	H	1.258776	0.659023	-0.229213
H67	H	1.033399	0.742239	-0.310729
H68	H	1.297099	0.310685	-0.742849
C69	C	1.012711	0.870310	-0.312153
H70	H	1.023134	0.913959	-0.311455
H71	H	0.986908	0.859577	-0.350280
H72	H	0.978804	0.859635	-0.278044
C73	C	1.057087	0.217528	-0.935275
H74	H	1.064472	0.223271	-0.891620
H75	H	1.002905	0.226692	-0.945978
H76	H	1.068926	0.175427	-0.946018
C77	C	1.057085	0.217581	-0.669054
H78	H	1.064467	0.223314	-0.712710
H79	H	1.068924	0.175488	-0.658346
H80	H	1.002895	0.226748	-0.658317
C81	C	1.057072	0.217611	-0.531643
H82	H	1.026381	0.193741	-0.560500
H83	H	1.087936	0.190320	-0.506133
H84	H	1.021913	0.241584	-0.506101
C85	C	1.012747	0.291343	-0.733420
H86	H	0.969482	0.288399	-0.762263
H87	H	1.013818	0.255032	-0.707902
H88	H	1.005638	0.327263	-0.707885
H89	H	1.258779	0.374477	-0.540998
H90	H	1.071775	1.062696	-0.374552
H91	H	1.258799	0.374386	-0.944638
H92	H	1.071713	0.943984	-0.374528
H93	H	1.297080	0.860771	-0.293008
H94	H	1.071579	0.659059	-0.374477
C95	C	1.056775	0.530997	-0.385898
H96	H	1.026059	0.559858	-0.409743
H97	H	1.087587	0.505427	-0.413213
H98	H	1.021643	0.505516	-0.361895
H99	H	1.071807	0.228956	-1.063337
C100	C	1.273531	0.385810	-1.072690
H101	H	1.304215	0.409685	-1.043834
H102	H	1.308683	0.361842	-1.098236
H103	H	1.242659	0.413105	-1.098196
H104	H	1.297102	0.310663	-0.861554
H105	H	1.033508	0.292719	-0.861490
C106	C	1.273516	0.385890	-0.669054
H107	H	1.304200	0.409766	-0.640198
H108	H	1.308669	0.361917	-0.694595
H109	H	1.242650	0.413184	-0.694564
C110	C	1.273427	0.530961	-0.217733
H111	H	1.266010	0.487306	-0.223449
H112	H	1.327608	0.541632	-0.226924
H113	H	1.261630	0.541732	-0.175633
C114	C	1.317774	0.732693	-0.291591
H115	H	1.361058	0.761519	-0.288691
H116	H	1.316741	0.707191	-0.255270
H117	H	1.324818	0.707141	-0.327507
H118	H	1.258913	0.943953	-0.229259
H119	H	1.258979	1.062660	-0.229289
