data_functionalizedCrystal
_audit_creation_method	'MofGen! by Chris Wilmer'
_symmetry_space_group_name_H-M	'P1'
_symmetry_Int_Tables_number	1
_symmetry_cell_setting	triclinic
loop_
_symmetry_equiv_pos_as_xyz
  x,y,z
_cell_length_a	14.519709
_cell_length_b	13.101039
_cell_length_c	14.519709
_cell_angle_alpha	86.632446
_cell_angle_beta	83.680145
_cell_angle_gamma	93.358259
loop_
_atom_site_label
_atom_site_type_symbol
_atom_site_fract_x
_atom_site_fract_y
_atom_site_fract_z
O1	O	1.228925	0.085083	0.115817
O2	O	1.728925	0.585083	0.615817
O3	O	0.960450	0.085114	0.130052
O4	O	1.460450	0.585114	0.630052
O5	O	1.101805	0.085088	-0.011303
O6	O	1.601805	0.585088	0.488697
O7	O	1.087569	0.085109	0.257173
O8	O	1.587569	0.585109	0.757173
O9	O	1.091663	-0.085340	-0.001144
O10	O	1.591663	0.414660	0.498856
O11	O	0.950308	-0.085314	0.140211
O12	O	1.450308	0.414686	0.640211
O13	O	1.218783	-0.085345	0.125976
O14	O	1.718783	0.414655	0.625976
Zn15	Zn	1.082935	-0.112389	0.134707
Zn16	Zn	1.582935	0.387611	0.634707
Zn17	Zn	1.096297	0.112158	0.121322
Zn18	Zn	1.596297	0.612158	0.621322
O19	O	1.077427	-0.085319	0.267331
O20	O	1.577427	0.414681	0.767331
C21	C	0.921019	-0.000096	0.134468
C22	C	1.421019	0.499904	0.634468
C23	C	0.818638	-0.000084	0.132479
C24	C	1.318638	0.499916	0.632479
N25	N	1.073822	-0.265635	0.143841
N26	N	1.573822	0.234365	0.643841
C27	C	0.443740	-0.000131	0.125162
C28	C	0.943740	0.499869	0.625162
C29	C	0.548049	-0.000118	0.127194
C30	C	1.048049	0.499882	0.627194
C31	C	0.631186	-0.000107	0.128820
C32	C	1.131186	0.499893	0.628820
C33	C	0.735501	-0.000095	0.130853
C34	C	1.235501	0.499905	0.630853
C35	C	1.061423	-0.474676	0.156277
C36	C	1.561423	0.025324	0.656277
C37	C	1.117813	-0.525562	0.099747
C38	C	1.617813	-0.025562	0.599747
C39	C	1.110914	-0.641879	0.106667
C40	C	1.610914	-0.141879	0.606667
C41	C	1.068321	-0.358348	0.149358
C42	C	1.568321	0.141652	0.649358
C43	C	1.258213	-0.000133	0.121560
C44	C	1.758213	0.499867	0.621560
C45	C	1.360594	-0.000138	0.123549
C46	C	1.860594	0.499862	0.623549
C47	C	1.096070	-0.000126	-0.040583
C48	C	1.596070	0.499874	0.459417
C49	C	1.094082	-0.000126	-0.142965
C50	C	1.594082	0.499874	0.357035
N51	N	1.105418	0.265405	0.112180
N52	N	1.605418	0.765405	0.612180
C53	C	1.086764	-0.000098	-0.517862
C54	C	1.586764	0.499902	-0.017862
C55	C	1.088796	-0.000106	-0.413554
C56	C	1.588796	0.499894	0.086446
C57	C	1.090423	-0.000113	-0.330417
C58	C	1.590423	0.499887	0.169583
C59	C	1.092456	-0.000119	-0.226102
C60	C	1.592456	0.499881	0.273898
C61	C	1.083162	-0.000103	0.296612
C62	C	1.583162	0.499897	0.796612
C63	C	1.085151	-0.000096	0.398992
C64	C	1.585151	0.499904	0.898992
H65	H	1.171271	-0.481769	0.046155
H66	H	1.671271	0.018231	0.546155
H67	H	1.007970	-0.518463	0.209866
H68	H	1.507970	-0.018463	0.709866
