data_functionalizedCrystal
_audit_creation_method	'MofGen! by Chris Wilmer'
_symmetry_space_group_name_H-M	'P1'
_symmetry_Int_Tables_number	1
_symmetry_cell_setting	triclinic
loop_
_symmetry_equiv_pos_as_xyz
  x,y,z
_cell_length_a	16.625548
_cell_length_b	18.050590
_cell_length_c	18.050591
_cell_angle_alpha	90.018837
_cell_angle_beta	90.008826
_cell_angle_gamma	90.019620
loop_
_atom_site_label
_atom_site_type_symbol
_atom_site_fract_x
_atom_site_fract_y
_atom_site_fract_z
Zn1	Zn	1.232609	-0.295718	0.419908
Zn2	Zn	1.482609	-0.045718	0.669908
Zn3	Zn	1.732609	0.204282	0.919908
Zn4	Zn	1.982609	0.454282	1.169908
Zn5	Zn	1.232549	-0.419892	0.295716
Zn6	Zn	1.482549	-0.169892	0.545716
Zn7	Zn	1.732549	0.080108	0.795716
Zn8	Zn	1.982549	0.330108	1.045716
Zn9	Zn	1.097798	-0.295723	0.295732
Zn10	Zn	1.347798	-0.045723	0.545732
Zn11	Zn	1.597798	0.204277	0.795732
Zn12	Zn	1.847798	0.454277	1.045732
Zn13	Zn	1.097750	-0.419873	0.419865
Zn14	Zn	1.347750	-0.169873	0.669865
Zn15	Zn	1.597750	0.080127	0.919865
Zn16	Zn	1.847750	0.330127	1.169865
O17	O	1.165177	-0.357802	0.357805
O18	O	1.415177	-0.107802	0.607805
O19	O	1.665177	0.142198	0.857805
O20	O	1.915177	0.392198	1.107805
O21	O	1.345433	-0.312196	0.403445
O22	O	1.595433	-0.062196	0.653445
O23	O	1.845433	0.187804	0.903445
O24	O	2.095433	0.437804	1.153445
O25	O	1.214669	-0.403430	0.191794
O26	O	1.464669	-0.153430	0.441794
O27	O	1.714669	0.096570	0.691794
O28	O	1.964669	0.346570	0.941794
O29	O	1.115726	-0.191797	0.312229
O30	O	1.365726	0.058203	0.562229
O31	O	1.615726	0.308203	0.812229
O32	O	1.865726	0.558203	1.062229
O33	O	1.345389	-0.403426	0.312202
O34	O	1.595389	-0.153426	0.562202
O35	O	1.845389	0.096574	0.812202
O36	O	2.095389	0.346574	1.062202
O37	O	1.214771	-0.191794	0.403460
O38	O	1.464771	0.058206	0.653460
O39	O	1.714771	0.308206	0.903460
O40	O	1.964771	0.558206	1.153460
O41	O	1.115668	-0.312203	0.191805
O42	O	1.365668	-0.062203	0.441805
O43	O	1.615668	0.187797	0.691805
O44	O	1.865668	0.437797	0.941805
O45	O	0.984960	-0.312185	0.312187
O46	O	1.234960	-0.062185	0.562187
O47	O	1.484960	0.187815	0.812187
O48	O	1.734960	0.437815	1.062187
O49	O	1.115645	-0.403394	0.523795
O50	O	1.365645	-0.153394	0.773795
O51	O	1.615645	0.096606	1.023795
O52	O	1.865645	0.346606	1.273795
O53	O	0.984924	-0.403399	0.403387
O54	O	1.234924	-0.153399	0.653387
O55	O	1.484924	0.096601	0.903387
O56	O	1.734924	0.346601	1.153387
O57	O	1.214725	-0.312178	0.523827
O58	O	1.464725	-0.062178	0.773827
O59	O	1.714725	0.187822	1.023827
O60	O	1.964725	0.437822	1.273827
O61	O	1.214623	-0.523814	0.312160
O62	O	1.464623	-0.273814	0.562160
O63	O	1.714623	-0.023814	0.812160
O64	O	1.964623	0.226186	1.062160
O65	O	1.115587	-0.523800	0.403371
O66	O	1.365587	-0.273800	0.653371
O67	O	1.615587	-0.023800	0.903371
O68	O	1.865587	0.226200	1.153371
C69	C	0.955686	-0.357791	0.357784
C70	C	1.205686	-0.107791	0.607784
C71	C	1.455686	0.142209	0.857784
C72	C	1.705686	0.392209	1.107784
C73	C	0.866065	-0.357804	0.357793
C74	C	1.116065	-0.107804	0.607793
C75	C	1.366065	0.142196	0.857793
C76	C	1.616065	0.392196	1.107793
C77	C	0.537889	-0.357809	0.357825
C78	C	0.787889	-0.107809	0.607825
C79	C	1.037889	0.142191	0.857825
C80	C	1.287889	0.392191	1.107825
C81	C	0.629198	-0.357806	0.357814
C82	C	0.879198	-0.107806	0.607814
C83	C	1.129198	0.142194	0.857814
C84	C	1.379198	0.392194	1.107814
C85	C	0.701974	-0.357807	0.357808
C86	C	0.951974	-0.107807	0.607808
C87	C	1.201974	0.142193	0.857808
C88	C	1.451974	0.392193	1.107808
C89	C	0.793288	-0.357803	0.357798
C90	C	1.043288	-0.107803	0.607798
C91	C	1.293288	0.142197	0.857798
C92	C	1.543288	0.392197	1.107798
C93	C	1.165115	-0.550754	0.357776
C94	C	1.415115	-0.300754	0.607776
C95	C	1.665115	-0.050754	0.857776
C96	C	1.915115	0.199246	1.107776
C97	C	1.165162	-0.633300	0.357788
C98	C	1.415162	-0.383300	0.607788
C99	C	1.665162	-0.133300	0.857788
C100	C	1.915162	0.116700	1.107788
C101	C	1.219130	-0.832731	0.308256
C102	C	1.469130	-0.582731	0.558256
C103	C	1.719130	-0.332731	0.808256
C104	C	1.969130	-0.082731	1.058256
C105	C	1.238812	-0.882074	0.376036
C106	C	1.488812	-0.632074	0.626036
C107	C	1.738812	-0.382074	0.876036
C108	C	1.988812	-0.132074	1.126036
C109	C	1.165208	-0.784430	0.357817
C110	C	1.415208	-0.534430	0.607817
C111	C	1.665208	-0.284430	0.857817
C112	C	1.915208	-0.034430	1.107817
C113	C	1.145608	-0.882168	0.290068
C114	C	1.395608	-0.632168	0.540068
C115	C	1.645608	-0.382168	0.790068
C116	C	1.895608	-0.132168	1.040068
C117	C	1.165253	-0.930415	0.357840
C118	C	1.415253	-0.680415	0.607840
C119	C	1.665253	-0.430415	0.857840
C120	C	1.915253	-0.180415	1.107840
C121	C	1.184928	-0.832686	0.425633
C122	C	1.434928	-0.582686	0.675633
C123	C	1.684928	-0.332686	0.925633
C124	C	1.934928	-0.082686	1.175633
C125	C	1.091689	-0.832776	0.339619
C126	C	1.341689	-0.582776	0.589619
C127	C	1.591689	-0.332776	0.839619
C128	C	1.841689	-0.082776	1.089619
C129	C	1.111343	-0.882097	0.407446
C130	C	1.361343	-0.632097	0.657446
C131	C	1.611343	-0.382097	0.907446
C132	C	1.861343	-0.132097	1.157446
C133	C	1.165183	-0.700332	0.357803
C134	C	1.415183	-0.450332	0.607803
C135	C	1.665183	-0.200332	0.857803
C136	C	1.915183	0.049668	1.107803
C137	C	1.165278	-1.014511	0.357862
C138	C	1.415278	-0.764511	0.607862
C139	C	1.665278	-0.514511	0.857862
C140	C	1.915278	-0.264511	1.107862
C141	C	1.375486	-0.357813	0.357826
C142	C	1.625486	-0.107813	0.607826
C143	C	1.875486	0.142187	0.857826
C144	C	2.125486	0.392187	1.107826
C145	C	1.465107	-0.357818	0.357836
C146	C	1.715107	-0.107818	0.607836
C147	C	1.965107	0.142182	0.857836
C148	C	2.215107	0.392182	1.107836
C149	C	1.165186	-0.357784	0.551511
C150	C	1.415186	-0.107784	0.801511
C151	C	1.665186	0.142216	1.051511
C152	C	1.915186	0.392216	1.301511
C153	C	1.165190	-0.357776	0.634057
C154	C	1.415190	-0.107776	0.884057
C155	C	1.665190	0.142224	1.134057
C156	C	1.915190	0.392224	1.384057
C157	C	1.165261	-0.164096	0.357851
C158	C	1.415261	0.085904	0.607851
C159	C	1.665261	0.335904	0.857851
C160	C	1.915261	0.585904	1.107851
C161	C	1.165297	-0.081550	0.357871
C162	C	1.415297	0.168450	0.607871
C163	C	1.665297	0.418450	0.857871
C164	C	1.915297	0.668450	1.107871
C165	C	1.219076	-0.308185	0.882899
C166	C	1.469076	-0.058185	1.132899
C167	C	1.719076	0.191815	1.382899
C168	C	1.969076	0.441815	1.632899
C169	C	1.238772	-0.375936	0.833484
C170	C	1.488772	-0.125936	1.083484
C171	C	1.738772	0.124064	1.333484
C172	C	1.988772	0.374064	1.583484
C173	C	1.165189	-0.357804	0.931177
C174	C	1.415189	-0.107804	1.181177
C175	C	1.665189	0.142196	1.431177
C176	C	1.915189	0.392196	1.681177
C177	C	1.145531	-0.290044	0.833510
C178	C	1.395531	-0.040044	1.083510
C179	C	1.645531	0.209956	1.333510
C180	C	1.895531	0.459956	1.583510
C181	C	1.165192	-0.357787	0.785192
C182	C	1.415192	-0.107787	1.035192
C183	C	1.665192	0.142213	1.285192
C184	C	1.915192	0.392213	1.535192
C185	C	1.184924	-0.425590	0.882849
C186	C	1.434924	-0.175590	1.132849
C187	C	1.684924	0.074410	1.382849
C188	C	1.934924	0.324410	1.632849
C189	C	1.091649	-0.339652	0.882879
C190	C	1.341649	-0.089652	1.132879
C191	C	1.591649	0.160348	1.382879
C192	C	1.841649	0.410348	1.632879
C193	C	1.111317	-0.407449	0.833487
C194	C	1.361317	-0.157449	1.083487
C195	C	1.611317	0.092551	1.333487
C196	C	1.861317	0.342551	1.583487
C197	C	1.165190	-0.357813	1.015275
C198	C	1.415190	-0.107813	1.265275
C199	C	1.665190	0.142187	1.515275
C200	C	1.915190	0.392187	1.765275
C201	C	1.165191	-0.357786	0.701095
C202	C	1.415191	-0.107786	0.951095
C203	C	1.665191	0.142214	1.201095
C204	C	1.915191	0.392214	1.451095
C205	C	1.165169	-0.357829	1.164853
C206	C	1.415169	-0.107829	1.414853
C207	C	1.665169	0.142171	1.664853
C208	C	1.915169	0.392171	1.914853
C209	C	1.165188	-0.357815	1.082307
C210	C	1.415188	-0.107815	1.332307
C211	C	1.665188	0.142185	1.582307
C212	C	1.915188	0.392185	1.832307
H213	H	1.301005	-0.903731	0.391443
H214	H	1.551005	-0.653731	0.641443
H215	H	1.801005	-0.403731	0.891443
H216	H	2.051005	-0.153731	1.141443
H217	H	1.201641	-0.482899	0.904432
H218	H	1.451641	-0.232899	1.154432
H219	H	1.701641	0.017101	1.404432
H220	H	1.951641	0.267101	1.654432
N221	N	1.050973	-0.910629	0.463044
N222	N	1.300973	-0.660629	0.713044
N223	N	1.550973	-0.410629	0.963044
N224	N	1.800973	-0.160629	1.213044
H225	H	1.050984	-0.966579	0.462451
H226	H	1.300984	-0.716579	0.712451
H227	H	1.550984	-0.466579	0.962451
H228	H	1.800984	-0.216579	1.212451
H229	H	0.995616	-0.891846	0.449719
H230	H	1.245616	-0.641846	0.699719
H231	H	1.495616	-0.391846	0.949719
H232	H	1.745616	-0.141846	1.199719
N233	N	1.123506	-0.214150	0.804799
N234	N	1.373506	0.035850	1.054799
N235	N	1.623506	0.285850	1.304799
N236	N	1.873506	0.535850	1.554799
H237	H	1.114016	-0.179578	0.847925
H238	H	1.364016	0.070422	1.097925
H239	H	1.614016	0.320422	1.347925
H240	H	1.864016	0.570422	1.597925
H241	H	1.072941	-0.217745	0.773989
H242	H	1.322941	0.032255	1.023989
H243	H	1.572941	0.282255	1.273989
H244	H	1.822941	0.532255	1.523989
N245	N	1.123619	-0.910945	0.214159
N246	N	1.373619	-0.660945	0.464159
N247	N	1.623619	-0.410945	0.714159
N248	N	1.873619	-0.160945	0.964159
H249	H	1.068468	-0.892237	0.200021
H250	H	1.318468	-0.642237	0.450021
H251	H	1.568468	-0.392237	0.700021
H252	H	1.818468	-0.142237	0.950021
H253	H	1.123333	-0.966891	0.214889
H254	H	1.373333	-0.716891	0.464889
H255	H	1.623333	-0.466891	0.714889
H256	H	1.873333	-0.216891	0.964889
N257	N	1.279551	-0.804010	0.252801
N258	N	1.529551	-0.554010	0.502801
N259	N	1.779551	-0.304010	0.752801
N260	N	2.029551	-0.054010	1.002801
H261	H	1.278744	-0.748062	0.252852
H262	H	1.528744	-0.498062	0.502852
H263	H	1.778744	-0.248062	0.752852
H264	H	2.028744	0.001938	1.002852
H265	H	1.265267	-0.822833	0.201770
H266	H	1.515267	-0.572833	0.451770
H267	H	1.765267	-0.322833	0.701770
H268	H	2.015267	-0.072833	0.951770
N269	N	1.009331	-0.804063	0.319190
N270	N	1.259331	-0.554063	0.569190
N271	N	1.509331	-0.304063	0.819190
N272	N	1.759331	-0.054063	1.069190
H273	H	0.994555	-0.822031	0.267967
H274	H	1.244555	-0.572031	0.517967
H275	H	1.494555	-0.322031	0.767967
H276	H	1.744555	-0.072031	1.017967
H277	H	1.009860	-0.748117	0.319856
H278	H	1.259860	-0.498117	0.569856
H279	H	1.509860	-0.248117	0.819856
H280	H	1.759860	0.001883	1.069856
N281	N	1.207006	-0.804027	0.501564
N282	N	1.457006	-0.554027	0.751564
N283	N	1.707006	-0.304027	1.001564
N284	N	1.957006	-0.054027	1.251564
H285	H	1.206875	-0.748076	0.501081
H286	H	1.456875	-0.498076	0.751081
H287	H	1.706875	-0.248076	1.001081
H288	H	1.956875	0.001924	1.251081
H289	H	1.262362	-0.822449	0.515386
H290	H	1.512362	-0.572449	0.765386
H291	H	1.762362	-0.322449	1.015386
H292	H	2.012362	-0.072449	1.265386
H293	H	1.065748	-0.449451	0.811928
H294	H	1.315748	-0.199451	1.061928
H295	H	1.565748	0.050549	1.311928
H296	H	1.815748	0.300549	1.561928
N297	N	1.279477	-0.252686	0.911651
N298	N	1.529477	-0.002686	1.161651
N299	N	1.779477	0.247314	1.411651
N300	N	2.029477	0.497314	1.661651
H301	H	1.335016	-0.266493	0.893685
H302	H	1.585016	-0.016493	1.143685
H303	H	1.835016	0.233507	1.393685
H304	H	2.085016	0.483507	1.643685
H305	H	1.278612	-0.252781	0.967596
H306	H	1.528612	-0.002781	1.217596
H307	H	1.778612	0.247219	1.467596
H308	H	2.028612	0.497219	1.717596
N309	N	1.321148	-0.396272	0.804736
N310	N	1.571148	-0.146272	1.054736
N311	N	1.821148	0.103728	1.304736
N312	N	2.071148	0.353728	1.554736
H313	H	1.361816	-0.358768	0.822704
H314	H	1.611816	-0.108768	1.072704
H315	H	1.861816	0.141232	1.322704
H316	H	2.111816	0.391232	1.572704
H317	H	1.320326	-0.396597	0.748790
H318	H	1.570326	-0.146597	0.998790
H319	H	1.820326	0.103403	1.248790
H320	H	2.070326	0.353403	1.498790
N321	N	1.009289	-0.319299	0.911644
N322	N	1.259289	-0.069299	1.161644
N323	N	1.509289	0.180701	1.411644
N324	N	1.759289	0.430701	1.661644
H325	H	0.994486	-0.268084	0.893729
H326	H	1.244486	-0.018084	1.143729
H327	H	1.494486	0.231916	1.393729
H328	H	1.744486	0.481916	1.643729
H329	H	1.009832	-0.319980	0.967589
H330	H	1.259832	-0.069980	1.217589
H331	H	1.509832	0.180020	1.467589
H332	H	1.759832	0.430020	1.717589
