data_functionalizedCrystal
_audit_creation_method	'MofGen! by Chris Wilmer'
_symmetry_space_group_name_H-M	'P1'
_symmetry_Int_Tables_number	1
_symmetry_cell_setting	triclinic
loop_
_symmetry_equiv_pos_as_xyz
  x,y,z
_cell_length_a	27.440280
_cell_length_b	27.440280
_cell_length_c	27.440280
_cell_angle_alpha	90.008670
_cell_angle_beta	59.992170
_cell_angle_gamma	59.999099
loop_
_atom_site_label
_atom_site_type_symbol
_atom_site_fract_x
_atom_site_fract_y
_atom_site_fract_z
Zr1	Zr	0.533431	0.469473	-0.063983
O2	O	0.635127	0.391639	-0.141827
O3	O	0.431747	0.493335	-0.040108
O4	O	0.533436	0.493318	-0.141798
O5	O	0.533430	0.391668	0.040065
O6	O	0.533427	0.573521	-0.141788
O7	O	0.533438	0.391657	-0.040137
O8	O	0.351524	0.573552	0.040117
O9	O	0.715333	0.391636	-0.141840
O10	O	0.473560	0.563364	-0.029932
O11	O	0.473561	0.503517	0.029914
O12	O	0.593287	0.503497	-0.089813
O13	O	0.593288	0.443650	-0.029966
Zr14	Zr	0.533403	0.597404	0.063946
Zr15	Zr	0.533416	0.597387	-0.063967
Zr16	Zr	0.533418	0.469490	0.063930
Zr17	Zr	0.661351	0.469468	-0.064003
Zr18	Zr	0.405484	0.597409	0.063967
O19	O	0.635087	0.573541	0.040072
O20	O	0.635106	0.573517	-0.141804
O21	O	0.635109	0.391664	0.040049
O22	O	0.431708	0.675237	0.141791
O23	O	0.431726	0.675213	-0.040085
O24	O	0.431729	0.493360	0.141768
O25	O	0.533405	0.675209	-0.040102
O26	O	0.533398	0.573559	0.141762
O27	O	0.533408	0.493356	0.141752
O28	O	0.533397	0.675220	0.040100
O29	O	0.715321	0.493311	-0.141827
O30	O	0.351514	0.573566	0.141791
O31	O	0.351502	0.675240	0.141803
O32	O	0.351512	0.675227	0.040130
O33	O	0.715323	0.391650	-0.040166
O34	O	0.715311	0.493325	-0.040153
O35	O	0.473548	0.563380	0.089776
O36	O	0.473547	0.623226	0.029929
O37	O	0.593274	0.563359	-0.029951
O38	O	0.593275	0.503513	0.029895
C39	C	0.373410	0.533444	0.000007
C40	C	0.319105	0.533446	0.000016
C41	C	0.026616	0.489245	-0.044232
C42	C	-0.024401	0.489245	-0.044238
O43	O	-0.013200	0.451674	-0.081840
N44	N	-0.094115	0.533436	-0.000042
C45	C	-0.112812	0.577634	0.044161
O46	O	-0.176793	0.615223	0.081752
C47	C	-0.061795	0.577637	0.044164
C48	C	0.007919	0.533439	-0.000032
C49	C	0.096326	0.445052	-0.088425
C50	C	0.147340	0.445052	-0.088418
C51	C	0.128643	0.489245	-0.044218
C52	C	0.058932	0.533439	-0.000025
C53	C	-0.080492	0.621837	0.088363
C54	C	-0.029468	0.621835	0.088362
C55	C	0.040246	0.577638	0.044166
C56	C	0.091249	0.577632	0.044182
N57	N	0.160962	0.533441	-0.000015
C58	C	0.179659	0.489248	-0.044215
C59	C	-0.219947	0.577627	0.044150
C60	C	-0.270963	0.577622	0.044149
C61	C	-0.182549	0.489234	-0.044250
C62	C	-0.131532	0.489236	-0.044247
C63	C	-0.150233	0.533435	-0.000047
C64	C	0.286788	0.489250	-0.044196
C65	C	0.337802	0.489253	-0.044184
C66	C	0.249383	0.577643	0.044214
C67	C	0.198374	0.577639	0.044203
C68	C	0.217081	0.533440	-0.000007
O69	O	0.080100	0.615186	0.081762
O70	O	0.243641	0.451670	-0.081805
C71	C	0.533436	0.373437	-0.000038
C72	C	0.533443	0.319134	-0.000045
C73	C	0.470910	0.013687	0.031255
C74	C	0.470906	-0.037332	0.031260
O75	O	0.417756	-0.037143	0.057862
N76	N	0.533402	-0.094099	0.000003
C77	C	0.595905	-0.099846	-0.031257
O78	O	0.649062	-0.152815	-0.057843
C79	C	0.595908	-0.048828	-0.031259
C80	C	0.533408	0.007938	-0.000004
C81	C	0.408415	0.070450	0.062508
C82	C	0.408420	0.121465	0.062502
C83	C	0.470918	0.115716	0.031242
C84	C	0.533412	0.058953	-0.000010
C85	C	0.658411	-0.054576	-0.062515
C86	C	0.658408	-0.003552	-0.062513
C87	C	0.595909	0.053214	-0.031258
C88	C	0.595915	0.104219	-0.031276
N89	N	0.533420	0.160985	-0.000018
C90	C	0.470921	0.166734	0.031241
C91	C	0.595894	-0.206985	-0.031251
C92	C	0.595891	-0.258002	-0.031253
C93	C	0.470892	-0.195484	0.031265
C94	C	0.470895	-0.144466	0.031264
C95	C	0.533398	-0.150218	0.000007
C96	C	0.470934	0.273867	0.031225
C97	C	0.470944	0.324883	0.031214
C98	C	0.595943	0.262361	-0.031302
C99	C	0.595933	0.211349	-0.031294
C100	C	0.533424	0.217105	-0.000026
O101	O	0.649038	0.104076	-0.057861
O102	O	0.417773	0.219705	0.057829
C103	C	0.693425	0.533432	-0.000044
C104	C	0.747730	0.533430	-0.000053
C105	C	0.533434	0.533417	-0.160018
C106	C	0.533439	0.533409	-0.214321
C107	C	0.533399	0.693440	0.000002
C108	C	0.533392	0.747742	0.000009
C109	C	0.533397	0.577639	-0.551012
C110	C	0.533392	0.577644	-0.602030
O111	O	0.533361	0.615235	-0.628400
N112	N	0.533398	0.533459	-0.627554
C113	C	0.533403	0.489270	-0.602053
O114	O	0.533407	0.451688	-0.628447
C115	C	0.533403	0.489268	-0.551033
C116	C	0.533403	0.533452	-0.525516
C117	C	0.533397	0.621820	-0.525495
C118	C	0.533403	0.621814	-0.474481
C119	C	0.533409	0.577627	-0.448985
C120	C	0.533410	0.533446	-0.474503
C121	C	0.533402	0.445081	-0.525531
C122	C	0.533402	0.445083	-0.474508
C123	C	0.533402	0.489267	-0.448991
C124	C	0.533422	0.489252	-0.397993
N125	N	0.533416	0.533437	-0.372470
C126	C	0.533409	0.577625	-0.397966
C127	C	0.533401	0.489279	-0.709196
C128	C	0.533406	0.489278	-0.760217
C129	C	0.533394	0.577653	-0.760191
C130	C	0.533394	0.577651	-0.709171
C131	C	0.533395	0.533464	-0.683673
C132	C	0.533423	0.577608	-0.290834
C133	C	0.533433	0.577597	-0.239817
C134	C	0.533441	0.489223	-0.239846
C135	C	0.533435	0.489233	-0.290860
C136	C	0.533424	0.533430	-0.316352
O137	O	0.533450	0.451683	-0.371589
O138	O	0.533396	0.615205	-0.371561
C139	C	0.533401	0.533460	0.159981
C140	C	0.533396	0.533467	0.214284
C141	C	0.373391	0.693446	0.000027
C142	C	0.319080	0.747751	0.000043
C143	C	0.373394	0.533466	0.160007
C144	C	0.319083	0.533475	0.214318
C145	C	0.373375	0.693467	0.160027
C146	C	0.319058	0.747779	0.214345
C147	C	0.693460	0.373410	-0.160064
C148	C	0.747777	0.319097	-0.214382
C149	C	0.693444	0.373431	-0.000064
C150	C	0.747755	0.319126	-0.000079
C151	C	0.693441	0.533411	-0.160044
C152	C	0.747752	0.533401	-0.214355
C153	C	0.293581	0.742005	-0.031202
C154	C	0.242557	0.793025	-0.031200
C155	C	0.217028	0.849791	0.000052
C156	C	0.242532	0.855535	0.031298
C157	C	0.293559	0.804515	0.031291
C158	C	0.293572	0.564727	0.271076
C159	C	0.242548	0.564734	0.322112
C160	C	0.217034	0.533492	0.316389
C161	C	0.242550	0.502236	0.259625
C162	C	0.293576	0.502226	0.208591
C163	C	0.293550	0.804530	0.208614
C164	C	0.242520	0.855567	0.259647
C165	C	0.216997	0.849852	0.316410
C166	C	0.242510	0.793096	0.322139
C167	C	0.293542	0.742060	0.271107
C168	C	0.773291	0.262347	-0.208651
C169	C	0.824337	0.211310	-0.259683
C170	C	0.849863	0.217024	-0.316446
C171	C	0.824346	0.273781	-0.322176
C172	C	0.773305	0.324816	-0.271144
C173	C	0.773259	0.324872	0.031160
C174	C	0.824297	0.273851	0.031144
C175	C	0.849828	0.217086	-0.000110
C176	C	0.824322	0.211342	-0.031353
C177	C	0.773288	0.262362	-0.031340
C178	C	0.773250	0.564650	-0.208613
C179	C	0.824274	0.564653	-0.259639
C180	C	0.849802	0.533403	-0.316407
C181	C	0.824299	0.502154	-0.322148
C182	C	0.773272	0.502155	-0.271122
H183	H	0.302030	0.453260	-0.080197
N184	N	0.214972	0.786935	0.383363
H185	H	0.253894	0.764397	0.388146
H186	H	0.178761	0.827900	0.414780
H187	H	0.221752	0.901775	0.254971
N188	N	0.745763	0.256175	-0.147432
H189	H	0.769680	0.212476	-0.151554
H190	H	0.754633	0.275990	-0.124898
H191	H	0.752517	0.476706	-0.275805
H192	H	0.394567	0.453258	-0.080173
N193	N	0.533421	0.625258	-0.212285
H194	H	0.575923	0.605978	-0.212377
H195	H	0.533385	0.653240	-0.236194
N196	N	0.904846	0.533398	-0.371438
H197	H	0.917154	0.508859	-0.408274
H198	H	0.887040	0.575732	-0.371393
N199	N	0.533417	0.441610	-0.681702
H200	H	0.490917	0.460886	-0.639275
H201	H	0.533449	0.413636	-0.705659
N202	N	0.222525	0.397389	-0.136101
H203	H	0.245678	0.374160	-0.116844
H204	H	0.226549	0.369445	-0.164082
N205	N	0.904904	0.161975	-0.371484
H206	H	0.917206	0.174201	-0.408316
H207	H	0.947207	0.137439	-0.371458
N208	N	0.116501	0.397385	-0.136105
H209	H	0.168406	0.369394	-0.164096
H210	H	0.097262	0.374209	-0.116791
H211	H	-0.074770	0.453243	-0.080232
N212	N	0.904868	0.162057	-0.000121
H213	H	0.947207	0.162034	-0.017906
H214	H	0.887040	0.162080	0.042213
H215	H	0.845033	0.590099	-0.254953
H216	H	0.357519	0.075141	0.087966
N217	N	0.851836	0.468450	-0.383377
H218	H	0.888031	0.473193	-0.414825
H219	H	0.872981	0.424754	-0.388116
H220	H	-0.167332	0.453251	-0.080242
H221	H	0.845136	0.278426	-0.368399
H222	H	0.221769	0.476799	0.254975
N223	N	0.321097	0.468484	0.147385
H224	H	0.282168	0.484859	0.142613
H225	H	0.357315	0.473203	0.115939
H226	H	-0.327724	0.613607	0.080144
H227	H	-0.235184	0.613618	0.080148
H228	H	0.314324	0.809194	0.162399
H229	H	0.175443	0.891414	0.357958
H230	H	0.533413	0.613598	-0.311582
N231	N	0.321049	0.680852	0.277293
H232	H	0.297131	0.684982	0.320997
H233	H	0.312166	0.658321	0.257490
H234	H	0.752532	0.371024	-0.275817
H235	H	-0.044704	0.657829	0.124356
H236	H	-0.137249	0.657828	0.124352
N237	N	0.851850	0.150100	-0.253496
H238	H	0.827926	0.154229	-0.209792
H239	H	0.842981	0.127562	-0.273308
H240	H	0.533416	0.453294	-0.780995
H241	H	0.752476	0.371088	0.056615
N242	N	0.663338	0.150118	-0.065000
H243	H	0.666128	0.127544	-0.096438
H244	H	0.702894	0.154266	-0.084768
N245	N	0.851800	0.280054	0.064844
H246	H	0.827874	0.323758	0.084649
H247	H	0.842923	0.260249	0.096253
N248	N	0.215049	0.786820	-0.064893
H249	H	0.178851	0.827751	-0.060153
H250	H	0.254028	0.764241	-0.108593
N251	N	0.533375	0.625313	-0.681636
H252	H	0.575872	0.606037	-0.681721
H253	H	0.533343	0.653293	-0.705547
N254	N	0.123180	0.625301	0.091877
H255	H	0.119080	0.653295	0.119880
H256	H	0.100092	0.648474	0.072556
N257	N	0.214995	0.916762	0.065003
H258	H	0.178799	0.948206	0.060264
H259	H	0.193850	0.921500	0.108701
N260	N	0.851850	0.150115	-0.065049
H261	H	0.888042	0.118671	-0.060308
H262	H	0.812874	0.145398	-0.048626
H263	H	0.234171	0.613623	0.080201
N264	N	0.321108	0.680785	-0.064912
H265	H	0.312222	0.658228	-0.036258
H266	H	0.297194	0.684948	-0.084702
N267	N	0.403528	0.386108	0.064924
H268	H	0.376201	0.390902	0.108639
H269	H	0.413063	0.417523	0.060133
N270	N	0.403515	0.280079	0.064949
H271	H	0.363931	0.323783	0.084743
H272	H	0.400792	0.260267	0.036265
N273	N	0.745782	0.256160	-0.065036
H274	H	0.769702	0.212457	-0.084833
H275	H	0.694557	0.275968	-0.036338
N276	N	0.533439	0.441573	-0.318382
H277	H	0.490933	0.460857	-0.318284
H278	H	0.575963	0.418366	-0.360797
N279	N	0.745716	0.598358	-0.147387
H280	H	0.784644	0.581975	-0.142613
H281	H	0.724527	0.642060	-0.142638
N282	N	0.341005	0.182684	0.096215
H283	H	0.313682	0.187471	0.139928
H284	H	0.350532	0.214104	0.091430
N285	N	0.403486	-0.083242	0.064972
H286	H	0.363897	-0.087349	0.084771
H287	H	0.400756	-0.060705	0.096386
H288	H	0.420002	-0.190811	0.056716
H289	H	0.646785	-0.304220	-0.056712
N290	N	0.161993	0.904817	0.000055
H291	H	0.149716	0.892558	-0.024482
H292	H	0.119678	0.929361	0.042394
N293	N	0.321082	0.598428	0.277257
H294	H	0.297174	0.618223	0.320960
H295	H	0.372309	0.569735	0.257434
H296	H	0.646794	-0.211676	-0.056707
H297	H	0.709304	-0.100790	-0.087965
H298	H	0.709307	-0.008242	-0.087959
N299	N	0.663345	0.256174	-0.065010
H300	H	0.690661	0.233641	-0.048623
H301	H	0.690624	0.233641	-0.108718
H302	H	0.221778	0.590188	0.368326
N303	N	0.321056	0.810716	0.064996
H304	H	0.297136	0.854420	0.084794
H305	H	0.312168	0.790919	0.096410
H306	H	0.175485	0.533504	0.357949
N307	N	0.533399	0.669472	-0.446960
H308	H	0.533392	0.697463	-0.470859
H309	H	0.490896	0.692650	-0.404532
H310	H	0.533449	0.453245	-0.219081
N311	N	0.533406	0.669475	-0.552997
H312	H	0.533411	0.697456	-0.529086
H313	H	0.575915	0.650138	-0.595422
H314	H	0.533401	0.409102	-0.546300
N315	N	0.533387	0.625314	-0.787695
H316	H	0.533384	0.618609	-0.823885
H317	H	0.490881	0.665862	-0.757513
H318	H	0.533400	0.409100	-0.453749
