data_functionalizedCrystal
_audit_creation_method	'MofGen! by Chris Wilmer'
_symmetry_space_group_name_H-M	'P1'
_symmetry_Int_Tables_number	1
_symmetry_cell_setting	triclinic
loop_
_symmetry_equiv_pos_as_xyz
  x,y,z
_cell_length_a	18.050589
_cell_length_b	14.908993
_cell_length_c	14.908662
_cell_angle_alpha	89.787996
_cell_angle_beta	93.273094
_cell_angle_gamma	93.329606
loop_
_atom_site_label
_atom_site_type_symbol
_atom_site_fract_x
_atom_site_fract_y
_atom_site_fract_z
Zn1	Zn	-0.249292	1.403900	-0.429207
Zn2	Zn	0.250708	1.903900	0.070793
Zn3	Zn	-0.366768	1.395107	-0.278864
Zn4	Zn	0.133232	1.895107	0.221136
Zn5	Zn	-0.250151	1.244866	-0.287529
Zn6	Zn	0.249849	1.744866	0.212471
Zn7	Zn	-0.381006	1.253485	-0.437837
Zn8	Zn	0.118994	1.753485	0.062163
O9	O	-0.311805	1.324339	-0.358359
O10	O	0.188195	1.824339	0.141641
O11	O	-0.258558	1.528558	-0.402026
O12	O	0.241442	2.028558	0.097974
O13	O	-0.345699	1.367890	-0.154190
O14	O	0.154301	1.867890	0.345810
O15	O	-0.146110	1.266035	-0.306337
O16	O	0.353890	1.766035	0.193663
O17	O	-0.344867	1.522099	-0.291569
O18	O	0.155133	2.022099	0.208431
O19	O	-0.145479	1.382876	-0.410428
O20	O	0.354521	1.882876	0.089572
O21	O	-0.260021	1.257509	-0.160556
O22	O	0.239979	1.757509	0.339444
O23	O	-0.273828	1.120184	-0.314706
O24	O	0.226172	1.620184	0.185294
O25	O	-0.369134	1.280725	-0.562516
O26	O	0.130866	1.780725	-0.062516
O27	O	-0.369966	1.126516	-0.425137
O28	O	0.130034	1.626516	0.074863
O29	O	-0.272364	1.391233	-0.556176
O30	O	0.227636	1.891233	-0.056176
O31	O	-0.472584	1.376248	-0.299938
O32	O	0.027416	1.876248	0.200062
O33	O	-0.483045	1.272199	-0.416735
O34	O	0.016955	1.772199	0.083265
C35	C	-0.323536	1.090725	-0.371798
C36	C	0.176464	1.590725	0.128202
C37	C	-0.328573	0.990785	-0.377569
C38	C	0.171427	1.490785	0.122431
C39	C	-0.237795	0.796351	-0.273582
C40	C	0.262205	1.296351	0.226418
C41	C	-0.242525	0.702448	-0.279001
C42	C	0.257475	1.202448	0.220999
C43	C	-0.342768	0.709075	-0.393821
C44	C	0.157232	1.209075	0.106179
C45	C	-0.338038	0.802978	-0.388402
C46	C	0.161962	1.302978	0.111598
C47	C	-0.285548	0.846612	-0.328281
C48	C	0.214452	1.346612	0.171719
C49	C	-0.280815	0.940517	-0.322867
C50	C	0.219185	1.440517	0.177133
C51	C	-0.381061	0.947142	-0.437683
C52	C	0.118939	1.447142	0.062317
C53	C	-0.385791	0.853239	-0.443102
C54	C	0.114209	1.353239	0.056898
C55	C	-0.504762	1.324230	-0.358351
C56	C	-0.004762	1.824230	0.141649
C57	C	-0.587307	1.324267	-0.358372
C58	C	-0.087307	1.824267	0.141628
C59	C	-0.792469	1.267743	-0.421862
C60	C	-0.292469	1.767743	0.078138
C61	C	-0.839341	1.241092	-0.341077
C62	C	-0.339341	1.741092	0.158923
C63	C	-0.738433	1.324356	-0.358379
C64	C	-0.238433	1.824356	0.141621
C65	C	-0.838640	1.351052	-0.439171
C66	C	-0.338640	1.851052	0.060829
C67	C	-0.884415	1.324441	-0.358393
C68	C	-0.384415	1.824441	0.141607
C69	C	-0.784218	1.297660	-0.277553
C70	C	-0.284218	1.797660	0.222447
C71	C	-0.783514	1.407660	-0.375700
C72	C	-0.283514	1.907660	0.124300
C73	C	-0.830360	1.381038	-0.294856
C74	C	-0.330360	1.881038	0.205144
C75	C	-0.654337	1.324305	-0.358372
C76	C	-0.154337	1.824305	0.141628
C77	C	-0.968509	1.324492	-0.358390
C78	C	-0.468509	1.824492	0.141610
C79	C	-0.118094	1.324475	-0.358386
C80	C	0.381906	1.824475	0.141614
C81	C	-0.035546	1.324533	-0.358398
C82	C	0.464454	1.824533	0.141602
C83	C	-0.322241	1.337921	-0.592883
C84	C	0.177759	1.837921	-0.092883
C85	C	-0.326689	1.343709	-0.692823
C86	C	0.173311	1.843709	-0.192823
C87	C	-0.300028	1.558866	-0.344868
C88	C	0.199972	2.058866	0.155132
C89	C	-0.295010	1.658807	-0.339119
C90	C	0.204990	2.158807	0.160881
C91	C	-0.377560	1.409325	-0.830373
C92	C	0.122440	1.909325	-0.330373
C93	C	-0.373385	1.403894	-0.736470
C94	C	0.126615	1.903894	-0.236470
C95	C	-0.284166	1.288950	-0.743086
C96	C	0.215834	1.788950	-0.243086
C97	C	-0.288341	1.294381	-0.836988
C98	C	0.211659	1.794381	-0.336988
C99	C	-0.335039	1.354572	-0.880629
C100	C	0.164961	1.854572	-0.380629
C101	C	-0.339210	1.360008	-0.974533
C102	C	0.160790	1.860008	-0.474533
C103	C	-0.249995	1.245060	-0.981147
C104	C	0.250005	1.745060	-0.481147
C105	C	-0.245820	1.239628	-0.887244
C106	C	0.254180	1.739628	-0.387244
C107	C	-0.301352	1.310862	-0.124745
C108	C	0.198648	1.810862	0.375255
C109	C	-0.296687	1.305249	-0.024796
C110	C	0.203313	1.805249	0.475204
H111	H	-0.238071	0.976043	-0.273919
H112	H	0.261929	1.476043	0.226081
N113	N	-0.754465	1.269248	-0.191833
N114	N	-0.254465	1.769248	0.308167
N115	N	-0.773121	1.193159	-0.162341
N116	N	-0.273121	1.693159	0.337659
H117	H	-0.752109	1.173087	-0.101803
H118	H	-0.252109	1.673087	0.398197
H119	H	-0.775643	1.219788	-0.475480
H120	H	-0.275643	1.719788	0.024520
H121	H	-0.203638	0.661529	-0.234459
H122	H	0.296362	1.161529	0.265541
H123	H	-0.195047	0.831880	-0.224640
H124	H	0.304953	1.331880	0.275360
N125	N	-0.851299	1.441152	-0.227460
N126	N	-0.351299	1.941152	0.272540
N127	N	-0.830718	1.522573	-0.230335
N128	N	-0.330718	2.022573	0.269665
H129	H	-0.845508	1.565027	-0.182736
H130	H	-0.345508	2.065027	0.317264
N131	N	-0.386901	1.421504	-1.019098
N132	N	0.113099	1.921504	-0.519098
N133	N	-0.424859	1.470390	-0.974211
N134	N	0.075141	1.970390	-0.474211
H135	H	-0.458542	1.513825	-1.005682
H136	H	0.041458	2.013825	-0.505682
H137	H	-0.415577	1.458342	-0.865905
H138	H	0.084423	1.958342	-0.365905
H139	H	-0.408007	1.448483	-0.695555
H140	H	0.091993	1.948483	-0.195555
N141	N	-0.396381	0.664480	-0.455217
N142	N	0.103619	1.164480	0.044783
N143	N	-0.400597	0.580638	-0.460039
N144	N	0.099403	1.080638	0.039961
H145	H	-0.438461	0.549141	-0.503402
H146	H	0.061539	1.049141	-0.003402
H147	H	-0.428529	0.817699	-0.492048
H148	H	0.071471	1.317699	0.007952
H149	H	-0.419942	0.988075	-0.482228
H150	H	0.080058	1.488075	0.017772
H151	H	-0.246154	1.239938	-0.707538
H152	H	0.253846	1.739938	-0.207538
H153	H	-0.863776	1.170684	-0.326441
H154	H	-0.363776	1.670684	0.173559
H155	H	-0.759084	1.478055	-0.390376
H156	H	-0.259084	1.978055	0.109624
H157	H	-0.862462	1.373597	-0.507490
H158	H	-0.362462	1.873597	-0.007490
N159	N	-0.198131	1.178148	-0.842649
N160	N	0.301869	1.678148	-0.342649
N161	N	-0.194411	1.173302	-0.758808
N162	N	0.305589	1.673302	-0.258808
H163	H	-0.160729	1.129881	-0.727312
H164	H	0.339271	1.629881	-0.227312
N165	N	-0.206552	1.189145	-1.032496
N166	N	0.293448	1.689145	-0.532496
N167	N	-0.210276	1.194010	-1.116336
N168	N	0.289724	1.694010	-0.616336
H169	H	-0.179591	1.154527	-1.152602
H170	H	0.320409	1.654527	-0.652602
