data_functionalizedCrystal
_audit_creation_method	'MofGen! by Chris Wilmer'
_symmetry_space_group_name_H-M	'P1'
_symmetry_Int_Tables_number	1
_symmetry_cell_setting	triclinic
loop_
_symmetry_equiv_pos_as_xyz
  x,y,z
_cell_length_a	15.995350
_cell_length_b	17.666332
_cell_length_c	15.995343
_cell_angle_alpha	89.988805
_cell_angle_beta	96.509220
_cell_angle_gamma	90.005705
loop_
_atom_site_label
_atom_site_type_symbol
_atom_site_fract_x
_atom_site_fract_y
_atom_site_fract_z
O1	O	1.110988	0.062892	-0.107928
O2	O	1.444322	0.396226	0.225405
O3	O	1.777655	0.729559	0.558738
O4	O	0.867213	0.062909	-0.121256
O5	O	1.200546	0.396242	0.212077
O6	O	1.533879	0.729576	0.545411
O7	O	0.995768	0.062886	0.007296
O8	O	1.329101	0.396219	0.340629
O9	O	1.662434	0.729553	0.673963
O10	O	0.982433	0.062915	-0.236480
O11	O	1.315767	0.396248	0.096853
O12	O	1.649100	0.729582	0.430186
O13	O	0.995745	-0.063011	0.007303
O14	O	1.329078	0.270323	0.340636
O15	O	1.662412	0.603656	0.673969
O16	O	0.867190	-0.062988	-0.121249
O17	O	1.200523	0.270345	0.212084
O18	O	1.533857	0.603679	0.545418
O19	O	1.110966	-0.063004	-0.107922
O20	O	1.444299	0.270329	0.225412
O21	O	1.777632	0.603662	0.558745
Cu22	Cu	0.989076	-0.074492	-0.114585
Cu23	Cu	1.322409	0.258842	0.218749
Cu24	Cu	1.655742	0.592175	0.552082
Cu25	Cu	0.989102	0.074396	-0.114593
Cu26	Cu	1.322436	0.407729	0.218741
Cu27	Cu	1.655769	0.741063	0.552074
O28	O	0.982411	-0.062982	-0.236473
O29	O	1.315744	0.270352	0.096860
O30	O	1.649077	0.603685	0.430193
C31	C	0.836007	-0.000038	-0.120702
C32	C	1.169340	0.333296	0.212632
C33	C	1.502673	0.666629	0.545965
C34	C	0.743056	-0.000032	-0.119050
C35	C	1.076390	0.333301	0.214284
C36	C	1.409723	0.666635	0.547617
N37	N	0.989063	-0.179211	-0.114578
N38	N	1.322397	0.154122	0.218755
N39	N	1.655730	0.487456	0.552088
C40	C	0.405309	-0.000048	-0.113118
C41	C	0.738642	0.333285	0.220216
C42	C	1.071976	0.666618	0.553549
C43	C	0.452746	-0.000340	-0.021565
C44	C	0.786079	0.332993	0.311768
C45	C	1.119412	0.666327	0.645101
C46	C	0.549436	-0.000051	-0.023217
C47	C	0.882769	0.333282	0.310116
C48	C	1.216102	0.666616	0.643449
C49	C	0.572869	-0.000041	-0.116060
C50	C	0.906203	0.333293	0.217273
C51	C	1.239536	0.666626	0.550607
C52	C	0.531794	0.071855	-0.161221
C53	C	0.865127	0.405188	0.172113
C54	C	1.198461	0.738522	0.505446
C55	C	0.435158	0.071910	-0.158921
C56	C	0.768492	0.405243	0.174413
C57	C	1.101825	0.738576	0.507746
C58	C	0.434794	-0.071258	-0.160805
C59	C	0.768127	0.262075	0.172529
C60	C	1.101460	0.595408	0.505862
C61	C	0.531739	-0.072203	-0.160783
C62	C	0.865072	0.261130	0.172551
C63	C	1.198406	0.594463	0.505884
C64	C	0.667567	-0.000034	-0.117728
C65	C	1.000900	0.333300	0.215605
C66	C	1.334233	0.666633	0.548939
C67	C	0.310611	-0.000050	-0.111452
C68	C	0.643944	0.333283	0.221881
C69	C	0.977278	0.666616	0.555214
C70	C	1.046006	-0.218831	-0.057684
C71	C	1.379339	0.114503	0.275650
C72	C	1.712672	0.447836	0.608983
C73	C	1.046011	-0.298078	-0.057680
C74	C	1.379344	0.035255	0.275654
C75	C	1.712677	0.368588	0.608987
C76	C	0.989081	-0.337703	-0.114585
C77	C	1.322414	-0.004370	0.218748
C78	C	1.655748	0.328963	0.552082
C79	C	0.932128	-0.298074	-0.171484
C80	C	1.265461	0.035260	0.161849
C81	C	1.598794	0.368593	0.495183
C82	C	0.932119	-0.218828	-0.171481
C83	C	1.265452	0.114506	0.161852
C84	C	1.598785	0.447839	0.495186
N85	N	0.978421	-0.462113	-0.188673
N86	N	1.311754	-0.128779	0.144660
N87	N	1.645087	0.204554	0.477993
N88	N	0.978434	-0.537393	-0.188674
N89	N	1.311767	-0.204060	0.144660
N90	N	1.645101	0.129274	0.477993
C91	C	0.989103	-0.576467	-0.114597
C92	C	1.322436	-0.243134	0.218737
C93	C	1.655770	0.090199	0.552070
N94	N	0.999774	-0.537417	-0.040517
N95	N	1.333108	-0.204084	0.292817
N96	N	1.666441	0.129250	0.626150
N97	N	0.999765	-0.462130	-0.040517
N98	N	1.333099	-0.128796	0.292816
N99	N	1.666432	0.204537	0.626150
C100	C	0.989084	-0.423632	-0.114594
C101	C	1.322417	-0.090299	0.218739
C102	C	1.655750	0.243034	0.552072
C103	C	1.046054	-0.702016	-0.057693
C104	C	1.379387	-0.368683	0.275641
C105	C	1.712721	-0.035350	0.608974
C106	C	1.046053	-0.781265	-0.057687
C107	C	1.379386	-0.447932	0.275646
C108	C	1.712720	-0.114599	0.608979
C109	C	0.932174	-0.781259	-0.171499
C110	C	1.265507	-0.447926	0.161834
C111	C	1.598841	-0.114593	0.495167
C112	C	0.932171	-0.702012	-0.171497
C113	C	1.265504	-0.368678	0.161836
C114	C	1.598838	-0.035345	0.495169
C115	C	0.989115	-0.662395	-0.114595
C116	C	1.322449	-0.329062	0.218739
C117	C	1.655782	0.004272	0.552072
C118	C	1.142172	-0.000056	-0.108476
C119	C	1.475505	0.333277	0.224857
C120	C	1.808838	0.666610	0.558191
C121	C	1.235122	-0.000057	-0.110128
C122	C	1.568455	0.333276	0.223206
C123	C	1.901789	0.666610	0.556539
C124	C	0.995206	-0.000064	0.038494
C125	C	1.328540	0.333269	0.371827
C126	C	1.661873	0.666602	0.705161
C127	C	0.993557	-0.000070	0.131445
C128	C	1.326890	0.333263	0.464778
C129	C	1.660224	0.666597	0.798112
N130	N	0.989122	0.179115	-0.114592
N131	N	1.322455	0.512449	0.218741
N132	N	1.655788	0.845782	0.552074
C133	C	0.982972	-0.000030	-0.267672
C134	C	1.316305	0.333304	0.065662
C135	C	1.649639	0.666637	0.398995
C136	C	0.984621	-0.000019	-0.360622
C137	C	1.317955	0.333314	-0.027289
C138	C	1.651288	0.666648	0.306044
C139	C	0.990563	-0.000053	0.301631
C140	C	1.323897	0.333281	0.634965
C141	C	1.657230	0.666614	0.968298
C142	C	0.897766	-0.000045	0.324977
C143	C	1.231100	0.333289	0.658310
C144	C	1.564433	0.666622	0.991644
C145	C	0.896021	0.000250	0.421655
C146	C	1.229354	0.333583	0.754988
C147	C	1.562687	0.666916	1.088321
C148	C	0.987615	-0.000036	0.469191
C149	C	1.320948	0.333297	0.802524
C150	C	1.654282	0.666630	1.135858
C151	C	1.034288	0.071709	0.440088
C152	C	1.367621	0.405042	0.773422
C153	C	1.700954	0.738376	1.106755
C154	C	1.035388	0.071761	0.343296
C155	C	1.368722	0.405094	0.676629
C156	C	1.702055	0.738427	1.009962
C157	C	1.036721	-0.071412	0.343408
C158	C	1.370054	0.261921	0.676741
C159	C	1.703388	0.595254	1.010075
C160	C	1.033295	-0.072347	0.439903
C161	C	1.366629	0.260987	0.773236
C162	C	1.699962	0.594320	1.106570
C163	C	0.985953	-0.000025	0.563889
C164	C	1.319287	0.333309	0.897223
C165	C	1.652620	0.666642	1.230556
C166	C	0.992228	-0.000059	0.206933
C167	C	1.325561	0.333274	0.540267
C168	C	1.658894	0.666607	0.873600
H169	H	0.577856	-0.051589	0.012281
H170	H	0.911190	0.281744	0.345614
H171	H	1.244523	0.615078	0.678948
H172	H	0.861788	-0.051488	0.296977
H173	H	1.195121	0.281846	0.630310
H174	H	1.528455	0.615179	0.963644
H175	H	1.103440	0.074814	0.328722
H176	H	1.436773	0.408148	0.662055
H177	H	1.770106	0.741481	0.995388
C178	C	0.426277	0.068910	0.027651
C179	C	0.759611	0.402243	0.360984
C180	C	1.092944	0.735577	0.694317
N181	N	0.406338	0.121069	0.064719
N182	N	0.739671	0.454402	0.398052
N183	N	1.073004	0.787736	0.731385
C184	C	0.552506	-0.078069	-0.252244
C185	C	0.885839	0.255264	0.081090
C186	C	1.219173	0.588597	0.414423
N187	N	0.568153	-0.082486	-0.321133
N188	N	0.901487	0.250848	0.012200
N189	N	1.234820	0.584181	0.345533
C190	C	1.108638	-0.175257	0.004919
C191	C	1.441972	0.158076	0.338252
C192	C	1.775305	0.491410	0.671586
N193	N	1.155811	-0.142436	0.052075
N194	N	1.489145	0.190897	0.385408
N195	N	1.822478	0.524231	0.718741
H196	H	0.885806	-0.669751	-0.217830
H197	H	1.219140	-0.336418	0.115504
H198	H	1.552473	-0.003084	0.448837
C199	C	1.125356	0.075042	0.483114
C200	C	1.458689	0.408375	0.816447
C201	C	1.792023	0.741708	1.149781
N202	N	1.193948	0.077551	0.515524
N203	N	1.527282	0.410884	0.848857
N204	N	1.860615	0.744218	1.182190
C205	C	1.108663	-0.341669	0.004903
C206	C	1.441996	-0.008336	0.338237
C207	C	1.775329	0.324998	0.671570
N208	N	1.155856	-0.374499	0.052038
N209	N	1.489189	-0.041166	0.385371
N210	N	1.822523	0.292167	0.718704
H211	H	0.862393	0.051333	0.295985
H212	H	1.195726	0.384666	0.629318
H213	H	1.529059	0.718000	0.962651
H214	H	0.859478	-0.051165	0.440681
H215	H	1.192812	0.282168	0.774015
H216	H	1.526145	0.615501	1.107348
H217	H	0.859679	0.051989	0.440084
H218	H	1.193013	0.385323	0.773417
H219	H	1.526346	0.718656	1.106751
C220	C	0.427703	-0.069993	0.027879
C221	C	0.761036	0.263340	0.361213
C222	C	1.094370	0.596673	0.694546
N223	N	0.408834	-0.122457	0.065122
N224	N	0.742167	0.210876	0.398455
N225	N	1.075501	0.544209	0.731789
C226	C	0.987381	-0.144055	0.464988
C227	C	1.320714	0.189278	0.798322
C228	C	1.654048	0.522611	1.131655
N229	N	0.952797	-0.198065	0.483887
N230	N	1.286130	0.135268	0.817221
N231	N	1.619463	0.468602	1.150554
H232	H	0.414249	-0.125753	-0.130871
H233	H	0.747583	0.207580	0.202462
H234	H	1.080916	0.540914	0.535796
H235	H	1.003462	0.125601	0.316502
H236	H	1.336795	0.458934	0.649835
H237	H	1.670129	0.792267	0.983168
C238	C	1.128995	-0.072358	0.324472
C239	C	1.462328	0.260975	0.657805
C240	C	1.795662	0.594308	0.991138
N241	N	1.198493	-0.073065	0.310204
N242	N	1.531826	0.260268	0.643538
N243	N	1.865159	0.593602	0.976871
C244	C	0.869551	-0.824842	-0.234097
C245	C	1.202884	-0.491508	0.099236
C246	C	1.536217	-0.158175	0.432570
N247	N	0.822381	-0.857672	-0.281247
N248	N	1.155714	-0.524339	0.052087
N249	N	1.489048	-0.191005	0.385420
H250	H	1.002282	0.125312	0.460170
H251	H	1.335615	0.458645	0.793504
H252	H	1.668949	0.791978	1.126837
H253	H	0.403030	-0.071737	-0.228305
H254	H	0.736363	0.261596	0.105028
H255	H	1.069697	0.594930	0.438361
H256	H	0.559047	-0.125391	-0.127816
H257	H	0.892380	0.207942	0.205518
H258	H	1.225713	0.541275	0.538851
C259	C	1.123589	-0.078499	0.484415
C260	C	1.456922	0.254834	0.817749
C261	C	1.790256	0.588168	1.151082
N262	N	1.191601	-0.083129	0.517944
N263	N	1.524934	0.250205	0.851277
N264	N	1.858268	0.583538	1.184611
H265	H	1.007434	-0.125813	0.315146
H266	H	1.340767	0.207520	0.648480
H267	H	1.674100	0.540854	0.981813
H268	H	1.092420	-0.813524	-0.011352
H269	H	1.425753	-0.480191	0.321981
H270	H	1.759087	-0.146858	0.655314
H271	H	0.577304	0.051569	0.012515
H272	H	0.910637	0.384902	0.345849
H273	H	1.243970	0.718235	0.679182
H274	H	0.885773	-0.330340	-0.217816
H275	H	1.219106	0.002993	0.115517
H276	H	1.552440	0.336326	0.448851
H277	H	0.885748	-0.186568	-0.217812
H278	H	1.219081	0.146765	0.115521
H279	H	1.552415	0.480098	0.448854
H280	H	0.416860	0.125646	-0.125993
H281	H	0.750194	0.458979	0.207340
H282	H	1.083527	0.792313	0.540673
H283	H	0.402908	0.075180	-0.226137
H284	H	0.736242	0.408513	0.107196
H285	H	1.069575	0.741846	0.440530
H286	H	0.545917	0.074536	-0.229430
H287	H	0.879251	0.407869	0.103903
H288	H	1.212584	0.741202	0.437237
H289	H	0.560179	0.125354	-0.129860
H290	H	0.893512	0.458687	0.203474
H291	H	1.226845	0.792021	0.536807
C292	C	1.108686	-0.658435	0.004908
C293	C	1.442019	-0.325102	0.338242
C294	C	1.775352	0.008231	0.671575
N295	N	1.155859	-0.625612	0.052061
N296	N	1.489192	-0.292279	0.385395
N297	N	1.822526	0.041054	0.718728
