data_functionalizedCrystal
_audit_creation_method	'MofGen! by Chris Wilmer'
_symmetry_space_group_name_H-M	'P1'
_symmetry_Int_Tables_number	1
_symmetry_cell_setting	triclinic
loop_
_symmetry_equiv_pos_as_xyz
  x,y,z
_cell_length_a	10.723024
_cell_length_b	13.339070
_cell_length_c	9.198806
_cell_angle_alpha	89.999439
_cell_angle_beta	89.996352
_cell_angle_gamma	100.048582
loop_
_atom_site_label
_atom_site_type_symbol
_atom_site_fract_x
_atom_site_fract_y
_atom_site_fract_z
O1	O	1.704931	0.142225	-0.120877
O2	O	2.204931	0.642225	0.379123
O3	O	1.346349	0.155839	-0.120882
O4	O	1.846349	0.655839	0.379118
O5	O	1.484486	0.001483	-0.120876
O6	O	1.984486	0.501483	0.379124
O7	O	1.566793	0.296581	-0.120883
O8	O	2.066793	0.796581	0.379117
O9	O	1.484471	0.001483	0.120909
O10	O	1.984471	0.501483	0.620909
O11	O	1.346333	0.155839	0.120903
O12	O	1.846333	0.655839	0.620903
O13	O	1.704916	0.142225	0.120908
O14	O	2.204916	0.642225	0.620908
Cu15	Cu	1.525623	0.149032	0.142982
Cu16	Cu	2.025623	0.649032	0.642982
Cu17	Cu	1.525641	0.149032	-0.142957
Cu18	Cu	2.025641	0.649032	0.357043
O19	O	1.566778	0.296581	0.120902
O20	O	2.066778	0.796581	0.620902
C21	C	1.299509	0.154848	0.000010
C22	C	1.799509	0.654848	0.500010
C23	C	1.159959	0.151884	0.000008
C24	C	1.659959	0.651884	0.500008
C25	C	1.113970	0.238253	0.000005
C26	C	1.613970	0.738253	0.500005
C27	C	0.969739	0.235192	0.000003
C28	C	1.469739	0.735192	0.500003
C29	C	1.470575	-0.036303	0.000015
C30	C	1.970575	0.463697	0.500015
C31	C	1.429133	-0.148892	0.000008
C32	C	1.929133	0.351108	0.500008
C33	C	1.751368	-0.511449	0.000013
C34	C	2.251368	-0.011449	0.500013
C35	C	1.790309	-0.405666	0.000027
C36	C	2.290309	0.094334	0.500027
C37	C	1.700018	-0.341468	0.000022
C38	C	2.200018	0.158532	0.500022
C39	C	1.570779	-0.383062	0.000003
C40	C	2.070779	0.116938	0.500003
C41	C	1.531834	-0.488855	0.000001
C42	C	2.031834	0.011145	0.500001
C43	C	1.480485	-0.318874	0.000010
C44	C	1.980485	0.181126	0.500010
C45	C	1.351246	-0.360469	-0.000009
C46	C	1.851246	0.139531	0.499991
C47	C	1.312308	-0.466252	-0.000013
C48	C	1.812308	0.033748	0.499987
C49	C	1.402598	-0.530450	-0.000007
C50	C	1.902598	-0.030450	0.499993
C51	C	1.519430	-0.213081	0.000012
C52	C	2.019430	0.286919	0.500012
C53	C	1.299897	-0.190487	0.000000
C54	C	1.799897	0.309513	0.500000
C55	C	1.260956	-0.296270	-0.000014
C56	C	1.760956	0.203730	0.499986
C57	C	1.751755	0.143216	0.000013
C58	C	2.251755	0.643216	0.500013
C59	C	1.891305	0.146180	0.000005
C60	C	2.391305	0.646180	0.500005
C61	C	1.580689	0.334367	0.000008
C62	C	2.080689	0.834367	0.500008
C63	C	1.622132	0.446956	0.000005
C64	C	2.122132	0.946956	0.500005
N65	N	1.525619	0.149031	0.344096
N66	N	2.025619	0.649031	0.844096
N67	N	1.525652	0.149025	-0.344070
N68	N	2.025652	0.649025	0.155930
C69	C	1.583523	0.083935	0.416296
C70	C	2.083523	0.583935	0.916296
C71	C	1.583541	0.083932	0.583708
C72	C	2.083541	0.583932	1.083708
H73	H	0.930127	0.309131	-0.000005
H74	H	1.430127	0.809131	0.499995
H75	H	1.181375	0.314464	0.000011
H76	H	1.681375	0.814464	0.500011
F77	F	1.460858	0.221880	0.574788
F78	F	1.960858	0.721880	1.074788
H79	H	1.633079	0.028203	0.354172
H80	H	2.133079	0.528203	0.854172
F81	F	1.071862	0.052267	0.000020
F82	F	1.571862	0.552267	0.500020
H83	H	1.633121	0.028204	0.645797
H84	H	2.133121	0.528204	1.145797
F85	F	1.656970	-0.168825	0.000033
F86	F	2.156970	0.331175	0.500033
F87	F	1.741466	-0.228884	0.000032
F88	F	2.241466	0.271116	0.500032
H89	H	1.226374	-0.138216	0.000003
H90	H	1.726374	0.361784	0.500003
H91	H	1.476053	0.204755	0.406222
H92	H	1.976053	0.704755	0.906222
H93	H	1.895534	-0.371808	0.000044
H94	H	2.395534	0.128192	0.500044
H95	H	0.930908	0.072237	-0.000002
H96	H	1.430908	0.572237	0.499998
H97	H	1.207074	-0.500114	-0.000017
H98	H	1.707074	-0.000114	0.499983
F99	F	1.847446	-0.579778	0.000041
F100	F	2.347446	-0.079778	0.500041
H101	H	1.370899	-0.616589	-0.000024
H102	H	1.870899	-0.116589	0.499976
H103	H	1.155727	-0.330152	-0.000028
H104	H	1.655727	0.169848	0.499972
