data_functionalizedCrystal
_audit_creation_method	'MofGen! by Chris Wilmer'
_symmetry_space_group_name_H-M	'P1'
_symmetry_Int_Tables_number	1
_symmetry_cell_setting	triclinic
loop_
_symmetry_equiv_pos_as_xyz
  x,y,z
_cell_length_a	14.971486
_cell_length_b	13.596369
_cell_length_c	14.971486
_cell_angle_alpha	89.993803
_cell_angle_beta	96.385871
_cell_angle_gamma	90.000368
loop_
_atom_site_label
_atom_site_type_symbol
_atom_site_fract_x
_atom_site_fract_y
_atom_site_fract_z
O1	O	1.186946	0.081679	-0.116564
O2	O	1.686946	0.581679	0.383436
O3	O	0.926545	0.081706	-0.130523
O4	O	1.426545	0.581706	0.369477
O5	O	1.063725	0.081684	0.006656
O6	O	1.563725	0.581684	0.506656
O7	O	1.049766	0.081700	-0.253744
O8	O	1.549766	0.581700	0.246256
O9	O	1.063711	-0.081898	0.006664
O10	O	1.563711	0.418102	0.506664
O11	O	0.926532	-0.081877	-0.130516
O12	O	1.426532	0.418123	0.369484
O13	O	1.186932	-0.081904	-0.116557
O14	O	1.686932	0.418096	0.383443
Zn15	Zn	1.056730	-0.107863	-0.123535
Zn16	Zn	1.556730	0.392137	0.376465
Zn17	Zn	1.056748	0.107665	-0.123545
Zn18	Zn	1.556748	0.607665	0.376455
O19	O	1.049752	-0.081883	-0.253736
O20	O	1.549752	0.418117	0.246264
C21	C	0.893214	-0.000082	-0.129895
C22	C	1.393214	0.499918	0.370105
C23	C	0.793917	-0.000072	-0.128024
C24	C	1.293917	0.499928	0.371976
N25	N	1.056724	-0.254955	-0.123528
N26	N	1.556724	0.245045	0.376472
C27	C	0.736692	-0.000069	-0.208614
C28	C	1.236692	0.499931	0.291386
C29	C	0.643392	-0.000084	-0.206850
C30	C	1.143392	0.499916	0.293150
C31	C	0.607320	-0.000095	-0.124497
C32	C	1.107320	0.499905	0.375503
C33	C	0.664552	-0.000101	-0.043902
C34	C	1.164552	0.499899	0.456098
C35	C	0.757850	-0.000094	-0.045666
C36	C	1.257850	0.499906	0.454334
C37	C	0.470090	-0.000115	-0.040231
C38	C	0.970090	0.499885	0.459769
C39	C	0.376786	-0.000121	-0.038466
C40	C	0.876786	0.499879	0.461534
C41	C	0.355632	-0.000105	-0.201415
C42	C	0.855632	0.499895	0.298585
C43	C	0.448930	-0.000098	-0.203179
C44	C	0.948930	0.499902	0.296821
C45	C	0.506156	-0.000102	-0.122584
C46	C	1.006156	0.499898	0.377416
C47	C	1.056746	-0.656246	-0.123546
C48	C	1.556746	-0.156246	0.376454
C49	C	1.056738	-0.544594	-0.123544
C50	C	1.556738	-0.044594	0.376456
C51	C	1.056736	-0.455604	-0.123538
C52	C	1.556736	0.044396	0.376462
C53	C	1.056726	-0.343945	-0.123534
C54	C	1.556726	0.156055	0.376466
C55	C	1.220263	-0.000114	-0.117185
C56	C	1.720263	0.499886	0.382815
C57	C	1.319561	-0.000118	-0.119056
C58	C	1.819561	0.499882	0.380944
C59	C	1.063094	-0.000107	0.039985
C60	C	1.563094	0.499893	0.539985
C61	C	1.061223	-0.000106	0.139282
C62	C	1.561223	0.499894	0.639282
N63	N	1.056761	0.254756	-0.123545
N64	N	1.556761	0.754756	0.376455
C65	C	1.050384	-0.000090	-0.287065
C66	C	1.550384	0.499910	0.212935
C67	C	1.052254	-0.000084	-0.386362
C68	C	1.552254	0.499916	0.113638
C69	C	1.141812	-0.000115	0.196507
C70	C	1.641812	0.499885	0.696507
C71	C	1.140049	-0.000105	0.289807
C72	C	1.640049	0.499895	0.789807
C73	C	1.057696	-0.000092	0.325879
C74	C	1.557696	0.499908	0.825879
C75	C	0.977101	-0.000080	0.268646
C76	C	1.477101	0.499920	0.768646
C77	C	0.978865	-0.000084	0.175349
C78	C	1.478865	0.499916	0.675349
C79	C	0.973430	-0.000077	0.463109
C80	C	1.473430	0.499923	0.963109
C81	C	0.971665	-0.000075	0.556413
C82	C	1.471665	0.499925	1.056413
C83	C	1.134614	-0.000098	0.577567
C84	C	1.634614	0.499902	1.077567
C85	C	1.136378	-0.000101	0.484269
C86	C	1.636378	0.499899	0.984269
C87	C	1.055782	-0.000090	0.427043
C88	C	1.555782	0.499910	0.927043
H89	H	0.766054	-0.000059	-0.275675
H90	H	1.266054	0.499941	0.224325
C91	C	0.532330	0.000037	0.047203
C92	C	1.032330	0.500037	0.547203
C93	C	0.586519	0.084189	0.050931
C94	C	1.086519	0.584189	0.550931
C95	C	0.643875	0.084362	0.131452
C96	C	1.143875	0.584362	0.631452
H97	H	0.497601	0.000083	0.096578
H98	H	0.997601	0.500083	0.596578
H99	H	0.569223	-0.056975	0.049912
H100	H	1.069223	0.443025	0.549912
H101	H	0.549630	0.141186	0.048230
H102	H	1.049630	0.641186	0.548230
H103	H	0.621268	0.084160	0.001575
H104	H	1.121268	0.584160	0.501575
H105	H	0.680768	0.027350	0.134161
H106	H	1.180768	0.527350	0.634161
H107	H	0.609138	0.084406	0.180821
H108	H	1.109138	0.584406	0.680821
H109	H	0.680654	0.141453	0.133988
H110	H	1.180654	0.641453	0.633988
H111	H	1.208874	-0.000130	0.167145
H112	H	1.708874	0.499870	0.667145
H113	H	0.596802	-0.000080	-0.272474
H114	H	1.096802	0.499920	0.227526
C115	C	0.487923	-0.000134	-0.292681
C116	C	0.987923	0.499866	0.207319
C117	C	0.417840	-0.000159	-0.362887
C118	C	0.917840	0.499841	0.137113
C119	C	0.453727	-0.000209	-0.445348
C120	C	0.953727	0.499791	0.054652
H121	H	0.523863	0.056898	-0.296884
H122	H	1.023863	0.556898	0.203116
H123	H	0.523857	-0.057199	-0.296799
H124	H	1.023857	0.442801	0.203201
H125	H	0.381922	0.056900	-0.358771
H126	H	0.881922	0.556900	0.141229
H127	H	0.381895	-0.057187	-0.358714
H128	H	0.881895	0.442813	0.141286
H129	H	0.489661	-0.057274	-0.449466
H130	H	0.989661	0.442726	0.050534
H131	H	0.489666	0.056825	-0.449541
H132	H	0.989666	0.556825	0.050459
H133	H	0.406182	-0.000235	-0.492992
H134	H	0.906182	0.499765	0.007008
H135	H	0.904606	-0.000081	0.585780
H136	H	1.404606	0.499919	1.085780
H137	H	1.203437	-0.000117	0.454903
H138	H	1.703437	0.499883	0.954903
C139	C	0.885829	-0.000114	0.401124
C140	C	1.385829	0.499886	0.901124
C141	C	0.813329	-0.000131	0.452681
C142	C	1.313329	0.499869	0.952681
C143	C	0.732621	-0.000182	0.395613
C144	C	1.232621	0.499818	0.895613
H145	H	0.883007	0.056915	0.364263
H146	H	1.383007	0.556915	0.864263
H147	H	0.883077	-0.057182	0.364308
H148	H	1.383077	0.442818	0.864308
H149	H	0.816080	0.056932	0.489482
H150	H	1.316080	0.556932	0.989482
H151	H	0.816121	-0.057155	0.489541
H152	H	1.316121	0.442845	0.989541
H153	H	0.729868	-0.057250	0.358797
H154	H	1.229868	0.442750	0.858797
H155	H	0.729808	0.056848	0.358754
H156	H	1.229808	0.556848	0.858754
H157	H	0.683420	-0.000202	0.430585
H158	H	1.183420	0.499798	0.930585
H159	H	0.635175	-0.000124	0.023152
H160	H	1.135175	0.499876	0.523152
C161	C	0.891298	0.000079	0.113319
C162	C	1.391298	0.500079	0.613319
C163	C	0.841716	0.084233	0.129640
C164	C	1.341716	0.584233	0.629640
C165	C	0.761039	0.084415	0.072525
C166	C	1.261039	0.584415	0.572525
H167	H	0.904016	0.000129	0.052559
H168	H	1.404016	0.500129	0.552559
H169	H	0.857477	-0.056932	0.124279
H170	H	1.357477	0.443068	0.624279
H171	H	0.875531	0.141229	0.118674
H172	H	1.375531	0.641229	0.618674
H173	H	0.828975	0.084201	0.190389
H174	H	1.328975	0.584201	0.690389
H175	H	0.727217	0.027405	0.083484
H176	H	1.227217	0.527405	0.583484
H177	H	0.773765	0.084463	0.011768
H178	H	1.273765	0.584463	0.511768
H179	H	0.727384	0.141508	0.083596
H180	H	1.227384	0.641508	0.583596
H181	H	0.309033	-0.000106	-0.267039
H182	H	0.809033	0.499894	0.232961
H183	H	0.347419	-0.000131	0.028593
H184	H	0.847419	0.499869	0.528593
H185	H	0.804443	-0.000096	0.019958
H186	H	1.304443	0.499904	0.519958
H187	H	1.205673	-0.000114	0.336396
H188	H	1.705673	0.499886	0.836396
H189	H	1.200238	-0.000103	0.624165
H190	H	1.700238	0.499897	1.124165
H191	H	0.910047	-0.000064	0.298024
H192	H	1.410047	0.499936	0.798024
