data_functionalizedCrystal
_audit_creation_method	'MofGen! by Chris Wilmer'
_symmetry_space_group_name_H-M	'P1'
_symmetry_Int_Tables_number	1
_symmetry_cell_setting	triclinic
loop_
_symmetry_equiv_pos_as_xyz
  x,y,z
_cell_length_a	17.077402
_cell_length_b	17.077404
_cell_length_c	17.077396
_cell_angle_alpha	90.019016
_cell_angle_beta	89.969358
_cell_angle_gamma	89.975668
loop_
_atom_site_label
_atom_site_type_symbol
_atom_site_fract_x
_atom_site_fract_y
_atom_site_fract_z
Zn1	Zn	-0.312514	-1.200023	-0.443881
Zn2	Zn	0.020819	-0.866690	-0.110547
Zn3	Zn	0.354152	-0.533356	0.222786
Zn4	Zn	-0.443793	-1.199930	-0.312613
Zn5	Zn	-0.110460	-0.866597	0.020720
Zn6	Zn	0.222874	-0.533264	0.354053
Zn7	Zn	-0.312543	-1.068760	-0.312624
Zn8	Zn	0.020790	-0.735427	0.020709
Zn9	Zn	0.354124	-0.402094	0.354043
Zn10	Zn	-0.443740	-1.068717	-0.443832
Zn11	Zn	-0.110407	-0.735384	-0.110499
Zn12	Zn	0.222926	-0.402051	0.222834
O13	O	-0.378148	-1.134358	-0.378238
O14	O	-0.044814	-0.801024	-0.044904
O15	O	0.288519	-0.467691	0.288429
O16	O	-0.329939	-1.309858	-0.426483
O17	O	0.003394	-0.976524	-0.093150
O18	O	0.336728	-0.643191	0.240183
O19	O	-0.426417	-1.182509	-0.202768
O20	O	-0.093083	-0.849176	0.130566
O21	O	0.240250	-0.515843	0.463899
O22	O	-0.202692	-1.086229	-0.330060
O23	O	0.130641	-0.752896	0.003273
O24	O	0.463974	-0.419563	0.336606
O25	O	-0.426389	-1.309789	-0.330042
O26	O	-0.093055	-0.976456	0.003291
O27	O	0.240278	-0.643123	0.336625
O28	O	-0.202671	-1.182667	-0.426494
O29	O	0.130662	-0.849334	-0.093160
O30	O	0.463995	-0.516001	0.240173
O31	O	-0.329988	-1.086140	-0.202776
O32	O	0.003346	-0.752806	0.130558
O33	O	0.336679	-0.419473	0.463891
O34	O	-0.329937	-0.958908	-0.330013
O35	O	0.003397	-0.625574	0.003320
O36	O	0.336730	-0.292241	0.336653
O37	O	-0.426299	-1.086156	-0.553686
O38	O	-0.092965	-0.752823	-0.220352
O39	O	0.240368	-0.419489	0.112981
O40	O	-0.426327	-0.958876	-0.426412
O41	O	-0.092993	-0.625543	-0.093078
O42	O	0.240340	-0.292210	0.240255
O43	O	-0.329888	-1.182626	-0.553721
O44	O	0.003446	-0.849292	-0.220388
O45	O	0.336779	-0.515959	0.112945
O46	O	-0.553633	-1.182468	-0.329995
O47	O	-0.220300	-0.849134	0.003338
O48	O	0.113034	-0.515801	0.336672
O49	O	-0.553594	-1.086066	-0.426401
O50	O	-0.220261	-0.752733	-0.093068
O51	O	0.113073	-0.419400	0.240265
C52	C	-0.378130	-0.930410	-0.378209
C53	C	-0.044796	-0.597077	-0.044876
C54	C	0.288537	-0.263743	0.288458
C55	C	-0.378141	-0.843160	-0.378215
C56	C	-0.044807	-0.509827	-0.044882
C57	C	0.288526	-0.176493	0.288451
C58	C	-0.428406	-0.802174	-0.428328
C59	C	-0.095072	-0.468841	-0.094995
C60	C	0.238261	-0.135507	0.238339
C61	C	-0.428406	-0.720194	-0.428338
C62	C	-0.095073	-0.386860	-0.095004
C63	C	0.238261	-0.053527	0.238329
C64	C	-0.378144	-0.679201	-0.378230
C65	C	-0.044811	-0.345867	-0.044897
C66	C	0.288522	-0.012534	0.288436
C67	C	-0.327873	-0.720192	-0.328115
C68	C	0.005460	-0.386859	0.005218
C69	C	0.338793	-0.053526	0.338551
C70	C	-0.327870	-0.802171	-0.328110
C71	C	0.005463	-0.468838	0.005223
C72	C	0.338797	-0.135505	0.338556
C73	C	-0.327886	-0.549322	-0.328129
C74	C	0.005448	-0.215989	0.005205
C75	C	0.338781	0.117344	0.338538
C76	C	-0.327890	-0.467338	-0.328132
C77	C	0.005443	-0.134004	0.005201
C78	C	0.338777	0.199329	0.338534
C79	C	-0.428421	-0.467345	-0.428356
C80	C	-0.095088	-0.134011	-0.095023
C81	C	0.238245	0.199322	0.238311
C82	C	-0.428418	-0.549324	-0.428351
C83	C	-0.095085	-0.215990	-0.095017
C84	C	0.238249	0.117343	0.238316
C85	C	-0.378148	-0.590310	-0.378235
C86	C	-0.044815	-0.256976	-0.044901
C87	C	0.288519	0.076357	0.288432
C88	C	-0.582096	-1.134274	-0.378209
C89	C	-0.248762	-0.800940	-0.044876
C90	C	0.084571	-0.467607	0.288458
C91	C	-0.669345	-1.134309	-0.378223
C92	C	-0.336012	-0.800976	-0.044890
C93	C	-0.002679	-0.467643	0.288444
C94	C	-1.045085	-1.184659	-0.428542
C95	C	-0.711752	-0.851326	-0.095209
C96	C	-0.378418	-0.517992	0.238124
C97	C	-0.963105	-1.184624	-0.428524
C98	C	-0.629771	-0.851291	-0.095190
C99	C	-0.296438	-0.517957	0.238143
C100	C	-0.922194	-1.134434	-0.378270
C101	C	-0.588861	-0.801100	-0.044936
C102	C	-0.255528	-0.467767	0.288397
C103	C	-0.963268	-1.084281	-0.328025
C104	C	-0.629935	-0.750948	0.005308
C105	C	-0.296602	-0.417614	0.338642
C106	C	-1.045247	-1.084321	-0.328040
C107	C	-0.711914	-0.750987	0.005293
C108	C	-0.378581	-0.417654	0.338627
C109	C	-0.792398	-1.084200	-0.327998
C110	C	-0.459065	-0.750867	0.005335
C111	C	-0.125732	-0.417533	0.338668
C112	C	-0.710414	-1.084159	-0.327984
C113	C	-0.377081	-0.750826	0.005349
C114	C	-0.043747	-0.417492	0.338683
C115	C	-0.710256	-1.184503	-0.428482
C116	C	-0.376922	-0.851170	-0.095149
C117	C	-0.043589	-0.517837	0.238185
C118	C	-0.792235	-1.184543	-0.428497
C119	C	-0.458901	-0.851210	-0.095164
C120	C	-0.125568	-0.517876	0.238170
C121	C	-0.833303	-1.134389	-0.378253
C122	C	-0.499970	-0.801056	-0.044920
C123	C	-0.166637	-0.467722	0.288413
C124	C	-0.173403	-1.134464	-0.378284
C125	C	0.159930	-0.801130	-0.044950
C126	C	0.493263	-0.467797	0.288383
C127	C	-0.086154	-1.134509	-0.378303
C128	C	0.247180	-0.801175	-0.044970
C129	C	0.580513	-0.467842	0.288363
C130	C	-0.378084	-1.134397	-0.582982
C131	C	-0.044751	-0.801063	-0.249649
C132	C	0.288583	-0.467730	0.083685
C133	C	-0.378057	-1.134413	-0.670232
C134	C	-0.044724	-0.801080	-0.336899
C135	C	0.288610	-0.467746	-0.003565
C136	C	-0.378162	-0.339102	-0.378258
C137	C	-0.044828	-0.005769	-0.044925
C138	C	0.288505	0.327565	0.288408
C139	C	-0.378155	-0.426352	-0.378245
C140	C	-0.044822	-0.093018	-0.044912
C141	C	0.288512	0.240315	0.288422
C142	C	-0.428176	-1.184664	-1.046045
C143	C	-0.094843	-0.851331	-0.712711
C144	C	0.238491	-0.517998	-0.379378
C145	C	-0.428199	-1.184644	-0.964064
C146	C	-0.094866	-0.851311	-0.630731
C147	C	0.238468	-0.517978	-0.297398
C148	C	-0.378002	-1.134464	-0.923081
C149	C	-0.044668	-0.801130	-0.589748
C150	C	0.288665	-0.467797	-0.256414
C151	C	-0.327784	-1.084294	-0.964082
C152	C	0.005550	-0.750960	-0.630749
C153	C	0.338883	-0.417627	-0.297416
C154	C	-0.327765	-1.084310	-1.046061
C155	C	0.005568	-0.750977	-0.712728
C156	C	0.338901	-0.417644	-0.379395
C157	C	-0.327824	-1.084264	-0.793212
C158	C	0.005509	-0.750931	-0.459879
C159	C	0.338842	-0.417598	-0.126546
C160	C	-0.327841	-1.084249	-0.711228
C161	C	0.005492	-0.750915	-0.377894
C162	C	0.338825	-0.417582	-0.044561
C163	C	-0.428258	-1.184599	-0.711215
C164	C	-0.094925	-0.851265	-0.377882
C165	C	0.238409	-0.517932	-0.044548
C166	C	-0.428239	-1.184615	-0.793194
C167	C	-0.094906	-0.851282	-0.459861
C168	C	0.238427	-0.517948	-0.126527
C169	C	-0.378020	-1.134446	-0.834190
C170	C	-0.044687	-0.801113	-0.500857
C171	C	0.288646	-0.467779	-0.167523
C172	C	-0.378154	-1.134364	-0.174290
C173	C	-0.044821	-0.801031	0.159044
C174	C	0.288512	-0.467698	0.492377
C175	C	-0.377960	-1.134500	-0.087040
C176	C	-0.044627	-0.801167	0.246293
C177	C	0.288706	-0.467833	0.579626
H178	H	-0.286944	-0.582691	-0.287326
H179	H	0.046390	-0.249357	0.046008
H180	H	0.379723	0.083976	0.379341
H181	H	-0.286964	-1.043389	-0.677861
H182	H	0.046369	-0.710056	-0.344528
H183	H	0.379703	-0.376723	-0.011194
H184	H	-0.286946	-0.686810	-0.287321
H185	H	0.046387	-0.353476	0.046013
H186	H	0.379720	-0.020143	0.379346
Cl187	Cl	-0.491607	-0.415820	-0.491370
Cl188	Cl	-0.158273	-0.082486	-0.158037
Cl189	Cl	0.175060	0.250847	0.175296
H190	H	-0.286931	-1.043411	-0.826588
H191	H	0.046403	-0.710078	-0.493255
H192	H	0.379736	-0.376745	-0.159922
H193	H	-1.078389	-1.225522	-0.469473
H194	H	-0.745055	-0.892189	-0.136140
H195	H	-0.411722	-0.558856	0.197194
H196	H	-0.469111	-1.225480	-0.826561
H197	H	-0.135777	-0.892147	-0.493227
H198	H	0.197556	-0.558814	-0.159894
H199	H	-0.825834	-1.043361	-0.287083
H200	H	-0.492501	-0.710027	0.046250
H201	H	-0.159167	-0.376694	0.379584
H202	H	-0.469099	-1.225484	-0.930689
H203	H	-0.135766	-0.892150	-0.597356
H204	H	0.197568	-0.558817	-0.264022
H205	H	-0.286916	-1.043432	-0.930707
H206	H	0.046418	-0.710099	-0.597374
H207	H	0.379751	-0.376765	-0.264041
Cl208	Cl	-0.264706	-0.415805	-0.265136
Cl209	Cl	0.068627	-0.082471	0.068198
Cl210	Cl	0.401960	0.250862	0.401531
Cl211	Cl	-0.491610	-0.600857	-0.491339
Cl212	Cl	-0.158277	-0.267523	-0.158005
Cl213	Cl	0.175056	0.065810	0.175328
Cl214	Cl	-0.843664	-1.247631	-0.491685
Cl215	Cl	-0.510331	-0.914297	-0.158351
Cl216	Cl	-0.176997	-0.580964	0.174982
H217	H	-0.676813	-1.225340	-0.469392
H218	H	-0.343480	-0.892007	-0.136058
H219	H	-0.010146	-0.558674	0.197275
H220	H	-0.469337	-0.835545	-0.469129
H221	H	-0.136004	-0.502211	-0.135795
H222	H	0.197329	-0.168878	0.197538
Cl223	Cl	-0.264630	-1.021248	-1.097599
Cl224	Cl	0.068703	-0.687914	-0.764266
Cl225	Cl	0.402036	-0.354581	-0.430932
H226	H	-0.469338	-0.686826	-0.469144
H227	H	-0.136004	-0.353493	-0.135810
H228	H	0.197329	-0.020160	0.197523
Cl229	Cl	-0.264675	-0.853697	-0.265111
Cl230	Cl	0.068659	-0.520364	0.068223
Cl231	Cl	0.401992	-0.187030	0.401556
Cl232	Cl	-0.911479	-1.247672	-0.491685
Cl233	Cl	-0.578146	-0.914339	-0.158352
Cl234	Cl	-0.244812	-0.581006	0.174981
H235	H	-0.677109	-1.043290	-0.287061
H236	H	-0.343775	-0.709956	0.046273
H237	H	-0.010442	-0.376623	0.379606
H238	H	-0.929954	-1.043418	-0.287103
H239	H	-0.596621	-0.710084	0.046230
H240	H	-0.263288	-0.376751	0.379564
H241	H	-0.469049	-1.225531	-1.079407
H242	H	-0.135716	-0.892198	-0.746074
H243	H	0.197618	-0.558864	-0.412741
Cl244	Cl	-1.096877	-1.021275	-0.264876
Cl245	Cl	-0.763543	-0.687942	0.068457
Cl246	Cl	-0.430210	-0.354608	0.401790
Cl247	Cl	-0.491393	-1.247665	-0.659678
Cl248	Cl	-0.158060	-0.914332	-0.326345
Cl249	Cl	0.175273	-0.580999	0.006988
