data_functionalizedCrystal
_audit_creation_method	'MofGen! by Chris Wilmer'
_symmetry_space_group_name_H-M	'P1'
_symmetry_Int_Tables_number	1
_symmetry_cell_setting	triclinic
loop_
_symmetry_equiv_pos_as_xyz
  x,y,z
_cell_length_a	19.805407
_cell_length_b	12.594509
_cell_length_c	19.805405
_cell_angle_alpha	89.967983
_cell_angle_beta	90.026726
_cell_angle_gamma	89.978040
loop_
_atom_site_label
_atom_site_type_symbol
_atom_site_fract_x
_atom_site_fract_y
_atom_site_fract_z
Zn1	Zn	1.034750	-0.601850	-0.269443
Zn2	Zn	1.034660	-0.423860	-0.382642
Zn3	Zn	0.921560	-0.423877	-0.269472
Zn4	Zn	0.921528	-0.601788	-0.382595
O5	O	0.978124	-0.512844	-0.326038
O6	O	1.129455	-0.578258	-0.284466
O7	O	1.019632	-0.274916	-0.367661
O8	O	0.936626	-0.447519	-0.174752
O9	O	1.129388	-0.447489	-0.367633
O10	O	1.019787	-0.578275	-0.174730
O11	O	0.936539	-0.274929	-0.284516
O12	O	0.826839	-0.447458	-0.284471
O13	O	0.936571	-0.750742	-0.367553
O14	O	0.826815	-0.578169	-0.367582
O15	O	1.019755	-0.750788	-0.284421
O16	O	1.019601	-0.447429	-0.477352
O17	O	0.936483	-0.578152	-0.477318
C18	C	0.802268	-0.512809	-0.326025
C19	C	0.727036	-0.512820	-0.326036
C20	C	0.691698	-0.580770	-0.369377
C21	C	0.621009	-0.580785	-0.369378
C22	C	0.585661	-0.512844	-0.326041
C23	C	0.621005	-0.444890	-0.282695
C24	C	0.691692	-0.444881	-0.282691
C25	C	0.335931	-0.444925	-0.282710
C26	C	0.265239	-0.444937	-0.282719
C27	C	0.265249	-0.580829	-0.369397
C28	C	0.335936	-0.580821	-0.369393
C29	C	0.371273	-0.512871	-0.326045
C30	C	0.447922	-0.512857	-0.326043
C31	C	0.509014	-0.512851	-0.326046
C32	C	0.978170	-0.790465	-0.325979
C33	C	0.978189	-0.908770	-0.325953
C34	C	0.932959	-0.977999	-0.371144
C35	C	0.994717	-1.048788	-0.387681
C36	C	0.916480	-1.048780	-0.309375
C37	C	1.039978	-0.978002	-0.342524
C38	C	0.961700	-0.977987	-0.264189
C39	C	1.023500	-1.048745	-0.280703
C40	C	1.154667	-0.512879	-0.326051
C41	C	1.229899	-0.512894	-0.326057
C42	C	0.978047	-0.512805	-0.501894
C43	C	0.978076	-0.512824	-0.577126
C44	C	0.978118	-0.236303	-0.326048
C45	C	0.978230	-0.117998	-0.325883
C46	C	1.021352	-0.580962	-0.612401
C47	C	1.021377	-0.580982	-0.683089
C48	C	0.978128	-0.512858	-0.718502
C49	C	0.934847	-0.444717	-0.683222
C50	C	0.934820	-0.444703	-0.612535
C51	C	0.934956	-0.444771	-0.968295
C52	C	0.934988	-0.444788	-1.038987
C53	C	1.021513	-0.581050	-1.038849
C54	C	1.021485	-0.581037	-0.968162
C55	C	0.978202	-0.512900	-0.932889
C56	C	0.978175	-0.512881	-0.856240
C57	C	0.978158	-0.512871	-0.795149
C58	C	0.978220	-0.512906	-0.149495
C59	C	0.978261	-0.512932	-0.074263
H60	H	0.592239	-0.636117	-0.404671
O61	O	1.063450	-0.647014	-0.717434
C62	C	1.107207	-0.586473	-0.758299
H63	H	1.083360	-0.505782	-0.768939
H64	H	1.157361	-0.574840	-0.731023
C65	C	1.148756	-0.744163	-0.812345
C66	C	1.119464	-0.645060	-0.825418
H67	H	1.156320	-0.780303	-0.853746
H68	H	1.119278	-0.784952	-0.784812
H69	H	1.190548	-0.734455	-0.789613
H70	H	1.077670	-0.654769	-0.848142
H71	H	1.148935	-0.604274	-0.852956
H72	H	0.364695	-0.389588	-0.247419
H73	H	1.008685	-1.079888	-0.439884
O74	O	0.726098	-0.378819	-0.240686
C75	C	0.766939	-0.309944	-0.279167
H76	H	0.777516	-0.347339	-0.330490
H77	H	0.739672	-0.231048	-0.286543
C78	C	0.821104	-0.244845	-0.178873
C79	C	0.834100	-0.290778	-0.241907
H80	H	0.862531	-0.233017	-0.155889
H81	H	0.793587	-0.291243	-0.152947
H82	H	0.798380	-0.179103	-0.185029
H83	H	0.856816	-0.356524	-0.235750
H84	H	0.861622	-0.244389	-0.267831
H85	H	1.092197	-0.947042	-0.356575
H86	H	0.592218	-0.389575	-0.247407
O87	O	0.230822	-0.379081	-0.240590
C88	C	0.189973	-0.439806	-0.196919
H89	H	0.179406	-0.520406	-0.220853
H90	H	0.217228	-0.451630	-0.146760
C91	C	0.135790	-0.282296	-0.155245
C92	C	0.122806	-0.381287	-0.184644
H93	H	0.094359	-0.246197	-0.147670
H94	H	0.163312	-0.241383	-0.184665
H95	H	0.158504	-0.292163	-0.113449
H96	H	0.100100	-0.371418	-0.226442
H97	H	0.095278	-0.422197	-0.155230
H98	H	0.236468	-0.636161	-0.404691
O99	O	0.892825	-0.378625	-0.934114
C100	C	0.825363	-0.401798	-0.951426
H101	H	0.823967	-0.442733	-1.002730
H102	H	0.802523	-0.456467	-0.911636
C103	C	0.786124	-0.247692	-0.891772
C104	C	0.784409	-0.297960	-0.954787
H105	H	0.760861	-0.183641	-0.893843
H106	H	0.831574	-0.232081	-0.880106
H107	H	0.767092	-0.293260	-0.858620
H108	H	0.803449	-0.252398	-0.987936
H109	H	0.738961	-0.313561	-0.966459
H110	H	0.894740	-0.946936	-0.409419
H111	H	0.899767	-0.389311	-1.067818
O112	O	1.063455	-0.647363	-1.073148
C113	C	1.024910	-0.716044	-1.114049
H114	H	0.971592	-0.722536	-1.092787
H115	H	1.022608	-0.683144	-1.167638
C116	C	1.123426	-0.818768	-1.141173
C117	C	1.057941	-0.826749	-1.115055
H118	H	1.143802	-0.887055	-1.141797
H119	H	1.149395	-0.772494	-1.113620
H120	H	1.121499	-0.791347	-1.185829
H121	H	1.059870	-0.854156	-1.070398
H122	H	1.031973	-0.873030	-1.142602
O123	O	1.069293	-1.085529	-0.235152
C124	C	1.134263	-1.049247	-0.252835
H125	H	1.135516	-1.029482	-0.308998
H126	H	1.146836	-0.975082	-0.222351
C127	C	1.185019	-1.160775	-0.168484
C128	C	1.186559	-1.136508	-0.237466
H129	H	1.217279	-1.214599	-0.159001
H130	H	1.141248	-1.185217	-0.156569
H131	H	1.195495	-1.098964	-0.143089
H132	H	1.176075	-1.198316	-0.262859
H133	H	1.230330	-1.112079	-0.249385
H134	H	0.899631	-0.389253	-0.712060
O135	O	0.944898	-0.940894	-0.201951
C136	C	0.879753	-0.976913	-0.184696
H137	H	0.850530	-0.996792	-0.232651
H138	H	0.884057	-1.050954	-0.151833
C139	C	0.878146	-0.864970	-0.086565
C140	C	0.842252	-0.889378	-0.145464
H141	H	0.855014	-0.810978	-0.062361
H142	H	0.922036	-0.840706	-0.098187
H143	H	0.881730	-0.926679	-0.059186
H144	H	0.838676	-0.827673	-0.172844
H145	H	0.798360	-0.913630	-0.133845
H146	H	0.364713	-0.636142	-0.404685
O147	O	0.892759	-0.378415	-0.578371
C148	C	0.854579	-0.318309	-0.624783
H149	H	0.882325	-0.314665	-0.675148
H150	H	0.803166	-0.357219	-0.632331
C151	C	0.810766	-0.209486	-0.535390
C152	C	0.844847	-0.205004	-0.597248
H153	H	0.804760	-0.139596	-0.518405
H154	H	0.836486	-0.249983	-0.504121
H155	H	0.767925	-0.241916	-0.541689
H156	H	0.887690	-0.172586	-0.590947
H157	H	0.819134	-0.164499	-0.628516
H158	H	0.864277	-1.079870	-0.295382
H159	H	0.720473	-0.636093	-0.404669
H160	H	1.056573	-0.636432	-0.583573
H161	H	1.056705	-0.636506	-0.939332
