data_functionalizedCrystal
_audit_creation_method	'MofGen! by Chris Wilmer'
_symmetry_space_group_name_H-M	'P1'
_symmetry_Int_Tables_number	1
_symmetry_cell_setting	triclinic
loop_
_symmetry_equiv_pos_as_xyz
  x,y,z
_cell_length_a	12.811434
_cell_length_b	16.109301
_cell_length_c	15.186229
_cell_angle_alpha	89.999362
_cell_angle_beta	84.569910
_cell_angle_gamma	96.247067
loop_
_atom_site_label
_atom_site_type_symbol
_atom_site_fract_x
_atom_site_fract_y
_atom_site_fract_z
O1	O	0.134911	-1.103624	0.062395
O2	O	0.634911	-0.603624	0.562395
O3	O	0.151701	-0.861624	0.061068
O4	O	0.651701	-0.361624	0.561068
O5	O	-0.009488	-0.988715	0.073932
O6	O	0.490512	-0.488715	0.573932
O7	O	0.296099	-0.976534	0.049531
O8	O	0.796099	-0.476534	0.549531
O9	O	-0.009490	-0.988706	-0.072525
O10	O	0.490510	-0.488706	0.427475
O11	O	0.151698	-0.861615	-0.085389
O12	O	0.651698	-0.361615	0.414611
O13	O	0.134909	-1.103616	-0.084062
O14	O	0.634909	-0.603616	0.415938
Zn15	Zn	0.143303	-0.982614	-0.107979
Zn16	Zn	0.643303	-0.482614	0.392021
Zn17	Zn	0.143306	-0.982625	0.084985
Zn18	Zn	0.643306	-0.482625	0.584985
O19	O	0.296097	-0.976525	-0.096926
O20	O	0.796097	-0.476525	0.403074
C21	C	0.151020	-0.830642	-0.012105
C22	C	0.651020	-0.330642	0.487895
C23	C	0.148981	-0.738339	-0.011937
C24	C	0.648981	-0.238339	0.488063
N25	N	0.143301	-0.982613	-0.239671
N26	N	0.643301	-0.482613	0.260329
C27	C	-0.048592	-0.988029	0.003827
C28	C	0.451408	-0.488029	0.503827
C29	C	-0.165109	-0.985987	0.013137
C30	C	0.334891	-0.485987	0.513137
C31	C	-0.329332	-0.983110	0.106079
C32	C	0.170668	-0.483110	0.606079
C33	C	-0.219855	-0.985032	0.097341
C34	C	0.280145	-0.485032	0.597341
C35	C	-0.219849	-0.985023	-0.062335
C36	C	0.280151	-0.485023	0.437665
C37	C	-0.329326	-0.983102	-0.053598
C38	C	0.170674	-0.483102	0.446402
C39	C	-0.384063	-0.982144	0.030612
C40	C	0.115937	-0.482144	0.530612
C41	C	-0.493542	-0.980217	0.039349
C42	C	0.006458	-0.480217	0.539349
C43	C	-0.493535	-0.980214	-0.120327
C44	C	0.006465	-0.480214	0.379673
C45	C	-0.384057	-0.982135	-0.129064
C46	C	0.115943	-0.482135	0.370936
C47	C	0.335202	-0.977211	-0.026820
C48	C	0.835202	-0.477211	0.473180
C49	C	0.451719	-0.979253	-0.036123
C50	C	0.951719	-0.479253	0.463877
C51	C	0.135590	-1.134597	-0.010888
C52	C	0.635590	-0.634597	0.489112
C53	C	0.137629	-1.226900	-0.011050
C54	C	0.637629	-0.726900	0.488950
C55	C	0.239885	-0.516400	-0.019205
C56	C	0.739885	-0.016400	0.480795
C57	C	0.237961	-0.429672	-0.019057
C58	C	0.737961	0.070328	0.480943
C59	C	0.046717	-0.448847	-0.003783
C60	C	0.546717	0.051153	0.496217
C61	C	0.048642	-0.535572	-0.003938
C62	C	0.548642	-0.035572	0.496062
C63	C	0.145229	-0.569346	-0.011644
C64	C	0.645229	-0.069346	0.488356
C65	C	0.141380	-0.395893	-0.011342
C66	C	0.641380	0.104107	0.488658
C67	C	0.139293	-0.301860	-0.011182
C68	C	0.639293	0.198140	0.488818
C69	C	0.147317	-0.663386	-0.011807
C70	C	0.647317	-0.163386	0.488193
C71	C	0.071951	-1.038908	-0.459700
C72	C	0.571951	-0.538908	0.040300
C73	C	0.071948	-1.038910	-0.551889
C74	C	0.571948	-0.538910	-0.051889
C75	C	0.214654	-0.926332	-0.563287
C76	C	0.714654	-0.426332	-0.063287
C77	C	0.214651	-0.926326	-0.471099
C78	C	0.714651	-0.426326	0.028901
C79	C	0.143300	-0.982619	-0.419308
C80	C	0.643300	-0.482619	0.080692
C81	C	0.143301	-0.982627	-0.603686
C82	C	0.643301	-0.482627	-0.103686
C83	C	0.143299	-0.982630	-0.703642
C84	C	0.643299	-0.482630	-0.203642
C85	C	0.143301	-0.982616	-0.319345
C86	C	0.643301	-0.482616	0.180655
N87	N	0.143301	-0.982634	0.216678
N88	N	0.643301	-0.482634	0.716678
H89	H	-0.538106	-0.979431	0.107917
H90	H	-0.038106	-0.479431	0.607917
C91	C	-0.006545	-1.100824	-0.402732
C92	C	0.493455	-0.600824	0.097268
N93	N	-0.065675	-1.147459	-0.359826
N94	N	0.434325	-0.647459	0.140174
C95	C	-0.006551	-1.100826	-0.596315
C96	C	0.493449	-0.600826	-0.096315
N97	N	-0.065684	-1.147461	-0.629776
N98	N	0.434316	-0.647461	-0.129776
H99	H	0.318533	-0.543895	-0.025487
H100	H	0.818533	-0.043895	0.474513
H101	H	0.272748	-0.880502	-0.605465
H102	H	0.772748	-0.380502	-0.105465
C103	C	0.293193	-0.864439	-0.426669
C104	C	0.793193	-0.364439	0.073331
N105	N	0.352364	-0.817840	-0.393206
N106	N	0.852364	-0.317840	0.106794
H107	H	-0.373898	-0.982318	0.174645
H108	H	0.126102	-0.482318	0.674645
H109	H	-0.175264	-0.985812	-0.130895
H110	H	0.324736	-0.485812	0.369105
C111	C	-0.159653	-0.986092	0.180361
C112	C	0.340347	-0.486092	0.680361
N113	N	-0.114310	-0.986890	0.242895
N114	N	0.385690	-0.486890	0.742895
H115	H	-0.031921	-0.421337	0.002486
H116	H	0.468079	0.078663	0.502486
C117	C	-0.323833	-0.983182	-0.221690
C118	C	0.176167	-0.483182	0.278310
N119	N	-0.278471	-0.983965	-0.291458
N120	N	0.221529	-0.483965	0.208542
H121	H	-0.538108	-0.979421	-0.181777
H122	H	-0.038108	-0.479421	0.318223
H123	H	0.315040	-0.386566	-0.025216
H124	H	0.815040	0.113434	0.474784
C125	C	-0.055492	-0.593818	0.004380
C126	C	0.444508	-0.093818	0.504380
N127	N	-0.133923	-0.637688	0.010643
N128	N	0.366077	-0.137688	0.510643
