data_functionalizedCrystal
_audit_creation_method	'MofGen! by Chris Wilmer'
_symmetry_space_group_name_H-M	'P1'
_symmetry_Int_Tables_number	1
_symmetry_cell_setting	triclinic
loop_
_symmetry_equiv_pos_as_xyz
  x,y,z
_cell_length_a	12.759401
_cell_length_b	12.594516
_cell_length_c	12.759393
_cell_angle_alpha	89.973050
_cell_angle_beta	89.980186
_cell_angle_gamma	90.017577
loop_
_atom_site_label
_atom_site_type_symbol
_atom_site_fract_x
_atom_site_fract_y
_atom_site_fract_z
Zn1	Zn	1.606245	-0.423659	-0.594038
Zn2	Zn	1.606135	-0.601671	-0.418366
Zn3	Zn	1.430547	-0.423712	-0.418373
Zn4	Zn	1.430531	-0.601600	-0.594003
O5	O	1.518365	-0.512661	-0.506195
O6	O	1.753251	-0.447280	-0.570746
O7	O	1.582804	-0.578117	-0.271345
O8	O	1.453906	-0.274759	-0.441693
O9	O	1.753171	-0.578065	-0.441680
O10	O	1.582991	-0.274720	-0.570754
O11	O	1.453800	-0.447371	-0.271351
O12	O	1.283524	-0.447302	-0.441659
O13	O	1.453879	-0.577944	-0.741029
O14	O	1.283512	-0.577996	-0.570694
O15	O	1.582975	-0.447211	-0.741054
O16	O	1.582789	-0.750608	-0.441646
O17	O	1.453773	-0.750556	-0.570686
C18	C	1.245397	-0.512648	-0.506174
C19	C	1.128621	-0.512668	-0.506190
C20	C	1.073780	-0.580824	-0.573272
C21	C	0.964056	-0.580828	-0.573293
C22	C	0.964023	-0.444517	-0.439140
C23	C	1.073745	-0.444508	-0.439125
C24	C	0.814157	-0.619022	-0.697155
C25	C	0.759313	-0.687195	-0.764229
C26	C	0.794908	-0.791068	-0.780181
C27	C	0.885345	-0.826790	-0.729045
C28	C	0.940184	-0.758623	-0.661964
C29	C	0.904590	-0.654735	-0.646031
C30	C	1.223646	-0.406325	-0.315262
C31	C	1.278486	-0.338163	-0.248175
C32	C	1.242894	-0.234287	-0.232212
C33	C	1.152453	-0.198569	-0.283330
C34	C	1.097612	-0.266731	-0.350417
C35	C	1.133213	-0.370606	-0.366381
C36	C	1.518296	-0.789202	-0.506185
C37	C	1.518362	-0.907507	-0.506215
C38	C	1.448184	-0.976771	-0.576351
C39	C	1.422585	-1.047638	-0.480484
C40	C	1.544057	-1.047439	-0.602099
C41	C	1.492712	-0.976816	-0.410297
C42	C	1.614230	-0.976611	-0.531977
C43	C	1.588667	-1.047446	-0.436044
C44	C	1.792398	-0.512675	-0.506216
C45	C	1.909174	-0.512680	-0.506226
C46	C	1.518438	-0.512564	-0.780228
C47	C	1.518469	-0.512523	-0.897005
C48	C	1.518462	-0.235040	-0.506228
C49	C	1.518504	-0.116734	-0.506242
C50	C	1.585645	-0.580572	-0.951868
C51	C	1.585676	-0.580519	-1.061592
C52	C	1.451346	-0.444365	-1.061581
C53	C	1.451321	-0.444413	-0.951859
C54	C	1.709601	-0.618491	-1.211556
C55	C	1.776767	-0.686557	-1.266423
C56	C	1.792851	-0.790430	-1.230810
C57	C	1.741753	-0.826259	-1.140332
C58	C	1.674579	-0.758199	-1.085471
C59	C	1.658515	-0.654311	-1.121082
C60	C	1.327395	-0.406452	-0.801893
C61	C	1.260214	-0.338396	-0.747030
C62	C	1.244119	-0.234521	-0.782640
C63	C	1.295199	-0.198697	-0.873122
C64	C	1.362379	-0.266752	-0.927985
C65	C	1.378476	-0.370626	-0.892366
C66	C	1.518352	-0.512680	-0.233227
C67	C	1.518524	-0.512422	-0.116451
H68	H	1.118457	-0.636321	-0.627883
C69	C	1.667727	-1.088726	-0.356811
C70	C	1.616121	-1.151393	-0.282242
C71	C	1.688912	-1.189451	-0.209242
H72	H	1.700744	-1.030541	-0.322867
H73	H	1.719088	-1.130237	-0.391824
H74	H	1.564778	-1.109884	-0.247233
H75	H	1.583108	-1.209593	-0.316155
H76	H	1.740273	-1.230963	-0.244254
H77	H	1.721925	-1.131261	-0.175306
H78	H	1.653909	-1.231983	-0.158643
C79	C	1.302269	-0.160302	-0.159215
C80	C	1.236113	-0.128222	-0.077594
C81	C	1.290772	-0.060076	-0.010327
H82	H	1.325279	-0.099722	-0.197171
H83	H	1.361208	-0.196429	-0.130979
H84	H	1.177193	-0.092095	-0.105828
H85	H	1.213100	-0.188779	-0.039612
H86	H	1.349711	-0.096204	0.017909
H87	H	1.313780	0.000498	-0.048291
H88	H	1.245896	-0.038310	0.045066
H89	H	1.754843	-0.910848	-1.111351
H90	H	1.396674	-0.388915	-1.106256
H91	H	1.696522	-0.533906	-1.240554
H92	H	1.403984	-0.237569	-1.001650
H93	H	1.388730	-0.945737	-0.635576
H94	H	1.632972	-0.787371	-1.011809
C95	C	1.038364	-0.797581	-0.606568
C96	C	1.057809	-0.903141	-0.634899
C97	C	1.148251	-0.939063	-0.583899
H98	H	1.028608	-0.793285	-0.532884
H99	H	1.096291	-0.754644	-0.626456
H100	H	0.999896	-0.946066	-0.615004
H101	H	1.067584	-0.907465	-0.708574
H102	H	1.206178	-0.896126	-0.603787
H103	H	1.138486	-0.934760	-0.510218
H104	H	1.161461	-1.010685	-0.603122
H105	H	1.340500	-0.491034	-0.772885
C106	C	1.171171	-0.160777	-0.722906
C107	C	1.129887	-0.214372	-0.636036
C108	C	1.062697	-0.146468	-0.580983
H109	H	1.115621	-0.138896	-0.767497
H110	H	1.209160	-0.100243	-0.699878
H111	H	1.091899	-0.274887	-0.659065
H112	H	1.185412	-0.236251	-0.591420
H113	H	1.100686	-0.085934	-0.557955
H114	H	1.007153	-0.124591	-0.625582
H115	H	1.034685	-0.182820	-0.522031
H116	H	0.914313	-0.911379	-0.742030
C117	C	1.113632	-0.085867	-0.265877
C118	C	1.012324	-0.088826	-0.223774
C119	C	0.976536	0.014974	-0.207664
H120	H	1.112514	-0.048952	-0.330803
H121	H	1.159191	-0.050367	-0.218563
H122	H	0.966777	-0.124310	-0.271086
H123	H	1.013415	-0.125721	-0.158841
H124	H	1.022094	0.050474	-0.160350
H125	H	0.975423	0.051881	-0.272594
H126	H	0.907799	0.012981	-0.179087
H127	H	1.252641	-0.490906	-0.328263
H128	H	0.750246	-0.846574	-0.834795
C129	C	1.314655	-1.089452	-0.451402
C130	C	1.316428	-1.200605	-0.450855
C131	C	1.217025	-1.239156	-0.424065
H132	H	1.264730	-1.065374	-0.501237
H133	H	1.295957	-1.064292	-0.383750
H134	H	1.335113	-1.225754	-0.518498
H135	H	1.366333	-1.224711	-0.401019
H136	H	1.198327	-1.213997	-0.356413
H137	H	1.167107	-1.215071	-0.473903
H138	H	1.218217	-1.314576	-0.423681
C139	C	1.463647	-0.935425	-0.302246
C140	C	1.463841	-0.824263	-0.303511
C141	C	1.437054	-0.786095	-0.204001
H142	H	1.513193	-0.960076	-0.252305
H143	H	1.395781	-0.960278	-0.283833
H144	H	1.531697	-0.799421	-0.321910
H145	H	1.414294	-0.799584	-0.353431
H146	H	1.369188	-0.810947	-0.185589
H147	H	1.486603	-0.810753	-0.154068
H148	H	1.437173	-0.710668	-0.204849
C149	C	1.865678	-0.864270	-1.290569
C150	C	1.828494	-0.877237	-1.392996
C151	C	1.895565	-0.945233	-1.448083
H152	H	1.867991	-0.931326	-1.256541
H153	H	1.934089	-0.834530	-1.292500
H154	H	1.760102	-0.906981	-1.391060
H155	H	1.826186	-0.810201	-1.427053
H156	H	1.963976	-0.915493	-1.450013
H157	H	1.897874	-1.012283	-1.414046
H158	H	1.870351	-0.954032	-1.517587
H159	H	0.685679	-0.658099	-0.805865
H160	H	0.785174	-0.534437	-0.684184
C161	C	1.832450	-0.647738	-1.364566
C162	C	1.940992	-0.654238	-1.349825
C163	C	1.992320	-0.618504	-1.440214
H164	H	1.813394	-0.576111	-1.377997
H165	H	1.812707	-0.690733	-1.422451
H166	H	1.960727	-0.611242	-1.291957
H167	H	1.960079	-0.725854	-1.336408
H168	H	1.972577	-0.661499	-1.498100
H169	H	1.973255	-0.546879	-1.453638
H170	H	2.065970	-0.622918	-1.430229
H171	H	1.695218	-0.945392	-0.553791
H172	H	1.640331	-0.636021	-0.907209
H173	H	0.919329	-0.389026	-0.384537
H174	H	1.023975	-0.237638	-0.392047
H175	H	1.352128	-0.367254	-0.206551
C176	C	1.572823	-1.088658	-0.710296
C177	C	1.499029	-1.052824	-0.783383
C178	C	1.525492	-1.090758	-0.883067
H179	H	1.573277	-1.164074	-0.709518
H180	H	1.640378	-1.063262	-0.729124
H181	H	1.431492	-1.078226	-0.764560
H182	H	1.498564	-0.977413	-0.784194
H183	H	1.593047	-1.065362	-0.901895
H184	H	1.525946	-1.166173	-0.882278
H185	H	1.475433	-1.066443	-0.932670
H186	H	1.282094	-0.114113	-0.902117
H187	H	1.218613	-0.367578	-0.673362
