data_functionalizedCrystal
_audit_creation_method	'MofGen! by Chris Wilmer'
_symmetry_space_group_name_H-M	'P1'
_symmetry_Int_Tables_number	1
_symmetry_cell_setting	triclinic
loop_
_symmetry_equiv_pos_as_xyz
  x,y,z
_cell_length_a	18.215407
_cell_length_b	14.908579
_cell_length_c	18.215399
_cell_angle_alpha	86.728464
_cell_angle_beta	89.983115
_cell_angle_gamma	86.680628
loop_
_atom_site_label
_atom_site_type_symbol
_atom_site_fract_x
_atom_site_fract_y
_atom_site_fract_z
Zn1	Zn	1.108164	0.359226	-0.432986
Zn2	Zn	1.441497	0.692559	-0.099653
Zn3	Zn	1.774831	1.025892	0.233680
Zn4	Zn	1.100974	0.510095	-0.317026
Zn5	Zn	1.434307	0.843429	0.016308
Zn6	Zn	1.767640	1.176762	0.349641
Zn7	Zn	0.985096	0.359248	-0.309940
Zn8	Zn	1.318430	0.692582	0.023393
Zn9	Zn	1.651763	1.025915	0.356727
Zn10	Zn	0.977965	0.510036	-0.440053
Zn11	Zn	1.311299	0.843369	-0.106720
Zn12	Zn	1.644632	1.176703	0.226614
O13	O	1.043050	0.434651	-0.375001
O14	O	1.376383	0.767985	-0.041668
O15	O	1.709716	1.101318	0.291665
O16	O	1.210194	0.379254	-0.417612
O17	O	1.543527	0.712588	-0.084278
O18	O	1.876860	1.045921	0.249055
O19	O	1.085577	0.490119	-0.213103
O20	O	1.418911	0.823453	0.120230
O21	O	1.752244	1.156786	0.453564
O22	O	1.007415	0.233001	-0.320339
O23	O	1.340748	0.566334	0.012994
O24	O	1.674082	0.899667	0.346327
O25	O	1.204911	0.490097	-0.332416
O26	O	1.538244	0.823431	0.000917
O27	O	1.871578	1.156764	0.334251
O28	O	1.097832	0.232984	-0.410741
O29	O	1.431165	0.566317	-0.077408
O30	O	1.764499	0.899651	0.255926
O31	O	1.000443	0.379293	-0.207897
O32	O	1.333776	0.712626	0.125436
O33	O	1.667110	1.045960	0.458769
O34	O	0.881167	0.379235	-0.327192
O35	O	1.214500	0.712569	0.006141
O36	O	1.547834	1.045902	0.339475
O37	O	0.995261	0.489997	-0.542098
O38	O	1.328595	0.823330	-0.208765
O39	O	1.661928	1.156663	0.124568
O40	O	0.875928	0.490019	-0.422785
O41	O	1.209261	0.823352	-0.089452
O42	O	1.542594	1.156685	0.243881
O43	O	1.090918	0.379197	-0.536906
O44	O	1.424251	0.712530	-0.203573
O45	O	1.757584	1.045863	0.129760
O46	O	1.078663	0.636332	-0.339268
O47	O	1.411996	0.969665	-0.005935
O48	O	1.745330	1.302999	0.327398
O49	O	0.988289	0.636289	-0.429656
O50	O	1.321623	0.969622	-0.096323
O51	O	1.654956	1.302955	0.237011
C52	C	0.851845	0.434624	-0.374987
C53	C	1.185178	0.767957	-0.041654
C54	C	1.518512	1.101290	0.291680
C55	C	0.770046	0.434634	-0.374999
C56	C	1.103379	0.767967	-0.041666
C57	C	1.436712	1.101300	0.291667
C58	C	0.584596	0.377036	-0.419441
C59	C	0.917929	0.710370	-0.086107
C60	C	1.251262	1.043703	0.247226
C61	C	0.507737	0.377044	-0.419444
C62	C	0.841070	0.710377	-0.086110
C63	C	1.174403	1.043711	0.247223
C64	C	0.502255	0.492292	-0.330576
C65	C	0.835588	0.825625	0.002758
C66	C	1.168921	1.158959	0.336091
C67	C	0.579113	0.492279	-0.330569
C68	C	0.912446	0.825612	0.002764
C69	C	1.245779	1.158946	0.336097
C70	C	0.620281	0.434652	-0.375006
C71	C	0.953614	0.767986	-0.041673
C72	C	1.286948	1.101319	0.291660
C73	C	0.466564	0.434673	-0.375015
C74	C	0.799897	0.768006	-0.041682
C75	C	1.133231	1.101340	0.291651
C76	C	0.383230	0.434682	-0.375018
C77	C	0.716563	0.768015	-0.041685
C78	C	1.049897	1.101349	0.291649
C79	C	0.703621	0.434642	-0.375003
C80	C	1.036954	0.767976	-0.041669
C81	C	1.370287	1.101309	0.291664
C82	C	1.031942	0.669044	-0.386014
C83	C	1.365275	1.002378	-0.052681
C84	C	1.698609	1.335711	0.280653
C85	C	1.027257	0.769318	-0.390750
C86	C	1.360591	1.102652	-0.057416
C87	C	1.693924	1.435985	0.275917
C88	C	1.112657	0.957729	-0.305604
C89	C	1.445991	1.291062	0.027729
C90	C	1.779324	1.624395	0.361062
C91	C	1.108258	1.051945	-0.310052
C92	C	1.441591	1.385278	0.023282
C93	C	1.774925	1.718612	0.356615
C94	C	1.014064	1.051970	-0.404095
C95	C	1.347397	1.385303	-0.070762
C96	C	1.680731	1.718637	0.262571
C97	C	1.018463	0.957753	-0.399648
C98	C	1.351797	1.291087	-0.066315
C99	C	1.685130	1.624420	0.267019
C100	C	1.067761	0.910636	-0.350400
C101	C	1.401094	1.243969	-0.017067
C102	C	1.734427	1.577303	0.316267
C103	C	1.072156	0.816418	-0.345949
C104	C	1.405489	1.149751	-0.012616
C105	C	1.738822	1.483084	0.320717
C106	C	0.977966	0.816444	-0.439996
C107	C	1.311299	1.149777	-0.106663
C108	C	1.644632	1.483111	0.226671
C109	C	0.973567	0.910661	-0.444444
C110	C	1.306900	1.243994	-0.111110
C111	C	1.640233	1.577327	0.222223
C112	C	1.235001	0.434680	-0.375016
C113	C	1.568335	0.768013	-0.041683
C114	C	1.901668	1.101347	0.291651
C115	C	1.316800	0.434692	-0.375022
C116	C	1.650133	0.768025	-0.041689
C117	C	1.983466	1.101359	0.291644
C118	C	1.043096	0.434588	-0.566951
C119	C	1.376429	0.767921	-0.233618
C120	C	1.709763	1.101254	0.099715
C121	C	1.043116	0.434560	-0.648749
C122	C	1.376449	0.767894	-0.315416
C123	C	1.709782	1.101227	0.017918
C124	C	1.054216	1.199343	-0.363971
C125	C	1.387550	1.532677	-0.030638
C126	C	1.720883	1.866010	0.302696
C127	C	1.058962	1.099069	-0.359295
C128	C	1.392296	1.432402	-0.025961
C129	C	1.725629	1.765736	0.307372
C130	C	1.092955	0.376789	-0.911101
C131	C	1.426288	0.710122	-0.577767
C132	C	1.759621	1.043456	-0.244434
C133	C	1.092945	0.376813	-0.834243
C134	C	1.426278	0.710147	-0.500910
C135	C	1.759612	1.043480	-0.167576
C136	C	0.993343	0.492201	-0.839640
C137	C	1.326676	0.825534	-0.506306
C138	C	1.660009	1.158867	-0.172973
C139	C	0.993357	0.492180	-0.916496
C140	C	1.326690	0.825514	-0.583163
C141	C	1.660023	1.158847	-0.249829
C142	C	1.043162	0.434469	-0.952224
C143	C	1.376495	0.767803	-0.618891
C144	C	1.709828	1.101136	-0.285558
C145	C	1.043138	0.434514	-0.798510
C146	C	1.376471	0.767847	-0.465177
C147	C	1.709805	1.101181	-0.131844
C148	C	1.043127	0.434541	-0.715178
C149	C	1.376460	0.767874	-0.381844
C150	C	1.709794	1.101208	-0.048511
C151	C	1.043174	0.434443	-1.035562
C152	C	1.376507	0.767777	-0.702229
C153	C	1.709841	1.101110	-0.368895
C154	C	1.043049	0.434650	-0.183795
C155	C	1.376383	0.767983	0.149538
C156	C	1.709716	1.101317	0.482872
C157	C	1.043184	0.434423	-0.101986
C158	C	1.376517	0.767756	0.231348
C159	C	1.709851	1.101090	0.564681
H160	H	0.618113	0.330110	-0.455622
H161	H	0.951446	0.663444	-0.122288
H162	H	1.284780	0.996777	0.211045
C163	C	0.938576	0.555635	-0.961735
C164	C	1.271910	0.888968	-0.628401
C165	C	1.605243	1.222301	-0.295068
N166	N	0.897318	0.603428	-0.995809
N167	N	1.230652	0.936761	-0.662475
N168	N	1.563985	1.270094	-0.329142
C169	C	1.147718	0.313356	-0.789010
C170	C	1.481051	0.646689	-0.455677
C171	C	1.814384	0.980022	-0.122343
N172	N	1.188974	0.265556	-0.754941
N173	N	1.522308	0.598889	-0.421608
N174	N	1.855641	0.932222	-0.088274
H175	H	0.608168	0.539198	-0.294382
H176	H	0.941502	0.872531	0.038952
H177	H	1.274835	1.205865	0.372285
C178	C	0.456962	0.555683	-0.281703
C179	C	0.790296	0.889017	0.051630
C180	C	1.123629	1.222350	0.384964
N181	N	0.422849	0.603434	-0.244893
N182	N	0.756182	0.936767	0.088441
N183	N	1.089515	1.270100	0.421774
C184	C	1.166882	0.905898	-0.251430
C185	C	1.500216	1.239231	0.081903
C186	C	1.833549	1.572564	0.415237
N187	N	1.207727	0.866860	-0.210626
N188	N	1.541060	1.200193	0.122707
N189	N	1.874394	1.533526	0.456041
H190	H	0.952792	0.539186	-0.810540
H191	H	1.286125	0.872519	-0.477207
H192	H	1.619459	1.205852	-0.143873
C193	C	1.126383	0.764590	-0.291776
C194	C	1.459717	1.097923	0.041557
C195	C	1.793050	1.431257	0.374891
N196	N	1.167231	0.725556	-0.250973
N197	N	1.500564	1.058889	0.082361
N198	N	1.833898	1.392223	0.415694
C199	C	0.468486	0.313664	-0.468327
C200	C	0.801819	0.646997	-0.134994
C201	C	1.135153	0.980331	0.198339
N202	N	0.438923	0.265924	-0.505149
N203	N	0.772257	0.599257	-0.171816
N204	N	1.105590	0.932590	0.161517
H205	H	1.133509	0.329796	-0.940188
H206	H	1.466842	0.663130	-0.606855
H207	H	1.800176	0.996463	-0.273522
H208	H	1.144819	1.090284	-0.273576
H209	H	1.478152	1.423618	0.059758
H210	H	1.811486	1.756951	0.393091
H211	H	0.973933	1.090349	-0.444195
H212	H	1.307267	1.423682	-0.110862
H213	H	1.640600	1.757016	0.222471
C214	C	0.919338	0.962500	-0.498609
C215	C	1.252672	1.295834	-0.165276
C216	C	1.586005	1.629167	0.168057
N217	N	0.878489	1.001545	-0.539405
N218	N	1.211822	1.334879	-0.206071
N219	N	1.545156	1.668212	0.127262
C220	C	0.928576	0.764635	-0.489275
C221	C	1.261910	1.097968	-0.155941
C222	C	1.595243	1.431301	0.177392
N223	N	0.891376	0.725611	-0.526389
N224	N	1.224709	1.058944	-0.193056
N225	N	1.558043	1.392277	0.140278
