data_functionalizedCrystal
_audit_creation_method	'MofGen! by Chris Wilmer'
_symmetry_space_group_name_H-M	'P1'
_symmetry_Int_Tables_number	1
_symmetry_cell_setting	triclinic
loop_
_symmetry_equiv_pos_as_xyz
  x,y,z
_cell_length_a	12.759401
_cell_length_b	12.759400
_cell_length_c	12.759401
_cell_angle_alpha	89.989515
_cell_angle_beta	89.995476
_cell_angle_gamma	90.015101
loop_
_atom_site_label
_atom_site_type_symbol
_atom_site_fract_x
_atom_site_fract_y
_atom_site_fract_z
Zn1	Zn	-1.606086	0.418411	0.594047
Zn2	Zn	-1.606031	0.594065	0.418367
Zn3	Zn	-1.430438	0.418402	0.418379
Zn4	Zn	-1.430377	0.594050	0.594001
O5	O	-1.518233	0.506232	0.506198
O6	O	-1.753100	0.441722	0.570756
O7	O	-1.582740	0.570766	0.271348
O8	O	-1.453787	0.271383	0.441706
O9	O	-1.753059	0.570775	0.441685
O10	O	-1.582835	0.271389	0.570768
O11	O	-1.453733	0.441707	0.271356
O12	O	-1.283409	0.441692	0.441662
O13	O	-1.453683	0.570748	0.741028
O14	O	-1.283364	0.570740	0.570690
O15	O	-1.582776	0.441707	0.741062
O16	O	-1.582681	0.741084	0.441641
O17	O	-1.453629	0.741073	0.570679
C18	C	-1.245266	0.506214	0.506173
C19	C	-1.128489	0.506232	0.506187
C20	C	-1.518171	0.779200	0.506176
C21	C	-1.518240	0.895976	0.506202
C22	C	-0.963929	0.439148	0.573506
C23	C	-1.073653	0.439147	0.573497
C24	C	-1.073595	0.573328	0.438888
C25	C	-0.963873	0.573333	0.438903
C26	C	-0.963964	0.361676	0.651218
C27	C	-1.073688	0.361676	0.651210
C28	C	-1.518229	0.506227	0.780232
C29	C	-1.518227	0.506225	0.897008
C30	C	-0.792266	0.506246	0.506218
C31	C	-0.909043	0.506237	0.506210
C32	C	-1.518324	0.232199	0.506243
C33	C	-1.518363	0.115422	0.506263
C34	C	-1.585512	0.950809	0.439087
C35	C	-1.585577	1.060533	0.439119
C36	C	-1.451088	1.060582	0.573386
C37	C	-1.451030	0.950860	0.573358
C38	C	-1.663155	0.950782	0.361566
C39	C	-1.663219	1.060506	0.361598
C40	C	-1.585439	0.439047	0.951889
C41	C	-1.585433	0.439049	1.061613
C42	C	-1.450999	0.573417	1.061566
C43	C	-1.451001	0.573408	0.951844
C44	C	-1.663057	0.361474	0.951918
C45	C	-1.663050	0.361477	1.061642
C46	C	-1.518226	0.506254	1.233231
C47	C	-1.518219	0.506236	1.116454
H48	H	-0.919189	0.627973	0.384113
H49	H	-1.396264	0.628113	1.106226
O50	O	-1.127022	0.638400	0.373540
C51	C	-1.296028	0.697913	0.313911
C52	C	-1.235657	0.624149	0.387956
H53	H	-1.383870	0.686432	0.325556
H54	H	-1.274523	0.679334	0.229205
H55	H	-1.274372	0.782645	0.332208
H56	H	-1.257280	0.539392	0.369753
H57	H	-1.257167	0.642817	0.472640
O58	O	-1.114250	0.396408	0.743447
C59	C	-1.126016	0.370585	0.930164
C60	C	-1.080030	0.331123	0.825780
H61	H	-1.098349	0.317835	0.996760
H62	H	-1.215251	0.368932	0.925983
H63	H	-1.098430	0.454261	0.945030
H64	H	-1.107536	0.247436	0.810850
H65	H	-0.990799	0.332854	0.830012
H66	H	-1.641505	1.090339	0.280217
H67	H	-0.934200	0.383590	0.732556
O68	O	-1.760156	0.387556	1.097004
C69	C	-1.937126	0.434934	1.051198
C70	C	-1.827204	0.405436	1.011009
H71	H	-1.991371	0.449376	0.981692
H72	H	-1.931850	0.509068	1.100779
H73	H	-1.969551	0.368114	1.100890
H74	H	-1.794715	0.472187	0.961274
H75	H	-1.832546	0.331269	0.961484
H76	H	-1.740338	0.390630	0.917885
H77	H	-1.744492	0.920932	0.383420
H78	H	-0.929942	0.284339	0.622210
O79	O	-1.637273	0.264371	0.916357
C80	C	-1.690615	0.114422	0.814702
C81	C	-1.719959	0.224365	0.854923
H82	H	-1.757440	0.082053	0.765007
H83	H	-1.676148	0.060108	0.884163
H84	H	-1.616487	0.119745	0.765098
H85	H	-1.794101	0.219143	0.904510
H86	H	-1.734358	0.278636	0.785416
O87	O	-1.109064	0.264527	0.625274
C88	C	-1.063282	0.087490	0.578147
C89	C	-1.023077	0.197455	0.607503
H90	H	-0.993783	0.033225	0.563793
H91	H	-1.112855	0.092657	0.503995
H92	H	-1.112985	0.055160	0.645001
H93	H	-0.973330	0.229848	0.540717
H94	H	-0.973561	0.192221	0.681687
O95	O	-1.385587	0.897757	0.638590
C96	C	-1.252248	0.909388	0.771817
C97	C	-1.326296	0.969657	0.697975
H98	H	-1.204308	0.967493	0.819864
H99	H	-1.197250	0.858114	0.723573
H100	H	-1.300431	0.857926	0.826733
H101	H	-1.278198	1.021176	0.643044
H102	H	-1.381297	1.020864	0.746285
H103	H	-1.634052	0.916807	0.284238
O104	O	-1.385834	1.114060	0.638515
C105	C	-1.326371	1.283113	0.698117
C106	C	-1.400309	1.222684	0.624287
H107	H	-1.338065	1.370946	0.686655
H108	H	-1.241634	1.261698	0.679586
H109	H	-1.344731	1.261420	0.782831
H110	H	-1.382045	1.244344	0.539548
H111	H	-1.485025	1.244104	0.642908
O112	O	-1.755511	1.100851	0.396430
C113	C	-1.928816	1.064266	0.461998
C114	C	-1.824365	1.018434	0.422547
H115	H	-1.984505	0.997654	0.483144
H116	H	-1.965461	1.114516	0.397848
H117	H	-1.913775	1.114571	0.534282
H118	H	-1.839316	0.968082	0.350281
H119	H	-1.787751	0.968244	0.486760
O120	O	-1.385739	0.638560	0.898369
C121	C	-1.326199	0.698138	0.729316
C122	C	-1.400148	0.624282	0.789745
H123	H	-1.337839	0.686636	0.641483
H124	H	-1.241468	0.679672	0.750809
H125	H	-1.344598	0.782848	0.750933
H126	H	-1.381844	0.539547	0.768161
H127	H	-1.484857	0.642838	0.768247
O128	O	-1.628341	0.269179	1.102096
C129	C	-1.562976	0.095795	1.065716
C130	C	-1.602289	0.200252	1.019761
H131	H	-1.541882	0.040046	0.999171
H132	H	-1.627181	0.059236	1.115984
H133	H	-1.490685	0.110803	1.116030
H134	H	-1.674561	0.185333	0.969401
H135	H	-1.538020	0.236778	0.969553
