data_functionalizedCrystal
_audit_creation_method	'MofGen! by Chris Wilmer'
_symmetry_space_group_name_H-M	'P1'
_symmetry_Int_Tables_number	1
_symmetry_cell_setting	triclinic
loop_
_symmetry_equiv_pos_as_xyz
  x,y,z
_cell_length_a	16.109302
_cell_length_b	13.330367
_cell_length_c	16.109301
_cell_angle_alpha	90.006067
_cell_angle_beta	83.461631
_cell_angle_gamma	90.009495
loop_
_atom_site_label
_atom_site_type_symbol
_atom_site_fract_x
_atom_site_fract_y
_atom_site_fract_z
O1	O	1.103135	0.083472	0.106869
O2	O	0.861073	0.083464	0.120168
O3	O	0.988754	0.083458	-0.007512
O4	O	0.975455	0.083478	0.234550
O5	O	0.988735	-0.083389	-0.007515
O6	O	0.861055	-0.083383	0.120165
O7	O	1.103117	-0.083375	0.106867
Cu8	Cu	0.982084	-0.098614	0.113516
Cu9	Cu	0.982106	0.098702	0.113519
O10	O	0.975436	-0.083369	0.234547
C11	C	0.830089	0.000040	0.119628
C12	C	0.737794	0.000036	0.118013
C13	C	0.525443	-0.090902	0.114276
C14	C	0.438723	-0.090899	0.112749
C15	C	0.438754	0.091007	0.112757
C16	C	0.525473	0.091003	0.114277
C17	C	0.568815	0.000045	0.115041
C18	C	0.395375	0.000053	0.111994
C19	C	0.301350	0.000057	0.110338
C20	C	0.662847	0.000040	0.116695
N21	N	0.982075	-0.237395	0.113513
C22	C	0.925567	-0.710015	0.170034
C23	C	1.038668	-0.709989	0.056998
C24	C	1.038658	-0.604970	0.056995
C25	C	0.982103	-0.552470	0.113514
C26	C	0.925557	-0.604987	0.170035
C27	C	1.095209	-0.552445	0.000481
C28	C	1.095202	-0.447420	0.000477
C29	C	1.038642	-0.394918	0.056992
C30	C	0.982094	-0.447442	0.113515
C31	C	0.925538	-0.394941	0.170033
C32	C	0.868985	-0.447463	0.226552
C33	C	0.868997	-0.552484	0.226550
C34	C	1.038630	-0.289896	0.056995
C35	C	0.925529	-0.289913	0.170034
C36	C	1.134101	0.000051	0.107407
C37	C	1.226396	0.000061	0.109022
C38	C	0.988206	0.000034	-0.038488
C39	C	0.986591	0.000032	-0.130784
N40	N	0.982122	0.237484	0.113515
C41	C	1.058599	0.000051	-0.353056
C42	C	1.057074	0.000059	-0.439776
C43	C	0.905586	0.000050	-0.419902
C44	C	0.907111	0.000049	-0.333184
C45	C	0.983620	0.000044	-0.299763
C46	C	0.980571	0.000053	-0.473202
C47	C	0.978918	0.000062	-0.567228
C48	C	0.985273	0.000037	-0.205731
C49	C	0.975984	0.000057	0.265523
C50	C	0.977599	0.000065	0.357819
H51	H	0.560787	0.165067	0.114898
H52	H	0.879471	-0.247173	0.216055
H53	H	0.822954	-0.595254	0.272566
O54	O	0.864578	-0.766651	0.231001
H55	H	0.824185	-0.814523	0.195997
O56	O	0.807972	-0.390835	0.287498
H57	H	0.817465	-0.308985	0.277993
H58	H	1.141250	-0.404663	-0.045544
O59	O	1.099666	-0.766607	-0.003959
H60	H	1.090171	-0.848459	0.005534
O61	O	1.156207	-0.609065	-0.060474
H62	H	1.146705	-0.690917	-0.050985
H63	H	1.084679	-0.247137	0.010981
H64	H	1.120897	0.000049	-0.325848
H65	H	0.560729	-0.164966	0.114898
O66	O	1.137944	0.000053	-0.497260
H67	H	1.191397	0.000039	-0.459448
H68	H	0.843295	0.000052	-0.447124
O69	O	0.826234	0.000030	-0.275698
H70	H	0.789620	0.068025	-0.287574
O71	O	0.391939	-0.188991	0.111932
H72	H	0.436648	-0.252235	0.112725
H73	H	0.403454	0.165061	0.112135
