data_functionalizedCrystal
_audit_creation_method	'MofGen! by Chris Wilmer'
_symmetry_space_group_name_H-M	'P1'
_symmetry_Int_Tables_number	1
_symmetry_cell_setting	triclinic
loop_
_symmetry_equiv_pos_as_xyz
  x,y,z
_cell_length_a	6.817900
_cell_length_b	9.582889
_cell_length_c	14.858572
_cell_angle_alpha	92.654507
_cell_angle_beta	104.524003
_cell_angle_gamma	111.207298
loop_
_atom_site_label
_atom_site_type_symbol
_atom_site_fract_x
_atom_site_fract_y
_atom_site_fract_z
V1	V	-4.078437	-0.207997	-0.289789
V2	V	-3.578437	0.292003	0.210211
O3	O	-4.023872	0.009026	-0.284448
O4	O	-3.523872	0.509026	0.215552
O5	O	-4.069125	-0.411491	-0.287639
O6	O	-3.569125	0.088509	0.212361
O7	O	-4.034542	-0.205223	-0.416253
O8	O	-3.534542	0.294777	0.083747
O9	O	-4.058694	-0.198670	-0.154943
O10	O	-3.558694	0.301330	0.345057
V11	V	-4.556417	-0.181988	-0.273681
V12	V	-4.056417	0.318012	0.226319
O13	O	-4.351856	-0.265049	-0.325124
O14	O	-3.851856	0.234951	0.174876
O15	O	-4.733195	-0.124936	-0.238346
O16	O	-4.233195	0.375064	0.261654
O17	O	-4.342523	0.021506	-0.275831
O18	O	-3.842523	0.521506	0.224169
O19	O	-4.728379	-0.399011	-0.279022
O20	O	-4.228379	0.100989	0.220978
O21	O	-4.693557	-0.191315	-0.408527
O22	O	-4.193557	0.308685	0.091473
O23	O	-4.377105	-0.184763	-0.147217
O24	O	-3.877105	0.315237	0.352783
C25	C	-3.923489	-0.461085	-0.283024
C26	C	-3.423489	0.038915	0.216976
C27	C	-3.997191	-0.627447	-0.282108
C28	C	-3.497191	-0.127447	0.217892
C29	C	-3.879374	-0.197968	-0.447083
C30	C	-3.379374	0.302032	0.052917
C31	C	-3.925027	-0.197046	-0.550467
C32	C	-3.425027	0.302954	-0.050467
C33	C	-4.092119	-0.193678	-0.929038
C34	C	-3.592119	0.306322	-0.429038
C35	C	-4.045621	-0.194615	-0.823707
C36	C	-3.545621	0.305385	-0.323707
C37	C	-4.008575	-0.195363	-0.739756
C38	C	-3.508575	0.304637	-0.239756
C39	C	-3.962073	-0.196298	-0.634419
C40	C	-3.462073	0.303702	-0.134419
C41	C	-4.151502	0.071092	-0.280444
C42	C	-3.651502	0.571092	0.219556
C43	C	-4.057038	0.237452	-0.281365
C44	C	-3.557038	0.737452	0.218635
C45	C	-4.195616	-0.192022	-0.116382
C46	C	-3.695616	0.307978	0.383618
C47	C	-4.129200	-0.192937	-0.012998
C48	C	-3.629200	0.307063	0.487002
