data_functionalizedCrystal
_audit_creation_method	'MofGen! by Chris Wilmer'
_symmetry_space_group_name_H-M	'P1'
_symmetry_Int_Tables_number	1
_symmetry_cell_setting	triclinic
loop_
_symmetry_equiv_pos_as_xyz
  x,y,z
_cell_length_a	14.519709
_cell_length_b	10.654550
_cell_length_c	9.130313
_cell_angle_alpha	90.000110
_cell_angle_beta	89.994624
_cell_angle_gamma	84.082524
loop_
_atom_site_label
_atom_site_type_symbol
_atom_site_fract_x
_atom_site_fract_y
_atom_site_fract_z
O1	O	-1.224716	-0.164617	-0.121605
O2	O	-0.956339	-0.184004	-0.121649
O3	O	-1.096698	0.008488	-0.121620
O4	O	-1.084357	-0.357109	-0.121633
O5	O	-1.096696	0.008483	0.121978
O6	O	-0.956338	-0.184009	0.121950
O7	O	-1.224714	-0.164623	0.121994
Cu8	Cu	-1.090526	-0.174316	0.144215
Cu9	Cu	-1.090528	-0.174310	-0.143869
O10	O	-1.084355	-0.357114	0.121966
C11	C	-1.095791	0.055275	0.000177
C12	C	-1.093080	0.194692	0.000172
C13	C	-0.921974	-0.183103	0.000145
C14	C	-0.819579	-0.180396	0.000128
C15	C	-1.259079	-0.165524	0.000197
C16	C	-1.361475	-0.168231	0.000205
C17	C	-0.444631	-0.170428	0.000195
C18	C	-0.548954	-0.173196	0.000176
C19	C	-0.632102	-0.175412	0.000160
C20	C	-0.736431	-0.178180	0.000144
C21	C	-1.085262	-0.403901	0.000165
C22	C	-1.087973	-0.543318	0.000161
N23	N	-1.090531	-0.174320	0.346837
C24	C	-1.175721	0.274972	0.000190
C25	C	-1.173168	0.405968	0.000179
C26	C	-1.005326	0.376391	0.000138
C27	C	-1.007880	0.245397	0.000138
C28	C	-1.260921	0.224266	0.000223
C29	C	-1.343569	0.304548	0.000242
C30	C	-1.341016	0.435544	0.000232
C31	C	-1.255815	0.486259	0.000201
N32	N	-1.090530	-0.174297	-0.346492
C33	C	-1.152698	-0.089113	0.423502
C34	C	-1.152695	-0.089098	0.576839
C35	C	-1.028356	-0.259507	0.576833
C36	C	-1.028355	-0.259515	0.423499
C37	C	-1.214874	-0.003918	0.346840
C38	C	-1.277047	0.081295	0.423505
C39	C	-1.277044	0.081310	0.576842
C40	C	-1.214869	-0.003888	0.653514
H41	H	-1.263009	0.117604	0.000236
O42	O	-0.922647	0.425861	0.000185
C43	C	-0.844331	0.614559	0.000089
C44	C	-0.938029	0.558705	0.000064
H45	H	-0.856735	0.721970	-0.000040
H46	H	-0.803433	0.581602	0.102051
H47	H	-0.803452	0.581439	-0.101841
H48	H	-0.978983	0.591800	0.101924
H49	H	-0.978856	0.591656	-0.101966
H50	H	-1.412936	0.263247	0.000231
H51	H	-0.977732	-0.328897	0.361078
H52	H	-1.214884	-0.003925	0.221986
H53	H	-1.327661	0.150701	0.639261
O54	O	-0.927518	0.167584	0.000184
C55	C	-0.760772	0.152060	0.000043
C56	C	-0.851713	0.240327	0.000038
H57	H	-0.699460	0.210837	-0.000107
H58	H	-0.757703	0.090011	0.102007
H59	H	-0.757833	0.089973	-0.101884
H60	H	-0.854712	0.302493	0.101895
H61	H	-0.854744	0.302291	-0.101995
O62	O	-0.968006	-0.342440	0.651144
C63	C	-0.915388	-0.560642	0.698136
C64	C	-0.983772	-0.466856	0.613866
H65	H	-0.928124	-0.661253	0.668051
H66	H	-0.841402	-0.544156	0.667948
H67	H	-0.926054	-0.545938	0.820890
H68	H	-0.973190	-0.481504	0.491093
H69	H	-1.057733	-0.483367	0.644176
O70	O	-1.337345	0.164248	0.349127
C71	C	-1.390018	0.382469	0.302355
C72	C	-1.321663	0.288647	0.386629
H73	H	-1.377375	0.483066	0.332668
H74	H	-1.379361	0.367966	0.179568
H75	H	-1.463975	0.365822	0.332518
H76	H	-1.247678	0.305237	0.356589
H77	H	-1.332400	0.303173	0.509396
O78	O	-1.421357	0.513402	0.000048
C79	C	-1.564011	0.578801	-0.126160
C80	C	-1.473067	0.490540	-0.126125
H81	H	-1.605836	0.560368	-0.228176
H82	H	-1.605955	0.560325	-0.024270
H83	H	-1.547535	0.681128	-0.126100
H84	H	-1.489460	0.388183	-0.126237
H85	H	-1.431150	0.509125	-0.228006
H86	H	-1.253743	0.592926	0.000177
H87	H	-1.214866	-0.003860	0.778371
