data_functionalizedCrystal
_audit_creation_method	'MofGen! by Chris Wilmer'
_symmetry_space_group_name_H-M	'P1'
_symmetry_Int_Tables_number	1
_symmetry_cell_setting	triclinic
loop_
_symmetry_equiv_pos_as_xyz
  x,y,z
_cell_length_a	13.032831
_cell_length_b	16.120484
_cell_length_c	13.033109
_cell_angle_alpha	100.385715
_cell_angle_beta	76.665514
_cell_angle_gamma	86.078521
loop_
_atom_site_label
_atom_site_type_symbol
_atom_site_fract_x
_atom_site_fract_y
_atom_site_fract_z
Zn1	Zn	1.666952	-0.586070	-0.839395
Zn2	Zn	1.637544	-0.705199	-0.668483
Zn3	Zn	1.469071	-0.545521	-0.637006
Zn4	Zn	1.482563	-0.705126	-0.823523
O5	O	1.564032	-0.635479	-0.742102
O6	O	1.810726	-0.618873	-0.836539
O7	O	1.597241	-0.667078	-0.514723
O8	O	1.501982	-0.434248	-0.657323
O9	O	1.789119	-0.706397	-0.710971
O10	O	1.647364	-0.464039	-0.806017
O11	O	1.473465	-0.549763	-0.491596
O12	O	1.323186	-0.549692	-0.641932
O13	O	1.524976	-0.706272	-0.975214
O14	O	1.333099	-0.666953	-0.778966
O15	O	1.660447	-0.618802	-0.986875
O16	O	1.610324	-0.821841	-0.695581
O17	O	1.496460	-0.821787	-0.809488
C18	C	1.551696	-0.852066	-0.754255
C19	C	1.546520	-0.944738	-0.759502
C20	C	1.289852	-0.603915	-0.705312
C21	C	1.172559	-0.590435	-0.689599
C22	C	1.125182	-0.642514	-0.750302
C23	C	1.003953	-0.628583	-0.734064
C24	C	1.537077	-1.114414	-0.769106
C25	C	1.591179	-1.155726	-0.715141
C26	C	1.585925	-1.250140	-0.720484
C27	C	1.542330	-1.019992	-0.763764
C28	C	1.839283	-0.667166	-0.779037
C29	C	1.956579	-0.680669	-0.794776
C30	C	1.597497	-0.667052	-1.020915
C31	C	1.611758	-0.680506	-1.139728
C32	C	1.576448	-0.418052	-0.729929
C33	C	1.581739	-0.325397	-0.724742
C34	C	1.556873	-0.628459	-1.181256
C35	C	1.571611	-0.642364	-1.304056
C36	C	1.530762	-0.603976	-0.464379
C37	C	1.516719	-0.590310	-0.345580
H38	H	1.174370	-0.697412	-0.814298
F39	F	1.687432	-0.752208	-1.212079
H40	H	0.954769	-0.573676	-0.670072
H41	H	1.123372	-0.535532	-0.625611
F42	F	1.656875	-1.109277	-0.649503
F43	F	1.020862	-0.752425	-0.878439
H44	H	1.486816	-1.149951	-0.819315
H45	H	1.498970	-0.573609	-1.125898
H46	H	1.629513	-0.697222	-1.359411
H47	H	1.458814	-0.535454	-1.290226
