data_functionalizedCrystal
_audit_creation_method	'MofGen! by Chris Wilmer'
_symmetry_space_group_name_H-M	'P1'
_symmetry_Int_Tables_number	1
_symmetry_cell_setting	triclinic
loop_
_symmetry_equiv_pos_as_xyz
  x,y,z
_cell_length_a	19.121414
_cell_length_b	19.120786
_cell_length_c	16.625539
_cell_angle_alpha	92.471374
_cell_angle_beta	87.584190
_cell_angle_gamma	95.006361
loop_
_atom_site_label
_atom_site_type_symbol
_atom_site_fract_x
_atom_site_fract_y
_atom_site_fract_z
Zn1	Zn	1.063724	-0.234252	0.392440
Zn2	Zn	1.563724	0.265748	0.892440
Zn3	Zn	1.058613	-0.351934	0.252085
Zn4	Zn	1.558613	0.148066	0.752085
Zn5	Zn	0.946057	-0.239296	0.263123
Zn6	Zn	1.446057	0.260704	0.763123
Zn7	Zn	0.941008	-0.356909	0.392378
Zn8	Zn	1.441008	0.143091	0.892378
O9	O	1.002350	-0.295598	0.325007
O10	O	1.502350	0.204402	0.825007
O11	O	1.161508	-0.245670	0.369228
O12	O	1.661508	0.254330	0.869228
O13	O	1.043656	-0.337022	0.140717
O14	O	1.543656	0.162978	0.640717
O15	O	0.965918	-0.140155	0.284922
O16	O	1.465918	0.359845	0.784922
O17	O	1.157753	-0.332131	0.266110
O18	O	1.657753	0.167869	0.766110
O19	O	1.052367	-0.136449	0.379931
O20	O	1.552367	0.363551	0.879931
O21	O	0.960962	-0.254267	0.148826
O22	O	1.460962	0.245733	0.648826
O23	O	0.846925	-0.259090	0.284863
O24	O	1.346925	0.240910	0.784863
O25	O	0.957312	-0.340609	0.505219
O26	O	1.457312	0.159391	1.005219
O27	O	0.843216	-0.345500	0.379826
O28	O	1.343216	0.154500	0.879826
O29	O	1.047471	-0.250493	0.505264
O30	O	1.547471	0.249507	1.005264
O31	O	1.038760	-0.451066	0.266051
O32	O	1.538760	0.048934	0.766051
O33	O	0.952357	-0.454721	0.369123
O34	O	1.452357	0.045279	0.869123
C35	C	0.819540	-0.303383	0.333536
C36	C	1.319540	0.196617	0.833536
C37	C	0.741333	-0.306730	0.337203
C38	C	1.241333	0.193270	0.837203
C39	C	0.706504	-0.263246	0.289571
C40	C	1.206504	0.236754	0.789571
C41	C	0.633020	-0.266397	0.293016
C42	C	1.133020	0.233603	0.793016
C43	C	0.594365	-0.313030	0.344098
C44	C	1.094365	0.186970	0.844098
C45	C	0.629198	-0.356518	0.391731
C46	C	1.129198	0.143482	0.891731
C47	C	0.702682	-0.353370	0.388281
C48	C	1.202682	0.146630	0.888281
C49	C	0.372398	-0.324793	0.356980
C50	C	0.872398	0.175207	0.856980
C51	C	0.298909	-0.327936	0.360428
C52	C	0.798909	0.172064	0.860428
C53	C	0.302736	-0.237816	0.261711
C54	C	0.802736	0.262184	0.761711
C55	C	0.376220	-0.234669	0.258270
C56	C	0.876220	0.265331	0.758270
C57	C	0.411047	-0.278160	0.305900
C58	C	0.911047	0.221840	0.805900
C59	C	0.519252	-0.316250	0.347622
C60	C	1.019252	0.183750	0.847622
C61	C	0.486159	-0.274942	0.302370
C62	C	0.986159	0.225058	0.802370
C63	C	0.994475	-0.478425	0.316399
C64	C	1.494475	0.021575	0.816399
C65	C	0.991170	-0.556637	0.312741
C66	C	1.491170	-0.056637	0.812741
C67	C	1.034594	-0.591392	0.360531
C68	C	1.534594	-0.091392	0.860531
C69	C	1.031486	-0.664880	0.357095
C70	C	1.531486	-0.164880	0.857095
C71	C	0.984958	-0.703612	0.305864
C72	C	1.484958	-0.203612	0.805864
C73	C	0.941530	-0.668851	0.258072
C74	C	1.441530	-0.168851	0.758072
C75	C	0.944634	-0.595364	0.261512
C76	C	1.444634	-0.095364	0.761512
C77	C	0.973330	-0.925594	0.293002
C78	C	1.473330	-0.425594	0.793002
C79	C	0.970229	-0.999085	0.289564
C80	C	1.470229	-0.499085	0.789564
C81	C	1.060185	-0.995109	0.388589
C82	C	1.560185	-0.495109	0.888589
C83	C	1.063289	-0.921621	0.392021
C84	C	1.563289	-0.421621	0.892021
C85	C	1.019858	-0.886867	0.344232
C86	C	1.519858	-0.386867	0.844232
C87	C	0.981781	-0.778728	0.302349
C88	C	1.481781	-0.278728	0.802349
C89	C	1.023032	-0.811752	0.347752
C90	C	1.523032	-0.311752	0.847752
C91	C	1.185874	-0.287783	0.316445
C92	C	1.685874	0.212217	0.816445
C93	C	1.264081	-0.284452	0.312796
C94	C	1.764081	0.215548	0.812796
C95	C	1.002398	-0.295543	0.535316
C96	C	1.502398	0.204457	1.035316
C97	C	1.002419	-0.295520	0.624937
C98	C	1.502419	0.204480	1.124937
C99	C	1.010276	-0.112055	0.333665
C100	C	1.510276	0.387945	0.833665
C101	C	1.013653	-0.033841	0.337354
C102	C	1.513653	0.466159	0.837354
C103	C	1.002345	-0.295599	0.115516
C104	C	1.502345	0.204401	0.615516
C105	C	1.002470	-0.295418	0.025898
C106	C	1.502470	0.204582	0.525898
C107	C	1.002455	-0.295440	0.953115
C108	C	1.502455	0.204560	1.453115
C109	C	1.002443	-0.295465	0.861806
C110	C	1.502443	0.204535	1.361806
C111	C	1.002437	-0.295481	0.789029
C112	C	1.502437	0.204519	1.289029
C113	C	1.002424	-0.295504	0.697714
C114	C	1.502424	0.204496	1.197714
H115	H	0.267439	-0.365909	0.402030
H116	H	0.767439	0.134091	0.902030
H117	H	0.597720	-0.394491	0.433319
H118	H	1.097720	0.105509	0.933319
H119	H	0.731038	-0.388780	0.427068
H120	H	1.231038	0.111220	0.927068
C121	C	0.264420	-0.189983	0.209317
C122	C	0.764420	0.310017	0.709317
N123	N	0.235560	-0.153955	0.169848
N124	N	0.735560	0.346045	0.669848
C125	C	0.896866	-0.557134	0.208938
C126	C	1.396866	-0.057134	0.708938
N127	N	0.860883	-0.528340	0.169339
N128	N	1.360883	-0.028340	0.669339
C129	C	0.890391	-0.711456	0.201666
C130	C	1.390391	-0.211456	0.701666
N131	N	0.851889	-0.743545	0.159159
N132	N	1.351889	-0.243545	0.659159
C133	C	0.749018	-0.211947	0.233377
C134	C	1.249018	0.288053	0.733377
N135	N	0.781037	-0.173309	0.191047
N136	N	1.281037	0.326691	0.691047
H137	H	0.400745	-0.360207	0.395764
H138	H	0.900745	0.139793	0.895764
H139	H	0.487771	-0.354218	0.389214
H140	H	0.987771	0.145782	0.889214
H141	H	0.517634	-0.236977	0.260777
H142	H	1.017634	0.263023	0.760777
H143	H	0.604666	-0.230992	0.254225
H144	H	1.104666	0.269008	0.754225
H145	H	1.072485	-0.559862	0.402246
H146	H	1.572485	-0.059862	0.902246
H147	H	0.407688	-0.196701	0.216668
H148	H	0.907688	0.303299	0.716668
H149	H	1.060912	-0.780215	0.389468
H150	H	1.560912	-0.280215	0.889468
C151	C	1.079265	-0.703107	0.409658
C152	C	1.579265	-0.203107	0.909658
N153	N	1.115257	-0.731900	0.449247
N154	N	1.615257	-0.231900	0.949247
C155	C	0.930664	-0.821337	0.245921
C156	C	1.430664	-0.321337	0.745921
N157	N	0.892184	-0.853432	0.203394
N158	N	1.392184	-0.353432	0.703394
H159	H	1.101176	-0.890088	0.433738
H160	H	1.601176	-0.390088	0.933738
H161	H	1.095543	-1.023414	0.427497
H162	H	1.595543	-0.523414	0.927497
H163	H	0.937968	-0.897303	0.254089
H164	H	1.437968	-0.397303	0.754089
C165	C	0.919040	-1.041688	0.233206
C166	C	1.419040	-0.541688	0.733206
N167	N	0.880486	-1.073777	0.190760
N168	N	1.380486	-0.573777	0.690760
