data_functionalizedCrystal
_audit_creation_method	'MofGen! by Chris Wilmer'
_symmetry_space_group_name_H-M	'P1'
_symmetry_Int_Tables_number	1
_symmetry_cell_setting	triclinic
loop_
_symmetry_equiv_pos_as_xyz
  x,y,z
_cell_length_a	16.992695
_cell_length_b	16.974897
_cell_length_c	15.455446
_cell_angle_alpha	90.984929
_cell_angle_beta	92.856195
_cell_angle_gamma	87.027201
loop_
_atom_site_label
_atom_site_type_symbol
_atom_site_fract_x
_atom_site_fract_y
_atom_site_fract_z
O1	O	0.106917	1.048908	0.145682
O2	O	0.440250	1.382241	0.479015
O3	O	0.773583	1.715575	0.812349
O4	O	0.118870	0.820228	0.129648
O5	O	0.452203	1.153561	0.462982
O6	O	0.785536	1.486895	0.796315
O7	O	-0.001252	0.933652	0.137594
O8	O	0.332081	1.266985	0.470927
O9	O	0.665415	1.600318	0.804261
O10	O	0.227038	0.935485	0.137736
O11	O	0.560372	1.268818	0.471070
O12	O	0.893705	1.602151	0.804403
O13	O	-0.008096	0.940101	-0.006213
O14	O	0.325237	1.273434	0.327120
O15	O	0.658570	1.606767	0.660453
O16	O	0.112025	0.826677	-0.014159
O17	O	0.445359	1.160010	0.319174
O18	O	0.778692	1.493344	0.652508
O19	O	0.100072	1.055357	0.001875
O20	O	0.433405	1.388690	0.335208
O21	O	0.766739	1.722024	0.668541
Cu22	Cu	0.105424	0.941606	-0.019273
Cu23	Cu	0.438757	1.274939	0.314061
Cu24	Cu	0.772090	1.608272	0.647394
Cu25	Cu	0.113518	0.933979	0.150796
Cu26	Cu	0.446851	1.267313	0.484129
Cu27	Cu	0.780185	1.600646	0.817463
O28	O	0.220194	0.941933	-0.006071
O29	O	0.553527	1.275267	0.327262
O30	O	0.886860	1.608600	0.660596
C31	C	0.114864	0.794056	0.055684
C32	C	0.448197	1.127390	0.389017
C33	C	0.781530	1.460723	0.722350
C34	C	0.113115	0.706465	0.049542
C35	C	0.446448	1.039798	0.382875
C36	C	0.779781	1.373131	0.716209
C37	C	0.116026	0.661792	0.125040
C38	C	0.449359	0.995125	0.458373
C39	C	0.782692	1.328458	0.791706
C40	C	0.114394	0.579490	0.119256
C41	C	0.447728	0.912823	0.452590
C42	C	0.781061	1.246156	0.785923
C43	C	0.109846	0.541862	0.037974
C44	C	0.443180	0.875196	0.371308
C45	C	0.776513	1.208529	0.704641
C46	C	0.106938	0.586541	-0.037529
C47	C	0.440271	0.919875	0.295805
C48	C	0.773604	1.253208	0.629138
C49	C	0.108575	0.668841	-0.031745
C50	C	0.441908	1.002175	0.301589
C51	C	0.775241	1.335508	0.634922
C52	C	0.104556	0.296099	0.012270
C53	C	0.437889	0.629432	0.345603
C54	C	0.771222	0.962766	0.678936
C55	C	0.102917	0.213793	0.006491
C56	C	0.436250	0.547126	0.339824
C57	C	0.769583	0.880460	0.673158
C58	C	0.110375	0.206747	0.163277
C59	C	0.443708	0.540080	0.496610
C60	C	0.777041	0.873414	0.829944
C61	C	0.112007	0.289049	0.169054
C62	C	0.445340	0.622383	0.502387
C63	C	0.778673	0.955716	0.835721
C64	C	0.109102	0.333721	0.093551
C65	C	0.442435	0.667054	0.426884
C66	C	0.775769	1.000387	0.760217
N67	N	0.108176	0.457737	0.032061
N68	N	0.441510	0.791070	0.365394
N69	N	0.774843	1.124403	0.698728
N70	N	0.110778	0.417844	0.099465
N71	N	0.444111	0.751178	0.432798
N72	N	0.777444	1.084511	0.766132
C73	C	-0.033892	0.934517	0.065525
C74	C	0.299441	1.267851	0.398858
C75	C	0.632775	1.601184	0.732192
C76	C	-0.120953	0.927480	0.065032
C77	C	0.212381	1.260813	0.398365
C78	C	0.545714	1.594147	0.731699
C79	C	-0.171036	0.995381	0.069792
C80	C	0.162297	1.328715	0.403125
C81	C	0.495630	1.662048	0.736459
C82	C	-0.252838	0.988764	0.069336
C83	C	0.080495	1.322097	0.402669
C84	C	0.413829	1.655430	0.736003
C85	C	-0.284554	0.914245	0.064114
C86	C	0.048779	1.247578	0.397448
C87	C	0.382112	1.580911	0.730781
C88	C	-0.234464	0.846339	0.059357
C89	C	0.098870	1.179672	0.392690
C90	C	0.432203	1.513005	0.726023
C91	C	-0.152664	0.852956	0.059819
C92	C	0.180670	1.186290	0.393152
C93	C	0.514003	1.519623	0.726485
C94	C	-0.528215	0.886816	0.062203
C95	C	-0.194881	1.220150	0.395536
C96	C	0.138452	1.553483	0.728870
C97	C	-0.610021	0.880204	0.061739
C98	C	-0.276688	1.213537	0.395072
C99	C	0.056645	1.546870	0.728406
C100	C	-0.628390	1.022629	0.071720
C101	C	-0.295056	1.355963	0.405053
C102	C	0.038277	1.689296	0.738387
C103	C	-0.546587	1.029241	0.072176
C104	C	-0.213254	1.362574	0.405510
C105	C	0.120079	1.695908	0.738843
C106	C	-0.496504	0.961334	0.067423
C107	C	-0.163171	1.294668	0.400757
C108	C	0.170163	1.628001	0.734090
N109	N	-0.368168	0.907479	0.063646
N110	N	-0.034835	1.240812	0.396979
N111	N	0.298498	1.574146	0.730312
N112	N	-0.412891	0.968101	0.067898
N113	N	-0.079558	1.301434	0.401232
N114	N	0.253776	1.634767	0.734565
C115	C	0.252834	0.941067	0.066000
C116	C	0.586167	1.274401	0.399333
C117	C	0.919501	1.607734	0.732667
C118	C	0.339895	0.948105	0.066499
C119	C	0.673228	1.281438	0.399832
C120	C	1.006561	1.614771	0.733165
C121	C	0.104078	1.081529	0.075841
C122	C	0.437412	1.414862	0.409175
C123	C	0.770745	1.748195	0.742508
C124	C	0.105827	1.169120	0.081989
C125	C	0.439161	1.502453	0.415322
C126	C	0.772494	1.835787	0.748655
N127	N	0.099730	0.946976	-0.138890
N128	N	0.433063	1.280309	0.194444
N129	N	0.766397	1.613642	0.527777
C130	C	0.068194	0.976812	-0.680794
C131	C	0.401527	1.310145	-0.347460
C132	C	0.734860	1.643479	-0.014127
C133	C	0.072509	0.972734	-0.590273
C134	C	0.405843	1.306067	-0.256940
C135	C	0.739176	1.639400	0.076393
C136	C	0.127833	0.920454	-0.548548
C137	C	0.461167	1.253787	-0.215215
C138	C	0.794500	1.587121	0.118118
C139	C	0.178851	0.872255	-0.597348
C140	C	0.512184	1.205589	-0.264014
C141	C	0.845517	1.538922	0.069319
C142	C	0.174538	0.876338	-0.687866
C143	C	0.507872	1.209671	-0.354533
C144	C	0.841205	1.543005	-0.021199
C145	C	0.146435	0.902860	-0.278208
C146	C	0.479768	1.236193	0.055126
C147	C	0.813102	1.569526	0.388459
C148	C	0.150742	0.898779	-0.187683
C149	C	0.484075	1.232112	0.145651
C150	C	0.817409	1.565445	0.478984
C151	C	0.044401	0.999259	-0.180615
C152	C	0.377734	1.332592	0.152719
C153	C	0.711068	1.665925	0.486052
C154	C	0.040090	1.003334	-0.271135
C155	C	0.373424	1.336667	0.062198
C156	C	0.706757	1.670000	0.395532
C157	C	0.091110	0.955138	-0.319927
C158	C	0.424444	1.288471	0.013407
C159	C	0.757777	1.621805	0.346740
N160	N	0.132244	0.916282	-0.456022
N161	N	0.465577	1.249616	-0.122689
N162	N	0.798911	1.582949	0.210645
N163	N	0.086703	0.959314	-0.412451
N164	N	0.420036	1.292647	-0.079117
N165	N	0.753370	1.625981	0.254216
N166	N	0.119206	0.928615	0.270413
N167	N	0.452539	1.261949	0.603747
N168	N	0.785872	1.595282	0.937080
H169	H	0.116765	0.543120	0.180735
H170	H	0.450098	0.876453	0.514068
H171	H	0.783431	1.209787	0.847401
N172	N	0.105439	0.717023	-0.113177
N173	N	0.438773	1.050357	0.220156
N174	N	0.772106	1.383690	0.553490
H175	H	0.054956	0.707570	-0.148228
H176	H	0.388289	1.040904	0.185105
H177	H	0.721623	1.374237	0.518439
H178	H	0.107203	0.774850	-0.097111
H179	H	0.440536	1.108183	0.236222
H180	H	0.773870	1.441517	0.569555
N181	N	0.008526	1.033203	-0.725796
N182	N	0.341859	1.366536	-0.392462
N183	N	0.675193	1.699870	-0.059129
H184	H	-0.046412	1.019923	-0.710929
H185	H	0.286922	1.353256	-0.377596
H186	H	0.620255	1.686590	-0.044262
H187	H	0.018550	1.088972	-0.706042
H188	H	0.351884	1.422305	-0.372709
H189	H	0.685217	1.755638	-0.039375
H190	H	-0.669176	1.077915	0.075591
H191	H	-0.335843	1.411248	0.408925
H192	H	-0.002509	1.744581	0.742258
N193	N	-0.019559	1.059755	-0.316119
N194	N	0.313774	1.393089	0.017215
N195	N	0.647108	1.726422	0.350548
H196	H	-0.074503	1.046495	-0.301256
H197	H	0.258830	1.379828	0.032078
H198	H	0.592163	1.713161	0.365411
H199	H	-0.009508	1.115512	-0.296343
H200	H	0.323825	1.448846	0.036990
H201	H	0.657158	1.782179	0.370324
H202	H	0.112741	0.170367	0.224747
H203	H	0.446075	0.503700	0.558081
H204	H	0.779408	0.837033	0.891414
H205	H	-0.145220	1.056063	0.074039
H206	H	0.188113	1.389396	0.407372
H207	H	0.521447	1.722729	0.740705
N208	N	0.098008	0.173212	-0.081184
N209	N	0.431341	0.506546	0.252149
N210	N	0.764674	0.839879	0.585483
H211	H	0.095874	0.214038	-0.128130
H212	H	0.429208	0.547371	0.205204
H213	H	0.762541	0.880705	0.538537
H214	H	0.145999	0.136291	-0.087459
H215	H	0.479332	0.469624	0.245875
H216	H	0.812665	0.802957	0.579208
N217	N	-0.010625	1.051227	-0.127978
N218	N	0.322708	1.384560	0.205355
N219	N	0.656042	1.717893	0.538689
H220	H	0.021231	1.086312	-0.087826
H221	H	0.354564	1.419646	0.245507
H222	H	0.687897	1.752979	0.578841
H223	H	-0.046322	1.084916	-0.168196
H224	H	0.287011	1.418249	0.165137
H225	H	0.620344	1.751582	0.498470
N226	N	-0.644232	0.799826	0.056108
N227	N	-0.310899	1.133159	0.389441
N228	N	0.022434	1.466493	0.722774
H229	H	-0.600093	0.757811	0.053169
H230	H	-0.266759	1.091144	0.386503
H231	H	0.066574	1.424477	0.719836
H232	H	-0.675234	0.791596	0.109009
H233	H	-0.341901	1.124929	0.442342
H234	H	-0.008567	1.458262	0.775676
H235	H	0.195796	0.856203	-0.153715
H236	H	0.529129	1.189536	0.179618
H237	H	0.862463	1.522870	0.512952
N238	N	0.120936	0.702369	0.212710
N239	N	0.454270	1.035702	0.546044
N240	N	0.787603	1.369036	0.879377
H241	H	0.121530	0.761285	0.204922
H242	H	0.454863	1.094619	0.538255
H243	H	0.788197	1.427952	0.871588
H244	H	0.073710	0.689768	0.246162
H245	H	0.407044	1.023101	0.579496
H246	H	0.740377	1.356434	0.912829
H247	H	0.102185	0.332461	-0.049211
H248	H	0.435519	0.665795	0.284123
H249	H	0.768852	0.999128	0.617456
H250	H	0.187976	0.863615	-0.317927
H251	H	0.521310	1.196948	0.015407
H252	H	0.854643	1.530282	0.348740
N253	N	0.238525	0.815870	-0.552349
N254	N	0.571859	1.149203	-0.219016
N255	N	0.905192	1.482536	0.114318
H256	H	0.233516	0.820593	-0.487602
H257	H	0.566849	1.153926	-0.154269
H258	H	0.900182	1.487260	0.179065
H259	H	0.228545	0.760104	-0.572152
H260	H	0.561879	1.093438	-0.238819
H261	H	0.895212	1.426771	0.094515
H262	H	0.216079	0.837092	-0.727593
H263	H	0.549412	1.170426	-0.394260
H264	H	0.882745	1.503759	-0.060926
N265	N	0.102036	0.545957	-0.125196
N266	N	0.435369	0.879290	0.208137
N267	N	0.768703	1.212623	0.541471
H268	H	0.053171	0.514441	-0.130414
H269	H	0.386505	0.847774	0.202920
H270	H	0.719838	1.181108	0.536253
H271	H	0.099407	0.586856	-0.172085
H272	H	0.432741	0.920189	0.161249
H273	H	0.766074	1.253523	0.494582
N274	N	0.116901	0.329632	0.256722
N275	N	0.450234	0.662966	0.590055
N276	N	0.783567	0.996299	0.923389
H277	H	0.118495	0.288843	0.303674
H278	H	0.451828	0.622176	0.637007
H279	H	0.785161	0.955510	0.970340
H280	H	0.166309	0.360305	0.262314
H281	H	0.499642	0.693638	0.595648
H282	H	0.832975	1.026972	0.928981
H283	H	-0.487446	0.831522	0.058333
H284	H	-0.154113	1.164855	0.391666
H285	H	0.179221	1.498188	0.724999
H286	H	-0.293614	1.044056	0.073210
H287	H	0.039720	1.377390	0.406544
H288	H	0.373053	1.710723	0.739877
N289	N	-0.512381	1.109615	0.077803
N290	N	-0.179047	1.442948	0.411137
N291	N	0.154286	1.776282	0.744470
H292	H	-0.556522	1.151628	0.080749
H293	H	-0.223189	1.484961	0.414083
H294	H	0.110145	1.818294	0.747416
H295	H	-0.476299	1.113075	0.131522
H296	H	-0.142965	1.446408	0.464856
H297	H	0.190368	1.779741	0.798189
H298	H	0.030972	1.011980	-0.550546
H299	H	0.364305	1.345313	-0.217213
H300	H	0.697639	1.678647	0.116120
H301	H	-0.260293	0.785663	0.055110
H302	H	0.073040	1.118997	0.388444
H303	H	0.406373	1.452330	0.721777
H304	H	-0.111885	0.797664	0.055943
H305	H	0.221448	1.130997	0.389276
H306	H	0.554781	1.464330	0.722609
