data_functionalizedCrystal
_audit_creation_method	'MofGen! by Chris Wilmer'
_symmetry_space_group_name_H-M	'P1'
_symmetry_Int_Tables_number	1
_symmetry_cell_setting	triclinic
loop_
_symmetry_equiv_pos_as_xyz
  x,y,z
_cell_length_a	10.654541
_cell_length_b	9.130313
_cell_length_c	10.654550
_cell_angle_alpha	90.005090
_cell_angle_beta	84.484429
_cell_angle_gamma	89.999140
loop_
_atom_site_label
_atom_site_type_symbol
_atom_site_fract_x
_atom_site_fract_y
_atom_site_fract_z
O1	O	1.667836	0.121754	0.176386
O2	O	1.302357	0.121767	0.193195
O3	O	1.493500	0.121751	0.002051
O4	O	1.476694	0.121770	0.367530
O5	O	1.493498	-0.121848	0.002042
O6	O	1.302356	-0.121832	0.193186
O7	O	1.667835	-0.121845	0.176377
Cu8	Cu	1.485095	-0.144081	0.184780
Cu9	Cu	1.485097	0.144003	0.184792
O10	O	1.476692	-0.121829	0.367521
C11	C	1.255558	-0.000031	0.191957
C12	C	1.116115	-0.000026	0.188266
N13	N	1.485099	0.346626	0.184790
C14	C	1.492265	-0.000048	-0.044751
C15	C	1.488573	-0.000045	-0.184195
C16	C	1.088144	0.000004	0.416831
C17	C	1.008650	0.000025	0.529374
C18	C	0.877632	0.000026	0.525898
C19	C	0.826107	0.000002	0.409867
C20	C	0.905601	-0.000019	0.297324
C21	C	1.036620	-0.000016	0.300812
C22	C	0.933571	-0.000060	0.068763
C23	C	1.064590	-0.000050	0.072235
C24	C	0.882046	-0.000084	-0.047269
C25	C	0.961541	-0.000094	-0.159814
C26	C	1.092566	-0.000094	-0.156334
C27	C	1.144084	-0.000071	-0.040308
C28	C	1.714634	-0.000044	0.177615
C29	C	1.854077	-0.000039	0.181306
N30	N	1.485103	-0.346704	0.184772
C31	C	1.569898	0.423270	0.100320
C32	C	1.569903	0.576607	0.100313
C33	C	1.400300	0.576641	0.269252
C34	C	1.400302	0.423307	0.269263
C35	C	1.601115	-0.000049	-0.263681
C36	C	1.597638	-0.000031	-0.394702
C37	C	1.369069	-0.000012	-0.366737
C38	C	1.372546	-0.000020	-0.235718
C39	C	1.477927	-0.000027	0.414323
C40	C	1.481619	-0.000020	0.553766
H41	H	1.194824	0.000035	0.419672
O42	O	1.661371	0.340557	0.009233
H43	H	1.720348	0.419620	-0.049493
O44	O	1.719029	-0.000050	-0.480428
H45	H	1.722931	0.099248	-0.540769
O46	O	0.905972	-0.000133	-0.284952
H47	H	0.846947	0.099150	-0.292015
O48	O	1.661355	0.659280	0.009198
H49	H	1.720308	0.580193	-0.049543
H50	H	1.695591	-0.000066	-0.221735
H51	H	1.331249	0.360898	0.338055
H52	H	1.331258	0.639090	0.338026
H53	H	1.157284	-0.000116	-0.247981
H54	H	1.050616	0.000040	0.623844
O55	O	1.243933	-0.000017	-0.422316
H56	H	1.236881	0.099261	-0.481343
H57	H	0.812907	0.000033	0.617541
O58	O	1.285396	-0.000082	-0.036558
H59	H	1.307865	-0.000077	0.063029
O60	O	1.251153	-0.000034	-0.149978
H61	H	1.195677	0.099248	-0.168412
H62	H	0.719424	-0.000015	0.407048
H63	H	0.775363	-0.000091	-0.050090
