data_functionalizedCrystal
_audit_creation_method	'MofGen! by Chris Wilmer'
_symmetry_space_group_name_H-M	'P1'
_symmetry_Int_Tables_number	1
_symmetry_cell_setting	triclinic
loop_
_symmetry_equiv_pos_as_xyz
  x,y,z
_cell_length_a	21.295417
_cell_length_b	19.077241
_cell_length_c	19.076919
_cell_angle_alpha	90.113904
_cell_angle_beta	92.266620
_cell_angle_gamma	87.677787
loop_
_atom_site_label
_atom_site_type_symbol
_atom_site_fract_x
_atom_site_fract_y
_atom_site_fract_z
Zn1	Zn	-0.228522	-1.058264	-0.440543
Zn2	Zn	0.271478	-0.558264	0.059457
Zn3	Zn	-0.329403	-1.062893	-0.323027
Zn4	Zn	0.170597	-0.562893	0.176973
Zn5	Zn	-0.228191	-0.945480	-0.318321
Zn6	Zn	0.271809	-0.445480	0.181679
Zn7	Zn	-0.337799	-0.940711	-0.435761
Zn8	Zn	0.162201	-0.440711	0.064239
O9	O	-0.280979	-1.001837	-0.379413
O10	O	0.219021	-0.501837	0.120587
O11	O	-0.238529	-1.157212	-0.428925
O12	O	0.261471	-0.657212	0.071075
O13	O	-0.312324	-1.051251	-0.224072
O14	O	0.187676	-0.551251	0.275928
O15	O	-0.140144	-0.960500	-0.334565
O16	O	0.359856	-0.460500	0.165435
O17	O	-0.312646	-1.160613	-0.342586
O18	O	0.187354	-0.660613	0.157414
O19	O	-0.140388	-1.043362	-0.424362
O20	O	0.359612	-0.543362	0.075638
O21	O	-0.237964	-0.964988	-0.220615
O22	O	0.262036	-0.464988	0.279385
O23	O	-0.246106	-0.846513	-0.329929
O24	O	0.253894	-0.346513	0.170071
O25	O	-0.326956	-0.952372	-0.534726
O26	O	0.173044	-0.452372	-0.034726
O27	O	-0.326635	-0.843010	-0.416212
O28	O	0.173365	-0.343010	0.083788
O29	O	-0.246671	-1.038738	-0.538239
O30	O	0.253329	-0.538738	-0.038239
O31	O	-0.418607	-1.046626	-0.337950
O32	O	0.081393	-0.546626	0.162050
O33	O	-0.424776	-0.956860	-0.420775
O34	O	0.075224	-0.456860	0.079225
C35	C	-0.287246	-0.819265	-0.372041
C36	C	0.212754	-0.319265	0.127959
C37	C	-0.289942	-0.741159	-0.368904
C38	C	0.210058	-0.241159	0.131096
C39	C	-0.252687	-0.702692	-0.412451
C40	C	0.247313	-0.202692	0.087549
C41	C	-0.255218	-0.629303	-0.409497
C42	C	0.244782	-0.129303	0.090503
C43	C	-0.295007	-0.594383	-0.363000
C44	C	0.204993	-0.094383	0.137000
C45	C	-0.332264	-0.632855	-0.319448
C46	C	0.167736	-0.132855	0.180552
C47	C	-0.329730	-0.706242	-0.322399
C48	C	0.170270	-0.206242	0.177601
C49	C	-0.306715	-0.375088	-0.349345
C50	C	0.193285	0.124912	0.150655
C51	C	-0.309248	-0.301696	-0.346399
C52	C	0.190752	0.198304	0.153601
C53	C	-0.232201	-0.298149	-0.436447
C54	C	0.267799	0.201851	0.063553
C55	C	-0.229673	-0.371538	-0.439397
C56	C	0.270327	0.128462	0.060603
C57	C	-0.266927	-0.410004	-0.395843
C58	C	0.233073	0.089996	0.104157
N59	N	-0.297597	-0.519368	-0.359981
N60	N	0.202403	-0.019368	0.140019
N61	N	-0.264334	-0.485017	-0.398858
N62	N	0.235666	0.014983	0.101142
C63	C	-0.444532	-1.001747	-0.379370
C64	C	0.055468	-0.501747	0.120630
C65	C	-0.514500	-1.001771	-0.379378
C66	C	-0.014500	-0.501771	0.120622
C67	C	-0.544134	-1.048551	-0.336298
C68	C	-0.044134	-0.548551	0.163702
C69	C	-0.609876	-1.048583	-0.336316
C70	C	-0.109876	-0.548583	0.163684
C71	C	-0.645981	-1.001824	-0.379405
C72	C	-0.145981	-0.501824	0.120595
C73	C	-0.616340	-0.955041	-0.422493
C74	C	-0.116340	-0.455041	0.077507
C75	C	-0.550599	-0.955014	-0.422480
C76	C	-0.050599	-0.455014	0.077520
N77	N	-0.751561	-0.940136	-0.382279
N78	N	-0.251561	-0.440136	0.117721
N79	N	-0.814012	-0.940163	-0.382288
N80	N	-0.314012	-0.440163	0.117712
C81	C	-0.844055	-1.001901	-0.379448
C82	C	-0.344055	-0.501901	0.120552
N83	N	-0.809287	-1.063612	-0.376586
N84	N	-0.309287	-0.563612	0.123414
N85	N	-0.746830	-1.063584	-0.376574
N86	N	-0.246830	-0.563584	0.123426
C87	C	-0.717266	-1.001847	-0.379424
C88	C	-0.217266	-0.501847	0.120576
C89	C	-0.944973	-1.048719	-0.336385
C90	C	-0.444973	-0.548719	0.163615
C91	C	-1.010717	-1.048752	-0.336407
C92	C	-0.510717	-0.548752	0.163593
C93	C	-1.017180	-0.955204	-0.422580
C94	C	-0.517180	-0.455204	0.077420
C95	C	-0.951438	-0.955177	-0.422562
C96	C	-0.451438	-0.455177	0.077438
C97	C	-0.915338	-1.001933	-0.379460
C98	C	-0.415338	-0.501933	0.120540
C99	C	-0.116787	-1.001947	-0.379472
C100	C	0.383213	-0.501947	0.120528
C101	C	-0.046818	-1.001993	-0.379497
C102	C	0.453182	-0.501993	0.120503
C103	C	-0.287787	-0.994507	-0.562691
C104	C	0.212213	-0.494507	-0.062691
C105	C	-0.290688	-0.991383	-0.640794
C106	C	0.209312	-0.491383	-0.140794
C107	C	-0.274684	-0.185123	-0.386808
C108	C	0.225316	0.314877	0.113192
C109	C	-0.271993	-0.263229	-0.389946
C110	C	0.228007	0.236771	0.110054
C111	C	-0.250253	-1.034879	-0.679317
C112	C	0.249747	-0.534879	-0.179317
C113	C	-0.252977	-1.031935	-0.752702
C114	C	0.247023	-0.531935	-0.252702
C115	C	-0.296140	-0.985499	-0.787563
C116	C	0.203860	-0.485499	-0.287563
C117	C	-0.336577	-0.941998	-0.749035
C118	C	0.163423	-0.441998	-0.249035
C119	C	-0.333849	-0.944938	-0.675651
C120	C	0.166151	-0.444938	-0.175651
C121	C	-0.308776	-0.971879	-1.006841
C122	C	0.191224	-0.471879	-0.506841
C123	C	-0.311502	-0.968943	-1.080230
C124	C	0.188498	-0.468943	-0.580230
C125	C	-0.227901	-1.058880	-1.083892
C126	C	0.272099	-0.558880	-0.583892
C127	C	-0.225180	-1.061820	-1.010506
C128	C	0.274820	-0.561820	-0.510506
C129	C	-0.265615	-1.018316	-0.971985
C130	C	0.234385	-0.518316	-0.471985
N131	N	-0.298927	-0.982490	-0.862574
N132	N	0.201073	-0.482490	-0.362574
N133	N	-0.262825	-1.021322	-0.896974
N134	N	0.237175	-0.521322	-0.396974
C135	C	-0.274150	-1.009179	-0.196849
C136	C	0.225850	-0.509179	0.303151
C137	C	-0.271067	-1.012439	-0.118753
C138	C	0.228933	-0.512439	0.381247
H139	H	-0.337050	-0.406398	-0.313880
H140	H	0.162950	0.093602	0.186120
H141	H	-0.360066	-0.737561	-0.286938
H142	H	0.139934	-0.237561	0.213062
H143	H	-0.927308	-0.917082	-0.457638
H144	H	-0.427308	-0.417082	0.042362
H145	H	-0.190034	-1.099635	-0.982128
H146	H	0.309966	-0.599635	-0.482128
C147	C	-0.642480	-1.100042	-0.288919
C148	C	-0.142480	-0.600042	0.211081
N149	N	-0.667036	-1.138800	-0.253218
N150	N	-0.167036	-0.638800	0.246782
C151	C	-0.376032	-0.594440	-0.268300
C152	C	0.123968	-0.094440	0.231700
N153	N	-0.409001	-0.565506	-0.229775
N154	N	0.090999	-0.065506	0.270225
C155	C	-1.043314	-1.100215	-0.289012
C156	C	-0.543314	-0.600215	0.210988
N157	N	-1.067866	-1.138977	-0.253313
N158	N	-0.567866	-0.638977	0.246687
H159	H	-0.514743	-1.086624	-0.301205
H160	H	-0.014743	-0.586624	0.198795
C161	C	-0.656057	-0.903603	-0.469888
C162	C	-0.156057	-0.403603	0.030112
N163	N	-0.685972	-0.864859	-0.505589
N164	N	-0.185972	-0.364859	-0.005589
C165	C	-0.353254	-0.924021	-0.964476
C166	C	0.146746	-0.424021	-0.464476
N167	N	-0.386756	-0.887971	-0.932564
N168	N	0.113244	-0.387971	-0.432564
C169	C	-0.518001	-0.903560	-0.469882
C170	C	-0.018001	-0.403560	0.030118
N171	N	-0.493447	-0.864806	-0.505589
N172	N	0.006553	-0.364806	-0.005589
C173	C	-0.905262	-1.100162	-0.288983
C174	C	-0.405262	-0.600162	0.211017
N175	N	-0.875353	-1.138911	-0.253283
N176	N	-0.375353	-0.638911	0.246717
H177	H	-0.220052	-1.067356	-0.784064
H178	H	0.279948	-0.567356	-0.284064
C179	C	-1.056892	-0.903769	-0.469980
C180	C	-0.556892	-0.403769	0.030020
N181	N	-1.086807	-0.865028	-0.505684
N182	N	-0.586807	-0.365028	-0.005684
C183	C	-0.202770	-1.085963	-0.640976
C184	C	0.297230	-0.585963	-0.140976
N185	N	-0.167002	-1.124439	-0.612100
N186	N	0.332998	-0.624439	-0.112100
H187	H	-0.371719	-0.904185	-0.777424
H188	H	0.128281	-0.404185	-0.277424
H189	H	-0.194981	-1.094297	-1.115264
H190	H	0.305019	-0.594297	-0.615264
H191	H	-0.346652	-0.931127	-1.108612
H192	H	0.153348	-0.431127	-0.608612
H193	H	-0.366770	-0.909512	-0.644286
H194	H	0.133230	-0.409512	-0.144286
C195	C	-0.208915	-0.741097	-0.463602
C196	C	0.291085	-0.241097	0.036398
N197	N	-0.175942	-0.770023	-0.502127
N198	N	0.324058	-0.270023	-0.002127
C199	C	-0.191213	-0.255831	-0.484341
C200	C	0.308787	0.244169	0.015659
N201	N	-0.160335	-0.223957	-0.520412
N202	N	0.339665	0.276043	-0.020412
C203	C	-0.185895	-0.409945	-0.490541
C204	C	0.314105	0.090055	0.009459
N205	N	-0.152921	-0.438873	-0.529063
N206	N	0.347079	0.061127	-0.029063
C207	C	-0.214236	-0.586993	-0.457405
C208	C	0.285764	-0.086993	0.042595
N209	N	-0.183367	-0.555125	-0.493491
N210	N	0.316633	-0.055125	0.006509
H211	H	-0.341652	-0.273266	-0.308535
H212	H	0.158348	0.226734	0.191465
