data_functionalizedCrystal
_audit_creation_method	'MofGen! by Chris Wilmer'
_symmetry_space_group_name_H-M	'P1'
_symmetry_Int_Tables_number	1
_symmetry_cell_setting	triclinic
loop_
_symmetry_equiv_pos_as_xyz
  x,y,z
_cell_length_a	19.121241
_cell_length_b	19.120786
_cell_length_c	19.120904
_cell_angle_alpha	89.866497
_cell_angle_beta	89.875472
_cell_angle_gamma	94.790376
loop_
_atom_site_label
_atom_site_type_symbol
_atom_site_fract_x
_atom_site_fract_y
_atom_site_fract_z
Zn1	Zn	1.044531	-0.253560	-0.430924
Zn2	Zn	1.044875	-0.365791	-0.308698
Zn3	Zn	0.932315	-0.253144	-0.308712
Zn4	Zn	0.922279	-0.375740	-0.420443
O5	O	0.986000	-0.312059	-0.367194
O6	O	1.142847	-0.264459	-0.419091
O7	O	1.034288	-0.346510	-0.210788
O8	O	0.951257	-0.154923	-0.329315
O9	O	1.143100	-0.346914	-0.329292
O10	O	1.033702	-0.155230	-0.419104
O11	O	0.951590	-0.263748	-0.210798
O12	O	0.832713	-0.273396	-0.319152
O13	O	0.934152	-0.363870	-0.519745
O14	O	0.825340	-0.363466	-0.401241
O15	O	1.023970	-0.274106	-0.527445
O16	O	1.024557	-0.465386	-0.319129
O17	O	0.934485	-0.472695	-0.401228
C18	C	0.803546	-0.319466	-0.359061
C19	C	0.725490	-0.322652	-0.355598
C20	C	0.688682	-0.281294	-0.400789
C21	C	0.615341	-0.284284	-0.397529
C22	C	0.578808	-0.328637	-0.349080
C23	C	0.615621	-0.369997	-0.303884
C24	C	0.688962	-0.367003	-0.307141
C25	C	0.357374	-0.339820	-0.336900
C26	C	0.284029	-0.342813	-0.333647
C27	C	0.283753	-0.257098	-0.427291
C28	C	0.357095	-0.254111	-0.430547
C29	C	0.393902	-0.295468	-0.385349
C30	C	0.503841	-0.331697	-0.345748
C31	C	0.468868	-0.292404	-0.388678
C32	C	0.978488	-0.494522	-0.359056
C33	C	0.975337	-0.572579	-0.355600
C34	C	1.016747	-0.609353	-0.400760
C35	C	1.013783	-0.682696	-0.397514
C36	C	0.969414	-0.719264	-0.349105
C37	C	0.928000	-0.682486	-0.303944
C38	C	0.930960	-0.609144	-0.307193
C39	C	0.958328	-0.940703	-0.336957
C40	C	0.955372	-1.014050	-0.333709
C41	C	1.041155	-1.014255	-0.427281
C42	C	1.044114	-0.940912	-0.430523
C43	C	1.002698	-0.904140	-0.385364
C44	C	0.966386	-0.794233	-0.345785
C45	C	1.005723	-0.829174	-0.388688
C46	C	1.169166	-0.304623	-0.375359
C47	C	1.247221	-0.301454	-0.378839
C48	C	0.977903	-0.320145	-0.549692
C49	C	0.974452	-0.323590	-0.627462
C50	C	0.993560	-0.128882	-0.375380
C51	C	0.996782	-0.050823	-0.378869
C52	C	1.019593	-0.278476	-0.668008
C53	C	1.016342	-0.281711	-0.741081
C54	C	0.967954	-0.330065	-0.773605
C55	C	0.922809	-0.375181	-0.733054
C56	C	0.926057	-0.371942	-0.659982
C57	C	0.955806	-0.342180	-0.994033
C58	C	0.952563	-0.345417	-1.067109
C59	C	1.046095	-0.251946	-1.075131
C60	C	1.049341	-0.248714	-1.002058
C61	C	1.004194	-0.293828	-0.961513
C62	C	0.964632	-0.333374	-0.848297
C63	C	1.007513	-0.290514	-0.886822
C64	C	0.994108	-0.303952	-0.185410
C65	C	0.997703	-0.300303	-0.107656
H66	H	1.052880	-0.579584	-0.440177
H67	H	0.387334	-0.373497	-0.300097
C68	C	0.918147	-0.833812	-0.293199
C69	C	0.882502	-0.785915	-0.254350
C70	C	0.838051	-0.822353	-0.205909
H71	H	0.945160	-0.859972	-0.262606
H72	H	0.885150	-0.864854	-0.317292
H73	H	0.915495	-0.754885	-0.230258
H74	H	0.855476	-0.759753	-0.284924
H75	H	0.805054	-0.853395	-0.230002
H76	H	0.865070	-0.848511	-0.175321
H77	H	0.813856	-0.789860	-0.179548
C78	C	0.464127	-0.379949	-0.293263
C79	C	0.418436	-0.428498	-0.328934
C80	C	0.381844	-0.472962	-0.280609
H81	H	0.437908	-0.352938	-0.262731
H82	H	0.496524	-0.404201	-0.266823
H83	H	0.386043	-0.404248	-0.355363
H84	H	0.444637	-0.455525	-0.359463
H85	H	0.414241	-0.497214	-0.254168
H86	H	0.355628	-0.445946	-0.250079
H87	H	0.350843	-0.505912	-0.304805
H88	H	0.919238	-1.043822	-0.294288
H89	H	0.919053	-0.378925	-0.961029
H90	H	0.924606	-0.910769	-0.300185
C91	C	0.729056	-0.411828	-0.258113
C92	C	0.801104	-0.399698	-0.271321
C93	C	0.838060	-0.440971	-0.226160
H94	H	0.714737	-0.459994	-0.265594
H95	H	0.719579	-0.399875	-0.211034
H96	H	0.810577	-0.411656	-0.318390
H97	H	0.815444	-0.351541	-0.263836
H98	H	0.828583	-0.429018	-0.179081
H99	H	0.823736	-0.489134	-0.233645
H100	H	0.886949	-0.432742	-0.235111
C101	C	0.870384	-0.427764	-0.768403
C102	C	0.906424	-0.473034	-0.810101
C103	C	0.858155	-0.521490	-0.842666
H104	H	0.839610	-0.403489	-0.796797
H105	H	0.843973	-0.454210	-0.733809
H106	H	0.932823	-0.446592	-0.844690
H107	H	0.937195	-0.497325	-0.781723
H108	H	0.831744	-0.547936	-0.808072
H109	H	0.827383	-0.497209	-0.871057
H110	H	0.882601	-0.552216	-0.870956
C111	C	1.072045	-0.225862	-0.632739
C112	C	1.058817	-0.157787	-0.652925
C113	C	1.107116	-0.109298	-0.620445
H114	H	1.118303	-0.234659	-0.646338
H115	H	1.067514	-0.230344	-0.583407
H116	H	1.063354	-0.153307	-0.702246
H117	H	1.012569	-0.148968	-0.639326
H118	H	1.102584	-0.113780	-0.571114
H119	H	1.153370	-0.118101	-0.634047
H120	H	1.098143	-0.063103	-0.634132
C121	C	0.576088	-0.418173	-0.251211
C122	C	0.624025	-0.453739	-0.212320
C123	C	0.587635	-0.498121	-0.163786
H124	H	0.545040	-0.451225	-0.275211
H125	H	0.549942	-0.391096	-0.220660
H126	H	0.650159	-0.480814	-0.242866
H127	H	0.655074	-0.420705	-0.188305
H128	H	0.561489	-0.471043	-0.133235
H129	H	0.556588	-0.531168	-0.187791
H130	H	0.620154	-0.522253	-0.137388
H131	H	1.053101	-0.244975	-0.774091
H132	H	0.891870	-0.712266	-0.264531
H133	H	0.498616	-0.256289	-0.428122
H134	H	1.041846	-0.799398	-0.428106
C135	C	1.058838	-0.722492	-0.446568
C136	C	1.098351	-0.674768	-0.489637
C137	C	1.139876	-0.711400	-0.534825
H138	H	1.029531	-0.753565	-0.474639
H139	H	1.089522	-0.748634	-0.419931
H140	H	1.067670	-0.648637	-0.516271
H141	H	1.127671	-0.643693	-0.461586
H142	H	1.170561	-0.737542	-0.508189
H143	H	1.110564	-0.742472	-0.562891
H144	H	1.166695	-0.679025	-0.564048
C145	C	1.092310	-0.901340	-0.483152
C146	C	1.127930	-0.949245	-0.522017
C147	C	1.172332	-0.912817	-0.570506
H148	H	1.125327	-0.870284	-0.459119
H149	H	1.065242	-0.875198	-0.513724
H150	H	1.154996	-0.975375	-0.491449
H151	H	1.094931	-0.980302	-0.546065
H152	H	1.145264	-0.886675	-0.601079
H153	H	1.205345	-0.881762	-0.546468
H154	H	1.196501	-0.945315	-0.596887
C155	C	0.885970	-0.569340	-0.258080
C156	C	0.846492	-0.617060	-0.214978
C157	C	0.805042	-0.580419	-0.169723
H158	H	0.855261	-0.543176	-0.284646
H159	H	0.915347	-0.538286	-0.230043
H160	H	0.817118	-0.648102	-0.243013
H161	H	0.877184	-0.643226	-0.188398
H162	H	0.834419	-0.549364	-0.141685
H163	H	0.774337	-0.554256	-0.196294
H164	H	0.778256	-0.612790	-0.140469
H165	H	1.088746	-0.209341	-0.975582
H166	H	0.889292	-0.408673	-0.626970
C167	C	1.059939	-0.237975	-0.851421
C168	C	1.023899	-0.192728	-0.809696
C169	C	1.072172	-0.144327	-0.777060
H170	H	1.086384	-0.211498	-0.885957
H171	H	1.090682	-0.262317	-0.823039
H172	H	0.993168	-0.168389	-0.838076
H173	H	0.997456	-0.219186	-0.775148
H174	H	1.102915	-0.168669	-0.748679
H175	H	1.098614	-0.117855	-0.811600
H176	H	1.047726	-0.113626	-0.748741
H177	H	1.074874	-1.044203	-0.464048
H178	H	1.082851	-0.215215	-1.108151
H179	H	0.925237	-0.372747	-0.874787
H180	H	0.718422	-0.245179	-0.440243
C181	C	0.575346	-0.239296	-0.446483
C182	C	0.536854	-0.194172	-0.407085
C183	C	0.500009	-0.152711	-0.452160
H184	H	0.544231	-0.268650	-0.474465
H185	H	0.607585	-0.212414	-0.475797
H186	H	0.504618	-0.221051	-0.377783
H187	H	0.567952	-0.164803	-0.379105
H188	H	0.532248	-0.125829	-0.481474
H189	H	0.468898	-0.182071	-0.480140
H190	H	0.473893	-0.122085	-0.425435
C191	C	0.243667	-0.212221	-0.476274
C192	C	0.171620	-0.224320	-0.463042
C193	C	0.134672	-0.182981	-0.508145
H194	H	0.253101	-0.224122	-0.523368
H195	H	0.258035	-0.164065	-0.468739
H196	H	0.157257	-0.272465	-0.470582
H197	H	0.162165	-0.212416	-0.415957
H198	H	0.149041	-0.134825	-0.500610
H199	H	0.144112	-0.194885	-0.555236
H200	H	0.085786	-0.191180	-0.499169
H201	H	0.913157	-0.384795	-1.093588
C202	C	0.244444	-0.391080	-0.281082
C203	C	0.258776	-0.460529	-0.293879
C204	C	0.222328	-0.505010	-0.245469
H205	H	0.195481	-0.387034	-0.285572
H206	H	0.258972	-0.378196	-0.235068
H207	H	0.244243	-0.473410	-0.339882
H208	H	0.307731	-0.464598	-0.289383
H209	H	0.236857	-0.492126	-0.199455
H210	H	0.173368	-0.500957	-0.249964
H211	H	0.232052	-0.552135	-0.254142
H212	H	0.386835	-0.217996	-0.470002
