data_functionalizedCrystal
_audit_creation_method	'MofGen! by Chris Wilmer'
_symmetry_space_group_name_H-M	'P1'
_symmetry_Int_Tables_number	1
_symmetry_cell_setting	triclinic
loop_
_symmetry_equiv_pos_as_xyz
  x,y,z
_cell_length_a	13.635800
_cell_length_b	11.168129
_cell_length_c	19.551833
_cell_angle_alpha	85.450907
_cell_angle_beta	101.663477
_cell_angle_gamma	71.491363
loop_
_atom_site_label
_atom_site_type_symbol
_atom_site_fract_x
_atom_site_fract_y
_atom_site_fract_z
V1	V	2.016069	-0.176029	0.217864
O2	O	1.996602	0.007097	0.213711
O3	O	2.004478	-0.347725	0.216380
O4	O	1.987261	-0.173919	0.312879
O5	O	2.013938	-0.167913	0.116543
V6	V	2.256846	-0.154054	0.205745
O7	O	2.148858	-0.224231	0.244449
O8	O	2.349157	-0.105851	0.179159
O9	O	2.156834	0.017642	0.207229
O10	O	2.335012	-0.337179	0.209898
O11	O	2.317676	-0.162170	0.307065
O12	O	2.174051	-0.156164	0.110729
V13	V	2.516069	-0.176029	0.217864
O14	O	2.496602	0.007097	0.213711
O15	O	2.504478	-0.347725	0.216380
O16	O	2.487261	-0.173919	0.312879
O17	O	2.513938	-0.167913	0.116543
V18	V	2.756846	-0.154054	0.205745
O19	O	2.648858	-0.224231	0.244449
O20	O	2.849157	-0.105851	0.179159
O21	O	2.656834	0.017642	0.207229
O22	O	2.835012	-0.337179	0.209898
O23	O	2.817676	-0.162170	0.307065
O24	O	2.674051	-0.156164	0.110729
C25	C	1.930195	-0.389562	0.212945
C26	C	1.961331	-0.529930	0.212365
C27	C	1.957656	-0.575005	0.151295
C28	C	1.989836	-0.720082	0.150695
C29	C	1.908233	-0.167853	0.336038
C30	C	1.925404	-0.167264	0.413714
C31	C	2.062789	0.059473	0.210662
C32	C	2.021272	0.199839	0.211247
C33	C	2.084751	-0.162233	0.087567
C34	C	2.057198	-0.162816	0.009890
C35	C	2.430195	-0.389562	0.212945
C36	C	2.461331	-0.529930	0.212365
C37	C	2.408233	-0.167853	0.336038
C38	C	2.425404	-0.167264	0.413714
C39	C	2.024824	-0.173326	0.453761
C40	C	2.040959	-0.172772	0.526746
C41	C	1.957674	-0.166183	0.559682
C42	C	1.858239	-0.160113	0.519625
C43	C	1.842104	-0.160654	0.446640
C44	C	1.931315	-0.234840	0.678996
C45	C	1.947456	-0.234307	0.751980
C46	C	2.007435	-0.164509	0.784789
C47	C	2.051293	-0.095261	0.744607
C48	C	2.035158	-0.095802	0.671623
C49	C	1.975160	-0.165595	0.638821
C50	C	2.124356	-0.169969	0.903975
C51	C	2.140485	-0.169408	0.976960
C52	C	1.957766	-0.156761	0.969838
C53	C	1.941636	-0.157310	0.896853
C54	C	2.024936	-0.163920	0.863927
C55	C	2.562789	0.059473	0.210662
C56	C	2.521272	0.199839	0.211247
C57	C	2.584751	-0.162233	0.087567
C58	C	2.557198	-0.162816	0.009890
C59	C	2.524828	-0.173305	0.453753
C60	C	2.540973	-0.172735	0.526736
C61	C	2.457694	-0.166133	0.559680
C62	C	2.358261	-0.160088	0.519635
C63	C	2.342116	-0.160649	0.446653
C64	C	2.458244	-0.169403	-0.023035
C65	C	2.432337	-0.169936	-0.096021
C66	C	2.505388	-0.163890	-0.136079
C67	C	2.604349	-0.157298	-0.103149
C68	C	2.630252	-0.156757	-0.030165
C69	C	2.562040	-0.598641	0.215420
C70	C	2.594223	-0.743719	0.214821
H71	H	1.930691	-0.506191	0.099457
C72	C	1.997762	-0.622890	0.282399
N73	N	2.025199	-0.692906	0.335151
H74	H	2.484287	-0.164348	-0.195505
C75	C	2.646339	-0.533019	0.219554
N76	N	2.709836	-0.483595	0.222666
H77	H	2.092654	-0.178703	0.426957
H78	H	2.621944	-0.177662	0.559331
H79	H	2.290462	-0.154714	0.546470
C80	C	2.377867	-0.176045	0.021014
N81	N	2.317316	-0.181039	0.054188
H82	H	2.261154	-0.155733	0.414058
H83	H	2.221444	-0.174335	1.009565
C84	C	2.739114	-0.149521	0.006046
N85	N	2.821114	-0.144070	0.033316
H86	H	2.680495	-0.802783	0.217428
H87	H	2.434997	-0.741102	0.208630
H88	H	2.398937	-0.578510	0.209309
H89	H	1.986736	-0.758912	0.098410
C90	C	2.323481	-0.177209	-0.132229
N91	N	2.241494	-0.182693	-0.159497
H92	H	2.024362	-0.761339	0.263534
H93	H	2.121922	-0.177715	0.559360
C94	C	2.684696	-0.150653	-0.147223
N95	N	2.745215	-0.145656	-0.180422
C96	C	2.475472	-0.165518	0.639965
N97	N	2.488870	-0.165058	0.700436
H98	H	2.070867	-0.039415	0.638910
H99	H	2.192183	-0.175347	0.877164
C100	C	2.117272	-0.018475	0.780691
N101	N	2.166969	0.039357	0.807872
H102	H	1.860682	-0.152388	0.864247
C103	C	1.899206	-0.310477	0.796172
N104	N	1.862859	-0.367847	0.829456
H105	H	1.889951	-0.151385	0.996653
H106	H	1.882462	-0.291670	0.652289
H107	H	1.790428	-0.154744	0.546445
H108	H	1.761141	-0.155708	0.414033
C109	C	2.616450	-0.180558	0.417528
N110	N	2.685464	-0.186012	0.390247
