data_functionalizedCrystal
_audit_creation_method	'MofGen! by Chris Wilmer'
_symmetry_space_group_name_H-M	'P1'
_symmetry_Int_Tables_number	1
_symmetry_cell_setting	triclinic
loop_
_symmetry_equiv_pos_as_xyz
  x,y,z
_cell_length_a	18.101397
_cell_length_b	18.215407
_cell_length_c	18.215399
_cell_angle_alpha	90.020595
_cell_angle_beta	89.972062
_cell_angle_gamma	89.980312
loop_
_atom_site_label
_atom_site_type_symbol
_atom_site_fract_x
_atom_site_fract_y
_atom_site_fract_z
Zn1	Zn	-0.294839	-1.125098	-0.416131
Zn2	Zn	-0.418685	-1.125018	-0.293065
Zn3	Zn	-0.294862	-1.002031	-0.293077
Zn4	Zn	-0.418643	-1.002008	-0.416088
O5	O	-0.356757	-1.063538	-0.354590
O6	O	-0.311275	-1.228072	-0.399819
O7	O	-0.402287	-1.108679	-0.190082
O8	O	-0.191226	-1.018399	-0.309423
O9	O	-0.402265	-1.228012	-0.309403
O10	O	-0.191209	-1.108816	-0.399831
O11	O	-0.311315	-1.018321	-0.190091
O12	O	-0.311274	-0.899043	-0.309381
O13	O	-0.402192	-1.018360	-0.519078
O14	O	-0.402215	-0.899026	-0.399757
O15	O	-0.311234	-1.108794	-0.519110
O16	O	-0.522312	-1.108657	-0.309361
O17	O	-0.522281	-1.018282	-0.399746
C18	C	-0.356743	-0.872332	-0.354566
C19	C	-0.356754	-0.790533	-0.354574
C20	C	-0.404180	-0.602350	-0.401571
C21	C	-0.404182	-0.525491	-0.401579
C22	C	-0.309338	-0.525479	-0.307612
C23	C	-0.309333	-0.602336	-0.307608
C24	C	-0.356759	-0.640770	-0.354586
C25	C	-0.356765	-0.487054	-0.354598
C26	C	-0.356766	-0.403720	-0.354607
C27	C	-0.356756	-0.724109	-0.354579
C28	C	-0.549168	-1.063478	-0.354563
C29	C	-0.631482	-1.063519	-0.354577
C30	C	-0.782190	-1.063564	-0.354602
C31	C	-0.813532	-1.120482	-0.297789
C32	C	-0.899151	-1.120340	-0.297580
C33	C	-0.930573	-1.063609	-0.354626
C34	C	-0.899556	-0.985996	-0.333749
C35	C	-0.813911	-0.986299	-0.333323
C36	C	-0.813685	-1.083591	-0.432439
C37	C	-0.899335	-1.085328	-0.432038
C38	C	-1.014432	-1.063630	-0.354641
C39	C	-0.698331	-1.063538	-0.354585
C40	C	-0.163595	-1.063619	-0.354633
C41	C	-0.081281	-1.063654	-0.354651
C42	C	-0.356706	-1.063583	-0.546543
C43	C	-0.356684	-1.063602	-0.628342
C44	C	-0.356770	-0.255491	-0.354611
C45	C	-0.356769	-0.337290	-0.354611
C46	C	-0.309278	-1.110708	-0.816554
C47	C	-0.309256	-1.110717	-0.893412
C48	C	-0.403976	-1.016548	-0.893368
C49	C	-0.403993	-1.016537	-0.816511
C50	C	-0.356645	-1.063621	-0.778106
C51	C	-0.356607	-1.063641	-0.931822
C52	C	-0.356583	-1.063651	-1.015155
C53	C	-0.356667	-1.063611	-0.694767
C54	C	-0.356755	-1.063536	-0.163384
C55	C	-0.356568	-1.063660	-0.081585
H56	H	-0.442796	-0.494213	-0.439840
C57	C	-0.784439	-1.158734	-0.458140
N58	N	-0.762412	-1.215334	-0.477490
H59	H	-0.270684	-1.149060	-0.924713
H60	H	-0.270727	-0.494177	-0.269363
H61	H	-0.919601	-1.142445	-0.447784
H62	H	-0.442527	-0.978216	-0.924647
C63	C	-0.257163	-0.644601	-0.255919
N64	N	-0.217870	-0.676435	-0.216989
C65	C	-0.456102	-0.964731	-0.774215
N66	N	-0.495346	-0.925711	-0.742359
H67	H	-0.920119	-1.177885	-0.310620
H68	H	-0.442795	-0.633640	-0.439826
H69	H	-0.921060	-0.968769	-0.277489
C70	C	-0.785635	-1.198449	-0.315189
N71	N	-0.764614	-1.257175	-0.328293
H72	H	-0.792058	-1.107374	-0.240444
C73	C	-0.257188	-1.162496	-0.774310
N74	N	-0.217949	-1.201501	-0.742495
C75	C	-0.926904	-1.102420	-0.219676
N76	N	-0.947807	-1.088919	-0.160996
C77	C	-0.786996	-0.963402	-0.256465
N78	N	-0.766727	-0.946154	-0.198575
H79	H	-0.793180	-0.942437	-0.372914
C80	C	-0.927070	-0.927154	-0.387929
N81	N	-0.947800	-0.882835	-0.428734
H82	H	-0.920720	-1.046926	-0.476627
H83	H	-0.793411	-1.042140	-0.474767
