data_functionalizedCrystal
_audit_creation_method	'MofGen! by Chris Wilmer'
_symmetry_space_group_name_H-M	'P1'
_symmetry_Int_Tables_number	1
_symmetry_cell_setting	triclinic
loop_
_symmetry_equiv_pos_as_xyz
  x,y,z
_cell_length_a	16.974829
_cell_length_b	17.019294
_cell_length_c	16.053802
_cell_angle_alpha	88.688316
_cell_angle_beta	83.771117
_cell_angle_gamma	83.147414
loop_
_atom_site_label
_atom_site_type_symbol
_atom_site_fract_x
_atom_site_fract_y
_atom_site_fract_z
O1	O	1.056127	0.093506	-0.147508
O2	O	1.556127	0.593506	0.352492
O3	O	0.825203	0.107007	-0.132878
O4	O	1.325203	0.607007	0.367122
O5	O	0.946711	-0.014208	-0.132368
O6	O	1.446711	0.485792	0.367632
O7	O	0.934619	0.214721	-0.148018
O8	O	1.434619	0.714721	0.351982
O9	O	0.940023	-0.007564	0.006465
O10	O	1.440023	0.492436	0.506465
O11	O	0.818515	0.113651	0.005955
O12	O	1.318515	0.613651	0.505955
O13	O	1.049439	0.100151	-0.008675
O14	O	1.549439	0.600151	0.491325
Zn15	Zn	0.932915	0.107956	0.020683
Zn16	Zn	1.432915	0.607956	0.520683
Zn17	Zn	0.941727	0.099202	-0.162236
Zn18	Zn	1.441727	0.599202	0.337764
O19	O	0.927931	0.221366	-0.009185
O20	O	1.427931	0.721366	0.490815
C21	C	0.792304	0.109938	-0.061436
C22	C	1.292304	0.609938	0.438564
C23	C	0.704238	0.108764	-0.055402
C24	C	1.204238	0.608764	0.444598
C25	C	0.208130	0.102568	-0.013315
C26	C	0.708130	0.602568	0.486685
C27	C	0.290876	0.103671	-0.018986
C28	C	0.790876	0.603671	0.481014
C29	C	0.335896	0.100595	-0.097501
C30	C	0.835896	0.600595	0.402499
C31	C	0.298165	0.096423	-0.170349
C32	C	0.798165	0.596423	0.329651
C33	C	0.215419	0.095325	-0.164677
C34	C	0.715419	0.595325	0.335323
C35	C	0.583761	0.103494	-0.122579
C36	C	1.083761	0.603494	0.377421
C37	C	0.666513	0.104590	-0.128245
C38	C	1.166513	0.604590	0.371755
C39	C	0.659218	0.111839	0.023118
C40	C	1.159218	0.611839	0.523118
C41	C	0.576472	0.110737	0.028783
C42	C	1.076472	0.610737	0.528783
C43	C	0.538747	0.106569	-0.044065
C44	C	1.038747	0.606569	0.455935
N45	N	0.420477	0.101720	-0.103300
N46	N	0.920477	0.601720	0.396700
N47	N	0.454167	0.105449	-0.038266
N48	N	0.954167	0.605449	0.461734
C49	C	0.942777	-0.040172	-0.060807
C50	C	1.442777	0.459828	0.439193
C51	C	0.941008	-0.127435	-0.054416
C52	C	1.441008	0.372565	0.445584
C53	C	0.943825	-0.172049	-0.127091
C54	C	1.443825	0.327951	0.372909
C55	C	0.942158	-0.254041	-0.121083
C56	C	1.442158	0.245959	0.378917
C57	C	0.937680	-0.291418	-0.042400
C58	C	1.437680	0.208582	0.457600
C59	C	0.934861	-0.246798	0.030281
C60	C	1.434861	0.253202	0.530281
C61	C	0.936522	-0.164807	0.024272
C62	C	1.436522	0.335193	0.524272
C63	C	0.932476	-0.538796	-0.020472
C64	C	1.432476	-0.038796	0.479528
C65	C	0.930818	-0.620794	-0.014469
C66	C	1.430818	-0.120794	0.485531
C67	C	0.938113	-0.628031	-0.165834
C68	C	1.438113	-0.128031	0.334166
C69	C	0.939779	-0.546038	-0.171835
C70	C	1.439779	-0.046038	0.328165
C71	C	0.936956	-0.501425	-0.099155
C72	C	1.436956	-0.001425	0.400845
C73	C	0.935978	-0.375227	-0.036257
C74	C	1.435978	0.124773	0.463743
C75	C	0.938651	-0.417617	-0.105298
C76	C	1.438651	0.082383	0.394702
C77	C	1.082338	0.097220	-0.080118
C78	C	1.582338	0.597220	0.419882
C79	C	1.170404	0.098394	-0.086158
C80	C	1.670404	0.598394	0.413842
C81	C	0.931865	0.247330	-0.080748
C82	C	1.431865	0.747330	0.419252
C83	C	0.933634	0.334592	-0.087144
C84	C	1.433634	0.834592	0.412856
N85	N	0.926907	0.113930	0.145519
N86	N	1.426907	0.613930	0.645519
N87	N	0.947741	0.093221	-0.287072
N88	N	1.447741	0.593221	0.212928
C89	C	0.978628	0.062371	0.189427
C90	C	1.478628	0.562371	0.689427
C91	C	0.974432	0.066558	0.276816
C92	C	1.474432	0.566558	0.776816
C93	C	0.918519	0.122308	0.320295
C94	C	1.418519	0.622308	0.820295
C95	C	0.866793	0.173869	0.276381
C96	C	1.366793	0.673869	0.776381
C97	C	0.870985	0.169678	0.188994
C98	C	1.370985	0.669678	0.688994
C99	C	0.900207	0.140592	0.581627
C100	C	1.400207	0.640592	1.081627
C101	C	0.896021	0.144780	0.669020
C102	C	1.396021	0.644780	1.169020
C103	C	1.003659	0.037467	0.669449
C104	C	1.503659	0.537467	1.169449
C105	C	1.007850	0.033285	0.582060
C106	C	1.507850	0.533285	1.082060
C107	C	0.956121	0.084843	0.538154
C108	C	1.456121	0.584843	1.038154
N109	N	0.914231	0.126590	0.409621
N110	N	1.414231	0.626590	0.909621
N111	N	0.960405	0.080557	0.448831
N112	N	1.460405	0.580557	0.948831
H113	H	0.689943	0.115234	0.082427
H114	H	1.189943	0.615234	0.582427
O115	O	1.038928	0.002226	0.142548
O116	O	1.538928	0.502226	0.642548
H117	H	1.007348	-0.037762	0.107753
H118	H	1.507348	0.462238	0.607753
O119	O	0.835713	0.204913	0.715921
O120	O	1.335713	0.704913	1.215921
H121	H	0.795187	0.173867	0.760737
H122	H	1.295187	0.673867	1.260737
O123	O	0.331566	0.108204	0.059577
O124	O	0.831566	0.608204	0.559577
H125	H	0.286359	0.110161	0.115125
H126	H	0.786359	0.610161	0.615125
H127	H	0.539824	0.113225	0.092719
H128	H	1.039824	0.613225	0.592719
H129	H	0.932335	-0.405669	0.027807
H130	H	1.432335	0.094331	0.527807
O131	O	1.030230	0.010963	0.324176
O132	O	1.530230	0.510963	0.824176
H133	H	1.069826	-0.028496	0.279260
H134	H	1.569826	0.471504	0.779260
O135	O	1.068149	-0.026852	0.535165
O136	O	1.568149	0.473148	1.035165
H137	H	1.103405	-0.062007	0.580380
H138	H	1.603405	0.437993	1.080380
H139	H	0.947475	-0.141623	-0.191164
H140	H	1.447475	0.358377	0.308836
O141	O	0.941139	-0.676151	-0.244217
O142	O	1.441139	-0.176151	0.255783
H143	H	0.944532	-0.636385	-0.299939
H144	H	1.444532	-0.136385	0.200061
O145	O	0.715074	0.101280	-0.212932
O146	O	1.215074	0.601280	0.287068
H147	H	0.674940	0.098206	-0.262637
H148	H	1.174940	0.598206	0.237363
O149	O	0.543082	0.098950	-0.201144
O150	O	1.043082	0.598950	0.298856
H151	H	0.588294	0.096971	-0.256688
H152	H	1.088294	0.596971	0.243312
H153	H	0.858089	0.182574	0.545885
H154	H	1.358089	0.682574	1.045885
H155	H	0.944455	-0.290362	-0.180263
H156	H	1.444455	0.209638	0.319737
H157	H	0.930193	-0.502484	0.038709
H158	H	1.430193	-0.002484	0.538709
O159	O	1.059445	-0.018147	0.716803
O160	O	1.559445	0.481853	1.216803
H161	H	1.047135	-0.005875	0.784874
H162	H	1.547135	0.494125	1.284874
O163	O	0.944593	-0.505721	-0.256700
O164	O	1.444593	-0.005721	0.243300
H165	H	0.946260	-0.550518	-0.306227
H166	H	1.446260	-0.050518	0.193773
O167	O	0.806488	0.234005	0.323269
O168	O	1.306488	0.734005	0.823269
H169	H	0.812267	0.228265	0.391411
H170	H	1.312267	0.728265	0.891411
O171	O	0.815203	0.225281	0.141622
O172	O	1.315203	0.725281	0.641622
H173	H	0.824644	0.287335	0.153271
H174	H	1.324644	0.787335	0.653271
O175	O	0.159572	0.105890	0.071368
O176	O	0.659572	0.605890	0.571368
H177	H	0.199710	0.108987	0.121066
H178	H	0.699710	0.608987	0.621066
H179	H	0.184704	0.091929	-0.223994
H180	H	0.684704	0.591929	0.276006
O181	O	0.346718	0.093091	-0.255035
O182	O	0.846718	0.593091	0.244965
H183	H	0.410597	0.094541	-0.246742
H184	H	0.910597	0.594541	0.253258
H185	H	0.927167	-0.651223	0.049607
H186	H	1.427167	-0.151223	0.549607
O187	O	0.930046	-0.287108	0.115149
O188	O	1.430046	0.212892	0.615149
H189	H	0.929378	-0.351619	0.107118
H190	H	1.429378	0.148381	0.607118
H191	H	0.934217	-0.128481	0.083453
H192	H	1.434217	0.371519	0.583453
H193	H	0.942292	-0.387180	-0.169361
H194	H	1.442292	0.112820	0.330639
