data_functionalizedCrystal
_audit_creation_method	'MofGen! by Chris Wilmer'
_symmetry_space_group_name_H-M	'P1'
_symmetry_Int_Tables_number	1
_symmetry_cell_setting	triclinic
loop_
_symmetry_equiv_pos_as_xyz
  x,y,z
_cell_length_a	19.805407
_cell_length_b	13.032721
_cell_length_c	19.805399
_cell_angle_alpha	97.155902
_cell_angle_beta	89.980427
_cell_angle_gamma	97.204665
loop_
_atom_site_label
_atom_site_type_symbol
_atom_site_fract_x
_atom_site_fract_y
_atom_site_fract_z
Zn1	Zn	1.000535	-0.416068	-0.416943
Zn2	Zn	0.986084	-0.590828	-0.318130
Zn3	Zn	0.887347	-0.416097	-0.303770
Zn4	Zn	0.872952	-0.590772	-0.431272
O5	O	0.936729	-0.503441	-0.367529
O6	O	1.093333	-0.439261	-0.403849
O7	O	0.972963	-0.567684	-0.221512
O8	O	0.914433	-0.269853	-0.306777
O9	O	1.082717	-0.567656	-0.331251
O10	O	0.997592	-0.269832	-0.389925
O11	O	0.900421	-0.439310	-0.210962
O12	O	0.790722	-0.439257	-0.320671
O13	O	0.889899	-0.567562	-0.524085
O14	O	0.780146	-0.567590	-0.414346
O15	O	0.983634	-0.439207	-0.513558
O16	O	0.959005	-0.737060	-0.345145
O17	O	0.875887	-0.737019	-0.428270
C18	C	0.760875	-0.503421	-0.367506
C19	C	0.685642	-0.503438	-0.367514
C20	C	0.914334	-0.774958	-0.389835
C21	C	0.904816	-0.891114	-0.399401
C22	C	0.644800	-0.570361	-0.416228
C23	C	0.574112	-0.570363	-0.416238
C24	C	0.544265	-0.503446	-0.367529
C25	C	0.585113	-0.436515	-0.318812
C26	C	0.655800	-0.436508	-0.318806
C27	C	0.300037	-0.436538	-0.318836
C28	C	0.229344	-0.436551	-0.318845
C29	C	0.218349	-0.570393	-0.416269
C30	C	0.289036	-0.570386	-0.416262
C31	C	0.329878	-0.503452	-0.367548
C32	C	0.406526	-0.503449	-0.367538
C33	C	0.467618	-0.503453	-0.367535
C34	C	0.941733	-0.942886	-0.362567
C35	C	0.931896	-1.062939	-0.372453
C36	C	1.113270	-0.503462	-0.367553
C37	C	1.188502	-0.503471	-0.367563
C38	C	0.936773	-0.503375	-0.544066
C39	C	0.936791	-0.503347	-0.619296
C40	C	0.959230	-0.230864	-0.345151
C41	C	0.968819	-0.114708	-0.335614
C42	C	0.985600	-0.436510	-0.649160
C43	C	0.985609	-0.436479	-0.719846
C44	C	0.936813	-0.503293	-0.760667
C45	C	0.887999	-0.570133	-0.730799
C46	C	0.887987	-0.570157	-0.660114
C47	C	0.888045	-0.570036	-1.015865
C48	C	0.888062	-0.570008	-1.086555
C49	C	0.985668	-0.436358	-1.075596
C50	C	0.985656	-0.436382	-1.004911
C51	C	0.936840	-0.503218	-0.975049
C52	C	0.936830	-0.503249	-0.898403
C53	C	0.936825	-0.503268	-0.837312
C54	C	0.936731	-0.503431	-0.191672
C55	C	0.936868	-0.503165	-0.116419
H56	H	0.669095	-0.624857	-0.455891
O57	O	0.840684	-0.635145	-0.770491
C58	C	0.819946	-0.776167	-0.861904
C59	C	0.873600	-0.702619	-0.816992
H60	H	0.846539	-0.830724	-0.899520
H61	H	0.785063	-0.824018	-0.828454
H62	H	0.788512	-0.728149	-0.891021
H63	H	0.905082	-0.750557	-0.787868
H64	H	0.908436	-0.654765	-0.850479
O65	O	0.556191	-0.371561	-0.271408
C66	C	0.538678	-0.320641	-0.152146
C67	C	0.571481	-0.394248	-0.205761
H68	H	0.551016	-0.338972	-0.099059
H69	H	0.559541	-0.236380	-0.157143
H70	H	0.481145	-0.332128	-0.160552
H71	H	0.629015	-0.382855	-0.197389
H72	H	0.550565	-0.478482	-0.200750
O73	O	1.032934	-0.371433	-0.748870
C74	C	1.053693	-0.230329	-0.817108
C75	C	1.000029	-0.303925	-0.784267
H76	H	1.027110	-0.175745	-0.845747
H77	H	1.088559	-0.182511	-0.775809
H78	H	1.085146	-0.278308	-0.854124
H79	H	0.968529	-0.256027	-0.747257
H80	H	0.965211	-0.351747	-0.825603
H81	H	0.893007	-1.107490	-0.411311
O82	O	1.033017	-0.371455	-1.104712
C83	C	1.076322	-0.312214	-1.208751
C84	C	1.022652	-0.385747	-1.175867
H85	H	1.067970	-0.323759	-1.266286
H86	H	1.071392	-0.227930	-1.187978
H87	H	1.129375	-0.330569	-1.196330
H88	H	0.969576	-0.367486	-1.188275
H89	H	1.027642	-0.470009	-1.196642
H90	H	0.848322	-0.624418	-1.119791
H91	H	0.313333	-0.624881	-0.455924
H92	H	0.205047	-0.382053	-0.279180
O93	O	0.695540	-0.371648	-0.271462
C94	C	0.776456	-0.357401	-0.178893
C95	C	0.731496	-0.430977	-0.232487
H96	H	0.805528	-0.405340	-0.147358
H97	H	0.814108	-0.302835	-0.205505
H98	H	0.742975	-0.309550	-0.144107
H99	H	0.764924	-0.478895	-0.267288
H100	H	0.693840	-0.485474	-0.205830
H101	H	1.025393	-0.381979	-0.971677
H102	H	0.848305	-0.624473	-0.991561
H103	H	0.848236	-0.624573	-0.635800
O104	O	0.858429	-0.944419	-0.445704
C105	C	0.806381	-1.112676	-0.497825
C106	C	0.858927	-1.052442	-0.445350
H107	H	0.806776	-1.200022	-0.497566
H108	H	0.753522	-1.091442	-0.484151
H109	H	0.819979	-1.091144	-0.550645
H110	H	0.845392	-1.073941	-0.392511
H111	H	0.911770	-1.073681	-0.459083
H112	H	0.540861	-0.624860	-0.455906
O113	O	0.988079	-0.889580	-0.316223
C114	C	1.040191	-0.721324	-0.264166
C115	C	0.987668	-0.781558	-0.316663
H116	H	1.039885	-0.633977	-0.264514
H117	H	1.026596	-0.742710	-0.211310
H118	H	1.093014	-0.742703	-0.277843
H119	H	0.934826	-0.760211	-0.303049
H120	H	1.001321	-0.760166	-0.369504
H121	H	0.185087	-0.624890	-0.455937
O122	O	1.032943	-0.371455	-0.609527
C123	C	1.080493	-0.193703	-0.573352
C124	C	1.026835	-0.267264	-0.618253
H125	H	1.075582	-0.109450	-0.580402
H126	H	1.072109	-0.205106	-0.517685
H127	H	1.133548	-0.212109	-0.588766
H128	H	0.973758	-0.248904	-0.602899
H129	H	1.035278	-0.255847	-0.673909
O130	O	1.015167	-1.061408	-0.289266
C131	C	1.067277	-0.893155	-0.237203
C132	C	1.014756	-0.953385	-0.289703
H133	H	1.066973	-0.805807	-0.237549
H134	H	1.053681	-0.914544	-0.184349
H135	H	1.120101	-0.914534	-0.250879
H136	H	0.961914	-0.932038	-0.276091
H137	H	1.028411	-0.931991	-0.342543
H138	H	0.333282	-0.382044	-0.279165
