data_functionalizedCrystal
_audit_creation_method	'MofGen! by Chris Wilmer'
_symmetry_space_group_name_H-M	'P1'
_symmetry_Int_Tables_number	1
_symmetry_cell_setting	triclinic
loop_
_symmetry_equiv_pos_as_xyz
  x,y,z
_cell_length_a	10.654562
_cell_length_b	17.699092
_cell_length_c	9.730223
_cell_angle_alpha	90.000361
_cell_angle_beta	89.996961
_cell_angle_gamma	83.888236
loop_
_atom_site_label
_atom_site_type_symbol
_atom_site_fract_x
_atom_site_fract_y
_atom_site_fract_z
O1	O	1.665968	0.106345	-0.114375
O2	O	2.165968	0.606345	0.385625
O3	O	1.300315	0.116462	-0.114357
O4	O	1.800315	0.616462	0.385643
O5	O	1.493467	0.001281	-0.114363
O6	O	1.993467	0.501281	0.385637
O7	O	1.472817	0.221526	-0.114368
O8	O	1.972817	0.721526	0.385632
O9	O	1.493465	0.001284	0.114217
O10	O	1.993465	0.501284	0.614217
O11	O	1.300313	0.116465	0.114223
O12	O	1.800313	0.616465	0.614223
O13	O	1.665966	0.106348	0.114205
O14	O	2.165966	0.606348	0.614205
Zn15	Zn	1.483139	0.111407	0.150506
Zn16	Zn	1.983139	0.611407	0.650506
Zn17	Zn	1.483142	0.111403	-0.150658
Zn18	Zn	1.983142	0.611403	0.349342
O19	O	1.472814	0.221529	0.114212
O20	O	1.972814	0.721529	0.614212
C21	C	1.253530	0.115719	-0.000065
C22	C	1.753530	0.615719	0.499935
C23	C	1.114126	0.113490	-0.000058
C24	C	1.614126	0.613490	0.499942
C25	C	1.048612	0.112452	0.124530
C26	C	1.548612	0.612452	0.624530
C27	C	0.917626	0.110364	0.124507
C28	C	1.417626	0.610364	0.624507
C29	C	0.917679	0.110355	-0.124703
C30	C	1.417679	0.610355	0.375297
C31	C	1.048664	0.112438	-0.124679
C32	C	1.548664	0.612438	0.375321
C33	C	1.048580	0.112461	0.268410
C34	C	1.548580	0.612461	0.768410
C35	C	0.917594	0.110373	0.268387
C36	C	1.417594	0.610373	0.768387
C37	C	1.492724	-0.026920	-0.000075
C38	C	1.992724	0.473080	0.499925
C39	C	1.490499	-0.110951	-0.000081
C40	C	1.990499	0.389049	0.499919
C41	C	1.489458	-0.150427	-0.124682
C42	C	1.989458	0.349573	0.375318
C43	C	1.487359	-0.229384	-0.124683
C44	C	1.987359	0.270616	0.375317
C45	C	1.486311	-0.268863	-0.000083
C46	C	1.986311	0.231137	0.499917
C47	C	1.487348	-0.229382	0.124527
C48	C	1.987348	0.270618	0.624527
C49	C	1.489438	-0.150426	0.124527
C50	C	1.989438	0.349574	0.624527
C51	C	1.478919	-0.547801	0.124529
C52	C	1.978919	-0.047801	0.624529
C53	C	1.476833	-0.626762	0.124520
C54	C	1.976833	-0.126762	0.624520
C55	C	1.476840	-0.626758	-0.124681
C56	C	1.976840	-0.126758	0.375319
C57	C	1.478930	-0.547802	-0.124681
C58	C	1.978930	-0.047802	0.375319
C59	C	1.479960	-0.508327	-0.000072
C60	C	1.979960	-0.008327	0.499928
C61	C	1.482234	-0.422714	-0.000072
C62	C	1.982234	0.077286	0.499928
C63	C	1.484046	-0.354476	-0.000082
C64	C	1.984046	0.145524	0.499918
C65	C	1.712752	0.107091	-0.000090
C66	C	2.212752	0.607091	0.499910
C67	C	1.852156	0.109320	-0.000105
C68	C	2.352156	0.609320	0.499895
C69	C	1.473557	0.249729	-0.000079
C70	C	1.973557	0.749729	0.499921
C71	C	1.475782	0.333761	-0.000082
C72	C	1.975782	0.833761	0.499918
N73	N	1.483146	0.111409	0.356043
N74	N	1.983146	0.611409	0.856043
N75	N	1.483145	0.111395	-0.356194
N76	N	1.983145	0.611395	0.143806
C77	C	1.568696	0.060424	0.427966
C78	C	2.068696	0.560424	0.927966
C79	C	1.568692	0.060415	0.571849
C80	C	2.068692	0.560415	1.071849
C81	C	1.397587	0.162382	0.571872
C82	C	1.897587	0.662382	1.071872
C83	C	1.397585	0.162387	0.427992
C84	C	1.897585	0.662387	0.927992
C85	C	1.667486	0.001556	0.427953
C86	C	2.167486	0.501556	0.927953
C87	C	1.667483	0.001547	0.571836
C88	C	2.167483	0.501547	1.071836
H89	H	1.490318	-0.118289	-0.226146
H90	H	1.990318	0.381711	0.273854
H91	H	1.327913	0.203897	0.369433
H92	H	1.827913	0.703897	0.869433
H93	H	1.479783	-0.515672	0.225994
H94	H	1.979783	-0.015672	0.725994
F95	F	1.306530	0.216634	0.648457
F96	F	1.806530	0.716634	1.148457
F97	F	0.848000	0.109228	-0.257326
F98	F	1.348000	0.609228	0.242674
F99	F	1.085983	0.184607	0.326761
F100	F	1.585983	0.684607	0.826761
H101	H	1.490268	-0.118285	0.225990
H102	H	1.990268	0.381715	0.725990
H103	H	1.647059	-0.056617	0.388902
H104	H	2.147059	0.443383	0.888902
H105	H	1.095752	0.060157	0.323664
H106	H	1.595752	0.560157	0.823664
H107	H	0.870395	0.162679	0.323621
H108	H	1.370395	0.662679	0.823621
F109	F	1.475739	-0.668776	-0.257303
F110	F	1.975739	-0.168776	0.242697
H111	H	1.758347	0.019992	0.383322
H112	H	2.258347	0.519992	0.883322
F113	F	1.628846	-0.070304	0.630163
F114	F	2.128846	0.429696	1.130163
H115	H	1.486517	-0.261521	-0.226146
H116	H	1.986517	0.238479	0.273854
H117	H	1.479789	-0.515662	-0.226144
H118	H	1.979789	-0.015662	0.273856
F119	F	1.793333	0.018494	0.622879
F120	F	2.293333	0.518494	1.122879
F121	F	1.486218	-0.271400	0.257137
F122	F	1.986218	0.228600	0.757137
H123	H	1.102003	0.113271	-0.226131
H124	H	1.602003	0.613271	0.273869
F125	F	0.880159	0.038287	0.326975
F126	F	1.380159	0.538287	0.826975
H127	H	1.475976	-0.658904	0.225990
H128	H	1.975976	-0.158904	0.725990
