data_functionalizedCrystal
_audit_creation_method	'MofGen! by Chris Wilmer'
_symmetry_space_group_name_H-M	'P1'
_symmetry_Int_Tables_number	1
_symmetry_cell_setting	triclinic
loop_
_symmetry_equiv_pos_as_xyz
  x,y,z
_cell_length_a	19.188933
_cell_length_b	27.731996
_cell_length_c	26.809956
_cell_angle_alpha	89.974654
_cell_angle_beta	89.980971
_cell_angle_gamma	82.883478
loop_
_atom_site_label
_atom_site_type_symbol
_atom_site_fract_x
_atom_site_fract_y
_atom_site_fract_z
O1	O	0.925757	0.060362	-0.041469
O2	O	1.425757	0.560362	0.458531
O3	O	0.722392	0.068485	-0.041475
O4	O	1.222392	0.568485	0.458525
O5	O	0.830410	-0.005956	-0.041461
O6	O	1.330410	0.494044	0.458539
O7	O	0.817740	0.134803	-0.041483
O8	O	1.317740	0.634803	0.458517
O9	O	0.830371	-0.005976	0.041498
O10	O	1.330371	0.494024	0.541498
O11	O	0.722354	0.068465	0.041484
O12	O	1.222354	0.568465	0.541484
O13	O	0.925719	0.060342	0.041490
O14	O	1.425719	0.560342	0.541490
Zn15	Zn	0.824030	0.064400	0.054659
Zn16	Zn	1.324030	0.564400	0.554659
Zn17	Zn	0.824081	0.064427	-0.054644
Zn18	Zn	1.324081	0.564427	0.445356
O19	O	0.817701	0.134783	0.041476
O20	O	1.317701	0.634783	0.541476
C21	C	0.696364	0.068212	0.000004
C22	C	1.196364	0.568212	0.500004
C23	C	0.618865	0.067422	0.000002
C24	C	1.118865	0.567422	0.500002
C25	C	0.065667	0.061794	-0.045212
C26	C	0.565667	0.561794	0.454788
C27	C	0.138487	0.062533	-0.045214
C28	C	0.638487	0.562533	0.454786
C29	C	0.174880	0.062894	0.000006
C30	C	0.674880	0.562894	0.500006
C31	C	0.138451	0.062503	0.045233
C32	C	0.638451	0.562503	0.545233
C33	C	0.065634	0.061759	0.045234
C34	C	0.565634	0.561759	0.545234
N35	N	0.283694	0.091561	0.033662
N36	N	0.783694	0.591561	0.533662
N37	N	0.352867	0.092269	0.033658
N38	N	0.852867	0.592269	0.533658
C39	C	0.394274	0.065136	0.000007
C40	C	0.894274	0.565136	0.500007
N41	N	0.363894	0.037273	-0.033648
N42	N	0.863894	0.537273	0.466352
N43	N	0.294714	0.036567	-0.033646
N44	N	0.794714	0.536567	0.466354
C45	C	0.253838	0.063701	0.000011
C46	C	0.753838	0.563701	0.500011
C47	C	0.509654	0.066325	-0.045219
C48	C	1.009654	0.566325	0.454781
C49	C	0.582476	0.067062	-0.045219
C50	C	1.082476	0.567062	0.454781
C51	C	0.582438	0.067036	0.045230
C52	C	1.082438	0.567036	0.545230
C53	C	0.509619	0.066295	0.045228
C54	C	1.009619	0.566295	0.545228
C55	C	0.473231	0.065942	0.000003
C56	C	0.973231	0.565942	0.500003
C57	C	0.830130	-0.023974	0.000020
C58	C	1.330130	0.476026	0.500020
C59	C	0.829346	-0.077633	0.000025
C60	C	1.329346	0.422367	0.500025
C61	C	0.824435	-0.410353	-0.045220
C62	C	1.324435	0.089647	0.454780
C63	C	0.821458	-0.612020	-0.045229
C64	C	1.321458	-0.112020	0.454771
O65	O	0.821061	-0.638083	-0.083688
O66	O	1.321061	-0.138083	0.416312
N67	N	0.821067	-0.637249	-0.000009
N68	N	1.321067	-0.137249	0.499991
C69	C	0.821416	-0.612058	0.045217
C70	C	1.321416	-0.112058	0.545217
O71	O	0.821009	-0.638144	0.083680
O72	O	1.321009	-0.138144	0.583680
C73	C	0.824388	-0.410392	0.045226
C74	C	1.324388	0.089608	0.545226
C75	C	0.824786	-0.385166	0.000002
C76	C	1.324786	0.114834	0.500002
C77	C	0.824832	-0.385127	-0.090440
C78	C	1.324832	0.114873	0.409560
C79	C	0.825580	-0.334713	-0.090438
C80	C	1.325580	0.165287	0.409562
C81	C	0.825931	-0.309526	-0.045215
C82	C	1.325931	0.190474	0.454785
C83	C	0.825534	-0.334752	0.000005
C84	C	1.325534	0.165248	0.500005
C85	C	0.824732	-0.385201	0.090451
C86	C	1.324732	0.114799	0.590451
C87	C	0.825474	-0.334781	0.090449
C88	C	1.325474	0.165219	0.590449
C89	C	0.825871	-0.309555	0.045226
C90	C	1.325871	0.190445	0.545226
C91	C	0.826633	-0.259151	0.045230
C92	C	1.326633	0.240849	0.545230
N93	N	0.827024	-0.233922	0.000009
N94	N	1.327024	0.266078	0.500009
C95	C	0.826673	-0.259109	-0.045213
C96	C	1.326673	0.240891	0.454787
C97	C	0.819858	-0.717937	0.045210
C98	C	1.319858	-0.217937	0.545210
C99	C	0.819116	-0.768353	0.045208
C100	C	1.319116	-0.268353	0.545208
C101	C	0.819156	-0.768311	-0.045239
C102	C	1.319156	-0.268311	0.454761
C103	C	0.819903	-0.717894	-0.045237
C104	C	1.319903	-0.217894	0.454763
C105	C	0.820248	-0.692707	-0.000011
C106	C	1.320248	-0.192707	0.499989
C107	C	0.828244	-0.153237	-0.045204
C108	C	1.328244	0.346763	0.454796
C109	C	0.828995	-0.102820	-0.045197
C110	C	1.328995	0.397180	0.454803
C111	C	0.828951	-0.102866	0.045249
C112	C	1.328951	0.397134	0.545249
C113	C	0.828204	-0.153279	0.045243
C114	C	1.328204	0.346721	0.545243
C115	C	0.827848	-0.178464	0.000012
C116	C	1.327848	0.321536	0.500012
O117	O	0.827023	-0.233057	0.083669
O118	O	1.327023	0.266943	0.583669
O119	O	0.827065	-0.233013	-0.083670
O120	O	1.327065	0.266987	0.416330
C121	C	0.823687	-0.460766	-0.045223
C122	C	1.323687	0.039234	0.454777
C123	C	0.823290	-0.485992	-0.000003
C124	C	1.323290	0.014008	0.499997
C125	C	0.823641	-0.460805	0.045219
C126	C	1.323641	0.039195	0.545219
C127	C	0.822548	-0.536409	-0.000005
C128	C	1.322548	-0.036409	0.499995
C129	C	0.822197	-0.561596	-0.045228
C130	C	1.322197	-0.061596	0.454772
C131	C	0.822588	-0.536367	-0.090448
C132	C	1.322588	-0.036367	0.409552
C133	C	0.823336	-0.485954	-0.090446
C134	C	1.323336	0.014046	0.409554
C135	C	0.823251	-0.486034	0.090440
C136	C	1.323251	0.013966	0.590440
C137	C	0.822503	-0.536448	0.090434
C138	C	1.322503	-0.036448	0.590434
C139	C	0.822152	-0.561635	0.045211
C140	C	1.322152	-0.061635	0.545211
C141	C	0.951747	0.060615	0.000010
C142	C	1.451747	0.560615	0.500010
C143	C	1.029246	0.061405	0.000008
C144	C	1.529246	0.561405	0.500008
C145	C	0.817981	0.152801	-0.000006
C146	C	1.317981	0.652801	0.499994
C147	C	0.818765	0.206459	-0.000015
C148	C	1.318765	0.706459	0.499985
N149	N	0.824001	0.064382	0.129255
N150	N	1.324001	0.564382	0.629255
N151	N	0.824116	0.064442	-0.129240
N152	N	1.324116	0.564442	0.370760
C153	C	0.782049	0.035158	0.526151
C154	C	1.282049	0.535158	1.026151
C155	C	0.782016	0.035145	0.317274
C156	C	1.282016	0.535145	0.817274
O157	O	0.746300	0.010257	0.290284
O158	O	1.246300	0.510257	0.790284
N159	N	0.824029	0.064389	0.291133
N160	N	1.324029	0.564389	0.791133
C161	C	0.866057	0.093637	0.317215
C162	C	1.366057	0.593637	0.817215
O163	O	0.901796	0.118507	0.290188
O164	O	1.401796	0.618507	0.790188
C165	C	0.866093	0.093647	0.526092
C166	C	1.366093	0.593647	1.026092
C167	C	0.824072	0.064404	0.552230
C168	C	1.324072	0.564404	1.052230
C169	C	0.740032	0.005917	0.552289
C170	C	1.240032	0.505917	1.052289
C171	C	0.740037	0.005923	0.604505
C172	C	1.240037	0.505923	1.104505
C173	C	0.782060	0.035169	0.630584
C174	C	1.282060	0.535169	1.130584
C175	C	0.824078	0.064410	0.604446
C176	C	1.324078	0.564410	1.104446
C177	C	0.908124	0.122891	0.552173
C178	C	1.408124	0.622891	1.052173
C179	C	0.908131	0.122891	0.604396
C180	C	1.408131	0.622891	1.104396
C181	C	0.866110	0.093648	0.630533
C182	C	1.366110	0.593648	1.130533
C183	C	0.866107	0.093662	0.682741
C184	C	1.366107	0.593662	1.182741
N185	N	0.824093	0.064417	0.708881
N186	N	1.324093	0.564417	1.208881
C187	C	0.782070	0.035171	0.682803
C188	C	1.282070	0.535171	1.182803
C189	C	0.866034	0.093630	0.207552
C190	C	1.366034	0.593630	0.707552
C191	C	0.866024	0.093628	0.155333
C192	C	1.366024	0.593628	0.655333
C193	C	0.781984	0.035135	0.155395
C194	C	1.281984	0.535135	0.655395
C195	C	0.781990	0.035140	0.207615
C196	C	1.281990	0.535140	0.707615
C197	C	0.824021	0.064385	0.233692
C198	C	1.324021	0.564385	0.733692
C199	C	0.782085	0.035186	0.792461
C200	C	1.282085	0.535186	1.292461
C201	C	0.782093	0.035195	0.844682
C202	C	1.282093	0.535195	1.344682
C203	C	0.866135	0.093686	0.844615
C204	C	1.366135	0.593686	1.344615
C205	C	0.866125	0.093678	0.792399
C206	C	1.366125	0.593678	1.292399
C207	C	0.824098	0.064424	0.766323
C208	C	1.324098	0.564424	1.266323
O209	O	0.901810	0.118533	0.709762
O210	O	1.401810	0.618533	1.209762
O211	O	0.746348	0.010297	0.709839
O212	O	1.246348	0.510297	1.209839
C213	C	0.782043	0.035152	0.473935
C214	C	1.282043	0.535152	0.973935
C215	C	0.824060	0.064393	0.447797
C216	C	1.324060	0.564393	0.947797
C217	C	0.866083	0.093639	0.473876
C218	C	1.366083	0.593639	0.973876
C219	C	0.824050	0.064391	0.395578
C220	C	1.324050	0.564391	0.895578
C221	C	0.782027	0.035145	0.369500
C222	C	1.282027	0.535145	0.869500
C223	C	0.740014	0.005901	0.395640
C224	C	1.240014	0.505901	0.895640
C225	C	0.740020	0.005906	0.447857
C226	C	1.240020	0.505906	0.947857
C227	C	0.908097	0.122884	0.447735
C228	C	1.408097	0.622884	0.947735
C229	C	0.908087	0.122876	0.395519
C230	C	1.408087	0.622876	0.895519
C231	C	0.866064	0.093630	0.369440
C232	C	1.366064	0.593630	0.869440
H233	H	0.480026	0.066036	-0.082044
H234	H	0.980026	0.566036	0.417956
N235	N	0.827880	-0.178966	-0.091400
N236	N	1.327880	0.321034	0.408600
N237	N	0.778236	-0.202531	-0.101501
N238	N	1.278236	0.297469	0.398499
H239	H	0.777983	-0.220703	-0.134126
H240	H	1.277983	0.279297	0.365874
H241	H	0.035980	0.061444	0.082058
H242	H	0.535980	0.561444	0.582058
N243	N	0.697110	-0.023965	0.525656
N244	N	1.197110	0.476035	1.025656
N245	N	0.705967	-0.069028	0.531513
N246	N	1.205967	0.430972	1.031513
H247	H	0.675648	-0.090132	0.512706
H248	H	1.175648	0.409868	1.012706
H249	H	0.818871	-0.788827	-0.082061
H250	H	1.318871	-0.288827	0.417939
H251	H	0.942344	0.146703	0.530901
H252	H	1.442344	0.646703	1.030901
H253	H	0.168088	0.062796	0.082052
H254	H	0.668088	0.562796	0.582052
N255	N	0.619672	0.067452	-0.091418
N256	N	1.119672	0.567452	0.408582
N257	N	0.587171	0.067135	-0.131791
N258	N	1.087171	0.567135	0.368209
H259	H	0.613441	0.067411	-0.164420
H260	H	1.113441	0.567411	0.335580
N261	N	0.697087	-0.023968	0.368989
N262	N	1.197087	0.476032	0.868989
N263	N	0.697093	-0.023963	0.322365
N264	N	1.197093	0.476037	0.822365
H265	H	0.666780	-0.045057	0.303539
H266	H	1.166780	0.454943	0.803539
N267	N	0.619616	0.067399	0.091418
N268	N	1.119616	0.567399	0.591418
N269	N	0.684631	0.068060	0.091412
N270	N	1.184631	0.568060	0.591412
H271	H	0.710892	0.068314	0.124034
H272	H	1.210892	0.568314	0.624034
N273	N	0.175695	0.062946	-0.091409
N274	N	0.675695	0.562946	0.408591
N275	N	0.209510	0.097435	-0.101495
N276	N	0.709510	0.597435	0.398505
H277	H	0.235785	0.097730	-0.134121
H278	H	0.735785	0.597730	0.365879
H279	H	0.747871	0.011382	0.865961
H280	H	1.247871	0.511382	1.365961
N281	N	0.951012	0.152757	0.368831
N282	N	1.451012	0.652757	0.868831
N283	N	0.988527	0.178865	0.392128
N284	N	1.488527	0.678865	0.892128
H285	H	1.018846	0.199966	0.373281
H286	H	1.518846	0.699966	0.873281
N287	N	0.739060	0.005275	0.234312
N288	N	1.239060	0.505275	0.734312
N289	N	0.673930	0.011178	0.228497
N290	N	1.173930	0.511178	0.728497
H291	H	0.643608	-0.009916	0.247350
H292	H	1.143608	0.490084	0.747350
N293	N	0.739164	0.005293	0.765838
N294	N	1.239164	0.505293	1.265838
N295	N	0.701661	-0.020815	0.789190
N296	N	1.201661	0.479185	1.289190
H297	H	0.671348	-0.041927	0.770388
H298	H	1.171348	0.458073	1.270388
H299	H	0.479964	0.065981	0.082052
H300	H	0.979964	0.565981	0.582052
N301	N	0.829385	-0.077051	-0.091395
N302	N	1.329385	0.422949	0.408605
N303	N	0.780571	-0.044352	-0.101487
N304	N	1.280571	0.455648	0.398513
H305	H	0.780844	-0.026153	-0.134112
H306	H	1.280844	0.473847	0.365888
N307	N	0.908933	0.123503	0.128630
N308	N	1.408933	0.623503	0.628630
N309	N	0.881315	0.155510	0.099483
N310	N	1.381315	0.655510	0.599483
H311	H	0.911623	0.176608	0.080625
H312	H	1.411623	0.676608	0.580625
N313	N	0.825983	-0.308957	-0.136638
N314	N	1.325983	0.191043	0.363362
N315	N	0.825667	-0.331459	-0.177008
N316	N	1.325667	0.168541	0.322992
H317	H	0.825949	-0.313272	-0.209639
H318	H	1.325949	0.186728	0.290361
H319	H	0.825744	-0.314275	0.127279
H320	H	1.325744	0.185725	0.627279
N321	N	0.824469	-0.410842	-0.136643
N322	N	1.324469	0.089158	0.363357
N323	N	0.824821	-0.388303	-0.177010
N324	N	1.324821	0.111697	0.322990
H325	H	0.824568	-0.406461	-0.209644
H326	H	1.324568	0.093539	0.290356
H327	H	0.820226	-0.697358	-0.082062
H328	H	1.320226	-0.197358	0.417938
N329	N	0.697111	-0.023952	0.631193
N330	N	1.197111	0.476048	1.131193
N331	N	0.659598	-0.050061	0.607894
N332	N	1.159598	0.449939	1.107894
H333	H	0.629280	-0.071164	0.626738
H334	H	1.129280	0.428836	1.126738
N335	N	0.951032	0.152761	0.474361
N336	N	1.451032	0.652761	0.974361
N337	N	0.988539	0.178866	0.451010
N338	N	1.488539	0.678866	0.951010
H339	H	1.018863	0.199970	0.469813
H340	H	1.518863	0.699970	0.969813
H341	H	0.942359	0.146705	0.625625
H342	H	1.442359	0.646705	1.125625
H343	H	0.036045	0.061504	-0.082039
H344	H	0.536045	0.561504	0.417961
H345	H	0.818803	-0.788889	0.082034
H346	H	1.318803	-0.288889	0.582034
N347	N	0.820209	-0.692220	0.091415
N348	N	1.320209	-0.192220	0.591415
N349	N	0.819862	-0.714758	0.131783
N350	N	1.319862	-0.214758	0.631783
H351	H	0.820113	-0.696598	0.164416
H352	H	1.320113	-0.196598	0.664416
N353	N	0.739063	0.005251	0.128759
N354	N	1.239063	0.505251	0.628759
N355	N	0.701557	-0.020865	0.152097
N356	N	1.201557	0.479135	0.652097
H357	H	0.671250	-0.041973	0.133284
H358	H	1.171250	0.458027	0.633284
N359	N	0.909065	0.123536	0.765697
N360	N	1.409065	0.623536	1.265697
N361	N	0.974193	0.117621	0.771519
N362	N	1.474193	0.617621	1.271519
H363	H	1.004530	0.138701	0.752662
H364	H	1.504530	0.638701	1.252662
N365	N	0.824332	-0.410953	0.136652
N366	N	1.324332	0.089047	0.636652
N367	N	0.824644	-0.388449	0.177021
N368	N	1.324644	0.111551	0.677021
H369	H	0.824362	-0.406635	0.209653
H370	H	1.324362	0.093365	0.709653
H371	H	0.827887	-0.173820	0.082067
H372	H	1.327887	0.326180	0.582067
H373	H	0.829240	-0.082349	0.082068
H374	H	1.329240	0.417651	0.582068
H375	H	0.900348	0.117499	0.865858
H376	H	1.400348	0.617499	1.365858
N377	N	0.823627	-0.460312	0.136636
N378	N	1.323627	0.039688	0.636636
N379	N	0.873278	-0.436752	0.146731
N380	N	1.373278	0.063248	0.646731
H381	H	0.873549	-0.418587	0.179360
H382	H	1.373549	0.081413	0.679360
H383	H	0.900262	0.117446	0.228780
H384	H	1.400262	0.617446	0.728780
N385	N	0.823745	-0.460197	-0.136646
N386	N	1.323745	0.039803	0.363354
N387	N	0.823432	-0.482701	-0.177016
N388	N	1.323432	0.017299	0.322984
H389	H	0.823720	-0.464514	-0.209647
H390	H	1.323720	0.035486	0.290353
N391	N	0.822238	-0.562109	-0.136638
N392	N	1.322238	-0.062109	0.363362
N393	N	0.821574	-0.607123	-0.136627
N394	N	1.321574	-0.107123	0.363373
H395	H	0.821326	-0.625306	-0.169246
H396	H	1.321326	-0.125306	0.330754
N397	N	0.822106	-0.562206	0.136637
N398	N	1.322106	-0.062206	0.636637
N399	N	0.822419	-0.539705	0.177008
N400	N	1.322419	-0.039705	0.677008
H401	H	0.822134	-0.557894	0.209639
H402	H	1.322134	-0.057894	0.709639
H403	H	0.705802	-0.017906	0.469133
H404	H	1.205802	0.482094	0.969133
