data_functionalizedCrystal
_audit_creation_method	'MofGen! by Chris Wilmer'
_symmetry_space_group_name_H-M	'P1'
_symmetry_Int_Tables_number	1
_symmetry_cell_setting	triclinic
loop_
_symmetry_equiv_pos_as_xyz
  x,y,z
_cell_length_a	10.654550
_cell_length_b	27.732048
_cell_length_c	9.130313
_cell_angle_alpha	89.993840
_cell_angle_beta	89.996220
_cell_angle_gamma	83.563778
loop_
_atom_site_label
_atom_site_type_symbol
_atom_site_fract_x
_atom_site_fract_y
_atom_site_fract_z
O1	O	1.664980	0.067884	-0.121937
O2	O	1.299230	0.074351	-0.121916
O3	O	1.493465	0.000792	-0.121899
O4	O	1.470746	0.141444	-0.121954
O5	O	1.493462	0.000794	0.121700
O6	O	1.299228	0.074353	0.121683
O7	O	1.664978	0.067886	0.121661
Cu8	Cu	1.482103	0.071120	0.143915
Cu9	Cu	1.482105	0.071117	-0.144169
O10	O	1.470743	0.141446	0.121645
C11	C	1.252451	0.073878	-0.000113
C12	C	1.113067	0.072457	-0.000103
C13	C	1.031761	0.115768	-0.000142
C14	C	0.900796	0.114430	-0.000166
C15	C	0.932457	0.026466	-0.000121
C16	C	1.063419	0.027805	-0.000086
C17	C	1.013480	0.166553	-0.000174
C18	C	0.882516	0.165215	-0.000199
C19	C	1.492987	-0.017217	-0.000096
C20	C	1.491551	-0.070881	-0.000084
C21	C	1.597290	-0.409038	-0.000165
C22	C	1.591962	-0.610731	-0.000185
O23	O	1.688653	-0.641384	-0.000255
N24	N	1.476789	-0.630572	-0.000177
C25	C	1.362940	-0.599986	-0.000173
O26	O	1.264856	-0.621490	-0.000182
C27	C	1.368269	-0.398294	-0.000164
C28	C	1.483449	-0.378456	-0.000157
C29	C	1.712461	-0.389199	-0.000160
C30	C	1.713792	-0.338779	-0.000147
C31	C	1.599951	-0.308197	-0.000139
C32	C	1.484780	-0.328036	-0.000144
C33	C	1.254421	-0.367709	-0.000171
C34	C	1.255764	-0.317284	-0.000172
C35	C	1.370944	-0.297446	-0.000165
C36	C	1.372271	-0.247034	-0.000123
N37	N	1.487444	-0.227193	-0.000131
C38	C	1.601284	-0.257775	-0.000139
C39	C	1.360150	-0.705877	-0.000175
C40	C	1.358817	-0.756300	-0.000175
C41	C	1.587840	-0.767041	-0.000190
C42	C	1.589171	-0.716618	-0.000180
C43	C	1.475323	-0.686036	-0.000184
C44	C	1.604070	-0.151888	-0.000111
C45	C	1.605391	-0.101463	-0.000092
C46	C	1.376369	-0.090726	-0.000085
C47	C	1.375047	-0.141147	-0.000096
C48	C	1.488908	-0.171727	-0.000114
O49	O	1.275631	-0.216352	-0.000070
O50	O	1.699354	-0.236261	-0.000163
C51	C	1.595959	-0.459458	-0.000178
C52	C	1.480788	-0.479296	-0.000183
C53	C	1.366948	-0.448715	-0.000175
C54	C	1.479455	-0.529719	-0.000183
C55	C	1.593296	-0.560301	-0.000191
C56	C	1.708469	-0.540460	-0.000199
C57	C	1.709800	-0.490040	-0.000186
C58	C	1.251774	-0.468556	-0.000167
C59	C	1.250453	-0.518976	-0.000178
C60	C	1.364293	-0.549558	-0.000186
C61	C	1.711757	0.068360	-0.000144
C62	C	1.851141	0.069780	-0.000164
C63	C	1.471221	0.159454	-0.000162
C64	C	1.472657	0.213118	-0.000183
N65	N	1.482110	0.071121	0.346538
N66	N	1.482108	0.071112	-0.346792
C67	C	1.568138	0.038560	0.423197
C68	C	1.568135	0.038554	0.576534
C69	C	1.396071	0.103675	0.576538
C70	C	1.396069	0.103678	0.423204
C71	C	1.667482	0.000964	0.423195
C72	C	1.667479	0.000959	0.576532
H73	H	1.048457	0.182723	-0.105352
H74	H	0.836198	0.180563	0.104963
H75	H	1.041976	0.186415	0.101770
N76	N	0.826157	0.190559	-0.135248
H77	H	0.895470	0.202830	-0.195502
H78	H	0.781936	0.166986	-0.195391
H79	H	1.129616	-0.007463	-0.000034
H80	H	1.159070	-0.443660	-0.000164
H81	H	1.801162	-0.565369	-0.000199
N82	N	1.713399	-0.695222	-0.000183
H83	H	1.719059	-0.674546	0.090120
H84	H	1.785234	-0.722278	-0.000238
H85	H	0.892018	-0.009888	-0.000129
H86	H	1.326007	0.130188	0.360790
N87	N	1.303279	0.138792	0.659226
H88	H	1.214272	0.132904	0.632544
H89	H	1.316438	0.133832	0.767969
N90	N	1.126205	-0.540364	-0.000186
H91	H	1.120547	-0.561037	-0.090497
H92	H	1.120602	-0.561026	0.090167
N93	N	1.641152	-0.048242	0.368067
H94	H	1.629395	-0.070203	0.454065
H95	H	1.561862	-0.044591	0.306577
H96	H	1.699189	-0.085314	-0.000083
H97	H	1.696787	-0.176781	-0.000131
N98	N	1.710623	-0.800033	-0.000197
H99	H	1.715158	-0.821188	-0.090503
H100	H	1.783727	-0.779786	-0.000151
N101	N	1.234588	-0.777694	-0.000143
H102	H	1.162679	-0.750665	-0.000137
H103	H	1.229035	-0.798378	-0.090445
H104	H	1.807584	-0.322632	-0.000148
N105	N	1.834036	-0.468651	-0.000190
H106	H	1.839704	-0.447966	-0.090489
H107	H	1.839630	-0.448000	0.090175
H108	H	1.805169	-0.414094	-0.000172
N109	N	1.237348	-0.672896	-0.000177
H110	H	1.164195	-0.693121	-0.000167
H111	H	1.232907	-0.651745	0.090130
N112	N	1.787603	0.016556	0.360166
H113	H	1.845645	0.024087	0.442492
H114	H	1.830838	-0.010469	0.297873
H115	H	1.160629	-0.383852	-0.000185
N116	N	1.132967	-0.284300	-0.000183
H117	H	1.059808	-0.304522	-0.000188
H118	H	1.128521	-0.263150	0.090125
H119	H	1.281258	-0.157300	-0.000061
H120	H	1.283683	-0.065818	-0.000073
H121	H	1.638442	-0.034148	0.624095
N122	N	1.794852	0.011928	0.631655
H123	H	1.812523	0.044840	0.594818
H124	H	1.794816	0.011900	0.742271
