data_functionalizedCrystal
_audit_creation_method	'MofGen! by Chris Wilmer'
_symmetry_space_group_name_H-M	'P1'
_symmetry_Int_Tables_number	1
_symmetry_cell_setting	triclinic
loop_
_symmetry_equiv_pos_as_xyz
  x,y,z
_cell_length_a	16.974897
_cell_length_b	16.992695
_cell_length_c	9.130313
_cell_angle_alpha	89.995176
_cell_angle_beta	86.344901
_cell_angle_gamma	87.027201
loop_
_atom_site_label
_atom_site_type_symbol
_atom_site_fract_x
_atom_site_fract_y
_atom_site_fract_z
O1	O	1.055450	0.099986	-0.246775
O2	O	0.826050	0.112702	-0.219616
O3	O	0.939830	-0.007797	-0.233075
O4	O	0.941669	0.220486	-0.233316
O5	O	0.939822	-0.007801	0.010525
O6	O	0.826041	0.112699	0.023984
O7	O	1.055441	0.099983	-0.003176
Cu8	Cu	0.940740	0.106341	0.032647
Cu9	Cu	0.940750	0.106345	-0.255438
O10	O	0.941661	0.220483	0.010284
C11	C	0.796557	0.112215	-0.094324
C12	C	0.708689	0.110758	-0.083921
C13	C	0.667406	0.110077	-0.211809
C14	C	0.584845	0.108721	-0.202012
C15	C	0.543568	0.108040	-0.064326
C16	C	0.584856	0.108723	0.063571
C17	C	0.667416	0.110085	0.053773
C18	C	0.296650	0.103972	-0.020784
C19	C	0.214085	0.102608	-0.010995
C20	C	0.214078	0.102607	-0.276580
C21	C	0.296640	0.103965	-0.286366
C22	C	0.337921	0.104652	-0.158468
N23	N	0.459176	0.106651	-0.054309
N24	N	0.422311	0.106046	-0.168487
C25	C	0.937460	-0.037009	-0.110995
C26	C	0.930400	-0.124046	-0.110160
C27	C	0.998515	-0.174356	-0.118223
C28	C	0.991877	-0.256136	-0.117451
C29	C	0.917124	-0.287604	-0.108605
C30	C	0.849004	-0.237287	-0.100546
C31	C	0.855642	-0.155509	-0.101329
C32	C	0.889609	-0.531174	-0.105368
C33	C	0.882976	-0.612958	-0.104581
C34	C	1.025850	-0.631802	-0.121489
C35	C	1.032482	-0.550021	-0.122262
C36	C	0.964362	-0.499711	-0.114210
N37	N	0.910337	-0.371196	-0.107811
N38	N	0.971149	-0.416121	-0.115015
C39	C	1.084934	0.100470	-0.128470
C40	C	1.172802	0.101927	-0.138883
C41	C	0.944031	0.249694	-0.111799
C42	C	0.951091	0.336731	-0.112644
N43	N	0.940739	0.106337	0.235270
N44	N	0.940758	0.106342	-0.458062
C45	C	0.991140	0.053002	0.305959
C46	C	0.991148	0.053002	0.459295
C47	C	0.890351	0.159679	0.471239
C48	C	0.890340	0.159675	0.317906
H49	H	0.330252	0.104526	0.083360
H50	H	0.701008	0.110630	-0.323928
H51	H	0.822100	-0.638576	-0.097354
H52	H	0.834141	-0.490221	-0.098811
H53	H	0.849293	0.203107	0.260347
C54	C	1.099833	-0.686385	-0.129950
C55	C	1.144533	-0.672200	-0.009900
C56	C	1.212689	-0.722474	-0.017643
H57	H	1.130364	-0.676894	-0.218415
H58	H	1.085209	-0.739609	-0.128145
H59	H	1.159158	-0.618989	-0.011719
H60	H	1.114025	-0.681697	0.078583
H61	H	1.198065	-0.775697	-0.015837
H62	H	1.243213	-0.712978	-0.106112
H63	H	1.243023	-0.712861	0.063815
C64	C	0.767912	-0.271602	-0.090876
C65	C	0.776675	-0.353988	-0.091872
C66	C	0.701989	-0.385623	-0.082941
H67	H	0.739585	-0.254411	-0.172447
H68	H	0.739636	-0.254374	-0.002546
H69	H	0.804939	-0.371209	-0.180192
H70	H	0.804989	-0.371200	-0.010305
H71	H	0.673713	-0.368395	0.005390
H72	H	0.673668	-0.368427	-0.164514
H73	H	0.707925	-0.441525	-0.083602
H74	H	0.551236	0.108167	-0.306152
C75	C	1.079749	-0.140347	-0.127915
C76	C	1.137979	-0.201915	-0.134854
C77	C	1.212822	-0.170619	-0.143811
H78	H	1.085422	-0.108853	-0.043662
H79	H	1.085351	-0.108856	-0.213561
H80	H	1.132380	-0.233393	-0.049217
H81	H	1.132332	-0.233414	-0.219104
H82	H	1.218424	-0.139128	-0.229458
H83	H	1.218487	-0.139125	-0.059556
H84	H	1.252340	-0.212387	-0.148534
C85	C	0.781595	-0.101014	-0.092490
C86	C	0.714707	-0.146073	-0.084538
C87	C	0.646478	-0.095900	-0.076383
H88	H	0.781109	-0.068700	-0.177359
H89	H	0.781165	-0.068734	-0.007458
H90	H	0.715136	-0.178339	-0.169561
H91	H	0.715166	-0.178385	0.000328
H92	H	0.646049	-0.063620	0.008649
H93	H	0.646001	-0.063588	-0.161255
H94	H	0.601087	-0.126465	-0.070973
C95	C	0.341308	0.104737	-0.435992
C96	C	0.287481	0.103868	-0.545898
C97	C	0.328599	0.104582	-0.683752
H98	H	0.376651	0.059579	-0.445897
H99	H	0.370362	0.150983	-0.445054
H100	H	0.258440	0.057627	-0.536840
H101	H	0.252136	0.149022	-0.536041
H102	H	0.357653	0.150828	-0.692814
H103	H	0.363941	0.059424	-0.693641
H104	H	0.292084	0.104000	-0.758339
H105	H	0.849318	0.203107	0.538536
H106	H	1.093354	-0.524406	-0.129465
C107	C	0.169203	0.102033	-0.415380
C108	C	0.117192	0.168683	-0.416986
C109	C	0.075848	0.168190	-0.544840
H110	H	0.140065	0.055856	-0.417585
H111	H	0.205582	0.102677	-0.498824
H112	H	0.080818	0.168032	-0.333565
H113	H	0.146311	0.214870	-0.414805
H114	H	0.112227	0.168834	-0.628284
H115	H	0.046714	0.122010	-0.547034
H116	H	0.040559	0.213414	-0.545954
C117	C	1.045881	-0.004999	0.216501
C118	C	1.090006	-0.051722	0.311237
C119	C	1.140433	-0.105171	0.228887
H120	H	1.080640	0.023096	0.152543
H121	H	1.015392	-0.037670	0.160347
H122	H	1.120492	-0.019055	0.367366
H123	H	1.055268	-0.079834	0.375195
H124	H	1.109944	-0.137842	0.172733
H125	H	1.175186	-0.077069	0.164933
H126	H	1.170372	-0.136883	0.293153
C127	C	0.540012	0.107821	0.213020
C128	C	0.497262	0.039608	0.225878
C129	C	0.455953	0.038743	0.363540
H130	H	0.504606	0.152933	0.222877
H131	H	0.576403	0.108380	0.287829
H132	H	0.460876	0.039056	0.151091
H133	H	0.532650	-0.005516	0.216049
H134	H	0.492344	0.039302	0.438349
H135	H	0.420551	0.083858	0.373384
H136	H	0.426948	-0.007543	0.372287
H137	H	0.701027	0.110642	0.157913
C138	C	1.065807	-0.310793	-0.126506
C139	C	1.066191	-0.358267	-0.251905
C140	C	1.134292	-0.408617	-0.260311
H141	H	1.066258	-0.343170	-0.041716
H142	H	1.111296	-0.280364	-0.131961
H143	H	1.020714	-0.388694	-0.246437
H144	H	1.065752	-0.325912	-0.336716
H145	H	1.179781	-0.378188	-0.265767
H146	H	1.134737	-0.440988	-0.175516
H147	H	1.134565	-0.440829	-0.345400
H148	H	0.180478	0.102075	0.101131
H149	H	1.032188	0.009571	0.516846
