data_functionalizedCrystal
_audit_creation_method	'MofGen! by Chris Wilmer'
_symmetry_space_group_name_H-M	'P1'
_symmetry_Int_Tables_number	1
_symmetry_cell_setting	triclinic
loop_
_symmetry_equiv_pos_as_xyz
  x,y,z
_cell_length_a	13.033293
_cell_length_b	29.839131
_cell_length_c	13.032268
_cell_angle_alpha	82.855359
_cell_angle_beta	90.920818
_cell_angle_gamma	97.211142
loop_
_atom_site_label
_atom_site_type_symbol
_atom_site_fract_x
_atom_site_fract_y
_atom_site_fract_z
Zn1	Zn	1.498328	-0.139775	0.781461
Zn2	Zn	1.998328	0.360225	1.281461
Zn3	Zn	1.520009	-0.204339	0.609478
Zn4	Zn	2.020009	0.295661	1.109478
Zn5	Zn	1.348191	-0.137403	0.587637
Zn6	Zn	1.848191	0.362597	1.087637
Zn7	Zn	1.326242	-0.223067	0.759515
Zn8	Zn	1.826242	0.276933	1.259515
O9	O	1.423193	-0.176146	0.684523
O10	O	1.923193	0.323854	1.184523
O11	O	1.645130	-0.141495	0.776972
O12	O	2.145130	0.358505	1.276972
O13	O	1.515476	-0.186629	0.462674
O14	O	2.015476	0.313371	0.962674
O15	O	1.368219	-0.074847	0.613392
O16	O	1.868219	0.425153	1.113392
O17	O	1.661058	-0.188929	0.650617
O18	O	2.161058	0.311071	1.150617
O19	O	1.478524	-0.076590	0.755794
O20	O	1.978524	0.423410	1.255794
O21	O	1.389242	-0.137451	0.446627
O22	O	1.889242	0.362549	0.946627
O23	O	1.201354	-0.155612	0.592112
O24	O	1.701354	0.344388	1.092112
O25	O	1.330810	-0.220850	0.906334
O26	O	1.830810	0.279150	1.406334
O27	O	1.185228	-0.218549	0.718390
O28	O	1.685228	0.281451	1.218390
O29	O	1.457241	-0.159655	0.922457
O30	O	1.957241	0.340345	1.422457
O31	O	1.494193	-0.269694	0.629337
O32	O	1.994193	0.230306	1.129337
O33	O	1.351834	-0.283454	0.739569
O34	O	1.851834	0.216546	1.239569
C35	C	1.155973	-0.188856	0.650500
C36	C	1.655973	0.311144	1.150500
C37	C	1.041652	-0.194305	0.635970
C38	C	1.541652	0.305695	1.135970
C39	C	0.982790	-0.173313	0.692106
C40	C	1.482790	0.326687	1.192106
C41	C	0.864633	-0.178945	0.677090
C42	C	1.364633	0.321055	1.177090
C43	C	1.423010	-0.292876	0.684468
C44	C	1.923010	0.207124	1.184468
C45	C	1.423021	-0.342811	0.684490
C46	C	1.923021	0.157189	1.184490
C47	C	1.349109	-0.706568	0.741921
C48	C	1.849109	-0.206568	1.241921
C49	C	1.348977	-0.518900	0.741872
C50	C	1.848977	-0.018900	1.241872
O51	O	1.285912	-0.500741	0.790654
O52	O	1.785912	-0.000741	1.290654
N53	N	1.423126	-0.488253	0.684535
N54	N	1.923126	0.011747	1.184535
C55	C	1.497317	-0.504525	0.627211
C56	C	1.997317	-0.004525	1.127211
O57	O	1.560389	-0.474151	0.578450
O58	O	2.060389	0.025849	1.078450
C59	C	1.497453	-0.692193	0.627267
C60	C	1.997453	-0.192193	1.127267
C61	C	1.423292	-0.722838	0.684600
C62	C	1.923292	-0.222838	1.184600
C63	C	1.274955	-0.737213	0.799250
C64	C	1.774955	-0.237213	1.299250
C65	C	1.274985	-0.784127	0.799258
C66	C	1.774985	-0.284127	1.299258
C67	C	1.349169	-0.800397	0.741936
C68	C	1.849169	-0.300397	1.241936
C69	C	1.423323	-0.769752	0.684607
C70	C	1.923323	-0.269752	1.184607
C71	C	1.571648	-0.708464	0.569950
C72	C	2.071648	-0.208464	1.069950
C73	C	1.571677	-0.755385	0.569971
C74	C	2.071677	-0.255385	1.069971
C75	C	1.497516	-0.786030	0.627304
C76	C	1.997516	-0.286030	1.127304
C77	C	1.497537	-0.832936	0.627293
C78	C	1.997537	-0.332936	1.127293
N79	N	1.423388	-0.863583	0.684630
N80	N	1.923388	-0.363583	1.184630
C81	C	1.349204	-0.847314	0.741952
C82	C	1.849204	-0.347314	1.241952
C83	C	1.497239	-0.405997	0.627184
C84	C	1.997239	0.094003	1.127184
C85	C	1.497205	-0.359080	0.627169
C86	C	1.997205	0.140920	1.127169
C87	C	1.348865	-0.373459	0.741831
C88	C	1.848865	0.126541	1.241831
C89	C	1.348896	-0.420376	0.741840
C90	C	1.848896	0.079624	1.241840
C91	C	1.423091	-0.436644	0.684521
C92	C	1.923091	0.063356	1.184521
C93	C	1.349272	-0.945836	0.741962
C94	C	1.849272	-0.445836	1.241962
C95	C	1.349307	-0.992754	0.741961
C96	C	1.849307	-0.492754	1.241961
C97	C	1.497649	-0.978372	0.627303
C98	C	1.997649	-0.478372	1.127303
C99	C	1.497612	-0.931458	0.627299
C100	C	1.997612	-0.431458	1.127299
C101	C	1.423419	-0.915192	0.684637
C102	C	1.923419	-0.415192	1.184637
O103	O	1.560575	-0.851126	0.578545
O104	O	2.060575	-0.351126	1.078545
O105	O	1.286156	-0.877694	0.790724
O106	O	1.786156	-0.377694	1.290724
C107	C	1.349078	-0.659654	0.741914
C108	C	1.849078	-0.159654	1.241914
C109	C	1.423232	-0.629009	0.684585
C110	C	1.923232	-0.129009	1.184585
C111	C	1.497416	-0.645279	0.627264
C112	C	1.997416	-0.145279	1.127264
C113	C	1.423197	-0.582093	0.684570
C114	C	1.923197	-0.082093	1.184570
C115	C	1.349013	-0.565823	0.741891
C116	C	1.849013	-0.065823	1.241891
C117	C	1.274864	-0.596471	0.799228
C118	C	1.774864	-0.096471	1.299228
C119	C	1.274895	-0.643385	0.799236
C120	C	1.774895	-0.143385	1.299236
C121	C	1.571565	-0.614632	0.569926
C122	C	2.071565	-0.114632	1.069926
C123	C	1.571528	-0.567718	0.569923
C124	C	2.071528	-0.067718	1.069923
C125	C	1.497344	-0.551448	0.627244
C126	C	1.997344	-0.051448	1.127244
C127	C	1.691456	-0.163387	0.718679
C128	C	2.191456	0.336613	1.218679
C129	C	1.805773	-0.157950	0.733234
C130	C	2.305773	0.342050	1.233234
C131	C	1.389159	-0.192606	0.952752
C132	C	1.889159	0.307394	1.452752
C133	C	1.374656	-0.199620	1.067055
C134	C	1.874656	0.300380	1.567055
C135	C	1.423401	-0.058961	0.684605
C136	C	1.923401	0.441039	1.184605
C137	C	1.423490	-0.009023	0.684639
C138	C	1.923490	0.490977	1.184639
C139	C	1.457153	-0.159715	0.417345
C140	C	1.957153	0.340285	0.917345
C141	C	1.471855	-0.152565	0.303067
C142	C	1.971855	0.347435	0.803067
C143	C	1.430746	-0.172470	1.125993
C144	C	1.930746	0.327530	1.625993
C145	C	1.415758	-0.179719	1.244132
C146	C	1.915758	0.320281	1.744132
H147	H	0.842849	-0.135805	0.792411
H148	H	1.342849	0.364195	1.292411
F149	F	1.195910	-0.579147	0.860231
F150	F	1.695910	-0.079147	1.360231
F151	F	1.338477	-0.217117	1.292486
F152	F	1.838477	0.282883	1.792486
H153	H	1.530970	-0.123949	1.266070
H154	H	2.030970	0.376051	1.766070
F155	F	0.993190	-0.223243	0.558613
F156	F	1.493190	0.276757	1.058613
H157	H	0.827557	-0.201087	0.617906
H158	H	1.327557	0.298913	1.117906
H159	H	1.557991	-0.906505	0.580602
H160	H	2.057991	-0.406505	1.080602
H161	H	1.214595	-0.809075	0.845942
H162	H	1.714595	-0.309075	1.345942
F163	F	1.650463	-0.535107	0.508894
F164	F	2.150463	-0.035107	1.008894
H165	H	1.019872	-0.151170	0.751280
H166	H	1.519872	0.348830	1.251280
F167	F	1.297379	-0.237016	1.115414
F168	F	1.797379	0.262984	1.615414
F169	F	1.507997	-0.135064	1.077631
F170	F	2.007997	0.364936	1.577631
H171	H	1.288914	-1.017704	0.788650
H172	H	1.788914	-0.517704	1.288650
H173	H	1.214546	-0.723972	0.845933
H174	H	1.714546	-0.223972	1.345933
F175	F	1.270308	-0.928532	0.802987
F176	F	1.770308	-0.428532	1.302987
H177	H	1.288513	-0.445325	0.788532
H178	H	1.788513	0.054675	1.288532
H179	H	1.288460	-0.360204	0.788503
H180	H	1.788460	0.139796	1.288503
F181	F	1.576126	-0.326470	0.566134
F182	F	2.076126	0.173530	1.066134
F183	F	1.576211	-0.423304	0.566172
F184	F	2.076211	0.076696	1.066172
F185	F	1.650648	-0.772695	0.508965
F186	F	2.150648	-0.272695	1.008965
F187	F	1.650588	-0.675859	0.508937
F188	F	2.150588	-0.175859	1.008937
F189	F	1.576599	-0.995695	0.566303
F190	F	2.076599	-0.495695	1.066303
F191	F	1.195965	-0.675994	0.860261
F192	F	1.695965	-0.175994	1.360261
H193	H	1.631976	-0.627872	0.523248
H194	H	2.131976	-0.127872	1.023248
