data_functionalizedCrystal
_audit_creation_method	'MofGen! by Chris Wilmer'
_symmetry_space_group_name_H-M	'P1'
_symmetry_Int_Tables_number	1
_symmetry_cell_setting	triclinic
loop_
_symmetry_equiv_pos_as_xyz
  x,y,z
_cell_length_a	12.645331
_cell_length_b	25.639239
_cell_length_c	12.645323
_cell_angle_alpha	89.968126
_cell_angle_beta	89.977324
_cell_angle_gamma	90.037665
loop_
_atom_site_label
_atom_site_type_symbol
_atom_site_fract_x
_atom_site_fract_y
_atom_site_fract_z
Zn1	Zn	1.620577	-0.208161	-0.599395
Zn2	Zn	1.620393	-0.295600	-0.422113
Zn3	Zn	1.443291	-0.208179	-0.422139
Zn4	Zn	1.443208	-0.295566	-0.599328
O5	O	1.531867	-0.251876	-0.510744
O6	O	1.768900	-0.219767	-0.575895
O7	O	1.596858	-0.284025	-0.273769
O8	O	1.466920	-0.135011	-0.445691
O9	O	1.768765	-0.284008	-0.445647
O10	O	1.597171	-0.134998	-0.575920
O11	O	1.466742	-0.219797	-0.273788
O12	O	1.294933	-0.219764	-0.445627
O13	O	1.466778	-0.283949	-0.747685
O14	O	1.294872	-0.283967	-0.575807
O15	O	1.597090	-0.219734	-0.747733
O16	O	1.596778	-0.368760	-0.445582
O17	O	1.466600	-0.368735	-0.575782
C18	C	1.256438	-0.251864	-0.510713
C19	C	1.138607	-0.251871	-0.510725
C20	C	0.971047	-0.211295	-0.429281
C21	C	1.093606	-0.211400	-0.428922
C22	C	1.094046	-0.306949	-0.480197
C23	C	0.971448	-0.306727	-0.479641
C24	C	0.971468	-0.237893	-0.623013
C25	C	1.094075	-0.236663	-0.622389
C26	C	1.531689	-0.387719	-0.510695
C27	C	1.531710	-0.445833	-0.510710
C28	C	1.599827	-0.806196	-0.443064
C29	C	1.599869	-0.860801	-0.443079
O30	O	1.657600	-0.889038	-0.385511
N31	N	1.532054	-0.888115	-0.510814
C32	C	1.464201	-0.860823	-0.578547
O33	O	1.406523	-0.889070	-0.636163
C34	C	1.464166	-0.806219	-0.578538
C35	C	1.531978	-0.778908	-0.510790
C36	C	1.667635	-0.778884	-0.375323
C37	C	1.667592	-0.724284	-0.375308
C38	C	1.599742	-0.696995	-0.443034
C39	C	1.531935	-0.724307	-0.510775
C40	C	1.396319	-0.778928	-0.646275
C41	C	1.396290	-0.724321	-0.646260
C42	C	1.464102	-0.697009	-0.578513
C43	C	1.464042	-0.642418	-0.578485
N44	N	1.531857	-0.615103	-0.510750
C45	C	1.599707	-0.642392	-0.443024
C46	C	1.464281	-0.975493	-0.578564
C47	C	1.464309	-1.030096	-0.578569
C48	C	1.599979	-1.030070	-0.443101
C49	C	1.599944	-0.975466	-0.443092
C50	C	1.532096	-0.948179	-0.510828
C51	C	1.599611	-0.527727	-0.442997
C52	C	1.599560	-0.473122	-0.442984
C53	C	1.463894	-0.473152	-0.578455
C54	C	1.463942	-0.527753	-0.578464
C55	C	1.531809	-0.555039	-0.510731
O56	O	1.406343	-0.614146	-0.636027
O57	O	1.657385	-0.614138	-0.385428
C58	C	1.808372	-0.251889	-0.510775
C59	C	1.926203	-0.251895	-0.510788
C60	C	1.531945	-0.251836	-0.787249
C61	C	1.531979	-0.251819	-0.905079
C62	C	1.532075	-0.115503	-0.510816
C63	C	1.532164	-0.057389	-0.510846
C64	C	1.449747	-0.292026	-1.072613
C65	C	1.449962	-0.292225	-0.950053
C66	C	1.643667	-0.266773	-0.949595
C67	C	1.643216	-0.267025	-1.072194
C68	C	1.503578	-0.196432	-1.072291
C69	C	1.501086	-0.196764	-0.949684
C70	C	1.531850	-0.251879	-0.235314
C71	C	1.532023	-0.251749	-0.117485
H72	H	1.123737	-0.170558	-0.448058
H73	H	1.367140	-0.282867	-0.919953
C74	C	1.474871	-0.347084	-1.114218
N75	N	1.493802	-0.388553	-1.145550
H76	H	1.668196	-0.306787	-0.918897
C77	C	1.133435	-0.348910	-0.557868
N78	N	1.163109	-0.380515	-0.616368
H79	H	1.124693	-0.319027	-0.399035
C80	C	0.929347	-0.223651	-0.317595
N81	N	0.897935	-0.232958	-0.233474
H82	H	1.655163	-0.953232	-0.387927
H83	H	1.122877	-0.220654	-0.345759
C84	C	0.931279	-0.155952	-0.454850
N85	N	0.901318	-0.114265	-0.474110
C86	C	1.395464	-0.178020	-1.114034
N87	N	1.314027	-0.164158	-1.145473
C88	C	1.728706	-0.228397	-0.910240
N89	N	1.792756	-0.199493	-0.880593
H90	H	0.942468	-0.267464	-0.683743
H91	H	1.563505	-0.166423	-1.101312
C92	C	0.932734	-0.322762	-0.368802
N93	N	0.903581	-0.334837	-0.285314
C94	C	1.389641	-0.945482	-0.653089
N95	N	1.333429	-0.922880	-0.709227
C96	C	1.728852	-0.229123	-1.112300
N97	N	1.793359	-0.200579	-1.142504
C98	C	1.675785	-0.321656	-1.110835
N99	N	1.700313	-0.362806	-1.139934
C100	C	1.674156	-0.443082	-0.368449
N101	N	1.730340	-0.420458	-0.312309
H102	H	1.468736	-0.333234	-0.920729
C103	C	1.321650	-0.694308	-0.720779
N104	N	1.265429	-0.671703	-0.776904
C105	C	0.931365	-0.348979	-0.556337
N106	N	0.901179	-0.380804	-0.614099
H107	H	1.418894	-0.185486	-0.920588
C108	C	0.929778	-0.184579	-0.660512
N109	N	0.898380	-0.144420	-0.688743
H110	H	1.123209	-0.196132	-0.645409
H111	H	1.655230	-1.052298	-0.387959
C112	C	1.674262	-0.557734	-0.368481
N113	N	1.730483	-0.580334	-0.312349
H114	H	1.124713	-0.264076	-0.686368
H115	H	1.722813	-0.702050	-0.320146
H116	H	1.722892	-0.801097	-0.320173
H117	H	1.409080	-1.052328	-0.633725
H118	H	1.341094	-0.801156	-0.701438
H119	H	1.556637	-0.165168	-0.919071
C120	C	1.389342	-0.557797	-0.652985
N121	N	1.333160	-0.580422	-0.709125
C122	C	1.337520	-0.279503	-1.112423
N123	N	1.252989	-0.270070	-1.142416
C124	C	1.389267	-0.443124	-0.652954
N125	N	1.333064	-0.420505	-0.709074
