data_functionalizedCrystal
_audit_creation_method	'MofGen! by Chris Wilmer'
_symmetry_space_group_name_H-M	'P1'
_symmetry_Int_Tables_number	1
_symmetry_cell_setting	triclinic
loop_
_symmetry_equiv_pos_as_xyz
  x,y,z
_cell_length_a	13.032721
_cell_length_b	13.032951
_cell_length_c	13.032268
_cell_angle_alpha	89.114265
_cell_angle_beta	103.289627
_cell_angle_gamma	89.099524
loop_
_atom_site_label
_atom_site_type_symbol
_atom_site_fract_x
_atom_site_fract_y
_atom_site_fract_z
Zn1	Zn	-0.702954	-1.399414	-0.857538
Zn2	Zn	-0.202954	-0.899414	-0.357538
Zn3	Zn	-0.858022	-1.399304	-0.702470
Zn4	Zn	-0.358022	-0.899304	-0.202470
Zn5	Zn	-0.659468	-1.255400	-0.659033
Zn6	Zn	-0.159468	-0.755400	-0.159033
Zn7	Zn	-0.852385	-1.206347	-0.851975
Zn8	Zn	-0.352385	-0.706347	-0.351975
O9	O	-0.768207	-1.315116	-0.767754
O10	O	-0.268207	-0.815116	-0.267754
O11	O	-0.744082	-1.540422	-0.857475
O12	O	-0.244082	-1.040422	-0.357475
O13	O	-0.815843	-1.400698	-0.551064
O14	O	-0.315843	-0.900698	-0.051064
O15	O	-0.519603	-1.295079	-0.669514
O16	O	-0.019603	-0.795079	-0.169514
O17	O	-0.858010	-1.540341	-0.743547
O18	O	-0.358010	-1.040341	-0.243547
O19	O	-0.551552	-1.400885	-0.815355
O20	O	-0.051552	-0.900885	-0.315355
O21	O	-0.669967	-1.294973	-0.519151
O22	O	-0.169967	-0.794973	-0.019151
O23	O	-0.664501	-1.107870	-0.664120
O24	O	-0.164501	-0.607870	-0.164120
O25	O	-0.848402	-1.211474	-0.998357
O26	O	-0.348402	-0.711474	-0.498357
O27	O	-0.806236	-1.071831	-0.805874
O28	O	-0.306236	-0.571831	-0.305874
O29	O	-0.738616	-1.353320	-1.002444
O30	O	-0.238616	-0.853320	-0.502444
O31	O	-1.002907	-1.353132	-0.738153
O32	O	-0.502907	-0.853132	-0.238153
O33	O	-0.998766	-1.211368	-0.847993
O34	O	-0.498766	-0.711368	-0.347993
C35	C	-0.730039	-1.053285	-0.729680
C36	C	-0.230039	-0.553285	-0.229680
C37	C	-0.713738	-0.941265	-0.713420
C38	C	-0.213738	-0.441265	-0.213420
C39	C	-1.038604	-1.276939	-0.797210
C40	C	-0.538604	-0.776939	-0.297210
C41	C	-1.154298	-1.260694	-0.809859
C42	C	-0.654298	-0.760694	-0.309859
C43	C	-0.776690	-0.873518	-0.776224
C44	C	-0.276690	-0.373518	-0.276224
C45	C	-0.759844	-0.757739	-0.759419
C46	C	-0.259844	-0.257739	-0.259419
C47	C	-1.207906	-1.323641	-0.761207
C48	C	-0.707906	-0.823641	-0.261207
C49	C	-1.327482	-1.306853	-0.774279
C50	C	-0.827482	-0.806853	-0.274279
C51	C	-0.496761	-1.353466	-0.738210
C52	C	0.003239	-0.853466	-0.238210
C53	C	-0.381087	-1.369809	-0.725620
C54	C	0.118913	-0.869809	-0.225620
C55	C	-0.797731	-1.276937	-1.039220
C56	C	-0.297731	-0.776937	-0.539220
C57	C	-0.810312	-1.260668	-1.154903
C58	C	-0.310312	-0.760668	-0.654903
C59	C	-0.806513	-0.577972	-0.805969
C60	C	-0.306513	-0.077972	-0.305969
C61	C	-0.822804	-0.689993	-0.822232
C62	C	-0.322804	-0.189993	-0.322232
C63	C	-0.761601	-1.323597	-1.208500
C64	C	-0.261601	-0.823597	-0.708500
C65	C	-0.774603	-1.306783	-1.328064
C66	C	-0.274603	-0.806783	-0.828064
C67	C	-0.738731	-1.353215	-0.497344
C68	C	-0.238731	-0.853215	0.002656
C69	C	-0.725886	-1.369721	-0.381659
C70	C	-0.225886	-0.869721	0.118341
H71	H	-0.843053	-0.901232	-0.842437
H72	H	-0.343053	-0.401232	-0.342437
C73	C	-0.879653	-1.171062	-1.212488
C74	C	-0.379653	-0.671062	-0.712488
N75	N	-0.931883	-1.103569	-1.255860
N76	N	-0.431883	-0.603569	-0.755860
H77	H	-0.889171	-0.717700	-0.888452
H78	H	-0.389171	-0.217700	-0.388452
H79	H	-1.370109	-1.240531	-0.825619
H80	H	-0.870109	-0.740531	-0.325619
C81	C	-0.692252	-1.413197	-1.150913
C82	C	-0.192252	-0.913197	-0.650913
N83	N	-0.640017	-1.480686	-1.107539
N84	N	-0.140017	-0.980686	-0.607539
H85	H	-0.693469	-0.730031	-0.693209
H86	H	-0.193469	-0.230031	-0.193209
H87	H	-0.647368	-0.913551	-0.647214
H88	H	-0.147368	-0.413551	-0.147214
H89	H	-0.674546	-1.436044	-1.339033
H90	H	-0.174546	-0.936044	-0.839033
H91	H	-1.165279	-1.389966	-0.709880
H92	H	-0.665279	-0.889966	-0.209880
C93	C	-1.323507	-1.459413	-0.656268
C94	C	-0.823507	-0.959413	-0.156268
N95	N	-1.280137	-1.526900	-0.604031
N96	N	-0.780137	-1.026900	-0.104031
C97	C	-0.843948	-1.217173	-1.385645
C98	C	-0.343948	-0.717173	-0.885645
N99	N	-0.896177	-1.149680	-1.429017
N100	N	-0.396177	-0.649680	-0.929017
C101	C	-1.211884	-1.171094	-0.879205
C102	C	-0.711884	-0.671094	-0.379205
N103	N	-1.255256	-1.103604	-0.931437
N104	N	-0.755256	-0.603604	-0.431437
