data_functionalizedCrystal
_audit_creation_method	'MofGen! by Chris Wilmer'
_symmetry_space_group_name_H-M	'P1'
_symmetry_Int_Tables_number	1
_symmetry_cell_setting	triclinic
loop_
_symmetry_equiv_pos_as_xyz
  x,y,z
_cell_length_a	23.532407
_cell_length_b	23.532407
_cell_length_c	13.596369
_cell_angle_alpha	90.000007
_cell_angle_beta	89.989360
_cell_angle_gamma	82.848678
loop_
_atom_site_label
_atom_site_type_symbol
_atom_site_fract_x
_atom_site_fract_y
_atom_site_fract_z
O1	O	0.069136	0.755260	-0.081679
O2	O	0.402469	1.088593	0.251655
O3	O	0.735802	1.421927	0.584988
O4	O	0.079139	0.589397	-0.081709
O5	O	0.412472	0.922730	0.251624
O6	O	0.745806	1.256063	0.584958
O7	O	-0.008794	0.677330	-0.081675
O8	O	0.324539	1.010663	0.251659
O9	O	0.657872	1.343997	0.584992
O10	O	0.157069	0.667327	-0.081713
O11	O	0.490402	1.000660	0.251621
O12	O	0.823736	1.333993	0.584954
O13	O	-0.008799	0.677321	0.081908
O14	O	0.324534	1.010655	0.415241
O15	O	0.657868	1.343988	0.748575
O16	O	0.079134	0.589388	0.081874
O17	O	0.412468	0.922721	0.415207
O18	O	0.745801	1.256055	0.748541
O19	O	0.069131	0.755251	0.081904
O20	O	0.402464	1.088585	0.415238
O21	O	0.735798	1.421918	0.748571
Zn22	Zn	0.074132	0.672318	0.107862
Zn23	Zn	0.407465	1.005652	0.441195
Zn24	Zn	0.740799	1.338985	0.774528
Zn25	Zn	0.074138	0.672330	-0.107666
Zn26	Zn	0.407471	1.005663	0.225667
Zn27	Zn	0.740805	1.338996	0.559001
O28	O	0.157064	0.667318	0.081870
O29	O	0.490398	1.000651	0.415204
O30	O	0.823731	1.333985	0.748537
C31	C	0.078882	0.568176	0.000079
C32	C	0.412215	0.901510	0.333412
C33	C	0.745549	1.234843	0.666746
C34	C	0.078116	0.504959	0.000068
C35	C	0.411449	0.838293	0.333402
C36	C	0.744783	1.171626	0.666735
C37	C	0.125350	0.105856	0.000102
C38	C	0.458683	0.439190	0.333435
C39	C	0.792016	0.772523	0.666769
C40	C	0.124638	0.046456	0.000108
C41	C	0.457971	0.379789	0.333442
C42	C	0.791305	0.713123	0.666775
O43	O	0.168424	0.009711	0.000134
O44	O	0.501757	0.343045	0.333467
O45	O	0.835091	0.676378	0.666801
N46	N	0.072362	0.023830	0.000118
N47	N	0.405695	0.357163	0.333452
N48	N	0.739028	0.690496	0.666785
C49	C	0.020794	0.060607	0.000133
C50	C	0.354127	0.393941	0.333466
C51	C	0.687460	0.727274	0.666799
O52	O	-0.023737	0.035908	0.000143
O53	O	0.309596	0.369241	0.333476
O54	O	0.642930	0.702574	0.666810
C55	C	0.021506	0.120006	0.000133
C56	C	0.354839	0.453340	0.333467
C57	C	0.688172	0.786673	0.666800
C58	C	0.073785	0.142629	0.000113
C59	C	0.407119	0.475962	0.333447
C60	C	0.740452	0.809296	0.666780
C61	C	0.177625	0.128479	0.000083
C62	C	0.510958	0.461813	0.333416
C63	C	0.844292	0.795146	0.666750
C64	C	0.178336	0.187876	0.000075
C65	C	0.511670	0.521209	0.333408
C66	C	0.845003	0.854542	0.666741
C67	C	0.126772	0.224649	0.000086
C68	C	0.460105	0.557982	0.333419
C69	C	0.793439	0.891315	0.666753
C70	C	0.074496	0.202025	0.000105
C71	C	0.407830	0.535359	0.333439
C72	C	0.741163	0.868692	0.666772
C73	C	-0.030062	0.156783	0.000155
C74	C	0.303271	0.490116	0.333488
C75	C	0.636605	0.823450	0.666821
C76	C	-0.029345	0.216185	0.000156
C77	C	0.303988	0.549519	0.333490
C78	C	0.637321	0.882852	0.666823
C79	C	0.022934	0.238808	0.000136
C80	C	0.356268	0.572141	0.333469
C81	C	0.689601	0.905475	0.666803
C82	C	0.023643	0.298194	0.000108
C83	C	0.356977	0.631528	0.333442
C84	C	0.690310	0.964861	0.666775
N85	N	0.075920	0.320820	0.000098
N86	N	0.409253	0.654154	0.333431
N87	N	0.742586	0.987487	0.666765
C88	C	0.127484	0.284048	0.000087
C89	C	0.460817	0.617381	0.333420
C90	C	0.794151	0.950714	0.666754
C91	C	0.019302	-0.064135	0.000133
C92	C	0.352635	0.269198	0.333466
C93	C	0.685969	0.602532	0.666799
C94	C	0.018589	-0.123533	0.000125
C95	C	0.351923	0.209800	0.333458
C96	C	0.685256	0.543134	0.666791
C97	C	0.122434	-0.137680	0.000102
C98	C	0.455768	0.195653	0.333435
C99	C	0.789101	0.528986	0.666769
C100	C	0.123146	-0.078281	0.000103
C101	C	0.456480	0.255052	0.333436
C102	C	0.789813	0.588385	0.666770
C103	C	0.071578	-0.041509	0.000122
C104	C	0.404912	0.291824	0.333456
C105	C	0.738245	0.625158	0.666789
C106	C	0.128974	0.408784	0.000069
C107	C	0.462307	0.742118	0.333403
C108	C	0.795640	1.075451	0.666736
C109	C	0.129680	0.468186	0.000057
C110	C	0.463014	0.801520	0.333390
C111	C	0.796347	1.134853	0.666724
C112	C	0.025836	0.482329	0.000085
C113	C	0.359169	0.815662	0.333418
C114	C	0.692503	1.148995	0.666752
C115	C	0.025129	0.422932	0.000092
C116	C	0.358462	0.756265	0.333425
C117	C	0.691796	1.089598	0.666758
C118	C	0.076702	0.386160	0.000087
C119	C	0.410036	0.719494	0.333421
C120	C	0.743369	1.052827	0.666754
O121	O	-0.020119	0.334974	0.000087
O122	O	0.313214	0.668307	0.333420
O123	O	0.646547	1.001640	0.666753
O124	O	0.172007	0.308755	0.000090
O125	O	0.505340	0.642089	0.333423
O126	O	0.838674	0.975422	0.666756
C127	C	-0.030013	0.677071	0.000119
C128	C	0.303321	1.010404	0.333453
C129	C	0.636654	1.343738	0.666786
C130	C	-0.093230	0.676305	0.000127
C131	C	0.240104	1.009638	0.333460
C132	C	0.573437	1.342972	0.666793
C133	C	-0.492333	0.723539	0.000081
C134	C	-0.158999	1.056872	0.333415
C135	C	0.174334	1.390205	0.666748
C136	C	-0.551733	0.722827	0.000074
C137	C	-0.218400	1.056160	0.333407
C138	C	0.114934	1.389494	0.666740
O139	O	-0.588478	0.766613	0.000045
O140	O	-0.255144	1.099946	0.333379
O141	O	0.078189	1.433280	0.666712
N142	N	-0.574359	0.670551	0.000065
N143	N	-0.241026	1.003884	0.333398
N144	N	0.092307	1.337217	0.666732
C145	C	-0.537582	0.618983	0.000054
C146	C	-0.204248	0.952316	0.333387
C147	C	0.129085	1.285649	0.666720
O148	O	-0.562281	0.574452	0.000044
O149	O	-0.228948	0.907785	0.333378
O150	O	0.104385	1.241119	0.666711
C151	C	-0.478182	0.619695	0.000054
C152	C	-0.144849	0.953028	0.333388
C153	C	0.188484	1.286361	0.666721
C154	C	-0.455560	0.671974	0.000073
C155	C	-0.122227	1.005308	0.333406
C156	C	0.211107	1.338641	0.666740
C157	C	-0.469710	0.775814	0.000099
C158	C	-0.136376	1.109147	0.333432
C159	C	0.196957	1.442481	0.666766
C160	C	-0.410313	0.776525	0.000108
C161	C	-0.076980	1.109859	0.333442
C162	C	0.256353	1.443192	0.666775
C163	C	-0.373540	0.724961	0.000100
C164	C	-0.040207	1.058294	0.333433
C165	C	0.293126	1.391628	0.666767
C166	C	-0.396164	0.672685	0.000082
C167	C	-0.062830	1.006019	0.333416
C168	C	0.270503	1.339352	0.666749
C169	C	-0.441406	0.568127	0.000036
C170	C	-0.108073	0.901460	0.333369
C171	C	0.225261	1.234794	0.666703
C172	C	-0.382004	0.568844	0.000036
C173	C	-0.048670	0.902177	0.333369
C174	C	0.284663	1.235510	0.666702
C175	C	-0.359381	0.621123	0.000055
C176	C	-0.026048	0.954457	0.333388
C177	C	0.307286	1.287790	0.666721
C178	C	-0.299995	0.621832	0.000084
C179	C	0.033339	0.955166	0.333417
C180	C	0.366672	1.288499	0.666750
N181	N	-0.277368	0.674109	0.000092
N182	N	0.055965	1.007442	0.333426
N183	N	0.389298	1.340775	0.666759
C184	C	-0.314141	0.725673	0.000101
C185	C	0.019192	1.059006	0.333434
C186	C	0.352525	1.392340	0.666767
C187	C	-0.662324	0.617491	0.000051
C188	C	-0.328991	0.950824	0.333384
C189	C	0.004343	1.284158	0.666717
C190	C	-0.721722	0.616778	0.000057
C191	C	-0.388389	0.950112	0.333391
C192	C	-0.055055	1.283445	0.666724
C193	C	-0.735869	0.720623	0.000075
C194	C	-0.402536	1.053957	0.333409
C195	C	-0.069203	1.387290	0.666742
C196	C	-0.676470	0.721335	0.000076
C197	C	-0.343137	1.054669	0.333409
C198	C	-0.009804	1.388002	0.666743
C199	C	-0.639698	0.669767	0.000060
C200	C	-0.306365	1.003101	0.333393
C201	C	0.026969	1.336434	0.666726
C202	C	-0.189405	0.727163	0.000121
C203	C	0.143929	1.060496	0.333455
C204	C	0.477262	1.393829	0.666788
C205	C	-0.130003	0.727869	0.000135
C206	C	0.203331	1.061203	0.333468
C207	C	0.536664	1.394536	0.666802
C208	C	-0.115860	0.624025	0.000111
C209	C	0.217473	0.957358	0.333445
C210	C	0.550806	1.290692	0.666778
C211	C	-0.175257	0.623318	0.000103
C212	C	0.158076	0.956651	0.333436
C213	C	0.491409	1.289985	0.666770
C214	C	-0.212029	0.674891	0.000105
C215	C	0.121305	1.008225	0.333438
C216	C	0.454638	1.341558	0.666771
O217	O	-0.263215	0.578070	0.000108
O218	O	0.070118	0.911403	0.333441
O219	O	0.403451	1.244736	0.666775
O220	O	-0.289433	0.770196	0.000097
O221	O	0.043900	1.103529	0.333430
O222	O	0.377233	1.436863	0.666764
C223	C	0.178283	0.667577	0.000074
C224	C	0.511616	1.000910	0.333408
C225	C	0.844949	1.334244	0.666741
C226	C	0.241500	0.668343	0.000060
C227	C	0.574833	1.001676	0.333394
C228	C	0.908167	1.335010	0.666727
C229	C	0.069388	0.776472	0.000114
C230	C	0.402722	1.109805	0.333448
C231	C	0.736055	1.443138	0.666781
C232	C	0.070154	0.839689	0.000119
C233	C	0.403487	1.173022	0.333452
C234	C	0.736821	1.506355	0.666785
N235	N	0.074128	0.672315	0.254953
N236	N	0.407461	1.005648	0.588287
N237	N	0.740794	1.338981	0.921620
N238	N	0.074138	0.672338	-0.254758
N239	N	0.407471	1.005671	0.078576
N240	N	0.740805	1.339005	0.411909
C241	C	0.074139	0.672329	0.656244
C242	C	0.407472	1.005662	0.989578
C243	C	0.740805	1.338996	1.322911
C244	C	0.074138	0.672323	0.544593
C245	C	0.407471	1.005657	0.877926
C246	C	0.740804	1.338990	1.211260
C247	C	0.074134	0.672322	0.455602
C248	C	0.407467	1.005655	0.788936
C249	C	0.740800	1.338989	1.122269
C250	C	0.074132	0.672316	0.343944
C251	C	0.407465	1.005649	0.677277
C252	C	0.740798	1.338983	1.010611
H253	H	-0.016146	0.512280	0.000090
H254	H	0.317187	0.845613	0.333424
H255	H	0.650520	1.178946	0.666757
H256	H	0.165717	-0.059867	0.000092
H257	H	0.499050	0.273467	0.333425
H258	H	0.832384	0.606800	0.666759
H259	H	-0.022693	-0.034198	0.000140
H260	H	0.310640	0.299136	0.333473
H261	H	0.643973	0.632469	0.666806
F262	F	-0.076714	0.569149	0.000103
F263	F	0.256619	0.902483	0.333436
F264	F	0.589953	1.235816	0.666770
F265	F	0.233980	0.211944	0.000058
F266	F	0.567313	0.545278	0.333391
F267	F	0.900647	0.878611	0.666725
H268	H	0.172255	0.486602	0.000040
H269	H	0.505588	0.819935	0.333373
H270	H	0.838921	1.153269	0.666707
F271	F	-0.084233	0.255318	0.000179
F272	F	0.249101	0.588652	0.333513
F273	F	0.582434	0.921985	0.666846
H274	H	-0.111587	0.770443	0.000153
H275	H	0.221746	1.103777	0.333486
H276	H	0.555080	1.437110	0.666819
H277	H	-0.023982	-0.141947	0.000126
H278	H	0.309351	0.191387	0.333459
H279	H	0.642685	0.524720	0.666792
F280	F	-0.085706	0.132720	0.000162
F281	F	0.247627	0.466053	0.333496
F282	F	0.580961	0.799386	0.666829
F283	F	-0.228531	0.782053	0.000123
F284	F	0.104802	1.115386	0.333456
F285	F	0.438135	1.448720	0.666789
F286	F	-0.652399	0.776978	0.000096
F287	F	-0.319066	1.110311	0.333429
F288	F	0.014267	1.443644	0.666763
H289	H	-0.352066	0.526850	0.000021
H290	H	-0.018732	0.860183	0.333354
H291	H	0.314601	1.193516	0.666688
F292	F	-0.386245	0.832169	0.000107
F293	F	-0.052911	1.165502	0.333441
F294	F	0.280422	1.498835	0.666774
F295	F	0.232512	0.089351	0.000071
F296	F	0.565845	0.422684	0.333404
F297	F	0.899179	0.756017	0.666738
F298	F	0.177314	-0.176827	0.000094
F299	F	0.510647	0.156506	0.333427
F300	F	0.843981	0.489839	0.666761
H301	H	-0.017441	0.404512	0.000094
H302	H	0.315892	0.737845	0.333427
H303	H	0.649225	1.071178	0.666761
F304	F	-0.508838	0.830701	0.000107
F305	F	-0.175505	1.164034	0.333440
F306	F	0.157828	1.497367	0.666774
H307	H	-0.765821	0.762610	0.000078
H308	H	-0.432488	1.095943	0.333412
H309	H	-0.099154	1.429276	0.666745
F310	F	-0.745792	0.561135	0.000055
F311	F	-0.412459	0.894469	0.333388
F312	F	-0.079125	1.227802	0.666721
F313	F	-0.623192	0.562602	0.000042
F314	F	-0.289859	0.895935	0.333376
F315	F	0.043474	1.229268	0.666709
H316	H	-0.459814	0.525555	0.000015
H317	H	-0.126481	0.858889	0.333348
H318	H	0.206852	1.192222	0.666681
H319	H	0.170970	0.378851	0.000069
H320	H	0.504303	0.712185	0.333402
H321	H	0.837637	1.045518	0.666735
F322	F	-0.199335	0.567676	0.000101
F323	F	0.133999	0.901010	0.333434
F324	F	0.467332	1.234343	0.666767
