data_functionalizedCrystal
_audit_creation_method	'MofGen! by Chris Wilmer'
_symmetry_space_group_name_H-M	'P1'
_symmetry_Int_Tables_number	1
_symmetry_cell_setting	triclinic
loop_
_symmetry_equiv_pos_as_xyz
  x,y,z
_cell_length_a	16.959455
_cell_length_b	16.120297
_cell_length_c	16.959454
_cell_angle_alpha	92.875976
_cell_angle_beta	90.017022
_cell_angle_gamma	92.879541
loop_
_atom_site_label
_atom_site_type_symbol
_atom_site_fract_x
_atom_site_fract_y
_atom_site_fract_z
Zn1	Zn	1.185756	-0.471383	-0.337427
Zn2	Zn	1.192371	-0.331981	-0.462907
Zn3	Zn	1.060276	-0.331989	-0.330740
Zn4	Zn	1.053551	-0.471350	-0.469558
O5	O	1.122989	-0.401676	-0.400158
O6	O	1.297244	-0.452902	-0.354087
O7	O	1.180430	-0.215319	-0.439793
O8	O	1.076968	-0.350498	-0.221017
O9	O	1.302104	-0.350484	-0.446277
O10	O	1.169158	-0.452910	-0.225930
O11	O	1.083381	-0.215325	-0.342690
O12	O	0.948774	-0.350465	-0.349140
O13	O	1.065506	-0.588018	-0.457613
O14	O	0.943833	-0.452853	-0.451129
O15	O	1.162637	-0.588042	-0.360536
O16	O	1.173909	-0.350451	-0.574399
O17	O	1.071919	-0.452845	-0.579286
C18	C	0.917623	-0.401657	-0.400131
C19	C	0.829766	-0.401668	-0.400139
C20	C	0.460833	-0.348474	-0.347016
C21	C	0.455745	-0.454926	-0.453367
C22	C	0.538291	-0.454920	-0.453356
C23	C	0.582112	-0.401690	-0.400174
C24	C	0.543387	-0.348465	-0.347004
C25	C	0.577023	-0.508138	-0.506530
C26	C	0.659574	-0.508135	-0.506521
C27	C	0.703396	-0.454908	-0.453335
C28	C	0.664666	-0.401682	-0.400163
C29	C	0.708487	-0.348452	-0.346981
C30	C	0.669758	-0.295229	-0.293804
C31	C	0.587209	-0.295239	-0.293819
C32	C	0.785945	-0.454898	-0.453321
C33	C	0.791041	-0.348443	-0.346970
C34	C	1.112583	-0.619125	-0.410562
C35	C	1.108149	-0.711789	-0.414996
C36	C	1.100025	-0.881447	-0.423073
C37	C	1.146108	-0.922756	-0.377006
C38	C	1.141587	-1.017160	-0.381500
C39	C	1.104544	-0.787035	-0.418580
C40	C	1.329156	-0.401696	-0.400186
C41	C	1.417012	-0.401704	-0.400197
C42	C	1.122923	-0.401662	-0.605524
C43	C	1.122966	-0.401684	-0.693381
C44	C	1.133399	-0.185072	-0.389737
C45	C	1.137986	-0.092409	-0.385081
C46	C	1.069956	-0.454987	-1.067431
C47	C	1.176237	-0.348450	-1.062286
C48	C	1.176210	-0.348442	-0.979740
C49	C	1.123054	-0.401707	-0.941035
C50	C	1.069926	-0.454979	-0.984877
C51	C	1.229332	-0.295165	-0.935892
C52	C	1.229307	-0.295155	-0.853341
C53	C	1.176154	-0.348424	-0.814635
C54	C	1.123024	-0.401699	-0.858481
C55	C	1.069868	-0.454963	-0.819777
C56	C	1.016741	-0.508243	-0.863622
C57	C	1.016773	-0.508248	-0.946171
C58	C	1.176122	-0.348419	-0.732086
C59	C	1.069837	-0.454956	-0.737223
C60	C	1.123075	-0.401708	-0.193991
C61	C	1.123112	-0.401722	-0.106135
H62	H	0.691100	-0.551473	-0.549820
H63	H	1.188955	-0.887222	-0.334190
H64	H	1.219373	-0.305036	-0.696391
H65	H	1.057181	-0.916979	-0.465886
H66	H	1.026554	-0.498333	-0.705715
H67	H	1.026703	-0.498368	-1.103133
H68	H	1.272603	-0.251794	-0.967412
H69	H	0.973457	-0.551608	-0.832099
H70	H	0.973519	-0.551625	-0.981877
H71	H	0.429296	-0.305143	-0.303719
H72	H	1.219510	-0.305080	-1.093805
H73	H	0.826714	-0.305101	-0.303658
H74	H	0.705448	-0.251885	-0.250507
H75	H	0.420061	-0.498258	-0.496669
H76	H	0.555669	-0.251907	-0.250526
H77	H	0.541338	-0.551470	-0.549833
H78	H	0.817475	-0.498229	-0.496619
H79	H	1.272566	-0.251773	-0.817647
