data_functionalizedCrystal
_audit_creation_method	'MofGen! by Chris Wilmer'
_symmetry_space_group_name_H-M	'P1'
_symmetry_Int_Tables_number	1
_symmetry_cell_setting	triclinic
loop_
_symmetry_equiv_pos_as_xyz
  x,y,z
_cell_length_a	19.805399
_cell_length_b	21.295419
_cell_length_c	19.805404
_cell_angle_alpha	89.954090
_cell_angle_beta	89.970203
_cell_angle_gamma	90.019371
loop_
_atom_site_label
_atom_site_type_symbol
_atom_site_fract_x
_atom_site_fract_y
_atom_site_fract_z
Zn1	Zn	-0.382706	-0.962324	-0.269180
Zn2	Zn	0.117294	-0.462324	0.230820
Zn3	Zn	-0.269513	-0.962239	-0.382368
Zn4	Zn	0.230487	-0.462239	0.117632
Zn5	Zn	-0.269531	-0.857058	-0.269231
Zn6	Zn	0.230469	-0.357058	0.230769
Zn7	Zn	-0.382660	-0.857019	-0.382365
Zn8	Zn	0.117340	-0.357019	0.117635
O9	O	-0.326102	-0.909660	-0.325786
O10	O	0.173898	-0.409660	0.174214
O11	O	-0.367702	-1.050402	-0.284174
O12	O	0.132298	-0.550402	0.215826
O13	O	-0.174799	-0.948268	-0.367383
O14	O	0.325201	-0.448268	0.132617
O15	O	-0.284570	-0.871074	-0.174508
O16	O	0.215430	-0.371074	0.325492
O17	O	-0.284540	-1.050340	-0.367333
O18	O	0.215460	-0.550340	0.132667
O19	O	-0.367719	-0.948412	-0.174470
O20	O	0.132281	-0.448412	0.325530
O21	O	-0.174812	-0.870992	-0.284262
O22	O	0.325188	-0.370992	0.215738
O23	O	-0.284526	-0.768963	-0.284259
O24	O	0.215474	-0.268963	0.215741
O25	O	-0.477383	-0.871007	-0.367328
O26	O	0.022617	-0.371007	0.132672
O27	O	-0.367642	-0.768934	-0.367378
O28	O	0.132358	-0.268934	0.132622
O29	O	-0.477416	-0.948374	-0.284171
O30	O	0.022584	-0.448374	0.215829
O31	O	-0.284496	-0.948230	-0.477084
O32	O	0.215504	-0.448230	0.022916
O33	O	-0.367625	-0.870924	-0.477082
O34	O	0.132375	-0.370924	0.022918
C35	C	-0.326081	-0.746108	-0.325824
C36	C	0.173919	-0.246108	0.174176
C37	C	-0.326088	-0.676140	-0.325856
C38	C	0.173912	-0.176140	0.174144
C39	C	-0.369457	-0.643328	-0.282627
C40	C	0.130543	-0.143328	0.217373
C41	C	-0.369459	-0.577586	-0.282611
C42	C	0.130541	-0.077586	0.217389
C43	C	-0.326099	-0.544658	-0.325836
C44	C	0.173901	-0.044658	0.174164
C45	C	-0.282721	-0.577477	-0.369069
C46	C	0.217279	-0.077477	0.130931
C47	C	-0.282716	-0.643219	-0.369079
C48	C	0.217284	-0.143219	0.130921
N49	N	-0.320808	-0.441384	-0.385062
N50	N	0.179192	0.058616	0.114938
N51	N	-0.320817	-0.378932	-0.385050
N52	N	0.179183	0.121068	0.114950
C53	C	-0.326111	-0.346583	-0.325808
C54	C	0.173889	0.153417	0.174192
N55	N	-0.331408	-0.379044	-0.266576
N56	N	0.168592	0.120956	0.233424
N57	N	-0.331403	-0.441501	-0.266588
N58	N	0.168597	0.058499	0.233412
C59	C	-0.326099	-0.473372	-0.325830
C60	C	0.173901	0.026628	0.174170
C61	C	-0.369484	-0.242486	-0.282558
C62	C	0.130516	0.257514	0.217442
C63	C	-0.369481	-0.176742	-0.282541
C64	C	0.130519	0.323258	0.217459
C65	C	-0.282747	-0.176635	-0.369004
C66	C	0.217253	0.323365	0.130996
C67	C	-0.282746	-0.242377	-0.369015
C68	C	0.217254	0.257623	0.130985
C69	C	-0.326118	-0.275299	-0.325793
C70	C	0.173882	0.224701	0.174207
C71	C	-0.502645	-0.909695	-0.325743
C72	C	-0.002645	-0.409695	0.174257
C73	C	-0.577877	-0.909710	-0.325725
C74	C	-0.077877	-0.409710	0.174275
C75	C	-0.613240	-0.949996	-0.282423
C76	C	-0.113240	-0.449996	0.217577
C77	C	-0.683928	-0.950003	-0.282404
C78	C	-0.183928	-0.450003	0.217596
C79	C	-0.719253	-0.909726	-0.325690
C80	C	-0.219253	-0.409726	0.174310
C81	C	-0.683885	-0.869435	-0.368994
C82	C	-0.183885	-0.369435	0.131006
C83	C	-0.613198	-0.869426	-0.369009
C84	C	-0.113198	-0.369426	0.130991
C85	C	-0.968959	-0.869471	-0.368931
C86	C	-0.468959	-0.369471	0.131069
C87	C	-1.039651	-0.869485	-0.368913
C88	C	-0.539651	-0.369485	0.131087
C89	C	-1.039689	-0.950048	-0.282325
C90	C	-0.539689	-0.450048	0.217675
C91	C	-0.969002	-0.950038	-0.282341
C92	C	-0.469002	-0.450038	0.217659
C93	C	-0.933640	-0.909746	-0.325642
C94	C	-0.433640	-0.409746	0.174358
C95	C	-0.856992	-0.909738	-0.325661
C96	C	-0.356992	-0.409738	0.174339
C97	C	-0.795900	-0.909736	-0.325674
C98	C	-0.295900	-0.409736	0.174326
C99	C	-0.150246	-0.909661	-0.325780
C100	C	0.349754	-0.409661	0.174220
C101	C	-0.075015	-0.909768	-0.325607
C102	C	0.424985	-0.409768	0.174393
C103	C	-0.326068	-0.909581	-0.501642
C104	C	0.173932	-0.409581	-0.001642
C105	C	-0.326076	-0.909604	-0.576874
C106	C	0.173924	-0.409604	-0.076874
C107	C	-0.326121	-0.073850	-0.325757
C108	C	0.173879	0.426150	0.174243
C109	C	-0.326119	-0.143818	-0.325766
C110	C	0.173881	0.356182	0.174234
C111	C	-0.369493	-0.950016	-1.038586
C112	C	0.130507	-0.450016	-0.538586
C113	C	-0.369478	-0.949991	-0.967898
C114	C	0.130522	-0.449991	-0.467898
C115	C	-0.326144	-0.909744	-0.932636
C116	C	0.173856	-0.409744	-0.432636
C117	C	-0.282819	-0.869525	-0.968065
C118	C	0.217181	-0.369525	-0.468065
C119	C	-0.282831	-0.869553	-1.038753
C120	C	0.217169	-0.369553	-0.538753
C121	C	-0.282766	-0.869410	-0.682992
C122	C	0.217234	-0.369410	-0.182992
C123	C	-0.282758	-0.869383	-0.612300
C124	C	0.217242	-0.369383	-0.112300
C125	C	-0.369413	-0.949847	-0.612138
C126	C	0.130587	-0.449847	-0.112138
C127	C	-0.369425	-0.949875	-0.682825
C128	C	0.130575	-0.449875	-0.182825
C129	C	-0.326097	-0.909659	-0.718248
C130	C	0.173903	-0.409659	-0.218248
C131	C	-0.326114	-0.909687	-0.794897
C132	C	0.173886	-0.409687	-0.294897
C133	C	-0.326131	-0.909713	-0.855989
C134	C	0.173869	-0.409713	-0.355989
C135	C	-0.326152	-0.909757	-0.149243
C136	C	0.173848	-0.409757	0.350757
C137	C	-0.326173	-0.909798	-0.074011
C138	C	0.173827	-0.409798	0.425989
H139	H	-0.247417	-0.550663	-0.404262
H140	H	0.252583	-0.050663	0.095738
N141	N	-1.077759	-0.826033	-0.415589
N142	N	-0.577759	-0.326033	0.084411
H143	H	-1.107084	-0.851598	-0.446945
H144	H	-0.607084	-0.351598	0.053055
H145	H	-1.044594	-0.800509	-0.442976
H146	H	-0.544594	-0.300509	0.057024
H147	H	-0.940244	-0.982838	-0.247095
H148	H	-0.440244	-0.482838	0.252905
N149	N	-0.575142	-0.993442	-0.235740
N150	N	-0.075142	-0.493442	0.264260
H151	H	-0.608273	-1.018963	-0.208305
H152	H	-0.108273	-0.518963	0.291695
H153	H	-0.545817	-0.967833	-0.204429
H154	H	-0.045817	-0.467833	0.295571
N155	N	-0.236104	-0.826179	-1.076964
N156	N	0.263896	-0.326179	-0.576964
H157	H	-0.208650	-0.800678	-1.043901
H158	H	0.291350	-0.300678	-0.543901
H159	H	-0.263629	-0.797044	-1.106315
H160	H	0.236371	-0.297044	-0.606315
H161	H	-0.404752	-0.982739	-0.939055
H162	H	0.095248	-0.482739	-0.439055
N163	N	-0.236078	-0.826122	-0.930030
N164	N	0.263922	-0.326122	-0.430030
H165	H	-0.263549	-0.796922	-0.900723
H166	H	0.236451	-0.296922	-0.400723
H167	H	-0.208642	-0.800691	-0.963240
H168	H	0.291358	-0.300691	-0.463240
H169	H	-0.712718	-0.982809	-0.247145
H170	H	-0.212718	-0.482809	0.252855
N171	N	-0.930843	-0.826009	-0.415640
N172	N	-0.430843	-0.326009	0.084360
H173	H	-0.901508	-0.851558	-0.447015
H174	H	-0.401508	-0.351558	0.052985
H175	H	-0.901561	-0.796849	-0.388103
H176	H	-0.401561	-0.296849	0.111897
N177	N	-0.721981	-0.825979	-0.415667
N178	N	-0.221981	-0.325979	0.084333
H179	H	-0.772128	-0.832094	-0.409084
H180	H	-0.272128	-0.332094	0.090916
H181	H	-0.709619	-0.835736	-0.464011
H182	H	-0.209619	-0.335736	0.035989
N183	N	-0.416236	-0.542185	-0.235984
N184	N	0.083764	-0.042185	0.264016
H185	H	-0.443710	-0.573017	-0.208604
H186	H	0.056290	-0.073017	0.291396
H187	H	-0.447507	-0.514898	-0.263578
H188	H	0.052493	-0.014898	0.236422
H189	H	-0.404774	-0.670129	-0.247432
H190	H	0.095226	-0.170129	0.252568
H191	H	-0.247399	-0.669934	-0.404282
H192	H	0.252601	-0.169934	0.095718
H193	H	-0.404714	-0.982646	-0.711532
H194	H	0.095286	-0.482646	-0.211532
H195	H	-0.404690	-0.982596	-0.583288
H196	H	0.095310	-0.482596	-0.083288
H197	H	-0.247442	-0.149825	-0.404199
H198	H	0.252558	0.350175	0.095801
H199	H	-0.404796	-0.269292	-0.247360
H200	H	0.095204	0.230708	0.252640
N201	N	-1.077829	-0.993506	-0.235618
N202	N	-0.577829	-0.493506	0.264382
H203	H	-1.127969	-0.987401	-0.242172
H204	H	-0.627969	-0.487401	0.257828
H205	H	-1.065482	-0.983736	-0.187283
H206	H	-0.565482	-0.483736	0.312717
H207	H	-0.404796	-0.150028	-0.247334
H208	H	0.095204	0.349972	0.252666
H209	H	-0.247433	-0.269093	-0.404220
H210	H	0.252567	0.230907	0.095780
H211	H	-0.584407	-0.836615	-0.404263
H212	H	-0.084407	-0.336615	0.095737
H213	H	-0.404787	-0.982783	-1.067292
H214	H	0.095213	-0.482783	-0.567292
N215	N	-0.236017	-0.825974	-0.574265
N216	N	0.263983	-0.325974	-0.074265
H217	H	-0.208568	-0.800502	-0.607431
H218	H	0.291432	-0.300502	-0.107431
H219	H	-0.204720	-0.851609	-0.544922
H220	H	0.295280	-0.351609	-0.044922
H221	H	-0.247486	-0.836663	-0.711826
H222	H	0.252514	-0.336663	-0.211826
