data_functionalizedCrystal
_audit_creation_method	'MofGen! by Chris Wilmer'
_symmetry_space_group_name_H-M	'P1'
_symmetry_Int_Tables_number	1
_symmetry_cell_setting	triclinic
loop_
_symmetry_equiv_pos_as_xyz
  x,y,z
_cell_length_a	9.065215
_cell_length_b	9.482900
_cell_length_c	9.065218
_cell_angle_alpha	80.524781
_cell_angle_beta	94.984675
_cell_angle_gamma	80.571776
loop_
_atom_site_label
_atom_site_type_symbol
_atom_site_fract_x
_atom_site_fract_y
_atom_site_fract_z
O1	O	-1.983087	0.120865	0.193547
O2	O	-1.553804	0.120873	0.211296
O3	O	-1.777318	0.120866	-0.012221
O4	O	-1.759573	0.120872	0.417063
O5	O	-1.731920	-0.120925	0.033365
O6	O	-1.508405	-0.120918	0.256882
O7	O	-1.937689	-0.120926	0.239133
Cu8	Cu	-1.718902	-0.143000	0.252170
Cu9	Cu	-1.772591	0.142946	0.198259
O10	O	-1.714174	-0.120919	0.462649
C11	C	-1.476118	-0.000022	0.232384
C12	C	-1.312275	-0.000019	0.227285
N13	N	-1.681151	-0.344119	0.290087
C14	C	-1.761445	-0.416320	0.209435
C15	C	-1.730047	-0.583737	0.240994
C16	C	-1.015376	-0.000027	0.218044
C17	C	-1.179220	-0.000018	0.223140
C18	C	-1.752914	-0.000027	-0.044415
C19	C	-1.747816	-0.000020	-0.208259
N20	N	-1.810353	0.344065	0.160330
C21	C	-1.738579	-0.000023	0.494843
C22	C	-1.743679	-0.000020	0.658685
H23	H	-1.853429	-0.354195	0.117016
H24	H	-1.902343	-0.593813	0.067906
H25	H	-1.638047	-0.645858	0.333408
Cl26	Cl	-1.539115	-0.440028	0.432762
