data_functionalizedCrystal
_audit_creation_method	'MofGen! by Chris Wilmer'
_symmetry_space_group_name_H-M	'P1'
_symmetry_Int_Tables_number	1
_symmetry_cell_setting	triclinic
loop_
_symmetry_equiv_pos_as_xyz
  x,y,z
_cell_length_a	17.699083
_cell_length_b	17.699092
_cell_length_c	16.776229
_cell_angle_alpha	90.004970
_cell_angle_beta	90.000683
_cell_angle_gamma	83.284691
loop_
_atom_site_label
_atom_site_type_symbol
_atom_site_fract_x
_atom_site_fract_y
_atom_site_fract_z
O1	O	-1.004081	-0.095713	-0.066166
O2	O	-0.504081	0.404287	0.433834
O3	O	-0.783703	-0.108165	-0.066193
O4	O	-0.283703	0.391835	0.433807
O5	O	-0.900115	0.008250	-0.066177
O6	O	-0.400115	0.508250	0.433823
O7	O	-0.887669	-0.212128	-0.066182
O8	O	-0.387669	0.287872	0.433818
O9	O	-0.900100	0.008257	0.066400
O10	O	-0.400100	0.508257	0.566400
O11	O	-0.783688	-0.108158	0.066383
O12	O	-0.283688	0.391842	0.566383
O13	O	-1.004066	-0.095705	0.066411
O14	O	-0.504066	0.404295	0.566411
Zn15	Zn	-0.893874	-0.101931	0.087447
Zn16	Zn	-0.393874	0.398069	0.587447
Zn17	Zn	-0.893895	-0.101940	-0.087229
Zn18	Zn	-0.393895	0.398060	0.412771
O19	O	-0.887654	-0.212120	0.066395
O20	O	-0.387654	0.287880	0.566395
C21	C	-0.755499	-0.107715	0.000092
C22	C	-0.255499	0.392285	0.500092
C23	C	-0.671480	-0.106377	0.000081
C24	C	-0.171480	0.393623	0.500081
C25	C	-0.622862	-0.174710	0.000079
C26	C	-0.122862	0.325290	0.500079
C27	C	-0.543918	-0.173448	0.000089
C28	C	-0.043918	0.326552	0.500089
C29	C	-0.513595	-0.103851	0.000095
C30	C	-0.013595	0.396149	0.500095
C31	C	-0.562220	-0.035513	0.000099
C32	C	-0.062220	0.464487	0.500099
C33	C	-0.641162	-0.036776	0.000095
C34	C	-0.141162	0.463224	0.500095
C35	C	-0.243857	-0.030418	0.000116
C36	C	0.256143	0.469582	0.500116
C37	C	-0.164909	-0.029160	0.000118
C38	C	0.335091	0.470840	0.500118
C39	C	-0.146613	-0.167089	0.000110
C40	C	0.353387	0.332911	0.500110
C41	C	-0.225555	-0.168352	0.000106
C42	C	0.274445	0.331648	0.500106
C43	C	-0.274173	-0.100014	0.000115
C44	C	0.225827	0.399986	0.500115
C45	C	-0.359772	-0.101384	0.000106
C46	C	0.140228	0.398616	0.500106
C47	C	-0.427998	-0.102481	0.000098
C48	C	0.072002	0.397519	0.500098
C49	C	-0.032271	-0.096155	0.000123
C50	C	0.467729	0.403845	0.500123
C51	C	-0.116289	-0.097494	0.000122
C52	C	0.383711	0.402506	0.500122
N53	N	-0.893866	-0.101924	0.206658
N54	N	-0.393866	0.398076	0.706658
C55	C	-0.899661	0.036450	0.000110
C56	C	-0.399661	0.536450	0.500110
C57	C	-0.898319	0.120468	0.000106
C58	C	-0.398319	0.620468	0.500106
C59	C	-0.888109	-0.240321	0.000106
C60	C	-0.388109	0.259679	0.500106
C61	C	-0.889450	-0.324339	0.000105
C62	C	-0.389450	0.175661	0.500105
C63	C	-0.897700	0.159932	-0.072162
C64	C	-0.397700	0.659932	0.427838
C65	C	-0.896435	0.238875	-0.072163
C66	C	-0.396435	0.738875	0.427837
C67	C	-0.895795	0.278353	0.000105
C68	C	-0.395795	0.778353	0.500105
C69	C	-0.896413	0.238884	0.072379
C70	C	-0.396413	0.738884	0.572379
C71	C	-0.897672	0.159942	0.072379
C72	C	-0.397672	0.659942	0.572379
C73	C	-0.891332	0.557249	0.072380
C74	C	-0.391332	1.057249	0.572380
C75	C	-0.890075	0.636197	0.072374
C76	C	-0.390075	1.136197	0.572374
C77	C	-0.890095	0.636182	-0.072163
C78	C	-0.390095	1.136182	0.427837
C79	C	-0.891354	0.557240	-0.072163
C80	C	-0.391354	1.057240	0.427837
C81	C	-0.891968	0.517777	0.000111
C82	C	-0.391968	1.017777	0.500111
C83	C	-0.893338	0.432178	0.000111
C84	C	-0.393338	0.932178	0.500111
C85	C	-0.894430	0.363952	0.000106
C86	C	-0.394430	0.863952	0.500106
N87	N	-0.893909	-0.101941	-0.206440
N88	N	-0.393909	0.398059	0.293560
C89	C	-0.945429	-0.050396	0.248382
C90	C	-0.445429	0.449604	0.748382
C91	C	-0.945433	-0.050396	0.331834
C92	C	-0.445433	0.449604	0.831834
C93	C	-0.893878	-0.101927	0.373561
C94	C	-0.393878	0.398073	0.873561
C95	C	-0.842309	-0.153457	0.331831
C96	C	-0.342309	0.346543	0.831831
C97	C	-0.842302	-0.153453	0.248380
C98	C	-0.342302	0.346547	0.748380
C99	C	-0.842337	-0.153471	0.668378
C100	C	-0.342337	0.346529	1.168378
C101	C	-0.842349	-0.153472	0.751834
C102	C	-0.342349	0.346528	1.251834
C103	C	-0.945468	-0.050414	0.751832
C104	C	-0.445468	0.449586	1.251832
C105	C	-0.945461	-0.050410	0.668382
C106	C	-0.445461	0.449590	1.168382
C107	C	-0.893890	-0.101937	0.626659
C108	C	-0.393890	0.398063	1.126659
C109	C	-0.893885	-0.101936	0.536170
C110	C	-0.393885	0.398064	1.036170
C111	C	-0.893885	-0.101932	0.464048
C112	C	-0.393885	0.398068	0.964048
H113	H	-0.537525	0.021154	0.000115
H114	H	-0.037525	0.521154	0.500115
H115	H	-0.889552	0.668338	0.131227
H116	H	-0.389552	1.168338	0.631227
O117	O	-0.496656	-0.239805	0.000220
O118	O	0.003344	0.260195	0.500220
C119	C	-0.450433	-0.243197	0.068874
C120	C	0.049567	0.256803	0.568874
H121	H	-0.479418	-0.204448	0.116872
H122	H	0.020582	0.295552	0.616872
H123	H	-0.441442	-0.304182	0.091910
H124	H	0.058558	0.195818	0.591910
H125	H	-0.393064	-0.223708	0.053357
H126	H	0.106936	0.276292	0.553357
O127	O	-0.995662	-0.000424	0.792326
O128	O	-0.495662	0.499576	1.292326
C129	C	-1.070556	-0.012622	0.771909
C130	C	-0.570556	0.487378	1.271909
H131	H	-1.070812	-0.073221	0.748968
H132	H	-0.570812	0.426779	1.248968
H133	H	-1.108561	-0.003863	0.826785
H134	H	-0.608561	0.496137	1.326785
H135	H	-1.092857	0.029354	0.723468
H136	H	-0.592857	0.529354	1.223468
H137	H	-0.891879	0.525101	-0.131011
H138	H	-0.391879	1.025101	0.368989
O139	O	-0.898377	0.121538	0.142533
O140	O	-0.398377	0.621538	0.642533
C141	C	-0.964635	0.084578	0.146884
C142	C	-0.464635	0.584578	0.646884
H143	H	-0.986680	0.075640	0.084143
H144	H	-0.486680	0.575640	0.584143
H145	H	-0.950775	0.027116	0.177473
H146	H	-0.450775	0.527116	0.677473
H147	H	-1.010027	0.121091	0.182556
H148	H	-0.510027	0.621091	0.682556
O149	O	-0.792180	-0.203426	0.627815
O150	O	-0.292180	0.296574	1.127815
C151	C	-0.745568	-0.162958	0.579536
C152	C	-0.245568	0.337042	1.079536
H153	H	-0.744392	-0.103272	0.604692
H154	H	-0.244392	0.396728	1.104692
H155	H	-0.685359	-0.193923	0.578589
H156	H	-0.185359	0.306077	1.078589
H157	H	-0.769259	-0.158957	0.516290
H158	H	-0.269259	0.341043	1.016290
O159	O	-0.792187	-0.203557	0.792245
O160	O	-0.292187	0.296443	1.292245
C161	C	-0.746678	-0.249046	0.737526
C162	C	-0.246678	0.250954	1.237526
H163	H	-0.745875	-0.218016	0.678043
H164	H	-0.245875	0.281984	1.178043
H165	H	-0.686219	-0.260660	0.761648
H166	H	-0.186219	0.239340	1.261648
H167	H	-0.771137	-0.305246	0.728640
H168	H	-0.271137	0.194754	1.228640
H169	H	-0.800328	-0.195412	0.365809
H170	H	-0.300328	0.304588	0.865809
H171	H	-0.107018	-0.222733	0.000108
H172	H	0.392982	0.277267	0.500108
O173	O	-0.891984	0.519046	0.142654
O174	O	-0.391984	1.019046	0.642654
C175	C	-0.891144	0.570821	0.206436
C176	C	-0.391144	1.070821	0.706436
H177	H	-0.914186	0.630270	0.185239
H178	H	-0.414186	1.130270	0.685239
H179	H	-0.928252	0.552900	0.256975
H180	H	-0.428252	1.052900	0.756975
H181	H	-0.830317	0.571161	0.228670
H182	H	-0.330317	1.071161	0.728670
H183	H	-0.680748	0.018868	0.000096
H184	H	-0.180748	0.518868	0.500096
O185	O	-0.995465	-0.000194	0.627951
O186	O	-0.495465	0.499806	1.127951
C187	C	-0.983242	0.074671	0.648465
C188	C	-0.483242	0.574671	1.148465
H189	H	-0.922628	0.074887	0.671372
H190	H	-0.422628	0.574887	1.171372
H191	H	-0.992026	0.112745	0.593647
H192	H	-0.492026	0.612745	1.093647
H193	H	-1.025187	0.096919	0.696961
H194	H	-0.525187	0.596919	1.196961
H195	H	-0.800313	-0.195411	0.214409
H196	H	-0.300313	0.304589	0.714409
O197	O	-0.889351	0.674538	-0.142348
O198	O	-0.389351	1.174538	0.357652
C199	C	-0.823105	0.711520	-0.146667
C200	C	-0.323105	1.211520	0.353333
H201	H	-0.777685	0.681652	-0.105663
H202	H	-0.277685	1.181652	0.394337
H203	H	-0.801103	0.709498	-0.210588
H204	H	-0.301103	1.209498	0.289412
H205	H	-0.836958	0.773314	-0.127243
H206	H	-0.336958	1.273314	0.372757
H207	H	-0.987419	-0.008438	0.365806
H208	H	-0.487419	0.491562	0.865806
O209	O	-0.652188	-0.242383	0.000108
O210	O	-0.152188	0.257617	0.500108
C211	C	-0.592343	-0.302424	0.000090
C212	C	-0.092343	0.197576	0.500090
H213	H	-0.538755	-0.281302	0.025193
H214	H	-0.038755	0.218698	0.525193
H215	H	-0.608752	-0.351022	0.038578
H216	H	-0.108752	0.148978	0.538578
H217	H	-0.581130	-0.323499	-0.063514
H218	H	-0.081130	0.176501	0.436486
O219	O	-0.895691	0.277303	0.142530
O220	O	-0.395691	0.777303	0.642530
C221	C	-0.829432	0.314264	0.146857
C222	C	-0.329432	0.814264	0.646857
H223	H	-0.807404	0.323188	0.084108
H224	H	-0.307404	0.823188	0.584108
H225	H	-0.843285	0.371734	0.177443
H226	H	-0.343285	0.871734	0.677443
H227	H	-0.784031	0.277761	0.182519
H228	H	-0.284031	0.777761	0.682519
O229	O	-0.254884	-0.236024	0.000137
O230	O	0.245116	0.263976	0.500137
C231	C	-0.195042	-0.296068	0.000119
C232	C	0.304958	0.203932	0.500119
H233	H	-0.141452	-0.274949	0.025220
H234	H	0.358548	0.225051	0.525220
H235	H	-0.211453	-0.344664	0.038608
H236	H	0.288547	0.155336	0.538608
H237	H	-0.183832	-0.317145	-0.063485
H238	H	0.316168	0.182855	0.436515
H239	H	-0.898224	0.127794	-0.131011
H240	H	-0.398224	0.627794	0.368989
O241	O	-0.995540	-0.000265	0.207976
O242	O	-0.495540	0.499735	0.707976
C243	C	-1.041063	0.045202	0.262703
C244	C	-0.541063	0.545202	0.762703
H245	H	-1.010039	0.046014	0.322192
H246	H	-0.510039	0.546014	0.822192
H247	H	-1.052719	0.105662	0.238600
H248	H	-0.552719	0.605662	0.738600
H249	H	-1.097240	0.020697	0.271569
H250	H	-0.597240	0.520697	0.771569
O251	O	-0.895901	0.277101	-0.142436
O252	O	-0.395901	0.777101	0.357564
C253	C	-0.896739	0.225329	-0.206221
C254	C	-0.396739	0.725329	0.293779
H255	H	-0.921559	0.172225	-0.185014
H256	H	-0.421559	0.672225	0.314986
H257	H	-0.933147	0.253000	-0.256739
H258	H	-0.433147	0.753000	0.243261
H259	H	-0.836189	0.208898	-0.228488
H260	H	-0.336189	0.708898	0.271512
H261	H	-0.283433	0.025227	0.000124
H262	H	0.216567	0.525227	0.500124
O263	O	-0.135579	0.038516	0.000164
O264	O	0.364421	0.538516	0.500164
C265	C	-0.195417	0.098563	0.000152
C266	C	0.304583	0.598563	0.500152
H267	H	-0.249009	0.077449	0.025249
H268	H	0.250991	0.577449	0.525249
H269	H	-0.179004	0.147159	0.038649
H270	H	0.320996	0.647159	0.538649
H271	H	-0.206626	0.119638	-0.063449
H272	H	0.293374	0.619638	0.436551
