data_functionalizedCrystal
_audit_creation_method	'MofGen! by Chris Wilmer'
_symmetry_space_group_name_H-M	'P1'
_symmetry_Int_Tables_number	1
_symmetry_cell_setting	triclinic
loop_
_symmetry_equiv_pos_as_xyz
  x,y,z
_cell_length_a	9.730223
_cell_length_b	10.654550
_cell_length_c	10.654551
_cell_angle_alpha	95.514820
_cell_angle_beta	89.997362
_cell_angle_gamma	90.000043
loop_
_atom_site_label
_atom_site_type_symbol
_atom_site_fract_x
_atom_site_fract_y
_atom_site_fract_z
O1	O	-0.114181	-1.667840	0.176399
O2	O	0.385819	-1.167840	0.676399
O3	O	-0.114206	-1.302361	0.193205
O4	O	0.385794	-0.802361	0.693205
O5	O	-0.114190	-1.493503	0.002062
O6	O	0.385810	-0.993503	0.502062
O7	O	-0.114197	-1.476698	0.367541
O8	O	0.385803	-0.976698	0.867541
O9	O	0.114390	-1.493490	0.002057
O10	O	0.614390	-0.993490	0.502057
O11	O	0.114374	-1.302349	0.193199
O12	O	0.614374	-0.802349	0.693199
O13	O	0.114398	-1.667827	0.176393
O14	O	0.614398	-1.167827	0.676393
Zn15	Zn	0.150678	-1.485086	0.184795
Zn16	Zn	0.650678	-0.985086	0.684795
Zn17	Zn	-0.150486	-1.485103	0.184802
Zn18	Zn	0.349514	-0.985103	0.684802
O19	O	0.114383	-1.476686	0.367535
O20	O	0.614383	-0.976686	0.867535
C21	C	0.000081	-1.255557	0.191968
C22	C	0.500081	-0.755557	0.691968
C23	C	0.000071	-1.116114	0.188276
C24	C	0.500071	-0.616114	0.688276
N25	N	0.356214	-1.485084	0.184790
N26	N	0.856214	-0.985084	0.684790
N27	N	-0.356022	-1.485114	0.184798
N28	N	0.143978	-0.985114	0.684798
C29	C	0.000097	-1.492262	-0.044738
C30	C	0.500097	-0.992262	0.455262
C31	C	0.000091	-1.488570	-0.184181
C32	C	0.500091	-0.988570	0.315819
C33	C	0.428147	-1.569751	0.100188
C34	C	0.928147	-1.069751	0.600188
C35	C	0.572030	-1.569763	0.100189
C36	C	1.072030	-1.069763	0.600189
C37	C	0.572035	-1.400439	0.269404
C38	C	1.072035	-0.900439	0.769404
C39	C	0.428154	-1.400421	0.269396
C40	C	0.928154	-0.900421	0.769396
C41	C	0.000109	-1.714632	0.177630
C42	C	0.500109	-1.214632	0.677630
C43	C	0.000109	-1.854075	0.181322
C44	C	0.500109	-1.354075	0.681322
C45	C	0.000073	-1.036629	0.300818
C46	C	0.500073	-0.536629	0.800818
C47	C	0.000097	-0.905608	0.297341
C48	C	0.500097	-0.405608	0.797341
C49	C	0.000112	-0.933570	0.068772
C50	C	0.500112	-0.433570	0.568772
C51	C	0.000097	-1.064589	0.072249
C52	C	0.500097	-0.564589	0.572249
C53	C	-0.124510	-1.486844	-0.249682
C54	C	0.375490	-0.986844	0.250318
C55	C	-0.124511	-1.483364	-0.380703
C56	C	0.375489	-0.983364	0.119297
C57	C	0.124699	-1.483342	-0.380710
C58	C	0.624699	-0.983342	0.119290
C59	C	0.124699	-1.486813	-0.249691
C60	C	0.624699	-0.986813	0.250309
C61	C	0.000092	-1.477926	0.414336
C62	C	0.500092	-0.977926	0.914336
C63	C	0.000089	-1.481619	0.553779
C64	C	0.500089	-0.981619	1.053779
H65	H	0.369577	-1.638687	0.031295
H66	H	0.869577	-1.138687	0.531295
H67	H	0.000062	-1.078576	0.395294
H68	H	0.500062	-0.578576	0.895294
H69	H	0.000101	-0.840896	0.388984
H70	H	0.500101	-0.340896	0.888984
H71	H	0.000141	-0.891602	-0.025693
H72	H	0.500141	-0.391602	0.474307
Br73	Br	0.669651	-1.684666	-0.014638
Br74	Br	1.169651	-1.184666	0.485362
H75	H	0.000100	-1.129309	-0.019401
H76	H	0.500100	-0.629309	0.480599
H77	H	-0.225974	-1.488271	-0.196348
H78	H	0.274026	-0.988271	0.303652
Br79	Br	0.293813	-1.489135	-0.160786
Br80	Br	0.793813	-0.989135	0.339214
Br81	Br	0.669672	-1.285546	0.384225
Br82	Br	1.169672	-0.785546	0.884225
Br83	Br	0.330520	-1.285499	0.384211
Br84	Br	0.830520	-0.785499	0.884211
H85	H	-0.225973	-1.481955	-0.434027
H86	H	0.274027	-0.981955	0.065973
H87	H	0.226151	-1.481913	-0.434065
H88	H	0.726151	-0.981913	0.065935
