data_functionalizedCrystal
_audit_creation_method	'MofGen! by Chris Wilmer'
_symmetry_space_group_name_H-M	'P1'
_symmetry_Int_Tables_number	1
_symmetry_cell_setting	triclinic
loop_
_symmetry_equiv_pos_as_xyz
  x,y,z
_cell_length_a	16.109301
_cell_length_b	10.654545
_cell_length_c	15.186229
_cell_angle_alpha	89.998599
_cell_angle_beta	89.999006
_cell_angle_gamma	83.973505
loop_
_atom_site_label
_atom_site_type_symbol
_atom_site_fract_x
_atom_site_fract_y
_atom_site_fract_z
O1	O	1.104091	0.161420	-0.073176
O2	O	1.604091	0.661420	0.426824
O3	O	0.862148	0.181508	-0.073187
O4	O	1.362148	0.681508	0.426813
O5	O	0.988682	-0.011350	-0.073181
O6	O	1.488682	0.488650	0.426819
O7	O	0.977557	0.354279	-0.073182
O8	O	1.477557	0.854279	0.426818
O9	O	0.988673	-0.011353	0.073277
O10	O	1.488673	0.488647	0.573277
O11	O	0.862140	0.181506	0.073270
O12	O	1.362140	0.681506	0.573270
O13	O	1.104082	0.161418	0.073282
O14	O	1.604082	0.661418	0.573282
Zn15	Zn	0.983110	0.171461	0.096529
Zn16	Zn	1.483110	0.671461	0.596529
Zn17	Zn	0.983121	0.171465	-0.096435
Zn18	Zn	1.483121	0.671465	0.403565
O19	O	0.977549	0.354276	0.073275
O20	O	1.477549	0.854276	0.573275
C21	C	0.831164	0.180693	0.000040
C22	C	1.331164	0.680693	0.500040
C23	C	0.738854	0.178254	0.000035
C24	C	1.238854	0.678254	0.500035
C25	C	0.987860	-0.058139	0.000046
C26	C	1.487860	0.441861	0.500046
C27	C	0.985416	-0.197549	0.000041
C28	C	1.485416	0.302451	0.500041
C29	C	0.430489	0.284717	0.000050
C30	C	0.930489	0.784717	0.500050
C31	C	0.517223	0.287021	0.000045
C32	C	1.017223	0.787021	0.500045
C33	C	0.535736	0.058200	0.000034
C34	C	1.035736	0.558200	0.500034
C35	C	0.449003	0.055898	0.000033
C36	C	0.949003	0.555898	0.500033
C37	C	0.396382	0.169160	0.000045
C38	C	0.896382	0.669160	0.500045
C39	C	0.569848	0.173766	0.000041
C40	C	1.069848	0.673766	0.500041
C41	C	0.663889	0.176264	0.000036
C42	C	1.163889	0.676264	0.500036
C43	C	0.302335	0.166663	0.000049
C44	C	0.802335	0.666663	0.500049
C45	C	0.985435	-0.197554	-0.159631
C46	C	1.485435	0.302446	0.340369
C47	C	0.984300	-0.263052	-0.239467
C48	C	1.484300	0.236948	0.260533
C49	C	0.982003	-0.394039	-0.239468
C50	C	1.482003	0.105961	0.260532
C51	C	0.980840	-0.459532	-0.159625
C52	C	1.480840	0.040468	0.340375
C53	C	0.981975	-0.394035	-0.079789
C54	C	1.481975	0.105965	0.420211
C55	C	0.984274	-0.263045	-0.079797
C56	C	1.484274	0.236955	0.420203
C57	C	0.981950	-0.394028	0.079881
C58	C	1.481950	0.105972	0.579881
C59	C	0.984253	-0.263042	0.079884
C60	C	1.484253	0.236958	0.579884
C61	C	0.980787	-0.459521	0.159725
C62	C	1.480787	0.040479	0.659725
C63	C	0.981928	-0.394025	0.239562
C64	C	1.481928	0.105975	0.739562
C65	C	0.984226	-0.263030	0.239560
C66	C	1.484226	0.236970	0.739560
C67	C	0.985388	-0.197544	0.159720
C68	C	1.485388	0.302456	0.659720
C69	C	1.135066	0.162233	0.000053
C70	C	1.635066	0.662233	0.500053
C71	C	1.227376	0.164673	0.000052
C72	C	1.727376	0.664673	0.500052
C73	C	0.978370	0.401065	0.000046
C74	C	1.478370	0.901065	0.500046
C75	C	0.980814	0.540475	0.000046
C76	C	1.480814	1.040475	0.500046
N77	N	0.983108	0.171458	0.228222
N78	N	1.483108	0.671458	0.728222
N79	N	0.983129	0.171458	-0.228127
N80	N	1.483129	0.671458	0.271873
C81	C	1.039156	0.086089	0.453948
C82	C	1.539156	0.586089	0.953948
C83	C	1.039159	0.086086	0.546137
C84	C	1.539159	0.586086	1.046137
C85	C	0.927075	0.256831	0.546140
C86	C	1.427075	0.756831	1.046140
C87	C	0.927069	0.256827	0.453952
C88	C	1.427069	0.756827	0.953952
C89	C	0.983114	0.171458	0.407858
C90	C	1.483114	0.671458	0.907858
C91	C	0.983123	0.171459	0.592236
C92	C	1.483123	0.671459	1.092236
C93	C	0.983125	0.171456	0.692192
C94	C	1.483125	0.671456	1.192192
C95	C	0.983111	0.171458	0.307896
C96	C	1.483111	0.671458	0.807896
H97	H	0.387647	0.376942	0.000059
H98	H	0.887647	0.876942	0.500059
C99	C	0.593626	-0.066381	0.000036
C100	C	1.093626	0.433619	0.500036
N101	N	0.637229	-0.160218	0.000043
N102	N	1.137229	0.339782	0.500043
H103	H	0.980975	-0.447358	0.304564
H104	H	1.480975	0.052642	0.804564
H105	H	0.881428	0.326345	0.416424
H106	H	1.381428	0.826345	0.916424
H107	H	1.084791	0.016574	0.416420
H108	H	1.584791	0.516574	0.916420
C109	C	0.987891	-0.053450	0.159710
C110	C	1.487891	0.446550	0.659710
N111	N	0.989765	0.055086	0.159699
N112	N	1.489765	0.555086	0.659699
H113	H	0.544989	0.381119	0.000048
H114	H	1.044989	0.881119	0.500048
H115	H	0.421233	-0.038208	0.000026
H116	H	0.921233	0.461792	0.500026
H117	H	0.987315	-0.090899	-0.159638
H118	H	1.487315	0.409101	0.340362
H119	H	1.084793	0.016570	0.583661
H120	H	1.584793	0.516570	1.083661
C121	C	0.865426	0.350731	0.596852
C122	C	1.365426	0.850731	1.096852
N123	N	0.818991	0.421457	0.635048
N124	N	1.318991	0.921457	1.135048
C125	C	0.985587	-0.191001	-0.327290
C126	C	1.485587	0.308999	0.172710
N127	N	0.986558	-0.136737	-0.393439
N128	N	1.486558	0.363263	0.106561
H129	H	0.978960	-0.566187	-0.159633
H130	H	1.478960	-0.066187	0.340367
C131	C	0.980756	-0.466089	-0.327291
C132	C	1.480756	0.033911	0.172709
N133	N	0.979820	-0.520356	-0.393439
N134	N	1.479820	-0.020356	0.106561
C135	C	0.978246	-0.603608	0.159721
C136	C	1.478246	-0.103608	0.659721
N137	N	0.976330	-0.712136	0.159720
N138	N	1.476330	-0.212136	0.659720
H139	H	0.985138	-0.209707	0.304572
H140	H	1.485138	0.290293	0.804572
