data_functionalizedCrystal
_audit_creation_method	'MofGen! by Chris Wilmer'
_symmetry_space_group_name_H-M	'P1'
_symmetry_Int_Tables_number	1
_symmetry_cell_setting	triclinic
loop_
_symmetry_equiv_pos_as_xyz
  x,y,z
_cell_length_a	10.540510
_cell_length_b	10.540510
_cell_length_c	12.996460
_cell_angle_alpha	89.996346
_cell_angle_beta	89.994188
_cell_angle_gamma	84.513311
loop_
_atom_site_label
_atom_site_type_symbol
_atom_site_fract_x
_atom_site_fract_y
_atom_site_fract_z
O1	O	1.685892	0.178725	-0.085567
O2	O	2.185892	0.678725	0.414433
O3	O	1.316472	0.195621	-0.085567
O4	O	1.816472	0.695621	0.414433
O5	O	1.509630	0.002463	-0.085567
O6	O	2.009630	0.502463	0.414433
O7	O	1.492734	0.371883	-0.085568
O8	O	1.992734	0.871883	0.414432
O9	O	1.509609	0.002452	0.085567
O10	O	2.009609	0.502452	0.585567
O11	O	1.316452	0.195610	0.085567
O12	O	1.816452	0.695610	0.585567
O13	O	1.685872	0.178714	0.085567
O14	O	2.185872	0.678714	0.585567
Cu15	Cu	1.501160	0.187161	0.101193
Cu16	Cu	2.001160	0.687161	0.601193
Cu17	Cu	1.501184	0.187174	-0.101193
Cu18	Cu	2.001184	0.687174	0.398807
O19	O	1.492714	0.371872	0.085566
O20	O	1.992714	0.871872	0.585566
C21	C	1.269159	0.194356	-0.000000
C22	C	1.769159	0.694356	0.500000
C23	C	1.128209	0.190589	-0.000001
C24	C	1.628209	0.690589	0.499999
C25	C	0.910739	0.324775	-0.000394
C26	C	1.410739	0.824775	0.499606
C27	C	1.057334	0.328793	-0.000002
C28	C	1.557334	0.828793	0.499998
C29	C	1.083445	0.119836	0.097723
C30	C	1.583445	0.619836	0.597723
C31	C	0.936685	0.116797	0.097799
C32	C	1.436685	0.616797	0.597799
C33	C	0.936902	0.113931	-0.096813
C34	C	1.436902	0.613931	0.403187
C35	C	1.083242	0.120486	-0.098098
C36	C	1.583242	0.620486	0.401902
C37	C	1.508361	-0.044846	-0.000002
C38	C	2.008361	0.455154	0.499998
C39	C	1.504594	-0.185795	-0.000008
C40	C	2.004594	0.314205	0.499992
C41	C	1.638780	-0.403265	0.000384
C42	C	2.138780	0.096735	0.500384
C43	C	1.642798	-0.256670	-0.000007
C44	C	2.142798	0.243330	0.499993
C45	C	1.433858	-0.230540	-0.097732
C46	C	1.933858	0.269460	0.402268
C47	C	1.430819	-0.377301	-0.097808
C48	C	1.930819	0.122699	0.402192
C49	C	1.427918	-0.377121	0.096803
C50	C	1.927918	0.122879	0.596803
C51	C	1.434473	-0.230781	0.098089
C52	C	1.934473	0.269219	0.598089
C53	C	1.733185	0.179979	-0.000002
C54	C	2.233185	0.679979	0.499998
C55	C	1.874135	0.183746	-0.000009
C56	C	2.374135	0.683746	0.499991
C57	C	1.493983	0.419181	-0.000001
C58	C	1.993983	0.919181	0.499999
C59	C	1.497750	0.560130	-0.000001
C60	C	1.997750	1.060130	0.499999
N61	N	1.501152	0.187151	0.243540
N62	N	2.001152	0.687151	0.743540
N63	N	1.501202	0.187174	-0.243540
N64	N	2.001202	0.687174	0.256460
C65	C	1.501182	0.187175	0.663354
C66	C	2.001182	0.687175	1.163354
C67	C	1.501170	0.187173	0.546549
C68	C	2.001170	0.687173	1.046549
C69	C	1.501168	0.187164	0.453450
C70	C	2.001168	0.687164	0.953450
C71	C	1.501154	0.187160	0.336638
C72	C	2.001154	0.687160	0.836638
H73	H	1.086683	0.384145	-0.070057
H74	H	1.586683	0.884145	0.429943
F75	F	0.906637	-0.018307	0.103647
F76	F	1.406637	0.481693	0.603647
H77	H	1.333573	-0.181704	0.103990
H78	H	1.833573	0.318296	0.603990
F79	F	1.708765	-0.460129	-0.090701
F80	F	2.208765	0.039871	0.409299
H81	H	1.692614	-0.445231	0.070467
H82	H	2.192614	0.054769	0.570467
F83	F	1.715114	-0.218322	0.091567
F84	F	2.215114	0.281678	0.591567
H85	H	1.132322	0.019588	-0.103999
H86	H	1.632322	0.519588	0.396001
H87	H	1.698482	-0.228266	-0.070180
H88	H	2.198482	0.271734	0.429820
H89	H	1.114286	0.168964	0.170449
H90	H	1.614286	0.668964	0.670449
H91	H	0.914759	0.010168	-0.097473
H92	H	1.414759	0.510168	0.402527
F93	F	1.292291	-0.406060	0.097666
F94	F	1.792291	0.093940	0.597666
H95	H	1.479177	-0.417517	-0.170858
H96	H	1.979177	0.082483	0.329142
F97	F	0.855907	0.395163	-0.091998
F98	F	1.355907	0.895163	0.408002
H99	H	0.867218	0.378303	0.069292
H100	H	1.367218	0.878303	0.569292
F101	F	1.295713	-0.407347	-0.103611
F102	F	1.795713	0.092653	0.396389
F103	F	1.094448	0.401561	0.091719
F104	F	1.594448	0.901561	0.591719
H105	H	0.894358	0.157519	-0.170882
H106	H	1.394358	0.657519	0.329118
F107	F	1.501739	-0.193388	0.192587
F108	F	2.001739	0.306612	0.692587
H109	H	1.332115	-0.183140	-0.101366
H110	H	1.832115	0.316860	0.398634
H111	H	0.896454	0.165141	0.170848
H112	H	1.396454	0.665141	0.670848
F113	F	1.498088	-0.190216	-0.192792
F114	F	1.998088	0.309784	0.307208
H115	H	1.471829	-0.419313	0.170878
H116	H	1.971829	0.080687	0.670878
H117	H	1.130845	0.018093	0.101358
H118	H	1.630845	0.518093	0.601358
H119	H	1.111864	0.171966	-0.170393
H120	H	1.611864	0.671966	0.329607
