data_functionalizedCrystal
_audit_creation_method	'MofGen! by Chris Wilmer'
_symmetry_space_group_name_H-M	'P1'
_symmetry_Int_Tables_number	1
_symmetry_cell_setting	triclinic
loop_
_symmetry_equiv_pos_as_xyz
  x,y,z
_cell_length_a	13.897449
_cell_length_b	16.625545
_cell_length_c	13.897441
_cell_angle_alpha	89.968716
_cell_angle_beta	90.020733
_cell_angle_gamma	89.974684
loop_
_atom_site_label
_atom_site_type_symbol
_atom_site_fract_x
_atom_site_fract_y
_atom_site_fract_z
Zn1	Zn	1.474660	0.320948	0.545377
Zn2	Zn	1.807993	0.654282	0.878710
Zn3	Zn	2.141327	0.987615	1.212043
Zn4	Zn	1.474536	0.455799	0.384076
Zn5	Zn	1.807870	0.789132	0.717409
Zn6	Zn	2.141203	1.122465	1.050743
Zn7	Zn	1.313349	0.320987	0.384095
Zn8	Zn	1.646683	0.654320	0.717428
Zn9	Zn	1.980016	0.987653	1.050762
Zn10	Zn	1.313313	0.455746	0.545329
Zn11	Zn	1.646646	0.789079	0.878662
Zn12	Zn	1.979980	1.122412	1.211995
O13	O	1.393965	0.388370	0.464719
O14	O	1.727298	0.721703	0.798052
O15	O	2.060631	1.055037	1.131386
O16	O	1.609625	0.338843	0.523992
O17	O	1.942959	0.672176	0.857325
O18	O	2.276292	1.005509	1.190659
O19	O	1.453118	0.437954	0.249097
O20	O	1.786451	0.771287	0.582430
O21	O	2.119784	1.104621	0.915763
O22	O	1.334814	0.208149	0.405517
O23	O	1.668148	0.541483	0.738851
O24	O	2.001481	0.874816	1.072184
O25	O	1.609534	0.437917	0.405485
O26	O	1.942868	0.771250	0.738818
O27	O	2.276201	1.104583	1.072152
O28	O	1.453329	0.208121	0.524010
O29	O	1.786662	0.541454	0.857344
O30	O	2.119995	0.874788	1.190677
O31	O	1.334694	0.338908	0.249111
O32	O	1.668028	0.672241	0.582444
O33	O	2.001361	1.005575	0.915777
O34	O	1.178363	0.338857	0.405471
O35	O	1.511696	0.672190	0.738804
O36	O	1.845029	1.005523	1.072137
O37	O	1.334753	0.437826	0.680317
O38	O	1.668086	0.771160	1.013650
O39	O	2.001419	1.104493	1.346983
O40	O	1.178336	0.437864	0.523928
O41	O	1.511670	0.771197	0.857262
O42	O	1.845003	1.104530	1.190595
O43	O	1.453294	0.338791	0.680352
O44	O	1.786627	0.672125	1.013685
O45	O	2.119960	1.005458	1.347019
O46	O	1.453083	0.568624	0.405439
O47	O	1.786416	0.901957	0.738772
O48	O	2.119749	1.235291	1.072105
O49	O	1.334633	0.568585	0.523910
O50	O	1.667966	0.901918	0.857243
O51	O	2.001299	1.235252	1.190577
C52	C	1.143350	0.388359	0.464697
C53	C	1.476684	0.721692	0.798030
C54	C	1.810017	1.055026	1.131364
C55	C	1.036136	0.388374	0.464711
C56	C	1.369470	0.721707	0.798044
C57	C	1.702803	1.055041	1.131377
C58	C	0.839841	0.388377	0.464736
C59	C	1.173175	0.721710	0.798069
C60	C	1.506508	1.055043	1.131402
C61	C	0.949074	0.388373	0.464719
C62	C	1.282407	0.721706	0.798052
C63	C	1.615740	1.055039	1.131386
C64	C	1.393867	0.597861	0.464688
C65	C	1.727200	0.931194	0.798021
C66	C	2.060533	1.264527	1.131355
C67	C	1.393913	0.687482	0.464707
C68	C	1.727246	1.020815	0.798040
C69	C	2.060579	1.354149	1.131374
C70	C	1.394070	1.015657	0.464822
C71	C	1.727404	1.348991	0.798156
C72	C	2.060737	1.682324	1.131489
C73	C	1.394023	0.924349	0.464793
C74	C	1.727357	1.257682	0.798126
C75	C	2.060690	1.591016	1.131460
C76	C	1.393991	0.851573	0.464764
C77	C	1.727324	1.184906	0.798098
C78	C	2.060657	1.518239	1.131431
C79	C	1.393945	0.760258	0.464736
C80	C	1.727279	1.093592	0.798069
C81	C	2.060612	1.426925	1.131403
C82	C	1.645558	0.388381	0.464742
C83	C	1.978891	0.721715	0.798075
C84	C	2.312224	1.055048	1.131408
C85	C	1.752772	0.388386	0.464751
C86	C	2.086105	0.721719	0.798085
C87	C	2.419438	1.055053	1.131418
C88	C	1.394033	0.388299	0.716312
C89	C	1.727366	0.721632	1.049646
C90	C	2.060700	1.054965	1.382979
C91	C	1.394062	0.388268	0.823526
C92	C	1.727396	0.721602	1.156860
C93	C	2.060729	1.054935	1.490193
C94	C	1.394081	1.178061	0.464783
C95	C	1.727415	1.511394	0.798116
C96	C	2.060748	1.844728	1.131449
C97	C	1.394110	1.088440	0.464839
C98	C	1.727443	1.421773	0.798172
C99	C	2.060777	1.755106	1.131505
C100	C	1.393952	0.388383	0.214105
C101	C	1.727285	0.721716	0.547438
C102	C	2.060619	1.055049	0.880771
C103	C	1.394110	0.388186	0.106891
C104	C	1.727443	0.721519	0.440225
C105	C	2.060776	1.054853	0.773558
C106	C	1.394088	0.388214	1.019821
C107	C	1.727422	0.721547	1.353155
C108	C	2.060755	1.054880	1.686488
C109	C	1.394071	0.388246	0.910589
C110	C	1.727404	0.721580	1.243922
C111	C	2.060738	1.054913	1.577256
