data_functionalizedCrystal
_audit_creation_method	'MofGen! by Chris Wilmer'
_symmetry_space_group_name_H-M	'P1'
_symmetry_Int_Tables_number	1
_symmetry_cell_setting	triclinic
loop_
_symmetry_equiv_pos_as_xyz
  x,y,z
_cell_length_a	10.686220
_cell_length_b	18.050589
_cell_length_c	10.686551
_cell_angle_alpha	94.403861
_cell_angle_beta	89.691918
_cell_angle_gamma	94.409750
loop_
_atom_site_label
_atom_site_type_symbol
_atom_site_fract_x
_atom_site_fract_y
_atom_site_fract_z
Zn1	Zn	1.972217	-0.181059	0.562396
Zn2	Zn	2.305550	0.152274	0.895729
Zn3	Zn	2.638884	0.485608	1.229062
Zn4	Zn	1.955936	-0.315479	0.352644
Zn5	Zn	2.289269	0.017854	0.685978
Zn6	Zn	2.622602	0.351188	1.019311
Zn7	Zn	1.746328	-0.200057	0.368714
Zn8	Zn	2.079662	0.133276	0.702048
Zn9	Zn	2.412995	0.466610	1.035381
Zn10	Zn	1.762366	-0.313974	0.578422
Zn11	Zn	2.095700	0.019359	0.911755
Zn12	Zn	2.429033	0.352693	1.245089
O13	O	1.859212	-0.252642	0.465544
O14	O	2.192545	0.080691	0.798877
O15	O	2.525878	0.414024	1.132211
O16	O	2.145602	-0.191569	0.521139
O17	O	2.478935	0.141764	0.854473
O18	O	2.812269	0.475098	1.187806
O19	O	1.914605	-0.308749	0.179231
O20	O	2.247938	0.024585	0.512564
O21	O	2.581271	0.357918	0.845898
O22	O	1.776395	-0.093607	0.394425
O23	O	2.109728	0.239727	0.727758
O24	O	2.443061	0.573060	1.061091
O25	O	2.133640	-0.290327	0.367036
O26	O	2.466973	0.043006	0.700369
O27	O	2.800307	0.376340	1.033703
O28	O	1.942354	-0.079649	0.536722
O29	O	2.275688	0.253684	0.870055
O30	O	2.609021	0.587018	1.203388
O31	O	1.760607	-0.223949	0.191038
O32	O	2.093941	0.109385	0.524371
O33	O	2.427274	0.442718	0.857704
O34	O	1.572911	-0.222489	0.409965
O35	O	1.906244	0.110844	0.743298
O36	O	2.239578	0.444177	1.076631
O37	O	1.803729	-0.287762	0.751841
O38	O	2.137063	0.045571	1.085174
O39	O	2.470396	0.378905	1.418508
O40	O	1.584694	-0.306184	0.564036
O41	O	1.918027	0.027150	0.897369
O42	O	2.251361	0.360483	1.230703
O43	O	1.957906	-0.190110	0.740067
O44	O	2.291239	0.143224	1.073400
O45	O	2.624573	0.476557	1.406733
O46	O	1.930156	-0.419209	0.382576
O47	O	2.263490	-0.085876	0.715909
O48	O	2.596823	0.247457	1.049243
O49	O	1.787942	-0.418104	0.548454
O50	O	2.121275	-0.084770	0.881787
O51	O	2.454608	0.248563	1.215120
C52	C	1.533286	-0.266235	0.490484
C53	C	1.866619	0.067098	0.823817
C54	C	2.199952	0.400432	1.157151
C55	C	1.393856	-0.272067	0.501183
C56	C	1.727189	0.061267	0.834516
C57	C	2.060522	0.394600	1.167850
C58	C	1.859059	-0.445602	0.465535
C59	C	2.192392	-0.112268	0.798868
C60	C	2.525725	0.221065	1.132202
C61	C	1.859111	-0.528144	0.465564
C62	C	2.192445	-0.194810	0.798897
C63	C	2.525778	0.138523	1.132231
C64	C	1.781855	-0.727018	0.555733
C65	C	2.115188	-0.393685	0.889066
C66	C	2.448522	-0.060351	1.222399
C67	C	1.742482	-0.783311	0.443604
C68	C	2.075816	-0.449978	0.776938
C69	C	2.409149	-0.116645	1.110271
C70	C	1.859236	-0.679268	0.465571
C71	C	2.192569	-0.345935	0.798904
C72	C	2.525902	-0.012602	1.132238
C73	C	1.898671	-0.770054	0.577708
C74	C	2.232004	-0.436720	0.911041
C75	C	2.565338	-0.103387	1.244375
C76	C	1.859354	-0.825247	0.465588
C77	C	2.192688	-0.491914	0.798921
C78	C	2.526021	-0.158580	1.132255
C79	C	1.819798	-0.734480	0.353387
C80	C	2.153132	-0.401146	0.686720
C81	C	2.486465	-0.067813	1.020053
C82	C	1.976046	-0.721212	0.487563
C83	C	2.309379	-0.387878	0.820896
C84	C	2.642713	-0.054545	1.154230
C85	C	1.936711	-0.777484	0.375352
C86	C	2.270044	-0.444151	0.708686
C87	C	2.603377	-0.110818	1.042019
C88	C	1.859164	-0.595174	0.465563
C89	C	2.192498	-0.261840	0.798896
C90	C	2.525831	0.071493	1.132230
C91	C	1.859425	-0.909341	0.465583
C92	C	2.192758	-0.576007	0.798916
C93	C	2.526092	-0.242674	1.132250
C94	C	2.186411	-0.238997	0.440508
C95	C	2.519744	0.094337	0.773841
C96	C	2.853077	0.427670	1.107174
C97	C	2.325843	-0.233182	0.429838
C98	C	2.659176	0.100151	0.763172
C99	C	2.992510	0.433485	1.096505
C100	C	1.884423	-0.236649	0.792743
C101	C	2.217756	0.096685	1.126077
C102	C	2.551089	0.430018	1.459410
C103	C	1.895166	-0.229833	0.932176
C104	C	2.228500	0.103500	1.265510
C105	C	2.561833	0.436833	1.598843
C106	C	1.859402	-0.058926	0.465578
C107	C	2.192735	0.274407	0.798912
C108	C	2.526068	0.607740	1.132245
C109	C	1.859483	0.023624	0.465593
C110	C	2.192816	0.356957	0.798926
C111	C	2.526149	0.690290	1.132259
C112	C	1.834171	-0.268517	0.139612
C113	C	2.167504	0.064816	0.472945
C114	C	2.500838	0.398150	0.806279
C115	C	1.823671	-0.275113	0.000161
C116	C	2.157004	0.058220	0.333495
C117	C	2.490338	0.391554	0.666828
H118	H	1.374283	-0.195430	0.360571
H119	H	1.707616	0.137903	0.693904
H120	H	2.040950	0.471236	1.027237
H121	H	1.345409	-0.309826	0.570447
H122	H	1.678742	0.023507	0.903781
H123	H	2.012076	0.356841	1.237114
H124	H	1.716305	-0.704886	0.631887
H125	H	2.049638	-0.371552	0.965221
H126	H	2.382972	-0.038219	1.298554
Br127	Br	1.707954	-0.348424	0.919387
Br128	Br	2.041288	-0.015090	1.252720
Br129	Br	2.374621	0.318243	1.586054
H130	H	1.643756	-0.810397	0.425021
H131	H	1.977089	-0.477064	0.758355
H132	H	2.310423	-0.143730	1.091688
Br133	Br	1.764101	-0.708219	0.195302
Br134	Br	2.097435	-0.374886	0.528636
Br135	Br	2.430768	-0.041552	0.861969
H136	H	2.002194	-0.799490	0.299031
H137	H	2.335527	-0.466157	0.632364
H138	H	2.668860	-0.132824	0.965698
H139	H	2.074755	-0.694126	0.506203
H140	H	2.408088	-0.360793	0.839536
H141	H	2.741421	-0.027459	1.172869
Br142	Br	2.010909	-0.156531	1.012953
Br143	Br	2.344243	0.176803	1.346286
Br144	Br	2.677576	0.510136	1.679620
H145	H	1.931977	-0.785908	0.672534
H146	H	2.265311	-0.452575	1.005867
H147	H	2.598644	-0.119242	1.339200
