data_functionalizedCrystal
_audit_creation_method	'MofGen! by Chris Wilmer'
_symmetry_space_group_name_H-M	'P1'
_symmetry_Int_Tables_number	1
_symmetry_cell_setting	triclinic
loop_
_symmetry_equiv_pos_as_xyz
  x,y,z
_cell_length_a	14.971487
_cell_length_b	26.210047
_cell_length_c	14.971486
_cell_angle_alpha	89.995701
_cell_angle_beta	96.385734
_cell_angle_gamma	89.997125
loop_
_atom_site_label
_atom_site_type_symbol
_atom_site_fract_x
_atom_site_fract_y
_atom_site_fract_z
O1	O	-1.186952	0.042356	0.116553
O2	O	-0.926552	0.042373	0.130511
O3	O	-1.063731	0.042361	-0.006668
O4	O	-1.049772	0.042369	0.253732
O5	O	-1.063704	-0.042497	-0.006647
O6	O	-0.926525	-0.042485	0.130532
O7	O	-1.186925	-0.042502	0.116574
Cu8	Cu	-1.056723	-0.050242	0.123555
Cu9	Cu	-1.056754	0.050113	0.123530
O10	O	-1.049746	-0.042489	0.253753
C11	C	-0.893214	-0.000054	0.129897
C12	C	-0.793917	-0.000047	0.128026
C13	C	-0.736691	-0.000045	0.208615
C14	C	-0.643392	-0.000051	0.206852
C15	C	-0.607320	-0.000057	0.124499
C16	C	-0.664552	-0.000061	0.043903
C17	C	-0.757850	-0.000058	0.045668
C18	C	-0.470090	-0.000065	0.040232
C19	C	-0.376786	-0.000067	0.038467
C20	C	-0.355632	-0.000059	0.201416
C21	C	-0.448929	-0.000056	0.203181
C22	C	-0.506156	-0.000059	0.122585
N23	N	-1.056707	-0.120825	0.123572
C24	C	-1.117491	-0.473345	0.062801
C25	C	-1.117511	-0.687004	0.062788
O26	O	-1.169157	-0.714630	0.011122
N27	N	-1.056759	-0.713719	0.123510
C28	C	-0.995994	-0.687017	0.184236
O29	O	-0.944315	-0.714643	0.235877
C30	C	-0.995970	-0.473360	0.184243
C31	C	-1.056732	-0.446647	0.123523
C32	C	-1.178247	-0.446632	0.002085
C33	C	-1.178245	-0.393221	0.002092
C34	C	-1.117486	-0.366522	0.062815
C35	C	-1.056730	-0.393235	0.123530
C36	C	-0.935202	-0.446658	0.244963
C37	C	-0.935200	-0.393240	0.244958
C38	C	-0.995962	-0.366528	0.184239
C39	C	-0.995969	-0.313125	0.184260
N40	N	-1.056721	-0.286410	0.123538
C41	C	-1.117480	-0.313108	0.062815
C42	C	-0.996011	-0.799190	0.184229
C43	C	-0.996018	-0.852605	0.184228
C44	C	-1.117534	-0.852587	0.062779
C45	C	-1.117531	-0.799172	0.062785
C46	C	-1.056763	-0.772475	0.123507
C47	C	-1.117471	-0.200940	0.062835
C48	C	-1.117466	-0.147524	0.062850
C49	C	-0.995947	-0.147546	0.184295
C50	C	-0.995955	-0.200957	0.184284
C51	C	-1.056720	-0.227653	0.123546
O52	O	-0.944344	-0.285466	0.235892
O53	O	-1.169138	-0.285473	0.011168
C54	C	-1.117493	-0.526757	0.062794
C55	C	-1.056737	-0.553470	0.123509
C56	C	-0.995978	-0.526771	0.184232
C57	C	-1.056744	-0.606884	0.123509
C58	C	-1.117502	-0.633582	0.062786
C59	C	-1.178254	-0.606866	0.002064
C60	C	-1.178252	-0.553455	0.002071
C61	C	-0.935227	-0.553487	0.244954
C62	C	-0.935234	-0.606898	0.244942
C63	C	-0.995993	-0.633597	0.184220
C64	C	-0.220263	-0.000071	0.117187
C65	C	-0.319560	-0.000065	0.119056
C66	C	-1.063094	-0.000068	-0.039982
C67	C	-1.061223	-0.000068	-0.139279
N68	N	-1.056777	0.120697	0.123506
C69	C	-1.141812	-0.000073	-0.196504
C70	C	-1.140049	-0.000068	-0.289804
C71	C	-1.057696	-0.000061	-0.325876
C72	C	-0.977100	-0.000054	-0.268644
C73	C	-0.978864	-0.000055	-0.175346
C74	C	-0.973429	-0.000051	-0.463106
C75	C	-0.971665	-0.000051	-0.556411
C76	C	-1.134614	-0.000064	-0.577564
C77	C	-1.136378	-0.000066	-0.484266
C78	C	-1.055782	-0.000060	-0.427040
C79	C	-1.050383	-0.000059	0.287067
C80	C	-1.052254	-0.000057	0.386364
H81	H	-0.478296	-0.000047	0.270240
H82	H	-0.885757	-0.628644	0.294396
C83	C	-0.909217	-0.000048	-0.022932
C84	C	-0.890279	-0.000049	-0.112439
H85	H	-0.854525	-0.000039	0.015902
H86	H	-0.942963	-0.029641	-0.011988
H87	H	-0.942995	0.029543	-0.012005
H88	H	-0.856507	-0.029642	-0.123368
H89	H	-0.856518	0.029548	-0.123388
H90	H	-1.205673	-0.000074	-0.336394
H91	H	-1.167007	-0.874334	0.013338
C92	C	-0.747371	0.043583	0.348039
C93	C	-0.776334	-0.000039	0.299144
H94	H	-0.771839	0.043583	0.403932
H95	H	-0.767016	0.073169	0.314848
H96	H	-0.683616	0.043576	0.358511
H97	H	-0.840090	-0.000029	0.288666
H98	H	-0.756695	-0.029632	0.332343
C99	C	-0.526201	0.043577	0.299381
C100	C	-0.580491	-0.000043	0.295439
H101	H	-0.487366	0.043580	0.354073
H102	H	-0.563039	0.073164	0.296669
H103	H	-0.491367	0.043564	0.250081
H104	H	-0.615330	-0.000028	0.344736
H105	H	-0.543648	-0.029638	0.298160
H106	H	-0.309033	-0.000059	0.267040
C107	C	-0.880604	0.043576	-0.361305
C108	C	-0.886577	-0.000046	-0.308296
H109	H	-0.824719	0.043577	-0.385787
H110	H	-0.884683	0.073162	-0.325352
H111	H	-0.928354	0.043566	-0.408736
H112	H	-0.838830	-0.000035	-0.260861
H113	H	-0.882489	-0.029640	-0.344251
H114	H	-0.907799	-0.000045	-0.416515
C115	C	-0.815083	-0.398627	0.365004
C116	C	-0.868405	-0.363895	0.311713
H117	H	-0.773853	-0.380510	0.406218
H118	H	-0.782877	-0.419457	0.327712
H119	H	-0.852358	-0.419463	0.397233
H120	H	-0.831131	-0.343062	0.279478
H121	H	-0.900613	-0.343057	0.349009
H122	H	-0.516682	-0.000069	-0.025398
H123	H	-0.347419	-0.000072	-0.028592
C124	C	-0.875906	-0.804584	0.304282
C125	C	-0.929217	-0.769849	0.250988
H126	H	-0.834676	-0.786471	0.345501
H127	H	-0.843701	-0.825416	0.266993
H128	H	-0.913189	-0.825418	0.336507
H129	H	-0.891934	-0.749017	0.218758
H130	H	-0.961424	-0.749009	0.288282
H131	H	-1.166948	-0.125776	0.013404
H132	H	-0.904606	-0.000053	-0.585777
C133	C	-0.571913	0.043557	-0.052624
C134	C	-0.624904	-0.000065	-0.046622
H135	H	-0.547443	0.043556	-0.108515
H136	H	-0.524483	0.043555	-0.004886
H137	H	-0.607883	0.073146	-0.048556
H138	H	-0.588933	-0.029654	-0.050684
H139	H	-0.672342	-0.000067	-0.094373
H140	H	-1.166950	-0.222670	0.013376
C141	C	-0.769394	-0.000057	-0.115576
C142	C	-0.820756	-0.000056	-0.042918
H143	H	-0.808231	-0.000054	-0.170266
H144	H	-0.732567	-0.029649	-0.112870
H145	H	-0.732562	0.029535	-0.112875
H146	H	-0.857583	-0.029650	-0.045616
H147	H	-0.857598	0.029539	-0.045626
C148	C	-1.298345	-0.398586	-0.117961
C149	C	-1.245027	-0.363862	-0.064664
H150	H	-1.339568	-0.380462	-0.159181
H151	H	-1.330557	-0.419416	-0.080674
H152	H	-1.261066	-0.419422	-0.150185
H153	H	-1.282305	-0.343029	-0.032435
H154	H	-1.212812	-0.343023	-0.101956
H155	H	-1.227724	-0.468365	-0.047367
C156	C	-1.237641	-0.804533	-0.057260
C157	C	-1.184314	-0.769812	-0.003967
H158	H	-1.278866	-0.786408	-0.098476
H159	H	-1.269851	-0.825363	-0.019970
H160	H	-1.200368	-0.825370	-0.089489
H161	H	-1.221587	-0.748977	0.028268
H162	H	-1.152102	-0.748974	-0.041262
C163	C	-0.874258	-0.261035	0.203480
C164	C	-0.929173	-0.230327	0.251028
H165	H	-0.833030	-0.279166	0.244683
H166	H	-0.842051	-0.240192	0.166208
H167	H	-0.910453	-0.284577	0.167314
H168	H	-0.892978	-0.206782	0.287189
H169	H	-0.961383	-0.251172	0.288316
H170	H	-0.885724	-0.468401	0.294406
C171	C	-0.943573	-0.131098	0.339055
C172	C	-0.929163	-0.118190	0.251037
H173	H	-0.902343	-0.112971	0.380254
H174	H	-0.934869	-0.166727	0.347745
H175	H	-1.003278	-0.122342	0.348861
H176	H	-0.869461	-0.126950	0.241229
H177	H	-0.937860	-0.082553	0.242344
C178	C	-1.238336	0.043539	-0.103859
C179	C	-1.232337	-0.000081	-0.156854
H180	H	-1.294222	0.043533	-0.079379
H181	H	-1.234274	0.073126	-0.139820
H182	H	-1.190588	0.043535	-0.056426
H183	H	-1.280082	-0.000075	-0.204291
H184	H	-1.236408	-0.029675	-0.120891
C185	C	-1.227192	0.043562	-0.694746
C186	C	-1.223211	-0.000065	-0.640459
H187	H	-1.281889	0.043561	-0.733571
H188	H	-1.177903	0.043564	-0.729581
H189	H	-1.224499	0.073148	-0.657898
H190	H	-1.225897	-0.029651	-0.677306
H191	H	-1.272513	-0.000071	-0.605620
C192	C	-0.815126	-0.558880	0.365003
C193	C	-0.868441	-0.524145	0.311712
H194	H	-0.773900	-0.540766	0.406225
H195	H	-0.782917	-0.579708	0.327712
H196	H	-0.852407	-0.579717	0.397224
H197	H	-0.831160	-0.503310	0.279484
H198	H	-0.900652	-0.503308	0.349007
H199	H	-1.227729	-0.531709	-0.047373
C200	C	-1.232197	-0.688744	-0.051862
C201	C	-1.245038	-0.636221	-0.064687
H202	H	-1.273419	-0.706866	-0.093076
H203	H	-1.241977	-0.697496	0.007843
H204	H	-1.172489	-0.697490	-0.061671
H205	H	-1.304744	-0.627474	-0.054872
H206	H	-1.235265	-0.627465	-0.124406
C207	C	-1.297270	-0.000077	-0.514542
C208	C	-1.226901	-0.000074	-0.444613
H209	H	-1.353155	-0.000079	-0.490060
H210	H	-1.293187	-0.029666	-0.550486
H211	H	-1.293200	0.029518	-0.550497
H212	H	-1.230968	-0.029671	-0.408662
H213	H	-1.230986	0.029518	-0.408654
H214	H	-0.946550	-0.874351	0.233681
