data_functionalizedCrystal
_audit_creation_method	'MofGen! by Chris Wilmer'
_symmetry_space_group_name_H-M	'P1'
_symmetry_Int_Tables_number	1
_symmetry_cell_setting	triclinic
loop_
_symmetry_equiv_pos_as_xyz
  x,y,z
_cell_length_a	16.109318
_cell_length_b	8.965430
_cell_length_c	16.109301
_cell_angle_alpha	89.997898
_cell_angle_beta	96.534978
_cell_angle_gamma	89.993507
loop_
_atom_site_label
_atom_site_type_symbol
_atom_site_fract_x
_atom_site_fract_y
_atom_site_fract_z
O1	O	1.103114	0.123920	-0.106932
O2	O	0.861054	0.123951	-0.120216
O3	O	0.988734	0.123919	0.007457
O4	O	0.975435	0.123951	-0.234605
O5	O	0.988740	-0.124160	0.007453
O6	O	0.861060	-0.124128	-0.120220
O7	O	1.103120	-0.124159	-0.106936
Cu8	Cu	0.982091	-0.146795	-0.113578
Cu9	Cu	0.982084	0.146587	-0.113574
O10	O	0.975441	-0.124127	-0.234608
C11	C	0.830083	-0.000085	-0.119677
C12	C	0.737788	-0.000074	-0.118057
N13	N	0.982102	-0.353144	-0.113581
C14	C	0.438711	0.135127	-0.112819
C15	C	0.525433	0.135137	-0.114337
C16	C	0.525458	-0.135333	-0.114330
C17	C	0.438739	-0.135340	-0.112806
C18	C	0.395367	-0.000106	-0.112056
C19	C	0.568807	-0.000089	-0.115096
C20	C	0.662835	-0.000080	-0.116742
C21	C	0.301334	-0.000115	-0.110409
C22	C	1.041168	-0.450425	-0.054541
C23	C	0.966044	-0.549822	-0.038408
C24	C	1.057197	-0.549874	-0.129660
C25	C	0.906940	-0.450353	-0.097411
C26	C	0.998142	-0.450396	-0.188696
C27	C	0.922964	-0.549749	-0.172595
C28	C	1.134092	-0.000120	-0.107474
C29	C	1.226387	-0.000121	-0.109095
C30	C	0.988198	-0.000121	0.038430
C31	C	0.986583	-0.000123	0.130725
N32	N	0.982079	0.352936	-0.113564
C33	C	0.975976	-0.000084	-0.265581
C34	C	0.977592	-0.000072	-0.357877
C35	C	1.058590	-0.000108	0.352993
C36	C	1.057066	-0.000096	0.439713
C37	C	0.905579	-0.000082	0.419848
C38	C	0.907104	-0.000084	0.333130
C39	C	0.983612	-0.000105	0.299704
C40	C	0.980563	-0.000090	0.473144
C41	C	0.978910	-0.000077	0.567170
C42	C	0.985265	-0.000115	0.205672
H43	H	0.403401	0.245244	-0.112207
H44	H	1.120888	-0.000122	0.325781
O45	O	1.100789	-0.398307	0.004940
C46	C	1.158972	-0.311810	-0.033171
H47	H	1.157617	-0.345703	-0.101516
H48	H	1.142075	-0.188726	-0.029233
C49	C	1.248848	-0.296178	0.096146
C50	C	1.247189	-0.337815	0.012205
H51	H	1.303264	-0.312212	0.124137
H52	H	1.209648	-0.354448	0.121823
H53	H	1.234763	-0.193610	0.099416
H54	H	1.261263	-0.440385	0.008935
H55	H	1.286393	-0.279562	-0.013472
H56	H	1.118121	-0.000095	0.483098
O57	O	0.834188	-0.000148	0.281478
C58	C	0.766333	-0.000104	0.329573
H59	H	0.787448	-0.047075	0.394303
H60	H	0.742878	0.118914	0.335738
C61	C	0.669439	-0.039692	0.206840
C62	C	0.695371	-0.097394	0.286340
H63	H	0.625665	-0.099699	0.180171
H64	H	0.715154	-0.039716	0.174436
H65	H	0.649899	0.059489	0.211989
H66	H	0.714921	-0.196566	0.281189
H67	H	0.649658	-0.097390	0.318742
O68	O	0.567466	-0.266826	-0.115026
C69	C	0.510608	-0.386189	-0.114044
H70	H	0.452238	-0.346549	-0.086652
H71	H	0.492649	-0.427770	-0.180540
C72	C	0.623301	-0.562637	-0.093788
C73	C	0.551612	-0.513954	-0.060139
H74	H	0.648594	-0.641452	-0.060540
H75	H	0.661608	-0.482221	-0.094452
H76	H	0.608324	-0.597278	-0.149201
H77	H	0.566591	-0.479297	-0.004731
H78	H	0.513309	-0.594367	-0.059463
H79	H	0.403447	-0.245470	-0.112184
H80	H	0.560719	0.245257	-0.114958
H81	H	0.843288	-0.000069	0.447074
O82	O	0.949866	-0.601687	0.037440
C83	C	0.939240	-0.480286	0.090855
H84	H	0.972029	-0.377876	0.068170
H85	H	0.869765	-0.455715	0.090513
C86	C	0.936918	-0.644987	0.208168
C87	C	0.977197	-0.519208	0.180311
H88	H	0.960328	-0.668997	0.263349
H89	H	0.944074	-0.726779	0.172181
H90	H	0.879025	-0.624495	0.207876
H91	H	1.035087	-0.539709	0.180593
H92	H	0.970052	-0.437421	0.216300
O93	O	0.831205	-0.398183	-0.081072
C94	C	0.832134	-0.240930	-0.081272
H95	H	0.899305	-0.199793	-0.068180
H96	H	0.803739	-0.198362	-0.144931
C97	C	0.698266	-0.232749	-0.029262
C98	C	0.780767	-0.182225	-0.013175
H99	H	0.666578	-0.196535	0.012740
H100	H	0.697638	-0.338694	-0.029130
H101	H	0.674615	-0.197272	-0.082313
H102	H	0.804420	-0.217718	0.039870
H103	H	0.781397	-0.076284	-0.013296
O104	O	0.863193	-0.601397	-0.232065
C105	C	0.784162	-0.550380	-0.214797
H106	H	0.786561	-0.522605	-0.145509
H107	H	0.766472	-0.446190	-0.253381
C108	C	0.715544	-0.707031	-0.322510
C109	C	0.718488	-0.672929	-0.237408
H110	H	0.675031	-0.782620	-0.336461
H111	H	0.768788	-0.741398	-0.334147
H112	H	0.700805	-0.620195	-0.354654
H113	H	0.733237	-0.759759	-0.205267
H114	H	0.665245	-0.638579	-0.225767
O115	O	1.014518	-0.398310	-0.264428
C116	C	1.093794	-0.448960	-0.281155
H117	H	1.133272	-0.476900	-0.219848
H118	H	1.086178	-0.552975	-0.322018
C119	C	1.088861	-0.291722	-0.402340
C120	C	1.137351	-0.326026	-0.327041
H121	H	1.115729	-0.215895	-0.430648
H122	H	1.035450	-0.257601	-0.391074
H123	H	1.082518	-0.378411	-0.436383
H124	H	1.143685	-0.239343	-0.292996
H125	H	1.190764	-0.360130	-0.338303
H126	H	1.120713	-0.593589	-0.143267
