data_functionalizedCrystal
_audit_creation_method	'MofGen! by Chris Wilmer'
_symmetry_space_group_name_H-M	'P1'
_symmetry_Int_Tables_number	1
_symmetry_cell_setting	triclinic
loop_
_symmetry_equiv_pos_as_xyz
  x,y,z
_cell_length_a	10.540535
_cell_length_b	10.540539
_cell_length_c	9.130307
_cell_angle_alpha	89.998824
_cell_angle_beta	90.000860
_cell_angle_gamma	84.524567
loop_
_atom_site_label
_atom_site_type_symbol
_atom_site_fract_x
_atom_site_fract_y
_atom_site_fract_z
O1	O	1.685885	0.178871	-0.121712
O2	O	1.316472	0.195733	-0.121732
O3	O	1.509606	0.002595	-0.121719
O4	O	1.492750	0.372009	-0.121724
O5	O	1.509600	0.002593	0.121880
O6	O	1.316465	0.195731	0.121867
O7	O	1.685879	0.178869	0.121887
Cu8	Cu	1.501172	0.187300	0.144120
Cu9	Cu	1.501179	0.187302	-0.143964
O10	O	1.492744	0.372007	0.121875
C11	C	1.269165	0.194469	0.000065
C12	C	1.128217	0.190689	0.000058
C13	C	1.091546	0.049675	0.000065
C14	C	0.944946	0.045698	0.000633
C15	C	0.918877	0.255058	0.138910
C16	C	1.065643	0.258059	0.139013
C17	C	1.065534	0.260113	-0.138015
C18	C	0.919188	0.253591	-0.139825
C19	C	1.508339	-0.044709	0.000077
C20	C	1.504557	-0.185657	0.000069
C21	C	1.359640	-0.369081	-0.000485
C22	C	1.363474	-0.222463	0.000063
C23	C	1.572449	-0.247316	0.139180
C24	C	1.567634	-0.393861	0.139297
C25	C	1.570511	-0.394377	-0.137721
C26	C	1.571811	-0.247395	-0.139560
C27	C	1.733185	0.180133	0.000087
C28	C	1.874134	0.183913	0.000085
C29	C	1.494011	0.419311	0.000075
C30	C	1.497793	0.560259	0.000074
N31	N	1.501176	0.187298	0.346743
N32	N	1.501185	0.187294	-0.346587
C33	C	1.672267	0.016324	0.346743
C34	C	1.757821	-0.069158	0.423411
C35	C	1.757834	-0.069159	0.576744
C36	C	1.672280	0.016330	0.653414
C37	C	1.586726	0.101812	0.576747
C38	C	1.586726	0.101807	0.423410
C39	C	1.415631	0.272777	0.576746
C40	C	1.415622	0.272786	0.423412
C41	C	1.330078	0.358266	0.653416
C42	C	1.244528	0.443757	0.576749
C43	C	1.244520	0.443755	0.423406
C44	C	1.330068	0.358269	0.346745
H45	H	0.915611	-0.009943	-0.098863
N46	N	0.883316	0.188642	-0.268671
N47	N	0.923997	0.074702	-0.289007
H48	H	0.898653	0.028829	-0.380002
N49	N	1.504658	-0.429222	0.269730
N50	N	1.392364	-0.385177	0.294408
H51	H	1.347881	-0.410143	0.386529
H52	H	1.330086	0.358256	0.778268
H53	H	1.309673	-0.180707	0.099944
H54	H	1.672276	0.016327	0.221891
N55	N	1.157145	0.531053	0.655085
N56	N	1.157157	0.531028	0.791989
H57	H	1.095442	0.592682	0.847321
H58	H	1.135002	-0.003570	0.099475
H59	H	1.827495	-0.138771	0.639167
N60	N	1.672292	0.016296	0.810039
N61	N	1.748675	-0.060045	0.878474
H62	H	1.748681	-0.060070	0.989093
N63	N	1.157109	0.531076	0.345120
N64	N	1.080734	0.607387	0.413599
H65	H	1.018996	0.669059	0.358315
N66	N	1.513262	-0.433948	-0.270011
N67	N	1.577027	-0.504985	-0.358045
H68	H	1.536587	-0.532931	-0.451472
H69	H	0.916491	-0.009672	0.100738
N70	N	1.330104	0.358276	0.190120
N71	N	1.406508	0.281958	0.121690
H72	H	1.406544	0.281963	0.011071
H73	H	1.304133	-0.399288	0.098709
N74	N	1.144192	-0.018243	-0.124820
N75	N	1.209360	0.036481	-0.215287
H76	H	1.246548	-0.011486	-0.303494
N77	N	1.289695	-0.404931	-0.125619
N78	N	1.247812	-0.322247	-0.216031
H79	H	1.198408	-0.347570	-0.304409
N80	N	1.509574	-0.195997	-0.268642
N81	N	1.504147	-0.078996	-0.293556
H82	H	1.460188	-0.042678	-0.384713
N83	N	1.116044	0.197801	0.269703
N84	N	1.081306	0.241306	0.392160
H85	H	1.116897	0.198748	0.484464
N86	N	1.094524	0.387742	0.146441
N87	N	1.006319	0.475746	0.151542
H88	H	1.026710	0.567334	0.156801
H89	H	0.871521	0.356824	0.143680
H90	H	1.827476	-0.138765	0.360973
H91	H	0.887973	0.206245	0.242624
H92	H	0.870139	0.354465	-0.148641
N93	N	1.118773	0.204986	-0.270114
N94	N	1.173871	0.271900	-0.358384
H95	H	1.211469	0.232976	-0.451686
N96	N	1.093363	0.390267	-0.139682
N97	N	1.159055	0.431864	-0.039732
H98	H	1.178712	0.523783	-0.040895
N99	N	1.694922	-0.454029	0.147240
N100	N	1.787026	-0.387752	0.152690
H101	H	1.876923	-0.430239	0.158311
N102	N	1.702424	-0.219276	0.145662
N103	N	1.746571	-0.153376	0.047594
H104	H	1.838367	-0.133570	0.052166
H105	H	1.310052	-0.179858	-0.099657
N106	N	1.513271	-0.193872	0.269033
N107	N	1.421111	-0.110389	0.259485
H108	H	1.379308	-0.072644	0.351190
N109	N	1.700848	-0.217004	-0.150067
N110	N	1.778298	-0.249486	-0.050157
H111	H	1.869435	-0.228018	-0.057564
H112	H	1.672415	-0.441605	-0.138651
