data_functionalizedCrystal
_audit_creation_method	'MofGen! by Chris Wilmer'
_symmetry_space_group_name_H-M	'P1'
_symmetry_Int_Tables_number	1
_symmetry_cell_setting	triclinic
loop_
_symmetry_equiv_pos_as_xyz
  x,y,z
_cell_length_a	23.532407
_cell_length_b	26.210047
_cell_length_c	23.532407
_cell_angle_alpha	89.990689
_cell_angle_beta	97.151322
_cell_angle_gamma	90.011087
loop_
_atom_site_label
_atom_site_type_symbol
_atom_site_fract_x
_atom_site_fract_y
_atom_site_fract_z
O1	O	0.755269	0.042370	-0.069133
O2	O	1.088603	0.375704	0.264200
O3	O	1.421936	0.709037	0.597533
O4	O	0.589406	0.042386	-0.079137
O5	O	0.922739	0.375720	0.254197
O6	O	1.256073	0.709053	0.587530
O7	O	0.677339	0.042368	0.008797
O8	O	1.010673	0.375702	0.342130
O9	O	1.344006	0.709035	0.675463
O10	O	0.667336	0.042388	-0.157067
O11	O	1.000670	0.375721	0.176267
O12	O	1.334003	0.709055	0.509600
O13	O	0.677312	-0.042490	0.008797
O14	O	1.010645	0.290844	0.342130
O15	O	1.343979	0.624177	0.675463
O16	O	0.589379	-0.042472	-0.079137
O17	O	0.922712	0.290861	0.254197
O18	O	1.256045	0.624195	0.587530
O19	O	0.755242	-0.042488	-0.069133
O20	O	1.088575	0.290846	0.264200
O21	O	1.421909	0.624179	0.597533
Cu22	Cu	0.672308	-0.050228	-0.074135
Cu23	Cu	1.005641	0.283105	0.259198
Cu24	Cu	1.338974	0.616439	0.592532
Cu25	Cu	0.672340	0.050127	-0.074135
Cu26	Cu	1.005674	0.383460	0.259198
Cu27	Cu	1.339007	0.716793	0.592532
O28	O	0.667309	-0.042470	-0.157067
O29	O	1.000642	0.290863	0.176267
O30	O	1.333975	0.624197	0.509600
C31	C	0.568176	-0.000041	-0.078882
C32	C	0.901510	0.333292	0.254451
C33	C	1.234843	0.666626	0.587785
C34	C	0.504959	-0.000035	-0.078116
C35	C	0.838293	0.333298	0.255217
C36	C	1.171626	0.666631	0.588551
N37	N	0.672289	-0.120812	-0.074135
N38	N	1.005622	0.212521	0.259199
N39	N	1.338956	0.545855	0.592532
C40	C	0.105856	-0.000053	-0.125350
C41	C	0.439190	0.333280	0.207984
C42	C	0.772523	0.666614	0.541317
C43	C	0.046456	-0.000056	-0.124638
C44	C	0.379789	0.333277	0.208695
C45	C	0.713123	0.666611	0.542029
O46	O	0.009711	-0.000069	-0.168424
O47	O	0.343045	0.333264	0.164909
O48	O	0.676378	0.666597	0.498243
N49	N	0.023830	-0.000061	-0.072362
N50	N	0.357163	0.333272	0.260972
N51	N	0.690496	0.666605	0.594305
C52	C	0.060607	-0.000069	-0.020794
C53	C	0.393941	0.333265	0.312540
C54	C	0.727274	0.666598	0.645873
O55	O	0.035908	-0.000074	0.023737
O56	O	0.369241	0.333259	0.357070
O57	O	0.702574	0.666593	0.690404
C58	C	0.120006	-0.000069	-0.021506
C59	C	0.453340	0.333264	0.311828
C60	C	0.786673	0.666597	0.645161
C61	C	0.142629	-0.000059	-0.073785
C62	C	0.475962	0.333275	0.259548
C63	C	0.809296	0.666608	0.592881
C64	C	0.128479	-0.000043	-0.177625
C65	C	0.461813	0.333290	0.155708
C66	C	0.795146	0.666624	0.489042
C67	C	0.187876	-0.000039	-0.178336
C68	C	0.521209	0.333295	0.154997
C69	C	0.854542	0.666628	0.488330
C70	C	0.224649	-0.000045	-0.126772
C71	C	0.557982	0.333289	0.206561
C72	C	0.891315	0.666622	0.539895
C73	C	0.202025	-0.000055	-0.074497
C74	C	0.535359	0.333279	0.258837
C75	C	0.868692	0.666612	0.592170
C76	C	0.156783	-0.000080	0.030062
C77	C	0.490116	0.333253	0.363395
C78	C	0.823450	0.666586	0.696729
C79	C	0.216185	-0.000081	0.029345
C80	C	0.549519	0.333252	0.362679
C81	C	0.882852	0.666586	0.696012
C82	C	0.238808	-0.000071	-0.022934
C83	C	0.572141	0.333263	0.310399
C84	C	0.905475	0.666596	0.643732
C85	C	0.298194	-0.000056	-0.023643
C86	C	0.631528	0.333277	0.309690
C87	C	0.964861	0.666610	0.643023
N88	N	0.320820	-0.000051	-0.075920
N89	N	0.654154	0.333282	0.257414
N90	N	0.987487	0.666616	0.590747
C91	C	0.284048	-0.000045	-0.127484
C92	C	0.617381	0.333288	0.205849
C93	C	0.950714	0.666622	0.539183
C94	C	-0.064135	-0.000069	-0.019302
C95	C	0.269198	0.333265	0.314031
C96	C	0.602532	0.666598	0.647365
C97	C	-0.123533	-0.000065	-0.018589
C98	C	0.209800	0.333269	0.314744
C99	C	0.543134	0.666602	0.648077
C100	C	-0.137680	-0.000053	-0.122434
C101	C	0.195653	0.333280	0.210899
C102	C	0.528986	0.666614	0.544232
C103	C	-0.078281	-0.000053	-0.123146
C104	C	0.255052	0.333280	0.210187
C105	C	0.588385	0.666613	0.543520
C106	C	-0.041509	-0.000063	-0.071578
C107	C	0.291824	0.333270	0.261755
C108	C	0.625158	0.666603	0.595088
C109	C	0.408784	-0.000036	-0.128974
C110	C	0.742118	0.333297	0.204360
C111	C	1.075451	0.666631	0.537693
C112	C	0.468186	-0.000030	-0.129680
C113	C	0.801520	0.333304	0.203653
C114	C	1.134853	0.666637	0.536986
C115	C	0.482329	-0.000044	-0.025836
C116	C	0.815662	0.333289	0.307497
C117	C	1.148995	0.666623	0.640831
C118	C	0.422932	-0.000048	-0.025129
C119	C	0.756265	0.333286	0.308204
C120	C	1.089598	0.666619	0.641538
C121	C	0.386160	-0.000045	-0.076702
C122	C	0.719494	0.333288	0.256631
C123	C	1.052827	0.666621	0.589964
O124	O	0.334974	-0.000045	0.020119
O125	O	0.668307	0.333288	0.353453
O126	O	1.001640	0.666622	0.686786
O127	O	0.308755	-0.000046	-0.172007
O128	O	0.642089	0.333287	0.161326
O129	O	0.975422	0.666620	0.494660
C130	C	0.706678	-0.473325	-0.108495
C131	C	1.040012	-0.139992	0.224838
C132	C	1.373345	0.193342	0.558171
C133	C	0.706695	-0.686984	-0.108495
C134	C	1.040029	-0.353650	0.224838
C135	C	1.373362	-0.020317	0.558172
O136	O	0.735921	-0.714605	-0.137703
O137	O	1.069255	-0.381272	0.195630
O138	O	1.402588	-0.047938	0.528963
N139	N	0.672354	-0.713706	-0.074129
N140	N	1.005687	-0.380372	0.259204
N141	N	1.339021	-0.047039	0.592537
C142	C	0.638009	-0.687010	-0.039759
C143	C	0.971342	-0.353677	0.293575
C144	C	1.304675	-0.020343	0.626908
O145	O	0.608804	-0.714641	-0.010524
O146	O	0.942137	-0.381308	0.322809
O147	O	1.275471	-0.047975	0.656143
C148	C	0.637995	-0.473352	-0.039756
C149	C	0.971329	-0.140019	0.293577
C150	C	1.304662	0.193314	0.626910
C151	C	0.672335	-0.446633	-0.074129
C152	C	1.005668	-0.113300	0.259205
C153	C	1.339001	0.220034	0.592538
C154	C	0.741015	-0.446606	-0.142864
C155	C	1.074349	-0.113272	0.190469
C156	C	1.407682	0.220061	0.523802
C157	C	0.741009	-0.393194	-0.142866
C158	C	1.074342	-0.059861	0.190467
C159	C	1.407675	0.273472	0.523800
C160	C	0.706665	-0.366502	-0.108500
C161	C	1.039998	-0.033169	0.224834
C162	C	1.373331	0.300164	0.558167
C163	C	0.672328	-0.393222	-0.074131
C164	C	1.005661	-0.059888	0.259203
C165	C	1.338994	0.273445	0.592536
C166	C	0.603653	-0.446657	-0.005383
C167	C	0.936987	-0.113324	0.327950
C168	C	1.270320	0.220009	0.661284
C169	C	0.603654	-0.393240	-0.005384
C170	C	0.936987	-0.059906	0.327949
C171	C	1.270321	0.273427	0.661282
C172	C	0.637993	-0.366520	-0.039757
C173	C	0.971327	-0.033187	0.293577
C174	C	1.304660	0.300146	0.626910
C175	C	0.637977	-0.313118	-0.039766
C176	C	0.971310	0.020215	0.293567
C177	C	1.304643	0.353549	0.626901
N178	N	0.672318	-0.286396	-0.074132
N179	N	1.005652	0.046937	0.259202
N180	N	1.338985	0.380271	0.592535
C181	C	0.706662	-0.313088	-0.108498
C182	C	1.039995	0.020245	0.224835
C183	C	1.373329	0.353579	0.558168
C184	C	0.638017	-0.799183	-0.039763
C185	C	0.971351	-0.465850	0.293570
C186	C	1.304684	-0.132517	0.626904
C187	C	0.638020	-0.852597	-0.039764
C188	C	0.971353	-0.519264	0.293569
C189	C	1.304686	-0.185931	0.626903
C190	C	0.706707	-0.852568	-0.108500
C191	C	1.040041	-0.519234	0.224834
C192	C	1.373374	-0.185901	0.558167
C193	C	0.706701	-0.799152	-0.108501
C194	C	1.040035	-0.465819	0.224832
C195	C	1.373368	-0.132486	0.558165
C196	C	0.672359	-0.772461	-0.074129
C197	C	1.005692	-0.439128	0.259205
C198	C	1.339025	-0.105795	0.592538
C199	C	0.706645	-0.200920	-0.108501
C200	C	1.039978	0.132413	0.224833
C201	C	1.373311	0.465746	0.558166
C202	C	0.706633	-0.147504	-0.108501
C203	C	1.039966	0.185829	0.224832
C204	C	1.373300	0.519163	0.558165
C205	C	0.637948	-0.147539	-0.039764
C206	C	0.971281	0.185795	0.293570
C207	C	1.304614	0.519128	0.626903
C208	C	0.637957	-0.200950	-0.039765
C209	C	0.971290	0.132383	0.293568
C210	C	1.304624	0.465717	0.626902
C211	C	0.672310	-0.227640	-0.074135
C212	C	1.005643	0.105694	0.259198
C213	C	1.338977	0.439027	0.592532
O214	O	0.608771	-0.285464	-0.010568
O215	O	0.942104	0.047869	0.322765
O216	O	1.275438	0.381203	0.656099
O217	O	0.735872	-0.285448	-0.137719
O218	O	1.069205	0.047886	0.195614
O219	O	1.402539	0.381219	0.528948
C220	C	0.706685	-0.526737	-0.108493
C221	C	1.040019	-0.193403	0.224840
C222	C	1.373352	0.139930	0.558173
C223	C	0.672348	-0.553456	-0.074124
C224	C	1.005682	-0.220123	0.259209
C225	C	1.339015	0.113211	0.592542
C226	C	0.638004	-0.526764	-0.039758
C227	C	0.971338	-0.193430	0.293576
C228	C	1.304671	0.139903	0.626909
C229	C	0.672351	-0.606870	-0.074126
C230	C	1.005684	-0.273537	0.259208
C231	C	1.339017	0.059797	0.592541
C232	C	0.706695	-0.633562	-0.108492
C233	C	1.040028	-0.300229	0.224841
C234	C	1.373361	0.033104	0.558174
C235	C	0.741036	-0.606840	-0.142858
C236	C	1.074370	-0.273507	0.190475
C237	C	1.407703	0.059827	0.523809
C238	C	0.741029	-0.553429	-0.142860
C239	C	1.074363	-0.220095	0.190473
C240	C	1.407696	0.113238	0.523807
C241	C	0.603663	-0.553486	-0.005392
C242	C	0.936996	-0.220153	0.327941
C243	C	1.270330	0.113181	0.661275
C244	C	0.603672	-0.606897	-0.005393
C245	C	0.937005	-0.273564	0.327940
C246	C	1.270339	0.059769	0.661274
C247	C	0.638016	-0.633589	-0.039760
C248	C	0.971349	-0.300256	0.293573
C249	C	1.304683	0.033077	0.626907
C250	C	0.776472	-0.000059	-0.069388
C251	C	1.109805	0.333274	0.263945
C252	C	1.443138	0.666607	0.597278
C253	C	0.839689	-0.000062	-0.070154
C254	C	1.173022	0.333272	0.263179
C255	C	1.506355	0.666605	0.596513
C256	C	0.677071	-0.000062	0.030013
C257	C	1.010404	0.333272	0.363346
C258	C	1.343738	0.666605	0.696679
C259	C	0.676305	-0.000066	0.093230
C260	C	1.009638	0.333268	0.426563
C261	C	1.342972	0.666601	0.759896
N262	N	0.672364	0.120710	-0.074131
N263	N	1.005697	0.454044	0.259202
N264	N	1.339030	0.787377	0.592536
C265	C	0.667577	-0.000038	-0.178283
C266	C	1.000910	0.333295	0.155051
C267	C	1.334244	0.666628	0.488384
C268	C	0.668343	-0.000031	-0.241500
C269	C	1.001676	0.333302	0.091833
C270	C	1.335010	0.666635	0.425167
C271	C	0.723539	-0.000042	0.492333
C272	C	1.056872	0.333291	0.825666
C273	C	1.390205	0.666624	1.158999
C274	C	0.722827	-0.000038	0.551733
C275	C	1.056160	0.333295	0.885066
C276	C	1.389494	0.666628	1.218400
O277	O	0.766613	-0.000024	0.588478
O278	O	1.099946	0.333310	0.921811
O279	O	1.433280	0.666643	1.255144
N280	N	0.670551	-0.000034	0.574359
N281	N	1.003884	0.333300	0.907693
N282	N	1.337217	0.666633	1.241026
C283	C	0.618983	-0.000028	0.537582
C284	C	0.952316	0.333306	0.870915
C285	C	1.285649	0.666639	1.204248
O286	O	0.574452	-0.000023	0.562281
O287	O	0.907785	0.333310	0.895615
O288	O	1.241119	0.666644	1.228948
C289	C	0.619695	-0.000028	0.478182
C290	C	0.953028	0.333305	0.811516
C291	C	1.286361	0.666639	1.144849
C292	C	0.671974	-0.000038	0.455560
C293	C	1.005308	0.333295	0.788893
C294	C	1.338641	0.666629	1.122227
C295	C	0.775814	-0.000051	0.469710
C296	C	1.109147	0.333282	0.803043
C297	C	1.442481	0.666615	1.136376
C298	C	0.776525	-0.000056	0.410313
C299	C	1.109859	0.333277	0.743647
C300	C	1.443192	0.666610	1.076980
C301	C	0.724961	-0.000052	0.373540
C302	C	1.058294	0.333281	0.706874
C303	C	1.391628	0.666615	1.040207
C304	C	0.672685	-0.000043	0.396164
C305	C	1.006019	0.333291	0.729497
C306	C	1.339352	0.666624	1.062830
C307	C	0.568127	-0.000019	0.441406
C308	C	0.901460	0.333315	0.774739
C309	C	1.234794	0.666648	1.108073
C310	C	0.568844	-0.000019	0.382004
C311	C	0.902177	0.333315	0.715337
C312	C	1.235510	0.666648	1.048670
C313	C	0.621123	-0.000028	0.359381
C314	C	0.954457	0.333305	0.692714
C315	C	1.287790	0.666638	1.026048
C316	C	0.621832	-0.000043	0.299995
C317	C	0.955166	0.333290	0.633328
C318	C	1.288499	0.666623	0.966661
N319	N	0.674109	-0.000048	0.277368
N320	N	1.007442	0.333285	0.610702
N321	N	1.340775	0.666619	0.944035
C322	C	0.725673	-0.000052	0.314141
C323	C	1.059006	0.333281	0.647475
C324	C	1.392340	0.666614	0.980808
C325	C	0.617491	-0.000026	0.662324
C326	C	0.950824	0.333307	0.995657
C327	C	1.284158	0.666640	1.328991
C328	C	0.616778	-0.000030	0.721722
C329	C	0.950112	0.333304	1.055055
C330	C	1.283445	0.666637	1.388389
C331	C	0.720623	-0.000039	0.735869
C332	C	1.053957	0.333294	1.069203
C333	C	1.387290	0.666628	1.402536
C334	C	0.721335	-0.000039	0.676470
C335	C	1.054669	0.333294	1.009804
C336	C	1.388002	0.666627	1.343137
C337	C	0.669767	-0.000031	0.639698
C338	C	1.003101	0.333302	0.973031
C339	C	1.336434	0.666636	1.306365
C340	C	0.727163	-0.000063	0.189405
C341	C	1.060496	0.333270	0.522738
C342	C	1.393829	0.666604	0.856071
C343	C	0.727869	-0.000070	0.130003
C344	C	1.061203	0.333263	0.463336
C345	C	1.394536	0.666597	0.796669
C346	C	0.624025	-0.000058	0.115860
C347	C	0.957358	0.333276	0.449194
C348	C	1.290691	0.666609	0.782527
C349	C	0.623318	-0.000054	0.175257
C350	C	0.956651	0.333280	0.508591
C351	C	1.289985	0.666613	0.841924
C352	C	0.674891	-0.000054	0.212029
C353	C	1.008225	0.333279	0.545362
C354	C	1.341558	0.666612	0.878695
O355	O	0.578070	-0.000056	0.263215
O356	O	0.911403	0.333277	0.596549
O357	O	1.244736	0.666611	0.929882
O358	O	0.770196	-0.000050	0.289433
O359	O	1.103529	0.333283	0.622767
O360	O	1.436863	0.666616	0.956100
H361	H	0.486602	-0.000021	-0.172255
H362	H	0.819935	0.333313	0.161079
H363	H	1.153269	0.666646	0.494412
N364	N	0.600915	-0.229766	-0.002694
N365	N	0.934248	0.103568	0.330640
N366	N	1.267582	0.436901	0.663973
H367	H	0.625871	-0.251921	0.025312
H368	H	0.959204	0.081412	0.358646
H369	H	1.292538	0.414745	0.691979
H370	H	0.572905	-0.251904	-0.027666
H371	H	0.906239	0.081429	0.305668
H372	H	1.239572	0.414762	0.639001
H373	H	-0.167632	-0.000051	-0.164421
H374	H	0.165701	0.333283	0.168913
H375	H	0.499035	0.666616	0.502246
N376	N	0.566930	-0.000047	0.199658
N377	N	0.900264	0.333287	0.532991
N378	N	1.233597	0.666620	0.866324
H379	H	0.564331	0.031414	0.223977
H380	H	0.897664	0.364747	0.557310
H381	H	1.230998	0.698081	0.890644
H382	H	0.564343	-0.031521	0.223969
H383	H	0.897676	0.301813	0.557302
H384	H	1.231009	0.635146	0.890635
H385	H	0.610050	-0.777456	-0.011771
H386	H	0.943383	-0.444123	0.321562
H387	H	1.276716	-0.110790	0.654896
N388	N	0.566635	-0.635712	0.031686
N389	N	0.899968	-0.302378	0.365020
N390	N	1.233302	0.030955	0.698353
H391	H	0.591597	-0.657867	0.059687
H392	H	0.924931	-0.324534	0.393021
H393	H	1.258264	0.008800	0.726354
H394	H	0.538623	-0.657851	0.006717
H395	H	0.871957	-0.324518	0.340051
H396	H	1.205290	0.008815	0.673384
N397	N	0.561871	-0.000026	0.622659
N398	N	0.895204	0.333308	0.955993
N399	N	1.228538	0.666641	1.289326
H400	H	0.539056	0.031432	0.629899
H401	H	0.872389	0.364765	0.963233
H402	H	1.205722	0.698099	1.296566
H403	H	0.539087	-0.031503	0.629930
H404	H	0.872420	0.301831	0.963263
H405	H	1.205753	0.635164	1.296597
N406	N	0.566620	-0.524701	0.031679
N407	N	0.899954	-0.191367	0.365012
N408	N	1.233287	0.141966	0.698345
H409	H	0.544869	-0.549738	0.053447
H410	H	0.878203	-0.216405	0.386780
H411	H	1.211536	0.116928	0.720113
H412	H	0.538634	-0.502544	0.006705
H413	H	0.871967	-0.169211	0.340039
H414	H	1.205301	0.164123	0.673372
H415	H	0.525555	-0.000008	0.459814
H416	H	0.858889	0.333326	0.793148
H417	H	1.192222	0.666659	1.126481
N418	N	0.560390	-0.000021	0.746117
N419	N	0.893724	0.333313	1.079450
N420	N	1.227057	0.666646	1.412783
H421	H	0.567758	-0.000018	0.789326
H422	H	0.901091	0.333315	1.122660
H423	H	1.234424	0.666648	1.455993
H424	H	0.537832	-0.031477	0.732649
H425	H	0.871165	0.301857	1.065983
H426	H	1.204498	0.635190	1.399316
H427	H	0.512280	-0.000047	0.016146
H428	H	0.845613	0.333287	0.349480
H429	H	1.178946	0.666620	0.682813
H430	H	0.582043	-0.000056	0.085909
H431	H	0.915376	0.333277	0.419243
H432	H	1.248709	0.666611	0.752576
N433	N	0.369129	-0.000045	-0.184598
N434	N	0.702463	0.333288	0.148736
N435	N	1.035796	0.666621	0.482069
H436	H	0.392482	-0.000042	-0.217818
H437	H	0.725815	0.333292	0.115516
H438	H	1.059149	0.666625	0.448849
H439	H	0.344175	0.031408	-0.186576
H440	H	0.677508	0.364741	0.146758
H441	H	1.010841	0.698075	0.480091
N442	N	0.212272	-0.000025	-0.234724
N443	N	0.545605	0.333308	0.098610
N444	N	0.878938	0.666642	0.431943
H445	H	0.179956	-0.000022	-0.267277
H446	H	0.513289	0.333312	0.066057
H447	H	0.846623	0.666645	0.399390
H448	H	0.236602	-0.031481	-0.237287
H449	H	0.569936	0.301852	0.096046
H450	H	0.903269	0.635186	0.429380
N451	N	0.782785	-0.000067	0.229063
N452	N	1.116118	0.333266	0.562396
N453	N	1.449451	0.666599	0.895730
H454	H	0.805620	0.031385	0.221810
H455	H	1.138954	0.364718	0.555143
H456	H	1.472287	0.698051	0.888476
H457	H	0.805547	-0.031550	0.221803
H458	H	1.138880	0.301783	0.555136
H459	H	1.472214	0.635117	0.888469
H460	H	0.734618	-0.222644	-0.136488
H461	H	1.067952	0.110689	0.196846
H462	H	1.401285	0.444022	0.530179
H463	H	0.575691	-0.468403	0.022607
H464	H	0.909025	-0.135070	0.355941
H465	H	1.242358	0.198264	0.689274
N466	N	0.566614	-0.364453	0.031693
N467	N	0.899947	-0.031120	0.365027
N468	N	1.233280	0.302213	0.698360
H469	H	0.525115	-0.373758	0.020252
H470	H	0.858449	-0.040425	0.353585
H471	H	1.191782	0.292909	0.686919
H472	H	0.571867	-0.326570	0.026465
H473	H	0.905200	0.006763	0.359799
H474	H	1.238534	0.340097	0.693132
N475	N	0.088822	-0.000066	-0.233245
N476	N	0.422156	0.333268	0.100088
N477	N	0.755489	0.666601	0.433421
H478	H	0.112176	-0.000069	-0.266464
H479	H	0.445510	0.333264	0.066869
H480	H	0.778843	0.666598	0.400202
H481	H	0.063862	0.031385	-0.235236
H482	H	0.397195	0.364718	0.098097
H483	H	0.730529	0.698051	0.431430
H484	H	0.768974	-0.371444	-0.170853
H485	H	1.102307	-0.038111	0.162480
H486	H	1.435640	0.295222	0.495813
N487	N	0.777722	-0.000046	0.652072
N488	N	1.111055	0.333287	0.985405
N489	N	1.444388	0.666620	1.318739
H490	H	0.780323	-0.031504	0.627748
H491	H	1.113656	0.301829	0.961082
H492	H	1.446989	0.635163	1.294415
H493	H	0.810243	-0.000032	0.684417
H494	H	1.143576	0.333302	1.017751
H495	H	1.476909	0.666635	1.351084
N496	N	-0.147930	-0.000067	0.037797
N497	N	0.185403	0.333267	0.371131
N498	N	0.518737	0.666600	0.704464
H499	H	-0.115616	-0.000069	0.070352
H500	H	0.217717	0.333264	0.403685
H501	H	0.551050	0.666597	0.737019
H502	H	-0.172271	-0.031526	0.040358
H503	H	0.161063	0.301807	0.373691
H504	H	0.494396	0.635140	0.707024
H505	H	0.734663	-0.777401	-0.136491
H506	H	1.067997	-0.444068	0.196843
H507	H	1.401330	-0.110734	0.530176
N508	N	-0.024475	-0.000077	0.036321
N509	N	0.308859	0.333256	0.369654
N510	N	0.642192	0.666590	0.702988
H511	H	-0.047826	-0.000080	0.069542
H512	H	0.285507	0.333253	0.402875
H513	H	0.618840	0.666586	0.736209
H514	H	0.000486	0.031380	0.038291
H515	H	0.333819	0.364714	0.371624
H516	H	0.667152	0.698047	0.704958
N517	N	-0.053883	-0.000040	-0.179533
N518	N	0.279450	0.333293	0.153801
N519	N	0.612783	0.666626	0.487134
H520	H	-0.086197	-0.000035	-0.212087
H521	H	0.247136	0.333299	0.121246
H522	H	0.580470	0.666632	0.454579
H523	H	-0.029555	-0.031498	-0.182095
H524	H	0.303779	0.301835	0.151238
H525	H	0.637112	0.635168	0.484572
N526	N	0.132390	-0.000096	0.086449
N527	N	0.465724	0.333237	0.419782
N528	N	0.799057	0.666570	0.753116
H529	H	0.145831	0.031355	0.109029
H530	H	0.479164	0.364688	0.442362
H531	H	0.812497	0.698021	0.775695
H532	H	0.145827	-0.031580	0.108970
H533	H	0.479160	0.301753	0.442303
H534	H	0.812494	0.635087	0.775636
N535	N	0.255847	-0.000095	0.084966
N536	N	0.589180	0.333238	0.418300
N537	N	0.922514	0.666571	0.751633
H538	H	0.232498	-0.000102	0.118189
H539	H	0.565831	0.333231	0.451523
H540	H	0.899165	0.666564	0.784856
H541	H	0.280806	0.031363	0.086938
H542	H	0.614140	0.364697	0.420271
H543	H	0.947473	0.698030	0.753605
N544	N	0.398527	-0.000049	0.031256
N545	N	0.731860	0.333284	0.364590
N546	N	1.065194	0.666617	0.697923
H547	H	0.430838	-0.000050	0.063814
H548	H	0.764172	0.333284	0.397147
H549	H	1.097505	0.666617	0.730480
H550	H	0.374188	-0.031510	0.033815
H551	H	0.707522	0.301823	0.367148
H552	H	1.040855	0.635156	0.700482
H553	H	0.526850	-0.000011	0.352066
H554	H	0.860183	0.333322	0.685399
H555	H	1.193516	0.666656	1.018732
N556	N	0.778075	-0.475390	-0.179920
N557	N	1.111409	-0.142057	0.153413
N558	N	1.444742	0.191277	0.486747
H559	H	0.799828	-0.450351	-0.201684
H560	H	1.133162	-0.117017	0.131649
H561	H	1.466495	0.216316	0.464982
H562	H	0.753100	-0.497557	-0.207895
H563	H	1.086434	-0.164224	0.125439
H564	H	1.419767	0.169109	0.458772
N565	N	0.784260	-0.000077	0.105605
N566	N	1.117593	0.333257	0.438938
N567	N	1.450926	0.666590	0.772272
H568	H	0.776890	-0.000080	0.062396
H569	H	1.110223	0.333253	0.395729
H570	H	1.443557	0.666586	0.729062
H571	H	0.806797	-0.031536	0.119087
H572	H	1.140130	0.301797	0.452420
H573	H	1.473464	0.635131	0.785754
H574	H	0.734596	-0.125752	-0.136494
H575	H	1.067929	0.207582	0.196839
H576	H	1.401263	0.540915	0.530173
N577	N	0.743750	-0.881362	-0.145569
N578	N	1.077083	-0.548028	0.187765
N579	N	1.410417	-0.214695	0.521098
H580	H	0.738538	-0.919253	-0.140350
H581	H	1.071871	-0.585919	0.192983
H582	H	1.405204	-0.252586	0.526317
H583	H	0.785232	-0.872020	-0.134102
H584	H	1.118565	-0.538687	0.199232
H585	H	1.451899	-0.205353	0.532565
H586	H	0.610050	-0.874348	-0.011782
H587	H	0.943384	-0.541014	0.321552
H588	H	1.276717	-0.207681	0.654885
N589	N	0.600912	-0.118744	-0.002692
N590	N	0.934246	0.214589	0.330641
N591	N	1.267579	0.547923	0.663974
H592	H	0.606126	-0.080853	-0.007908
H593	H	0.939460	0.252480	0.325425
H594	H	1.272793	0.585814	0.658759
H595	H	0.612412	-0.128085	0.038784
H596	H	0.945745	0.205248	0.372117
H597	H	1.279078	0.538581	0.705451
N598	N	0.778069	-0.524614	-0.179931
N599	N	1.111403	-0.191280	0.153403
N600	N	1.444736	0.142053	0.486736
H601	H	0.799825	-0.549635	-0.201697
H602	H	1.133159	-0.216301	0.131636
H603	H	1.466492	0.117032	0.464970
H604	H	0.806051	-0.502450	-0.154958
H605	H	1.139384	-0.169117	0.178376
H606	H	1.472718	0.164216	0.511709
N607	N	0.778077	-0.635635	-0.179928
N608	N	1.111410	-0.302301	0.153405
N609	N	1.444743	0.031032	0.486738
H610	H	0.772866	-0.673526	-0.174708
H611	H	1.106199	-0.340192	0.158625
H612	H	1.439533	-0.006859	0.491959
H613	H	0.819559	-0.626292	-0.168466
H614	H	1.152892	-0.292959	0.164868
H615	H	1.486226	0.040375	0.498201
N616	N	0.832913	-0.000065	0.385917
N617	N	1.166246	0.333268	0.719251
N618	N	1.499579	0.666602	1.052584
H619	H	0.865466	-0.000066	0.418233
H620	H	1.198799	0.333268	0.751566
H621	H	1.532132	0.666601	1.084900
H622	H	0.835483	0.031392	0.361576
H623	H	1.168816	0.364726	0.694910
H624	H	1.502149	0.698059	1.028243
N625	N	0.831434	-0.000057	0.509367
N626	N	1.164768	0.333277	0.842700
N627	N	1.498101	0.666610	1.176033
H628	H	0.864653	-0.000063	0.486012
H629	H	1.197987	0.333271	0.819346
H630	H	1.531320	0.666604	1.152679
H631	H	0.833392	-0.031516	0.534322
H632	H	1.166725	0.301817	0.867655
H633	H	1.500058	0.635150	1.200989
H634	H	0.762610	-0.000041	0.765821
H635	H	1.095943	0.333293	1.099154
H636	H	1.429276	0.666626	1.432488
