data_functionalizedCrystal
_audit_creation_method	'MofGen! by Chris Wilmer'
_symmetry_space_group_name_H-M	'P1'
_symmetry_Int_Tables_number	1
_symmetry_cell_setting	triclinic
loop_
_symmetry_equiv_pos_as_xyz
  x,y,z
_cell_length_a	12.827893
_cell_length_b	13.032721
_cell_length_c	12.827885
_cell_angle_alpha	82.850941
_cell_angle_beta	90.019462
_cell_angle_gamma	97.204267
loop_
_atom_site_label
_atom_site_type_symbol
_atom_site_fract_x
_atom_site_fract_y
_atom_site_fract_z
Zn1	Zn	1.544800	-0.415987	0.643644
Zn2	Zn	1.522480	-0.590766	0.491086
Zn3	Zn	1.370035	-0.416038	0.468924
Zn4	Zn	1.347823	-0.590688	0.665776
O5	O	1.446284	-0.503370	0.567357
O6	O	1.688074	-0.439183	0.623419
O7	O	1.502212	-0.567642	0.341917
O8	O	1.411855	-0.269794	0.473563
O9	O	1.671675	-0.567593	0.511336
O10	O	1.540254	-0.269756	0.601929
O11	O	1.390211	-0.439270	0.325634
O12	O	1.220854	-0.439194	0.495024
O13	O	1.373998	-0.567460	0.809070
O14	O	1.204535	-0.567509	0.639651
O15	O	1.518716	-0.439108	0.792809
O16	O	1.480674	-0.736993	0.532797
O17	O	1.352354	-0.736936	0.661141
C18	C	1.174777	-0.503350	0.567335
C19	C	1.058622	-0.503366	0.567353
C20	C	0.998777	-0.566960	0.638834
C21	C	0.878724	-0.566978	0.638854
C22	C	1.411710	-0.774882	0.601798
C23	C	1.397015	-0.891037	0.616567
C24	C	1.454009	-0.942815	0.559696
C25	C	1.438823	-1.062867	0.574959
C26	C	1.718852	-0.503391	0.567381
C27	C	1.835004	-0.503400	0.567391
C28	C	1.446369	-0.503270	0.839915
C29	C	1.446405	-0.503227	0.956063
C30	C	1.481022	-0.230797	0.532805
C31	C	1.495825	-0.114643	0.518081
C32	C	1.446270	-0.503394	0.295851
C33	C	1.446473	-0.503143	0.179666
C34	C	1.391006	-0.439692	0.999789
C35	C	1.391042	-0.439646	1.119833
H36	H	1.036420	-0.621387	0.700019
O37	O	0.817223	-0.631836	0.711821
C38	C	0.641481	-0.691066	0.778304
C39	C	0.711011	-0.617542	0.695623
H40	H	0.555592	-0.679551	0.765223
H41	H	0.665161	-0.672827	0.860323
H42	H	0.652217	-0.775313	0.770530
H43	H	0.700310	-0.533270	0.703299
H44	H	0.687314	-0.635871	0.613636
O45	O	1.013664	-0.438582	0.494257
C46	C	0.891996	-0.424504	0.351562
C47	C	0.942841	-0.497990	0.434285
H48	H	0.834708	-0.472505	0.303067
H49	H	0.955682	-0.376646	0.297666
H50	H	0.847902	-0.369943	0.392770
H51	H	0.986929	-0.552614	0.393166
H52	H	0.879108	-0.545774	0.488176
H53	H	1.514053	-0.898270	0.499712
O54	O	1.367205	-1.116159	0.646455
C55	C	1.286851	-1.284405	0.726929
C56	C	1.367973	-1.224182	0.645909
H57	H	1.287461	-1.371752	0.726530
H58	H	1.205240	-1.263174	0.705822
H59	H	1.307851	-1.262863	0.808478
H60	H	1.347072	-1.245691	0.564332
H61	H	1.449562	-1.245418	0.667107
O62	O	1.334302	-0.374801	1.164611
C63	C	1.163036	-0.324124	1.191815
C64	C	1.227173	-0.397611	1.141026
H65	H	1.076408	-0.342554	1.172784
H66	H	1.192016	-0.239832	1.159709
H67	H	1.173201	-0.335629	1.280624
H68	H	1.217037	-0.386199	1.052215
H69	H	1.198178	-0.481876	1.173215
O70	O	0.896252	-0.438297	0.494406
C71	C	0.952493	-0.260502	0.421477
C72	C	0.883053	-0.334111	0.504167
H73	H	0.941863	-0.176251	0.429355
H74	H	0.928720	-0.278653	0.339454
H75	H	1.038371	-0.272114	0.434455
H76	H	0.797156	-0.322540	0.491287
H77	H	0.906915	-0.315941	0.586160
O78	O	1.567378	-1.061353	0.446520
C79	C	1.647828	-0.893109	0.366136
C80	C	1.566744	-0.953329	0.447196
H81	H	1.647358	-0.805762	0.366670
H82	H	1.626831	-0.914509	0.284534
H83	H	1.729386	-0.914486	0.387246
H84	H	1.485158	-0.931985	0.426183
H85	H	1.587832	-0.931925	0.528774
O86	O	1.325518	-0.944286	0.688202
C87	C	1.295913	-1.067502	0.844877
C88	C	1.376990	-1.007285	0.763808
H89	H	1.337499	-1.118434	0.906037
H90	H	1.234877	-1.118759	0.803379
H91	H	1.255341	-1.009826	0.885271
H92	H	1.417639	-1.064886	0.723389
H93	H	1.437959	-0.956013	0.805364
H94	H	1.343545	-0.385335	0.948352
H95	H	1.493910	-0.557536	1.142038
O96	O	1.503158	-0.567931	1.017442
C97	C	1.642357	-0.581837	1.142619
C98	C	1.578177	-0.508440	1.073144
H99	H	1.703009	-0.533769	1.187688
H100	H	1.684143	-0.629660	1.091069
H101	H	1.587371	-0.636435	1.200592
H102	H	1.633090	-0.453779	1.015162
H103	H	1.536378	-0.460691	1.124760
