data_functionalizedCrystal
_audit_creation_method	'MofGen! by Chris Wilmer'
_symmetry_space_group_name_H-M	'P1'
_symmetry_Int_Tables_number	1
_symmetry_cell_setting	triclinic
loop_
_symmetry_equiv_pos_as_xyz
  x,y,z
_cell_length_a	18.215407
_cell_length_b	12.759400
_cell_length_c	18.215399
_cell_angle_alpha	89.975454
_cell_angle_beta	89.980167
_cell_angle_gamma	90.015132
loop_
_atom_site_label
_atom_site_type_symbol
_atom_site_fract_x
_atom_site_fract_y
_atom_site_fract_z
Zn1	Zn	1.125124	-0.418265	-0.416133
Zn2	Zn	1.458457	-0.084931	-0.082800
Zn3	Zn	1.791791	0.248402	0.250533
Zn4	Zn	1.125054	-0.593962	-0.293074
Zn5	Zn	1.458388	-0.260629	0.040259
Zn6	Zn	1.791721	0.072705	0.373592
Zn7	Zn	1.002057	-0.418299	-0.293081
Zn8	Zn	1.335390	-0.084966	0.040253
Zn9	Zn	1.668723	0.248368	0.373586
Zn10	Zn	1.002044	-0.593903	-0.416099
Zn11	Zn	1.335378	-0.260570	-0.082766
Zn12	Zn	1.668711	0.072763	0.250567
O13	O	1.063570	-0.506107	-0.354597
O14	O	1.396903	-0.172774	-0.021264
O15	O	1.730237	0.160560	0.312070
O16	O	1.228099	-0.441581	-0.399821
O17	O	1.561432	-0.108248	-0.066488
O18	O	1.894766	0.225085	0.266846
O19	O	1.108714	-0.570699	-0.190091
O20	O	1.442048	-0.237365	0.143242
O21	O	1.775381	0.095968	0.476576
O22	O	1.018416	-0.271273	-0.309421
O23	O	1.351749	0.062060	0.023913
O24	O	1.685083	0.395393	0.357246
O25	O	1.228048	-0.570665	-0.309410
O26	O	1.561381	-0.237332	0.023923
O27	O	1.894715	0.096001	0.357257
O28	O	1.108833	-0.271248	-0.399827
O29	O	1.442167	0.062085	-0.066494
O30	O	1.775500	0.395419	0.266840
O31	O	1.018349	-0.441640	-0.190096
O32	O	1.351682	-0.108306	0.143238
O33	O	1.685015	0.225027	0.476571
O34	O	0.899071	-0.441583	-0.309388
O35	O	1.232404	-0.108250	0.023946
O36	O	1.565737	0.225084	0.357279
O37	O	1.018395	-0.570566	-0.519088
O38	O	1.351729	-0.237232	-0.185755
O39	O	1.685062	0.096101	0.147579
O40	O	0.899062	-0.570599	-0.399769
O41	O	1.232395	-0.237266	-0.066436
O42	O	1.565729	0.096068	0.266898
O43	O	1.108821	-0.441525	-0.519113
O44	O	1.442155	-0.108191	-0.185780
O45	O	1.775488	0.225142	0.147554
O46	O	1.108703	-0.740975	-0.309377
O47	O	1.442036	-0.407642	0.023956
O48	O	1.775369	-0.074308	0.357290
O49	O	1.018328	-0.740932	-0.399763
O50	O	1.351661	-0.407599	-0.066429
O51	O	1.684994	-0.074265	0.266904
C52	C	0.872364	-0.506089	-0.354576
C53	C	1.205697	-0.172756	-0.021242
C54	C	1.539030	0.160577	0.312091
C55	C	0.790565	-0.506107	-0.354584
C56	C	1.123898	-0.172773	-0.021251
C57	C	1.457231	0.160560	0.312082
C58	C	0.602385	-0.573391	-0.401587
C59	C	0.935719	-0.240058	-0.068253
C60	C	1.269052	0.093276	0.265080
C61	C	0.525527	-0.573394	-0.401596
C62	C	0.858860	-0.240061	-0.068262
C63	C	1.192193	0.093272	0.265071
C64	C	0.525506	-0.438842	-0.307623
C65	C	0.858840	-0.105509	0.025710
C66	C	1.192173	0.227824	0.359043
C67	C	0.602364	-0.438835	-0.307618
C68	C	0.935697	-0.105501	0.025715
C69	C	1.269030	0.227832	0.359048
C70	C	0.640801	-0.506115	-0.354599
C71	C	0.974135	-0.172782	-0.021266
C72	C	1.307468	0.160552	0.312068
C73	C	0.487085	-0.506126	-0.354613
C74	C	0.820419	-0.172793	-0.021280
C75	C	1.153752	0.160541	0.312054
C76	C	0.403752	-0.506129	-0.354623
C77	C	0.737085	-0.172796	-0.021289
C78	C	1.070418	0.160538	0.312044
C79	C	0.724140	-0.506111	-0.354590
C80	C	1.057474	-0.172777	-0.021257
C81	C	1.390807	0.160556	0.312076
C82	C	1.063526	-0.779075	-0.354582
C83	C	1.396860	-0.445741	-0.021248
C84	C	1.730193	-0.112408	0.312085
C85	C	1.063575	-0.895851	-0.354600
C86	C	1.396908	-0.562518	-0.021266
C87	C	1.730242	-0.229184	0.312067
C88	C	1.110685	-0.950701	-0.307588
C89	C	1.444019	-0.617367	0.025746
C90	C	1.777352	-0.284034	0.359079
C91	C	1.110731	-1.060425	-0.307610
C92	C	1.444064	-0.727091	0.025723
C93	C	1.777397	-0.393758	0.359056
C94	C	1.016549	-1.060440	-0.401659
C95	C	1.349882	-0.727107	-0.068326
C96	C	1.683215	-0.393773	0.265008
C97	C	1.016508	-0.950718	-0.401639
C98	C	1.349841	-0.617385	-0.068306
C99	C	1.683174	-0.284051	0.265027
C100	C	1.157753	-0.895834	-0.260548
C101	C	1.491086	-0.562500	0.072785
C102	C	1.824419	-0.229167	0.406119
C103	C	1.204866	-0.950683	-0.213532
C104	C	1.538200	-0.617350	0.119802
C105	C	1.871533	-0.284017	0.453135
C106	C	1.204911	-1.060407	-0.213554
C107	C	1.538245	-0.727074	0.119779
C108	C	1.871578	-0.393741	0.453112
C109	C	1.157843	-1.115282	-0.260593
C110	C	1.491176	-0.781949	0.072740
C111	C	1.824510	-0.448615	0.406073
C112	C	1.255523	-0.506126	-0.354618
C113	C	1.588856	-0.172793	-0.021285
C114	C	1.922189	0.160541	0.312048
C115	C	1.337322	-0.506134	-0.354628
C116	C	1.670655	-0.172801	-0.021294
C117	C	2.003988	0.160533	0.312039
C118	C	1.063615	-0.506035	-0.546550
C119	C	1.396948	-0.172701	-0.213217
C120	C	1.730281	0.160632	0.120117
C121	C	1.063634	-0.506004	-0.628349
C122	C	1.396967	-0.172671	-0.295015
C123	C	1.730301	0.160663	0.038318
C124	C	1.063634	-0.232074	-0.354628
C125	C	1.396967	0.101259	-0.021295
C126	C	1.730300	0.434593	0.312038
C127	C	1.063661	-0.115297	-0.354642
C128	C	1.396994	0.218036	-0.021308
C129	C	1.730328	0.551369	0.312025
C130	C	1.110736	-0.438749	-0.816557
C131	C	1.444069	-0.105416	-0.483224
C132	C	1.777402	0.227917	-0.149890
C133	C	1.110744	-0.438719	-0.893416
C134	C	1.444078	-0.105385	-0.560083
C135	C	1.777411	0.227948	-0.226749
C136	C	1.016584	-0.573096	-0.893379
C137	C	1.349917	-0.239763	-0.560045
C138	C	1.683251	0.093571	-0.226712
C139	C	1.016572	-0.573120	-0.816521
C140	C	1.349905	-0.239787	-0.483188
C141	C	1.683239	0.093546	-0.149854
C142	C	1.063652	-0.505949	-0.778112
C143	C	1.396985	-0.172615	-0.444779
C144	C	1.730319	0.160718	-0.111446
C145	C	1.063673	-0.505894	-0.931829
C146	C	1.397006	-0.172560	-0.598495
C147	C	1.730339	0.160773	-0.265162
C148	C	1.063682	-0.505861	-1.015162
C149	C	1.397015	-0.172528	-0.681829
C150	C	1.730349	0.160806	-0.348496
C151	C	1.063642	-0.505980	-0.694773
C152	C	1.396976	-0.172646	-0.361440
C153	C	1.730309	0.160687	-0.028107
C154	C	1.063568	-0.506103	-0.163391
C155	C	1.396901	-0.172770	0.169943
C156	C	1.730234	0.160563	0.503276
C157	C	1.063691	-0.505838	-0.081592
C158	C	1.397024	-0.172505	0.251741
C159	C	1.730358	0.160828	0.585075
H160	H	1.157719	-0.806491	-0.260522
H161	H	1.491052	-0.473158	0.072811
H162	H	1.824386	-0.139824	0.406145
N163	N	0.643805	-0.366256	-0.256946
N164	N	0.977138	-0.032922	0.076387
N165	N	1.310471	0.300411	0.409721
H166	H	0.607794	-0.323637	-0.227183
H167	H	0.941127	0.009696	0.106150
H168	H	1.274460	0.343029	0.439484
H169	H	0.675679	-0.408948	-0.222835
H170	H	1.009012	-0.075615	0.110498
H171	H	1.342346	0.257718	0.443831
N172	N	0.965699	-0.891541	-0.452340
N173	N	1.299032	-0.558208	-0.119007
N174	N	1.632365	-0.224874	0.214326
H175	H	0.977105	-0.910569	-0.504937
H176	H	1.310439	-0.577235	-0.171604
H177	H	1.643772	-0.243902	0.161730
H178	H	0.913149	-0.910722	-0.440806
H179	H	1.246482	-0.577389	-0.107472
H180	H	1.579815	-0.244056	0.225861
N181	N	0.965791	-0.645612	-0.775052
N182	N	1.299124	-0.312279	-0.441718
N183	N	1.632458	0.021054	-0.108385
H184	H	0.972927	-0.635431	-0.720535
H185	H	1.306260	-0.302098	-0.387202
H186	H	1.639594	0.031236	-0.053869
H187	H	0.913236	-0.629255	-0.788477
H188	H	1.246570	-0.295922	-0.455144
H189	H	1.579903	0.037411	-0.121810
H190	H	0.633679	-0.628172	-0.439843
H191	H	0.967012	-0.294839	-0.106510
H192	H	1.300346	0.038494	0.226824
H193	H	0.494252	-0.628176	-0.439859
H194	H	0.827585	-0.294842	-0.106526
H195	H	1.160919	0.038491	0.226808
N196	N	1.255724	-1.119576	-0.162852
N197	N	1.589057	-0.786243	0.170481
N198	N	1.922390	-0.452910	0.503815
H199	H	1.308293	-1.100407	-0.174322
H200	H	1.641626	-0.767074	0.159012
H201	H	1.974959	-0.433740	0.492345
H202	H	1.244250	-1.100526	-0.110276
H203	H	1.577583	-0.767193	0.223057
H204	H	1.910916	-0.433860	0.556390
H205	H	0.494201	-0.384067	-0.269372
H206	H	0.827535	-0.050733	0.063961
H207	H	1.160868	0.282600	0.397295
N208	N	1.161511	-0.366303	-0.775129
N209	N	1.494844	-0.032969	-0.441795
N210	N	1.828178	0.300364	-0.108462
H211	H	1.191338	-0.323727	-0.811149
H212	H	1.524672	0.009607	-0.477816
H213	H	1.858005	0.342940	-0.144482
H214	H	1.131560	-0.317692	-0.743240
H215	H	1.464893	0.015642	-0.409907
H216	H	1.798227	0.348975	-0.076574
H217	H	1.243192	-0.905999	-0.175238
H218	H	1.576526	-0.572666	0.158095
H219	H	1.909859	-0.239332	0.491429
N220	N	1.161519	-0.366228	-0.934882
N221	N	1.494852	-0.032894	-0.601549
N222	N	1.828185	0.300439	-0.268215
H223	H	1.191337	-0.323678	-0.898885
H224	H	1.524670	0.009655	-0.565552
H225	H	1.858004	0.342989	-0.232219
H226	H	1.195573	-0.408975	-0.966777
H227	H	1.528906	-0.075641	-0.633444
H228	H	1.862240	0.257692	-0.300111
H229	H	1.157889	-1.204627	-0.260614
H230	H	1.491223	-0.871293	0.072720
H231	H	1.824556	-0.537960	0.406053
N232	N	0.965783	-1.119620	-0.452389
N233	N	1.299116	-0.786287	-0.119055
N234	N	1.632449	-0.452954	0.214278
H235	H	0.972956	-1.197452	-0.445266
H236	H	1.306289	-0.864118	-0.111932
H237	H	1.639623	-0.530785	0.221401
H238	H	0.913223	-1.100511	-0.440882
H239	H	1.246556	-0.767178	-0.107549
H240	H	1.579890	-0.433845	0.225785
N241	N	0.965796	-0.645527	-0.934805
N242	N	1.299129	-0.312193	-0.601472
N243	N	1.632463	0.021140	-0.268138
H244	H	0.972945	-0.635312	-0.989328
H245	H	1.306278	-0.301979	-0.655995
H246	H	1.639611	0.031355	-0.322661
H247	H	0.977220	-0.720572	-0.921368
H248	H	1.310553	-0.387239	-0.588035
H249	H	1.643887	-0.053905	-0.254701
