data_functionalizedCrystal
_audit_creation_method	'MofGen! by Chris Wilmer'
_symmetry_space_group_name_H-M	'P1'
_symmetry_Int_Tables_number	1
_symmetry_cell_setting	triclinic
loop_
_symmetry_equiv_pos_as_xyz
  x,y,z
_cell_length_a	21.395364
_cell_length_b	18.101397
_cell_length_c	21.395355
_cell_angle_alpha	89.980066
_cell_angle_beta	89.975448
_cell_angle_gamma	90.035417
loop_
_atom_site_label
_atom_site_type_symbol
_atom_site_fract_x
_atom_site_fract_y
_atom_site_fract_z
Zn1	Zn	0.957904	-0.294620	-0.354255
Zn2	Zn	0.957825	-0.418443	-0.249475
Zn3	Zn	0.853119	-0.294652	-0.249492
Zn4	Zn	0.853107	-0.418456	-0.354215
O5	O	0.905489	-0.356543	-0.301860
O6	O	1.045571	-0.311026	-0.340366
O7	O	0.943908	-0.402030	-0.161800
O8	O	0.867057	-0.191015	-0.263413
O9	O	1.045513	-0.401999	-0.263384
O10	O	0.944042	-0.190991	-0.340382
O11	O	0.866980	-0.311082	-0.161812
O12	O	0.765439	-0.311094	-0.263374
O13	O	0.867036	-0.402021	-0.441899
O14	O	0.765430	-0.402053	-0.340314
O15	O	0.944030	-0.311039	-0.441928
O16	O	0.943896	-0.522078	-0.263346
O17	O	0.866960	-0.522088	-0.340298
C18	C	0.742701	-0.356579	-0.301842
C19	C	0.673060	-0.356612	-0.301849
C20	C	0.640399	-0.309320	-0.341995
C21	C	0.574964	-0.309301	-0.341998
C22	C	0.542191	-0.356586	-0.301861
C23	C	0.574860	-0.403881	-0.261707
C24	C	0.640294	-0.403894	-0.261701
C25	C	0.438477	-0.423279	-0.296822
C26	C	0.373044	-0.423267	-0.296832
C27	C	0.340371	-0.356545	-0.301875
C28	C	0.373138	-0.289834	-0.306920
C29	C	0.438572	-0.289847	-0.306915
C30	C	0.471239	-0.356577	-0.301862
C31	C	0.236757	-0.309228	-0.342026
C32	C	0.171321	-0.309207	-0.342024
C33	C	0.171218	-0.403794	-0.261736
C34	C	0.236654	-0.403809	-0.261734
C35	C	0.269419	-0.356527	-0.301883
C36	C	0.905435	-0.548954	-0.301829
C37	C	0.905469	-0.631268	-0.301837
C38	C	0.905549	-0.930359	-0.301894
C39	C	0.953820	-0.898996	-0.253348
C40	C	0.953988	-0.813378	-0.253474
C41	C	0.905510	-0.781976	-0.301865
C42	C	0.923415	-0.812992	-0.367908
C43	C	0.923788	-0.898637	-0.367644
C44	C	0.839244	-0.898884	-0.284969
C45	C	0.839572	-0.813234	-0.283495
C46	C	0.905486	-0.698117	-0.301853
C47	C	0.905574	-1.014218	-0.301911
C48	C	1.068912	-0.356507	-0.301878
C49	C	1.138553	-0.356492	-0.301885
C50	C	0.905541	-0.356528	-0.465283
C51	C	0.905563	-0.356522	-0.534924
C52	C	0.905559	-0.163381	-0.301904
C53	C	0.905590	-0.081067	-0.301923
C54	C	0.945652	-0.309145	-0.567654
C55	C	0.945651	-0.309113	-0.633089
C56	C	0.905568	-0.356471	-0.665793
C57	C	0.865471	-0.403851	-0.633055
C58	C	0.865468	-0.403876	-0.567621
C59	C	0.900602	-0.423154	-0.769457
C60	C	0.900609	-0.423130	-0.834890
C61	C	0.905571	-0.356393	-0.867613
C62	C	0.910541	-0.289678	-0.834896
C63	C	0.910538	-0.289703	-0.769462
C64	C	0.905565	-0.356449	-0.736745
C65	C	0.945662	-0.308978	-0.971295
C66	C	0.945656	-0.308945	-1.036732
C67	C	0.865480	-0.403689	-1.036697
C68	C	0.865482	-0.403715	-0.971262
C69	C	0.905576	-0.356361	-0.938565
C70	C	0.905473	-0.356504	-0.139072
C71	C	0.905572	-0.356302	-0.069431
H72	H	0.144730	-0.270692	-0.374714
H73	H	0.942785	-0.792409	-0.204504
H74	H	0.263437	-0.270724	-0.374713
H75	H	0.666886	-0.442406	-0.229008
C76	C	0.878363	-0.926675	-0.418177
C77	C	0.808620	-0.906049	-0.414934
C78	C	0.763201	-0.934085	-0.465469
C79	C	0.787524	-0.982747	-0.519248
C80	C	0.857270	-1.003376	-0.522493
C81	C	0.902689	-0.975339	-0.471958
H82	H	0.790612	-0.870024	-0.375122
H83	H	0.711570	-0.918814	-0.463067
H84	H	0.753902	-1.003501	-0.556657
H85	H	0.875279	-1.039400	-0.562305
H86	H	0.954320	-0.990610	-0.474360
H87	H	0.832840	-0.442299	-0.944613
H88	H	0.263246	-0.442322	-0.229045
C89	C	0.135178	-0.455809	-0.217582
C90	C	0.090192	-0.423623	-0.168443
C91	C	0.054149	-0.475637	-0.124285
C92	C	0.063092	-0.559836	-0.129265
C93	C	0.108081	-0.592026	-0.178406
C94	C	0.144124	-0.540013	-0.222564
H95	H	0.083569	-0.361290	-0.164755
H96	H	0.020845	-0.451807	-0.087909
H97	H	0.036411	-0.598340	-0.096577
H98	H	0.114703	-0.654360	-0.182094
H99	H	0.177427	-0.563842	-0.258941
H100	H	0.972255	-0.918544	-0.381981
C101	C	0.337005	-0.496648	-0.291283
C102	C	0.345938	-0.546026	-0.233351
C103	C	0.309902	-0.619410	-0.227803
C104	C	0.264934	-0.643416	-0.280187
C105	C	0.255999	-0.594037	-0.338124
C106	C	0.292035	-0.520653	-0.343672
H107	H	0.379228	-0.528257	-0.194570
H108	H	0.316517	-0.655964	-0.184915
H109	H	0.238258	-0.697739	-0.276081
H110	H	0.222709	-0.611806	-0.376905
H111	H	0.285420	-0.484099	-0.386560
H112	H	0.832820	-0.442455	-0.540973
H113	H	0.548366	-0.270786	-0.374689
H114	H	0.832837	-0.442241	-1.063324
C115	C	0.676440	-0.257304	-0.386151
C116	C	0.640509	-0.205278	-0.430309
C117	C	0.676552	-0.153260	-0.474463
C118	C	0.748527	-0.153268	-0.474460
C119	C	0.784463	-0.205296	-0.430300
C120	C	0.748419	-0.257314	-0.386146
H121	H	0.587225	-0.205271	-0.430313
H122	H	0.649949	-0.114745	-0.507153
H123	H	0.775208	-0.114761	-0.507145
H124	H	0.837746	-0.205303	-0.430296
H125	H	0.775022	-0.295828	-0.353456
H126	H	0.889332	-0.792652	-0.405051
C127	C	0.474414	-0.496678	-0.291272
C128	C	0.438376	-0.570056	-0.285730
C129	C	0.474312	-0.643452	-0.280179
C130	C	0.546287	-0.643470	-0.280170
C131	C	0.582330	-0.570089	-0.285712
C132	C	0.546393	-0.496693	-0.291263
H133	H	0.385092	-0.570046	-0.285737
H134	H	0.447631	-0.697774	-0.276076
H135	H	0.572889	-0.697802	-0.276060
H136	H	0.635614	-0.570099	-0.285705
H137	H	0.573075	-0.442371	-0.295366
H138	H	0.896393	-0.477486	-0.742819
H139	H	0.465249	-0.235528	-0.311021
C140	C	0.938878	-0.926886	-0.186996
C141	C	0.875309	-0.908958	-0.156838
C142	C	0.860364	-0.936855	-0.090484
C143	C	0.908988	-0.982680	-0.054288
C144	C	0.972561	-1.000611	-0.084445
C145	C	0.987506	-0.972714	-0.150799
H146	H	0.839311	-0.875034	-0.183633
H147	H	0.813303	-0.923582	-0.068160
H148	H	0.897925	-1.003331	-0.005169
H149	H	1.008559	-1.034535	-0.057650
H150	H	1.034567	-0.985987	-0.173123
C151	C	1.019812	-0.927970	-0.268302
C152	C	1.030017	-0.979934	-0.324353
C153	C	1.096008	-1.008907	-0.339310
C154	C	1.151795	-0.985918	-0.298215
C155	C	1.141592	-0.933952	-0.242161
C156	C	1.075601	-0.904978	-0.227204
H157	H	0.988719	-0.996954	-0.354777
H158	H	1.103561	-1.047376	-0.380806
H159	H	1.200646	-1.007366	-0.309287
H160	H	1.182890	-0.916931	-0.211737
H161	H	1.068048	-0.866509	-0.185708
H162	H	0.971338	-0.791473	-0.382487
H163	H	1.003103	-0.792822	-0.264673
C164	C	0.817240	-0.928128	-0.221035
C165	C	0.859203	-0.980972	-0.183377
C166	C	0.837208	-1.010216	-0.119440
C167	C	0.773250	-0.986615	-0.093161
C168	C	0.731283	-0.933768	-0.130820
C169	C	0.753278	-0.904525	-0.194757
H170	H	0.906553	-0.998445	-0.202829
H171	H	0.868275	-1.049337	-0.091562
H172	H	0.756968	-1.008263	-0.045831
H173	H	0.683934	-0.916295	-0.111368
H174	H	0.722211	-0.865404	-0.222634
C175	C	0.821329	-0.785853	-0.217839
C176	C	0.761813	-0.739252	-0.208840
C177	C	0.743574	-0.711864	-0.143183
C178	C	0.784852	-0.731078	-0.086526
C179	C	0.844373	-0.777682	-0.095523
C180	C	0.862611	-0.805069	-0.161179
H181	H	0.731252	-0.725026	-0.250782
H182	H	0.699513	-0.677364	-0.136523
H183	H	0.771351	-0.710804	-0.037923
H184	H	0.874933	-0.791907	-0.053580
H185	H	0.906673	-0.839569	-0.167839
H186	H	0.548172	-0.442381	-0.229026
C187	C	0.788375	-0.784430	-0.327798
C188	C	0.719936	-0.808302	-0.318252
C189	C	0.668746	-0.779525	-0.362579
C190	C	0.685993	-0.726877	-0.416452
C191	C	0.754434	-0.703002	-0.426001
C192	C	0.805625	-0.731779	-0.381674
H193	H	0.707166	-0.847278	-0.278370
H194	H	0.618081	-0.797199	-0.355511
H195	H	0.648098	-0.705575	-0.449266
H196	H	0.767204	-0.664026	-0.465883
H197	H	0.856290	-0.714105	-0.388742
H198	H	0.832833	-0.442408	-0.659687
H199	H	0.896566	-0.477454	-0.861523
C200	C	0.915997	-0.216320	-0.733475
C201	C	0.863587	-0.192439	-0.688470
C202	C	0.869044	-0.119055	-0.652483
C203	C	0.926911	-0.069550	-0.661502
C204	C	0.979325	-0.093429	-0.706509
C205	C	0.973869	-0.166814	-0.742495
H206	H	0.820747	-0.229087	-0.681792
H207	H	0.830243	-0.101378	-0.619166
H208	H	0.930950	-0.015226	-0.634862
H209	H	1.022166	-0.056782	-0.713186
H210	H	1.012670	-0.184491	-0.775812
H211	H	0.803279	-0.919169	-0.320327
H212	H	0.978299	-0.270585	-0.541036
H213	H	0.978295	-0.270530	-0.659742
C214	C	0.916016	-0.216261	-0.870883
C215	C	0.916026	-0.216228	-0.942858
C216	C	0.921512	-0.142815	-0.978847
C217	C	0.926989	-0.069436	-0.942862
C218	C	0.926979	-0.069467	-0.870883
C219	C	0.921493	-0.142879	-0.834893
H220	H	0.911971	-0.270550	-0.969500
H221	H	0.921518	-0.142793	-1.032131
H222	H	0.931050	-0.015092	-0.969504
H223	H	0.931034	-0.015145	-0.844241
H224	H	0.921487	-0.142901	-0.781609
C225	C	0.989755	-0.256824	-1.072737
C226	C	1.033854	-0.204739	-1.036768
C227	C	1.077953	-0.152617	-1.072774
C228	C	1.077953	-0.152580	-1.144749
C229	C	1.033852	-0.204667	-1.180722
C230	C	0.989753	-0.256789	-1.144716
H231	H	1.033856	-0.204764	-0.983484
H232	H	1.110599	-0.114058	-1.046144
H233	H	1.110597	-0.113996	-1.171403
H234	H	1.033850	-0.204641	-1.234006
H235	H	0.957107	-0.295348	-1.171346
H236	H	0.346537	-0.235503	-0.311027
H237	H	0.978305	-0.270415	-0.944672
