data_functionalizedCrystal
_audit_creation_method	'MofGen! by Chris Wilmer'
_symmetry_space_group_name_H-M	'P1'
_symmetry_Int_Tables_number	1
_symmetry_cell_setting	triclinic
loop_
_symmetry_equiv_pos_as_xyz
  x,y,z
_cell_length_a	19.121102
_cell_length_b	19.120786
_cell_length_c	12.645324
_cell_angle_alpha	87.521211
_cell_angle_beta	87.538151
_cell_angle_gamma	89.915559
loop_
_atom_site_label
_atom_site_type_symbol
_atom_site_fract_x
_atom_site_fract_y
_atom_site_fract_z
Zn1	Zn	1.059889	-0.324863	-0.646627
Zn2	Zn	1.559889	0.175137	-0.146627
Zn3	Zn	1.054792	-0.442125	-0.461466
Zn4	Zn	1.554792	0.057875	0.038534
Zn5	Zn	0.942644	-0.319893	-0.462152
Zn6	Zn	1.442644	0.180107	0.037848
Zn7	Zn	0.937618	-0.437061	-0.631473
Zn8	Zn	1.437618	0.062939	-0.131473
O9	O	0.998736	-0.380986	-0.550429
O10	O	1.498736	0.119014	-0.050429
O11	O	1.157319	-0.344617	-0.628120
O12	O	1.657319	0.155383	-0.128120
O13	O	1.039885	-0.425951	-0.313205
O14	O	1.539885	0.074049	0.186795
O15	O	0.962433	-0.222443	-0.493252
O16	O	1.462433	0.277557	0.006748
O17	O	1.153573	-0.430769	-0.492083
O18	O	1.653573	0.069231	0.007917
O19	O	1.048573	-0.226094	-0.628785
O20	O	1.548573	0.273906	-0.128785
O21	O	0.957490	-0.336147	-0.313709
O22	O	1.457490	0.163853	0.186291
O23	O	0.843871	-0.331237	-0.478558
O24	O	1.343871	0.168763	0.021442
O25	O	0.953867	-0.422138	-0.781835
O26	O	1.453867	0.077862	-0.281835
O27	O	0.840179	-0.417320	-0.602957
O28	O	1.340179	0.082680	-0.102957
O29	O	1.043700	-0.339706	-0.792968
O30	O	1.543700	0.160294	-0.292968
O31	O	1.035012	-0.539564	-0.477388
O32	O	1.535012	-0.039564	0.022612
O33	O	0.948924	-0.535843	-0.602291
O34	O	1.448924	-0.035843	-0.102291
C35	C	0.816588	-0.373190	-0.539188
C36	C	1.316588	0.126810	-0.039188
C37	C	0.738663	-0.369872	-0.534403
C38	C	1.238663	0.130128	-0.034403
C39	C	0.700147	-0.413199	-0.596812
C40	C	1.200147	0.086801	-0.096812
C41	C	0.626929	-0.410072	-0.592322
C42	C	1.126929	0.089928	-0.092322
C43	C	0.592228	-0.363621	-0.525416
C44	C	1.092228	0.136379	-0.025416
C45	C	0.630750	-0.320289	-0.463005
C46	C	1.130750	0.179711	0.036995
C47	C	0.703967	-0.323413	-0.467502
C48	C	1.203967	0.176587	0.032498
C49	C	0.371257	-0.351939	-0.508610
C50	C	0.871257	0.148061	-0.008610
C51	C	0.298035	-0.348820	-0.504115
C52	C	0.798035	0.151180	-0.004115
C53	C	0.294219	-0.438603	-0.633434
C54	C	0.794219	0.061397	-0.133434
C55	C	0.367437	-0.441726	-0.637920
C56	C	0.867437	0.058274	-0.137920
C57	C	0.405952	-0.398391	-0.575513
C58	C	0.905952	0.101609	-0.075513
C59	C	0.517388	-0.360425	-0.520822
C60	C	1.017388	0.139575	-0.020822
C61	C	0.480792	-0.401584	-0.580113
C62	C	0.980792	0.098416	-0.080113
C63	C	0.990889	-0.563143	-0.538145
C64	C	1.490889	-0.063143	-0.038145
C65	C	0.987596	-0.641073	-0.532929
C66	C	1.487596	-0.141073	-0.032929
C67	C	1.030864	-0.679524	-0.601096
C68	C	1.530864	-0.179524	-0.101096
C69	C	1.027767	-0.752748	-0.596197
C70	C	1.527767	-0.252748	-0.096197
C71	C	0.981405	-0.787519	-0.523125
C72	C	1.481405	-0.287519	-0.023125
C73	C	0.938132	-0.749063	-0.454955
C74	C	1.438132	-0.249063	0.045045
C75	C	0.941226	-0.675841	-0.459860
C76	C	1.441226	-0.175841	0.040140
C77	C	0.969819	-1.008512	-0.504786
C78	C	1.469819	-0.508512	-0.004786
C79	C	0.966730	-1.081740	-0.499884
C80	C	1.466730	-0.581740	0.000116
C81	C	1.056364	-1.085419	-0.641129
C82	C	1.556364	-0.585419	-0.141129
C83	C	1.059456	-1.012195	-0.646023
C84	C	1.559456	-0.512195	-0.146023
C85	C	1.016181	-0.973745	-0.577857
C86	C	1.516181	-0.473745	-0.077857
C87	C	0.978240	-0.862366	-0.518113
C88	C	1.478240	-0.362366	-0.018113
C89	C	1.019343	-0.898900	-0.582874
C90	C	1.519343	-0.398900	-0.082874
C91	C	1.181595	-0.388812	-0.561715
C92	C	1.681595	0.111188	-0.061715
C93	C	1.259519	-0.392148	-0.566524
C94	C	1.759519	0.107852	-0.066524
C95	C	0.998791	-0.380912	-0.826943
C96	C	1.498791	0.119088	-0.326943
C97	C	0.998815	-0.380880	-0.944777
C98	C	1.498815	0.119120	-0.444777
C99	C	1.006632	-0.198118	-0.562786
C100	C	1.506632	0.301882	-0.062786
C101	C	1.009998	-0.120191	-0.568052
C102	C	1.509998	0.379809	-0.068052
C103	C	1.055533	-0.329188	-1.119348
C104	C	1.555533	0.170812	-0.619348
C105	C	1.055367	-0.328986	-0.996790
C106	C	1.555367	0.171014	-0.496790
C107	C	0.925816	-0.357647	-0.986061
C108	C	1.425816	0.142353	-0.486061
C109	C	0.926164	-0.357251	-1.108707
C110	C	1.426164	0.142749	-0.608707
C111	C	1.014493	-0.455859	-1.108140
C112	C	1.514493	0.044141	-0.608140
C113	C	1.016126	-0.455555	-0.985660
C114	C	1.516126	0.044445	-0.485660
C115	C	0.998723	-0.381010	-0.274997
C116	C	1.498723	0.118990	0.225003
C117	C	0.998843	-0.380850	-0.157186
C118	C	1.498843	0.119150	0.342814
H119	H	1.068619	-0.651218	-0.660595
H120	H	1.568619	-0.151218	-0.160595
C121	C	0.907768	-0.283044	-1.150969
C122	C	1.407768	0.216956	-0.650969
N123	N	0.893923	-0.227147	-1.182797
N124	N	1.393923	0.272853	-0.682797
C125	C	0.887176	-0.787316	-0.374512
C126	C	1.387176	-0.287316	0.125488
N127	N	0.848813	-0.816129	-0.313896
N128	N	1.348813	-0.316129	0.186104
H129	H	1.091595	-1.116733	-0.696627
H130	H	1.591595	-0.616733	-0.196627
H131	H	0.882658	-0.393071	-1.133243
H132	H	1.382658	0.106929	-0.633243
H133	H	0.395685	-0.479553	-0.692399
H134	H	0.895685	0.020447	-0.192399
C135	C	0.259866	-0.297717	-0.430512
C136	C	0.759866	0.202283	0.069488
N137	N	0.231117	-0.259229	-0.375076
N138	N	0.731117	0.240771	0.124924
H139	H	0.728395	-0.451027	-0.651290
H140	H	1.228395	0.048973	-0.151290
H141	H	0.595572	-0.445355	-0.643140
H142	H	1.095572	0.054645	-0.143140
C143	C	0.867383	-0.406726	-0.939721
C144	C	1.367383	0.093274	-0.439721
N145	N	0.823371	-0.443692	-0.904814
N146	N	1.323371	0.056308	-0.404814
H147	H	1.109596	-0.343899	-0.969244
H148	H	1.609596	0.156101	-0.469244
H149	H	0.402607	-0.316659	-0.457785
H150	H	0.902607	0.183341	0.042215
H151	H	0.489126	-0.322605	-0.466345
H152	H	0.989126	0.177395	0.033655
C153	C	0.958663	-0.507914	-1.140350
C154	C	1.458663	-0.007914	-0.640350
N155	N	0.916610	-0.547117	-1.164618
N156	N	1.416610	-0.047117	-0.664618
C157	C	1.070341	-0.860649	-0.663250
C158	C	1.570341	-0.360649	-0.163250
N159	N	1.108756	-0.831832	-0.723784
N160	N	1.608756	-0.331832	-0.223784
H161	H	0.509048	-0.439402	-0.634592
H162	H	1.009048	0.060598	-0.134592
C163	C	0.927306	-0.900625	-0.437644
C164	C	1.427306	-0.400625	0.062356
N165	N	0.888963	-0.929445	-0.377005
N166	N	1.388963	-0.429445	0.122995
H167	H	1.063006	-0.784052	-0.651698
H168	H	1.563006	-0.284052	-0.151698
H169	H	0.928973	-1.110049	-0.440379
H170	H	1.428973	-0.610049	0.059621
H171	H	0.934583	-0.977212	-0.449281
H172	H	1.434583	-0.477212	0.050719
H173	H	1.097208	-0.983886	-0.705524
H174	H	1.597208	-0.483886	-0.205524
C175	C	0.964051	-0.510699	-0.937350
C176	C	1.464051	-0.010699	-0.437350
N177	N	0.924821	-0.552232	-0.900965
N178	N	1.424821	-0.052232	-0.400965
H179	H	1.045568	-0.273998	-1.153095
H180	H	1.545568	0.226002	-0.653095
H181	H	0.905992	-0.644534	-0.404352
H182	H	1.405992	-0.144534	0.095648
H183	H	0.911861	-0.303316	-0.957977
H184	H	1.411861	0.196684	-0.457977
C185	C	0.592577	-0.269190	-0.389411
C186	C	1.092577	0.230810	0.110589
N187	N	0.563825	-0.230702	-0.333976
N188	N	1.063825	0.269298	0.166024
C189	C	1.129052	-0.349136	-1.162622
C190	C	1.629052	0.150864	-0.662622
N191	N	1.184428	-0.364164	-1.195219
N192	N	1.684428	0.135836	-0.695219
C193	C	1.041699	-0.254006	-0.961148
C194	C	1.541699	0.245994	-0.461148
N195	N	1.031401	-0.197529	-0.934304
N196	N	1.531401	0.302471	-0.434304
C197	C	1.088677	-0.479149	-0.949522
C198	C	1.588677	0.020851	-0.449522
N199	N	1.143322	-0.496919	-0.922295
N200	N	1.643322	0.003081	-0.422295
C201	C	0.251847	-0.486263	-0.702085
C202	C	0.751847	0.013737	-0.202085
N203	N	0.219932	-0.522160	-0.753800
N204	N	0.719932	-0.022160	-0.253800
C205	C	0.746334	-0.275750	-0.398844
C206	C	1.246334	0.224250	0.101156
N207	N	0.778244	-0.239848	-0.347131
N208	N	1.278244	0.260152	0.152869
H209	H	1.066627	-0.476398	-1.141152
H210	H	1.566627	0.023602	-0.641152
