data_functionalizedCrystal
_audit_creation_method	'MofGen! by Chris Wilmer'
_symmetry_space_group_name_H-M	'P1'
_symmetry_Int_Tables_number	1
_symmetry_cell_setting	triclinic
loop_
_symmetry_equiv_pos_as_xyz
  x,y,z
_cell_length_a	19.121102
_cell_length_b	12.594515
_cell_length_c	12.594509
_cell_angle_alpha	90.026612
_cell_angle_beta	87.540104
_cell_angle_gamma	92.417425
loop_
_atom_site_label
_atom_site_type_symbol
_atom_site_fract_x
_atom_site_fract_y
_atom_site_fract_z
Zn1	Zn	1.073720	0.493233	-0.671199
Zn2	Zn	1.073623	0.671237	-0.493220
Zn3	Zn	0.956266	0.485674	-0.485645
Zn4	Zn	0.956230	0.663562	-0.663570
O5	O	1.014960	0.578426	-0.578408
O6	O	1.171992	0.523220	-0.653953
O7	O	1.058031	0.646670	-0.343267
O8	O	0.971903	0.337734	-0.510282
O9	O	1.171921	0.653999	-0.523192
O10	O	1.058195	0.343288	-0.646608
O11	O	0.971809	0.510337	-0.337702
O12	O	0.857977	0.502896	-0.502884
O13	O	0.971841	0.640919	-0.813529
O14	O	0.857951	0.633590	-0.633605
O15	O	1.058160	0.515779	-0.819135
O16	O	1.057995	0.819161	-0.515794
O17	O	0.971747	0.813522	-0.640950
C18	C	1.014876	0.854962	-0.578391
C19	C	1.014904	0.973269	-0.578423
C20	C	0.832480	0.566590	-0.566595
C21	C	0.754414	0.561553	-0.561566
C22	C	0.968016	1.110259	-0.646461
C23	C	1.032054	1.043494	-0.676710
C24	C	0.950872	1.038463	-0.548222
C25	C	1.079067	1.117298	-0.608771
C26	C	0.997842	1.112270	-0.480235
C27	C	1.061924	1.045540	-0.510449
C28	C	0.717743	0.627334	-0.627156
C29	C	0.644392	0.622586	-0.622436
C30	C	0.607713	0.552062	-0.552120
C31	C	0.644389	0.486274	-0.486528
C32	C	0.717739	0.491017	-0.491254
C33	C	0.386244	0.534327	-0.534456
C34	C	0.312889	0.529592	-0.529733
C35	C	0.312897	0.665903	-0.665644
C36	C	0.386248	0.670644	-0.670359
C37	C	0.422918	0.604852	-0.604770
C38	C	0.532737	0.547210	-0.547292
C39	C	0.497893	0.609700	-0.609605
C40	C	1.198153	0.590309	-0.590269
C41	C	1.276218	0.595373	-0.595323
C42	C	1.015035	1.300810	-0.578451
C43	C	1.014994	1.182502	-0.578470
C44	C	1.015007	0.578336	-0.856032
C45	C	1.015027	0.578298	-0.974339
C46	C	0.968093	0.646322	-1.040545
C47	C	1.032176	0.676477	-1.115474
C48	C	0.950994	0.548081	-1.110213
C49	C	1.079144	0.608506	-1.047712
C50	C	0.997919	0.480062	-1.042442
C51	C	1.062046	0.510183	-1.117342
C52	C	1.014954	0.578442	-0.301867
C53	C	1.015070	0.578189	-0.183570
H54	H	0.928375	1.138776	-0.704029
Cl55	Cl	0.975467	1.159002	-0.352037
H56	H	0.747602	0.684766	-0.684411
H57	H	0.527760	0.667115	-0.666860
Cl58	Cl	0.598294	0.705287	-0.704896
Cl59	Cl	0.486620	0.458553	-0.458897
Cl60	Cl	0.763840	0.408314	-0.408797
Cl61	Cl	0.906861	0.735280	-0.988636
H62	H	1.046669	0.759507	-1.147517
H63	H	1.046527	1.013252	-0.759765
H64	H	0.896683	1.003965	-0.522659
H65	H	0.614520	0.428847	-0.429279
Cl66	Cl	1.162801	0.648053	-1.005323
Cl67	Cl	0.432353	0.759310	-0.758757
Cl68	Cl	0.266794	0.748609	-0.748091
Cl69	Cl	1.123422	0.421302	-1.168961
H70	H	0.283028	0.472150	-0.472480
Cl71	Cl	0.975513	0.351904	-0.992927
Cl72	Cl	0.432334	0.451613	-0.452004
Cl73	Cl	0.867362	0.508691	-1.152813
H74	H	1.101660	1.017223	-0.452934
Cl75	Cl	1.162756	1.170350	-0.648388
