data_functionalizedCrystal
_audit_creation_method	'MofGen! by Chris Wilmer'
_symmetry_space_group_name_H-M	'P1'
_symmetry_Int_Tables_number	1
_symmetry_cell_setting	triclinic
loop_
_symmetry_equiv_pos_as_xyz
  x,y,z
_cell_length_a	27.732048
_cell_length_b	15.538191
_cell_length_c	14.750779
_cell_angle_alpha	82.427828
_cell_angle_beta	77.459753
_cell_angle_gamma	115.042626
loop_
_atom_site_label
_atom_site_type_symbol
_atom_site_fract_x
_atom_site_fract_y
_atom_site_fract_z
O1	O	-0.143284	-1.231553	-0.079812
O2	O	-0.087327	-0.956477	-0.079821
O3	O	-0.187172	-1.102563	-0.079798
O4	O	-0.043439	-1.085467	-0.079835
O5	O	-0.215394	-1.143860	0.079859
O6	O	-0.115550	-0.997774	0.079836
O7	O	-0.171506	-1.272849	0.079845
Zn8	Zn	-0.148009	-1.141868	0.105189
Zn9	Zn	-0.110825	-1.087458	-0.105165
O10	O	-0.071662	-1.126764	0.079822
C11	C	-0.095584	-0.941944	0.000007
C12	C	-0.078145	-0.837116	0.000004
C13	C	-0.219229	-1.122853	0.000033
C14	C	-0.272700	-1.121775	0.000041
C15	C	-0.163249	-1.287382	0.000015
C16	C	-0.180687	-1.392208	0.000012
C17	C	-0.625155	-1.201288	-0.000006
C18	C	-0.826125	-1.197277	-0.000019
O19	O	-0.869854	-1.269986	-0.000059
N20	N	-0.830382	-1.110657	-0.000021
C21	C	-0.784391	-1.025032	-0.000026
O22	O	-0.792622	-0.951262	-0.000038
C23	C	-0.583422	-1.029042	-0.000019
C24	C	-0.579170	-1.115670	-0.000008
C25	C	-0.620901	-1.287908	0.000005
C26	C	-0.570663	-1.288911	0.000014
C27	C	-0.524678	-1.203294	0.000012
C28	C	-0.528931	-1.116673	0.000001
C29	C	-0.537431	-0.943416	-0.000031
C30	C	-0.487187	-0.944426	-0.000032
C31	C	-0.482935	-1.031054	-0.000020
C32	C	-0.432708	-1.032059	0.000008
N33	N	-0.428450	-1.118679	0.000010
C34	C	-0.474435	-1.204296	0.000012
C35	C	-0.889905	-1.022934	-0.000028
C36	C	-0.940147	-1.021931	-0.000028
C37	C	-0.981877	-1.194176	-0.000022
C38	C	-0.931635	-1.195179	-0.000016
C39	C	-0.885648	-1.109554	-0.000026
C40	C	-0.368929	-1.206396	0.000031
C41	C	-0.318685	-1.207393	0.000043
C42	C	-0.276959	-1.035147	0.000033
C43	C	-0.327199	-1.034152	0.000025
C44	C	-0.373185	-1.119783	0.000021
O45	O	-0.388955	-0.959386	0.000036
O46	O	-0.466189	-1.278050	0.000002
C47	C	-0.675394	-1.200285	-0.000014
C48	C	-0.679647	-1.113664	-0.000025
C49	C	-0.633662	-1.028046	-0.000027
C50	C	-0.729890	-1.112662	-0.000025
C51	C	-0.775875	-1.198279	-0.000023
C52	C	-0.771617	-1.284899	-0.000021
C53	C	-0.721379	-1.285902	-0.000012
C54	C	-0.637920	-0.941427	-0.000029
C55	C	-0.688160	-0.940431	-0.000036
C56	C	-0.734145	-1.026048	-0.000034
C57	C	-0.039604	-1.106473	-0.000011
C58	C	0.013868	-1.107549	-0.000025
N59	N	-0.173388	-1.179009	0.248751
C60	C	-0.251395	-0.551855	0.000034
C61	C	-0.234996	-0.453349	0.000029
C62	C	-0.142756	-0.429558	0.000005
C63	C	-0.159148	-0.528065	0.000015
C64	C	-0.213468	-0.589206	0.000028
C65	C	-0.121222	-0.565415	0.000009
C66	C	-0.137612	-0.663912	0.000014
C67	C	-0.191928	-0.725059	0.000024
C68	C	-0.229858	-0.687703	0.000032
C69	C	-0.066901	-0.504271	-0.000011
C70	C	-0.028974	-0.541621	-0.000017
C71	C	-0.045365	-0.640122	-0.000005
C72	C	-0.099682	-0.701268	0.000005
C73	C	-0.007436	-0.677478	-0.000014
C74	C	-0.023826	-0.775975	-0.000009
C75	C	-0.116072	-0.799765	0.000010
N76	N	-0.085451	-1.050325	-0.248727
C77	C	-0.014593	-0.946598	0.600532
C78	C	-0.032375	-0.972630	0.701036
C79	C	-0.120767	-1.102015	0.701019
C80	C	-0.102994	-1.075991	0.600514
C81	C	-0.049906	-0.998282	0.550278
C82	C	-0.138307	-1.127675	0.550259
C83	C	-0.120534	-1.101655	0.449763
C84	C	-0.067447	-1.023951	0.399521
C85	C	-0.032133	-0.972262	0.449782
C86	C	-0.191393	-1.205388	0.600497
C87	C	-0.226706	-1.257072	0.550242
C88	C	-0.208935	-1.231048	0.449744
C89	C	-0.155848	-1.153344	0.399502
C90	C	-0.244249	-1.282737	0.399483
C91	C	-0.226476	-1.256717	0.298986
C92	C	-0.138075	-1.127325	0.299005
H93	H	-0.315229	-1.277939	0.000055
F94	F	-0.209371	-0.829888	0.000023
H95	H	-0.094847	-1.064040	0.258102
F96	F	-0.331728	-0.941958	0.000030
F97	F	0.016540	-0.815728	-0.000017
F98	F	-0.048530	-0.996263	0.292562
F99	F	0.041907	-0.863882	0.547066
F100	F	-0.228011	-0.944032	0.000031
F101	F	0.024368	-0.889546	0.396315
F102	F	-0.927115	-1.287379	-0.000003
H103	H	-0.160306	-0.849552	0.000026
H104	H	-0.658340	-1.357632	0.000003
H105	H	-0.163991	-1.165289	0.741932
F106	F	-0.287673	-0.752783	0.000057
H107	H	-0.255232	-1.298805	0.258069
F108	F	-0.084946	-0.364476	-0.000015
H109	H	-0.540881	-0.872873	-0.000046
H110	H	-0.003613	-0.930537	0.741948
F111	F	-0.417864	-1.297535	0.000025
H112	H	-0.567207	-1.359452	0.000019
F113	F	-0.049458	-0.399440	-0.000017
F114	F	-0.716861	-1.378103	-0.000005
F115	F	-0.438245	-0.853288	-0.000045
F116	F	-0.275369	-0.413606	0.000047
F117	F	-0.820568	-1.376021	-0.000013
F118	F	-0.692678	-0.848224	-0.000043
F119	F	-0.309210	-0.616935	0.000059
H120	H	-1.019327	-1.263889	-0.000020
F121	F	0.028836	-0.476540	-0.000037
H122	H	0.036793	-0.627680	-0.000034
H123	H	-0.600480	-0.871704	-0.000033
H124	H	-0.205861	-1.226573	0.682327
F125	F	-0.283204	-1.339776	0.603715
H126	H	-0.943606	-0.951395	-0.000020
F127	F	-0.840965	-0.931793	-0.000038
F128	F	-0.300745	-1.365447	0.452958
