data_functionalizedCrystal
_audit_creation_method	'MofGen! by Chris Wilmer'
_symmetry_space_group_name_H-M	'P1'
_symmetry_Int_Tables_number	1
_symmetry_cell_setting	triclinic
loop_
_symmetry_equiv_pos_as_xyz
  x,y,z
_cell_length_a	16.109301
_cell_length_b	17.038272
_cell_length_c	14.586319
_cell_angle_alpha	89.995924
_cell_angle_beta	89.999213
_cell_angle_gamma	87.286518
loop_
_atom_site_label
_atom_site_type_symbol
_atom_site_fract_x
_atom_site_fract_y
_atom_site_fract_z
O1	O	1.110268	0.100495	-0.076183
O2	O	1.443601	0.433828	0.257150
O3	O	1.776934	0.767162	0.590484
O4	O	0.869094	0.113001	-0.076198
O5	O	1.202427	0.446335	0.257136
O6	O	1.535761	0.779668	0.590469
O7	O	0.988248	-0.007067	-0.076183
O8	O	1.321581	0.326266	0.257150
O9	O	1.654914	0.659599	0.590483
O10	O	0.991114	0.220564	-0.076198
O11	O	1.324448	0.553897	0.257136
O12	O	1.657781	0.887230	0.590469
O13	O	0.988239	-0.007069	0.076298
O14	O	1.321572	0.326264	0.409631
O15	O	1.654905	0.659598	0.742964
O16	O	0.869085	0.113000	0.076283
O17	O	1.202418	0.446333	0.409616
O18	O	1.535752	0.779666	0.742950
O19	O	1.110259	0.100493	0.076298
O20	O	1.443592	0.433827	0.409631
O21	O	1.776925	0.767160	0.742964
Cu22	Cu	0.989671	0.106746	0.090213
Cu23	Cu	1.323004	0.440080	0.423546
Cu24	Cu	1.656338	0.773413	0.756880
Cu25	Cu	0.989682	0.106748	-0.090113
Cu26	Cu	1.323015	0.440082	0.243220
Cu27	Cu	1.656348	0.773415	0.576554
O28	O	0.991105	0.220562	0.076283
O29	O	1.324439	0.553895	0.409617
O30	O	1.657772	0.887228	0.742950
C31	C	0.838079	0.112494	0.000041
C32	C	1.171412	0.445827	0.333374
C33	C	1.504745	0.779161	0.666708
C34	C	0.745676	0.110975	0.000035
C35	C	1.079009	0.444308	0.333369
C36	C	1.412342	0.777642	0.666702
C37	C	0.528212	0.178690	0.000042
C38	C	0.861545	0.512023	0.333375
C39	C	1.194879	0.845356	0.666709
C40	C	0.441390	0.177257	0.000048
C41	C	0.774723	0.510590	0.333381
C42	C	1.108057	0.843923	0.666714
C43	C	0.451147	0.034799	0.000053
C44	C	0.784481	0.368133	0.333386
C45	C	1.117814	0.701466	0.666720
C46	C	0.537968	0.036233	0.000054
C47	C	0.871301	0.369567	0.333387
C48	C	1.204634	0.702900	0.666720
C49	C	0.576498	0.108181	0.000043
C50	C	0.909831	0.441514	0.333377
C51	C	1.243164	0.774848	0.666710
C52	C	0.402855	0.105314	0.000049
C53	C	0.736188	0.438647	0.333382
C54	C	1.069522	0.771980	0.666715
C55	C	0.308719	0.103759	0.000055
C56	C	0.642052	0.437093	0.333389
C57	C	0.975385	0.770426	0.666722
C58	C	0.670640	0.109736	0.000039
C59	C	1.003974	0.443069	0.333372
C60	C	1.337307	0.776402	0.666705
C61	C	0.985636	-0.036196	0.000057
C62	C	1.318969	0.297137	0.333390
C63	C	1.652302	0.630470	0.666724
C64	C	0.977857	-0.122989	0.000056
C65	C	1.311190	0.210344	0.333390
C66	C	1.644523	0.543678	0.666723
C67	C	1.049277	-0.173104	0.000062
C68	C	1.382611	0.160229	0.333395
C69	C	1.715944	0.493563	0.666728
C70	C	1.041963	-0.254654	0.000052
C71	C	1.375297	0.078679	0.333386
C72	C	1.708630	0.412012	0.666719
C73	C	0.963228	-0.286089	0.000044
C74	C	1.296561	0.047245	0.333378
C75	C	1.629894	0.380578	0.666711
C76	C	0.891802	-0.235967	0.000036
C77	C	1.225135	0.097366	0.333370
C78	C	1.558468	0.430699	0.666703
C79	C	0.899116	-0.154418	0.000039
C80	C	1.232450	0.178915	0.333372
C81	C	1.565783	0.512248	0.666706
C82	C	0.937385	-0.531846	0.000030
C83	C	1.270718	-0.198513	0.333364
C84	C	1.604052	0.134820	0.666697
C85	C	0.930076	-0.613402	0.000031
C86	C	1.263409	-0.280068	0.333364
C87	C	1.596742	0.053265	0.666697
C88	C	1.080238	-0.632083	0.000045
C89	C	1.413571	-0.298750	0.333378
C90	C	1.746905	0.034584	0.666711
C91	C	1.087546	-0.550532	0.000053
C92	C	1.420879	-0.217198	0.333386
C93	C	1.754213	0.116135	0.666720
C94	C	1.016120	-0.500418	0.000040
C95	C	1.349453	-0.167084	0.333373
C96	C	1.682787	0.166249	0.666707
C97	C	0.955749	-0.369446	0.000038
C98	C	1.289083	-0.036113	0.333371
C99	C	1.622416	0.297221	0.666705
C100	C	1.023599	-0.417062	0.000040
C101	C	1.356932	-0.083728	0.333373
C102	C	1.690266	0.249605	0.666707
C103	C	1.141274	0.101001	0.000057
C104	C	1.474608	0.434334	0.333391
C105	C	1.807941	0.767667	0.666724
C106	C	1.233677	0.102519	0.000057
C107	C	1.567011	0.435853	0.333390
C108	C	1.900344	0.769186	0.666723
C109	C	0.993717	0.249691	0.000041
C110	C	1.327050	0.583024	0.333374
C111	C	1.660384	0.916358	0.666708
C112	C	1.001496	0.336484	0.000036
C113	C	1.334830	0.669817	0.333369
C114	C	1.668163	1.003150	0.666702
N115	N	0.989670	0.106744	0.217045
N116	N	1.323003	0.440078	0.550378
N117	N	1.656336	0.773411	0.883712
N118	N	0.989689	0.106744	-0.216945
N119	N	1.323023	0.440077	0.116389
N120	N	1.656356	0.773411	0.449722
C121	C	1.042451	0.053596	0.452058
C122	C	1.375784	0.386929	0.785391
C123	C	1.709117	0.720262	1.118724
C124	C	1.042453	0.053594	0.548039
C125	C	1.375786	0.386927	0.881372
C126	C	1.709120	0.720260	1.214706
C127	C	0.936902	0.159895	0.548036
C128	C	1.270236	0.493229	0.881369
C129	C	1.603569	0.826562	1.214702
C130	C	0.936896	0.159893	0.452056
C131	C	1.270230	0.493226	0.785389
C132	C	1.603563	0.826559	1.118723
C133	C	0.989675	0.106744	0.404070
C134	C	1.323009	0.440077	0.737403
C135	C	1.656342	0.773411	1.070736
C136	C	0.989684	0.106744	0.596030
C137	C	1.323017	0.440078	0.929364
C138	C	1.656350	0.773411	1.262697
C139	C	0.989686	0.106743	0.700098
C140	C	1.323019	0.440076	1.033431
C141	C	1.656352	0.773409	1.366764
C142	C	0.989672	0.106744	0.299996
C143	C	1.323006	0.440078	0.633329
C144	C	1.656339	0.773411	0.966663
H145	H	0.577284	-0.021187	0.000057
H146	H	0.910617	0.312146	0.333391
H147	H	1.243950	0.645480	0.666724
H148	H	1.113392	-0.147517	0.000074
H149	H	1.446726	0.185816	0.333407
H150	H	1.780059	0.519149	0.666740
F151	F	0.410133	-0.041768	0.000060
F152	F	0.743467	0.291565	0.333393
F153	F	1.076800	0.624899	0.666727
H154	H	1.100122	-0.295455	0.000059
H155	H	1.433455	0.037878	0.333392
H156	H	1.766788	0.371211	0.666725
H157	H	0.402079	0.234672	0.000048
H158	H	0.735412	0.568006	0.333382
H159	H	1.068746	0.901339	0.666715
H160	H	1.151661	-0.524945	0.000059
H161	H	1.484994	-0.191611	0.333393
H162	H	1.818327	0.141722	0.666726
H163	H	1.085425	0.010318	0.412989
H164	H	1.418759	0.343651	0.746323
H165	H	1.752092	0.676984	1.079656
F166	F	0.880720	0.216460	0.400980
F167	F	1.214053	0.549793	0.734313
F168	F	1.547386	0.883127	1.067646
F169	F	0.808005	-0.269424	0.000018
F170	F	1.141338	0.063909	0.333351
F171	F	1.474671	0.397243	0.666684
F172	F	0.880736	0.216459	0.599112
F173	F	1.214069	0.549793	0.932446
F174	F	1.547403	0.883126	1.265779
H175	H	1.138389	-0.672894	0.000053
H176	H	1.471722	-0.339561	0.333387
H177	H	1.805055	-0.006228	0.666720
F178	F	0.846271	-0.646853	0.000027
F179	F	1.179604	-0.313520	0.333360
F180	F	1.512937	0.019813	0.666693
F181	F	0.861366	-0.478521	0.000014
F182	F	1.194699	-0.145188	0.333348
F183	F	1.528033	0.188145	0.666681
H184	H	0.559580	0.237274	0.000040
H185	H	0.892914	0.570607	0.333374
H186	H	1.226247	0.903941	0.666707
H187	H	0.840958	-0.113615	0.000035
H188	H	1.174291	0.219718	0.333368
H189	H	1.507625	0.553052	0.666701
H190	H	1.087705	-0.391465	0.000026
H191	H	1.421038	-0.058131	0.333359
H192	H	1.754372	0.275202	0.666693
F193	F	1.098622	-0.002975	0.599108
F194	F	1.431955	0.330358	0.932442
F195	F	1.765288	0.663692	1.265775
F196	F	0.871955	-0.402908	0.000026
F197	F	1.205288	-0.069575	0.333359
F198	F	1.538622	0.263759	0.666692
