data_functionalizedCrystal
_audit_creation_method	'MofGen! by Chris Wilmer'
_symmetry_space_group_name_H-M	'P1'
_symmetry_Int_Tables_number	1
_symmetry_cell_setting	triclinic
loop_
_symmetry_equiv_pos_as_xyz
  x,y,z
_cell_length_a	11.792241
_cell_length_b	10.868271
_cell_length_c	9.065218
_cell_angle_alpha	89.996715
_cell_angle_beta	95.395350
_cell_angle_gamma	90.000107
loop_
_atom_site_label
_atom_site_type_symbol
_atom_site_fract_x
_atom_site_fract_y
_atom_site_fract_z
O1	O	1.508030	0.102197	-0.202225
O2	O	2.008030	0.602197	0.297775
O3	O	1.177804	0.102226	-0.223066
O4	O	1.677804	0.602226	0.276934
O5	O	1.349743	0.102208	0.002061
O6	O	1.849743	0.602208	0.502061
O7	O	1.336091	0.102215	-0.427352
O8	O	1.836091	0.602215	0.072648
O9	O	1.349728	-0.102436	0.002070
O10	O	1.849728	0.397564	0.502070
O11	O	1.177790	-0.102419	-0.223057
O12	O	1.677790	0.397581	0.276943
O13	O	1.508016	-0.102447	-0.202216
O14	O	2.008016	0.397553	0.297784
Zn15	Zn	1.342900	-0.134925	-0.212635
Zn16	Zn	1.842900	0.365075	0.287365
Zn17	Zn	1.342919	0.134703	-0.212647
Zn18	Zn	1.842919	0.634703	0.287353
O19	O	1.336077	-0.102430	-0.427343
O20	O	1.836077	0.397570	0.072657
C21	C	1.135499	-0.000093	-0.221752
C22	C	1.635499	0.499907	0.278248
C23	C	1.009464	-0.000082	-0.217834
C24	C	1.509464	0.499918	0.282166
C25	C	0.778711	-0.000118	-0.210629
C26	C	1.278711	0.499882	0.289371
C27	C	0.907119	-0.000098	-0.214632
C28	C	1.407119	0.499902	0.285368
N29	N	1.342896	-0.318939	-0.212626
N30	N	1.842896	0.181061	0.287374
C31	C	1.342914	-0.569945	-0.212644
C32	C	1.842914	-0.069945	0.287356
C33	C	1.342900	-0.430268	-0.212638
C34	C	1.842900	0.069732	0.287362
C35	C	1.550321	-0.000126	-0.203529
C36	C	2.050321	0.499874	0.296471
C37	C	1.676356	-0.000129	-0.207448
C38	C	2.176356	0.499871	0.292552
C39	C	1.348424	-0.000112	0.057040
C40	C	1.848424	0.499888	0.557040
C41	C	1.344501	-0.000106	0.220846
C42	C	1.844501	0.499894	0.720846
N43	N	1.342933	0.318717	-0.212644
N44	N	1.842933	0.818717	0.287356
C45	C	1.337396	-0.000107	-0.482322
C46	C	1.837396	0.499893	0.017678
C47	C	1.341319	-0.000105	-0.646128
C48	C	1.841319	0.499895	-0.146128
