data_functionalizedCrystal
_audit_creation_method	'MofGen! by Chris Wilmer'
_symmetry_space_group_name_H-M	'P1'
_symmetry_Int_Tables_number	1
_symmetry_cell_setting	triclinic
loop_
_symmetry_equiv_pos_as_xyz
  x,y,z
_cell_length_a	19.805407
_cell_length_b	18.050589
_cell_length_c	19.805399
_cell_angle_alpha	89.977706
_cell_angle_beta	89.980427
_cell_angle_gamma	90.028221
loop_
_atom_site_label
_atom_site_type_symbol
_atom_site_fract_x
_atom_site_fract_y
_atom_site_fract_z
Zn1	Zn	1.034727	-0.295677	-0.382745
Zn2	Zn	1.534727	0.204323	0.117255
Zn3	Zn	1.034638	-0.419869	-0.269567
Zn4	Zn	1.534638	0.080131	0.230433
Zn5	Zn	0.921542	-0.295697	-0.269569
Zn6	Zn	1.421542	0.204303	0.230431
Zn7	Zn	0.921502	-0.419829	-0.382713
Zn8	Zn	1.421502	0.080171	0.117287
O9	O	0.978102	-0.357768	-0.326148
O10	O	1.478102	0.142232	0.173852
O11	O	1.129432	-0.312159	-0.367743
O12	O	1.629432	0.187841	0.132257
O13	O	1.019616	-0.403422	-0.174850
O14	O	1.519616	0.096578	0.325150
O15	O	0.936610	-0.191770	-0.284596
O16	O	1.436610	0.308230	0.215404
O17	O	1.129367	-0.403402	-0.284592
O18	O	1.629367	0.096598	0.215408
O19	O	1.019767	-0.191755	-0.367746
O20	O	1.519767	0.308245	0.132254
O21	O	0.936524	-0.312194	-0.174852
O22	O	1.436524	0.187806	0.325148
O23	O	0.826820	-0.312156	-0.284566
O24	O	1.326820	0.187844	0.215434
O25	O	0.936542	-0.403335	-0.477434
O26	O	1.436542	0.096665	0.022566
O27	O	0.826791	-0.403355	-0.367693
O28	O	1.326791	0.096645	0.132307
O29	O	1.019728	-0.312121	-0.477457
O30	O	1.519728	0.187879	0.022543
O31	O	1.019577	-0.523788	-0.284562
O32	O	1.519577	-0.023788	0.215438
O33	O	0.936456	-0.523759	-0.367690
O34	O	1.436456	-0.023759	0.132310
C35	C	0.802246	-0.357754	-0.326127
C36	C	1.302246	0.142246	0.173873
C37	C	0.727014	-0.357766	-0.326133
C38	C	1.227014	0.142234	0.173867
C39	C	0.691673	-0.405325	-0.369347
C40	C	1.191673	0.094675	0.130653
C41	C	0.620984	-0.405326	-0.369357
C42	C	1.120984	0.094674	0.130643
C43	C	0.585639	-0.357771	-0.326148
C44	C	1.085639	0.142229	0.173852
C45	C	0.620985	-0.310207	-0.282933
C46	C	1.120985	0.189793	0.217067
C47	C	0.691673	-0.310203	-0.282927
C48	C	1.191673	0.189797	0.217073
C49	C	0.335912	-0.310224	-0.282955
C50	C	0.835912	0.189776	0.217045
C51	C	0.265220	-0.310233	-0.282962
C52	C	0.765220	0.189767	0.217038
C53	C	0.265224	-0.405347	-0.369385
C54	C	0.765224	0.094653	0.130615
C55	C	0.335911	-0.405342	-0.369379
C56	C	0.835911	0.094658	0.130621
C57	C	0.371251	-0.357776	-0.326166
C58	C	0.871251	0.142224	0.173834
C59	C	0.447900	-0.357774	-0.326157
C60	C	0.947900	0.142226	0.173843
C61	C	0.508992	-0.357776	-0.326153
C62	C	1.008992	0.142224	0.173847
C63	C	0.978021	-0.550720	-0.326137
C64	C	1.478021	-0.050720	0.173863
C65	C	0.978048	-0.633266	-0.326155
C66	C	1.478048	-0.133266	0.173845
C67	C	0.932891	-0.832728	-0.371344
C68	C	1.432891	-0.332728	0.128656
C69	C	0.916392	-0.882167	-0.309581
C70	C	1.416392	-0.382167	0.190419
C71	C	0.978114	-0.784396	-0.326164
C72	C	1.478114	-0.284396	0.173836
C73	C	0.994646	-0.882039	-0.387934
C74	C	1.494646	-0.382039	0.112066
C75	C	0.978177	-0.930381	-0.326178
C76	C	1.478177	-0.430381	0.173822
C77	C	0.961583	-0.832748	-0.264368
C78	C	1.461583	-0.332748	0.235632
C79	C	1.039865	-0.832616	-0.342762
C80	C	1.539865	-0.332616	0.157238
C81	C	1.023390	-0.882033	-0.280957
C82	C	1.523390	-0.382033	0.219043
C83	C	0.978076	-0.700298	-0.326157
C84	C	1.478076	-0.200298	0.173843
C85	C	0.978215	-1.014478	-0.326178
C86	C	1.478215	-0.514478	0.173822
C87	C	1.154645	-0.357783	-0.326171
C88	C	1.654645	0.142217	0.173829
C89	C	1.229877	-0.357789	-0.326180
C90	C	1.729877	0.142211	0.173820
C91	C	0.978140	-0.357721	-0.502691
C92	C	1.478140	0.142279	-0.002691
C93	C	0.978156	-0.357701	-0.577923
C94	C	1.478156	0.142299	-0.077923
C95	C	0.978203	-0.164062	-0.326175
C96	C	1.478203	0.335938	0.173825
C97	C	0.978246	-0.081517	-0.326186
C98	C	1.478246	0.418483	0.173814
C99	C	1.021472	-0.310204	-0.613280
C100	C	1.521472	0.189796	-0.113280
C101	C	1.021479	-0.310182	-0.683969
C102	C	1.521479	0.189818	-0.183969
C103	C	0.978173	-0.357662	-0.719299
C104	C	1.478173	0.142338	-0.219299
C105	C	0.934852	-0.405162	-0.683937
C106	C	1.434852	0.094838	-0.183937
C107	C	0.934843	-0.405180	-0.613250
C108	C	1.434843	0.094820	-0.113250
C109	C	0.934891	-0.405093	-0.969010
C110	C	1.434891	0.094907	-0.469010
C111	C	0.934905	-0.405074	-1.039702
C112	C	1.434905	0.094926	-0.539702
C113	C	1.021527	-0.310096	-1.039729
C114	C	1.521527	0.189904	-0.539729
C115	C	1.021518	-0.310113	-0.969042
C116	C	1.521518	0.189887	-0.469042
C117	C	0.978195	-0.357609	-0.933686
C118	C	1.478195	0.142391	-0.433686
C119	C	0.978187	-0.357631	-0.857038
C120	C	1.478187	0.142369	-0.357038
C121	C	0.978184	-0.357645	-0.795946
C122	C	1.478184	0.142355	-0.295946
C123	C	0.978103	-0.357761	-0.150292
C124	C	1.478103	0.142239	0.349708
C125	C	0.978218	-0.357572	-0.075061
C126	C	1.478218	0.142428	0.424939
H127	H	0.364686	-0.444069	-0.404562
H128	H	0.864686	0.055931	0.095438
O129	O	0.854176	-0.908260	-0.292815
O130	O	1.354176	-0.408260	0.207185
C131	C	0.784666	-1.015812	-0.273525
C132	C	1.284666	-0.515812	0.226475
C133	C	0.855163	-0.986365	-0.292498
C134	C	1.355163	-0.486365	0.207502
H135	H	0.785437	-1.078962	-0.273277
H136	H	1.285437	-0.578962	0.226723
H137	H	0.770207	-0.994747	-0.221226
H138	H	1.270207	-0.494747	0.278774
H139	H	0.746146	-0.995519	-0.312077
H140	H	1.246146	-0.495519	0.187923
H141	H	0.893730	-1.006645	-0.253992
H142	H	1.393730	-0.506645	0.246008
H143	H	0.869564	-1.007424	-0.344815
H144	H	1.369564	-0.507424	0.155185
O145	O	0.892898	-0.451174	-1.074128
O146	O	1.392898	0.048826	-0.574128
C147	C	0.854504	-0.493210	-1.183016
C148	C	1.354504	0.006790	-0.683016
C149	C	0.902117	-0.440978	-1.144113
C150	C	1.402117	0.059022	-0.644113
H151	H	0.861931	-0.484973	-1.239606
H152	H	1.361931	0.015027	-0.739606
H153	H	0.866355	-0.553114	-1.169160
H154	H	1.366355	-0.053114	-0.669160
H155	H	0.799938	-0.480173	-1.169074
H156	H	1.299938	0.019827	-0.669074
H157	H	0.956699	-0.453947	-1.158034
H158	H	1.456699	0.046053	-0.658034
H159	H	0.890208	-0.381088	-1.157972
H160	H	1.390208	0.118912	-0.657972
H161	H	0.899589	-0.443819	-0.712708
H162	H	1.399589	0.056181	-0.212708
H163	H	0.236441	-0.444075	-0.404574
H164	H	0.736441	0.055925	0.095426
H165	H	1.056740	-0.271542	-0.584520
H166	H	1.556740	0.228458	-0.084520
H167	H	1.056784	-0.271452	-0.940280
H168	H	1.556784	0.228548	-0.440280
H169	H	1.056801	-0.271419	-1.068525
H170	H	1.556801	0.228581	-0.568525
H171	H	0.899563	-0.443850	-0.584463
H172	H	1.399563	0.056150	-0.084463
H173	H	1.092045	-0.810837	-0.356819
H174	H	1.592045	-0.310837	0.143181
O175	O	0.892779	-0.451290	-0.934776
O176	O	1.392779	0.048710	-0.434776
C177	C	0.806806	-0.545438	-0.942215
C178	C	1.306806	-0.045438	-0.442215
C179	C	0.854484	-0.493175	-0.981073
C180	C	1.354484	0.006825	-0.481073
H181	H	0.775822	-0.579304	-0.979629
H182	H	1.275822	-0.079304	-0.479629
H183	H	0.837805	-0.584338	-0.909130
H184	H	1.337805	-0.084338	-0.409130
H185	H	0.771460	-0.511319	-0.909112
H186	H	1.271460	-0.011319	-0.409112
H187	H	0.889840	-0.527235	-1.014213
H188	H	1.389840	-0.027235	-0.514213
H189	H	0.823443	-0.454273	-1.014116
H190	H	1.323443	0.045727	-0.514116
H191	H	0.720446	-0.444052	-0.404530
H192	H	1.220446	0.055948	0.095470
O193	O	0.586758	-0.451604	-0.411348
O194	O	1.086758	0.048396	0.088652
C195	C	0.594221	-0.545935	-0.497080
C196	C	1.094221	-0.045935	0.002920
C197	C	0.633065	-0.493570	-0.449549
C198	C	1.133065	0.006430	0.050451
H199	H	0.631644	-0.579868	-0.527988
H200	H	1.131644	-0.079868	-0.027988
H201	H	0.561120	-0.584769	-0.465971
H202	H	1.061120	-0.084769	0.034029
H203	H	0.561134	-0.511892	-0.532504
H204	H	1.061134	-0.011892	-0.032504
H205	H	0.666189	-0.527554	-0.414115
H206	H	1.166189	-0.027554	0.085885
H207	H	0.666124	-0.454735	-0.480700
H208	H	1.166124	0.045265	0.019300
H209	H	0.236444	-0.271504	-0.247777
H210	H	0.736444	0.228496	0.252223
O211	O	1.068971	-0.907670	-0.235241
O212	O	1.568971	-0.407670	0.264759
C213	C	1.103079	-0.911469	-0.118515
C214	C	1.603079	-0.411469	0.381485
C215	C	1.051407	-0.882398	-0.170214
C216	C	1.551407	-0.382398	0.329786
H217	H	1.088904	-0.891036	-0.065931
H218	H	1.588904	-0.391036	0.434069
H219	H	1.103085	-0.974623	-0.119107
H220	H	1.603085	-0.474623	0.380893
H221	H	1.155534	-0.890226	-0.132245
H222	H	1.655534	-0.390226	0.367755
H223	H	0.998926	-0.903586	-0.156520
H224	H	1.498926	-0.403586	0.343480
H225	H	1.051459	-0.819244	-0.169612
H226	H	1.551459	-0.319244	0.330388
O227	O	0.370131	-0.263995	-0.240916
O228	O	0.870131	0.236005	0.259084
C229	C	0.362662	-0.169614	-0.155230
C230	C	0.862662	0.330386	0.344770
C231	C	0.323821	-0.221947	-0.202794
C232	C	0.823821	0.278053	0.297206
H233	H	0.325237	-0.135593	-0.124406
H234	H	0.825237	0.364407	0.375594
H235	H	0.395713	-0.203613	-0.119735
H236	H	0.895713	0.296387	0.380265
H237	H	0.395798	-0.130856	-0.186378
H238	H	0.895798	0.369144	0.313622
H239	H	0.290648	-0.260716	-0.171701
H240	H	0.790648	0.239284	0.328299
H241	H	0.290812	-0.187902	-0.238291
H242	H	0.790812	0.312098	0.261709
H243	H	1.008603	-0.903691	-0.440167
H244	H	1.508603	-0.403691	0.059833
O245	O	1.063623	-0.264022	-0.718210
O246	O	1.563623	0.235978	-0.218210
C247	C	1.149520	-0.169791	-0.710777
C248	C	1.649520	0.330209	-0.210777
C249	C	1.101837	-0.222044	-0.671916
C250	C	1.601837	0.277956	-0.171916
H251	H	1.180418	-0.135827	-0.673365
H252	H	1.680418	0.364173	-0.173365
H253	H	1.184941	-0.203848	-0.743856
H254	H	1.684941	0.296152	-0.243856
H255	H	1.118462	-0.130975	-0.743888
H256	H	1.618462	0.369025	-0.243888
H257	H	1.132840	-0.260870	-0.638769
H258	H	1.632840	0.239130	-0.138769
H259	H	1.066414	-0.187940	-0.638880
H260	H	1.566414	0.312060	-0.138880
O261	O	0.887111	-0.806928	-0.416785
O262	O	1.387111	-0.306928	0.083215
C263	C	0.770315	-0.802946	-0.450630
C264	C	1.270315	-0.302946	0.049370
C265	C	0.822087	-0.832201	-0.399117
C266	C	1.322087	-0.332201	0.100883
H267	H	0.717734	-0.823380	-0.436372
H268	H	1.217734	-0.323380	0.063628
H269	H	0.770998	-0.739792	-0.450541
H270	H	1.270998	-0.239792	0.049459
H271	H	0.783900	-0.824052	-0.503149
H272	H	1.283900	-0.324052	-0.003149
H273	H	0.808538	-0.811150	-0.346574
H274	H	1.308538	-0.311150	0.153426
H275	H	0.821395	-0.895353	-0.399265
H276	H	1.321395	-0.395353	0.100735
H277	H	0.592202	-0.271484	-0.247754
H278	H	1.092202	0.228516	0.252246
H279	H	0.947565	-0.811186	-0.212121
H280	H	1.447565	-0.311186	0.287879
O281	O	0.725901	-0.263984	-0.240881
O282	O	1.225901	0.236016	0.259119
C283	C	0.718442	-0.169616	-0.155183
C284	C	1.218442	0.330384	0.344817
C285	C	0.679596	-0.221935	-0.202754
C286	C	1.179596	0.278065	0.297246
H287	H	0.681021	-0.135594	-0.124355
H288	H	1.181021	0.364406	0.375645
H289	H	0.751488	-0.203625	-0.119691
H290	H	1.251488	0.296375	0.380309
H291	H	0.751584	-0.130858	-0.186324
H292	H	1.251584	0.369142	0.313676
H293	H	0.646417	-0.260704	-0.171667
H294	H	1.146417	0.239296	0.328333
H295	H	0.646592	-0.187879	-0.238247
H296	H	1.146592	0.312121	0.261753
