data_functionalizedCrystal
_audit_creation_method	'MofGen! by Chris Wilmer'
_symmetry_space_group_name_H-M	'P1'
_symmetry_Int_Tables_number	1
_symmetry_cell_setting	triclinic
loop_
_symmetry_equiv_pos_as_xyz
  x,y,z
_cell_length_a	16.109302
_cell_length_b	15.944493
_cell_length_c	14.586319
_cell_angle_alpha	90.002083
_cell_angle_beta	89.994552
_cell_angle_gamma	83.468412
loop_
_atom_site_label
_atom_site_type_symbol
_atom_site_fract_x
_atom_site_fract_y
_atom_site_fract_z
O1	O	1.103143	0.107972	-0.076269
O2	O	0.861083	0.121408	-0.076261
O3	O	0.988748	-0.007590	-0.076273
O4	O	0.975478	0.236970	-0.076257
O5	O	0.988739	-0.007592	0.076208
O6	O	0.861074	0.121406	0.076220
O7	O	1.103134	0.107970	0.076211
Cu8	Cu	0.982103	0.114688	0.090138
Cu9	Cu	0.982114	0.114690	-0.090188
O10	O	0.975469	0.236969	0.076224
C11	C	0.830103	0.120863	-0.000019
C12	C	0.737808	0.119231	-0.000017
C13	C	0.525462	0.115456	0.083091
C14	C	0.438742	0.113914	0.083088
C15	C	0.438762	0.113920	-0.083155
C16	C	0.525481	0.115456	-0.083151
C17	C	0.568828	0.116229	-0.000025
C18	C	0.395389	0.113150	-0.000032
C19	C	0.301363	0.111477	-0.000037
C20	C	0.662861	0.117900	-0.000020
C21	C	0.988201	-0.038886	-0.000036
C22	C	0.986575	-0.132134	-0.000048
C23	C	1.061722	-0.367918	-0.000033
C24	C	1.021203	-0.418472	-0.075212
C25	C	0.983562	-0.302854	-0.000037
C26	C	1.021176	-0.418450	0.075122
C27	C	0.980658	-0.467763	-0.000022
C28	C	0.943064	-0.352179	-0.075278
C29	C	0.943048	-0.352154	0.075124
C30	C	0.902472	-0.402675	-0.000074
C31	C	0.985238	-0.207855	-0.000046
C32	C	0.978976	-0.562759	-0.000019
C33	C	1.134114	0.108516	-0.000032
C34	C	1.226409	0.110148	-0.000041
C35	C	0.976016	0.268264	-0.000015
C36	C	0.977642	0.361512	-0.000009
N37	N	0.982102	0.114686	0.216970
N38	N	0.982122	0.114686	-0.217019
C39	C	1.038651	0.057585	0.451971
C40	C	1.038653	0.057583	0.547952
C41	C	0.925567	0.171790	0.547973
C42	C	0.925561	0.171787	0.451993
C43	C	0.982108	0.114686	0.403995
C44	C	0.982116	0.114686	0.595956
C45	C	0.982118	0.114684	0.700023
C46	C	0.982105	0.114686	0.299921
H47	H	0.560791	0.116083	-0.150838
H48	H	0.403458	0.113292	-0.150833
C49	C	1.152667	-0.346827	-0.000136
H50	H	1.180316	-0.369654	-0.053623
H51	H	1.180696	-0.370510	0.052729
H52	H	1.153091	-0.287298	0.000402
C53	C	1.065774	-0.457547	0.160981
H54	H	1.027576	-0.485267	0.196390
H55	H	1.085935	-0.414289	0.196616
H56	H	1.111323	-0.497221	0.142899
H57	H	0.879529	0.218282	0.587063
C58	C	0.863363	0.234603	0.399216
H59	H	0.829694	0.268620	0.441547
H60	H	0.828760	0.204375	0.361779
H61	H	0.893268	0.269579	0.361770
H62	H	0.560753	0.116085	0.150778
C63	C	1.100848	-0.005222	0.399172
H64	H	1.092755	0.002959	0.335138
H65	H	1.091834	-0.061288	0.414900
H66	H	1.156332	0.003927	0.414896
H67	H	0.910078	-0.323348	-0.138904
C68	C	0.391041	0.113069	0.174516
H69	H	0.429279	0.113756	0.224019
H70	H	0.363560	0.063515	0.177970
H71	H	0.350862	0.161430	0.177971
H72	H	1.054214	-0.447428	-0.138774
H73	H	0.835094	-0.418119	-0.000112
C74	C	1.100854	-0.005225	0.600723
H75	H	1.134532	-0.039226	0.558387
H76	H	1.070959	-0.040203	0.638169
H77	H	1.135460	0.025009	0.638158
C78	C	0.898495	-0.313009	0.160991
H79	H	0.926355	-0.335812	0.214360
H80	H	0.842233	-0.325509	0.161535
H81	H	0.899432	-0.253548	0.160065
