data_functionalizedCrystal
_audit_creation_method	'MofGen! by Chris Wilmer'
_symmetry_space_group_name_H-M	'P1'
_symmetry_Int_Tables_number	1
_symmetry_cell_setting	triclinic
loop_
_symmetry_equiv_pos_as_xyz
  x,y,z
_cell_length_a	13.339070
_cell_length_b	16.992695
_cell_length_c	16.053802
_cell_angle_alpha	87.258926
_cell_angle_beta	86.721119
_cell_angle_gamma	76.851241
loop_
_atom_site_label
_atom_site_type_symbol
_atom_site_fract_x
_atom_site_fract_y
_atom_site_fract_z
O1	O	1.378705	-0.397711	-0.069464
O2	O	1.079932	-0.345192	-0.069459
O3	O	1.228121	-0.257049	-0.069455
O4	O	1.230517	-0.485855	-0.069468
O5	O	1.219962	-0.261873	0.069404
O6	O	1.071773	-0.350016	0.069400
O7	O	1.370546	-0.402535	0.069395
Zn8	Zn	1.219864	-0.377042	0.091444
Zn9	Zn	1.230614	-0.370686	-0.091508
O10	O	1.222358	-0.490679	0.069391
C11	C	1.037446	-0.338733	-0.000028
C12	C	0.923006	-0.312289	-0.000026
C13	C	1.220960	-0.229578	-0.000025
C14	C	1.211765	-0.140533	-0.000025
N15	N	1.212535	-0.381380	0.216304
C16	C	0.574838	-0.517902	-0.000051
C17	C	0.682359	-0.542749	-0.000056
C18	C	0.742526	-0.485136	-0.000048
C19	C	0.695161	-0.402672	-0.000036
C20	C	0.587629	-0.377821	-0.000038
C21	C	0.755318	-0.345056	-0.000035
C22	C	0.707953	-0.262591	-0.000023
C23	C	0.600431	-0.237745	-0.000024
C24	C	0.540264	-0.295358	-0.000032
C25	C	0.862850	-0.369906	-0.000033
C26	C	0.875641	-0.229826	-0.000020
C27	C	0.768119	-0.204978	-0.000015
C28	C	1.413032	-0.408995	-0.000037
C29	C	1.527473	-0.435438	-0.000045
C30	C	1.229519	-0.518150	-0.000040
C31	C	1.238714	-0.607194	-0.000046
C32	C	1.300479	-0.109593	-0.000026
C33	C	1.291834	-0.025925	-0.000034
C34	C	1.194474	0.026800	-0.000035
C35	C	1.105754	-0.004145	-0.000037
C36	C	1.114400	-0.087811	-0.000035
C37	C	1.158640	0.278195	-0.000046
C38	C	1.150000	0.361866	-0.000045
C39	C	1.336081	0.340079	-0.000044
C40	C	1.344718	0.256412	-0.000037
C41	C	1.255998	0.225475	-0.000043
N42	N	1.185635	0.112322	-0.000040
N43	N	1.264838	0.139954	-0.000044
N44	N	1.237951	-0.366343	-0.216368
C45	C	1.275616	-0.343899	0.260000
C46	C	1.270499	-0.346944	0.347406
C47	C	1.202307	-0.387475	0.391116
C48	C	1.139220	-0.424957	0.347414
C49	C	1.144331	-0.421907	0.260009
C50	C	1.179975	-0.400775	0.652525
C51	C	1.174870	-0.403824	0.739936
C52	C	1.306149	-0.325809	0.739922
C53	C	1.311260	-0.322767	0.652516
C54	C	1.248168	-0.360245	0.608822
N55	N	1.197078	-0.390590	0.480460
N56	N	1.253393	-0.357125	0.519480
H57	H	0.901404	-0.437050	-0.000040
H58	H	1.357514	-0.295295	0.775506
H59	H	1.408311	0.365279	-0.000041
H60	H	1.128606	-0.431293	0.616956
C61	C	0.998657	0.053856	-0.000031
N62	N	0.917988	0.097542	-0.000020
C63	C	0.860803	-0.512473	-0.000043
N64	N	0.949892	-0.533067	-0.000032
H65	H	1.379759	-0.152518	-0.000020
H66	H	0.561870	-0.170596	-0.000024
C67	C	0.734453	-0.633458	-0.000058
N68	N	0.773689	-0.701785	-0.000055
H69	H	0.525841	-0.564801	-0.000065
C70	C	1.386271	-0.278174	0.604442
N71	N	1.442771	-0.244587	0.568232
H72	H	1.331150	-0.310899	0.224417
H73	H	0.924629	-0.182912	-0.000017
H74	H	1.083690	-0.457955	0.383008
H75	H	1.042160	-0.113000	-0.000034
C76	C	0.421982	-0.268029	-0.000026
N77	N	0.332890	-0.247447	-0.000022
C78	C	1.339867	-0.305687	0.395468
N79	N	1.392108	-0.274600	0.431667
H80	H	0.729540	-0.137833	-0.000012
H81	H	1.364074	-0.000739	-0.000033
C82	C	1.099847	-0.448410	0.788015
N83	N	1.043342	-0.481992	0.824228
C84	C	1.061044	0.244174	-0.000057
N85	N	0.987530	0.218548	-0.000068
C86	C	1.451821	0.198419	-0.000035
N87	N	1.532493	0.154739	-0.000030
C88	C	1.074946	-0.463148	0.211945
N89	N	1.022684	-0.494212	0.175743
H90	H	1.070714	0.404794	-0.000032
