data_functionalizedCrystal
_audit_creation_method	'MofGen! by Chris Wilmer'
_symmetry_space_group_name_H-M	'P1'
_symmetry_Int_Tables_number	1
_symmetry_cell_setting	triclinic
loop_
_symmetry_equiv_pos_as_xyz
  x,y,z
_cell_length_a	14.853567
_cell_length_b	15.944551
_cell_length_c	13.930277
_cell_angle_alpha	89.994493
_cell_angle_beta	89.995755
_cell_angle_gamma	83.566834
loop_
_atom_site_label
_atom_site_type_symbol
_atom_site_fract_x
_atom_site_fract_y
_atom_site_fract_z
O1	O	1.196228	0.109664	-0.079767
O2	O	0.933751	0.122728	-0.079783
O3	O	1.072157	-0.006071	-0.079766
O4	O	1.057822	0.238463	-0.079784
O5	O	1.072138	-0.006073	0.079896
O6	O	0.933732	0.122725	0.079878
O7	O	1.196208	0.109662	0.079895
Zn8	Zn	1.064967	0.116193	0.105236
Zn9	Zn	1.064993	0.116197	-0.105125
O10	O	1.057803	0.238460	0.079878
C11	C	0.900154	0.122135	0.000045
C12	C	0.800072	0.120361	0.000039
C13	C	0.387646	0.036354	0.000067
C14	C	0.366169	0.189369	0.000055
C15	C	0.460201	0.191037	0.000051
C16	C	0.517960	0.115362	0.000055
C17	C	0.481687	0.038019	0.000061
C18	C	0.496480	0.268379	0.000035
C19	C	0.590517	0.270050	0.000031
C20	C	0.648278	0.194374	0.000041
C21	C	0.612000	0.117028	0.000049
C22	C	0.669759	0.041353	0.000052
C23	C	0.633483	-0.035994	0.000066
C24	C	0.539448	-0.037657	0.000071
C25	C	0.742313	0.196036	0.000036
C26	C	0.763800	0.043018	0.000046
C27	C	1.071552	-0.037367	0.000065
C28	C	1.069768	-0.130615	0.000065
C29	C	0.979713	-0.345572	0.000047
C30	C	1.021522	-0.406544	0.078772
C31	C	1.066541	-0.301344	0.000058
C32	C	1.021562	-0.406524	-0.078642
C33	C	1.063416	-0.466260	0.000046
C34	C	1.108373	-0.361088	0.078848
C35	C	1.108401	-0.361062	-0.078636
C36	C	1.150273	-0.422017	0.000109
C37	C	1.068338	-0.206340	0.000065
C38	C	1.061626	-0.561263	0.000046
C39	C	1.229806	0.110255	0.000064
C40	C	1.329887	0.112029	0.000064
C41	C	1.058407	0.269756	0.000044
C42	C	1.060191	0.363004	0.000038
N43	N	1.064957	0.116190	0.248803
N44	N	1.065010	0.116193	-0.248691
C45	C	1.003704	0.173206	0.701064
C46	C	1.126306	0.059181	0.701049
C47	C	1.126295	0.059178	0.600553
C48	C	1.064989	0.116191	0.550308
C49	C	1.003693	0.173207	0.600559
C50	C	1.187596	0.002169	0.550295
C51	C	1.187588	0.002164	0.449793
C52	C	1.126277	0.059174	0.399546
C53	C	1.064978	0.116192	0.449803
C54	C	1.003672	0.173205	0.399558
C55	C	0.942368	0.230220	0.449814
C56	C	0.942382	0.230217	0.550312
C57	C	1.126263	0.059177	0.299047
C58	C	1.003661	0.173206	0.299053
H59	H	0.620045	0.333030	0.000019
H60	H	0.771845	0.259011	0.000026
N61	N	1.188862	0.000946	0.247699
N62	N	1.188841	0.000949	0.157968
H63	H	1.233053	-0.040180	0.121702
H64	H	0.810822	-0.018607	0.000052
H65	H	0.907643	-0.312344	0.000121
H66	H	0.358106	-0.026620	0.000082
N67	N	0.975435	-0.431818	0.162257
N68	N	0.894405	-0.404145	0.176278
H69	H	0.861849	-0.421992	0.235235
N70	N	0.941087	0.231432	0.752406
N71	N	0.941096	0.231423	0.842137
H72	H	0.896871	0.272544	0.878400
H73	H	1.145059	-0.341058	0.145478
N74	N	1.250199	-0.056052	0.398431
N75	N	1.306134	-0.029287	0.342331
H76	H	1.350351	-0.070399	0.306047
N77	N	1.188940	0.000971	0.752384
N78	N	1.188953	0.000992	0.842114
H79	H	1.233195	-0.040117	0.878375
H80	H	0.984834	-0.426641	-0.145203
N81	N	1.240766	-0.463506	0.000174
N82	N	1.293181	-0.451735	0.067828
H83	H	1.357092	-0.481037	0.067879
H84	H	0.680523	-0.097609	0.000062
H85	H	0.953734	0.219631	0.258150
N86	N	0.502377	-0.116651	0.000085
N87	N	0.418416	-0.118124	0.000085
H88	H	0.392230	-0.173913	0.000092
H89	H	1.237514	-0.044246	0.591208
H90	H	0.892471	0.276637	0.591236
N91	N	0.307161	0.266658	0.000031
N92	N	0.223204	0.265159	0.000024
H93	H	0.181524	0.319746	0.000004
N94	N	0.437464	0.345662	0.000027
N95	N	0.382587	0.361801	0.067326
H96	H	0.340899	0.416384	0.067317
N97	N	1.154438	-0.335762	-0.162135
N98	N	1.124854	-0.350070	-0.243817
H99	H	1.157362	-0.332200	-0.302796
H100	H	0.892456	0.276644	0.408893
