data_functionalizedCrystal
_audit_creation_method	'MofGen! by Chris Wilmer'
_symmetry_space_group_name_H-M	'P1'
_symmetry_Int_Tables_number	1
_symmetry_cell_setting	triclinic
loop_
_symmetry_equiv_pos_as_xyz
  x,y,z
_cell_length_a	15.712078
_cell_length_b	17.019294
_cell_length_c	14.185569
_cell_angle_alpha	73.120776
_cell_angle_beta	107.170411
_cell_angle_gamma	101.445121
loop_
_atom_site_label
_atom_site_type_symbol
_atom_site_fract_x
_atom_site_fract_y
_atom_site_fract_z
O1	O	1.117539	0.450383	-0.122549
O2	O	1.617539	0.950383	0.377451
O3	O	0.867205	0.389576	-0.117247
O4	O	1.367205	0.889576	0.382753
O5	O	1.001713	0.305725	-0.110026
O6	O	1.501713	0.805725	0.389974
O7	O	0.983032	0.534234	-0.129770
O8	O	1.483032	1.034234	0.370230
O9	O	1.041447	0.280958	0.058942
O10	O	1.541447	0.780958	0.558942
O11	O	0.906939	0.364810	0.051720
O12	O	1.406939	0.864810	0.551720
O13	O	1.157274	0.425616	0.046419
O14	O	1.657274	0.925616	0.546419
Cu15	Cu	1.035735	0.392952	0.064497
Cu16	Cu	1.535735	0.892952	0.564497
Cu17	Cu	0.988744	0.422241	-0.135326
Cu18	Cu	1.488744	0.922241	0.364674
O19	O	1.022766	0.509467	0.039197
O20	O	1.522766	1.009467	0.539197
C21	C	0.855084	0.367260	-0.031899
C22	C	1.355084	0.867260	0.468101
C23	C	0.759771	0.337652	-0.029323
C24	C	1.259771	0.837652	0.470677
C25	C	0.387244	0.589018	-0.051111
C26	C	0.887244	1.089018	0.448889
C27	C	0.297676	0.561184	-0.048731
C28	C	0.797676	1.061184	0.451269
C29	C	0.321296	0.421700	-0.036681
C30	C	0.821296	0.921700	0.463319
C31	C	0.410867	0.449523	-0.039065
C32	C	0.910867	0.949523	0.460935
C33	C	0.443833	0.533182	-0.046279
C34	C	0.943833	1.033182	0.453721
C35	C	0.467456	0.393687	-0.034233
C36	C	0.967456	0.893687	0.465767
C37	C	0.557020	0.421507	-0.036612
C38	C	1.057020	0.921507	0.463388
C39	C	0.589995	0.505163	-0.043822
C40	C	1.089995	1.005163	0.456178
C41	C	0.533397	0.561002	-0.048658
C42	C	1.033397	1.061002	0.451342
C43	C	0.434490	0.310027	-0.027012
C44	C	0.934490	0.810027	0.472988
C45	C	0.491079	0.254192	-0.022180
C46	C	0.991079	0.754192	0.477820
C47	C	0.580643	0.282012	-0.024566
C48	C	1.080643	0.782012	0.475434
C49	C	0.613618	0.365668	-0.031776
C50	C	1.113618	0.865668	0.468224
C51	C	0.637241	0.226173	-0.019730
C52	C	1.137241	0.726173	0.480270
C53	C	0.726805	0.253993	-0.022109
C54	C	1.226805	0.753993	0.477891
C55	C	0.703182	0.393487	-0.034155
C56	C	1.203182	0.893487	0.465845
C57	C	1.021655	0.263420	-0.022958
C58	C	1.521655	0.763420	0.477042
C59	C	1.021869	0.174261	-0.015260
C60	C	1.521869	0.674261	0.484740
C61	C	1.000313	0.145879	-0.103746
C62	C	1.500313	0.645879	0.396254
C63	C	1.000509	0.062103	-0.096509
C64	C	1.500509	0.562103	0.403491
C65	C	1.022269	0.006711	-0.000785
C66	C	1.522269	0.506711	0.499215
C67	C	1.043825	0.035098	0.087709
C68	C	1.543825	0.535098	0.587709
C69	C	1.043622	0.118871	0.080471
C70	C	1.543622	0.618871	0.580471
C71	C	1.023960	-0.246907	0.025677
C72	C	1.523960	0.253093	0.525677
C73	C	1.024164	-0.330685	0.032909
C74	C	1.524164	0.169315	0.532909
C75	C	0.980847	-0.303674	-0.151310
C76	C	1.480847	0.196326	0.348690
C77	C	0.980651	-0.219900	-0.158540
C78	C	1.480651	0.280100	0.341460
C79	C	1.002202	-0.191521	-0.070046
C80	C	1.502202	0.308479	0.429954
C81	C	1.022473	-0.078921	0.006615
C82	C	1.522473	0.421079	0.506615
C83	C	1.001991	-0.105891	-0.077447
C84	C	1.501991	0.394109	0.422553
C85	C	1.169394	0.447933	-0.038932
C86	C	1.669394	0.947933	0.461068
C87	C	1.264705	0.477542	-0.041515
C88	C	1.764705	0.977542	0.458485
C89	C	1.002823	0.551772	-0.047872
C90	C	1.502823	1.051772	0.452128
C91	C	1.002607	0.640933	-0.055578
C92	C	1.502607	1.140933	0.444422
N93	N	1.068792	0.372352	0.205043
N94	N	1.568792	0.872352	0.705043
N95	N	0.955694	0.442836	-0.275871
N96	N	1.455694	0.942836	0.224129
C97	C	0.858573	0.503321	0.561413
C98	C	1.358573	1.003321	1.061413
C99	C	0.883619	0.487725	0.667778
C100	C	1.383619	0.987725	1.167778
C101	C	1.002748	0.413522	0.674130
C102	C	1.502748	0.913522	1.174130
C103	C	0.977709	0.429109	0.567763
C104	C	1.477709	0.929109	1.067763
C105	C	0.905622	0.474010	0.511414
C106	C	1.405622	0.974010	1.011414
C107	C	1.024758	0.399797	0.517764
C108	C	1.524758	0.899797	1.017764
C109	C	0.999724	0.415386	0.411407
C110	C	1.499724	0.915386	0.911407
C111	C	0.927641	0.460288	0.355049
C112	C	1.427641	0.960288	0.855049
C113	C	0.880587	0.489599	0.405056
C114	C	1.380587	0.989599	0.905056
C115	C	1.096849	0.354901	0.574115
C116	C	1.596849	0.854901	1.074115
C117	C	1.143898	0.325589	0.524115
C118	C	1.643898	0.825589	1.024115
C119	C	1.118860	0.341173	0.417757
C120	C	1.618860	0.841173	0.917757
C121	C	1.046777	0.386075	0.361399
C122	C	1.546777	0.886075	0.861399
C123	C	1.165914	0.311862	0.367749
C124	C	1.665914	0.811862	0.867749
C125	C	1.140879	0.327451	0.261392
C126	C	1.640879	0.827451	0.761392
C127	C	1.021743	0.401664	0.255042
C128	C	1.521743	0.901664	0.755042
H129	H	0.361563	0.287377	-0.025063
H130	H	0.861563	0.787377	0.474937
O131	O	0.601684	0.135941	-0.011935
O132	O	1.101684	0.635941	0.488065
H133	H	0.545271	0.130024	-0.079429
H134	H	1.045271	0.630024	0.420571
O135	O	1.123849	0.338089	0.688830
O136	O	1.623849	0.838089	1.188830
H137	H	1.194323	0.365665	0.714104
H138	H	1.694323	0.865665	1.214104
H139	H	1.179193	0.303583	0.220682
H140	H	1.679193	0.803583	0.720682
O141	O	0.977221	0.031500	-0.191960
O142	O	1.477221	0.531500	0.308040
H143	H	1.025441	0.064126	-0.238416
H144	H	1.525441	0.564126	0.261584
O145	O	1.067308	-0.024646	0.190953
O146	O	1.567308	0.475354	0.690953
H147	H	1.009790	-0.073552	0.199542
H148	H	1.509790	0.426448	0.699542
O149	O	0.832871	0.519340	0.721714
O150	O	1.332871	1.019340	1.221714
H151	H	0.761340	0.492428	0.703924
H152	H	1.261340	0.992428	1.203924
O153	O	0.686598	0.535169	-0.046382
O154	O	1.186598	1.035169	0.453618
H155	H	0.700015	0.602720	-0.052200
H156	H	1.200015	1.102720	0.447800
H157	H	0.984269	-0.060789	-0.155385
H158	H	1.484269	0.439211	0.344615
O159	O	1.221646	0.277158	0.584893
O160	O	1.721646	0.777158	1.084893
H161	H	1.231147	0.271237	0.667251
H162	H	1.731147	0.771237	1.167251
H163	H	1.041879	-0.375786	0.110863
H164	H	1.541879	0.124214	0.610863
H165	H	0.963300	-0.326790	-0.223356
H166	H	1.463300	0.173210	0.276644
H167	H	0.251603	0.606658	-0.052662
H168	H	0.751603	1.106658	0.447338
O169	O	0.738743	0.483723	-0.041941
O170	O	1.238743	0.983723	0.458059
H171	H	0.810528	0.493684	-0.042788
H172	H	1.310528	0.993684	0.457212
H173	H	1.040193	-0.124030	0.084555
H174	H	1.540193	0.375970	0.584555
H175	H	0.464228	0.186074	-0.016295
H176	H	0.964228	0.686074	0.483705
H177	H	0.962933	-0.174804	-0.236489
H178	H	1.462933	0.325196	0.263511
H179	H	1.041525	-0.223810	0.097735
H180	H	1.541525	0.276190	0.597735
H181	H	0.772881	0.208526	-0.018177
H182	H	1.272881	0.708526	0.481823
H183	H	0.963036	0.438220	0.209160
H184	H	1.463036	0.938220	0.709160
H185	H	1.061163	0.141975	0.152526
H186	H	1.561163	0.641975	0.652526
H187	H	0.907261	0.472983	0.268446
H188	H	1.407261	0.972983	0.768446
H189	H	0.821880	0.526155	0.359175
H190	H	1.321880	1.026155	0.859175
H191	H	0.982599	0.190975	-0.181696
H192	H	1.482599	0.690975	0.318304
O193	O	0.780819	0.551750	0.500621
O194	O	1.280819	1.051750	1.000621
H195	H	0.752306	0.569518	0.553255
H196	H	1.252306	1.069518	1.053255
H197	H	1.224614	0.275310	0.413643
H198	H	1.724614	0.775310	0.913643
O199	O	0.568967	0.651236	-0.056439
O200	O	1.068967	1.151236	0.443561
H201	H	0.514572	0.685392	-0.059397
H202	H	1.014572	1.185392	0.440603
O203	O	0.422813	0.679251	-0.058893
O204	O	0.922813	1.179251	0.441107
H205	H	0.368418	0.713408	-0.061850
H206	H	0.868418	1.213408	0.438150
H207	H	0.294445	0.353583	-0.030796
H208	H	0.794445	0.853583	0.469204
H209	H	1.061445	0.376965	0.720021
H210	H	1.561445	0.876965	1.220021
