data_functionalizedCrystal
_audit_creation_method	'MofGen! by Chris Wilmer'
_symmetry_space_group_name_H-M	'P1'
_symmetry_Int_Tables_number	1
_symmetry_cell_setting	triclinic
loop_
_symmetry_equiv_pos_as_xyz
  x,y,z
_cell_length_a	12.759395
_cell_length_b	15.297327
_cell_length_c	12.759387
_cell_angle_alpha	99.642565
_cell_angle_beta	89.978972
_cell_angle_gamma	99.707363
loop_
_atom_site_label
_atom_site_type_symbol
_atom_site_fract_x
_atom_site_fract_y
_atom_site_fract_z
Zn1	Zn	1.533815	-0.359095	-0.666331
Zn2	Zn	1.503262	-0.509981	-0.521035
Zn3	Zn	1.358104	-0.359142	-0.490676
Zn4	Zn	1.327675	-0.509915	-0.696659
O5	O	1.430714	-0.434533	-0.593675
O6	O	1.676782	-0.379118	-0.647070
O7	O	1.483954	-0.490020	-0.369996
O8	O	1.406934	-0.232890	-0.488578
O9	O	1.654334	-0.489974	-0.540322
O10	O	1.536028	-0.232856	-0.617631
O11	O	1.377307	-0.379199	-0.347691
O12	O	1.207048	-0.379134	-0.517987
O13	O	1.355072	-0.489861	-0.839648
O14	O	1.184692	-0.489907	-0.669322
O15	O	1.506522	-0.379054	-0.817366
O16	O	1.454449	-0.636218	-0.569730
O17	O	1.325446	-0.636169	-0.698761
C18	C	1.157750	-0.434519	-0.593652
C19	C	1.040970	-0.434535	-0.593671
C20	C	0.844868	-0.319307	-0.705121
C21	C	0.911404	-0.261674	-0.760813
C22	C	1.021129	-0.261659	-0.760791
C23	C	1.064318	-0.319284	-0.705075
C24	C	0.997781	-0.376917	-0.649384
C25	C	0.888056	-0.376925	-0.649409
C26	C	0.974433	-0.492168	-0.537980
C27	C	0.864709	-0.492180	-0.537994
C28	C	1.017622	-0.549793	-0.482264
C29	C	0.951086	-0.607423	-0.426565
C30	C	0.841356	-0.607436	-0.426588
C31	C	0.798173	-0.549813	-0.482302
C32	C	1.383359	-0.668928	-0.640854
C33	C	1.363196	-0.769202	-0.661072
C34	C	1.575253	-1.051836	-0.449530
C35	C	1.594197	-0.957623	-0.430528
C36	C	1.536448	-0.910513	-0.488163
C37	C	1.459753	-0.957626	-0.564802
C38	C	1.440802	-1.051848	-0.583799
C39	C	1.401997	-0.910525	-0.622432
C40	C	1.325302	-0.957638	-0.699072
C41	C	1.306355	-1.051851	-0.718066
C42	C	1.364103	-1.098961	-0.660432
C43	C	1.420948	-0.816303	-0.603435
C44	C	1.286497	-0.816315	-0.737705
C45	C	1.267554	-0.910528	-0.756706
C46	C	1.704745	-0.434548	-0.593699
C47	C	1.821520	-0.434555	-0.593710
C48	C	1.430811	-0.434445	-0.867691
C49	C	1.430853	-0.434407	-0.984460
C50	C	1.478283	-0.199224	-0.546335
C51	C	1.498554	-0.098949	-0.526162
C52	C	1.588565	-0.319032	-0.961279
C53	C	1.667439	-0.261330	-1.004546
C54	C	1.667471	-0.261297	-1.114261
C55	C	1.588619	-0.318970	-1.180712
C56	C	1.509746	-0.376671	-1.137445
C57	C	1.509724	-0.376700	-1.027727
C58	C	1.352031	-0.492041	-1.160625
C59	C	1.352001	-0.492080	-1.050911
C60	C	1.273179	-0.549714	-1.227076
C61	C	1.194308	-0.607421	-1.183810
C62	C	1.194279	-0.607452	-1.074088
C63	C	1.273127	-0.549781	-1.007644
C64	C	1.430691	-0.434556	-0.320712
C65	C	1.430904	-0.434340	-0.203893
H66	H	1.106966	-0.549782	-0.482258
C67	C	1.754171	-0.197892	-0.931443
N68	N	1.819496	-0.150110	-0.876384
H69	H	0.986260	-0.654342	-0.381211
H70	H	1.075303	-0.214731	-0.806142
C71	C	1.222972	-0.764498	-0.801109
N72	N	1.175128	-0.725464	-0.848861
C73	C	1.588660	-0.318931	-1.301402
N74	N	1.588693	-0.318905	-1.392307
C75	C	0.768173	-0.670837	-0.365320
N76	N	0.713056	-0.718590	-0.319170
C77	C	1.754236	-0.197824	-1.161857
N78	N	1.819588	-0.150017	-1.197706
C79	C	1.273224	-0.549683	-1.347767
N80	N	1.273261	-0.549667	-1.438674
C81	C	1.343265	-1.202602	-0.681325
N82	N	1.327569	-1.280666	-0.697058
H83	H	1.153661	-0.319275	-0.705074
H84	H	1.622257	-1.090202	-0.402605
C85	C	0.677474	-0.549822	-0.482334
N86	N	0.586562	-0.549829	-0.482364
C87	C	1.221978	-1.103672	-0.802362
N88	N	1.158425	-1.142703	-0.865855
C89	C	1.557308	-0.806876	-0.467277
N90	N	1.573033	-0.728812	-0.451551
H91	H	1.130108	-0.654369	-1.237921
H92	H	1.205107	-0.948901	-0.819106
H93	H	1.483394	-0.777952	-0.541034
C94	C	1.678541	-0.905806	-0.346210
N95	N	1.742068	-0.866777	-0.282690
C96	C	1.107509	-0.670928	-1.026503
N97	N	1.042152	-0.718741	-0.990667
H98	H	1.273116	-0.549805	-0.918307
H99	H	0.755529	-0.319294	-0.705118
C100	C	1.588543	-0.319069	-0.840589
N101	N	1.588528	-0.319094	-0.749684
H102	H	0.876227	-0.214759	-0.806178
