data_functionalizedCrystal
_audit_creation_method	'MofGen! by Chris Wilmer'
_symmetry_space_group_name_H-M	'P1'
_symmetry_Int_Tables_number	1
_symmetry_cell_setting	triclinic
loop_
_symmetry_equiv_pos_as_xyz
  x,y,z
_cell_length_a	14.519731
_cell_length_b	13.596369
_cell_length_c	10.723024
_cell_angle_alpha	90.004807
_cell_angle_beta	84.078361
_cell_angle_gamma	90.005416
loop_
_atom_site_label
_atom_site_type_symbol
_atom_site_fract_x
_atom_site_fract_y
_atom_site_fract_z
O1	O	1.224692	0.081791	0.163703
O2	O	0.956316	0.081792	0.182938
O3	O	1.096695	0.081788	-0.008313
O4	O	1.084314	0.081795	0.354954
O5	O	1.096681	-0.081795	-0.008323
O6	O	0.956302	-0.081791	0.182928
O7	O	1.224678	-0.081792	0.163693
Zn8	Zn	1.090488	-0.107764	0.173309
Zn9	Zn	1.090507	0.107764	0.173322
O10	O	1.084300	-0.081788	0.354944
C11	C	0.921945	0.000001	0.182032
C12	C	0.819551	0.000001	0.179331
N13	N	1.090482	-0.254856	0.173299
C14	C	0.736396	0.000005	0.177137
C15	C	0.632073	0.000006	0.174395
C16	C	0.548923	0.000005	0.172218
C17	C	0.444594	0.000008	0.169476
C18	C	1.090505	-0.656146	0.173324
C19	C	1.090496	-0.544495	0.173321
C20	C	1.090494	-0.455505	0.173312
C21	C	1.090484	-0.343846	0.173308
C22	C	1.259049	0.000001	0.164599
C23	C	1.361443	0.000007	0.167300
C24	C	1.095787	-0.000002	-0.054809
C25	C	1.093091	0.000001	-0.193338
N26	N	1.090520	0.254856	0.173322
C27	C	1.171640	0.000002	-0.269047
C28	C	1.168855	0.000006	-0.412225
C29	C	1.085208	0.000005	0.401440
C30	C	1.087904	0.000008	0.539970
H31	H	1.236099	0.000002	-0.477280
N32	N	1.258584	-0.000010	-0.217376
N33	N	1.278640	-0.068966	-0.147979
H34	H	1.340047	-0.068975	-0.111486
N35	N	1.006130	-0.000011	-0.244965
N36	N	0.932281	-0.000018	-0.173860
H37	H	0.870860	-0.000029	-0.210317
H38	H	1.020656	0.000000	-0.394983
