data_functionalizedCrystal
_audit_creation_method	'MofGen! by Chris Wilmer'
_symmetry_space_group_name_H-M	'P1'
_symmetry_Int_Tables_number	1
_symmetry_cell_setting	triclinic
loop_
_symmetry_equiv_pos_as_xyz
  x,y,z
_cell_length_a	15.944551
_cell_length_b	11.792253
_cell_length_c	10.268362
_cell_angle_alpha	89.989159
_cell_angle_beta	90.000094
_cell_angle_gamma	96.151331
loop_
_atom_site_label
_atom_site_type_symbol
_atom_site_fract_x
_atom_site_fract_y
_atom_site_fract_z
O1	O	1.115190	-0.146380	0.108181
O2	O	1.615190	0.353620	0.608181
O3	O	0.870722	-0.164427	0.108215
O4	O	1.370722	0.335573	0.608215
O5	O	0.998883	0.009815	0.108170
O6	O	1.498883	0.509815	0.608170
O7	O	0.987029	-0.320622	0.108226
O8	O	1.487029	0.179378	0.608226
O9	O	0.998872	0.009822	-0.108431
O10	O	1.498872	0.509822	0.391569
O11	O	0.870711	-0.164420	-0.108385
O12	O	1.370711	0.335580	0.391615
O13	O	1.115178	-0.146373	-0.108420
O14	O	1.615178	0.353627	0.391580
Cu15	Cu	0.992944	-0.155395	-0.128180
Cu16	Cu	1.492944	0.344605	0.371820
Cu17	Cu	0.992957	-0.155404	0.127975
Cu18	Cu	1.492957	0.344596	0.627975
O19	O	0.987018	-0.320615	-0.108375
O20	O	1.487018	0.179385	0.391625
C21	C	0.839419	-0.163674	-0.000081
C22	C	1.339419	0.336326	0.499919
C23	C	0.746163	-0.161428	-0.000069
C24	C	1.246163	0.338572	0.499931
C25	C	0.998131	0.052103	-0.000134
C26	C	1.498131	0.552103	0.499866
C27	C	0.995895	0.178098	-0.000146
C28	C	1.495895	0.678098	0.499854
N29	N	0.992940	-0.155389	-0.308346
N30	N	1.492940	0.344611	0.191654
C31	C	0.530791	-0.048056	-0.000114
C32	C	1.030791	0.451944	0.499886
C33	C	0.470015	-0.100705	0.106691
C34	C	0.970015	0.399295	0.606691
C35	C	0.575418	-0.157364	-0.000085
C36	C	1.075418	0.342636	0.499915
C37	C	0.470027	-0.100724	-0.106860
C38	C	0.970027	0.399276	0.393140
C39	C	0.410488	-0.153431	-0.000107
C40	C	0.910488	0.346569	0.499893
C41	C	0.515872	-0.210044	0.106807
C42	C	1.015872	0.289956	0.606807
C43	C	0.515889	-0.210048	-0.106840
C44	C	1.015889	0.289952	0.393160
C45	C	0.455132	-0.262777	-0.000009
C46	C	0.955132	0.237223	0.499991
C47	C	0.670431	-0.159627	-0.000072
C48	C	1.170431	0.340373	0.499928
C49	C	0.315477	-0.151177	-0.000111
C50	C	0.815477	0.348823	0.499889
C51	C	1.146481	-0.147125	-0.000121
C52	C	1.646481	0.352875	0.499879
C53	C	1.239738	-0.149371	-0.000124
C54	C	1.739738	0.350629	0.499876
C55	C	0.994079	0.280420	-0.000153
C56	C	1.494079	0.780420	0.499847
C57	C	0.991809	0.408787	-0.000154
C58	C	1.491809	0.908787	0.499846
C59	C	0.987770	0.637097	-0.000095
C60	C	1.487770	1.137097	0.499905
C61	C	0.990005	0.511103	-0.000155
C62	C	1.490005	1.011103	0.499845
C63	C	0.992953	-0.155402	-0.574016
C64	C	1.492953	0.344598	-0.074016
C65	C	0.992943	-0.155398	-0.426179
C66	C	1.492943	0.344602	0.073821
N67	N	0.992967	-0.155402	0.308141
N68	N	1.492967	0.344598	0.808141
H69	H	0.449700	-0.054475	0.196971
H70	H	0.949700	0.445525	0.696971
H71	H	0.422386	-0.353588	0.000066
H72	H	0.922386	0.146412	0.500066
H73	H	0.536226	-0.256240	-0.197124
H74	H	1.036226	0.243760	0.302876
N75	N	0.443130	-0.039463	-0.226463
N76	N	0.943130	0.460537	0.273537
H77	H	0.470928	0.041631	-0.226376
H78	H	0.970928	0.541631	0.273624
H79	H	0.460627	-0.080014	-0.307053
H80	H	0.960627	0.419986	0.192947
H81	H	0.563711	0.042661	0.000003
H82	H	1.063711	0.542661	0.500003
H83	H	0.536074	-0.256246	0.197201
H84	H	1.036074	0.243754	0.697201
