data_functionalizedCrystal
_audit_creation_method	'MofGen! by Chris Wilmer'
_symmetry_space_group_name_H-M	'P1'
_symmetry_Int_Tables_number	1
_symmetry_cell_setting	triclinic
loop_
_symmetry_equiv_pos_as_xyz
  x,y,z
_cell_length_a	16.109301
_cell_length_b	27.732048
_cell_length_c	15.186229
_cell_angle_alpha	89.991324
_cell_angle_beta	89.999362
_cell_angle_gamma	83.052068
loop_
_atom_site_label
_atom_site_type_symbol
_atom_site_fract_x
_atom_site_fract_y
_atom_site_fract_z
O1	O	1.102361	0.062130	-0.073183
O2	O	0.860204	0.069862	-0.073198
O3	O	0.988803	-0.004369	-0.073173
O4	O	0.973762	0.136361	-0.073208
O5	O	0.988795	-0.004370	0.073284
O6	O	0.860195	0.069861	0.073259
O7	O	1.102353	0.062129	0.073275
Zn8	Zn	0.981273	0.065995	0.096520
Zn9	Zn	0.981284	0.065996	-0.096444
O10	O	0.973753	0.136360	0.073250
C11	C	0.829228	0.069548	0.000029
C12	C	0.736945	0.068609	0.000024
C13	C	0.514154	0.110473	0.000024
C14	C	0.427445	0.109587	0.000030
C15	C	0.448409	0.021514	0.000048
C16	C	0.535117	0.022401	0.000048
C17	C	0.567987	0.066882	0.000032
C18	C	0.394570	0.065109	0.000037
C19	C	0.300556	0.064148	0.000044
C20	C	0.662007	0.067843	0.000027
C21	C	0.988483	-0.022378	0.000058
C22	C	0.987533	-0.076037	0.000065
C23	C	1.057541	-0.414559	0.000024
C24	C	1.054013	-0.616233	0.000012
O25	O	1.118031	-0.647221	-0.000023
N26	N	0.977759	-0.635676	0.000008
C27	C	0.902381	-0.604697	0.000001
O28	O	0.837441	-0.625862	-0.000011
C29	C	0.905910	-0.403024	0.000008
C30	C	0.982169	-0.383584	0.000020
C31	C	1.133794	-0.395119	0.000036
C32	C	1.134675	-0.344703	0.000044
C33	C	1.059303	-0.313728	0.000040
C34	C	0.983050	-0.333168	0.000028
C35	C	0.830533	-0.372045	-0.000005
C36	C	0.831422	-0.321624	-0.000006
C37	C	0.907681	-0.302184	0.000007
C38	C	0.908559	-0.251777	0.000032
N39	N	0.984814	-0.232334	0.000036
C40	C	1.060186	-0.263310	0.000040
C41	C	0.900534	-0.710579	-0.000000
C42	C	0.899652	-0.760997	-0.000000
C43	C	1.051284	-0.772530	0.000009
C44	C	1.052166	-0.722111	0.000015
C45	C	0.976789	-0.691136	0.000004
C46	C	1.062030	-0.157433	0.000058
C47	C	1.062905	-0.107012	0.000069
C48	C	0.911273	-0.095484	0.000056
C49	C	0.910398	-0.145900	0.000049
C50	C	0.985783	-0.176874	0.000047
O51	O	0.844576	-0.220761	0.000057
O52	O	1.125116	-0.242135	0.000033
C53	C	1.056660	-0.464975	0.000016
C54	C	0.980407	-0.484415	0.000005
C55	C	0.905035	-0.453440	0.000001
C56	C	0.979525	-0.534833	0.000005
C57	C	1.054897	-0.565808	0.000009
C58	C	1.131151	-0.546365	0.000013
C59	C	1.132032	-0.495950	0.000020
C60	C	0.828781	-0.472883	-0.000003
C61	C	0.827906	-0.523299	-0.000010
C62	C	0.903278	-0.554274	-0.000006
C63	C	1.133328	0.062443	0.000046
C64	C	1.225612	0.063382	0.000045
C65	C	0.974073	0.154369	0.000017
C66	C	0.975024	0.208028	0.000004
N67	N	0.981271	0.065994	0.228213
N68	N	0.981292	0.065994	-0.228136
C69	C	1.038234	0.033135	0.453947
C70	C	1.038237	0.033134	0.546136
C71	C	0.924323	0.098854	0.546124
C72	C	0.924317	0.098852	0.453936
C73	C	0.981277	0.065993	0.407850
C74	C	0.981286	0.065994	0.592227
C75	C	0.981288	0.065993	0.692183
C76	C	0.981274	0.065994	0.307887
H77	H	0.421636	-0.014700	0.000066
H78	H	1.112655	-0.797759	0.000012
H79	H	0.578951	-0.013099	0.000057
H80	H	0.383617	0.145084	0.000025
O81	O	1.137060	-0.088209	0.000039
C82	C	1.203393	-0.126364	0.000059
H83	H	1.180536	-0.160609	-0.027674
H84	H	1.226608	-0.133509	0.070323
C85	C	1.303444	-0.070073	-0.023307
C86	C	1.275372	-0.112132	-0.057377
H87	H	1.347846	-0.061293	-0.058733
H88	H	1.258755	-0.044367	-0.023318
H89	H	1.322784	-0.076033	0.035245
H90	H	1.256023	-0.106170	-0.115923
H91	H	1.320060	-0.137837	-0.057378
H92	H	1.084613	0.006379	0.416426
O93	O	1.208703	-0.325767	-0.000072
C94	C	1.213767	-0.296954	-0.075936
H95	H	1.148076	-0.284383	-0.101222
H96	H	1.250830	-0.319231	-0.129051
C97	C	1.338652	-0.267808	-0.021843
C98	C	1.257969	-0.252364	-0.052895
H99	H	1.365921	-0.240304	-0.007632
H100	H	1.335243	-0.287221	0.029267
H101	H	1.369528	-0.286373	-0.066111
H102	H	1.227091	-0.233805	-0.008624
H103	H	1.261374	-0.232947	-0.103997
O104	O	0.753873	-0.542236	-0.000141
C105	C	0.748824	-0.571032	-0.076013
H106	H	0.814520	-0.583594	-0.101289
H107	H	0.711765	-0.548744	-0.129129
C108	C	0.623937	-0.600197	-0.021950
C109	C	0.704626	-0.615629	-0.052991
H110	H	0.596670	-0.627706	-0.007752
H111	H	0.627336	-0.580795	0.029165
H112	H	0.593065	-0.581623	-0.066219
H113	H	0.735500	-0.634197	-0.008718
H114	H	0.701231	-0.635035	-0.104098
H115	H	1.084615	0.006377	0.583666
O116	O	0.869081	0.130756	0.591030
C117	C	0.881286	0.123705	0.682283
H118	H	0.947615	0.105649	0.694874
H119	H	0.834543	0.099456	0.708459
C120	C	0.786692	0.195328	0.714130
C121	C	0.868162	0.173155	0.729595
H122	H	0.778593	0.225830	0.743317
H123	H	0.778466	0.200077	0.652652
H124	H	0.747749	0.175115	0.735944
H125	H	0.907103	0.193365	0.707772
H126	H	0.876394	0.168410	0.791072
O127	O	0.869101	0.130795	0.409055
C128	C	0.913240	0.160629	0.355733
H129	H	0.978541	0.141386	0.341925
H130	H	0.918431	0.196355	0.391247
C131	C	0.786026	0.194584	0.285121
C132	C	0.866228	0.170948	0.268156
H133	H	0.757026	0.200952	0.231101
H134	H	0.756288	0.174486	0.321047
H135	H	0.790363	0.224353	0.314719
H136	H	0.861890	0.141177	0.238569
H137	H	0.895964	0.191042	0.232222
H138	H	1.195175	-0.420334	0.000036
O139	O	0.545946	0.153722	0.000055
C140	C	0.479834	0.192007	0.000028
H141	H	0.421099	0.178463	0.027757
H142	H	0.467389	0.205455	-0.070236
C143	C	0.575907	0.250589	0.023401
C144	C	0.503770	0.233955	0.057465
H145	H	0.590673	0.276466	0.058827
H146	H	0.620449	0.224797	0.023415
H147	H	0.565527	0.261793	-0.035153
H148	H	0.514155	0.222746	0.116013
H149	H	0.459230	0.259747	0.057462
H150	H	1.114263	-0.706287	0.000025
O151	O	0.825626	-0.779935	-0.000122
C152	C	0.820571	-0.808736	-0.075987
H153	H	0.886264	-0.821299	-0.101268
H154	H	0.783507	-0.786451	-0.129104
C155	C	0.695688	-0.837897	-0.021904
C156	C	0.776375	-0.853332	-0.052950
H157	H	0.668423	-0.865405	-0.007696
H158	H	0.699092	-0.818493	0.029207
H159	H	0.664812	-0.819327	-0.066173
H160	H	0.807252	-0.871897	-0.008676
H161	H	0.772976	-0.872741	-0.104052
H162	H	0.839149	-0.685363	-0.000009
O163	O	0.756431	-0.390897	-0.000180
C164	C	0.710536	-0.375043	-0.076029
H165	H	0.755155	-0.364559	-0.129033
H166	H	0.663786	-0.342177	-0.058886
C167	C	0.608481	-0.429160	-0.045340
C168	C	0.663284	-0.416288	-0.110443
H169	H	0.579330	-0.454601	-0.066567
H170	H	0.639399	-0.439840	0.005763
H171	H	0.569530	-0.401768	-0.031060
H172	H	0.702240	-0.443678	-0.124714
H173	H	0.632371	-0.405613	-0.161549
O174	O	0.758220	-0.291516	-0.000171
C175	C	0.754207	-0.261990	-0.076008
H176	H	0.796971	-0.280449	-0.129020
H177	H	0.775237	-0.225329	-0.058851
C178	C	0.611123	-0.231652	-0.045301
C179	C	0.663641	-0.254326	-0.110415
H180	H	0.555258	-0.226922	-0.066524
H181	H	0.613827	-0.251543	0.005793
H182	H	0.628658	-0.201104	-0.031010
H183	H	0.646112	-0.284876	-0.124697
H184	H	0.660932	-0.234440	-0.161513
H185	H	1.123416	-0.182646	0.000053
H186	H	0.849907	-0.070255	0.000055
O187	O	1.206184	-0.477150	-0.000012
C188	C	1.272511	-0.515309	0.000011
H189	H	1.249646	-0.549552	-0.027719
H190	H	1.295724	-0.522453	0.070275
C191	C	1.372574	-0.459025	-0.023362
C192	C	1.344493	-0.501082	-0.057427
H193	H	1.416978	-0.450250	-0.058789
H194	H	1.327890	-0.433317	-0.023374
H195	H	1.391913	-0.464984	0.035191
H196	H	1.325145	-0.495121	-0.115974
H197	H	1.389176	-0.526790	-0.057426
H198	H	0.848301	-0.161728	0.000063
H199	H	1.192521	-0.571594	0.000020
H200	H	0.767402	-0.447667	-0.000009
