data_functionalizedCrystal
_audit_creation_method	'MofGen! by Chris Wilmer'
_symmetry_space_group_name_H-M	'P1'
_symmetry_Int_Tables_number	1
_symmetry_cell_setting	triclinic
loop_
_symmetry_equiv_pos_as_xyz
  x,y,z
_cell_length_a	16.992694
_cell_length_b	23.532357
_cell_length_c	22.010155
_cell_angle_alpha	90.003761
_cell_angle_beta	90.009201
_cell_angle_gamma	86.748258
loop_
_atom_site_label
_atom_site_type_symbol
_atom_site_fract_x
_atom_site_fract_y
_atom_site_fract_z
O1	O	1.039434	0.120711	0.050462
O2	O	1.539434	0.620711	0.550462
O3	O	0.811159	0.119386	0.050479
O4	O	1.311159	0.619386	0.550479
O5	O	0.932200	0.037457	0.050458
O6	O	1.432200	0.537457	0.550458
O7	O	0.918392	0.202640	0.050484
O8	O	1.418392	0.702640	0.550484
O9	O	0.932165	0.037466	-0.050593
O10	O	1.432165	0.537466	0.449407
O11	O	0.811124	0.119395	-0.050571
O12	O	1.311124	0.619395	0.449429
O13	O	1.039399	0.120719	-0.050589
O14	O	1.539399	0.620719	0.449411
Cu15	Cu	0.925258	0.120058	-0.059807
Cu16	Cu	1.425258	0.620058	0.440193
Cu17	Cu	0.925299	0.120048	0.059697
Cu18	Cu	1.425299	0.620048	0.559697
O19	O	0.918357	0.202648	-0.050567
O20	O	1.418357	0.702648	0.449433
C21	C	0.781943	0.117687	-0.000044
C22	C	1.281943	0.617687	0.499956
C23	C	0.694939	0.112604	-0.000037
C24	C	1.194939	0.612604	0.499963
C25	C	0.931837	0.016228	-0.000070
C26	C	1.431837	0.516228	0.499930
C27	C	0.930799	-0.047042	-0.000075
C28	C	1.430799	0.452958	0.499925
C29	C	0.644305	0.161650	-0.000030
C30	C	1.144305	0.661650	0.499970
C31	C	0.562556	0.156871	-0.000039
C32	C	1.062556	0.656871	0.499961
C33	C	0.531444	0.103044	-0.000051
C34	C	1.031444	0.603044	0.499949
C35	C	0.582086	0.053993	-0.000060
C36	C	1.082086	0.553993	0.499940
C37	C	0.663832	0.058773	-0.000056
C38	C	1.163832	0.558773	0.499944
C39	C	0.288006	0.083232	-0.000071
C40	C	0.788006	0.583232	0.499929
C41	C	0.206253	0.078455	-0.000074
C42	C	0.706253	0.578455	0.499926
C43	C	0.186729	0.181333	-0.000054
C44	C	0.686729	0.681333	0.499946
C45	C	0.268478	0.186109	-0.000045
C46	C	0.768478	0.686109	0.499955
C47	C	0.319112	0.137058	-0.000058
C48	C	0.819112	0.637058	0.499942
N49	N	0.447885	0.098157	-0.000059
N50	N	0.947885	0.598157	0.499941
N51	N	0.402670	0.141946	-0.000055
N52	N	0.902670	0.641946	0.499945
C53	C	0.924299	-0.439382	0.055041
C54	C	1.424299	0.060618	0.555041
C55	C	0.923312	-0.498830	0.055044
C56	C	1.423312	0.001170	0.555044
O57	O	0.922791	-0.529577	0.101890
O58	O	1.422791	-0.029577	0.601890
N59	N	0.922803	-0.528561	-0.000038
N60	N	1.422803	-0.028561	0.499962
C61	C	0.923274	-0.498840	-0.055126
C62	C	1.423274	0.001160	0.444874
O63	O	0.922750	-0.529587	-0.101977
O64	O	1.422750	-0.029587	0.398023
C65	C	0.924255	-0.439392	-0.055129
C66	C	1.424255	0.060608	0.444871
C67	C	0.924772	-0.409665	-0.000044
C68	C	1.424772	0.090335	0.499956
C69	C	0.924815	-0.409654	0.110122
C70	C	1.424815	0.090346	0.610122
C71	C	0.925803	-0.350210	0.110118
C72	C	1.425803	0.149790	0.610118
C73	C	0.926276	-0.320493	0.055033
C74	C	1.426276	0.179507	0.555033
C75	C	0.925760	-0.350221	-0.000048
C76	C	1.425760	0.149779	0.499952
C77	C	0.924720	-0.409672	-0.110218
C78	C	1.424720	0.090328	0.389782
C79	C	0.925701	-0.350220	-0.110216
C80	C	1.425701	0.149780	0.389784
C81	C	0.926218	-0.320493	-0.055130
C82	C	1.426218	0.179507	0.444870
C83	C	0.927222	-0.261060	-0.055136
C84	C	1.427222	0.238940	0.444864
N85	N	0.927730	-0.231329	-0.000054
N86	N	1.427730	0.268671	0.499946
C87	C	0.927258	-0.261046	0.055030
C88	C	1.427258	0.238954	0.555030
C89	C	0.921211	-0.623684	-0.055116
C90	C	1.421211	-0.123684	0.444884
C91	C	0.920236	-0.683131	-0.055114
C92	C	1.420236	-0.183131	0.444886
C93	C	0.920272	-0.683117	0.055057
C94	C	1.420272	-0.183117	0.555057
C95	C	0.921254	-0.623669	0.055054
C96	C	1.421254	-0.123669	0.555054
C97	C	0.921720	-0.593953	-0.000034
C98	C	1.421720	-0.093953	0.499966
C99	C	0.929334	-0.136208	0.055018
C100	C	1.429334	0.363792	0.555018
C101	C	0.930326	-0.076759	0.055009
C102	C	1.430326	0.423241	0.555009
C103	C	0.930285	-0.076778	-0.055161
C104	C	1.430285	0.423222	0.444839
C105	C	0.929298	-0.136222	-0.055153
C106	C	1.429298	0.363778	0.444847
C107	C	0.928819	-0.165936	-0.000058
C108	C	1.428819	0.334064	0.499942
O109	O	0.927740	-0.230275	-0.101958
O110	O	1.427740	0.269725	0.398042
O111	O	0.927771	-0.230291	0.101873
O112	O	1.427771	0.269709	0.601873
C113	C	1.068615	0.122419	-0.000064
C114	C	1.568615	0.622419	0.499936
C115	C	1.155618	0.127502	-0.000066
C116	C	1.655618	0.627502	0.499934
C117	C	0.918720	0.223878	-0.000038
C118	C	1.418720	0.723878	0.499962
C119	C	0.919759	0.287148	-0.000029
C120	C	1.419759	0.787148	0.499971
N121	N	0.925235	0.120065	-0.143859
N122	N	1.425235	0.620065	0.356141
C123	C	0.878024	0.083330	-0.436466
C124	C	1.378024	0.583330	0.063534
C125	C	0.878017	0.083332	-0.372858
C126	C	1.378017	0.583332	0.127142
O127	O	0.837847	0.052098	-0.339962
O128	O	1.337847	0.552098	0.160038
N129	N	0.925266	0.120049	-0.341043
N130	N	1.425266	0.620049	0.158957
C131	C	0.972530	0.156761	-0.372839
C132	C	1.472530	0.656761	0.127161
O133	O	1.012718	0.187992	-0.339937
O134	O	1.512718	0.687992	0.160063
C135	C	0.972540	0.156756	-0.436446
C136	C	1.472540	0.656756	0.063554
C137	C	0.925283	0.120041	-0.468257
C138	C	1.425283	0.620041	0.031743
C139	C	0.830771	0.046617	-0.468278
C140	C	1.330771	0.546617	0.031722
C141	C	0.830777	0.046616	-0.531881
C142	C	1.330777	0.546616	-0.031881
C143	C	0.878036	0.083327	-0.563672
C144	C	1.378036	0.583327	-0.063672
C145	C	0.925289	0.120039	-0.531860
C146	C	1.425289	0.620039	-0.031860
C147	C	1.019808	0.193465	-0.468240
C148	C	1.519808	0.693465	0.031760
C149	C	1.019815	0.193456	-0.531851
C150	C	1.519815	0.693456	-0.031851
C151	C	0.972558	0.156741	-0.563663
C152	C	1.472558	0.656741	-0.063663
C153	C	0.972554	0.156749	-0.627255
C154	C	1.472554	0.656749	-0.127255
N155	N	0.925306	0.120033	-0.659070
N156	N	1.425306	0.620033	-0.159070
C157	C	0.878047	0.083321	-0.627279
C158	C	1.378047	0.583321	-0.127279
C159	C	0.972505	0.156769	-0.239261
C160	C	1.472505	0.656769	0.260739
C161	C	0.972491	0.156778	-0.175656
C162	C	1.472491	0.656778	0.324344
C163	C	0.877979	0.083348	-0.175679
C164	C	1.377979	0.583348	0.324321
C165	C	0.877990	0.083342	-0.239286
C166	C	1.377990	0.583342	0.260714
C167	C	0.925257	0.120053	-0.271076
C168	C	1.425257	0.620053	0.228924
C169	C	0.878063	0.083322	-0.760850
C170	C	1.378063	0.583322	-0.260850
C171	C	0.878070	0.083325	-0.824459
C172	C	1.378070	0.583325	-0.324459
C173	C	0.972585	0.156753	-0.824430
C174	C	1.472585	0.656753	-0.324430
C175	C	0.972574	0.156752	-0.760827
C176	C	1.472574	0.656752	-0.260827
C177	C	0.925311	0.120032	-0.729038
C178	C	1.425311	0.620032	-0.229038
O179	O	1.012706	0.187965	-0.660191
O180	O	1.512706	0.687965	-0.160191
O181	O	0.837873	0.052091	-0.660188
O182	O	1.337873	0.552091	-0.160188
N183	N	0.925329	0.120036	0.143750
N184	N	1.425329	0.620036	0.643750
H185	H	0.669629	0.205482	-0.000020
H186	H	1.169629	0.705482	0.499980
H187	H	0.919885	-0.707323	0.099910
H188	H	1.419885	-0.207323	0.599910
H189	H	0.921594	-0.599493	-0.099979
H190	H	1.421594	-0.099493	0.400021
H191	H	0.839498	0.053456	-0.149783
H192	H	1.339498	0.553456	0.350217
C193	C	0.506861	0.210827	-0.000042
C194	C	1.006861	0.710827	0.499958
N195	N	0.464912	0.251469	-0.000049
N196	N	0.964912	0.751469	0.499951
H197	H	1.010993	0.186669	-0.265141
H198	H	1.510993	0.686669	0.234859
C199	C	0.926363	-0.317517	0.170717
C200	C	1.426363	0.182483	0.670717
N201	N	0.926780	-0.292897	0.216363
N202	N	1.426780	0.207103	0.716363
C203	C	0.302695	0.245323	-0.000042
C204	C	0.802695	0.745323	0.499958
N205	N	0.328466	0.289924	-0.000040
N206	N	0.828466	0.789924	0.499960
H207	H	0.705059	0.018834	-0.000061
H208	H	1.205059	0.518834	0.499939
C209	C	0.924328	-0.442335	0.170725
C210	C	1.424328	0.057665	0.670725
N211	N	0.923980	-0.466947	0.216375
N212	N	1.423980	0.033053	0.716375
C213	C	0.131026	0.235285	-0.000048
C214	C	0.631026	0.735285	0.499952
N215	N	0.089070	0.275924	-0.000047
N216	N	0.589070	0.775924	0.499953
H217	H	1.058292	0.223362	-0.442350
H218	H	1.558292	0.723362	0.057650
C219	C	0.928737	-0.168924	-0.115749
C220	C	1.428737	0.331076	0.384251
N221	N	0.928307	-0.193550	-0.161391
N222	N	1.428307	0.306450	0.338609
H223	H	0.924301	-0.433866	-0.155074
H224	H	1.424301	0.066134	0.344926
H225	H	1.011044	0.186656	-0.734924
H226	H	1.511044	0.686656	-0.234924
C227	C	0.926217	-0.317536	-0.170819
C228	C	1.426217	0.182464	0.329181
N229	N	0.926609	-0.292920	-0.216466
N230	N	1.426609	0.207080	0.283534
H231	H	0.930749	-0.052558	0.099869
H232	H	1.430749	0.447442	0.599869
C233	C	0.778793	0.006224	-0.566865
C234	C	1.278793	0.506224	-0.066865
N235	N	0.739638	-0.024203	-0.593212
N236	N	1.239638	0.475797	-0.093212
C237	C	0.921815	-0.590974	0.115652
C238	C	1.421815	-0.090974	0.615652
N239	N	0.922234	-0.566351	0.161296
N240	N	1.422234	-0.066351	0.661296
C241	C	1.024569	0.197132	-0.859413
C242	C	1.524569	0.697132	-0.359413
N243	N	1.063730	0.227542	-0.885764
N244	N	1.563730	0.727542	-0.385764
C245	C	0.172033	0.019238	-0.000086
C246	C	0.672033	0.519238	0.499914
N247	N	0.146257	-0.025361	-0.000094
N248	N	0.646257	0.474639	0.499906
C249	C	0.919675	-0.715824	-0.115712
C250	C	1.419675	-0.215824	0.384288
N251	N	0.919247	-0.740447	-0.161357
N252	N	1.419247	-0.240447	0.338643
C253	C	0.343693	0.029274	-0.000080
C254	C	0.843693	0.529274	0.499920
N255	N	0.385640	-0.011370	-0.000087
N256	N	0.885640	0.488630	0.499913
H257	H	0.928941	-0.160394	0.099881
H258	H	1.428941	0.339606	0.599881
C259	C	1.071810	0.233845	-0.566817
C260	C	1.571810	0.733845	-0.066817
N261	N	1.110969	0.264267	-0.593151
N262	N	1.610969	0.764267	-0.093151
H263	H	0.556748	0.010166	-0.000079
H264	H	1.056748	0.510166	0.499921
H265	H	0.839508	0.053446	-0.265183
H266	H	1.339508	0.553446	0.234817
C267	C	0.930798	-0.044078	-0.115751
C268	C	1.430798	0.455922	0.384249
N269	N	0.931175	-0.019446	-0.161388
N270	N	1.431175	0.480554	0.338612
C271	C	0.826082	0.042934	-0.859448
C272	C	1.326082	0.542934	-0.359448
N273	N	0.786926	0.012511	-0.885800
N274	N	1.286926	0.512511	-0.385800
C275	C	0.826066	0.042931	-0.725892
C276	C	1.326066	0.542931	-0.225892
N277	N	0.786897	0.012511	-0.699562
N278	N	1.286897	0.512511	-0.199562
C279	C	0.778774	0.006231	-0.433317
C280	C	1.278774	0.506231	0.066683
N281	N	0.739601	-0.024187	-0.406989
N282	N	1.239601	0.475813	0.093011
H283	H	1.010963	0.186682	-0.149760
H284	H	1.510963	0.686682	0.350240
