data_functionalizedCrystal
_audit_creation_method	'MofGen! by Chris Wilmer'
_symmetry_space_group_name_H-M	'P1'
_symmetry_Int_Tables_number	1
_symmetry_cell_setting	triclinic
loop_
_symmetry_equiv_pos_as_xyz
  x,y,z
_cell_length_a	8.497374
_cell_length_b	19.805405
_cell_length_c	19.805407
_cell_angle_alpha	89.973590
_cell_angle_beta	89.995496
_cell_angle_gamma	90.014089
loop_
_atom_site_label
_atom_site_type_symbol
_atom_site_fract_x
_atom_site_fract_y
_atom_site_fract_z
Zn1	Zn	0.892011	-0.269581	-1.034635
Zn2	Zn	0.628188	-0.382739	-1.034580
Zn3	Zn	0.628226	-0.269569	-0.921479
Zn4	Zn	0.891907	-0.382733	-0.921413
O5	O	0.760083	-0.326155	-0.978027
O6	O	0.857043	-0.284598	-1.129344
O7	O	0.407431	-0.367724	-1.019581
O8	O	0.663277	-0.174854	-0.936541
O9	O	0.663213	-0.367735	-1.129303
O10	O	0.857079	-0.174862	-1.019676
O11	O	0.407458	-0.284579	-0.936487
O12	O	0.663176	-0.284573	-0.826754
O13	O	1.112683	-0.367725	-0.936428
O14	O	0.856901	-0.367714	-0.826705
O15	O	1.112760	-0.284593	-1.019611
O16	O	0.663111	-0.477455	-1.019517
O17	O	0.856864	-0.477450	-0.936374
C18	C	0.760007	-0.502011	-0.977951
C19	C	0.760027	-0.577243	-0.977980
C20	C	0.760032	-0.326142	-0.802171
C21	C	0.760048	-0.326153	-0.726939
C22	C	0.659245	-0.612567	-1.021314
C23	C	0.659280	-0.683256	-1.021343
C24	C	0.760090	-0.718619	-0.978034
C25	C	0.860882	-0.683290	-0.934697
C26	C	0.860854	-0.612603	-0.934672
C27	C	0.860999	-0.968363	-0.934797
C28	C	0.861016	-1.039055	-0.934824
C29	C	0.659425	-1.039016	-1.021468
C30	C	0.659397	-0.968329	-1.021443
C31	C	0.760195	-0.933006	-0.978109
C32	C	0.760158	-0.856358	-0.978080
C33	C	0.760120	-0.795266	-0.978059
C34	C	1.171563	-0.326156	-0.978022
C35	C	1.350207	-0.326164	-0.978023
C36	C	0.760135	-0.326169	-1.154569
C37	C	0.760157	-0.326175	-1.229801
C38	C	0.760194	-0.149613	-0.978122
C39	C	0.760241	-0.074381	-0.978162
C40	C	0.860757	-0.369510	-0.691587
C41	C	0.860779	-0.369511	-0.620899
C42	C	0.760083	-0.326158	-0.585563
C43	C	0.659369	-0.282797	-0.620920
C44	C	0.659356	-0.282793	-0.691607
C45	C	0.659421	-0.282812	-0.335847
C46	C	0.659439	-0.282821	-0.265155
C47	C	0.860844	-0.369530	-0.265138
C48	C	0.860831	-0.369526	-0.335825
C49	C	0.760124	-0.326162	-0.371176
C50	C	0.760103	-0.326161	-0.447824
C51	C	0.760095	-0.326163	-0.508916
H52	H	0.577148	-0.583779	-1.056579
C53	C	0.548428	-0.722112	-1.069016
C54	C	0.437539	-0.683215	-1.116656
C55	C	0.326691	-0.722071	-1.164335
C56	C	0.326731	-0.799824	-1.164374
C57	C	0.437624	-0.838726	-1.116733
C58	C	0.548472	-0.799870	-1.069054
H59	H	0.437506	-0.625654	-1.116628
H60	H	0.244600	-0.693274	-1.199602
H61	H	0.244674	-0.828588	-1.199669
H62	H	0.437657	-0.896287	-1.116760
H63	H	0.630562	-0.828667	-1.033787
C64	C	0.548634	-0.235125	-0.374734
C65	C	0.424660	-0.264377	-0.423311
C66	C	0.313864	-0.216692	-0.462206
C67	C	0.327042	-0.139754	-0.452524
C68	C	0.451021	-0.110498	-0.403945
C69	C	0.561817	-0.158184	-0.365050
H70	H	0.414900	-0.321334	-0.430480
H71	H	0.222086	-0.238349	-0.498167
H72	H	0.245024	-0.104455	-0.481316
H73	H	0.460781	-0.053541	-0.396775
H74	H	0.653594	-0.136526	-0.329088
H75	H	0.942751	-0.404815	-0.720352
C76	C	0.548556	-1.077873	-1.069143
C77	C	0.548582	-1.155626	-1.069179
C78	C	0.437712	-1.194480	-1.116851
C79	C	0.326818	-1.155581	-1.164487
C80	C	0.326789	-1.077823	-1.164452
C81	C	0.437658	-1.038969	-1.116780
H82	H	0.630676	-1.184425	-1.033915
H83	H	0.437735	-1.252041	-1.116876
H84	H	0.244746	-1.184343	-1.199776
H85	H	0.244694	-1.049024	-1.199716
H86	H	0.437635	-0.981408	-1.116755
H87	H	0.577356	-0.247484	-0.720390
H88	H	0.942923	-0.583843	-0.899386
H89	H	0.942970	-0.712088	-0.899437
C90	C	0.971640	-0.417226	-0.226251
C91	C	0.958426	-0.494162	-0.235937
C92	C	1.069214	-0.541858	-0.197052
C93	C	1.193216	-0.512619	-0.148480
C94	C	1.206435	-0.435680	-0.138792
C95	C	1.095647	-0.387983	-0.177677
H96	H	0.866628	-0.515810	-0.271894
H97	H	1.059427	-0.598814	-0.204224
H98	H	1.275227	-0.547927	-0.119695
H99	H	1.298233	-0.414032	-0.102834
H100	H	1.105434	-0.331027	-0.170505
H101	H	0.942785	-0.404817	-0.592118
H102	H	0.577303	-0.939538	-1.056707
H103	H	0.943069	-0.939609	-0.899512
C104	C	0.971924	-1.077957	-0.887184
C105	C	1.082804	-1.039105	-0.839521
C106	C	1.193704	-1.078007	-0.791884
C107	C	1.193722	-1.155760	-0.791910
C108	C	1.082837	-1.194616	-0.839576
C109	C	0.971938	-1.155714	-0.887212
H110	H	1.082794	-0.981544	-0.839499
H111	H	1.275788	-1.049243	-0.756599
H112	H	1.275816	-1.184557	-0.756647
H113	H	1.082848	-1.252177	-0.839597
H114	H	0.889854	-1.184478	-0.922497
C115	C	0.971603	-0.417213	-0.374693
C116	C	1.082394	-0.464902	-0.335808
C117	C	1.193173	-0.512587	-0.374675
C118	C	1.193162	-0.512583	-0.452428
C119	C	1.082367	-0.464892	-0.491318
C120	C	0.971587	-0.417207	-0.452451
H121	H	1.082406	-0.464906	-0.278246
H122	H	1.275191	-0.547891	-0.345885
H123	H	1.275168	-0.547882	-0.481200
H124	H	1.082355	-0.464887	-0.548880
H125	H	0.889570	-0.381903	-0.481241
H126	H	0.577440	-0.247514	-0.236386
H127	H	0.577387	-0.247496	-0.592144
