data_functionalizedCrystal
_audit_creation_method	'MofGen! by Chris Wilmer'
_symmetry_space_group_name_H-M	'P1'
_symmetry_Int_Tables_number	1
_symmetry_cell_setting	triclinic
loop_
_symmetry_equiv_pos_as_xyz
  x,y,z
_cell_length_a	17.077404
_cell_length_b	12.594516
_cell_length_c	12.594509
_cell_angle_alpha	89.975000
_cell_angle_beta	90.021213
_cell_angle_gamma	89.973044
loop_
_atom_site_label
_atom_site_type_symbol
_atom_site_fract_x
_atom_site_fract_y
_atom_site_fract_z
Zn1	Zn	1.200047	0.423720	0.601861
Zn2	Zn	1.700047	0.923720	1.101861
Zn3	Zn	1.199941	0.601725	0.423888
Zn4	Zn	1.699941	1.101725	0.923888
Zn5	Zn	1.068775	0.423762	0.423891
Zn6	Zn	1.568775	0.923762	0.923891
Zn7	Zn	1.068738	0.601658	0.601819
Zn8	Zn	1.568738	1.101658	1.101819
O9	O	1.134375	0.512716	0.512865
O10	O	1.634375	1.012716	1.012865
O11	O	1.309880	0.447344	0.578268
O12	O	1.809880	0.947344	1.078268
O13	O	1.182513	0.578164	0.274942
O14	O	1.682513	1.078164	0.774942
O15	O	1.086248	0.274811	0.447518
O16	O	1.586248	0.774811	0.947518
O17	O	1.309802	0.578123	0.447512
O18	O	1.809802	1.078123	0.947512
O19	O	1.182693	0.274780	0.578272
O20	O	1.682693	0.774780	1.078272
O21	O	1.086146	0.447415	0.274945
O22	O	1.586146	0.947415	0.774945
O23	O	0.958923	0.447349	0.447477
O24	O	1.458923	0.947349	0.947477
O25	O	1.086185	0.578008	0.750770
O26	O	1.586185	1.078008	1.250770
O27	O	0.958896	0.578048	0.578200
O28	O	1.458896	1.078048	1.078200
O29	O	1.182657	0.447278	0.750801
O30	O	1.682657	0.947278	1.250801
O31	O	1.182477	0.750662	0.447471
O32	O	1.682477	1.250662	0.947471
O33	O	1.086083	0.750612	0.578197
O34	O	1.586083	1.250612	1.078197
C35	C	0.930427	0.512697	0.512835
C36	C	1.430427	1.012697	1.012835
C37	C	0.843178	0.512714	0.512848
C38	C	1.343178	1.012714	1.012848
C39	C	1.134286	0.789257	0.512852
C40	C	1.634286	1.289257	1.012852
C41	C	1.134319	0.907563	0.512883
C42	C	1.634319	1.407563	1.012883
C43	C	0.802194	0.580872	0.580806
C44	C	1.302194	1.080872	1.080806
C45	C	0.720213	0.580874	0.580823
C46	C	1.220213	1.080874	1.080823
C47	C	0.679218	0.512723	0.512876
C48	C	1.179218	1.012723	1.012876
C49	C	0.720208	0.444558	0.444915
C50	C	1.220208	0.944558	0.944915
C51	C	0.802187	0.444551	0.444904
C52	C	1.302187	0.944551	0.944904
C53	C	0.549338	0.444579	0.444940
C54	C	1.049338	0.944579	0.944940
C55	C	0.467353	0.444587	0.444949
C56	C	0.967353	0.944587	0.944949
C57	C	0.467364	0.580902	0.580860
C58	C	0.967364	1.080902	1.080860
C59	C	0.549343	0.580895	0.580849
C60	C	1.049343	1.080895	1.080849
C61	C	0.590327	0.512731	0.512886
C62	C	1.090327	1.012731	1.012886
C63	C	1.081876	0.976827	0.583934
C64	C	1.581876	1.476827	1.083934
C65	C	1.062740	1.047690	0.486811
C66	C	1.562740	1.547690	0.986811
C67	C	1.153498	1.047499	0.610022
C68	C	1.653498	1.547499	1.110022
C69	C	1.115146	0.976867	0.415708
C70	C	1.615146	1.476867	0.915708
C71	C	1.205937	0.976670	0.538985
C72	C	1.705937	1.476670	1.038985
C73	C	1.186828	1.047500	0.441794
C74	C	1.686828	1.547500	0.941794
C75	C	1.339119	0.512736	0.512895
C76	C	1.839119	1.012736	1.012895
C77	C	1.426369	0.512745	0.512908
C78	C	1.926369	1.012745	1.012908
C79	C	1.134429	0.512630	0.790486
C80	C	1.634429	1.012630	1.290486
C81	C	1.134452	0.512594	0.908791
C82	C	1.634452	1.012594	1.408791
C83	C	1.134452	1.235095	0.512898
C84	C	1.634452	1.735095	1.012898
C85	C	1.134396	1.116790	0.512909
C86	C	1.634396	1.616790	1.012909
C87	C	1.134367	0.512725	0.236324
C88	C	1.634367	1.012725	0.736324
C89	C	1.134496	0.512461	0.118019
C90	C	1.634496	1.012461	0.618019
C91	C	1.082014	0.583609	1.048791
C92	C	1.582014	1.083609	1.548791
C93	C	1.062835	0.486544	0.977987
C94	C	1.562835	0.986544	1.477987
C95	C	1.153595	0.609649	0.978024
C96	C	1.653595	1.109649	1.478024
C97	C	1.115281	0.415344	1.048772
C98	C	1.615281	0.915344	1.548772
C99	C	1.206074	0.538515	1.048816
C100	C	1.706074	1.038515	1.548816
C101	C	1.186923	0.441383	0.978043
C102	C	1.686923	0.941383	1.478043
H103	H	0.835566	0.636372	0.636133
H104	H	1.335566	1.136372	1.136133
Br105	Br	1.260807	1.098897	0.341558
Br106	Br	1.760807	1.598897	0.841558
Br107	Br	0.664595	0.673376	0.673059
Br108	Br	1.164595	1.173376	1.173059
H109	H	1.037616	0.643643	1.079856
H110	H	1.537616	1.143643	1.579856
Br111	Br	0.961914	0.449891	0.926135
Br112	Br	1.461914	0.949891	1.426135
H113	H	0.433977	0.389080	0.389633
H114	H	0.933977	0.889080	0.889633
H115	H	1.169688	1.078525	0.692160
H116	H	1.669688	1.578525	1.192160
H117	H	1.037459	0.945795	0.643933
H118	H	1.537459	1.445795	1.143933
H119	H	1.099040	0.333186	1.079720
H120	H	1.599040	0.833186	1.579720
H121	H	1.002211	1.078909	0.464755
H122	H	1.502211	1.578909	0.964755
H123	H	1.098885	0.945970	0.333547
H124	H	1.598885	1.445970	0.833547
Br125	Br	1.306802	0.924637	0.575821
Br126	Br	1.806802	1.424637	1.075821
Br127	Br	1.260869	0.341086	0.926592
Br128	Br	1.760869	0.841086	1.426592
H129	H	1.266608	0.560530	1.079951
H130	H	1.766608	1.060530	1.579951
Br131	Br	1.180543	0.746540	0.926207
Br132	Br	1.680543	1.246540	1.426207
H133	H	0.433991	0.636401	0.636201
H134	H	0.933991	1.136401	1.136201
Br135	Br	0.604958	0.352068	0.352706
Br136	Br	1.104958	0.852068	0.852706
Br137	Br	0.604980	0.673397	0.673053
Br138	Br	1.104980	1.173397	1.173053
H139	H	0.686823	0.389064	0.389595
H140	H	1.186823	0.889064	0.889595
H141	H	0.835555	0.389045	0.389571
H142	H	1.335555	0.889045	0.889571
