data_functionalizedCrystal
_audit_creation_method	'MofGen! by Chris Wilmer'
_symmetry_space_group_name_H-M	'P1'
_symmetry_Int_Tables_number	1
_symmetry_cell_setting	triclinic
loop_
_symmetry_equiv_pos_as_xyz
  x,y,z
_cell_length_a	27.732048
_cell_length_b	16.109301
_cell_length_c	14.586319
_cell_angle_alpha	90.005214
_cell_angle_beta	89.998001
_cell_angle_gamma	83.052068
loop_
_atom_site_label
_atom_site_type_symbol
_atom_site_fract_x
_atom_site_fract_y
_atom_site_fract_z
O1	O	-0.641341	-0.098925	-0.076125
O2	O	-0.141341	0.401075	0.423875
O3	O	-0.500610	-0.113967	-0.076153
O4	O	-0.000610	0.386033	0.423847
O5	O	-0.574841	0.014633	-0.076129
O6	O	-0.074841	0.514633	0.423871
O7	O	-0.567109	-0.227525	-0.076149
O8	O	-0.067109	0.272475	0.423851
O9	O	-0.574836	0.014634	0.076352
O10	O	-0.074836	0.514634	0.576352
O11	O	-0.500605	-0.113965	0.076327
O12	O	-0.000605	0.386035	0.576327
O13	O	-0.641335	-0.098923	0.076356
O14	O	-0.141335	0.401077	0.576356
Cu15	Cu	-0.570970	-0.106444	0.090264
Cu16	Cu	-0.070970	0.393556	0.590264
Cu17	Cu	-0.570976	-0.106446	-0.090062
Cu18	Cu	-0.070976	0.393554	0.409938
O19	O	-0.567104	-0.227523	0.076331
O20	O	-0.067104	0.272477	0.576331
C21	C	-0.574526	0.045605	0.000112
C22	C	-0.074526	0.545605	0.500112
C23	C	-0.573586	0.137888	0.000113
C24	C	-0.073586	0.637888	0.500113
C25	C	-0.482599	-0.113650	0.000084
C26	C	0.017401	0.386350	0.500084
C27	C	-0.428940	-0.112700	0.000073
C28	C	0.071060	0.387300	0.500073
C29	C	-0.659346	-0.099240	0.000117
C30	C	-0.159346	0.400760	0.500117
C31	C	-0.713005	-0.100191	0.000121
C32	C	-0.213005	0.399809	0.500121
C33	C	-0.090418	-0.182708	0.000107
C34	C	0.409582	0.317292	0.500107
C35	C	0.111256	-0.179181	0.000115
C36	C	0.611256	0.320819	0.500115
O37	O	0.142244	-0.243198	0.000150
O38	O	0.642244	0.256802	0.500150
N39	N	0.130699	-0.102926	0.000120
N40	N	0.630699	0.397074	0.500120
C41	C	0.099720	-0.027548	0.000129
C42	C	0.599720	0.472452	0.500129
O43	O	0.120885	0.037392	0.000143
O44	O	0.620885	0.537392	0.500143
C45	C	-0.101954	-0.031077	0.000127
C46	C	0.398046	0.468923	0.500127
C47	C	-0.121393	-0.107336	0.000113
C48	C	0.378607	0.392664	0.500113
C49	C	-0.109859	-0.258961	0.000094
C50	C	0.390141	0.241039	0.500094
C51	C	-0.160274	-0.259842	0.000087
C52	C	0.339726	0.240158	0.500087
C53	C	-0.191250	-0.184470	0.000093
C54	C	0.308750	0.315530	0.500093
C55	C	-0.171809	-0.108217	0.000106
C56	C	0.328191	0.391783	0.500106
C57	C	-0.132932	0.044300	0.000142
C58	C	0.367068	0.544300	0.500142
C59	C	-0.183353	0.043411	0.000144
C60	C	0.316647	0.543411	0.500144
C61	C	-0.202793	-0.032848	0.000130
C62	C	0.297207	0.467152	0.500130
C63	C	-0.253200	-0.033726	0.000105
C64	C	0.246800	0.466274	0.500105
N65	N	-0.272643	-0.109981	0.000100
N66	N	0.227357	0.390019	0.500100
C67	C	-0.241668	-0.185353	0.000094
C68	C	0.258332	0.314647	0.500094
C69	C	0.205602	-0.025701	0.000128
C70	C	0.705602	0.474299	0.500128
C71	C	0.256020	-0.024819	0.000127
C72	C	0.756020	0.475181	0.500127
C73	C	0.267553	-0.176451	0.000115
C74	C	0.767553	0.323549	0.500115
C75	C	0.217134	-0.177333	0.000110
C76	C	0.717134	0.322667	0.500110
C77	C	0.186159	-0.101956	0.000123
C78	C	0.686159	0.398044	0.500123
C79	C	-0.347545	-0.187197	0.000078
C80	C	0.152455	0.312803	0.500078
C81	C	-0.397965	-0.188072	0.000067
C82	C	0.102035	0.311928	0.500067
C83	C	-0.409494	-0.036440	0.000084
C84	C	0.090506	0.463560	0.500084
C85	C	-0.359077	-0.035565	0.000090
C86	C	0.140923	0.464435	0.500090
C87	C	-0.328104	-0.110950	0.000090
C88	C	0.171896	0.389050	0.500090
O89	O	-0.284216	0.030257	0.000081
O90	O	0.215784	0.530257	0.500081
O91	O	-0.262842	-0.250283	0.000101
O92	O	0.237158	0.249717	0.500101
C93	C	-0.040003	-0.181827	0.000114
C94	C	0.459997	0.318173	0.500114
C95	C	-0.020562	-0.105574	0.000127
C96	C	0.479438	0.394426	0.500127
C97	C	-0.051537	-0.030202	0.000133
C98	C	0.448463	0.469798	0.500133
C99	C	0.029856	-0.104692	0.000126
C100	C	0.529856	0.395308	0.500126
C101	C	0.060831	-0.180064	0.000120
C102	C	0.560831	0.319936	0.500120
C103	C	0.041388	-0.256318	0.000115
C104	C	0.541388	0.243682	0.500115
C105	C	-0.009027	-0.257199	0.000108
C106	C	0.490973	0.242801	0.500108
C107	C	-0.032095	0.046052	0.000138
C108	C	0.467905	0.546052	0.500138
C109	C	0.018322	0.046927	0.000144
C110	C	0.518322	0.546927	0.500144
C111	C	0.049297	-0.028445	0.000138
C112	C	0.549297	0.471555	0.500138
C113	C	-0.567420	-0.258495	0.000089
C114	C	-0.067420	0.241505	0.500089
C115	C	-0.568359	-0.350779	0.000081
C116	C	-0.068359	0.149221	0.500081
N117	N	-0.570969	-0.106442	0.217096
N118	N	-0.070969	0.393558	0.717096
C119	C	-0.615450	0.360679	0.000107
C120	C	-0.115450	0.860679	0.500107
C121	C	-0.614564	0.447388	0.000099
C122	C	-0.114564	0.947388	0.500099
C123	C	-0.526492	0.426424	0.000085
C124	C	-0.026492	0.926424	0.500085
C125	C	-0.527378	0.339716	0.000086
C126	C	-0.027378	0.839716	0.500086
C127	C	-0.571859	0.306846	0.000102
C128	C	-0.071859	0.806846	0.500102
C129	C	-0.570086	0.480263	0.000093
C130	C	-0.070086	0.980263	0.500093
C131	C	-0.569125	0.574277	0.000084
C132	C	-0.069125	1.074277	0.500084
C133	C	-0.572820	0.212826	0.000108
C134	C	-0.072820	0.712826	0.500108
N135	N	-0.570980	-0.106442	-0.216894
N136	N	-0.070980	0.393558	0.283106
C137	C	-0.603849	-0.049517	0.452113
C138	C	-0.103849	0.450483	0.952113
C139	C	-0.603851	-0.049515	0.548094
C140	C	-0.103851	0.450485	1.048094
C141	C	-0.538096	-0.163370	0.548082
C142	C	-0.038096	0.336630	1.048082
C143	C	-0.538093	-0.163367	0.452103
C144	C	-0.038093	0.336633	0.952103
C145	C	-0.570972	-0.106442	0.404121
C146	C	-0.070972	0.393558	0.904121
C147	C	-0.570977	-0.106442	0.596081
C148	C	-0.070977	0.393558	1.096081
C149	C	-0.570978	-0.106440	0.700149
C150	C	-0.070978	0.393560	1.200149
C151	C	-0.570971	-0.106442	0.300047
C152	C	-0.070971	0.393558	0.800047
H153	H	-0.322331	-0.248584	0.000081
H154	H	0.177669	0.251416	0.500081
N155	N	-0.214991	0.120411	0.000136
N156	N	0.285009	0.620411	0.500136
N157	N	-0.244407	0.136842	-0.064143
N158	N	0.255593	0.636842	0.435857
H159	H	-0.266751	0.191223	-0.064152
H160	H	0.233249	0.691223	0.435848
N161	N	-0.481053	0.459984	0.000074
N162	N	0.018947	0.959984	0.500074
N163	N	-0.451665	0.443274	-0.064201
N164	N	0.048335	0.943274	0.435799
H165	H	-0.419572	0.466972	-0.064205
H166	H	0.080428	0.966972	0.435795
H167	H	0.292781	-0.237822	0.000111
H168	H	0.792781	0.262178	0.500111
N169	N	-0.482843	0.284732	0.000071
N170	N	0.017157	0.784732	0.500071
N171	N	-0.443132	0.314088	0.000062
N172	N	0.056868	0.814088	0.500062
H173	H	-0.411681	0.275257	0.000048
H174	H	0.088319	0.775257	0.500048
N175	N	0.197279	-0.255229	0.000124
N176	N	0.697279	0.244771	0.500124
N177	N	0.170436	-0.272641	0.064404
N178	N	0.670436	0.227359	0.564404
H179	H	0.156415	-0.327658	0.064418
H180	H	0.656415	0.172342	0.564418
H181	H	-0.630621	-0.003164	0.413048
H182	H	-0.130621	0.496836	0.913048
N183	N	-0.660889	0.327116	0.000125
N184	N	-0.160889	0.827116	0.500125
N185	N	-0.699806	0.375195	0.000131
N186	N	-0.199806	0.875195	0.500131
H187	H	-0.731899	0.351495	0.000143
H188	H	-0.231899	0.851495	0.500143
H189	H	-0.176097	-0.321940	0.000075
H190	H	0.323903	0.178060	0.500075
N191	N	-0.637424	0.008645	0.597122
N192	N	-0.137424	0.508645	1.097122
N193	N	-0.622092	0.060074	0.650673
N194	N	-0.122092	0.560074	1.150673
H195	H	-0.645802	0.101159	0.685297
H196	H	-0.145802	0.601159	1.185297
H197	H	0.271843	0.037279	0.000124
H198	H	0.771843	0.537279	0.500124
N199	N	-0.504516	-0.221508	0.597111
N200	N	-0.004516	0.278492	1.097111
N201	N	-0.504523	-0.221504	0.682806
N202	N	-0.004523	0.278496	1.182806
H203	H	-0.480806	-0.262567	0.717433
H204	H	0.019194	0.237433	1.217433
N205	N	0.173966	0.051301	0.000152
N206	N	0.673966	0.551301	0.500152
N207	N	0.175738	0.102164	0.064431
N208	N	0.675738	0.602164	0.564431
H209	H	0.153397	0.156548	0.064446
H210	H	0.653397	0.656548	0.564446
N211	N	-0.417813	-0.265980	0.000047
N212	N	0.082187	0.234020	0.500047
N213	N	-0.390148	-0.333269	0.000042
N214	N	0.109852	0.166731	0.500042
H215	H	-0.404164	-0.388291	0.000028
H216	H	0.095836	0.111709	0.500028
N217	N	-0.078230	-0.335967	0.000094
N218	N	0.421770	0.164033	0.500094
N219	N	-0.095604	-0.404037	0.000086
N220	N	0.404396	0.095963	0.500086
H221	H	-0.073269	-0.458428	0.000080
H222	H	0.426731	0.041572	0.500080
H223	H	-0.511318	-0.209722	0.413025
H224	H	-0.011318	0.290278	0.913025
H225	H	-0.117113	0.106398	0.000154
H226	H	0.382887	0.606398	0.500154
N227	N	-0.659093	0.502375	0.000129
N228	N	-0.159093	1.002375	0.500129
N229	N	-0.668421	0.553101	0.064408
N230	N	-0.168421	1.053101	0.564408
H231	H	-0.699871	0.591936	0.064431
H232	H	-0.199871	1.091936	0.564431
N233	N	-0.339224	0.042336	0.000107
N234	N	0.160776	0.542336	0.500107
N235	N	-0.348725	0.092999	0.064387
N236	N	0.151275	0.592999	0.564387
H237	H	-0.334707	0.148019	0.064407
H238	H	0.165293	0.648019	0.564407
N239	N	-0.441147	0.040538	0.000102
N240	N	0.058853	0.540538	0.500102
N241	N	-0.470570	0.056944	0.064381
N242	N	0.029430	0.556944	0.564381
H243	H	-0.492928	0.111310	0.064402
H244	H	0.007072	0.611310	0.564402
N245	N	-0.028873	-0.335104	0.000091
N246	N	0.471127	0.164896	0.500091
N247	N	-0.001203	-0.402389	0.000084
N248	N	0.498797	0.097611	0.500084
H249	H	-0.015215	-0.457414	0.000072
H250	H	0.484785	0.042586	0.500072
H251	H	-0.057310	0.107431	0.000145
H252	H	0.442690	0.607431	0.500145
H253	H	0.066617	-0.317688	0.000107
H254	H	0.566617	0.182312	0.500107
H255	H	0.034144	0.109031	0.000148
H256	H	0.534144	0.609031	0.500148
