data_functionalizedCrystal
_audit_creation_method	'MofGen! by Chris Wilmer'
_symmetry_space_group_name_H-M	'P1'
_symmetry_Int_Tables_number	1
_symmetry_cell_setting	triclinic
loop_
_symmetry_equiv_pos_as_xyz
  x,y,z
_cell_length_a	19.188930
_cell_length_b	15.538191
_cell_length_c	14.185569
_cell_angle_alpha	82.124202
_cell_angle_beta	76.885558
_cell_angle_gamma	114.791562
loop_
_atom_site_label
_atom_site_type_symbol
_atom_site_fract_x
_atom_site_fract_y
_atom_site_fract_z
O1	O	-0.205739	-1.229395	-0.083403
O2	O	-0.125034	-0.954801	-0.083413
O3	O	-0.269037	-1.100027	-0.083388
O4	O	-0.061735	-1.084169	-0.083427
O5	O	-0.311574	-1.142929	0.083454
O6	O	-0.167570	-0.997702	0.083429
O7	O	-0.248275	-1.272296	0.083439
Cu8	Cu	-0.211807	-1.138916	0.098668
Cu9	Cu	-0.161503	-1.088181	-0.098642
O10	O	-0.104272	-1.127070	0.083415
C11	C	-0.137858	-0.941121	0.000007
C12	C	-0.112707	-0.836443	0.000004
C13	C	-0.316188	-1.120966	0.000036
C14	C	-0.393308	-1.119427	0.000045
C15	C	-0.235450	-1.285976	0.000017
C16	C	-0.260600	-1.390652	0.000014
C17	C	-0.459636	-1.204639	0.000053
C18	C	-0.532092	-1.203188	0.000037
C19	C	-0.538221	-1.116524	0.000033
C20	C	-0.471879	-1.031299	0.000019
C21	C	-0.399423	-1.032751	0.000025
N22	N	-0.644063	-1.064881	0.056810
N23	N	-0.712897	-1.063508	0.056806
C24	C	-0.756526	-1.112146	0.000012
N25	N	-0.728730	-1.162225	-0.056765
N26	N	-0.659893	-1.163601	-0.056757
C27	C	-0.616785	-1.114941	0.000025
C28	C	-0.901421	-1.195790	0.000001
C29	C	-0.973876	-1.194333	-0.000021
C30	C	-0.913663	-1.022445	-0.000028
C31	C	-0.841208	-1.023901	-0.000016
C32	C	-0.835093	-1.110577	0.000003
C33	C	-0.057120	-1.106131	-0.000012
C34	C	0.020001	-1.107668	-0.000027
N35	N	-0.247190	-1.174608	0.237446
C36	C	-0.362580	-0.549690	0.000037
C37	C	-0.338928	-0.451326	0.000032
C38	C	-0.205894	-0.428328	0.000006
C39	C	-0.229535	-0.526694	0.000016
C40	C	-0.307879	-0.587368	0.000031
C41	C	-0.174835	-0.564371	0.000010
C42	C	-0.198474	-0.662727	0.000015
C43	C	-0.276813	-0.723406	0.000026
C44	C	-0.331518	-0.685724	0.000035
C45	C	-0.096489	-0.503694	-0.000011
C46	C	-0.041789	-0.541372	-0.000017
C47	C	-0.065429	-0.639731	-0.000005
C48	C	-0.143769	-0.700410	0.000006
C49	C	-0.010724	-0.677414	-0.000015
C50	C	-0.034363	-0.775770	-0.000010
C51	C	-0.167408	-0.798766	0.000011
N52	N	-0.126126	-1.052497	-0.237419
C53	C	-0.022200	-0.947635	0.605057
C54	C	-0.049000	-0.974678	0.710083
C55	C	-0.176486	-1.103301	0.710066
C56	C	-0.149699	-1.076267	0.605037
C57	C	-0.072555	-0.998434	0.552541
C58	C	-0.200053	-1.127065	0.552522
C59	C	-0.173266	-1.100036	0.447503
C60	C	-0.096124	-1.022208	0.394999
C61	C	-0.045768	-0.971404	0.447522
C62	C	-0.277194	-1.204902	0.605020
C63	C	-0.327549	-1.255701	0.552505
C64	C	-0.300764	-1.228667	0.447484
C65	C	-0.223623	-1.150839	0.394980
C66	C	-0.351121	-1.279470	0.394961
C67	C	-0.324334	-1.252441	0.289942
C68	C	-0.196836	-1.123810	0.289961
H69	H	-0.454664	-1.275217	0.000065
F70	F	-0.409648	-1.338537	0.608384
H71	H	-1.027882	-1.263724	-0.000020
H72	H	-0.142105	-0.378914	-0.000009
H73	H	-0.365338	-1.293808	0.247183
F74	F	-0.328827	-0.942052	0.000016
F75	F	-0.602694	-1.293886	0.000043
H76	H	-0.896442	-1.266365	0.000013
F77	F	-0.478401	-0.939064	0.000008
H78	H	-0.787202	-0.954513	-0.000017
H79	H	-0.395315	-0.735130	0.000053
H80	H	-0.007987	-0.933305	0.752836
H81	H	-0.077244	-0.423606	-0.000018
H82	H	-0.426377	-0.599096	0.000054
H83	H	-0.074314	-1.000204	0.309486
F84	F	-0.301971	-0.828085	0.000025
H85	H	-0.918651	-0.951880	-0.000037
H86	H	-0.383478	-0.420654	0.000035
H87	H	0.053066	-0.627997	-0.000036
F88	F	0.036334	-0.888556	0.391649
H89	H	-0.231205	-0.848172	0.000028
H90	H	0.022000	-0.491957	-0.000033
H91	H	0.010177	-0.806449	-0.000006
F92	F	-0.114734	-1.040961	0.234088
F93	F	0.059902	-0.864787	0.549183
F94	F	-0.433217	-1.362312	0.450843
F95	F	-0.258585	-1.186137	0.765945
F96	F	-0.305698	-1.233669	0.716792
