data_functionalizedCrystal
_audit_creation_method	'MofGen! by Chris Wilmer'
_symmetry_space_group_name_H-M	'P1'
_symmetry_Int_Tables_number	1
_symmetry_cell_setting	triclinic
loop_
_symmetry_equiv_pos_as_xyz
  x,y,z
_cell_length_a	14.044220
_cell_length_b	27.731996
_cell_length_c	13.101039
_cell_angle_alpha	93.327690
_cell_angle_beta	86.340132
_cell_angle_gamma	87.905133
loop_
_atom_site_label
_atom_site_type_symbol
_atom_site_fract_x
_atom_site_fract_y
_atom_site_fract_z
O1	O	1.261204	0.114021	-0.085131
O2	O	0.985299	0.109818	-0.085156
O3	O	1.131845	0.041925	-0.085120
O4	O	1.114658	0.181914	-0.085166
O5	O	1.121330	0.046805	0.085307
O6	O	0.974785	0.114698	0.085272
O7	O	1.250689	0.118901	0.085297
Zn8	Zn	1.111068	0.117574	0.112343
Zn9	Zn	1.124921	0.111145	-0.112202
O10	O	1.104144	0.186794	0.085261
C11	C	0.944756	0.110418	0.000055
C12	C	0.839613	0.104931	0.000047
C13	C	0.647100	0.094900	0.000070
C14	C	0.588883	0.133817	0.000062
C15	C	0.481763	0.128236	0.000075
C16	C	0.754231	0.100481	0.000057
C17	C	1.126234	0.026341	0.000097
C18	C	1.125170	-0.027365	0.000107
C19	C	1.124213	-0.363057	-0.092843
C20	C	1.120176	-0.564905	-0.092862
O21	O	1.124487	-0.593264	-0.171870
N22	N	1.113942	-0.587485	0.000037
C23	C	1.108712	-0.559600	0.092948
O24	O	1.103308	-0.583438	0.171963
C25	C	1.112743	-0.357753	0.092965
C26	C	1.118986	-0.335175	0.000060
C27	C	1.130455	-0.340479	-0.185741
C28	C	1.131469	-0.290020	-0.185735
C29	C	1.126242	-0.262139	-0.092832
C30	C	1.120001	-0.284716	0.000065
C31	C	1.107506	-0.329869	0.185874
C32	C	1.108512	-0.279404	0.185870
C33	C	1.114755	-0.256826	0.092965
C34	C	1.115788	-0.206376	0.092974
N35	N	1.122021	-0.183796	0.000075
C36	C	1.127248	-0.211677	-0.092828
C37	C	1.106598	-0.665574	0.092932
C38	C	1.105592	-0.716035	0.092928
C39	C	1.117054	-0.721336	-0.092882
C40	C	1.118067	-0.670874	-0.092877
C41	C	1.112831	-0.642993	0.000033
C42	C	1.129379	-0.105709	-0.092810
C43	C	1.130397	-0.055246	-0.092796
C44	C	1.118931	-0.049949	0.093013
C45	C	1.117918	-0.100408	0.093000
C46	C	1.123139	-0.128287	0.000080
O47	O	1.111469	-0.177987	0.171941
O48	O	1.132631	-0.187830	-0.171832
C49	C	1.123199	-0.413515	-0.092849
C50	C	1.116957	-0.436093	0.000049
C51	C	1.111730	-0.408212	0.092952
C52	C	1.115951	-0.486555	0.000045
C53	C	1.121178	-0.514436	-0.092858
C54	C	1.127411	-0.491856	-0.185757
C55	C	1.128426	-0.441397	-0.185752
C56	C	1.105497	-0.430793	0.185851
C57	C	1.104484	-0.481252	0.185838
C58	C	1.109711	-0.509133	0.092935
C59	C	1.291233	0.118301	0.000084
C60	C	1.396377	0.123788	0.000085
C61	C	1.109755	0.202378	0.000042
C62	C	1.110819	0.256084	0.000025
N63	N	1.101620	0.121963	0.265589
N64	N	1.134376	0.106753	-0.265448
C65	C	1.088766	0.127937	0.474629
C66	C	1.147227	0.100780	0.525519
C67	C	1.140075	0.104104	0.641835
C68	C	1.095917	0.124613	0.358302
H69	H	1.135483	-0.036866	-0.168454
C70	C	0.606253	0.044893	-0.000129
C71	C	0.555632	0.036927	-0.087819
C72	C	0.517988	-0.009135	-0.088049
H73	H	0.564478	0.042751	0.059236
H74	H	0.656842	0.021190	-0.000185
H75	H	0.505050	0.060624	-0.087754
H76	H	0.597387	0.039059	-0.147198
H77	H	0.568577	-0.032839	-0.088105
H78	H	0.476217	-0.011273	-0.028680
H79	H	0.483645	-0.014547	-0.147550
C80	C	1.014972	0.162258	0.533192
C81	C	1.022489	0.158786	0.638589
C82	C	0.954538	0.190400	0.692582
H83	H	0.952808	0.153868	0.515805
H84	H	1.025955	0.194452	0.515720
H85	H	1.011498	0.126598	0.656053
H86	H	1.084637	0.167179	0.656006
H87	H	0.965522	0.222595	0.675110
H88	H	0.892380	0.182008	0.675186
H89	H	0.959635	0.188052	0.764099
H90	H	1.136550	-0.271642	-0.261388
C91	C	0.629878	0.183790	-0.000044
C92	C	0.729521	0.179463	-0.000092
C93	C	0.767323	0.225484	-0.000218
H94	H	0.605285	0.202596	0.059356
H95	H	0.612533	0.199135	-0.059515
H96	H	0.746857	0.164125	0.059373
H97	H	0.754139	0.160665	-0.059488
H98	H	0.749979	0.240829	-0.059688
H99	H	0.742724	0.244287	0.059184
H100	H	0.834935	0.222554	-0.000260
C101	C	1.102667	-0.249188	0.286820
C102	C	1.017442	-0.257946	0.342857
C103	C	1.012028	-0.230125	0.435859
H104	H	1.104103	-0.215888	0.273664
H105	H	1.155368	-0.257681	0.325063
H106	H	0.964755	-0.249450	0.304622
H107	H	1.015987	-0.291240	0.356040
H108	H	1.064729	-0.238618	0.474102
H109	H	1.013467	-0.196827	0.422693
H110	H	0.954208	-0.236067	0.473895
C111	C	1.135087	-0.135890	-0.193800
C112	C	1.140785	-0.105308	-0.275144
C113	C	1.146053	-0.133093	-0.368189
H114	H	1.079688	-0.154380	-0.197811
H115	H	1.190211	-0.156987	-0.197733
H116	H	1.085667	-0.084219	-0.271212
H117	H	1.196182	-0.086818	-0.271167
H118	H	1.201176	-0.154190	-0.372123
H119	H	1.090652	-0.151582	-0.372189
H120	H	1.149928	-0.112347	-0.423392
H121	H	1.102424	-0.348243	0.261527
H122	H	1.114679	-0.027240	0.168652
C123	C	1.136192	-0.370662	-0.286725
C124	C	1.141896	-0.340079	-0.368066
C125	C	1.147205	-0.367862	-0.461113
H126	H	1.080806	-0.389160	-0.290756
H127	H	1.191326	-0.391752	-0.290641
H128	H	1.086768	-0.318997	-0.364151
H129	H	1.197281	-0.321580	-0.364068
H130	H	1.202339	-0.388952	-0.465030
H131	H	1.091817	-0.386360	-0.465134
H132	H	1.151084	-0.347116	-0.516314
C133	C	1.124793	-0.646452	-0.193852
C134	C	1.129134	-0.681675	-0.275206
C135	C	1.135316	-0.659199	-0.368244
H136	H	1.180676	-0.628183	-0.197858
H137	H	1.070143	-0.625585	-0.197779
H138	H	1.183778	-0.702534	-0.271282
H139	H	1.073257	-0.699946	-0.271234
H140	H	1.080666	-0.638332	-0.372170
H141	H	1.191199	-0.640931	-0.372239
H142	H	1.138253	-0.683094	-0.423454
C143	C	1.098772	-0.740454	0.193905
C144	C	1.094383	-0.705229	0.275259
C145	C	1.088081	-0.727703	0.368296
H146	H	1.153375	-0.761331	0.197923
H147	H	1.042855	-0.758710	0.197818
H148	H	1.150295	-0.686981	0.271347
H149	H	1.039782	-0.684350	0.271274
H150	H	1.032164	-0.745959	0.372209
H151	H	1.142686	-0.748580	0.372304
H152	H	1.085094	-0.703806	0.423506
C153	C	1.221167	0.066405	0.467325
C154	C	1.273687	0.041996	0.537140
C155	C	1.341798	0.010325	0.483566
H156	H	1.263021	0.084233	0.425463
H157	H	1.189883	0.043644	0.425498
H158	H	1.304969	0.064754	0.578950
H159	H	1.231859	0.024160	0.579005
H160	H	1.310515	-0.012436	0.441738
H161	H	1.383646	0.028156	0.441705
H162	H	1.377435	-0.006243	0.530927
C163	C	1.100731	-0.635279	0.193784
C164	C	1.019435	-0.604237	0.199241
C165	C	1.013998	-0.576331	0.292137
H166	H	1.156076	-0.616746	0.197757
H167	H	1.096825	-0.655943	0.249130
H168	H	1.023348	-0.583575	0.143910
H169	H	0.964076	-0.622757	0.195285
H170	H	1.010092	-0.596994	0.347483
H171	H	1.069347	-0.557801	0.296102
H172	H	0.958835	-0.555268	0.295856
C173	C	1.111094	-0.124833	0.193974
C174	C	1.106715	-0.089612	0.275334
C175	C	1.100406	-0.112090	0.368367
H176	H	1.165691	-0.145715	0.197989
H177	H	1.055171	-0.143085	0.197883
H178	H	1.162632	-0.071368	0.271426
H179	H	1.052120	-0.068728	0.271353
H180	H	1.044483	-0.130342	0.372276
H181	H	1.155005	-0.132971	0.372371
H182	H	1.097425	-0.088196	0.423581
H183	H	1.133509	-0.423019	-0.261405
C184	C	1.132880	-0.522156	-0.286589
C185	C	1.051091	-0.549341	-0.292012
C186	C	1.056080	-0.577258	-0.384880
H187	H	1.187920	-0.543301	-0.290543
H188	H	1.136688	-0.501504	-0.341960
H189	H	1.047292	-0.569991	-0.236657
H190	H	0.996038	-0.528208	-0.288076
H191	H	1.059888	-0.556606	-0.440251
H192	H	1.111123	-0.598400	-0.388826
H193	H	1.000584	-0.595703	-0.388576
H194	H	1.101242	-0.408097	0.261505
C195	C	1.097887	-0.505796	0.286679
C196	C	1.178493	-0.536537	0.292152
C197	C	1.172439	-0.559149	0.385031
H198	H	1.042044	-0.524097	0.290614
H199	H	1.094961	-0.481978	0.342040
H200	H	1.181410	-0.560351	0.236806
H201	H	1.234348	-0.518247	0.288234
H202	H	1.169512	-0.535331	0.440392
H203	H	1.116593	-0.577448	0.388958
H204	H	1.227132	-0.580006	0.388761
H205	H	1.121311	-0.744046	-0.168527
