data_functionalizedCrystal
_audit_creation_method	'MofGen! by Chris Wilmer'
_symmetry_space_group_name_H-M	'P1'
_symmetry_Int_Tables_number	1
_symmetry_cell_setting	triclinic
loop_
_symmetry_equiv_pos_as_xyz
  x,y,z
_cell_length_a	11.169417
_cell_length_b	11.169416
_cell_length_c	11.169406
_cell_angle_alpha	89.954551
_cell_angle_beta	89.967219
_cell_angle_gamma	90.002460
loop_
_atom_site_label
_atom_site_type_symbol
_atom_site_fract_x
_atom_site_fract_y
_atom_site_fract_z
Zn1	Zn	-1.835145	0.477578	0.678625
Zn2	Zn	-1.501812	0.810911	1.011958
Zn3	Zn	-1.168478	1.144245	1.345292
Zn4	Zn	-1.835017	0.678374	0.477952
Zn5	Zn	-1.501684	1.011708	0.811285
Zn6	Zn	-1.168350	1.345041	1.144618
Zn7	Zn	-1.634392	0.477698	0.477953
Zn8	Zn	-1.301059	0.811031	0.811286
Zn9	Zn	-0.967725	1.144364	1.144620
Zn10	Zn	-1.634460	0.678212	0.678590
Zn11	Zn	-1.301126	1.011545	1.011924
Zn12	Zn	-0.967793	1.344878	1.345257
O13	O	-1.734753	0.577965	0.578280
O14	O	-1.401420	0.911299	0.911613
O15	O	-1.068087	1.244632	1.244947
O16	O	-2.003078	0.504232	0.652019
O17	O	-1.669744	0.837566	0.985353
O18	O	-1.336411	1.170899	1.318686
O19	O	-1.808321	0.651872	0.310002
O20	O	-1.474988	0.985206	0.643335
O21	O	-1.141655	1.318539	0.976669
O22	O	-1.661048	0.309732	0.504588
O23	O	-1.327714	0.643066	0.837921
O24	O	-0.994381	0.976399	1.171254
O25	O	-2.002984	0.651756	0.504586
O26	O	-1.669650	0.985090	0.837919
O27	O	-1.336317	1.318423	1.171252
O28	O	-1.808540	0.309644	0.652020
O29	O	-1.475207	0.642978	0.985354
O30	O	-1.141873	0.976311	1.318687
O31	O	-1.660923	0.504436	0.310003
O32	O	-1.327590	0.837770	0.643336
O33	O	-0.994257	1.171103	0.976670
O34	O	-1.466451	0.504278	0.504554
O35	O	-1.133118	0.837612	0.837887
O36	O	-0.799785	1.170945	1.171221
O37	O	-1.661163	0.651479	0.846545
O38	O	-1.327830	0.984812	1.179878
O39	O	-0.994497	1.318146	1.513212
O40	O	-1.466501	0.651595	0.651961
O41	O	-1.133168	0.984928	0.985295
O42	O	-0.799834	1.318262	1.318628
O43	O	-1.808606	0.504074	0.846570
O44	O	-1.475272	0.837408	1.179904
O45	O	-1.141939	1.170741	1.513237
O46	O	-1.808387	0.846303	0.504552
O47	O	-1.475054	1.179636	0.837885
O48	O	-1.141721	1.512969	1.171219
O49	O	-1.661039	0.846183	0.651960
O50	O	-1.327706	1.179516	0.985293
O51	O	-0.994372	1.512850	1.318627
C52	C	-1.422929	0.577933	0.578255
C53	C	-1.089595	0.911266	0.911588
C54	C	-0.756262	1.244600	1.244921
C55	C	-1.289529	0.577948	0.578272
C56	C	-0.956195	0.911281	0.911606
C57	C	-0.622862	1.244614	1.244939
C58	C	-1.734801	0.264923	0.578308
C59	C	-1.401467	0.598256	0.911641
C60	C	-1.068134	0.931590	1.244975
C61	C	-1.734821	0.131523	0.578320
C62	C	-1.401487	0.464856	0.911653
C63	C	-1.068154	0.798190	1.244987
C64	C	-1.047796	0.577987	0.578298
C65	C	-0.714462	0.911321	0.911631
C66	C	-0.381129	1.244654	1.244965
C67	C	-1.181196	0.577967	0.578285
C68	C	-0.847862	0.911300	0.911619
C69	C	-0.514529	1.244634	1.244952
C70	C	-1.734739	0.889790	0.578278
C71	C	-1.401406	1.223124	0.911612
C72	C	-1.068072	1.556457	1.244945
C73	C	-1.734843	1.023190	0.578318
C74	C	-1.401509	1.356523	0.911651
C75	C	-1.068176	1.689857	1.244984
C76	C	-1.734670	0.578098	0.266455
C77	C	-1.401337	0.911432	0.599788
C78	C	-1.068003	1.244765	0.933122
C79	C	-1.734837	0.577854	0.133056
C80	C	-1.401504	0.911187	0.466389
C81	C	-1.068171	1.244521	0.799722
C82	C	-1.734906	0.577745	0.891323
C83	C	-1.401573	0.911079	1.224656
C84	C	-1.068240	1.244412	1.557989
C85	C	-1.734972	0.577651	1.024723
C86	C	-1.401638	0.910985	1.358056
C87	C	-1.068305	1.244318	1.691390
