data_functionalizedCrystal
_audit_creation_method	'MofGen! by Chris Wilmer'
_symmetry_space_group_name_H-M	'P1'
_symmetry_Int_Tables_number	1
_symmetry_cell_setting	triclinic
loop_
_symmetry_equiv_pos_as_xyz
  x,y,z
_cell_length_a	18.101395
_cell_length_b	13.032951
_cell_length_c	13.034296
_cell_angle_alpha	105.187268
_cell_angle_beta	82.790450
_cell_angle_gamma	97.166904
loop_
_atom_site_label
_atom_site_type_symbol
_atom_site_fract_x
_atom_site_fract_y
_atom_site_fract_z
Zn1	Zn	-0.375478	-1.700078	-0.806483
Zn2	Zn	0.124522	-1.200078	-0.306483
Zn3	Zn	-0.513277	-1.677345	-0.628847
Zn4	Zn	-0.013277	-1.177345	-0.128847
Zn5	Zn	-0.375478	-1.499881	-0.606359
Zn6	Zn	0.124522	-0.999881	-0.106359
Zn7	Zn	-0.485294	-1.522385	-0.783897
Zn8	Zn	0.014706	-1.022385	-0.283897
O9	O	-0.437382	-1.599922	-0.706397
O10	O	0.062618	-1.099922	-0.206397
O11	O	-0.405468	-1.845698	-0.801783
O12	O	0.094532	-1.345698	-0.301783
O13	O	-0.506709	-1.634872	-0.477222
O14	O	-0.006709	-1.134872	0.022778
O15	O	-0.271850	-1.526533	-0.632947
O16	O	0.228150	-1.026533	-0.132947
O17	O	-0.506709	-1.828995	-0.671274
O18	O	-0.006709	-1.328995	-0.171274
O19	O	-0.271850	-1.673618	-0.779977
O20	O	0.228150	-1.173618	-0.279977
O21	O	-0.405469	-1.504490	-0.460700
O22	O	0.094531	-1.004490	0.039300
O23	O	-0.378335	-1.354231	-0.611046
O24	O	0.121665	-0.854231	-0.111046
O25	O	-0.459015	-1.564889	-0.935536
O26	O	0.040985	-1.064889	-0.435536
O27	O	-0.459016	-1.370765	-0.741483
O28	O	0.040984	-0.870765	-0.241483
O29	O	-0.378333	-1.695439	-0.952129
O30	O	0.121667	-1.195439	-0.452129
O31	O	-0.613193	-1.656694	-0.649374
O32	O	-0.113193	-1.156694	-0.149374
O33	O	-0.592634	-1.542845	-0.763289
O34	O	-0.092634	-1.042845	-0.263289
C35	C	-0.415639	-1.323959	-0.671374
C36	C	0.084361	-0.823959	-0.171374
C37	C	-0.406353	-1.205904	-0.656416
C38	C	0.093647	-0.705904	-0.156416
C39	C	-0.442213	-1.161467	-0.714189
C40	C	0.057787	-0.661467	-0.214189
C41	C	-0.432616	-1.039451	-0.698731
C42	C	0.067384	-0.539451	-0.198731
C43	C	-0.629784	-1.599776	-0.706347
C44	C	-0.129784	-1.099776	-0.206347
C45	C	-0.712099	-1.599815	-0.706374
C46	C	-0.212099	-1.099815	-0.206374
C47	C	-1.011204	-1.600056	-0.706461
C48	C	-0.511204	-1.100056	-0.206461
C49	C	-0.966973	-1.528642	-0.778361
C50	C	-0.466973	-1.028642	-0.278361
C51	C	-0.881344	-1.528220	-0.778054
C52	C	-0.381344	-1.028220	-0.278054
C53	C	-0.862814	-1.599937	-0.706419
C54	C	-0.362814	-1.099937	-0.206419
C55	C	-0.900379	-1.555399	-0.590632
C56	C	-0.400379	-1.055399	-0.090632
C57	C	-0.985944	-1.554934	-0.591057
C58	C	-0.485944	-1.054934	-0.091057
C59	C	-0.986141	-1.716061	-0.749385
C60	C	-0.486141	-1.216061	-0.249385
C61	C	-0.900245	-1.715713	-0.751756
C62	C	-0.400245	-1.215713	-0.251756
C63	C	-0.778951	-1.599870	-0.706388
C64	C	-0.278951	-1.099870	-0.206388
C65	C	-1.095067	-1.600119	-0.706484
C66	C	-0.595067	-1.100119	-0.206484
C67	C	-0.244229	-1.600101	-0.706473
C68	C	0.255771	-1.100101	-0.206473
C69	C	-0.161919	-1.600177	-0.706506
C70	C	0.338081	-1.100177	-0.206506
C71	C	-0.415553	-1.635210	-0.983451
C72	C	0.084447	-1.135210	-0.483451
C73	C	-0.406251	-1.650248	-1.101516
C74	C	0.093749	-1.150248	-0.601516
C75	C	-0.459202	-0.876962	-0.741549
C76	C	0.040798	-0.376962	-0.241549
C77	C	-0.468481	-0.995018	-0.756511
C78	C	0.031519	-0.495018	-0.256511
C79	C	-0.442023	-1.592358	-1.145942
C80	C	0.057977	-1.092358	-0.645942
C81	C	-0.432410	-1.607899	-1.267967
C82	C	0.067590	-1.107899	-0.767967
C83	C	-0.459077	-1.564833	-0.430428
C84	C	0.040923	-1.064833	0.069572
C85	C	-0.468187	-1.550001	-0.312390
C86	C	0.031813	-1.050001	0.187610
H87	H	-0.394805	-0.987167	-0.637826
H88	H	0.105195	-0.487167	-0.137826
H89	H	-0.505936	-1.488934	-1.260092
H90	H	-0.005936	-0.988934	-0.760092
H91	H	-0.506284	-1.047302	-0.817427
H92	H	-0.006284	-0.547302	-0.317427
Br93	Br	-0.858513	-1.771266	-0.893902
Br94	Br	-0.358513	-1.271266	-0.393902
H95	H	-0.368545	-1.153616	-0.595516
H96	H	0.131455	-0.653616	-0.095516
H97	H	-0.855248	-1.557734	-0.863464
H98	H	-0.355248	-1.057734	-0.363464
Br99	Br	-0.992772	-1.577569	-0.921130
Br100	Br	-0.492772	-1.077569	-0.421130
H101	H	-1.001429	-1.469711	-0.556351
H102	H	-0.501429	-0.969711	-0.056351
H103	H	-0.889508	-1.605150	-0.534978
H104	H	-0.389508	-1.105150	-0.034978
H105	H	-0.368510	-1.711318	-1.153820
H106	H	0.131490	-1.211318	-0.653820
H107	H	-0.888258	-1.772877	-0.704339
H108	H	-0.388258	-1.272877	-0.204339
H109	H	-0.983515	-1.443480	-0.749108
H110	H	-0.483515	-0.943480	-0.249108
Br111	Br	-0.857317	-1.414710	-0.532239
Br112	Br	-0.357317	-0.914710	-0.032239
H113	H	-0.855856	-1.442521	-0.748498
H114	H	-0.355856	-0.942521	-0.248498
H115	H	-1.016138	-1.603921	-0.534894
H116	H	-0.516138	-1.103921	-0.034894
Br117	Br	-0.505229	-1.248606	-0.815703
Br118	Br	-0.005229	-0.748606	-0.315703
H119	H	-1.003556	-1.753892	-0.833127
H120	H	-0.503556	-1.253892	-0.333127
Br121	Br	-1.035764	-1.805041	-0.662410
Br122	Br	-0.535764	-1.305041	-0.162410
Br123	Br	-0.504937	-1.490577	-1.058777
Br124	Br	-0.004937	-0.990577	-0.558777
H125	H	-0.394666	-1.668973	-1.320268
H126	H	0.105334	-1.168973	-0.820268
