data_functionalizedCrystal
_audit_creation_method	'MofGen! by Chris Wilmer'
_symmetry_space_group_name_H-M	'P1'
_symmetry_Int_Tables_number	1
_symmetry_cell_setting	triclinic
loop_
_symmetry_equiv_pos_as_xyz
  x,y,z
_cell_length_a	27.732064
_cell_length_b	16.992694
_cell_length_c	16.053802
_cell_angle_alpha	92.750953
_cell_angle_beta	92.548353
_cell_angle_gamma	93.341177
loop_
_atom_site_label
_atom_site_type_symbol
_atom_site_fract_x
_atom_site_fract_y
_atom_site_fract_z
O1	O	0.100541	-1.042485	-0.069312
O2	O	0.099417	-0.814214	-0.069337
O3	O	0.029889	-0.935433	-0.069327
O4	O	0.170069	-0.921267	-0.069322
O5	O	0.033699	-0.928761	0.069531
O6	O	0.103227	-0.807542	0.069522
O7	O	0.104352	-1.035813	0.069546
Zn8	Zn	0.104394	-0.920618	0.091581
Zn9	Zn	0.099374	-0.929409	-0.091371
O10	O	0.173879	-0.914595	0.069536
C11	C	0.099876	-0.781683	0.000089
C12	C	0.095562	-0.694692	0.000079
N13	N	0.107820	-0.914625	0.216440
C14	C	0.013774	-0.931798	0.000100
C15	C	-0.039919	-0.930896	0.000092
C16	C	-0.420355	-0.853126	0.000080
C17	C	-0.218551	-0.856444	0.000079
O18	O	-0.189909	-0.796098	0.000039
N19	N	-0.196316	-0.928324	0.000087
C20	C	-0.224535	-0.999380	0.000089
O21	O	-0.200992	-1.060595	0.000087
C22	C	-0.426337	-0.996062	0.000084
C23	C	-0.448570	-0.924177	0.000085
C24	C	-0.442587	-0.781247	0.000080
C25	C	-0.493035	-0.780418	0.000085
C26	C	-0.521250	-0.851469	0.000089
C27	C	-0.499018	-0.923348	0.000090
C28	C	-0.454556	-1.067118	0.000081
C29	C	-0.505009	-1.066282	0.000077
C30	C	-0.527242	-0.994397	0.000078
C31	C	-0.577681	-0.993570	0.000099
N32	N	-0.599916	-0.921690	0.000092
C33	C	-0.571701	-0.850639	0.000087
C34	C	-0.118585	-1.001117	0.000094
C35	C	-0.068134	-1.001947	0.000097
C36	C	-0.062154	-0.859010	0.000085
C37	C	-0.112606	-0.858181	0.000088
C38	C	-0.140820	-0.929237	0.000086
C39	C	-0.677645	-0.848904	0.000097
C40	C	-0.728098	-0.848081	0.000106
C41	C	-0.734073	-0.991017	0.000113
C42	C	-0.683625	-0.991840	0.000109
C43	C	-0.655412	-0.920777	0.000098
O44	O	-0.606353	-1.053883	0.000130
O45	O	-0.595253	-0.789434	0.000070
C46	C	-0.369907	-0.853955	0.000075
C47	C	-0.347674	-0.925835	0.000075
C48	C	-0.375889	-0.996885	0.000080
C49	C	-0.297224	-0.926664	0.000078
C50	C	-0.269009	-0.855614	0.000073
C51	C	-0.291244	-0.783734	0.000066
C52	C	-0.341692	-0.782905	0.000070
C53	C	-0.353654	-1.068765	0.000088
C54	C	-0.303206	-1.069588	0.000084
C55	C	-0.274991	-0.998538	0.000079
C56	C	0.189994	-0.918230	0.000108
C57	C	0.243687	-0.919131	0.000110
C58	C	0.103892	-1.068344	0.000119
C59	C	0.108206	-1.155336	0.000123
C60	C	0.137185	-0.643951	0.000081
C61	C	0.133129	-0.562212	0.000093
C62	C	0.087449	-0.531217	0.000096
C63	C	0.045823	-0.581964	0.000096
C64	C	0.049880	-0.663700	0.000091
C65	C	0.070637	-0.287820	0.000118
C66	C	0.066583	-0.206077	0.000121
C67	C	0.153889	-0.186331	0.000119
C68	C	0.157942	-0.268070	0.000108
C69	C	0.116316	-0.318810	0.000113
N70	N	0.083302	-0.447667	0.000105
N71	N	0.120463	-0.402358	0.000110
N72	N	0.095945	-0.935409	-0.216231
C73	C	0.078248	-0.966222	0.260139
C74	C	0.080649	-0.962037	0.347545
C75	C	0.112626	-0.906257	0.391252
C76	C	0.142199	-0.854655	0.347547
C77	C	0.139795	-0.858837	0.260143
C78	C	0.123114	-0.887989	0.652660
C79	C	0.125517	-0.883812	0.740071
C80	C	0.063966	-0.991193	0.740062
C81	C	0.061567	-0.995374	0.652656
C82	C	0.091138	-0.943768	0.608959
N83	N	0.115082	-0.901979	0.480595
N84	N	0.088679	-0.948043	0.519617
H85	H	-0.746196	-0.789541	0.000110
H86	H	0.151558	-0.838387	0.775653
H87	H	0.039890	-1.033207	0.775648
Br88	Br	0.199182	-0.686008	0.000068
Br89	Br	0.179927	-0.788804	0.200838
Br90	Br	-0.006611	-0.732565	0.000095
Br91	Br	0.018172	-1.071077	0.593338
Br92	Br	0.219938	-0.310130	0.000094
Br93	Br	0.163246	-0.817957	0.593362
Br94	Br	0.034853	-1.041932	0.200832
Br95	Br	-0.653450	-1.089397	0.000144
Br96	Br	0.040513	-1.032059	0.406853
Br97	Br	0.185593	-0.778947	0.406860
H98	H	-0.654680	-0.791037	0.000088
H99	H	-0.511132	-0.721882	0.000078
Br100	Br	-0.404305	-0.684808	0.000069
Br101	Br	-0.016171	-0.539899	0.000109
Br102	Br	0.004586	-0.164012	0.000143
H103	H	-0.039173	-0.801158	0.000085
Br104	Br	-0.037968	-1.099508	0.000111
Br105	Br	-0.142773	-0.760620	0.000089
H106	H	-0.141553	-1.058983	0.000093
H107	H	0.187779	-0.145010	0.000116
Br108	Br	-0.424397	-1.164683	0.000060
H109	H	-0.757055	-1.048864	0.000121
Br110	Br	-0.543298	-1.162721	0.000069
H111	H	-0.359789	-0.724369	0.000072
Br112	Br	-0.252942	-0.687309	0.000065
Br113	Br	-0.273040	-1.167156	0.000084
Br114	Br	0.014144	-0.356671	0.000126
H115	H	0.167023	-0.520902	0.000094
H116	H	-0.376622	-1.126625	0.000091
