data_functionalizedCrystal
_audit_creation_method	'MofGen! by Chris Wilmer'
_symmetry_space_group_name_H-M	'P1'
_symmetry_Int_Tables_number	1
_symmetry_cell_setting	triclinic
loop_
_symmetry_equiv_pos_as_xyz
  x,y,z
_cell_length_a	16.974800
_cell_length_b	23.532357
_cell_length_c	15.455313
_cell_angle_alpha	92.642146
_cell_angle_beta	90.973911
_cell_angle_gamma	83.110074
loop_
_atom_site_label
_atom_site_type_symbol
_atom_site_fract_x
_atom_site_fract_y
_atom_site_fract_z
O1	O	1.048489	0.072598	0.001487
O2	O	0.818986	0.081295	-0.014633
O3	O	0.940678	-0.005947	-0.006068
O4	O	0.926797	0.159840	-0.007078
O5	O	0.933719	-0.000979	0.137705
O6	O	0.812027	0.086264	0.129140
O7	O	1.041530	0.077566	0.145259
Cu8	Cu	0.926143	0.082369	0.150327
Cu9	Cu	0.934373	0.076493	-0.019700
O10	O	0.919838	0.164809	0.136694
C11	C	0.786151	0.083358	0.055192
C12	C	0.698679	0.082094	0.049049
C13	C	0.653796	0.084207	0.124536
C14	C	0.571609	0.083011	0.118766
C15	C	0.534306	0.079705	0.037510
C16	C	0.579195	0.077590	-0.037982
C17	C	0.661381	0.078782	-0.032212
C18	C	0.288913	0.075845	0.011848
C19	C	0.206720	0.074654	0.006084
C20	C	0.199140	0.080074	0.162833
C21	C	0.281328	0.081270	0.168596
C22	C	0.326210	0.079151	0.093104
N23	N	0.450297	0.078484	0.031610
N24	N	0.410218	0.080368	0.099004
C25	C	0.936851	-0.024681	0.065797
C26	C	0.935807	-0.087905	0.065732
C27	C	0.933048	-0.482664	-0.013146
C28	C	0.932056	-0.542069	-0.013220
O29	O	0.934742	-0.575092	-0.079909
N30	N	0.927770	-0.569075	0.065114
C31	C	0.924469	-0.536671	0.143528
O32	O	0.920732	-0.565097	0.210151
C33	C	0.925456	-0.477267	0.143602
C34	C	0.929749	-0.450265	0.065262
C35	C	0.937340	-0.455662	-0.091478
C36	C	0.938334	-0.396261	-0.091403
C37	C	0.935035	-0.363862	-0.012995
C38	C	0.930743	-0.390864	0.065338
C39	C	0.922149	-0.444864	0.222014
C40	C	0.923135	-0.385455	0.222081
C41	C	0.927429	-0.358454	0.143742
C42	C	0.928438	-0.299064	0.143821
N43	N	0.932723	-0.272058	0.065486
C44	C	0.936022	-0.304457	-0.012922
C45	C	0.922396	-0.661425	0.143368
C46	C	0.921415	-0.720829	0.143296
C47	C	0.929000	-0.726223	-0.013453
C48	C	0.929987	-0.666818	-0.013379
C49	C	0.926681	-0.634420	0.065034
C50	C	0.938109	-0.179710	-0.012758
C51	C	0.939105	-0.120304	-0.012676
C52	C	0.931516	-0.114916	0.144072
C53	C	0.930523	-0.174317	0.143990
C54	C	0.933818	-0.206713	0.065568
O55	O	0.925751	-0.266005	0.210475
O56	O	0.939748	-0.276023	-0.079534
C57	C	1.074365	0.075504	0.075433
C58	C	1.161837	0.076768	0.081570
C59	C	0.923665	0.183543	0.064828
C60	C	0.924710	0.246767	0.064887
N61	N	0.920361	0.086501	0.269916
N62	N	0.940161	0.072356	-0.139288
C63	C	0.972077	0.049451	0.318950
C64	C	0.967712	0.052581	0.409450
C65	C	0.911632	0.092765	0.450915
C66	C	0.859910	0.129816	0.401875
C67	C	0.864273	0.126683	0.311375
C68	C	0.892802	0.106274	0.721172
C69	C	0.888445	0.109406	0.811677
C70	C	0.996246	0.032170	0.819247
C71	C	1.000606	0.029043	0.728746
C72	C	0.948882	0.066092	0.679713
N73	N	0.907170	0.095966	0.543422
N74	N	0.953341	0.062887	0.587208
H75	H	0.942603	-0.098323	-0.076472
C76	C	0.943042	-0.366565	-0.177578
H77	H	0.944854	-0.394374	-0.224280
H78	H	0.989542	-0.347773	-0.177594
H79	H	0.897616	-0.339234	-0.184035
H80	H	0.684162	0.086904	0.190703
C81	C	0.522241	0.085340	0.201801
H82	H	0.556227	0.087487	0.251020
H83	H	0.496302	0.051808	0.203264
H84	H	0.483742	0.118171	0.202355
H85	H	0.850687	0.136443	0.681256
H86	H	0.927035	-0.196304	0.207781
H87	H	0.162588	0.081797	0.224294
C88	C	1.033770	0.005254	0.273342
H89	H	1.028969	0.008698	0.212421
H90	H	1.024813	-0.032260	0.287610
H91	H	1.085595	0.012067	0.291853
H92	H	1.046271	-0.003678	0.694987
C93	C	0.322360	0.084903	0.257976
H94	H	0.377735	0.085315	0.250601
H95	H	0.313615	0.052641	0.289683
H96	H	0.301052	0.119005	0.288782
H97	H	1.038357	0.002006	0.859178
H98	H	1.009823	0.022412	0.449374
H99	H	0.176350	0.071964	-0.060089
C100	C	0.826713	0.153579	0.857285
H101	H	0.796516	0.175184	0.815120
H102	H	0.853123	0.178580	0.894568
H103	H	0.792397	0.134212	0.890292
H104	H	0.918654	-0.466838	0.285807
C105	C	0.940977	-0.491292	-0.177734
H106	H	0.943681	-0.466695	-0.224368
H107	H	0.894795	-0.510311	-0.184266
H108	H	0.986720	-0.518846	-0.177791
C109	C	0.338272	0.073522	-0.071190
H110	H	0.304280	0.071389	-0.120407
H111	H	0.376771	0.040694	-0.071754
H112	H	0.364208	0.107058	-0.072645
C113	C	0.798226	0.174018	0.447484
H114	H	0.803039	0.170583	0.508405
H115	H	0.746400	0.167215	0.428981
H116	H	0.807196	0.211532	0.433212
H117	H	0.548817	0.074895	-0.104143
C118	C	0.710752	0.076462	-0.115247
H119	H	0.676764	0.074328	-0.164468
H120	H	0.749251	0.043635	-0.115807
H121	H	0.736687	0.109999	-0.116701
H122	H	0.940787	-0.206080	-0.076618
H123	H	0.822159	0.156852	0.271452
C124	C	0.934702	-0.637121	-0.099552
H125	H	0.936521	-0.664929	-0.146255
H126	H	0.981202	-0.618328	-0.099558
H127	H	0.889277	-0.609790	-0.106013
C128	C	0.919502	-0.349820	0.308338
H129	H	0.916809	-0.374414	0.354977
H130	H	0.873772	-0.322260	0.308398
H131	H	0.965697	-0.330810	0.314858
H132	H	0.931684	-0.752613	-0.077297
C133	C	0.916699	-0.750526	0.229470
H134	H	0.914872	-0.722717	0.276172
H135	H	0.962112	-0.777862	0.235934
H136	H	0.870187	-0.769310	0.229472
H137	H	0.919707	-0.635050	0.207226
C138	C	0.927883	-0.079269	0.230314
H139	H	0.929080	-0.040023	0.219131
H140	H	0.972117	-0.092164	0.265742
H141	H	0.880193	-0.083621	0.259267
