data_functionalizedCrystal
_audit_creation_method	'MofGen! by Chris Wilmer'
_symmetry_space_group_name_H-M	'P1'
_symmetry_Int_Tables_number	1
_symmetry_cell_setting	triclinic
loop_
_symmetry_equiv_pos_as_xyz
  x,y,z
_cell_length_a	19.902436
_cell_length_b	20.875641
_cell_length_c	20.875685
_cell_angle_alpha	59.250024
_cell_angle_beta	92.970184
_cell_angle_gamma	62.436880
loop_
_atom_site_label
_atom_site_type_symbol
_atom_site_fract_x
_atom_site_fract_y
_atom_site_fract_z
Zr1	Zr	0.668341	0.702036	-0.109882
O2	O	0.560362	0.835868	-0.217223
O3	O	0.698060	0.568213	-0.073572
O4	O	0.695667	0.702034	-0.212302
O5	O	0.568491	0.702045	0.027067
O6	O	0.806246	0.702021	-0.212293
O7	O	0.562755	0.702047	-0.078493
O8	O	0.810526	0.462641	0.035869
O9	O	0.564210	0.941426	-0.221095
O10	O	0.797345	0.623243	-0.062193
O11	O	0.719102	0.623251	0.016579
O12	O	0.716285	0.780808	-0.146758
O13	O	0.638041	0.780816	-0.067986
Zr14	Zr	0.853850	0.702013	0.058488
Zr15	Zr	0.844702	0.702016	-0.109868
Zr16	Zr	0.677489	0.702033	0.058474
Zr17	Zr	0.674479	0.870389	-0.116058
Zr18	Zr	0.847712	0.533660	0.064664
O19	O	0.824131	0.835835	0.022178
O20	O	0.811124	0.835840	-0.217202
O21	O	0.573369	0.835864	0.022158
O22	O	0.961829	0.568181	0.165829
O23	O	0.948822	0.568185	-0.073552
O24	O	0.711067	0.568209	0.165808
O25	O	0.953700	0.702003	-0.078461
O26	O	0.826524	0.702015	0.160908
O27	O	0.715945	0.702027	0.160899
O28	O	0.959436	0.702001	0.027099
O29	O	0.704393	0.941410	-0.221084
O30	O	0.817798	0.462638	0.169690
O31	O	0.957981	0.462622	0.169701
O32	O	0.950710	0.462625	0.035881
O33	O	0.571482	0.941424	-0.087275
O34	O	0.711665	0.941408	-0.087263
O35	O	0.805906	0.623241	0.095364
O36	O	0.884150	0.623233	0.016592
O37	O	0.803089	0.780797	-0.067973
O38	O	0.724846	0.780805	0.010799
C39	C	0.753419	0.491440	-0.017972
C40	C	0.750813	0.419970	-0.015350
C41	C	0.540496	0.702049	-0.025715
C42	C	0.465626	0.702057	-0.025721
C43	C	0.790429	0.386389	-0.055236
C44	C	0.787984	0.319230	-0.052765
C45	C	0.745917	0.285658	-0.010412
C46	C	0.706300	0.319242	0.029480
C47	C	0.708751	0.386395	0.027013
C48	C	0.734212	0.084815	0.001380
C49	C	0.731762	0.017660	0.003842
C50	C	0.813447	0.017651	-0.078402
C51	C	0.815890	0.084809	-0.080869
C52	C	0.776277	0.118384	-0.040974
N53	N	0.743414	0.217013	-0.007887
N54	N	0.778785	0.187023	-0.043495
C55	C	0.193624	0.702013	-0.025689
C56	C	0.170993	0.801407	-0.078796
C57	C	0.248818	0.801470	-0.079073
C58	C	0.328567	0.702036	-0.025705
C59	C	0.322387	0.652675	-0.060133
C60	C	0.244163	0.653311	-0.060523
C61	C	0.251723	0.651267	0.061895
C62	C	0.328705	0.653135	0.061695
C63	C	0.404834	0.702043	-0.025713
C64	C	0.117359	0.702002	-0.025684
C65	C	0.981696	0.701999	-0.025679
C66	C	1.056565	0.701991	-0.025673
C67	C	0.749653	0.702028	-0.236285
C68	C	0.745770	0.702029	-0.307756
C69	C	0.768772	0.912608	-0.033422
C70	C	0.771378	0.984079	-0.036044
C71	C	0.717332	0.702024	-0.710059
C72	C	0.720991	0.702020	-0.642902
C73	C	0.783737	0.702018	-0.609329
C74	C	0.842833	0.702011	-0.642911
C75	C	0.839176	0.702008	-0.710063
C76	C	0.801209	0.702019	-0.408490
C77	C	0.804860	0.702025	-0.341335
C78	C	0.683018	0.702032	-0.341330
C79	C	0.679364	0.702035	-0.408486
C80	C	0.738462	0.702023	-0.442060
N81	N	0.787478	0.702017	-0.540686
N82	N	0.734724	0.702018	-0.510698
C83	C	0.772538	0.702021	0.184891
C84	C	0.776421	0.702019	0.256362
C85	C	0.974019	0.491415	-0.017954
C86	C	1.046283	0.419936	-0.015326
C87	C	0.764861	0.491436	0.192616
C88	C	0.766139	0.419965	0.266710
C89	C	0.985461	0.491412	0.192634
C90	C	1.061609	0.419932	0.266734
C91	C	0.536730	0.912637	-0.244028
C92	C	0.460582	0.984117	-0.318128
C93	C	0.548172	0.912633	-0.033440
C94	C	0.475908	0.984112	-0.036068
C95	C	0.757330	0.912612	-0.244010
C96	C	0.756052	0.984084	-0.318104
C97	C	1.034908	0.386375	-0.055223
C98	C	1.102801	0.319222	-0.052770
C99	C	1.182068	0.285628	-0.010414
C100	C	1.193442	0.319196	0.029485
C101	C	1.125550	0.386352	0.027027
C102	C	0.812051	0.386395	0.342637
C103	C	0.813249	0.319250	0.412262
C104	C	0.768540	0.285670	0.405958
C105	C	0.722623	0.319246	0.330022
C106	C	0.721421	0.386395	0.260399
C107	C	1.138218	0.386360	0.260414
C108	C	1.209774	0.319206	0.330032
C109	C	1.204718	0.285621	0.405969
C110	C	1.128101	0.319199	0.412287
C111	C	1.056547	0.386356	0.342670
C112	C	0.383973	1.017697	-0.311808
C113	C	0.312418	1.084871	-0.381427
C114	C	0.317474	1.118460	-0.457364
C115	C	0.394092	1.084877	-0.463682
C116	C	0.465645	1.017709	-0.394064
C117	C	0.487283	1.017681	0.003822
C118	C	0.419390	1.084852	0.001350
C119	C	0.340123	1.118448	-0.041009
C120	C	0.328749	1.084877	-0.080905
C121	C	0.396641	1.017712	-0.078437
C122	C	0.800770	1.017642	-0.311774
C123	C	0.799585	1.084788	-0.381386
C124	C	0.753677	1.118379	-0.457327
C125	C	0.708958	1.084814	-0.463655
C126	C	0.710148	1.017665	-0.394044
H127	H	0.824681	0.413723	-0.089728
H128	H	0.752715	1.173057	-0.514003
H129	H	0.379841	0.990353	-0.249983
H130	H	0.428667	1.112174	0.033841
H131	H	0.387368	0.990382	-0.110918
H132	H	0.284848	1.173139	-0.043012
H133	H	0.849327	0.702012	-0.435822
H134	H	0.838153	0.990302	-0.249945
H135	H	0.697502	-0.009671	0.038331
H136	H	0.218215	0.683072	0.091001
H137	H	0.398198	1.112234	-0.525518
N138	N	0.861275	0.121011	-0.126532
H139	H	0.821979	0.188426	-0.170390
H140	H	0.886007	0.089483	-0.151373
N141	N	0.240295	1.190906	-0.532448
H142	H	0.190999	1.207075	-0.516914
H143	H	0.237720	1.167487	-0.563883
N144	N	1.143683	0.422568	0.178516
H145	H	1.203078	0.391103	0.185089
H146	H	1.117215	0.489984	0.146382
H147	H	0.634904	0.702040	-0.313988
N148	N	0.902902	0.702014	-0.746290
H149	H	0.932880	0.646079	-0.744130
H150	H	0.943151	0.702051	-0.714813
H151	H	0.264201	1.112242	-0.115392
N152	N	1.281899	0.213170	0.481051
H153	H	1.267077	0.196979	0.530120
H154	H	1.316581	0.236586	0.480152
H155	H	0.836000	1.112110	-0.376218
N156	N	0.659445	1.121049	-0.545565
H157	H	0.665479	1.168682	-0.588697
H158	H	0.599877	1.148877	-0.552817
N159	N	0.830711	0.283011	-0.095786
H160	H	0.857726	0.314473	-0.122995
H161	H	0.789333	0.294702	-0.137555
N162	N	0.649659	0.702018	-0.746265
H163	H	0.616645	0.757949	-0.804147
H164	H	0.612842	0.701982	-0.714740
N165	N	0.973916	0.422559	0.349486
H166	H	0.969952	0.450417	0.378131
H167	H	0.967137	0.371271	0.381016
N168	N	0.872537	0.702027	-0.305124
H169	H	0.909421	0.702018	-0.336581
H170	H	0.905481	0.646096	-0.247239
H171	H	0.848459	0.413729	0.347785
H172	H	0.673729	0.990349	-0.399209
N173	N	0.277241	0.554279	0.114501
H174	H	0.314559	0.522015	0.170691
H175	H	0.307156	0.522512	0.091349
H176	H	0.893926	0.702003	-0.615569
H177	H	0.970370	0.413727	-0.089725
H178	H	1.123996	0.291844	0.474124
H179	H	0.701959	0.112140	0.033868
N180	N	0.856168	-0.018558	-0.121431
H181	H	0.848233	-0.066193	-0.113444
H182	H	0.916570	-0.046377	-0.098816
N183	N	0.404190	0.557043	0.118144
H184	H	0.454658	0.557713	0.120499
H185	H	0.405831	0.521722	0.097934
H186	H	0.672053	0.291898	0.063969
N187	N	0.666028	0.422613	0.070037
H188	H	0.639006	0.391157	0.097242
H189	H	0.623128	0.490030	0.029805
H190	H	0.250269	0.840395	-0.056382
N191	N	0.331903	0.700797	0.095815
H192	H	0.331980	0.669039	0.152033
H193	H	0.282476	0.765844	0.060456
N194	N	0.396584	0.555836	-0.011169
H195	H	0.391302	0.525419	-0.034378
H196	H	0.400598	0.522107	0.046425
N197	N	0.674415	0.283011	0.323236
H198	H	0.694390	0.255138	0.294603
H199	H	0.614418	0.334279	0.291709
H200	H	0.134562	0.840419	-0.056044
N201	N	0.115504	0.852827	-0.163949
H202	H	0.104960	0.812017	-0.168273
H203	H	0.142594	0.873425	-0.202151
H204	H	0.850643	0.291920	0.474084
N205	N	0.243782	0.853085	-0.164732
H206	H	0.239951	0.822920	-0.188836
H207	H	0.294376	0.853340	-0.165224
N208	N	1.292407	0.282985	0.323215
H209	H	1.299248	0.334221	0.291660
H210	H	1.296311	0.255106	0.294601
N211	N	0.192905	0.699775	-0.145780
H212	H	0.221236	0.719654	-0.182758
H213	H	0.137517	0.754529	-0.163308
H214	H	0.769526	0.230993	0.462656
H215	H	0.250041	1.112203	-0.376267
N216	N	0.268685	0.556719	-0.012346
H217	H	0.330214	0.513916	0.009047
H218	H	0.242441	0.548830	-0.048042
N219	N	1.090523	0.283026	-0.095807
H220	H	1.030004	0.314496	-0.123004
H221	H	1.117429	0.215610	-0.055579
N222	N	0.548272	0.981490	-0.400886
H223	H	0.540609	1.012963	-0.459558
H224	H	0.578290	0.914077	-0.372349
N225	N	0.572773	0.981453	0.049511
H226	H	0.569665	1.012923	0.074399
H227	H	0.602209	0.993136	0.011324
H228	H	0.684037	0.413718	0.198579
H229	H	0.321793	0.686958	-0.123871
H230	H	0.672876	0.702023	-0.615562
N231	N	1.255286	0.213190	-0.007765
H232	H	1.290141	0.157455	0.049973
H233	H	1.288666	0.236628	-0.032063
N234	N	0.611702	0.702009	-0.444682
H235	H	0.574828	0.702001	-0.413213
H236	H	0.636331	0.646064	-0.442509
H237	H	1.257990	0.291834	0.063970
H238	H	1.134823	0.413669	0.059521
