data_functionalizedCrystal
_audit_creation_method	'MofGen! by Chris Wilmer'
_symmetry_space_group_name_H-M	'P1'
_symmetry_Int_Tables_number	1
_symmetry_cell_setting	triclinic
loop_
_symmetry_equiv_pos_as_xyz
  x,y,z
_cell_length_a	15.711784
_cell_length_b	14.971486
_cell_length_c	14.048226
_cell_angle_alpha	90.006640
_cell_angle_beta	89.993661
_cell_angle_gamma	78.398535
loop_
_atom_site_label
_atom_site_type_symbol
_atom_site_fract_x
_atom_site_fract_y
_atom_site_fract_z
O1	O	1.147446	-0.490746	-0.079207
O2	O	1.647446	0.009254	0.420793
O3	O	0.895712	-0.422615	-0.079199
O4	O	1.395712	0.077385	0.420801
O5	O	1.028326	-0.328681	-0.079196
O6	O	1.528326	0.171319	0.420804
O7	O	1.014832	-0.584680	-0.079209
O8	O	1.514832	-0.084680	0.420791
O9	O	1.028310	-0.328667	0.079125
O10	O	1.528310	0.171333	0.579125
O11	O	0.895696	-0.422601	0.079123
O12	O	1.395696	0.077399	0.579123
O13	O	1.147430	-0.490733	0.079115
O14	O	1.647430	0.009267	0.579115
Zn15	Zn	1.021560	-0.456665	0.104256
Zn16	Zn	1.521560	0.043335	0.604256
Zn17	Zn	1.021581	-0.456683	-0.104340
Zn18	Zn	1.521581	0.043317	0.395660
O19	O	1.014816	-0.584667	0.079112
O20	O	1.514816	-0.084667	0.579112
C21	C	0.863488	-0.411478	-0.000037
C22	C	1.363488	0.088522	0.499963
C23	C	0.767496	-0.378304	-0.000034
C24	C	1.267496	0.121696	0.499966
C25	C	0.642419	-0.253416	-0.000026
C26	C	1.142419	0.246584	0.499974
C27	C	0.732617	-0.284597	-0.000029
C28	C	1.232617	0.215403	0.499971
C29	C	0.712182	-0.440868	-0.000041
C30	C	1.212182	0.059132	0.499959
C31	C	0.621980	-0.409700	-0.000043
C32	C	1.121980	0.090300	0.499957
C33	C	0.587106	-0.315973	-0.000035
C34	C	1.087106	0.184027	0.499965
C35	C	0.566667	-0.472257	-0.000051
C36	C	1.066667	0.027743	0.499949
C37	C	0.476473	-0.441091	-0.000048
C38	C	0.976473	0.058909	0.499952
C39	C	0.441592	-0.347368	-0.000037
C40	C	0.941592	0.152632	0.499963
C41	C	0.496912	-0.284807	-0.000032
C42	C	0.996912	0.215193	0.499968
C43	C	0.601543	-0.565983	-0.000053
C44	C	1.101543	-0.065983	0.499947
C45	C	0.546230	-0.628541	-0.000061
C46	C	1.046230	-0.128541	0.499939
C47	C	0.456034	-0.597375	-0.000065
C48	C	0.956034	-0.097375	0.499935
C49	C	0.421153	-0.503652	-0.000053
C50	C	0.921153	-0.003652	0.499947
C51	C	0.400714	-0.659936	-0.000070
C52	C	0.900714	-0.159936	0.499930
C53	C	0.310520	-0.628770	-0.000067
C54	C	0.810520	-0.128770	0.499933
C55	C	0.330959	-0.472486	-0.000050
C56	C	0.830959	0.027514	0.499950
C57	C	1.027714	-0.295153	-0.000036
C58	C	1.527714	0.204847	0.499964
C59	C	1.025906	-0.195266	-0.000036
C60	C	1.525906	0.304734	0.499964
C61	C	1.179653	-0.501869	-0.000049
C62	C	1.679653	-0.001869	0.499951
C63	C	1.275646	-0.535043	-0.000059
C64	C	1.775646	-0.035043	0.499941
C65	C	1.015427	-0.618195	-0.000050
C66	C	1.515427	-0.118195	0.499950
C67	C	1.017236	-0.718082	-0.000056
C68	C	1.517236	-0.218082	0.499944
N69	N	1.021552	-0.456655	0.246616
N70	N	1.521552	0.043345	0.746616
C71	C	1.103813	-0.163446	-0.000038
C72	C	1.603813	0.336554	0.499962
C73	C	1.102109	-0.069591	-0.000048
C74	C	1.602109	0.430409	0.499952
C75	C	1.022496	-0.007557	-0.000049
C76	C	1.522496	0.492443	0.499951
C77	C	0.944583	-0.039382	-0.000050
C78	C	1.444583	0.460618	0.499950
C79	C	0.946288	-0.133236	-0.000047
C80	C	1.446288	0.366764	0.499953
C81	C	0.941034	0.156238	-0.000053
C82	C	1.441034	0.656238	0.499947
C83	C	0.939328	0.250098	-0.000054
C84	C	1.439328	0.750098	0.499946
C85	C	1.096855	0.219883	-0.000054
C86	C	1.596855	0.719883	0.499946
C87	C	1.098560	0.126029	-0.000051
C88	C	1.598560	0.626029	0.499949
C89	C	1.020646	0.094210	-0.000050
C90	C	1.520646	0.594210	0.499950
N91	N	1.021596	-0.456688	-0.246700
N92	N	1.521596	0.043312	0.253300
C93	C	1.080292	-0.415092	0.296435
C94	C	1.580292	0.084908	0.796435
C95	C	1.080298	-0.415093	0.396093
C96	C	1.580298	0.084907	0.896093
C97	C	1.021567	-0.456664	0.445930
C98	C	1.521567	0.043336	0.945930
C99	C	0.962821	-0.498227	0.396104
C100	C	1.462821	0.001773	0.896104
C101	C	0.962812	-0.498220	0.296448
C102	C	1.462812	0.001780	0.796448
C103	C	0.962846	-0.498242	0.603818
C104	C	1.462846	0.001758	1.103818
C105	C	0.962856	-0.498251	0.703481
C106	C	1.462856	0.001749	1.203481
C107	C	1.080332	-0.415115	0.703463
C108	C	1.580332	0.084885	1.203463
C109	C	1.080323	-0.415108	0.603807
C110	C	1.580323	0.084892	1.103807
C111	C	1.021578	-0.456673	0.553988
C112	C	1.521578	0.043327	1.053988
H113	H	0.429123	-0.736249	-0.000067
H114	H	0.929123	-0.236249	0.499933
Br115	Br	0.235447	-0.713669	-0.000065
Br116	Br	0.735447	-0.213669	0.499935
Br117	Br	0.831282	0.334287	-0.000051
Br118	Br	1.331282	0.834287	0.499949
H119	H	0.879761	0.011134	-0.000056
H120	H	1.379761	0.511134	0.499944
H121	H	1.168643	-0.213949	-0.000032
H122	H	1.668643	0.286051	0.499968
Br123	Br	0.593567	-0.755737	-0.000071
Br124	Br	1.093567	-0.255737	0.499929
Br125	Br	1.160061	-0.358711	0.771078
Br126	Br	1.660061	0.141289	1.271078
H127	H	0.614023	-0.177094	-0.000030
H128	H	1.114023	0.322906	0.499970
H129	H	0.914979	-0.532063	0.255886
H130	H	1.414979	-0.032063	0.755886
H131	H	0.882848	-0.159141	-0.000046
H132	H	1.382848	0.340859	0.499954
Br133	Br	0.319184	-0.305068	-0.000022
Br134	Br	0.819184	0.194932	0.499978
H135	H	0.777651	-0.233648	-0.000026
H136	H	1.277651	0.266352	0.499974
Br137	Br	0.883106	-0.554637	0.463735
Br138	Br	1.383106	-0.054637	0.963735
H139	H	1.163387	0.075522	-0.000044
H140	H	1.663387	0.575522	0.499956
Br141	Br	0.835293	0.113056	-0.000056
Br142	Br	1.335293	0.613056	0.499944
H143	H	1.128121	-0.381245	0.255865
H144	H	1.628121	0.118755	0.755865
Br145	Br	0.449574	-0.157604	-0.000021
Br146	Br	0.949574	0.342396	0.499979
H147	H	0.302563	-0.396165	-0.000054
H148	H	0.802563	0.103835	0.499946
Br149	Br	0.759519	-0.568065	-0.000051
Br150	Br	1.259519	-0.068065	0.499949
Br151	Br	1.160015	-0.358682	0.463708
Br152	Br	1.660015	0.141318	0.963708
Br153	Br	1.160036	-0.358702	0.536168
Br154	Br	1.660036	0.141298	1.036168
Br155	Br	1.207845	-0.026411	-0.000050
Br156	Br	1.707845	0.473589	0.499950
H157	H	0.674985	-0.591356	-0.000051
H158	H	1.174985	-0.091356	0.499949
Br159	Br	0.883146	-0.554670	0.771109
Br160	Br	1.383146	-0.054670	1.271109
Br161	Br	0.883114	-0.554648	0.536209
Br162	Br	1.383114	-0.054648	1.036209
H163	H	1.160295	0.245793	-0.000057
H164	H	1.660295	0.745793	0.499943
