data_functionalizedCrystal
_audit_creation_method	'MofGen! by Chris Wilmer'
_symmetry_space_group_name_H-M	'P1'
_symmetry_Int_Tables_number	1
_symmetry_cell_setting	triclinic
loop_
_symmetry_equiv_pos_as_xyz
  x,y,z
_cell_length_a	8.634740
_cell_length_b	7.088929
_cell_length_c	9.065218
_cell_angle_alpha	83.685725
_cell_angle_beta	87.206904
_cell_angle_gamma	82.825325
loop_
_atom_site_label
_atom_site_type_symbol
_atom_site_fract_x
_atom_site_fract_y
_atom_site_fract_z
O1	O	2.037144	0.158979	-0.494897
O2	O	1.587627	0.158982	-0.454483
O3	O	1.821677	0.158977	-0.261250
O4	O	1.803094	0.158985	-0.688131
O5	O	1.852955	-0.158999	-0.235357
O6	O	1.618905	-0.158994	-0.428591
O7	O	2.068421	-0.158997	-0.469005
Cu8	Cu	1.846519	-0.188029	-0.446434
Cu9	Cu	1.809530	0.188014	-0.477055
O10	O	1.834371	-0.158991	-0.662239
C11	C	1.545688	-0.000005	-0.432382
C12	C	1.374123	-0.000004	-0.405085
N13	N	1.872547	-0.452518	-0.424898
C14	C	2.110360	-0.000005	-0.491107
C15	C	2.281924	0.000006	-0.518405
C16	C	1.835530	-0.000008	-0.193086
C17	C	1.830189	0.000001	-0.028553
N18	N	1.783514	0.452503	-0.498581
C19	C	1.820518	-0.000002	-0.730403
C20	C	1.825858	0.000001	-0.894937
H21	H	1.321794	0.000049	-0.287180
C22	C	1.352600	-0.000002	-0.677688
N23	N	1.405843	-0.000005	-0.797664
C24	C	1.658849	-0.437193	-0.601728
N25	N	1.564946	-0.354100	-0.679418
C26	C	1.997218	-0.562829	-0.321744
N27	N	2.091116	-0.645918	-0.244048
