data_functionalizedCrystal
_audit_creation_method	'MofGen! by Chris Wilmer'
_symmetry_space_group_name_H-M	'P1'
_symmetry_Int_Tables_number	1
_symmetry_cell_setting	triclinic
loop_
_symmetry_equiv_pos_as_xyz
  x,y,z
_cell_length_a	10.968094
_cell_length_b	11.026607
_cell_length_c	17.766277
_cell_angle_alpha	89.996915
_cell_angle_beta	102.118106
_cell_angle_gamma	96.379842
loop_
_atom_site_label
_atom_site_type_symbol
_atom_site_fract_x
_atom_site_fract_y
_atom_site_fract_z
O1	O	1.693891	0.170472	0.157102
O2	O	1.334286	0.186805	0.110461
O3	O	1.484285	0.001738	0.129919
O4	O	1.543892	0.355539	0.137644
O5	O	1.484249	0.001729	0.255103
O6	O	1.334250	0.186795	0.235645
O7	O	1.693855	0.170463	0.282286
Cu8	Cu	1.514049	0.178628	0.270396
Cu9	Cu	1.514092	0.178640	0.122351
O10	O	1.543856	0.355529	0.262828
C11	C	1.287515	0.185614	0.166989
C12	C	1.148203	0.182064	0.148920
C13	C	0.942079	0.176795	0.187033
C14	C	1.086066	0.180473	0.205716
C15	C	1.473270	-0.043569	0.191083
C16	C	1.440489	-0.178554	0.186829
C17	C	1.531003	-0.251609	0.198568
C18	C	1.497125	-0.391125	0.194171
C19	C	1.740626	0.171654	0.225756
C20	C	1.879938	0.175204	0.243821
C21	C	1.554871	0.400836	0.201662
C22	C	1.587652	0.535822	0.205911
N23	N	1.514028	0.178619	0.374523
N24	N	1.514120	0.178639	0.018225
C25	C	1.580485	0.096713	0.422531
C26	C	1.580491	0.096707	0.501334
C27	C	1.514057	0.178629	0.532128
C28	C	1.447586	0.260542	0.484109
C29	C	1.447572	0.260537	0.405306
C30	C	1.522548	0.289219	0.658065
C31	C	1.522572	0.289225	0.736867
C32	C	1.514094	0.178644	0.775179
C33	C	1.505618	0.068052	0.734682
C34	C	1.505604	0.068047	0.655880
C35	C	1.514064	0.178643	0.617574
C36	C	1.580560	0.096725	0.908633
C37	C	1.580556	0.096717	0.987436
C38	C	1.447660	0.260563	0.970211
C39	C	1.447655	0.260560	0.891409
C40	C	1.514112	0.178642	0.860625
H41	H	0.888680	0.175428	0.124583
F42	F	1.155848	0.182241	0.287348
F43	F	1.376838	0.347717	0.354211
F44	F	1.651282	0.009536	0.875870
F45	F	1.665077	-0.198363	0.215953
F46	F	1.363044	-0.444365	0.176774
F47	F	1.721734	-0.410940	0.223299
H48	H	1.498714	-0.021994	0.765873
H49	H	1.337915	-0.219297	0.173520
F50	F	1.651207	0.009525	0.389770
F51	F	1.651226	0.009526	0.552435
H52	H	1.094812	0.180706	0.086466
H53	H	1.498699	-0.022001	0.622910
H54	H	1.393563	0.327261	0.995282
F55	F	1.651283	0.009531	1.038531
H56	H	1.393546	0.327261	0.852319
H57	H	1.529481	0.379276	0.769834
F58	F	0.949725	0.176972	0.325449
H59	H	1.529432	0.379273	0.626876
F60	F	1.376877	0.347726	0.516882
