data_functionalizedCrystal
_audit_creation_method	'MofGen! by Chris Wilmer'
_symmetry_space_group_name_H-M	'P1'
_symmetry_Int_Tables_number	1
_symmetry_cell_setting	triclinic
loop_
_symmetry_equiv_pos_as_xyz
  x,y,z
_cell_length_a	29.839134
_cell_length_b	29.839131
_cell_length_c	29.839125
_cell_angle_alpha	89.982291
_cell_angle_beta	89.978020
_cell_angle_gamma	90.036281
loop_
_atom_site_label
_atom_site_type_symbol
_atom_site_fract_x
_atom_site_fract_y
_atom_site_fract_z
Zn1	Zn	0.686720	-0.178978	-0.254125
Zn2	Zn	0.936720	0.071022	-0.004125
Zn3	Zn	1.186720	0.321022	0.245875
Zn4	Zn	1.436720	0.571022	0.495875
Zn5	Zn	0.686652	-0.254090	-0.178995
Zn6	Zn	0.936652	-0.004090	0.071005
Zn7	Zn	1.186652	0.245910	0.321005
Zn8	Zn	1.436652	0.495910	0.571005
Zn9	Zn	0.611602	-0.178968	-0.178995
Zn10	Zn	0.861602	0.071032	0.071005
Zn11	Zn	1.111602	0.321032	0.321005
Zn12	Zn	1.361602	0.571032	0.571005
Zn13	Zn	0.611550	-0.254075	-0.254083
Zn14	Zn	0.861550	-0.004075	-0.004083
Zn15	Zn	1.111550	0.245925	0.245917
Zn16	Zn	1.361550	0.495925	0.495917
O17	O	0.649131	-0.216528	-0.216549
O18	O	0.899131	0.033472	0.033451
O19	O	1.149131	0.283472	0.283451
O20	O	1.399131	0.533472	0.533451
O21	O	0.749578	-0.188952	-0.244176
O22	O	0.999578	0.061048	0.005824
O23	O	1.249578	0.311048	0.255824
O24	O	1.499578	0.561048	0.505824
O25	O	0.676690	-0.244127	-0.116128
O26	O	0.926690	0.005873	0.133872
O27	O	1.176690	0.255873	0.383872
O28	O	1.426690	0.505873	0.633872
O29	O	0.621617	-0.116102	-0.188978
O30	O	0.871617	0.133898	0.061022
O31	O	1.121617	0.383898	0.311022
O32	O	1.371617	0.633898	0.561022
O33	O	0.749528	-0.244137	-0.188979
O34	O	0.999528	0.005863	0.061021
O35	O	1.249528	0.255863	0.311021
O36	O	1.499528	0.505863	0.561021
O37	O	0.676805	-0.116109	-0.244176
O38	O	0.926805	0.133891	0.005824
O39	O	1.176805	0.383891	0.255824
O40	O	1.426805	0.633891	0.505824
O41	O	0.621551	-0.188935	-0.116127
O42	O	0.871551	0.061065	0.133873
O43	O	1.121551	0.311065	0.383873
O44	O	1.371551	0.561065	0.633873
O45	O	0.548728	-0.188921	-0.188938
O46	O	0.798728	0.061079	0.061062
O47	O	1.048728	0.311079	0.311062
O48	O	1.298728	0.561079	0.561062
O49	O	0.621528	-0.244111	-0.316956
O50	O	0.871528	0.005889	-0.066956
O51	O	1.121528	0.255889	0.183044
O52	O	1.371528	0.505889	0.433044
O53	O	0.548690	-0.244101	-0.244105
O54	O	0.798690	0.005899	0.005895
O55	O	1.048690	0.255899	0.255895
O56	O	1.298690	0.505899	0.505895
O57	O	0.676755	-0.188937	-0.316987
O58	O	0.926755	0.061063	-0.066987
O59	O	1.176755	0.311063	0.183013
O60	O	1.426755	0.561063	0.433013
O61	O	0.676639	-0.316955	-0.188938
O62	O	0.926639	-0.066955	0.061062
O63	O	1.176639	0.183045	0.311062
O64	O	1.426639	0.433045	0.561062
O65	O	0.621462	-0.316944	-0.244105
O66	O	0.871462	-0.066944	0.005895
O67	O	1.121462	0.183056	0.255895
O68	O	1.371462	0.433056	0.505895
C69	C	0.532408	-0.216509	-0.216517
C70	C	0.782408	0.033491	0.033483
C71	C	1.032408	0.283491	0.283483
C72	C	1.282408	0.533491	0.533483
C73	C	0.482474	-0.216511	-0.216514
C74	C	0.732474	0.033489	0.033486
C75	C	0.982474	0.283489	0.283486
C76	C	1.232474	0.533489	0.533486
C77	C	0.172820	-0.245303	-0.245240
C78	C	0.422820	0.004697	0.004760
C79	C	0.672820	0.254697	0.254760
C80	C	0.922820	0.504697	0.504760
C81	C	-0.014853	-0.245315	-0.245260
C82	C	0.235147	0.004685	0.004740
C83	C	0.485147	0.254685	0.254740
C84	C	0.735147	0.504685	0.504740
O85	O	-0.039127	-0.269774	-0.269665
O86	O	0.210873	-0.019774	-0.019665
O87	O	0.460873	0.230226	0.230335
O88	O	0.710873	0.480226	0.480335
N89	N	-0.038311	-0.216544	-0.216583
N90	N	0.211689	0.033456	0.033417
N91	N	0.461689	0.283456	0.283417
N92	N	0.711689	0.533456	0.533417
C93	C	-0.014848	-0.187766	-0.187902
C94	C	0.235152	0.062234	0.062098
C95	C	0.485152	0.312234	0.312098
C96	C	0.735152	0.562234	0.562098
O97	O	-0.039107	-0.163291	-0.163514
O98	O	0.210893	0.086709	0.086486
O99	O	0.460893	0.336709	0.336486
O100	O	0.710893	0.586709	0.586486
C101	C	0.172824	-0.187751	-0.187884
C102	C	0.422824	0.062249	0.062116
C103	C	0.672824	0.312249	0.312116
C104	C	0.922824	0.562249	0.562116
C105	C	0.196280	-0.216527	-0.216560
C106	C	0.446280	0.033473	0.033440
C107	C	0.696280	0.283473	0.283440
C108	C	0.946280	0.533473	0.533440
C109	C	0.196276	-0.274076	-0.273913
C110	C	0.446276	-0.024076	-0.023913
C111	C	0.696276	0.225924	0.226087
C112	C	0.946276	0.475924	0.476087
C113	C	0.243191	-0.274075	-0.273906
C114	C	0.493191	-0.024075	-0.023906
C115	C	0.743191	0.225925	0.226094
C116	C	0.993191	0.475925	0.476094
C117	C	0.266651	-0.245299	-0.245226
C118	C	0.516651	0.004701	0.004774
C119	C	0.766651	0.254701	0.254774
C120	C	1.016651	0.504701	0.504774
C121	C	0.243195	-0.216526	-0.216553
C122	C	0.493195	0.033474	0.033447
C123	C	0.743195	0.283474	0.283447
C124	C	0.993195	0.533474	0.533447
C125	C	0.196286	-0.158971	-0.159205
C126	C	0.446286	0.091029	0.090795
C127	C	0.696286	0.341029	0.340795
C128	C	0.946286	0.591029	0.590795
C129	C	0.243207	-0.158969	-0.159204
C130	C	0.493207	0.091031	0.090796
C131	C	0.743207	0.341031	0.340796
C132	C	0.993207	0.591031	0.590796
C133	C	0.266663	-0.187745	-0.187880
C134	C	0.516663	0.062255	0.062120
C135	C	0.766663	0.312255	0.312120
C136	C	1.016663	0.562255	0.562120
C137	C	0.313570	-0.187749	-0.187865
C138	C	0.563570	0.062251	0.062135
C139	C	0.813570	0.312251	0.312135
C140	C	1.063570	0.562251	0.562135
N141	N	0.337029	-0.216520	-0.216542
N142	N	0.587029	0.033480	0.033458
N143	N	0.837029	0.283480	0.283458
N144	N	1.087029	0.533480	0.533458
C145	C	0.313569	-0.245295	-0.245222
C146	C	0.563569	0.004705	0.004778
C147	C	0.813569	0.254705	0.254778
C148	C	1.063569	0.504705	0.504778
C149	C	-0.113379	-0.187776	-0.187912
C150	C	0.136621	0.062224	0.062088
C151	C	0.386621	0.312224	0.312088
C152	C	0.636621	0.562224	0.562088
C153	C	-0.160297	-0.187780	-0.187916
C154	C	0.089703	0.062220	0.062084
C155	C	0.339703	0.312220	0.312084
C156	C	0.589703	0.562220	0.562084
C157	C	-0.160298	-0.245329	-0.245275
C158	C	0.089702	0.004671	0.004725
C159	C	0.339702	0.254671	0.254725
C160	C	0.589702	0.504671	0.504725
C161	C	-0.113380	-0.245327	-0.245269
C162	C	0.136620	0.004673	0.004731
C163	C	0.386620	0.254673	0.254731
C164	C	0.636620	0.504673	0.504731
C165	C	-0.089921	-0.216547	-0.216589
C166	C	0.160079	0.033453	0.033411
C167	C	0.410079	0.283453	0.283411
C168	C	0.660079	0.533453	0.533411
C169	C	0.412095	-0.245290	-0.245205
C170	C	0.662095	0.004710	0.004795
C171	C	0.912095	0.254710	0.254795
C172	C	1.162095	0.504710	0.504795
C173	C	0.459014	-0.245287	-0.245194
C174	C	0.709014	0.004713	0.004806
C175	C	0.959014	0.254713	0.254806
C176	C	1.209014	0.504713	0.504806
C177	C	0.459012	-0.187736	-0.187837
C178	C	0.709012	0.062264	0.062163
C179	C	0.959012	0.312264	0.312163
C180	C	1.209012	0.562264	0.562163
C181	C	0.412096	-0.187740	-0.187846
C182	C	0.662096	0.062260	0.062154
C183	C	0.912096	0.312260	0.312154
C184	C	1.162096	0.562260	0.562154
C185	C	0.388639	-0.216519	-0.216534
C186	C	0.638639	0.033481	0.033466
C187	C	0.888639	0.283481	0.283466
C188	C	1.138639	0.533481	0.533466
O189	O	0.337873	-0.163299	-0.163477
O190	O	0.587873	0.086701	0.086523
O191	O	0.837873	0.336701	0.336523
O192	O	1.087873	0.586701	0.586523
O193	O	0.337836	-0.269759	-0.269613
O194	O	0.587836	-0.019759	-0.019613
O195	O	0.837836	0.230241	0.230387
O196	O	1.087836	0.480241	0.480387
C197	C	0.125905	-0.245304	-0.245247
C198	C	0.375905	0.004696	0.004753
C199	C	0.625905	0.254696	0.254753
C200	C	0.875905	0.504696	0.504753
C201	C	0.102449	-0.216531	-0.216574
C202	C	0.352449	0.033469	0.033426
C203	C	0.602449	0.283469	0.283426
C204	C	0.852449	0.533469	0.533426
C205	C	0.125909	-0.187755	-0.187893
C206	C	0.375909	0.062245	0.062107
C207	C	0.625909	0.312245	0.312107
C208	C	0.875909	0.562245	0.562107
C209	C	0.055531	-0.216535	-0.216577
C210	C	0.305531	0.033465	0.033423
C211	C	0.555531	0.283465	0.283423
C212	C	0.805531	0.533465	0.533423
C213	C	0.032071	-0.245310	-0.245258
C214	C	0.282071	0.004690	0.004742
C215	C	0.532071	0.254690	0.254742
C216	C	0.782071	0.504690	0.504742
C217	C	0.055529	-0.274082	-0.273934
C218	C	0.305529	-0.024082	-0.023934
C219	C	0.555529	0.225918	0.226066
C220	C	0.805529	0.475918	0.476066
C221	C	0.102445	-0.274080	-0.273927
C222	C	0.352445	-0.024080	-0.023927
C223	C	0.602445	0.225920	0.226073
C224	C	0.852445	0.475920	0.476073
C225	C	0.102451	-0.158984	-0.159217
C226	C	0.352451	0.091016	0.090783
C227	C	0.602451	0.341016	0.340783
C228	C	0.852451	0.591016	0.590783
C229	C	0.055535	-0.158989	-0.159226
C230	C	0.305535	0.091011	0.090774
C231	C	0.555535	0.341011	0.340774
C232	C	0.805535	0.591011	0.590774
C233	C	0.032075	-0.187764	-0.187906
C234	C	0.282075	0.062236	0.062094
C235	C	0.532075	0.312236	0.312094
C236	C	0.782075	0.562236	0.562094
C237	C	0.649050	-0.333250	-0.216527
C238	C	0.899050	-0.083250	0.033473
C239	C	1.149050	0.166750	0.283473
C240	C	1.399050	0.416750	0.533473
C241	C	0.649056	-0.383185	-0.216533
C242	C	0.899056	-0.133185	0.033467
C243	C	1.149056	0.116815	0.283467
C244	C	1.399056	0.366815	0.533467
C245	C	0.677914	-0.692821	-0.187866
C246	C	0.927914	-0.442821	0.062134
C247	C	1.177914	-0.192821	0.312134
C248	C	1.427914	0.057179	0.562134
C249	C	0.677969	-0.880494	-0.187883
C250	C	0.927969	-0.630494	0.062117
C251	C	1.177969	-0.380494	0.312117
C252	C	1.427969	-0.130494	0.562117
O253	O	0.702441	-0.904753	-0.163493
O254	O	0.952441	-0.654753	0.086507
O255	O	1.202441	-0.404753	0.336507
O256	O	1.452441	-0.154753	0.586507
N257	N	0.649224	-0.903970	-0.216583
N258	N	0.899224	-0.653970	0.033417
N259	N	1.149224	-0.403970	0.283417
N260	N	1.399224	-0.153970	0.533417
C261	C	0.620465	-0.880524	-0.245283
C262	C	0.870465	-0.630524	0.004717
C263	C	1.120465	-0.380524	0.254717
C264	C	1.370465	-0.130524	0.504717
O265	O	0.596020	-0.904798	-0.269698
O266	O	0.846020	-0.654798	-0.019698
O267	O	1.096020	-0.404798	0.230302
O268	O	1.346020	-0.154798	0.480302
C269	C	0.620412	-0.692852	-0.245268
C270	C	0.870412	-0.442852	0.004732
C271	C	1.120412	-0.192852	0.254732
C272	C	1.370412	0.057148	0.504732
C273	C	0.649156	-0.669379	-0.216563
C274	C	0.899156	-0.419379	0.033437
C275	C	1.149156	-0.169379	0.283437
C276	C	1.399156	0.080621	0.533437
C277	C	0.706656	-0.669348	-0.159164
C278	C	0.956656	-0.419348	0.090836
C279	C	1.206656	-0.169348	0.340836
C280	C	1.456656	0.080652	0.590836
C281	C	0.706640	-0.622433	-0.159158
C282	C	0.956640	-0.372433	0.090842
C283	C	1.206640	-0.122433	0.340842
C284	C	1.456640	0.127567	0.590842
C285	C	0.677882	-0.598990	-0.187854
C286	C	0.927882	-0.348990	0.062146
C287	C	1.177882	-0.098990	0.312146
C288	C	1.427882	0.151010	0.562146
C289	C	0.649140	-0.622463	-0.216557
C290	C	0.899140	-0.372463	0.033443
C291	C	1.149140	-0.122463	0.283443
C292	C	1.399140	0.127537	0.533443
C293	C	0.591656	-0.669407	-0.273969
C294	C	0.841656	-0.419407	-0.023969
C295	C	1.091656	-0.169407	0.226031
C296	C	1.341656	0.080593	0.476031
C297	C	0.591646	-0.622486	-0.273964
C298	C	0.841646	-0.372486	-0.023964
C299	C	1.091646	-0.122486	0.226036
C300	C	1.341646	0.127514	0.476036
C301	C	0.620390	-0.599013	-0.245259
C302	C	0.870390	-0.349013	0.004741
C303	C	1.120390	-0.099013	0.254741
C304	C	1.370390	0.150987	0.504741
C305	C	0.620367	-0.552106	-0.245248
C306	C	0.870367	-0.302106	0.004752
C307	C	1.120367	-0.052106	0.254752
C308	C	1.370367	0.197894	0.504752
N309	N	0.649112	-0.528630	-0.216548
N310	N	0.899112	-0.278630	0.033452
N311	N	1.149112	-0.028630	0.283452
N312	N	1.399112	0.221370	0.533452
C313	C	0.677869	-0.552072	-0.187851
C314	C	0.927869	-0.302072	0.062149
C315	C	1.177869	-0.052072	0.312149
C316	C	1.427869	0.197928	0.562149
C317	C	0.620494	-0.979055	-0.245289
C318	C	0.870494	-0.729055	0.004711
C319	C	1.120494	-0.479055	0.254711
C320	C	1.370494	-0.229055	0.504711
C321	C	0.620507	-1.025973	-0.245292
C322	C	0.870507	-0.775973	0.004708
C323	C	1.120507	-0.525973	0.254708
C324	C	1.370507	-0.275973	0.504708
C325	C	0.678012	-1.025939	-0.187893
C326	C	0.928012	-0.775939	0.062107
C327	C	1.178012	-0.525939	0.312107
C328	C	1.428012	-0.275939	0.562107
C329	C	0.677996	-0.979021	-0.187887
C330	C	0.927996	-0.729021	0.062113
C331	C	1.177996	-0.479021	0.312113
C332	C	1.427996	-0.229021	0.562113
C333	C	0.649239	-0.955579	-0.216589
C334	C	0.899239	-0.705579	0.033411
C335	C	1.149239	-0.455579	0.283411
C336	C	1.399239	-0.205579	0.533411
C337	C	0.677834	-0.453547	-0.187841
C338	C	0.927834	-0.203547	0.062159
C339	C	1.177834	0.046453	0.312159
C340	C	1.427834	0.296453	0.562159
C341	C	0.677814	-0.406627	-0.187836
C342	C	0.927814	-0.156627	0.062164
C343	C	1.177814	0.093373	0.312164
C344	C	1.427814	0.343373	0.562164
C345	C	0.620311	-0.406664	-0.245237
C346	C	0.870311	-0.156664	0.004763
C347	C	1.120311	0.093336	0.254763
C348	C	1.370311	0.343336	0.504763
C349	C	0.620329	-0.453580	-0.245240
C350	C	0.870329	-0.203580	0.004760
C351	C	1.120329	0.046420	0.254760
C352	C	1.370329	0.296420	0.504760
C353	C	0.649094	-0.477020	-0.216540
C354	C	0.899094	-0.227020	0.033460
C355	C	1.149094	0.022980	0.283460
C356	C	1.399094	0.272980	0.533460
O357	O	0.595912	-0.527818	-0.269629
O358	O	0.845912	-0.277818	-0.019629
O359	O	1.095912	-0.027818	0.230371
O360	O	1.345912	0.222182	0.480371
O361	O	0.702318	-0.527791	-0.163447
O362	O	0.952318	-0.277791	0.086553
O363	O	1.202318	-0.027791	0.336553
O364	O	1.452318	0.222209	0.586553
C365	C	0.677930	-0.739737	-0.187872
C366	C	0.927930	-0.489737	0.062128
C367	C	1.177930	-0.239737	0.312128
C368	C	1.427930	0.010263	0.562128
C369	C	0.649188	-0.763210	-0.216574
C370	C	0.899188	-0.513210	0.033426
C371	C	1.149188	-0.263210	0.283426
C372	C	1.399188	-0.013210	0.533426
C373	C	0.620430	-0.739767	-0.245271
C374	C	0.870430	-0.489767	0.004729
C375	C	1.120430	-0.239767	0.254729
C376	C	1.370430	0.010233	0.504729
C377	C	0.649200	-0.810128	-0.216578
C378	C	0.899200	-0.560128	0.033422
C379	C	1.149200	-0.310128	0.283422
C380	C	1.399200	-0.060128	0.533422
C381	C	0.677958	-0.833570	-0.187881
C382	C	0.927958	-0.583570	0.062119
C383	C	1.177958	-0.333570	0.312119
C384	C	1.427958	-0.083570	0.562119
C385	C	0.706703	-0.810094	-0.159181
C386	C	0.956703	-0.560094	0.090819
C387	C	1.206703	-0.310094	0.340819
C388	C	1.456703	-0.060094	0.590819
C389	C	0.706687	-0.763179	-0.159175
C390	C	0.956687	-0.513179	0.090825
C391	C	1.206687	-0.263179	0.340825
C392	C	1.456687	-0.013179	0.590825
C393	C	0.591685	-0.763243	-0.273971
C394	C	0.841685	-0.513243	-0.023971
C395	C	1.091685	-0.263243	0.226029
C396	C	1.341685	-0.013243	0.476029
C397	C	0.591703	-0.810158	-0.273974
C398	C	0.841703	-0.560158	-0.023974
C399	C	1.091703	-0.310158	0.226026
C400	C	1.341703	-0.060158	0.476026
C401	C	0.620461	-0.833601	-0.245277
C402	C	0.870461	-0.583601	0.004723
C403	C	1.120461	-0.333601	0.254723
C404	C	1.370461	-0.083601	0.504723
C405	C	0.766309	-0.216547	-0.216582
C406	C	1.016309	0.033453	0.033418
C407	C	1.266309	0.283453	0.283418
C408	C	1.516309	0.533453	0.533418
C409	C	0.816244	-0.216555	-0.216596
C410	C	1.066244	0.033445	0.033404
C411	C	1.316244	0.283445	0.283404
C412	C	1.566244	0.533445	0.533404
C413	C	0.649143	-0.216524	-0.333728
C414	C	0.899143	0.033476	-0.083728
C415	C	1.149143	0.283476	0.166272
C416	C	1.399143	0.533476	0.416272
C417	C	0.649148	-0.216522	-0.383662
C418	C	0.899148	0.033478	-0.133662
C419	C	1.149148	0.283478	0.116338
C420	C	1.399148	0.533478	0.366338
C421	C	0.649225	-0.099349	-0.216582
C422	C	0.899225	0.150651	0.033418
C423	C	1.149225	0.400651	0.283418
C424	C	1.399225	0.650651	0.533418
C425	C	0.649265	-0.049415	-0.216595
C426	C	0.899265	0.200585	0.033405
C427	C	1.149265	0.450585	0.283405
C428	C	1.399265	0.700585	0.533405
C429	C	0.677935	-0.187718	-0.693325
C430	C	0.927935	0.062282	-0.443325
C431	C	1.177935	0.312282	-0.193325
C432	C	1.427935	0.562282	0.056675
C433	C	0.677957	-0.187680	-0.880998
C434	C	0.927957	0.062320	-0.630998
C435	C	1.177957	0.312320	-0.380998
C436	C	1.427957	0.562320	-0.130998
O437	O	0.702399	-0.163232	-0.905279
O438	O	0.952399	0.086768	-0.655279
O439	O	1.202399	0.336768	-0.405279
O440	O	1.452399	0.586768	-0.155279
N441	N	0.649208	-0.216402	-0.904448
N442	N	0.899208	0.033598	-0.654448
N443	N	1.149208	0.283598	-0.404448
N444	N	1.399208	0.533598	-0.154448
C445	C	0.620449	-0.245133	-0.880976
C446	C	0.870449	0.004867	-0.630976
C447	C	1.120449	0.254867	-0.380976
C448	C	1.370449	0.504867	-0.130976
O449	O	0.595993	-0.269559	-0.905228
O450	O	0.845993	-0.019559	-0.655228
O451	O	1.095993	0.230441	-0.405228
O452	O	1.345993	0.480441	-0.155228
C453	C	0.620424	-0.245169	-0.693304
C454	C	0.870424	0.004831	-0.443304
C455	C	1.120424	0.254831	-0.193304
C456	C	1.370424	0.504831	0.056696
C457	C	0.649179	-0.216448	-0.669857
C458	C	0.899179	0.033552	-0.419857
C459	C	1.149179	0.283552	-0.169857
C460	C	1.399179	0.533552	0.080143
C461	C	0.706687	-0.158999	-0.669877
C462	C	0.956687	0.091001	-0.419877
C463	C	1.206687	0.341001	-0.169877
C464	C	1.456687	0.591001	0.080123
C465	C	0.706683	-0.159011	-0.622962
C466	C	0.956683	0.090989	-0.372962
C467	C	1.206683	0.340989	-0.122962
C468	C	1.456683	0.590989	0.127038
C469	C	0.677927	-0.187741	-0.599494
C470	C	0.927927	0.062259	-0.349494
C471	C	1.177927	0.312259	-0.099494
C472	C	1.427927	0.562259	0.150506
C473	C	0.649175	-0.216460	-0.622941
C474	C	0.899175	0.033540	-0.372941
C475	C	1.149175	0.283540	-0.122941
C476	C	1.399175	0.533540	0.127059
C477	C	0.591663	-0.273898	-0.669833
C478	C	0.841663	-0.023898	-0.419833
C479	C	1.091663	0.226102	-0.169833
C480	C	1.341663	0.476102	0.080167
C481	C	0.591659	-0.273903	-0.622912
C482	C	0.841659	-0.023903	-0.372912
C483	C	1.091659	0.226097	-0.122912
C484	C	1.341659	0.476097	0.127088
C485	C	0.620414	-0.245183	-0.599465
C486	C	0.870414	0.004817	-0.349465
C487	C	1.120414	0.254817	-0.099465
C488	C	1.370414	0.504817	0.150535
C489	C	0.620415	-0.245202	-0.552558
C490	C	0.870415	0.004798	-0.302558
C491	C	1.120415	0.254798	-0.052558
C492	C	1.370415	0.504798	0.197442
N493	N	0.649164	-0.216480	-0.529108
N494	N	0.899164	0.033520	-0.279108
N495	N	1.149164	0.283520	-0.029108
N496	N	1.399164	0.533520	0.220892
C497	C	0.677920	-0.187749	-0.552576
C498	C	0.927920	0.062251	-0.302576
C499	C	1.177920	0.312251	-0.052576
C500	C	1.427920	0.562251	0.197424
C501	C	0.620464	-0.245113	-0.979507
C502	C	0.870464	0.004887	-0.729507
C503	C	1.120464	0.254887	-0.479507
C504	C	1.370464	0.504887	-0.229507
C505	C	0.620471	-0.245105	-1.026425
C506	C	0.870471	0.004895	-0.776425
C507	C	1.120471	0.254895	-0.526425
C508	C	1.370471	0.504895	-0.276425
C509	C	0.677979	-0.187650	-1.026443
C510	C	0.927979	0.062350	-0.776443
C511	C	1.177979	0.312350	-0.526443
C512	C	1.427979	0.562350	-0.276443
C513	C	0.677974	-0.187661	-0.979524
C514	C	0.927974	0.062339	-0.729524
C515	C	1.177974	0.312339	-0.479524
C516	C	1.427974	0.562339	-0.229524
C517	C	0.649214	-0.216391	-0.956057
C518	C	0.899214	0.033609	-0.706057
C519	C	1.149214	0.283609	-0.456057
C520	C	1.399214	0.533609	-0.206057
C521	C	0.677910	-0.187776	-0.454050
C522	C	0.927910	0.062224	-0.204050
C523	C	1.177910	0.312224	0.045950
C524	C	1.427910	0.562224	0.295950
C525	C	0.677904	-0.187792	-0.407130
C526	C	0.927904	0.062208	-0.157130
C527	C	1.177904	0.312208	0.092870
C528	C	1.427904	0.562208	0.342870
C529	C	0.620395	-0.245244	-0.407116
C530	C	0.870395	0.004756	-0.157116
C531	C	1.120395	0.254756	0.092884
C532	C	1.370395	0.504756	0.342884
C533	C	0.620401	-0.245230	-0.454032
C534	C	0.870401	0.004770	-0.204032
C535	C	1.120401	0.254770	0.045968
C536	C	1.370401	0.504770	0.295968
C537	C	0.649161	-0.216493	-0.477497
C538	C	0.899161	0.033507	-0.227497
C539	C	1.149161	0.283507	0.022503
C540	C	1.399161	0.533507	0.272503
O541	O	0.595982	-0.269633	-0.528248
O542	O	0.845982	-0.019633	-0.278248
O543	O	1.095982	0.230367	-0.028248
O544	O	1.345982	0.480367	0.221752
O545	O	0.702366	-0.163320	-0.528316
O546	O	0.952366	0.086680	-0.278316
O547	O	1.202366	0.336680	-0.028316
O548	O	1.452366	0.586680	0.221684
C549	C	0.677939	-0.187706	-0.740240
C550	C	0.927939	0.062294	-0.490240
C551	C	1.177939	0.312294	-0.240240
C552	C	1.427939	0.562294	0.009760
C553	C	0.649187	-0.216425	-0.763688
C554	C	0.899187	0.033575	-0.513688
C555	C	1.149187	0.283575	-0.263688
C556	C	1.399187	0.533575	-0.013688
C557	C	0.620431	-0.245155	-0.740219
C558	C	0.870431	0.004845	-0.490219
C559	C	1.120431	0.254845	-0.240219
C560	C	1.370431	0.504845	0.009781
C561	C	0.649194	-0.216417	-0.810605
C562	C	0.899194	0.033583	-0.560605
C563	C	1.149194	0.283583	-0.310605
C564	C	1.399194	0.533583	-0.060605
C565	C	0.677950	-0.187686	-0.834074
C566	C	0.927950	0.062314	-0.584074
C567	C	1.177950	0.312314	-0.334074
C568	C	1.427950	0.562314	-0.084074
C569	C	0.706699	-0.158964	-0.810624
C570	C	0.956699	0.091036	-0.560624
C571	C	1.206699	0.341036	-0.310624
C572	C	1.456699	0.591036	-0.060624
C573	C	0.706695	-0.158976	-0.763708
C574	C	0.956695	0.091024	-0.513708
C575	C	1.206695	0.341024	-0.263708
C576	C	1.456695	0.591024	-0.013708
C577	C	0.591682	-0.273877	-0.763669
C578	C	0.841682	-0.023877	-0.513669
C579	C	1.091682	0.226123	-0.263669
C580	C	1.341682	0.476123	-0.013669
C581	C	0.591689	-0.273864	-0.810585
C582	C	0.841689	-0.023864	-0.560585
C583	C	1.091689	0.226136	-0.310585
C584	C	1.341689	0.476136	-0.060585
C585	C	0.620445	-0.245133	-0.834053
C586	C	0.870445	0.004867	-0.584053
C587	C	1.120445	0.254867	-0.334053
C588	C	1.370445	0.504867	-0.084053
C589	C	0.649145	-0.216499	-0.099827
C590	C	0.899145	0.033501	0.150173
C591	C	1.149145	0.283501	0.400173
C592	C	1.399145	0.533501	0.650173
C593	C	0.649227	-0.216374	-0.049893
C594	C	0.899227	0.033626	0.200107
C595	C	1.149227	0.283626	0.450107
C596	C	1.399227	0.533626	0.700107
H597	H	0.177180	-0.297509	-0.297271
H598	H	0.427180	-0.047509	-0.047271
H599	H	0.677180	0.202491	0.202729
H600	H	0.927180	0.452491	0.452729
N601	N	0.708930	-0.156786	-0.479358
N602	N	0.958930	0.093214	-0.229358
N603	N	1.208930	0.343214	0.020642
N604	N	1.458930	0.593214	0.270642
H605	H	0.690695	-0.135957	-0.498821
H606	H	0.940695	0.114043	-0.248821
H607	H	1.190695	0.364043	0.001179
H608	H	1.440695	0.614043	0.251179
H609	H	0.727137	-0.138627	-0.457353
H610	H	0.977137	0.111373	-0.207353
H611	H	1.227137	0.361373	0.042647
H612	H	1.477137	0.611373	0.292647
H613	H	-0.179407	-0.268759	-0.268628
H614	H	0.070593	-0.018759	-0.018628
H615	H	0.320593	0.231241	0.231372
H616	H	0.570593	0.481241	0.481372
N617	N	0.708821	-0.381309	-0.156879
N618	N	0.958821	-0.131309	0.093121
N619	N	1.208821	0.118691	0.343121
N620	N	1.458821	0.368691	0.593121
H621	H	0.690575	-0.361869	-0.136035
H622	H	0.940575	-0.111869	0.113965
H623	H	1.190575	0.138131	0.363965
H624	H	1.440575	0.388131	0.613965
H625	H	0.727036	-0.403310	-0.138733
H626	H	0.977036	-0.153310	0.111267
H627	H	1.227036	0.096690	0.361267
H628	H	1.477036	0.346690	0.611267
H629	H	0.568248	-0.688511	-0.297342
H630	H	0.818248	-0.438511	-0.047342
H631	H	1.068248	-0.188511	0.202658
H632	H	1.318248	0.061489	0.452658
H633	H	0.730110	-0.135588	-0.744622
H634	H	0.980110	0.114412	-0.494622
H635	H	1.230110	0.364412	-0.244622
H636	H	1.480110	0.614412	0.005378
N637	N	0.708855	-0.478819	-0.156880
N638	N	0.958855	-0.228819	0.093120
N639	N	1.208855	0.021181	0.343120
N640	N	1.458855	0.271181	0.593120
H641	H	0.690618	-0.498310	-0.136042
H642	H	0.940618	-0.248310	0.113958
H643	H	1.190618	0.001690	0.363958
H644	H	1.440618	0.251690	0.613958
H645	H	0.729667	-0.498233	-0.175186
H646	H	0.979667	-0.248233	0.074814
H647	H	1.229667	0.001767	0.324814
H648	H	1.479667	0.251767	0.574814
H649	H	0.730115	-0.135573	-0.829740
H650	H	0.980115	0.114427	-0.579740
H651	H	1.230115	0.364427	-0.329740
H652	H	1.480115	0.614427	-0.079740
H653	H	-0.179390	-0.164352	-0.164561
H654	H	0.070610	0.085648	0.085439
H655	H	0.320610	0.335648	0.335439
H656	H	0.570610	0.585648	0.585439
H657	H	0.597044	-0.268511	-0.960404
H658	H	0.847044	-0.018511	-0.710404
H659	H	1.097044	0.231489	-0.460404
H660	H	1.347044	0.481489	-0.210404
H661	H	0.568265	-0.297274	-0.744566
H662	H	0.818265	-0.047274	-0.494566
H663	H	1.068265	0.202726	-0.244566
H664	H	1.318265	0.452726	0.005434
N665	N	0.560662	-0.737962	-0.304919
N666	N	0.810662	-0.487962	-0.054919
N667	N	1.060662	-0.237962	0.195081
N668	N	1.310662	0.012038	0.445081
H669	H	0.578892	-0.718468	-0.325759
H670	H	0.828892	-0.468468	-0.075759
H671	H	1.078892	-0.218468	0.174241
H672	H	1.328892	0.031532	0.424241
H673	H	0.542462	-0.759984	-0.323068
H674	H	0.792462	-0.509984	-0.073068
H675	H	1.042462	-0.259984	0.176932
H676	H	1.292462	-0.009984	0.426932
H677	H	-0.094285	-0.268759	-0.268619
H678	H	0.155715	-0.018759	-0.018619
H679	H	0.405715	0.231241	0.231381
H680	H	0.655715	0.481241	0.481381
H681	H	0.596925	-0.472692	-0.268615
H682	H	0.846925	-0.222692	-0.018615
H683	H	1.096925	0.027308	0.231385
H684	H	1.346925	0.277308	0.481385
H685	H	0.568248	-0.297285	-0.688916
H686	H	0.818248	-0.047285	-0.438916
H687	H	1.068248	0.202715	-0.188916
H688	H	1.318248	0.452715	0.061084
H689	H	0.478110	-0.268721	-0.268545
H690	H	0.728110	-0.018721	-0.018545
H691	H	0.978110	0.231279	0.231455
H692	H	1.228110	0.481279	0.481455
H693	H	0.730047	-0.603324	-0.135785
H694	H	0.980047	-0.353324	0.114215
H695	H	1.230047	-0.103324	0.364215
H696	H	1.480047	0.146676	0.614215
N697	N	-0.088080	-0.156728	-0.156982
N698	N	0.161920	0.093272	0.093018
N699	N	0.411920	0.343272	0.343018
N700	N	0.661920	0.593272	0.593018
H701	H	-0.110064	-0.138504	-0.138819
H702	H	0.139936	0.111496	0.111181
H703	H	0.389936	0.361496	0.361181
H704	H	0.639936	0.611496	0.611181
H705	H	-0.068630	-0.174976	-0.136153
H706	H	0.181370	0.075024	0.113847
H707	H	0.431370	0.325024	0.363847
H708	H	0.681370	0.575024	0.613847
N709	N	0.737692	-0.737865	-0.128217
N710	N	0.987692	-0.487865	0.121783
N711	N	1.237692	-0.237865	0.371783
N712	N	1.487692	0.012135	0.621783
H713	H	0.755911	-0.759841	-0.110043
H714	H	1.005911	-0.509841	0.139957
H715	H	1.255911	-0.259841	0.389957
H716	H	1.505911	-0.009841	0.639957
H717	H	0.758465	-0.718373	-0.146526
H718	H	1.008465	-0.468373	0.103474
H719	H	1.258465	-0.218373	0.353474
H720	H	1.508465	0.031627	0.603474
H721	H	0.393001	-0.268723	-0.268566
H722	H	0.643001	-0.018723	-0.018566
H723	H	0.893001	0.231277	0.231434
H724	H	1.143001	0.481277	0.481434
N725	N	0.737676	-0.694628	-0.128210
N726	N	0.987676	-0.444628	0.121790
N727	N	1.237676	-0.194628	0.371790
N728	N	1.487676	0.055372	0.621790
H729	H	0.755879	-0.672632	-0.110030
H730	H	1.005879	-0.422632	0.139970
H731	H	1.255879	-0.172632	0.389970
H732	H	1.505879	0.077368	0.639970
H733	H	0.719409	-0.714117	-0.107399
H734	H	0.969409	-0.464117	0.142601
H735	H	1.219409	-0.214117	0.392601
H736	H	1.469409	0.035883	0.642601
H737	H	0.568233	-0.297294	-0.603808
H738	H	0.818233	-0.047294	-0.353808
H739	H	1.068233	0.202706	-0.103808
H740	H	1.318233	0.452706	0.146192
H741	H	0.177197	-0.135539	-0.135854
H742	H	0.427197	0.114461	0.114146
H743	H	0.677197	0.364461	0.364146
H744	H	0.927197	0.614461	0.614146
H745	H	0.568274	-0.297256	-0.829671
H746	H	0.818274	-0.047256	-0.579671
H747	H	1.068274	0.202744	-0.329671
H748	H	1.318274	0.452744	-0.079671
H749	H	0.701402	-0.959912	-0.164514
H750	H	0.951402	-0.709912	0.085486
H751	H	1.201402	-0.459912	0.335486
H752	H	1.451402	-0.209912	0.585486
H753	H	0.730097	-0.135623	-0.603875
H754	H	0.980097	0.114377	-0.353875
H755	H	1.230097	0.364377	-0.103875
H756	H	1.480097	0.614377	0.146125
N757	N	0.268509	-0.127924	-0.128273
N758	N	0.518509	0.122076	0.121727
N759	N	0.768509	0.372076	0.371727
N760	N	1.018509	0.622076	0.621727
H761	H	0.246528	-0.109696	-0.110111
H762	H	0.496528	0.140304	0.139889
H763	H	0.746528	0.390304	0.389889
H764	H	0.996528	0.640304	0.639889
H765	H	0.287955	-0.146175	-0.107444
H766	H	0.537955	0.103825	0.142556
H767	H	0.787955	0.353825	0.392556
H768	H	1.037955	0.603825	0.642556
H769	H	0.701321	-0.164403	-0.388042
H770	H	0.951321	0.085597	-0.138042
H771	H	1.201321	0.335597	0.111958
H772	H	1.451321	0.585597	0.361958
N773	N	0.737700	-0.128004	-0.695185
N774	N	0.987700	0.121996	-0.445185
N775	N	1.237700	0.371996	-0.195185
N776	N	1.487700	0.621996	0.054815
H777	H	0.755909	-0.109814	-0.673205
H778	H	1.005909	0.140186	-0.423205
H779	H	1.255909	0.390186	-0.173205
H780	H	1.505909	0.640186	0.076795
H781	H	0.758482	-0.146286	-0.714655
H782	H	1.008482	0.103714	-0.464655
H783	H	1.258482	0.353714	-0.214655
H784	H	1.508482	0.603714	0.035345
H785	H	0.701427	-1.045034	-0.164527
H786	H	0.951427	-0.795034	0.085473
H787	H	1.201427	-0.545034	0.335473
H788	H	1.451427	-0.295034	0.585473
H789	H	0.596991	-0.268621	-0.473123
H790	H	0.846991	-0.018621	-0.223123
H791	H	1.096991	0.231379	0.026877
H792	H	1.346991	0.481379	0.276877
H793	H	0.597097	-1.045080	-0.268662
H794	H	0.847097	-0.795080	-0.018662
H795	H	1.097097	-0.545080	0.231338
H796	H	1.347097	-0.295080	0.481338
H797	H	0.596984	-0.268637	-0.388000
H798	H	0.846984	-0.018637	-0.138000
H799	H	1.096984	0.231363	0.112000
H800	H	1.346984	0.481363	0.362000
N801	N	0.589474	-0.953774	-0.276245
N802	N	0.839474	-0.703774	-0.026245
N803	N	1.089474	-0.453774	0.223755
N804	N	1.339474	-0.203774	0.473755
H805	H	0.571267	-0.975769	-0.294422
H806	H	0.821267	-0.725769	-0.044422
H807	H	1.071267	-0.475769	0.205578
H808	H	1.321267	-0.225769	0.455578
H809	H	0.568690	-0.934335	-0.257933
H810	H	0.818690	-0.684335	-0.007933
H811	H	1.068690	-0.434335	0.242067
H812	H	1.318690	-0.184335	0.492067
H813	H	0.392998	-0.164309	-0.164496
H814	H	0.642998	0.085691	0.085504
H815	H	0.892998	0.335691	0.335504
H816	H	1.142998	0.585691	0.585504
N817	N	0.268487	-0.305111	-0.304835
N818	N	0.518487	-0.055111	-0.054835
N819	N	0.768487	0.194889	0.195165
N820	N	1.018487	0.444889	0.445165
H821	H	0.246500	-0.323338	-0.323003
H822	H	0.496500	-0.073338	-0.073003
H823	H	0.746500	0.176662	0.176997
H824	H	0.996500	0.426662	0.426997
H825	H	0.287973	-0.286856	-0.325659
H826	H	0.537973	-0.036856	-0.075659
H827	H	0.787973	0.213144	0.174341
H828	H	1.037973	0.463144	0.424341
N829	N	0.737717	-0.835383	-0.128225
N830	N	0.987717	-0.585383	0.121775
N831	N	1.237717	-0.335383	0.371775
N832	N	1.487717	-0.085383	0.621775
H833	H	0.733361	-0.868666	-0.132587
H834	H	0.983361	-0.618666	0.117413
H835	H	1.233361	-0.368666	0.367413
H836	H	1.483361	-0.118666	0.617413
H837	H	0.769796	-0.827152	-0.135250
H838	H	1.019796	-0.577152	0.114750
H839	H	1.269796	-0.327152	0.364750
H840	H	1.519796	-0.077152	0.614750
N841	N	0.708995	-0.156663	-1.051759
N842	N	0.958995	0.093337	-0.801759
N843	N	1.208995	0.343337	-0.551759
N844	N	1.458995	0.593337	-0.301759
H845	H	0.704633	-0.161018	-1.085039
H846	H	0.954633	0.088982	-0.835039
H847	H	1.204633	0.338982	-0.585039
H848	H	1.454633	0.588982	-0.335039
H849	H	0.702024	-0.124578	-1.043563
H850	H	0.952024	0.125422	-0.793563
H851	H	1.202024	0.375422	-0.543563
H852	H	1.452024	0.625422	-0.293563
H853	H	0.478121	-0.164309	-0.164485
H854	H	0.728121	0.085691	0.085515
H855	H	0.978121	0.335691	0.335515
H856	H	1.228121	0.585691	0.585515
H857	H	0.568229	-0.603402	-0.297337
H858	H	0.818229	-0.353402	-0.047337
H859	H	1.068229	-0.103402	0.202663
H860	H	1.318229	0.146598	0.452663
N861	N	0.127740	-0.305118	-0.304855
N862	N	0.377740	-0.055118	-0.054855
N863	N	0.627740	0.194882	0.195145
N864	N	0.877740	0.444882	0.445145
H865	H	0.105753	-0.323345	-0.323022
H866	H	0.355753	-0.073345	-0.073022
H867	H	0.605753	0.176655	0.176978
H868	H	0.855753	0.426655	0.426978
H869	H	0.147228	-0.286864	-0.325679
H870	H	0.397228	-0.036864	-0.075679
H871	H	0.647228	0.213136	0.174321
H872	H	0.897228	0.463136	0.424321
H873	H	0.036441	-0.135556	-0.135871
H874	H	0.286441	0.114444	0.114129
H875	H	0.536441	0.364444	0.364129
H876	H	0.786441	0.614444	0.614129
N877	N	0.030222	-0.305121	-0.304866
N878	N	0.280222	-0.055121	-0.054866
N879	N	0.530222	0.194879	0.195134
N880	N	0.780222	0.444879	0.445134
H881	H	-0.003059	-0.300753	-0.300516
H882	H	0.246941	-0.050753	-0.050516
H883	H	0.496941	0.199247	0.199484
H884	H	0.746941	0.449247	0.449484
H885	H	0.038441	-0.298177	-0.336964
H886	H	0.288441	-0.048177	-0.086964
H887	H	0.538441	0.201823	0.163036
H888	H	0.788441	0.451823	0.413036
H889	H	0.121547	-0.135551	-0.135861
H890	H	0.371547	0.114449	0.114139
H891	H	0.621547	0.364449	0.364139
H892	H	0.871547	0.614449	0.614139
H893	H	0.596895	-0.387570	-0.268600
H894	H	0.846895	-0.137570	-0.018600
H895	H	1.096895	0.112430	0.231400
H896	H	1.346895	0.362430	0.481400
H897	H	0.568292	-0.829266	-0.297349
H898	H	0.818292	-0.579266	-0.047349
H899	H	1.068292	-0.329266	0.202651
H900	H	1.318292	-0.079266	0.452651
N901	N	0.708990	-0.156686	-0.954237
N902	N	0.958990	0.093314	-0.704237
N903	N	1.208990	0.343314	-0.454237
N904	N	1.458990	0.593314	-0.204237
H905	H	0.690751	-0.135865	-0.934767
H906	H	0.940751	0.114135	-0.684767
H907	H	1.190751	0.364135	-0.434767
H908	H	1.440751	0.614135	-0.184767
H909	H	0.729784	-0.174987	-0.934801
H910	H	0.979784	0.075013	-0.684801
H911	H	1.229784	0.325013	-0.434801
H912	H	1.479784	0.575013	-0.184801
N913	N	0.589463	-0.276088	-1.051712
N914	N	0.839463	-0.026088	-0.801712
N915	N	1.089463	0.223912	-0.551712
N916	N	1.339463	0.473912	-0.301712
H917	H	0.571246	-0.294288	-1.029721
H918	H	0.821246	-0.044288	-0.779721
H919	H	1.071246	0.205712	-0.529721
H920	H	1.321246	0.455712	-0.279721
H921	H	0.568689	-0.257795	-1.071175
H922	H	0.818689	-0.007795	-0.821175
H923	H	1.068689	0.242205	-0.571175
H924	H	1.318689	0.492205	-0.321175
