data_functionalizedCrystal
_audit_creation_method	'MofGen! by Chris Wilmer'
_symmetry_space_group_name_H-M	'P1'
_symmetry_Int_Tables_number	1
_symmetry_cell_setting	triclinic
loop_
_symmetry_equiv_pos_as_xyz
  x,y,z
_cell_length_a	14.044220
_cell_length_b	14.044191
_cell_length_c	9.130313
_cell_angle_alpha	90.000368
_cell_angle_beta	90.004952
_cell_angle_gamma	93.190327
loop_
_atom_site_label
_atom_site_type_symbol
_atom_site_fract_x
_atom_site_fract_y
_atom_site_fract_z
O1	O	0.230199	1.277170	0.121735
O2	O	0.730199	1.777170	0.621735
O3	O	0.221886	1.000498	0.121753
O4	O	0.721886	1.500498	0.621753
O5	O	0.087707	1.134681	0.121730
O6	O	0.587707	1.634681	0.621730
O7	O	0.364378	1.142987	0.121758
O8	O	0.864378	1.642987	0.621758
O9	O	0.087703	1.134673	-0.121869
O10	O	0.587703	1.634673	0.378131
O11	O	0.221883	1.000489	-0.121845
O12	O	0.721883	1.500489	0.378155
O13	O	0.230195	1.277162	-0.121864
O14	O	0.730195	1.777162	0.378136
Cu15	Cu	0.226039	1.138825	-0.144097
Cu16	Cu	0.726039	1.638825	0.355903
Cu17	Cu	0.226043	1.138835	0.143987
Cu18	Cu	0.726043	1.638835	0.643987
O19	O	0.364375	1.142978	-0.121840
O20	O	0.864375	1.642978	0.378160
C21	C	0.218248	0.964872	-0.000044
C22	C	0.718248	1.464872	0.499956
C23	C	0.207401	0.858728	-0.000037
C24	C	0.707401	1.358728	0.499963
C25	C	0.264501	0.613270	-0.000046
C26	C	0.764501	1.113270	0.499954
C27	C	0.187585	0.664395	-0.000051
C28	C	0.687585	1.164395	0.499949
C29	C	0.198613	0.772532	-0.000044
C30	C	0.698613	1.272532	0.499956
C31	C	0.253474	0.505123	-0.000054
C32	C	0.753474	1.005123	0.499946
C33	C	0.052083	1.131041	-0.000070
C34	C	0.552083	1.631041	0.499930
C35	C	-0.054060	1.120197	-0.000071
C36	C	0.445940	1.620197	0.499929
C37	C	-0.248398	1.100370	-0.000048
C38	C	0.251602	1.600370	0.499952
C39	C	-0.299526	1.177285	-0.000049
C40	C	0.200474	1.677285	0.499951
C41	C	-0.407663	1.166253	-0.000037
C42	C	0.092337	1.666253	0.499963
C43	C	-0.140252	1.111400	-0.000061
C44	C	0.359748	1.611400	0.499939
C45	C	0.399998	1.146618	-0.000037
C46	C	0.899998	1.646618	0.499963
C47	C	0.506142	1.157463	-0.000027
C48	C	1.006142	1.657463	0.499973
C49	C	0.233834	1.312788	-0.000063
C50	C	0.733834	1.812788	0.499937
C51	C	0.244681	1.418931	-0.000060
C52	C	0.744681	1.918931	0.499940
N53	N	0.226036	1.138825	-0.346720
N54	N	0.726036	1.638825	0.153280
C55	C	0.166647	1.198269	-0.576729
C56	C	0.666647	1.698269	-0.076729
C57	C	0.166648	1.198264	-0.423392
C58	C	0.666648	1.698264	0.076608
C59	C	0.285434	1.079395	-0.423392
C60	C	0.785434	1.579395	0.076608
C61	C	0.285437	1.079406	-0.576726
C62	C	0.785437	1.579406	-0.076726
N63	N	0.226039	1.138842	0.346609
N64	N	0.726039	1.638842	0.846609
H65	H	0.113452	0.626952	0.000044
H66	H	0.613452	1.126952	0.500044
C67	C	0.364645	0.663852	-0.000021
C68	C	0.864645	1.163852	0.499979
N69	N	0.440072	0.701962	0.000004
N70	N	0.940072	1.201962	0.500004
C71	C	-0.248947	1.277437	-0.000076
C72	C	0.251053	1.777437	0.499924
N73	N	-0.210846	1.352869	-0.000105
N74	N	0.289154	1.852869	0.499895
C75	C	-0.298977	1.000225	-0.000061
C76	C	0.201023	1.500225	0.499939
N77	N	-0.337085	0.924797	-0.000083
N78	N	0.162915	1.424797	0.499917
C79	C	0.350774	1.014026	-0.661060
C80	C	0.850774	1.514026	-0.161060
N81	N	0.399984	0.964784	-0.724579
N82	N	0.899984	1.464784	-0.224579
C83	C	0.101312	1.263655	-0.661054
C84	C	0.601312	1.763655	-0.161054
N85	N	0.052102	1.312908	-0.724563
N86	N	0.552102	1.812908	-0.224563
H87	H	0.118288	1.246656	-0.360978
H88	H	0.618288	1.746656	0.139022
H89	H	0.333793	1.031002	-0.360957
H90	H	0.833793	1.531002	0.139043
