data_functionalizedCrystal
_audit_creation_method	'MofGen! by Chris Wilmer'
_symmetry_space_group_name_H-M	'P1'
_symmetry_Int_Tables_number	1
_symmetry_cell_setting	triclinic
loop_
_symmetry_equiv_pos_as_xyz
  x,y,z
_cell_length_a	14.519709
_cell_length_b	11.792254
_cell_length_c	10.268362
_cell_angle_alpha	89.995475
_cell_angle_beta	89.999088
_cell_angle_gamma	96.060629
loop_
_atom_site_label
_atom_site_type_symbol
_atom_site_fract_x
_atom_site_fract_y
_atom_site_fract_z
O1	O	-0.126460	1.506199	-0.108280
O2	O	0.123540	1.756199	0.141720
O3	O	0.373540	2.006199	0.391720
O4	O	0.623540	2.256199	0.641720
O5	O	-0.139475	1.175788	-0.108281
O6	O	0.110525	1.425788	0.141719
O7	O	0.360525	1.675788	0.391719
O8	O	0.610525	1.925788	0.641719
O9	O	0.001238	1.349754	-0.108292
O10	O	0.251238	1.599754	0.141708
O11	O	0.501238	1.849754	0.391708
O12	O	0.751238	2.099754	0.641708
O13	O	-0.267174	1.332233	-0.108268
O14	O	-0.017174	1.582233	0.141732
O15	O	0.232826	1.832233	0.391732
O16	O	0.482826	2.082233	0.641732
O17	O	0.001244	1.349739	0.108308
O18	O	0.251244	1.599739	0.358308
O19	O	0.501244	1.849739	0.608308
O20	O	0.751244	2.099739	0.858308
O21	O	-0.139469	1.175773	0.108320
O22	O	0.110531	1.425773	0.358320
O23	O	0.360531	1.675773	0.608320
O24	O	0.610531	1.925773	0.858320
O25	O	-0.126454	1.506184	0.108321
O26	O	0.123546	1.756184	0.358321
O27	O	0.373546	2.006184	0.608321
O28	O	0.623546	2.256184	0.858321
Cu29	Cu	-0.132961	1.340977	0.128098
Cu30	Cu	0.117039	1.590977	0.378098
Cu31	Cu	0.367039	1.840977	0.628098
Cu32	Cu	0.617039	2.090977	0.878098
Cu33	Cu	-0.132968	1.340995	-0.128058
Cu34	Cu	0.117032	1.590995	0.121942
Cu35	Cu	0.367032	1.840995	0.371942
Cu36	Cu	0.617032	2.090995	0.621942
O37	O	-0.267168	1.332218	0.108332
O38	O	-0.017168	1.582218	0.358332
O39	O	0.232832	1.832218	0.608332
O40	O	0.482832	2.082218	0.858332
C41	C	-0.138652	1.133494	0.000019
C42	C	0.111348	1.383494	0.250019
C43	C	0.361348	1.633494	0.500019
C44	C	0.611348	1.883494	0.750019
C45	C	-0.136199	1.007495	0.000018
C46	C	0.113801	1.257495	0.250018
C47	C	0.363801	1.507495	0.500018
C48	C	0.613801	1.757495	0.750018
C49	C	-0.134205	0.905169	0.000012
C50	C	0.115795	1.155169	0.250012
C51	C	0.365795	1.405169	0.500012
C52	C	0.615795	1.655169	0.750012
C53	C	-0.131711	0.776796	0.000011
C54	C	0.118289	1.026796	0.250011
C55	C	0.368289	1.276796	0.500011
C56	C	0.618289	1.526796	0.750011
C57	C	-0.301534	1.333042	0.000035
C58	C	-0.051534	1.583042	0.250035
C59	C	0.198466	1.833042	0.500035
C60	C	0.448466	2.083042	0.750035
C61	C	-0.403924	1.335489	0.000044
C62	C	-0.153924	1.585489	0.250044
C63	C	0.096076	1.835489	0.500044
C64	C	0.346076	2.085489	0.750044
C65	C	-0.778853	1.344497	-0.000008
C66	C	-0.528853	1.594497	0.249992
C67	C	-0.278853	1.844497	0.499992
C68	C	-0.028853	2.094497	0.749992
C69	C	-0.674536	1.341995	0.000007
C70	C	-0.424536	1.591995	0.250007
C71	C	-0.174536	1.841995	0.500007
C72	C	0.075464	2.091995	0.750007
C73	C	-0.591392	1.339993	0.000019
C74	C	-0.341392	1.589993	0.250019
C75	C	-0.091392	1.839993	0.500019
C76	C	0.158608	2.089993	0.750019
C77	C	-0.487068	1.337491	0.000031
C78	C	-0.237068	1.587491	0.250031
C79	C	0.012932	1.837491	0.500031
C80	C	0.262932	2.087491	0.750031
C81	C	0.035604	1.348930	0.000002
C82	C	0.285604	1.598930	0.250002
C83	C	0.535604	1.848930	0.500002
C84	C	0.785604	2.098930	0.750002
C85	C	0.137994	1.346483	-0.000015
C86	C	0.387994	1.596483	0.249985
C87	C	0.637994	1.846483	0.499985
C88	C	0.887994	2.096483	0.749985
C89	C	-0.127277	1.548478	0.000018
C90	C	0.122723	1.798478	0.250018
C91	C	0.372723	2.048478	0.500018
C92	C	0.622723	2.298478	0.750018
C93	C	-0.129731	1.674477	0.000011
C94	C	0.120269	1.924477	0.250011
C95	C	0.370269	2.174477	0.500011
C96	C	0.620269	2.424477	0.750011
N97	N	-0.132956	1.340973	0.308264
N98	N	0.117044	1.590973	0.558264
N99	N	0.367044	1.840973	0.808264
N100	N	0.617044	2.090973	1.058264
N101	N	-0.132966	1.341008	-0.308224
N102	N	0.117034	1.591008	-0.058224
N103	N	0.367034	1.841008	0.191776
N104	N	0.617034	2.091008	0.441776
C105	C	-0.132966	1.340989	0.573934
C106	C	0.117034	1.590989	0.823934
C107	C	0.367034	1.840989	1.073934
C108	C	0.617034	2.090989	1.323934
C109	C	-0.132963	1.340976	0.426096
C110	C	0.117037	1.590976	0.676096
C111	C	0.367037	1.840976	0.926096
C112	C	0.617037	2.090976	1.176096
