data_functionalizedCrystal
_audit_creation_method	'MofGen! by Chris Wilmer'
_symmetry_space_group_name_H-M	'P1'
_symmetry_Int_Tables_number	1
_symmetry_cell_setting	triclinic
loop_
_symmetry_equiv_pos_as_xyz
  x,y,z
_cell_length_a	18.050591
_cell_length_b	18.050589
_cell_length_c	14.908308
_cell_angle_alpha	86.730870
_cell_angle_beta	93.273372
_cell_angle_gamma	89.968854
loop_
_atom_site_label
_atom_site_type_symbol
_atom_site_fract_x
_atom_site_fract_y
_atom_site_fract_z
Zn1	Zn	1.111039	0.319953	-0.510228
Zn2	Zn	1.611039	0.819953	-0.010228
Zn3	Zn	1.118096	0.436989	-0.359382
Zn4	Zn	1.618096	0.936989	0.140618
Zn5	Zn	0.994019	0.312809	-0.359375
Zn6	Zn	1.494019	0.812809	0.140625
Zn7	Zn	0.986794	0.444096	-0.510177
Zn8	Zn	1.486794	0.944096	-0.010177
O9	O	1.052487	0.378462	-0.434791
O10	O	1.552487	0.878462	0.065209
O11	O	1.215898	0.335494	-0.490243
O12	O	1.715898	0.835494	0.009757
O13	O	1.107614	0.414552	-0.233140
O14	O	1.607614	0.914552	0.266860
O15	O	1.009612	0.209833	-0.379404
O16	O	1.509612	0.709833	0.120596
O17	O	1.221083	0.421480	-0.379417
O18	O	1.721083	0.921480	0.120583
O19	O	1.095586	0.215082	-0.490236
O20	O	1.595586	0.715082	0.009764
O21	O	1.016455	0.323318	-0.233135
O22	O	1.516455	0.823318	0.266865
O23	O	0.889137	0.330209	-0.379354
O24	O	1.389137	0.830209	0.120646
O25	O	0.997299	0.433592	-0.636425
O26	O	1.497299	0.933592	-0.136425
O27	O	0.883829	0.426665	-0.490148
O28	O	1.383829	0.926665	0.009852
O29	O	1.088580	0.342385	-0.636463
O30	O	1.588580	0.842385	-0.136463
O31	O	1.100609	0.541856	-0.379367
O32	O	1.600609	1.041856	0.120633
O33	O	1.004142	0.547077	-0.490156
O34	O	1.504142	1.047077	0.009844
C35	C	0.859537	0.378434	-0.434746
C36	C	1.359537	0.878434	0.065254
C37	C	0.776991	0.378440	-0.434748
C38	C	1.276991	0.878440	0.065252
C39	C	0.531024	0.325943	-0.374640
C40	C	1.031024	0.825943	0.125360
C41	C	0.576550	0.311763	-0.456969
C42	C	1.076550	0.811763	0.043031
C43	C	0.479867	0.378482	-0.434821
C44	C	0.979867	0.878482	0.065179
C45	C	0.581424	0.392607	-0.352461
C46	C	1.081424	0.892607	0.147539
C47	C	0.625854	0.378459	-0.434781
C48	C	1.125854	0.878459	0.065219
C49	C	0.524304	0.364269	-0.517194
C50	C	1.024304	0.864269	-0.017194
C51	C	0.529177	0.445141	-0.412631
C52	C	1.029177	0.945141	0.087369
C53	C	0.574678	0.430990	-0.495016
C54	C	1.074678	0.930990	0.004984
C55	C	0.395768	0.378493	-0.434844
C56	C	0.895768	0.878493	0.065156
C57	C	0.709951	0.378449	-0.434768
C58	C	1.209951	0.878449	0.065232
C59	C	1.052376	0.571413	-0.434776
C60	C	1.552376	1.071413	0.065224
C61	C	1.052395	0.653960	-0.434801
C62	C	1.552395	1.153960	0.065199
C63	C	0.999964	0.856276	-0.495027
C64	C	1.499964	1.356276	0.004973
C65	C	0.985768	0.901809	-0.412706
C66	C	1.485768	1.401809	0.087294
C67	C	1.052451	0.805091	-0.434813
C68	C	1.552451	1.305091	0.065187
C69	C	1.066666	0.906641	-0.517144
C70	C	1.566666	1.406641	-0.017144
C71	C	1.052502	0.951077	-0.434832
C72	C	1.552502	1.451077	0.065168
C73	C	1.038221	0.849534	-0.352448
C74	C	1.538221	1.349534	0.147552
C75	C	1.119148	0.854365	-0.456942
C76	C	1.619148	1.354365	0.043058
C77	C	1.104981	0.899872	-0.374564
C78	C	1.604981	1.399872	0.125436
C79	C	1.052419	0.720993	-0.434803
C80	C	1.552419	1.220993	0.065197
C81	C	1.052535	1.035174	-0.434833
C82	C	1.552535	1.535174	0.065167
C83	C	1.246190	0.378491	-0.434836
C84	C	1.746190	0.878491	0.065164
C85	C	1.328735	0.378503	-0.434856
C86	C	1.828735	0.878503	0.065144
C87	C	1.041346	0.389578	-0.670092
C88	C	1.541346	0.889578	-0.170092
C89	C	1.036599	0.394316	-0.770364
C90	C	1.536599	0.894316	-0.270364
C91	C	1.052589	1.184758	-0.434826
C92	C	1.552589	1.684758	0.065174
C93	C	1.052560	1.102213	-0.434843
C94	C	1.552560	1.602213	0.065157
C95	C	1.122728	0.308226	-0.958825
C96	C	1.622728	0.808226	-0.458825
C97	C	1.118269	0.312674	-1.053039
C98	C	1.618269	0.812674	-0.553039
C99	C	1.023221	0.407657	-1.053007
C100	C	1.523221	0.907657	-0.553007
C101	C	1.027679	0.403208	-0.958793
C102	C	1.527679	0.903208	-0.458793
C103	C	1.077435	0.353492	-0.911706
C104	C	1.577435	0.853492	-0.411706
C105	C	1.081897	0.349048	-0.817490
C106	C	1.581897	0.849048	-0.317490
C107	C	0.986845	0.444026	-0.817460
C108	C	1.486845	0.944026	-0.317460
C109	C	0.982386	0.448474	-0.911674
C110	C	1.482386	0.948474	-0.411674
C111	C	1.063627	0.367335	-0.200405
C112	C	1.563627	0.867335	0.299595
C113	C	1.068518	0.362389	-0.100134
C114	C	1.568518	0.862389	0.399866
H115	H	0.499431	0.352246	-0.586847
H116	H	0.999431	0.852246	-0.086847
O117	O	1.082573	0.939696	-0.609360
O118	O	1.582573	1.439696	-0.109360
H119	H	1.038899	0.922310	-0.659198
H120	H	1.538899	1.422310	-0.159198
O121	O	1.135560	0.295431	-0.766695
O122	O	1.635560	0.795431	-0.266695
H123	H	1.121998	0.237997	-0.784775
H124	H	1.621998	0.737997	-0.284775
O125	O	0.600019	0.489834	-0.562476
O126	O	1.100019	0.989834	-0.062476
H127	H	0.576929	0.477920	-0.630729
H128	H	1.076929	0.977920	-0.130729
O129	O	1.176391	0.254610	-0.908028
O130	O	1.676391	0.754610	-0.408028
H131	H	1.207137	0.223879	-0.956622
H132	H	1.707137	0.723879	-0.456622
H133	H	1.149392	0.918969	-0.323592
H134	H	1.649392	1.418969	0.176408
O135	O	0.505495	0.267072	-0.307333
O136	O	1.005495	0.767072	0.192667
H137	H	0.524428	0.211783	-0.325957
H138	H	1.024428	0.711783	0.174043
H139	H	0.508321	0.501505	-0.393849
H140	H	1.008321	1.001505	0.106151
H141	H	0.606388	0.404563	-0.282828
H142	H	1.106388	0.904563	0.217172
H143	H	0.597378	0.255379	-0.475737
H144	H	1.097378	0.755379	0.024263
H145	H	1.175512	0.833478	-0.475681
H146	H	1.675512	1.333478	0.024319
O147	O	0.941108	0.830775	-0.562380
O148	O	1.441108	1.330775	-0.062380
H149	H	0.885818	0.849736	-0.543797
H150	H	1.385818	1.349736	-0.043797
O151	O	1.167124	0.263857	-1.103866
O152	O	1.667124	0.763857	-0.603866
H153	H	1.202473	0.228546	-1.055291
H154	H	1.702473	0.728546	-0.555291
H155	H	0.941875	0.488950	-0.950025
H156	H	1.441875	0.988950	-0.450025
H157	H	0.982712	0.448133	-1.091362
H158	H	1.482712	0.948133	-0.591362
O159	O	0.937969	0.492848	-0.766657
O160	O	1.437969	0.992848	-0.266657
H161	H	0.973200	0.528617	-0.723727
H162	H	1.473200	1.028617	-0.223727
O163	O	0.911087	0.929456	-0.387907
O164	O	1.411087	1.429456	0.112093
H165	H	0.886722	0.966793	-0.443635
H166	H	1.386722	1.466793	0.056365
O167	O	1.022229	0.816606	-0.260202
O168	O	1.522229	1.316606	0.239798
H169	H	1.022303	0.755152	-0.260928
H170	H	1.522303	1.255152	0.239072
