data_functionalizedCrystal
_audit_creation_method	'MofGen! by Chris Wilmer'
_symmetry_space_group_name_H-M	'P1'
_symmetry_Int_Tables_number	1
_symmetry_cell_setting	triclinic
loop_
_symmetry_equiv_pos_as_xyz
  x,y,z
_cell_length_a	19.805407
_cell_length_b	19.121111
_cell_length_c	19.805399
_cell_angle_alpha	87.586854
_cell_angle_beta	89.982197
_cell_angle_gamma	87.532387
loop_
_atom_site_label
_atom_site_type_symbol
_atom_site_fract_x
_atom_site_fract_y
_atom_site_fract_z
Zn1	Zn	1.023225	0.279680	-0.394183
Zn2	Zn	1.523225	0.779680	0.105817
Zn3	Zn	1.018306	0.397133	-0.285822
Zn4	Zn	1.518306	0.897133	0.214178
Zn5	Zn	0.910039	0.279694	-0.281012
Zn6	Zn	1.410039	0.779694	0.218988
Zn7	Zn	0.905171	0.397090	-0.398971
Zn8	Zn	1.405171	0.897090	0.101029
O9	O	0.964186	0.338399	-0.339997
O10	O	1.464186	0.838399	0.160003
O11	O	1.117289	0.295273	-0.379818
O12	O	1.617289	0.795273	0.120182
O13	O	1.003923	0.381578	-0.190468
O14	O	1.503923	0.881578	0.309532
O15	O	0.929150	0.181408	-0.292007
O16	O	1.429150	0.681408	0.207993
O17	O	1.113675	0.381564	-0.300206
O18	O	1.613675	0.881564	0.199794
O19	O	1.012307	0.181398	-0.375154
O20	O	1.512307	0.681398	0.124846
O21	O	0.924380	0.295296	-0.186934
O22	O	1.424380	0.795296	0.313066
O23	O	0.814678	0.295255	-0.296649
O24	O	1.314678	0.795255	0.203351
O25	O	0.920853	0.381491	-0.493051
O26	O	1.420853	0.881491	0.006949
O27	O	0.811101	0.381505	-0.383313
O28	O	1.311101	0.881505	0.116687
O29	O	1.007587	0.295231	-0.489534
O30	O	1.507587	0.795231	0.010466
O31	O	0.999203	0.495411	-0.304848
O32	O	1.499203	0.995411	0.195152
O33	O	0.916083	0.495380	-0.387978
O34	O	1.416083	0.995380	0.112022
C35	C	0.788331	0.338377	-0.339979
C36	C	1.288331	0.838377	0.160021
C37	C	0.713098	0.338385	-0.339989
C38	C	1.213098	0.838385	0.160011
C39	C	0.679633	0.293532	-0.381512
C40	C	1.179633	0.793532	0.118488
C41	C	0.608945	0.293536	-0.381515
C42	C	1.108945	0.793536	0.118485
C43	C	0.571722	0.338396	-0.339997
C44	C	1.071722	0.838396	0.160003
C45	C	0.605192	0.383251	-0.298469
C46	C	1.105192	0.883251	0.201531
C47	C	0.675880	0.383243	-0.298464
C48	C	1.175880	0.883243	0.201536
C49	C	0.320117	0.383282	-0.298492
C50	C	0.820117	0.883282	0.201508
C51	C	0.249425	0.383288	-0.298502
C52	C	0.749425	0.883288	0.201498
C53	C	0.253183	0.293575	-0.381543
C54	C	0.753183	0.793575	0.118457
C55	C	0.323870	0.293567	-0.381537
C56	C	0.823870	0.793567	0.118463
C57	C	0.357334	0.338419	-0.340007
C58	C	0.857334	0.838419	0.159993
C59	C	0.433983	0.338414	-0.340003
C60	C	0.933983	0.838414	0.159997
C61	C	0.495075	0.338406	-0.340004
C62	C	0.995075	0.838406	0.159996
C63	C	0.956599	0.520880	-0.347469
C64	C	1.456599	1.020880	0.152531
C65	C	0.953416	0.598946	-0.350689
C66	C	1.453416	1.098946	0.149311
C67	C	0.995230	0.635614	-0.308956
C68	C	1.495230	1.135614	0.191044
C69	C	0.992240	0.708966	-0.311988
C70	C	1.492240	1.208966	0.188012
C71	C	0.947432	0.745647	-0.356750
C72	C	1.447432	1.245647	0.143250
C73	C	0.905616	0.708973	-0.398487
C74	C	1.405616	1.208973	0.101513
C75	C	0.908610	0.635623	-0.395458
C76	C	1.408610	1.135623	0.104542
C77	C	0.936229	0.967116	-0.368062
C78	C	1.436229	1.467116	0.131938
C79	C	0.933237	1.040472	-0.371086
C80	C	1.433237	1.540472	0.128914
C81	C	1.019861	1.040459	-0.284588
C82	C	1.519861	1.540459	0.215412
C83	C	1.022849	0.967108	-0.281560
C84	C	1.522849	1.467108	0.218440
C85	C	0.981035	0.930440	-0.323300
C86	C	1.481035	1.430440	0.176700
C87	C	0.944373	0.820624	-0.359848
C88	C	1.444373	1.320624	0.140152
C89	C	0.984098	0.855465	-0.320204
C90	C	1.484098	1.355465	0.179796
C91	C	1.140727	0.338422	-0.340015
C92	C	1.640727	0.838422	0.159985
C93	C	1.215959	0.338431	-0.340022
C94	C	1.715959	0.838431	0.159978
C95	C	0.971814	1.155206	-0.332518
C96	C	1.471814	1.655206	0.167482
C97	C	0.975051	1.077140	-0.329354
C98	C	1.475051	1.577140	0.170646
C99	C	0.964225	0.338355	-0.516538
C100	C	1.464225	0.838355	-0.016538
C101	C	0.964242	0.338336	-0.591769
C102	C	1.464242	0.838336	-0.091769
C103	C	1.009406	0.293418	-0.625283
C104	C	1.509406	0.793418	-0.125283
C105	C	1.009413	0.293398	-0.695970
C106	C	1.509413	0.793398	-0.195970
C107	C	0.964261	0.338299	-0.733143
C108	C	1.464261	0.838299	-0.233143
C109	C	0.919093	0.383219	-0.699625
C110	C	1.419093	0.883219	-0.199625
C111	C	0.919082	0.383236	-0.628938
C112	C	1.419082	0.883236	-0.128938
C113	C	0.919133	0.383154	-0.984695
C114	C	1.419133	0.883154	-0.484695
C115	C	0.919149	0.383136	-1.055387
C116	C	1.419149	0.883136	-0.555387
C117	C	1.009465	0.293316	-1.051727
C118	C	1.509465	0.793316	-0.551727
C119	C	1.009454	0.293332	-0.981041
C120	C	1.509454	0.793332	-0.481041
C121	C	0.964284	0.338249	-0.947529
C122	C	1.464284	0.838249	-0.447529
C123	C	0.964275	0.338270	-0.870881
C124	C	1.464275	0.838270	-0.370881
C125	C	0.964272	0.338283	-0.809790
C126	C	1.464272	0.838283	-0.309790
C127	C	0.964187	0.338393	-0.164140
C128	C	1.464187	0.838393	0.335860
C129	C	0.964309	0.338214	-0.088902
C130	C	1.464309	0.838214	0.411098
H131	H	0.581701	0.257014	-0.415328
H132	H	1.081701	0.757014	0.084672
H133	H	1.026289	0.738818	-0.278004
H134	H	1.526289	1.238818	0.221996
H135	H	0.354173	0.257040	-0.415347
H136	H	0.854173	0.757040	0.084653
N137	N	0.893524	0.929674	-0.410706
N138	N	1.393524	1.429674	0.089294
N139	N	0.897648	0.937830	-0.473502
N140	N	1.397648	1.437830	0.026498
H141	H	0.867486	0.911386	-0.503624
H142	H	1.367486	1.411386	-0.003624
H143	H	0.225928	0.257052	-0.415356
H144	H	0.725928	0.757052	0.084644
H145	H	0.874562	0.605768	-0.429442
H146	H	1.374562	1.105768	0.070558
H147	H	0.219120	0.419821	-0.264691
H148	H	0.719120	0.919821	0.235309
H149	H	1.053904	1.070321	-0.250607
H150	H	1.553904	1.570321	0.249393
H151	H	1.046242	0.256740	-1.079022
H152	H	1.546242	0.756740	-0.579022
H153	H	1.031714	0.605753	-0.272503
H154	H	1.531714	1.105753	0.227497
N155	N	0.354283	0.429101	-0.256069
N156	N	0.854283	0.929101	0.243931
N157	N	0.321038	0.469153	-0.219007
N158	N	0.821038	0.969153	0.280993
H159	H	0.345169	0.501517	-0.189045
H160	H	0.845169	1.001517	0.310955
N161	N	0.872966	0.429088	-0.737587
N162	N	1.372966	0.929088	-0.237587
N163	N	0.874741	0.493900	-0.732339
N164	N	1.374741	0.993900	-0.232339
H165	H	0.842160	0.526296	-0.759146
H166	H	1.342160	1.026296	-0.259146
N167	N	0.873009	0.428996	-1.093350
N168	N	1.373009	0.928996	-0.593350
N169	N	0.810747	0.424319	-1.085256
N170	N	1.310747	0.924319	-0.585256
H171	H	0.778161	0.456704	-1.112068
H172	H	1.278161	0.956704	-0.612068
H173	H	1.059335	0.937243	-0.245111
H174	H	1.559335	1.437243	0.254889
N175	N	0.567163	0.429065	-0.256059
N176	N	1.067163	0.929065	0.243941
N177	N	0.504050	0.429068	-0.256069
N178	N	1.004050	0.929068	0.243931
H179	H	0.477191	0.461426	-0.226117
H180	H	0.977191	0.961426	0.273883
N181	N	0.710055	0.429058	-0.256039
N182	N	1.210055	0.929058	0.243961
N183	N	0.676815	0.469107	-0.218970
N184	N	1.176815	0.969107	0.281030
H185	H	0.700950	0.501463	-0.189003
H186	H	1.200950	1.001463	0.310997
N187	N	0.717642	0.247697	-0.423920
N188	N	1.217642	0.747697	0.076080
N189	N	0.712429	0.182884	-0.416875
N190	N	1.212429	0.682884	0.083125
H191	H	0.739271	0.150508	-0.446825
H192	H	1.239271	0.650508	0.053175
N193	N	1.055586	0.247467	-0.943081
N194	N	1.555586	0.747467	-0.443081
N195	N	1.095908	0.207364	-0.973013
N196	N	1.595908	0.707364	-0.473013
H197	H	1.128489	0.174969	-0.946205
H198	H	1.628489	0.674969	-0.446205
N199	N	0.872960	0.429121	-0.594692
N200	N	1.372960	0.929121	-0.094692
N201	N	0.872956	0.429130	-0.531580
N202	N	1.372956	0.929130	-0.031580
H203	H	0.840379	0.461536	-0.507393
H204	H	1.340379	0.961536	-0.007393
N205	N	0.887476	1.077939	-0.416827
N206	N	1.387476	1.577939	0.083173
N207	N	0.909602	1.118819	-0.461664
N208	N	1.409602	1.618819	0.038336
H209	H	0.877286	1.145280	-0.493967
H210	H	1.377286	1.645280	0.006033
N211	N	0.859855	0.746450	-0.444213
N212	N	1.359855	1.246450	0.055787
N213	N	0.857188	0.811941	-0.446913
N214	N	1.357188	1.311941	0.053087
H215	H	0.824868	0.838409	-0.479207
H216	H	1.324868	1.338409	0.020793
N217	N	1.029857	0.817989	-0.274479
N218	N	1.529857	1.317989	0.225521
N219	N	1.007726	0.777107	-0.229646
N220	N	1.507726	1.277107	0.270354
H221	H	1.040041	0.750633	-0.197349
H222	H	1.540041	1.250633	0.302651
H223	H	0.907889	0.850498	-0.396292
H224	H	1.407889	1.350498	0.103708
N225	N	1.055538	0.247552	-0.587325
N226	N	1.555538	0.747552	-0.087325
N227	N	1.095858	0.207449	-0.617260
N228	N	1.595858	0.707449	-0.117260
H229	H	1.128439	0.175052	-0.590455
H230	H	1.628439	0.675052	-0.090455
N231	N	1.055551	0.247511	-0.730193
N232	N	1.555551	0.747511	-0.230193
N233	N	1.095866	0.207427	-0.696995
N234	N	1.595866	0.707427	-0.196995
H235	H	1.128453	0.175017	-0.721164
H236	H	1.628453	0.675017	-0.221164
N237	N	0.873001	0.429031	-0.950459
N238	N	1.373001	0.929031	-0.450459
N239	N	0.872988	0.429038	-0.887346
N240	N	1.372988	0.929038	-0.387346
H241	H	0.840404	0.461438	-0.863163
H242	H	1.340404	0.961438	-0.363163
