data_functionalizedCrystal
_audit_creation_method	'MofGen! by Chris Wilmer'
_symmetry_space_group_name_H-M	'P1'
_symmetry_Int_Tables_number	1
_symmetry_cell_setting	triclinic
loop_
_symmetry_equiv_pos_as_xyz
  x,y,z
_cell_length_a	19.288859
_cell_length_b	16.053789
_cell_length_c	19.288865
_cell_angle_alpha	87.098675
_cell_angle_beta	96.865014
_cell_angle_gamma	92.897197
loop_
_atom_site_label
_atom_site_type_symbol
_atom_site_fract_x
_atom_site_fract_y
_atom_site_fract_z
O1	O	0.923956	0.069456	-0.089232
O2	O	1.257289	0.402789	0.244102
O3	O	1.590623	0.736123	0.577435
O4	O	0.721695	0.069455	-0.100925
O5	O	1.055028	0.402789	0.232408
O6	O	1.388361	0.736122	0.565742
O7	O	0.828669	0.069439	0.006053
O8	O	1.162003	0.402773	0.339386
O9	O	1.495336	0.736106	0.672719
O10	O	0.816982	0.069472	-0.196209
O11	O	1.150315	0.402806	0.137124
O12	O	1.483648	0.736139	0.470457
O13	O	0.823452	-0.069421	0.011263
O14	O	1.156785	0.263912	0.344596
O15	O	1.490118	0.597246	0.677930
O16	O	0.716477	-0.069405	-0.095715
O17	O	1.049811	0.263928	0.237619
O18	O	1.383144	0.597262	0.570952
O19	O	0.918739	-0.069404	-0.084021
O20	O	1.252072	0.263929	0.249312
O21	O	1.585405	0.597262	0.582645
Zn22	Zn	0.816780	-0.091452	-0.089041
Zn23	Zn	1.150113	0.241882	0.244293
Zn24	Zn	1.483446	0.575215	0.577626
Zn25	Zn	0.823654	0.091503	-0.095906
Zn26	Zn	1.156987	0.424836	0.237428
Zn27	Zn	1.490320	0.758169	0.570761
O28	O	0.811764	-0.069388	-0.190999
O29	O	1.145098	0.263945	0.142334
O30	O	1.478431	0.597279	0.475668
C31	C	0.693210	0.000025	-0.097944
C32	C	1.026543	0.333358	0.235389
C33	C	1.359876	0.666692	0.568722
C34	C	0.616106	0.000024	-0.096817
C35	C	0.949439	0.333357	0.236516
C36	C	1.282772	0.666691	0.569850
C37	C	0.052065	0.000034	-0.151961
C38	C	0.385399	0.333367	0.181373
C39	C	0.718732	0.666701	0.514706
C40	C	0.124512	0.000039	-0.153026
C41	C	0.457845	0.333372	0.180307
C42	C	0.791179	0.666705	0.513641
C43	C	0.169218	0.000027	-0.090256
C44	C	0.502552	0.333360	0.243077
C45	C	0.835885	0.666694	0.576410
C46	C	0.141474	0.000032	-0.026417
C47	C	0.474807	0.333365	0.306916
C48	C	0.808140	0.666699	0.640249
C49	C	0.069028	0.000036	-0.025354
C50	C	0.402362	0.333369	0.307979
C51	C	0.735695	0.666702	0.641313
C52	C	0.288660	-0.048633	-0.041618
C53	C	0.621994	0.284701	0.291716
C54	C	0.955327	0.618034	0.625049
C55	C	0.361104	-0.048642	-0.042683
C56	C	0.694437	0.284692	0.290650
C57	C	1.027770	0.618025	0.623983
C58	C	0.392664	0.000019	-0.093534
C59	C	0.725997	0.333352	0.239800
C60	C	1.059331	0.666686	0.573133
C61	C	0.351770	0.048678	-0.143329
C62	C	0.685103	0.382011	0.190004
C63	C	1.018437	0.715344	0.523337
C64	C	0.279325	0.048681	-0.142266
C65	C	0.612658	0.382015	0.191067
C66	C	0.945991	0.715348	0.524401
C67	C	0.247774	0.000023	-0.091402
C68	C	0.581107	0.333357	0.241931
C69	C	0.914441	0.666690	0.575264
C70	C	0.498956	0.000025	-0.158524
C71	C	0.832289	0.333358	0.174809
C72	C	1.165622	0.666691	0.508142
C73	C	0.571404	0.000034	-0.159587
C74	C	0.904738	0.333368	0.173746
C75	C	1.238071	0.666701	0.507079
C76	C	0.588364	0.000019	-0.032976
C77	C	0.921698	0.333353	0.300357
C78	C	1.255031	0.666686	0.633690
C79	C	0.515917	0.000018	-0.031915
C80	C	0.849251	0.333351	0.301418
C81	C	1.182584	0.666685	0.634751
C82	C	0.471217	0.000017	-0.094691
C83	C	0.804550	0.333350	0.238642
C84	C	1.137884	0.666683	0.571975
N85	N	0.812093	-0.216313	-0.084355
N86	N	1.145427	0.117020	0.248978
N87	N	1.478760	0.450353	0.582312
C88	C	0.852447	-0.259996	-0.124737
C89	C	1.185780	0.073337	0.208596
C90	C	1.519114	0.406670	0.541929
C91	C	0.849178	-0.347404	-0.121455
C92	C	1.182512	-0.014071	0.211878
C93	C	1.515845	0.319263	0.545212
C94	C	0.805551	-0.391127	-0.077794
C95	C	1.138885	-0.057794	0.255539
C96	C	1.472218	0.275540	0.588873
C97	C	0.765196	-0.347437	-0.037407
C98	C	1.098530	-0.014104	0.295926
C99	C	1.431863	0.319229	0.629259
C100	C	0.768469	-0.260031	-0.040686
C101	C	1.101803	0.073302	0.292647
C102	C	1.435136	0.406635	0.625980
C103	C	0.791264	-0.652540	-0.063478
C104	C	1.124597	-0.319207	0.269855
C105	C	1.457930	0.014126	0.603189
C106	C	0.787992	-0.739952	-0.060204
C107	C	1.121325	-0.406619	0.273130
C108	C	1.454659	-0.073286	0.606463
C109	C	0.871975	-0.739913	-0.144251
C110	C	1.205309	-0.406580	0.189083
C111	C	1.538642	-0.073246	0.522416
C112	C	0.875241	-0.652505	-0.147529
C113	C	1.208575	-0.319172	0.185804
C114	C	1.541908	0.014161	0.519138
C115	C	0.834889	-0.608824	-0.107140
C116	C	1.168222	-0.275490	0.226194
C117	C	1.501555	0.057843	0.559527
N118	N	0.802208	-0.480471	-0.074440
N119	N	1.135541	-0.147138	0.258894
N120	N	1.468874	0.186195	0.592227
N121	N	0.838237	-0.519481	-0.110491
N122	N	1.171570	-0.186147	0.222843
N123	N	1.504904	0.147186	0.556176
C124	C	0.947224	0.000028	-0.087002
C125	C	1.280557	0.333361	0.246331
C126	C	1.613891	0.666695	0.579664
C127	C	1.024328	0.000035	-0.088130
C128	C	1.357661	0.333368	0.245204
C129	C	1.690995	0.666701	0.578537
C130	C	0.825684	0.000007	0.034534
C131	C	1.159018	0.333340	0.367868
C132	C	1.492351	0.666673	0.701201
C133	C	0.824555	-0.000001	0.111638
C134	C	1.157888	0.333333	0.444972
C135	C	1.491222	0.666666	0.778305
N136	N	0.828346	0.216364	-0.100586
N137	N	1.161679	0.549698	0.232748
N138	N	1.495012	0.883031	0.566081
C139	C	0.814749	0.000046	-0.219481
C140	C	1.148083	0.333380	0.113852
C141	C	1.481416	0.666713	0.447186
C142	C	0.815879	0.000059	-0.296585
C143	C	1.149212	0.333393	0.036748
C144	C	1.482545	0.666726	0.370082
C145	C	0.887323	-0.000005	0.156336
C146	C	1.220656	0.333329	0.489669
C147	C	1.553990	0.666662	0.823003
C148	C	0.886263	0.000009	0.228783
C149	C	1.219596	0.333342	0.562116
C150	C	1.552929	0.666675	0.895449
C151	C	0.822430	0.000009	0.256529
C152	C	1.155764	0.333342	0.589862
C153	C	1.489097	0.666676	0.923195
C154	C	0.759654	0.000017	0.211821
C155	C	1.092988	0.333351	0.545154
C156	C	1.426321	0.666684	0.878488
C157	C	0.760717	0.000013	0.139376
C158	C	1.094050	0.333346	0.472709
C159	C	1.427383	0.666679	0.806042
C160	C	0.770423	-0.048631	0.366640
C161	C	1.103757	0.284702	0.699973
C162	C	1.437090	0.618036	1.033307
C163	C	0.769363	-0.048631	0.439085
C164	C	1.102697	0.284702	0.772418
C165	C	1.436030	0.618035	1.105751
C166	C	0.819151	0.000028	0.479974
C167	C	1.152485	0.333361	0.813307
C168	C	1.485818	0.666694	1.146640
C169	C	0.870011	0.048676	0.448411
C170	C	1.203344	0.382009	0.781744
C171	C	1.536678	0.715343	1.115078
C172	C	0.871073	0.048671	0.375966
C173	C	1.204407	0.382004	0.709299
C174	C	1.537740	0.715338	1.042633
C175	C	0.821271	0.000015	0.335083
C176	C	1.154605	0.333348	0.668416
C177	C	1.487938	0.666681	1.001749
C178	C	0.880774	0.000039	0.603227
C179	C	1.214108	0.333372	0.936560
C180	C	1.547441	0.666706	1.269893
C181	C	0.879712	0.000058	0.675674
C182	C	1.213045	0.333391	1.009007
C183	C	1.546378	0.666724	1.342341
C184	C	0.753101	0.000058	0.658711
C185	C	1.086434	0.333391	0.992044
C186	C	1.419768	0.666725	1.325378
C187	C	0.754166	0.000048	0.586265
C188	C	1.087499	0.333381	0.919598
C189	C	1.420833	0.666715	1.252932
C190	C	0.818004	0.000035	0.558528
C191	C	1.151338	0.333368	0.891861
C192	C	1.484671	0.666701	1.225194
H193	H	0.015674	0.000037	-0.203078
H194	H	0.349008	0.333371	0.130255
H195	H	0.682341	0.666704	0.463589
F196	F	0.748295	-0.606062	-0.020513
F197	F	1.081628	-0.272729	0.312820
F198	F	1.414962	0.060605	0.646154
F199	F	0.718767	-0.393973	0.009062
F200	F	1.052100	-0.060639	0.342395
F201	F	1.385434	0.272694	0.675729
F202	F	0.953072	0.000006	0.276362
F203	F	1.286405	0.333339	0.609695
F204	F	1.619738	0.666672	0.943029
F205	F	0.898879	-0.213471	-0.171209
F206	F	1.232213	0.119862	0.162124
F207	F	1.565546	0.453195	0.495457
F208	F	0.715237	-0.100410	0.472669
F209	F	1.048571	0.232923	0.806003
F210	F	1.381904	0.566257	1.139336
F211	F	0.404618	-0.100435	0.010309
F212	F	0.737952	0.232899	0.343642
F213	F	1.071285	0.566232	0.676975
F214	F	0.955266	-0.000001	0.126820
F215	F	1.288600	0.333332	0.460153
F216	F	1.621933	0.666666	0.793486
F217	F	0.892128	-0.393891	-0.164436
F218	F	1.225461	-0.060558	0.168897
F219	F	1.558794	0.272775	0.502230
F220	F	0.921651	-0.605979	-0.194022
F221	F	1.254985	-0.272645	0.139311
F222	F	1.588318	0.060688	0.472644
H223	H	0.735609	-0.224466	-0.007803
H224	H	1.068942	0.108868	0.325530
H225	H	1.402275	0.442201	0.658864
H226	H	0.701128	0.000062	0.681301
H227	H	1.034461	0.333396	1.014634
H228	H	1.367794	0.666729	1.347968
H229	H	0.262971	-0.088260	-0.000205
H230	H	0.596304	0.245074	0.333128
H231	H	0.929638	0.578407	0.666461
H232	H	0.493334	0.000013	0.020063
H233	H	0.826667	0.333347	0.353396
H234	H	1.160000	0.666680	0.686730
F235	F	0.925197	0.100449	0.342377
F236	F	1.258530	0.433782	0.675710
F237	F	1.591864	0.767115	1.009043
H238	H	0.910553	0.088299	0.481702
H239	H	1.243886	0.421633	0.815035
H240	H	1.577220	0.754966	1.148368
H241	H	0.904828	-0.775488	-0.177133
H242	H	1.238162	-0.442155	0.156200
H243	H	1.571495	-0.108821	0.489534
F244	F	0.741557	-0.786484	-0.013731
F245	F	1.074890	-0.453150	0.319602
F246	F	1.408224	-0.119817	0.652936
H247	H	0.703053	0.000047	0.549871
H248	H	1.036386	0.333380	0.883204
H249	H	1.369720	0.666713	1.216538
F250	F	0.451380	0.000026	-0.225335
F251	F	0.784713	0.333359	0.107999
F252	F	1.118047	0.666692	0.441332
F253	F	0.948715	0.000021	0.573704
F254	F	1.282049	0.333354	0.907038
F255	F	1.615382	0.666688	1.240371
H256	H	0.729878	-0.088259	0.333354
H257	H	1.063211	0.245074	0.666687
H258	H	1.396544	0.578407	1.000020
H259	H	0.930827	0.000059	0.712067
H260	H	1.264160	0.333392	1.045400
H261	H	1.597494	0.666726	1.378734
F262	F	0.691720	0.000023	0.241351
F263	F	1.025053	0.333357	0.574684
F264	F	1.358386	0.666690	0.908018
F265	F	0.693907	0.000017	0.091803
F266	F	1.027241	0.333350	0.425136
F267	F	1.360574	0.666684	0.758469
F268	F	0.189054	0.000022	0.040387
F269	F	0.522387	0.333356	0.373720
F270	F	0.855721	0.666689	0.707053
H271	H	0.147100	0.000031	-0.205006
H272	H	0.480433	0.333364	0.128327
H273	H	0.813767	0.666697	0.461660
H274	H	0.377464	0.088300	-0.184738
H275	H	0.710797	0.421633	0.148595
H276	H	1.044131	0.754966	0.481929
F277	F	0.235806	0.100470	-0.195258
F278	F	0.569139	0.433803	0.138075
F279	F	0.902473	0.767136	0.471409
H280	H	0.593986	0.000041	-0.211568
H281	H	0.927319	0.333374	0.121765
H282	H	1.260652	0.666708	0.455098
H283	H	0.624764	0.000016	0.018132
H284	H	0.958097	0.333349	0.351465
H285	H	1.291430	0.666683	0.684799
H286	H	0.046446	0.000036	0.026626
H287	H	0.379780	0.333370	0.359960
H288	H	0.713113	0.666703	0.693293
