data_functionalizedCrystal
_audit_creation_method	'MofGen! by Chris Wilmer'
_symmetry_space_group_name_H-M	'P1'
_symmetry_Int_Tables_number	1
_symmetry_cell_setting	triclinic
loop_
_symmetry_equiv_pos_as_xyz
  x,y,z
_cell_length_a	18.215407
_cell_length_b	18.101397
_cell_length_c	18.215399
_cell_angle_alpha	90.030634
_cell_angle_beta	90.019833
_cell_angle_gamma	90.020914
loop_
_atom_site_label
_atom_site_type_symbol
_atom_site_fract_x
_atom_site_fract_y
_atom_site_fract_z
Zn1	Zn	1.125095	-0.294828	0.416102
Zn2	Zn	1.125012	-0.418675	0.293030
Zn3	Zn	1.002027	-0.294853	0.293050
Zn4	Zn	1.002002	-0.418633	0.416055
O5	O	1.063534	-0.356747	0.354559
O6	O	1.228068	-0.311264	0.399788
O7	O	1.108674	-0.402277	0.190048
O8	O	1.018397	-0.191216	0.309401
O9	O	1.228008	-0.402253	0.309367
O10	O	1.108814	-0.191199	0.399807
O11	O	1.018317	-0.311305	0.190063
O12	O	0.899040	-0.311265	0.309355
O13	O	1.018355	-0.402183	0.519046
O14	O	0.899021	-0.402207	0.399726
O15	O	1.108790	-0.311224	0.519080
O16	O	1.108650	-0.522302	0.309322
O17	O	1.018275	-0.522272	0.399708
C18	C	0.872328	-0.356735	0.354538
C19	C	0.790529	-0.356747	0.354546
C20	C	0.602345	-0.404175	0.401544
C21	C	0.525486	-0.404177	0.401553
C22	C	0.525475	-0.309333	0.307591
C23	C	0.602333	-0.309328	0.307586
C24	C	0.640765	-0.356753	0.354561
C25	C	0.487049	-0.356761	0.354575
C26	C	0.403716	-0.356763	0.354585
C27	C	0.724104	-0.356750	0.354553
C28	C	1.063471	-0.549158	0.354524
C29	C	1.063512	-0.631472	0.354533
C30	C	1.063606	-0.930563	0.354600
C31	C	1.120308	-0.899226	0.297579
C32	C	1.120505	-0.813607	0.297727
C33	C	1.063559	-0.782180	0.354566
C34	C	1.084583	-0.813187	0.432138
C35	C	1.085022	-0.898832	0.431828
C36	C	0.985727	-0.899072	0.334720
C37	C	0.986112	-0.813423	0.332988
C38	C	1.063531	-0.698321	0.354552
C39	C	1.063635	-1.014422	0.354620
C40	C	1.255487	-0.356761	0.354581
C41	C	1.337286	-0.356766	0.354590
C42	C	1.063579	-0.356696	0.546512
C43	C	1.063598	-0.356674	0.628311
C44	C	1.063617	-0.163585	0.354611
C45	C	1.063653	-0.081271	0.354633
C46	C	1.063532	-0.356745	0.163353
C47	C	1.063655	-0.356558	0.081554
C48	C	1.110705	-0.309268	0.816524
C49	C	1.110713	-0.309246	0.893383
C50	C	1.016544	-0.403967	0.893336
C51	C	1.016532	-0.403984	0.816478
C52	C	1.063616	-0.356636	0.778075
C53	C	1.063637	-0.356597	0.931791
C54	C	1.063646	-0.356574	1.015125
C55	C	1.063606	-0.356657	0.694736
H56	H	0.633635	-0.442789	0.439796
H57	H	0.494207	-0.442792	0.439812
C58	C	0.644146	-0.257959	0.256528
C59	C	0.688254	-0.299828	0.209297
C60	C	0.726791	-0.252533	0.162264
H61	H	0.610335	-0.229701	0.228478
H62	H	0.674191	-0.225737	0.284718
H63	H	0.658212	-0.332037	0.181110
H64	H	0.722079	-0.328084	0.237327
H65	H	0.756836	-0.220312	0.190454
H66	H	0.692974	-0.224278	0.134219
H67	H	0.756727	-0.280934	0.130217
C68	C	0.965433	-0.455335	0.774595
C69	C	0.975486	-0.445199	0.699067
C70	C	0.928420	-0.492479	0.660461
H71	H	0.976137	-0.505122	0.787085
H72	H	0.915976	-0.444485	0.787141
H73	H	1.024932	-0.456055	0.686526
H74	H	0.964776	-0.395422	0.686554
H75	H	0.878963	-0.481629	0.673007
H76	H	0.939129	-0.542263	0.672958
H77	H	0.935230	-0.485604	0.609212
H78	H	1.107351	-0.792646	0.240208
C79	C	1.197483	-0.786312	0.315170
C80	C	1.246388	-0.812432	0.261864
C81	C	1.317310	-0.787312	0.277919
H82	H	1.197982	-0.733838	0.315308
H83	H	1.211924	-0.804042	0.362082
H84	H	1.231950	-0.794698	0.214965
H85	H	1.245911	-0.864903	0.261718
H86	H	1.331752	-0.805043	0.324831
H87	H	1.317802	-0.734839	0.278057
H88	H	1.350502	-0.805036	0.241757
H89	H	0.943479	-0.919338	0.376251
H90	H	0.978211	-0.442518	0.924614
C91	C	1.102889	-0.926857	0.220711
C92	C	1.040895	-0.972538	0.223173
C93	C	1.024828	-0.998012	0.152375
H94	H	1.093430	-0.885967	0.189449
H95	H	1.143503	-0.954055	0.202283
H96	H	1.000291	-0.945341	0.241591
H97	H	1.050338	-1.013439	0.254421
H98	H	1.065441	-1.025210	0.133947
H99	H	1.015372	-0.957118	0.121118
H100	H	0.982768	-1.029015	0.154036
H101	H	1.177681	-0.920693	0.310582
H102	H	1.141948	-0.918751	0.448668
H103	H	1.045531	-0.919559	0.475777
C104	C	1.031150	-0.785933	0.490216
C105	C	0.978239	-0.740686	0.457278
C106	C	0.929010	-0.715557	0.510756
H107	H	1.007711	-0.826991	0.512680
H108	H	1.057087	-0.758507	0.526368
H109	H	0.952305	-0.768112	0.421139
H110	H	1.001657	-0.699617	0.434818
H111	H	0.954947	-0.688131	0.546908
H112	H	0.905577	-0.756620	0.533216
H113	H	0.893109	-0.684850	0.488416
H114	H	1.140872	-0.791679	0.449263
C115	C	0.483614	-0.257928	0.256617
C116	C	0.408081	-0.268095	0.266662
C117	C	0.369498	-0.220759	0.219710
H118	H	0.496140	-0.208153	0.267431
H119	H	0.496143	-0.268708	0.207133
H120	H	0.395557	-0.257310	0.316135
H121	H	0.395533	-0.317860	0.255843
H122	H	0.382027	-0.231539	0.170227
H123	H	0.382031	-0.170987	0.230528
H124	H	0.318245	-0.227655	0.226515
C125	C	0.965044	-0.786582	0.256789
C126	C	0.954617	-0.847450	0.210479
C127	C	0.935244	-0.822761	0.140267
H128	H	0.920872	-0.758848	0.259566
H129	H	1.003160	-0.756287	0.237792
H130	H	0.916504	-0.877733	0.229472
H131	H	0.998780	-0.875190	0.207681
H132	H	0.973360	-0.792465	0.121269
H133	H	0.891073	-0.795027	0.143051
H134	H	0.928174	-0.864055	0.108835
H135	H	0.941591	-0.792038	0.371478
H136	H	0.966600	-0.920733	0.279135
H137	H	1.149042	-0.270712	0.785258
H138	H	1.149056	-0.270673	0.924686
