data_functionalizedCrystal
_audit_creation_method	'MofGen! by Chris Wilmer'
_symmetry_space_group_name_H-M	'P1'
_symmetry_Int_Tables_number	1
_symmetry_cell_setting	triclinic
loop_
_symmetry_equiv_pos_as_xyz
  x,y,z
_cell_length_a	18.426585
_cell_length_b	12.970454
_cell_length_c	12.970454
_cell_angle_alpha	59.999702
_cell_angle_beta	89.999510
_cell_angle_gamma	60.001630
loop_
_atom_site_label
_atom_site_type_symbol
_atom_site_fract_x
_atom_site_fract_y
_atom_site_fract_z
Zr1	Zr	0.699118	1.128554	-0.135322
O2	O	0.583243	1.343637	-0.299941
O3	O	0.734639	0.913467	-0.084857
O4	O	0.734640	1.128557	-0.299947
O5	O	0.583241	1.128546	0.084816
O6	O	0.854066	1.128564	-0.299952
O7	O	0.583241	1.128547	-0.084851
O8	O	0.854063	0.743807	0.084805
O9	O	0.583244	1.513303	-0.299941
O10	O	0.838915	1.001943	-0.063338
O11	O	0.749789	1.001936	0.063287
O12	O	0.749791	1.255177	-0.189954
O13	O	0.660664	1.255171	-0.063330
Zr14	Zr	0.889588	1.128564	0.135272
Zr15	Zr	0.889588	1.128566	-0.135328
Zr16	Zr	0.699117	1.128553	0.135278
Zr17	Zr	0.699119	1.399152	-0.135321
Zr18	Zr	0.889586	0.857967	0.135271
O19	O	0.854067	1.343651	0.084807
O20	O	0.854067	1.343654	-0.299951
O21	O	0.583242	1.343635	0.084817
O22	O	1.005463	0.913481	0.299891
O23	O	1.005463	0.913483	-0.084867
O24	O	0.734638	0.913465	0.299901
O25	O	1.005464	1.128572	-0.084866
O26	O	0.854065	1.128561	0.299897
O27	O	0.734639	1.128554	0.299902
O28	O	1.005464	1.128572	0.084801
O29	O	0.734642	1.513312	-0.299946
O30	O	0.854063	0.743806	0.299896
O31	O	1.005462	0.743815	0.299891
O32	O	1.005462	0.743817	0.084800
O33	O	0.583244	1.513302	-0.084850
O34	O	0.734642	1.513311	-0.084855
O35	O	0.838915	1.001941	0.189904
O36	O	0.928041	1.001947	0.063280
O37	O	0.838917	1.255182	-0.063337
O38	O	0.749790	1.255176	0.063287
C39	C	0.556103	1.128545	-0.000016
C40	C	0.475243	1.128540	-0.000014
C41	C	0.794352	1.128558	0.338454
C42	C	0.794352	1.128557	0.453331
C43	C	0.794355	1.467036	-0.000024
C44	C	0.794355	1.581911	-0.000024
C45	C	0.179129	1.128584	-0.000036
C46	C	0.261515	1.128578	-0.000033
C47	C	0.327183	1.128562	-0.000026
C48	C	0.409575	1.128556	-0.000021
C49	C	1.032602	1.128574	-0.000034
C50	C	1.113462	1.128578	-0.000037
C51	C	0.794351	0.790083	-0.000026
C52	C	0.794350	0.675207	-0.000027
C53	C	0.794353	1.128561	-0.338504
C54	C	0.794353	1.128562	-0.453381
C55	C	1.032600	0.790097	-0.000035
C56	C	1.113459	0.675226	-0.000038
C57	C	0.794350	0.790081	0.338453
C58	C	0.794349	0.675205	0.453330
C59	C	1.032600	0.790095	0.338445
C60	C	1.113459	0.675224	0.453318
C61	C	0.556106	1.467023	-0.338495
C62	C	0.475247	1.581895	-0.453368
C63	C	0.556105	1.467021	-0.000015
C64	C	0.475246	1.581892	-0.000012
C65	C	0.794355	1.467038	-0.338503
C66	C	0.794356	1.581914	-0.453380
C67	C	1.104909	0.621279	-0.066144
C68	C	1.180877	0.513361	-0.066172
C69	C	1.265395	0.459384	-0.000087
C70	C	1.273944	0.513342	0.066021
C71	C	1.197977	0.621266	0.066042
C72	C	1.197962	0.621282	0.441167
C73	C	1.273945	0.513363	0.549093
C74	C	1.265422	0.459381	0.669168
C75	C	1.180910	0.513333	0.681316
C76	C	1.104929	0.621257	0.573392
C77	C	0.390744	1.635850	-0.441217
C78	C	0.314761	1.743802	-0.549143
C79	C	0.323283	1.797790	-0.669218
C80	C	0.407795	1.743831	-0.681366
C81	C	0.483776	1.635888	-0.573442
C82	C	0.483797	1.635851	0.066083
C83	C	0.407828	1.743799	0.066081
C84	C	0.323310	1.797780	-0.000008
C85	C	0.314761	1.743817	-0.066111
C86	C	0.390729	1.635878	-0.066116
H87	H	1.036097	0.665226	-0.119974
H88	H	1.036126	0.665163	0.583303
C89	C	0.381317	1.576514	-0.138807
H90	H	0.438660	1.504501	-0.129358
H91	H	0.349742	1.534421	-0.106157
H92	H	0.349749	1.654007	-0.225768
H93	H	1.173984	0.469364	0.779095
H94	H	0.552609	1.591908	0.119909
H95	H	0.245955	1.787717	-0.539227
C96	C	0.239754	1.916505	0.000011
H97	H	0.256959	1.940893	0.048854
H98	H	0.205380	2.000728	-0.084191
H99	H	0.205383	1.881122	0.035415
H100	H	1.342751	0.469446	0.539179
H101	H	0.414807	1.787717	0.119915
H102	H	1.173899	0.469441	-0.120005
C103	C	0.221789	1.803195	-0.138793
H104	H	0.177777	1.875193	-0.129303
H105	H	0.215108	1.845310	-0.225754
H106	H	0.215119	1.725705	-0.106135
H107	H	1.327298	0.371501	0.757036
C108	C	1.366914	0.453939	0.138734
H109	H	1.361136	0.501519	0.178113
H110	H	1.398468	0.352036	0.201262
H111	H	1.398492	0.471631	0.081683
C112	C	0.576725	1.576531	-0.586823
H113	H	0.570910	1.624140	-0.673795
H114	H	0.608316	1.594203	-0.547470
H115	H	0.608287	1.474627	-0.547482
C116	C	1.348951	0.340658	-0.000106
H117	H	1.331746	0.316255	-0.048933
H118	H	1.383330	0.376020	-0.035493
H119	H	1.383318	0.256430	0.084106
C120	C	1.207393	0.680579	0.138780
H121	H	1.268611	0.632957	0.178142
H122	H	1.179694	0.782482	0.081755
H123	H	1.179699	0.662857	0.201343
C124	C	1.207349	0.680653	0.309096
H125	H	1.150000	0.752650	0.246548
H126	H	1.238913	0.722769	0.299630
H127	H	1.238921	0.603161	0.299628
C128	C	0.381351	1.576497	-0.309149
H129	H	0.320137	1.624119	-0.317388
H130	H	0.409046	1.474596	-0.264285
H131	H	0.409060	1.594200	-0.264307
H132	H	0.261407	1.885684	-0.757087
H133	H	0.414724	1.787802	-0.779144
