data_functionalizedCrystal
_audit_creation_method	'MofGen! by Chris Wilmer'
_symmetry_space_group_name_H-M	'P1'
_symmetry_Int_Tables_number	1
_symmetry_cell_setting	triclinic
loop_
_symmetry_equiv_pos_as_xyz
  x,y,z
_cell_length_a	8.559649
_cell_length_b	9.565339
_cell_length_c	8.559649
_cell_angle_alpha	90.002754
_cell_angle_beta	110.221336
_cell_angle_gamma	89.995900
loop_
_atom_site_label
_atom_site_type_symbol
_atom_site_fract_x
_atom_site_fract_y
_atom_site_fract_z
O1	O	-2.126863	-0.116261	-0.055042
O2	O	-1.651378	-0.116261	0.028739
O3	O	-1.931011	-0.116260	-0.250894
O4	O	-1.847230	-0.116263	0.224591
O5	O	-1.931027	0.116260	-0.250885
O6	O	-1.651394	0.116259	0.028748
O7	O	-2.126879	0.116259	-0.055033
Zn8	Zn	-1.889139	0.153177	-0.013141
Zn9	Zn	-1.889118	-0.153179	-0.013153
O10	O	-1.847246	0.116258	0.224600
C11	C	-1.591077	-0.000001	0.035093
C12	C	-1.411378	-0.000002	0.053992
N13	N	-1.889165	0.362256	-0.013136
C14	C	-2.018524	0.453422	-0.142452
C15	C	-1.875798	0.546593	-0.155972
C16	C	-2.031854	0.546641	0.000289
C17	C	-1.746374	0.453374	-0.026719
C18	C	-1.902519	0.453415	0.129594
C19	C	-1.759678	0.546543	0.116150
C20	C	-1.187180	-0.000001	-0.061387
C21	C	-1.366879	-0.000002	-0.080286
C22	C	-1.937369	-0.000002	-0.311198
C23	C	-1.956268	-0.000010	-0.490898
N24	N	-1.889131	0.637742	-0.013160
C25	C	-1.840889	-0.000003	0.284904
C26	C	-1.821990	-0.000004	0.464604
H27	H	-1.466258	-0.000009	-0.209705
H28	H	-1.692570	-0.000000	-0.436018
F29	F	-2.125442	0.000007	-0.620799
F30	F	-2.161395	0.399975	-0.285440
F31	F	-1.281477	-0.000014	0.223166
F32	F	-1.860985	0.600081	-0.313749
F33	F	-1.588617	0.400058	-0.041761
H34	H	-1.913893	0.412455	0.250262
F35	F	-1.616537	0.599651	0.259104
H36	H	-2.152537	0.587609	0.011657
