data_functionalizedCrystal
_audit_creation_method	'MofGen! by Chris Wilmer'
_symmetry_space_group_name_H-M	'P1'
_symmetry_Int_Tables_number	1
_symmetry_cell_setting	triclinic
loop_
_symmetry_equiv_pos_as_xyz
  x,y,z
_cell_length_a	18.101398
_cell_length_b	18.050589
_cell_length_c	18.101389
_cell_angle_alpha	90.014016
_cell_angle_beta	90.024327
_cell_angle_gamma	90.023488
loop_
_atom_site_label
_atom_site_type_symbol
_atom_site_fract_x
_atom_site_fract_y
_atom_site_fract_z
Zn1	Zn	1.132136	-0.295831	0.418861
Zn2	Zn	1.132038	-0.420005	0.295029
Zn3	Zn	1.008295	-0.295823	0.295023
Zn4	Zn	1.008252	-0.419974	0.418818
O5	O	1.070180	-0.357908	0.356933
O6	O	1.235756	-0.312320	0.402456
O7	O	1.115600	-0.403542	0.191396
O8	O	1.024782	-0.191900	0.311465
O9	O	1.235684	-0.403550	0.311477
O10	O	1.115767	-0.191905	0.402449
O11	O	1.024687	-0.312306	0.191391
O12	O	0.904656	-0.312276	0.311423
O13	O	1.024708	-0.403496	0.522457
O14	O	0.904625	-0.403488	0.402375
O15	O	1.115725	-0.312289	0.522489
O16	O	1.115558	-0.523926	0.311435
O17	O	1.024613	-0.523902	0.402382
C18	C	0.877770	-0.357878	0.356894
C19	C	0.795455	-0.357883	0.356895
C20	C	1.070091	-0.550860	0.356921
C21	C	1.070120	-0.633406	0.356940
C22	C	0.496364	-0.357930	0.356957
C23	C	0.527685	-0.300254	0.300012
C24	C	0.613303	-0.300409	0.299769
C25	C	0.644747	-0.357906	0.356927
C26	C	0.613633	-0.436133	0.335608
C27	C	0.527988	-0.435813	0.335212
C28	C	0.527978	-0.338057	0.435355
C29	C	0.613629	-0.336315	0.434927
C30	C	0.728606	-0.357897	0.356910
C31	C	0.412505	-0.357943	0.356972
C32	C	1.020713	-0.832871	0.406380
C33	C	1.002661	-0.882299	0.338801
C34	C	1.070193	-0.784537	0.356950
C35	C	1.088281	-0.882191	0.424536
C36	C	1.070262	-0.930522	0.356965
C37	C	1.052106	-0.832877	0.289335
C38	C	1.137757	-0.832765	0.375116
C39	C	1.119731	-0.882170	0.307491
C40	C	1.070151	-0.700438	0.356942
C41	C	1.070304	-1.014618	0.356965
C42	C	1.263342	-0.357939	0.356972
C43	C	1.345656	-0.357952	0.356989
C44	C	1.070223	-0.357890	0.550095
C45	C	1.070241	-0.357882	0.632409
C46	C	1.070290	-0.164203	0.356961
C47	C	1.070337	-0.081657	0.356974
C48	C	1.070180	-0.357873	0.164522
C49	C	1.070305	-0.357672	0.082209
C50	C	1.070284	-0.357742	0.931500
C51	C	1.012822	-0.414945	0.900155
C52	C	1.012977	-0.415210	0.814536
C53	C	1.070262	-0.357811	0.783117
C54	C	1.148289	-0.379062	0.814225
C55	C	1.147969	-0.379437	0.899870
C56	C	1.050399	-0.279163	0.899918
C57	C	1.048663	-0.279616	0.814267
C58	C	1.070255	-0.357849	0.699258
C59	C	1.070297	-0.357706	1.015360
H60	H	0.634341	-0.242399	0.313131
C61	C	1.176298	-0.911236	0.250964
N62	N	1.218900	-0.933131	0.208385
H63	H	0.954788	-0.401782	0.920740
H64	H	1.194849	-0.810992	0.390500
C65	C	0.925511	-0.911693	0.318046
N66	N	0.867401	-0.933830	0.302418
H67	H	1.192253	-0.338707	0.793876
C68	C	0.498562	-0.317789	0.221990
N69	N	0.476625	-0.330997	0.163225
H70	H	1.036768	-0.811305	0.232168
C71	C	1.170736	-0.457042	0.926874
N72	N	1.187881	-0.515496	0.947210
C73	C	1.108914	-0.911454	0.501744
N74	N	1.124449	-0.933492	0.559899
C75	C	0.640939	-0.318159	0.221289
N76	N	0.661754	-0.331532	0.162176
C77	C	0.500952	-0.458573	0.257783
N78	N	0.480592	-0.475713	0.199460
C79	C	0.499994	-0.495835	0.388796
N80	N	0.478913	-0.541045	0.429153
H81	H	0.955117	-0.401912	0.793503
C82	C	1.030388	-0.493155	0.929229
N83	N	1.043624	-0.552064	0.951125
H84	H	0.991242	-0.263592	0.793934
H85	H	0.978808	-0.811224	0.448122
H86	H	1.026106	-0.473456	0.794059
H87	H	0.634000	-0.480257	0.375787
C88	C	1.207779	-0.325609	0.927887
N89	N	1.252833	-0.285071	0.948986
H90	H	1.165437	-0.435894	0.792787
C91	C	0.974865	-0.253013	0.929070
N92	N	0.917968	-0.233326	0.951026
H93	H	1.087462	-0.234735	0.792880
H94	H	1.092252	-0.236544	0.920191
H95	H	0.507112	-0.242068	0.313227
H96	H	0.635048	-0.453280	0.278915
C97	C	0.498839	-0.262332	0.461538
N98	N	0.476893	-0.205291	0.481250
H99	H	0.635036	-0.375263	0.479629
C100	C	0.500611	-0.394806	0.492677
N101	N	0.479994	-0.437550	0.535846
C102	C	0.641099	-0.258540	0.456641
N103	N	0.661792	-0.199958	0.472992
