data_functionalizedCrystal
_audit_creation_method	'MofGen! by Chris Wilmer'
_symmetry_space_group_name_H-M	'P1'
_symmetry_Int_Tables_number	1
_symmetry_cell_setting	triclinic
loop_
_symmetry_equiv_pos_as_xyz
  x,y,z
_cell_length_a	12.645331
_cell_length_b	25.639239
_cell_length_c	12.645323
_cell_angle_alpha	89.966151
_cell_angle_beta	89.978061
_cell_angle_gamma	90.038900
loop_
_atom_site_label
_atom_site_type_symbol
_atom_site_fract_x
_atom_site_fract_y
_atom_site_fract_z
Zn1	Zn	1.620567	-0.208133	-0.599399
Zn2	Zn	1.620387	-0.295575	-0.422117
Zn3	Zn	1.443285	-0.208156	-0.422143
Zn4	Zn	1.443199	-0.295540	-0.599332
O5	O	1.531859	-0.251851	-0.510748
O6	O	1.768891	-0.219738	-0.575899
O7	O	1.596854	-0.284003	-0.273773
O8	O	1.466913	-0.134988	-0.445695
O9	O	1.768758	-0.283981	-0.445651
O10	O	1.597162	-0.134971	-0.575924
O11	O	1.466738	-0.219777	-0.273792
O12	O	1.294926	-0.219742	-0.445630
O13	O	1.466767	-0.283921	-0.747688
O14	O	1.294863	-0.283943	-0.575810
O15	O	1.597079	-0.219704	-0.747737
O16	O	1.596771	-0.368736	-0.445587
O17	O	1.466592	-0.368710	-0.575786
C18	C	1.256430	-0.251842	-0.510716
C19	C	1.138600	-0.251850	-0.510728
C20	C	1.093722	-0.211399	-0.428965
C21	C	0.971162	-0.211249	-0.429245
C22	C	0.970780	-0.237155	-0.622639
C23	C	1.093378	-0.236852	-0.622129
C24	C	1.093344	-0.307118	-0.481636
C25	C	0.970736	-0.306829	-0.479210
C26	C	1.531681	-0.387694	-0.510699
C27	C	1.531702	-0.445808	-0.510714
C28	C	1.599821	-0.806172	-0.443069
C29	C	1.599862	-0.860776	-0.443083
O30	O	1.657594	-0.889014	-0.385515
N31	N	1.532046	-0.888090	-0.510818
C32	C	1.464192	-0.860797	-0.578551
O33	O	1.406513	-0.889044	-0.636167
C34	C	1.464157	-0.806194	-0.578541
C35	C	1.531970	-0.778883	-0.510794
C36	C	1.667629	-0.778860	-0.375328
C37	C	1.667586	-0.724260	-0.375312
C38	C	1.599735	-0.696971	-0.443038
C39	C	1.531927	-0.724282	-0.510779
C40	C	1.396309	-0.778902	-0.646279
C41	C	1.396281	-0.724295	-0.646264
C42	C	1.464093	-0.696984	-0.578517
C43	C	1.464033	-0.642392	-0.578489
N44	N	1.531849	-0.615078	-0.510754
C45	C	1.599700	-0.642367	-0.443028
C46	C	1.464272	-0.975468	-0.578567
C47	C	1.464300	-1.030070	-0.578572
C48	C	1.599972	-1.030045	-0.443105
C49	C	1.599937	-0.975442	-0.443096
C50	C	1.532088	-0.948154	-0.510832
C51	C	1.599605	-0.527702	-0.443001
C52	C	1.599553	-0.473097	-0.442988
C53	C	1.463886	-0.473127	-0.578459
C54	C	1.463933	-0.527727	-0.578468
C55	C	1.531801	-0.555014	-0.510735
O56	O	1.406334	-0.614120	-0.636030
O57	O	1.657379	-0.614114	-0.385432
C58	C	1.808365	-0.251861	-0.510780
C59	C	1.926195	-0.251865	-0.510793
C60	C	1.531933	-0.251806	-0.787253
C61	C	1.531965	-0.251787	-0.905083
C62	C	1.532067	-0.115478	-0.510820
C63	C	1.532156	-0.057364	-0.510850
C64	C	1.449990	-0.292178	-0.949934
C65	C	1.449702	-0.292026	-1.072494
C66	C	1.502137	-0.196598	-1.072999
C67	C	1.501509	-0.196865	-0.950401
C68	C	1.644043	-0.266034	-0.950271
C69	C	1.643473	-0.267217	-1.072877
C70	C	1.531847	-0.251858	-0.235318
C71	C	1.532021	-0.251730	-0.117488
H72	H	0.940114	-0.338568	-0.534386
H73	H	1.419597	-0.184809	-0.921805
Cl74	Cl	1.478418	-0.355512	-0.904411
Cl75	Cl	1.378660	-0.562063	-0.663615
Cl76	Cl	1.589716	-0.148801	-0.904588
H77	H	1.655224	-1.052274	-0.387963
H78	H	1.671309	-0.305571	-0.919346
H79	H	1.409070	-1.052303	-0.633729
Cl80	Cl	1.591517	-0.148836	-1.117994
Cl81	Cl	0.925950	-0.148028	-0.459080
H82	H	1.654774	-0.450862	-0.387817
Cl83	Cl	1.378957	-0.941168	-0.663722
Cl84	Cl	1.322495	-0.277773	-0.902380
H85	H	0.941658	-0.265721	-0.685252
H86	H	1.666013	-0.307792	-1.101951
Cl87	Cl	1.738335	-0.220619	-0.905484
H88	H	1.654872	-0.549913	-0.387849
Cl89	Cl	1.685192	-0.941113	-0.357926
H90	H	1.707802	-0.239944	-1.103509
H91	H	1.341083	-0.801130	-0.701441
H92	H	1.122360	-0.337254	-0.541188
Cl93	Cl	1.752858	-0.689934	-0.290156
H94	H	1.722887	-0.801073	-0.320177
Cl95	Cl	1.310980	-0.689993	-0.731426
H96	H	1.122025	-0.196460	-0.646719
Cl97	Cl	1.140977	-0.327854	-0.357805
H98	H	0.941013	-0.220427	-0.346327
Cl99	Cl	1.378597	-0.438810	-0.663601
Cl100	Cl	1.478491	-0.355136	-1.118940
Cl101	Cl	0.925735	-0.323965	-0.352125
Cl102	Cl	1.141356	-0.148528	-0.458401
Cl103	Cl	1.139150	-0.225388	-0.300514
H104	H	1.366669	-0.282566	-1.101823
H105	H	1.421140	-0.184319	-1.103704
H106	H	1.123070	-0.265047	-0.685159
Cl107	Cl	0.923460	-0.175484	-0.661288
