data_functionalizedCrystal
_audit_creation_method	'MofGen! by Chris Wilmer'
_symmetry_space_group_name_H-M	'P1'
_symmetry_Int_Tables_number	1
_symmetry_cell_setting	triclinic
loop_
_symmetry_equiv_pos_as_xyz
  x,y,z
_cell_length_a	11.792241
_cell_length_b	14.971482
_cell_length_c	14.048226
_cell_angle_alpha	89.994098
_cell_angle_beta	89.993434
_cell_angle_gamma	83.903012
loop_
_atom_site_label
_atom_site_type_symbol
_atom_site_fract_x
_atom_site_fract_y
_atom_site_fract_z
O1	O	0.147889	1.187542	-0.079149
O2	O	0.647889	1.687542	0.420851
O3	O	0.165606	0.927212	-0.079153
O4	O	0.665606	1.427212	0.420847
O5	O	-0.008464	1.063694	-0.079144
O6	O	0.491536	1.563694	0.420856
O7	O	0.321959	1.051059	-0.079158
O8	O	0.821959	1.551059	0.420842
O9	O	-0.008474	1.063678	0.079177
O10	O	0.491526	1.563678	0.579177
O11	O	0.165596	0.927195	0.079168
O12	O	0.665596	1.427195	0.579168
O13	O	0.147879	1.187525	0.079173
O14	O	0.647879	1.687525	0.579173
Zn15	Zn	0.156736	1.057358	0.104307
Zn16	Zn	0.656736	1.557358	0.604307
Zn17	Zn	0.156749	1.057379	-0.104288
Zn18	Zn	0.656749	1.557379	0.395712
O19	O	0.321949	1.051043	0.079164
O20	O	0.821949	1.551043	0.579164
C21	C	0.164809	0.893876	0.000007
C22	C	0.664809	1.393876	0.500007
C23	C	0.162437	0.794569	0.000005
C24	C	0.662437	1.294569	0.500005
C25	C	0.161314	0.747911	0.086307
C26	C	0.661314	1.247911	0.586307
C27	C	0.159067	0.654603	0.086308
C28	C	0.659067	1.154603	0.586308
C29	C	0.157951	0.607955	0.000006
C30	C	0.657951	1.107955	0.500006
C31	C	0.159071	0.654620	-0.086302
C32	C	0.659071	1.154620	0.413698
C33	C	0.161310	0.747927	-0.086302
C34	C	0.661310	1.247927	0.413698
C35	C	0.154407	0.460139	-0.086296
C36	C	0.654407	0.960139	0.413704
C37	C	0.152170	0.366826	-0.086296
C38	C	0.652170	0.866826	0.413704
C39	C	0.152165	0.366816	0.086315
C40	C	0.652165	0.866816	0.586315
C41	C	0.154404	0.460123	0.086315
C42	C	0.654404	0.960123	0.586315
C43	C	0.155525	0.506781	0.000006
C44	C	0.655525	1.006781	0.500006
C45	C	-0.050755	1.062892	0.000016
C46	C	0.449245	1.562892	0.500016
C47	C	-0.176753	1.060517	0.000015
C48	C	0.323247	1.560517	0.500015
C49	C	-0.407437	1.056149	-0.000001
C50	C	0.092563	1.556149	0.499999
C51	C	-0.279068	1.058576	0.000008
C52	C	0.220932	1.558576	0.500008
C53	C	0.364240	1.051845	0.000001
C54	C	0.864240	1.551845	0.500001
C55	C	0.490238	1.054220	-0.000004
C56	C	0.990238	1.554220	0.499996
C57	C	0.148675	1.220861	0.000010
C58	C	0.648675	1.720861	0.500010
C59	C	0.151048	1.320168	0.000006
C60	C	0.651048	1.820168	0.500006
N61	N	0.156726	1.057349	0.246668
N62	N	0.656726	1.557349	0.746668
N63	N	0.156750	1.057395	-0.246649
N64	N	0.656750	1.557395	0.253351
C65	C	0.079679	1.117803	0.296490
C66	C	0.579679	1.617803	0.796490
C67	C	0.079679	1.117809	0.396148
C68	C	0.579679	1.617809	0.896148
C69	C	0.156731	1.057365	0.445981
C70	C	0.656731	1.557365	0.945981
C71	C	0.233781	0.996905	0.396152
C72	C	0.733781	1.496905	0.896152
C73	C	0.233775	0.996895	0.296497
C74	C	0.733775	1.496895	0.796497
C75	C	0.233789	0.996931	0.603867
C76	C	0.733789	1.496931	1.103867
C77	C	0.233796	0.996941	0.703529
C78	C	0.733796	1.496941	1.203529
C79	C	0.079693	1.117844	0.703518
C80	C	0.579693	1.617844	1.203518
C81	C	0.079687	1.117835	0.603862
C82	C	0.579687	1.617835	1.103862
C83	C	0.156739	1.057376	0.554040
C84	C	0.656739	1.557376	1.054040
H85	H	0.151252	0.328823	0.156591
H86	H	0.651252	0.828823	0.656591
C87	C	0.318551	0.930445	0.758345
C88	C	0.818551	1.430445	1.258345
N89	N	0.382387	0.880357	0.799631
N90	N	0.882387	1.380357	1.299631
C91	C	-0.005074	1.184326	0.549047
C92	C	0.494926	1.684326	1.049047
N93	N	-0.068920	1.234406	0.507760
N94	N	0.431080	1.734406	1.007760
H95	H	0.016940	1.167027	0.255922
H96	H	0.516940	1.667027	0.755922
C97	C	0.318541	0.930399	0.241693
C98	C	0.818541	1.430399	0.741693
N99	N	0.382390	0.880312	0.200416
N100	N	0.882390	1.380312	0.700416
H101	H	0.151263	0.328847	-0.156571
H102	H	0.651263	0.828847	0.343429
C103	C	0.318538	0.930413	0.549065
C104	C	0.818538	1.430413	1.049065
N105	N	0.382370	0.880312	0.507788
N106	N	0.882370	1.380312	1.007788
H107	H	0.155319	0.498101	0.156589
H108	H	0.655319	0.998101	0.656589
C109	C	0.155647	0.511461	-0.181241
C110	C	0.655647	1.011461	0.318759
N111	N	0.156589	0.550115	-0.252752
N112	N	0.656589	1.050115	0.247248
H113	H	0.162232	0.785884	0.156584
H114	H	0.662232	1.285884	0.656584
C115	C	0.162547	0.799250	-0.181241
C116	C	0.662547	1.299250	0.318759
N117	N	0.163476	0.837905	-0.252753
N118	N	0.663476	1.337905	0.247247
H119	H	0.158134	0.616620	0.156584
H120	H	0.658134	1.116620	0.656584
H121	H	0.016941	1.167034	0.436712
H122	H	0.516941	1.667034	0.936712
H123	H	0.158154	0.616632	-0.156571
H124	H	0.658154	1.116632	0.343429
H125	H	0.016955	1.167072	0.744089
H126	H	0.516955	1.667072	1.244089
H127	H	0.296514	0.947686	0.436733
H128	H	0.796514	1.447686	0.936733
