data_functionalizedCrystal
_audit_creation_method	'MofGen! by Chris Wilmer'
_symmetry_space_group_name_H-M	'P1'
_symmetry_Int_Tables_number	1
_symmetry_cell_setting	triclinic
loop_
_symmetry_equiv_pos_as_xyz
  x,y,z
_cell_length_a	10.540539
_cell_length_b	27.732048
_cell_length_c	9.616153
_cell_angle_alpha	89.992780
_cell_angle_beta	89.995174
_cell_angle_gamma	83.584073
loop_
_atom_site_label
_atom_site_type_symbol
_atom_site_fract_x
_atom_site_fract_y
_atom_site_fract_z
O1	O	1.682934	0.068112	-0.115597
O2	O	1.313243	0.074530	-0.115616
O3	O	1.509570	0.000996	-0.115579
O4	O	1.486607	0.141645	-0.115634
O5	O	1.509544	0.000998	0.115712
O6	O	1.313216	0.074531	0.115676
O7	O	1.682908	0.068113	0.115694
Zn8	Zn	1.498058	0.071323	0.152407
Zn9	Zn	1.498093	0.071320	-0.152329
O10	O	1.486580	0.141647	0.115658
C11	C	1.265947	0.074049	0.000028
C12	C	1.125062	0.072609	0.000022
C13	C	0.944031	0.017434	0.000583
C14	C	1.090586	0.018894	0.000047
C15	C	1.062282	0.098458	-0.132062
C16	C	0.915817	0.096625	-0.132157
C17	C	0.915251	0.097720	0.130864
C18	C	1.062211	0.098214	0.132595
C19	C	1.509075	-0.017013	0.000070
C20	C	1.507623	-0.070677	0.000081
C21	C	1.614502	-0.408819	0.000015
C22	C	1.609117	-0.610513	-0.000004
O23	O	1.706850	-0.641153	-0.000060
N24	N	1.492703	-0.630369	-0.000009
C25	C	1.377627	-0.599799	-0.000018
O26	O	1.278486	-0.621317	-0.000036
C27	C	1.383013	-0.398107	-0.000008
C28	C	1.499435	-0.378253	0.000011
C29	C	1.730915	-0.388965	0.000033
C30	C	1.732260	-0.338544	0.000045
C31	C	1.617193	-0.307978	0.000040
C32	C	1.500780	-0.327832	0.000023
C33	C	1.267939	-0.367538	-0.000027
C34	C	1.269296	-0.317112	-0.000028
C35	C	1.385718	-0.297258	-0.000009
C36	C	1.387058	-0.246846	0.000031
N37	N	1.503472	-0.226989	0.000036
C38	C	1.618540	-0.257555	0.000040
C39	C	1.374807	-0.705691	-0.000020
C40	C	1.373460	-0.756114	-0.000020
C41	C	1.604950	-0.766824	-0.000009
C42	C	1.606296	-0.716400	0.000001
C43	C	1.491221	-0.685834	-0.000015
C44	C	1.621356	-0.151668	0.000068
C45	C	1.622691	-0.101243	0.000086
C46	C	1.391201	-0.090538	0.000068
C47	C	1.389865	-0.140959	0.000057
C48	C	1.504953	-0.171523	0.000052
O49	O	1.289377	-0.216177	0.000071
O50	O	1.717666	-0.236029	0.000028
C51	C	1.613157	-0.459239	0.000003
C52	C	1.496745	-0.479094	-0.000014
C53	C	1.381678	-0.448528	-0.000019
C54	C	1.495398	-0.529517	-0.000014
C55	C	1.610465	-0.560083	-0.000009
C56	C	1.726879	-0.540226	-0.000005
C57	C	1.728224	-0.489806	0.000008
C58	C	1.265264	-0.468384	-0.000023
C59	C	1.263928	-0.518805	-0.000034
C60	C	1.378995	-0.549371	-0.000030
C61	C	1.730203	0.068594	0.000048
C62	C	1.871089	0.070034	0.000044
C63	C	1.487075	0.159656	0.000005
C64	C	1.488527	0.213320	-0.000015
N65	N	1.498043	0.071324	0.360382
N66	N	1.498118	0.071316	-0.360303
C67	C	1.392711	0.110527	0.580733
C68	C	1.392932	0.110674	0.419565
C69	C	1.630268	0.082797	0.418833
C70	C	1.629691	0.083074	0.580051
C71	C	1.472477	0.020519	0.580311
C72	C	1.469416	0.020848	0.419084
H73	H	1.082922	0.137906	-0.136991
C74	C	1.566476	-0.020468	0.364676
H75	H	1.546870	-0.050510	0.401787
H76	H	1.650026	-0.014876	0.392617
H77	H	1.562399	-0.021511	0.266047
H78	H	1.409195	0.148361	0.380972
C79	C	1.138682	-0.434768	-0.000014
H80	H	1.069167	-0.453820	-0.000007
H81	H	1.134386	-0.414867	-0.080660
H82	H	1.134389	-0.414884	0.080662
H83	H	1.652437	0.120134	0.617626
H84	H	1.294081	0.103730	0.619542
C85	C	0.906636	-0.011237	0.128536
H86	H	0.951692	-0.042877	0.126916
H87	H	0.817420	-0.013567	0.126784
H88	H	0.927743	0.005042	0.210856
H89	H	1.717499	-0.085081	0.000105
H90	H	0.884448	0.080337	0.230982
H91	H	1.710524	0.055665	0.619053
H92	H	1.824622	-0.413847	0.000031
H93	H	1.549356	-0.008666	0.618442
C94	C	1.860321	-0.316709	0.000057
H95	H	1.844661	-0.282301	0.000072
H96	H	1.907665	-0.327172	-0.080596
H97	H	1.907641	-0.327181	0.080727
C98	C	1.345113	0.005774	0.635287
H99	H	1.331468	-0.024977	0.598206
H100	H	1.277297	0.029284	0.607681
H101	H	1.348009	0.003912	0.733902
C102	C	1.149339	-0.008583	0.127952
H103	H	1.083648	-0.020742	0.180706
H104	H	1.191800	0.012868	0.183814
H105	H	1.208800	-0.034834	0.098241
C106	C	1.142713	-0.283490	-0.000044
H107	H	1.160179	-0.250615	-0.000048
H108	H	1.094920	-0.289559	0.080602
H109	H	1.094956	-0.289550	-0.080721
H110	H	1.408751	0.148000	0.621218
H111	H	1.701097	-0.700239	0.000015
C112	C	0.849179	0.150132	0.132064
H113	H	0.876251	0.166679	0.211342
H114	H	0.759265	0.149639	0.135465
H115	H	0.871280	0.166415	0.050119
C116	C	1.738700	0.045274	0.367036
H117	H	1.704213	0.022223	0.309159
H118	H	1.780297	0.029144	0.444431
H119	H	1.798479	0.061307	0.315533
H120	H	1.105661	0.080501	-0.230347
C121	C	1.731521	-0.800452	-0.000026
H122	H	1.714034	-0.833325	-0.000043
H123	H	1.779313	-0.794400	0.080622
H124	H	1.779290	-0.794386	-0.080701
H125	H	1.653575	0.119438	0.378430
C126	C	0.878837	0.070811	-0.265507
H127	H	0.953293	0.061539	-0.319108
H128	H	0.820855	0.092205	-0.318319
H129	H	0.839573	0.042755	-0.241357
C130	C	1.118627	0.072704	0.264603
H131	H	1.180233	0.046559	0.239046
H132	H	1.052315	0.060603	0.316482
H133	H	1.158171	0.095214	0.319712
C134	C	1.245396	-0.777948	-0.000029
H135	H	1.177066	-0.752518	-0.000047
H136	H	1.240037	-0.797399	0.080623
H137	H	1.240069	-0.797389	-0.080700
C138	C	1.248215	-0.672075	-0.000019
H139	H	1.178701	-0.691127	-0.000006
H140	H	1.243919	-0.652176	-0.080671
H141	H	1.243920	-0.652188	0.080652
C142	C	1.338025	0.009098	0.367488
H143	H	1.300764	0.034842	0.310400
H144	H	1.284113	0.005350	0.444996
H145	H	1.348147	-0.020143	0.315204
H146	H	0.914752	-0.003698	-0.093599
C147	C	1.092619	0.151121	0.143353
H148	H	1.053474	0.165681	0.224341
H149	H	1.060724	0.168637	0.063480
H150	H	1.182427	0.151686	0.148895
C151	C	1.260112	0.101358	0.366173
H152	H	1.205530	0.097451	0.443015
H153	H	1.267634	0.072744	0.311110
H154	H	1.225213	0.128141	0.311477
C155	C	1.261805	-0.162799	0.000033
H156	H	1.193470	-0.137371	0.000023
H157	H	1.256446	-0.182256	0.080674
H158	H	1.256488	-0.182236	-0.080649
C159	C	1.148204	-0.008772	-0.128069
H160	H	1.082028	-0.020944	-0.179998
H161	H	1.207798	-0.035018	-0.098615
H162	H	1.190315	0.012583	-0.184657
C163	C	0.848743	0.148809	-0.140312
H164	H	0.911046	0.171034	-0.143562
H165	H	0.796280	0.155302	-0.060676
H166	H	0.797541	0.152286	-0.221766
C167	C	1.747949	-0.185282	0.000074
H168	H	1.817464	-0.166230	0.000099
H169	H	1.752263	-0.205172	-0.080582
H170	H	1.752227	-0.205178	0.080741
H171	H	1.173136	-0.383693	-0.000050
H172	H	1.820571	-0.565122	0.000005
C173	C	1.856289	-0.467973	0.000014
H174	H	1.924616	-0.493404	0.000002
H175	H	1.861631	-0.448529	0.080670
H176	H	1.861639	-0.448523	-0.080653
H177	H	1.297516	-0.065642	0.000069
C178	C	1.135855	-0.540639	-0.000059
H179	H	1.067525	-0.515209	-0.000075
H180	H	1.130490	-0.560093	0.080585
H181	H	1.130534	-0.560077	-0.080738
