data_functionalizedCrystal
_audit_creation_method	'MofGen! by Chris Wilmer'
_symmetry_space_group_name_H-M	'P1'
_symmetry_Int_Tables_number	1
_symmetry_cell_setting	triclinic
loop_
_symmetry_equiv_pos_as_xyz
  x,y,z
_cell_length_a	14.908782
_cell_length_b	19.120786
_cell_length_c	14.908694
_cell_angle_alpha	90.966725
_cell_angle_beta	90.174534
_cell_angle_gamma	89.311817
loop_
_atom_site_label
_atom_site_type_symbol
_atom_site_fract_x
_atom_site_fract_y
_atom_site_fract_z
Zn1	Zn	1.383045	-0.360147	-0.410367
Zn2	Zn	1.367918	-0.469927	-0.254360
Zn3	Zn	1.224793	-0.346737	-0.269410
Zn4	Zn	1.226260	-0.470662	-0.413320
O5	O	1.300504	-0.411868	-0.336865
O6	O	1.506551	-0.380013	-0.382139
O7	O	1.341987	-0.447666	-0.130840
O8	O	1.251502	-0.250709	-0.293171
O9	O	1.495437	-0.460668	-0.267521
O10	O	1.367769	-0.260561	-0.396732
O11	O	1.236835	-0.357159	-0.141897
O12	O	1.099475	-0.357872	-0.296034
O13	O	1.254003	-0.461922	-0.538445
O14	O	1.100553	-0.448919	-0.401765
O15	O	1.369191	-0.380726	-0.536276
O16	O	1.343410	-0.567831	-0.270384
O17	O	1.239335	-0.568371	-0.387171
C18	C	1.067470	-0.402021	-0.350853
C19	C	0.967777	-0.397826	-0.356858
C20	C	0.768867	-0.473799	-0.248622
C21	C	0.675196	-0.469860	-0.254261
C22	C	0.686764	-0.386013	-0.373780
C23	C	0.780434	-0.389952	-0.368141
C24	C	0.821482	-0.433846	-0.305559
C25	C	0.915155	-0.437781	-0.299916
C26	C	0.926720	-0.353938	-0.419438
C27	C	0.833050	-0.349999	-0.425077
C28	C	1.289915	-0.593463	-0.327483
C29	C	1.285469	-0.671155	-0.323495
C30	C	1.343874	-0.712724	-0.375589
C31	C	1.339693	-0.785724	-0.371843
C32	C	1.277111	-0.817153	-0.315998
C33	C	1.218700	-0.775578	-0.263902
C34	C	1.222877	-0.702580	-0.267653
C35	C	1.261467	-1.037307	-0.301977
C36	C	1.257295	-1.110311	-0.298228
C37	C	1.378288	-1.120451	-0.406170
C38	C	1.382464	-1.047451	-0.409912
C39	C	1.324050	-1.005883	-0.357820
C40	C	1.272837	-0.891770	-0.312166
C41	C	1.328319	-0.931267	-0.361658
C42	C	1.534448	-0.421754	-0.322821
C43	C	1.634141	-0.425967	-0.316837
C44	C	1.313448	-0.422902	-0.570815
C45	C	1.318964	-0.427604	-0.670511
C46	C	1.311159	-0.229566	-0.346301
C47	C	1.315700	-0.151880	-0.350322
C48	C	1.219812	-0.342196	-0.869367
C49	C	1.224992	-0.346611	-0.963041
C50	C	1.334498	-0.440853	-0.951534
C51	C	1.329318	-0.436438	-0.857860
C52	C	1.271975	-0.387107	-0.816780
C53	C	1.266800	-0.382688	-0.723105
C54	C	1.376301	-0.476933	-0.711600
C55	C	1.381480	-0.481349	-0.805274
C56	C	1.287665	-0.400829	-0.103823
C57	C	1.282334	-0.395937	-0.004127
H58	H	0.969570	-0.321402	-0.465796
H59	H	1.213905	-1.003468	-0.259559
H60	H	1.167740	-0.801174	-0.218436
H61	H	1.425844	-1.154304	-0.448582
H62	H	1.173129	-0.302022	-0.835919
H63	H	1.394839	-0.687140	-0.421060
H64	H	1.428165	-0.521515	-0.838734
H65	H	0.948574	-0.473520	-0.248956
H66	H	0.632360	-0.502395	-0.207899
H67	H	0.802289	-0.509534	-0.197660
H68	H	1.387259	-0.819567	-0.414256
H69	H	1.175317	-0.668735	-0.225234
H70	H	1.418778	-0.513501	-0.668774
H71	H	1.379271	-0.905675	-0.407130
H72	H	0.653326	-0.350283	-0.424738
H73	H	1.221885	-0.917368	-0.266694
H74	H	1.220111	-0.342518	-0.689659
H75	H	0.799615	-0.314264	-0.476032
H76	H	1.433423	-1.021863	-0.455386
H77	H	1.182516	-0.310040	-1.005854
H78	H	1.206329	-1.135898	-0.252752
H79	H	1.381172	-0.481025	-0.984998
