data_functionalizedCrystal
_audit_creation_method	'MofGen! by Chris Wilmer'
_symmetry_space_group_name_H-M	'P1'
_symmetry_Int_Tables_number	1
_symmetry_cell_setting	triclinic
loop_
_symmetry_equiv_pos_as_xyz
  x,y,z
_cell_length_a	10.489746
_cell_length_b	10.489741
_cell_length_c	12.996460
_cell_angle_alpha	89.994152
_cell_angle_beta	89.997358
_cell_angle_gamma	84.540238
loop_
_atom_site_label
_atom_site_type_symbol
_atom_site_fract_x
_atom_site_fract_y
_atom_site_fract_z
O1	O	1.694052	0.180002	-0.085497
O2	O	1.322857	0.196888	-0.085514
O3	O	1.516901	0.002847	-0.085499
O4	O	1.500008	0.374043	-0.085512
O5	O	1.516880	0.002836	0.085635
O6	O	1.322836	0.196877	0.085620
O7	O	1.694031	0.179991	0.085637
Cu8	Cu	1.508432	0.188433	0.101254
Cu9	Cu	1.508456	0.188446	-0.101132
O10	O	1.499987	0.374032	0.085622
C11	C	1.275315	0.195606	0.000051
C12	C	1.133686	0.191786	0.000044
C13	C	0.980828	0.066062	0.000063
C14	C	1.058212	0.128913	0.084436
C15	C	1.058187	0.128954	-0.084289
C16	C	0.958720	0.247895	0.084512
C17	C	0.958691	0.247918	-0.084288
C18	C	1.036025	0.310856	0.000105
C19	C	1.515614	-0.044690	0.000067
C20	C	1.511797	-0.186320	0.000065
C21	C	1.388333	-0.254462	0.000052
C22	C	1.446646	-0.346589	0.084432
C23	C	1.446696	-0.346553	-0.084292
C24	C	1.570161	-0.276581	0.084515
C25	C	1.570194	-0.276535	-0.084285
C26	C	1.628597	-0.368635	0.000116
C27	C	1.741573	0.181273	0.000070
C28	C	1.883202	0.185093	0.000069
C29	C	1.501273	0.421569	0.000053
C30	C	1.505091	0.563198	0.000048
N31	N	1.508424	0.188423	0.243601
N32	N	1.508474	0.188446	-0.243479
C33	C	1.508454	0.188447	0.663415
C34	C	1.508442	0.188445	0.546610
C35	C	1.508440	0.188436	0.453512
C36	C	1.508426	0.188432	0.336699
H37	H	0.915432	0.298105	0.155925
O38	O	1.110151	0.069178	-0.169423
C39	C	1.232107	0.088961	-0.324779
C40	C	1.173355	0.156816	-0.228404
H41	H	1.283198	0.159793	-0.372503
H42	H	1.303649	0.005768	-0.300496
H43	H	1.152878	0.051100	-0.372725
H44	H	1.252496	0.194758	-0.180415
H45	H	1.101783	0.239948	-0.252758
O46	O	0.951272	-0.057392	-0.000024
C47	C	0.846556	-0.219922	-0.088973
C48	C	0.879960	-0.080095	-0.089018
H49	H	0.788872	-0.238314	-0.160906
H50	H	0.938526	-0.287229	-0.088252
H51	H	0.787460	-0.237715	-0.017675
H52	H	0.939021	-0.062178	-0.160303
H53	H	0.787941	-0.012861	-0.089685
O54	O	1.632541	-0.239677	0.169612
C55	C	1.810818	-0.136246	0.236059
C56	C	1.740289	-0.177945	0.139603
H57	H	1.897960	-0.086351	0.211832
H58	H	1.743570	-0.067478	0.283398
H59	H	1.843182	-0.224132	0.284365
H60	H	1.707917	-0.090136	0.091218
H61	H	1.807582	-0.246757	0.092342
O62	O	1.065462	0.434348	0.000107
C63	C	1.232791	0.576615	-0.000616
C64	C	1.199629	0.436709	-0.000651
H65	H	1.341265	0.578571	-0.001207
H66	H	1.190180	0.627747	-0.071884
H67	H	1.191464	0.627109	0.071351
H68	H	1.240949	0.386106	-0.072569
H69	H	1.242218	0.385673	0.070664
O70	O	0.906927	0.307996	-0.169363
C71	C	0.877626	0.504259	-0.266525
C72	C	0.936341	0.436382	-0.170139
H73	H	0.901363	0.608077	-0.267173
H74	H	0.918703	0.453451	-0.338443
H75	H	0.769253	0.501512	-0.265279
H76	H	1.044714	0.439109	-0.171285
H77	H	0.895165	0.487209	-0.098263
H78	H	1.394448	-0.377513	-0.155636
H79	H	1.101680	0.078660	0.155773
O80	O	1.384402	-0.383828	0.169498
C81	C	1.311971	-0.560036	0.265171
C82	C	1.382528	-0.518049	0.168811
H83	H	1.310409	-0.668554	0.264637
H84	H	1.363613	-0.529996	0.337119
H85	H	1.209567	-0.512617	0.265058
H86	H	1.484935	-0.565448	0.168824
H87	H	1.330787	-0.548067	0.096906
H88	H	1.730200	-0.418057	0.000168
O89	O	1.632288	-0.239517	-0.169491
C90	C	1.637468	-0.232867	-0.354765
C91	C	1.567018	-0.274839	-0.258346
H92	H	1.584741	-0.261432	-0.426629
H93	H	1.640552	-0.124532	-0.353603
H94	H	1.739333	-0.281648	-0.355438
H95	H	1.465123	-0.226148	-0.257611
H96	H	1.564038	-0.383184	-0.259545
H97	H	1.286821	-0.204813	0.000132
