data_functionalizedCrystal
_audit_creation_method	'MofGen! by Chris Wilmer'
_symmetry_space_group_name_H-M	'P1'
_symmetry_Int_Tables_number	1
_symmetry_cell_setting	triclinic
loop_
_symmetry_equiv_pos_as_xyz
  x,y,z
_cell_length_a	16.992701
_cell_length_b	17.019294
_cell_length_c	15.455313
_cell_angle_alpha	88.788101
_cell_angle_beta	87.136501
_cell_angle_gamma	87.022292
loop_
_atom_site_label
_atom_site_type_symbol
_atom_site_fract_x
_atom_site_fract_y
_atom_site_fract_z
O1	O	1.044227	0.163464	-0.084344
O2	O	1.544227	0.663464	0.415656
O3	O	0.815938	0.161637	-0.084208
O4	O	1.315938	0.661637	0.415792
O5	O	0.936044	0.048501	-0.075754
O6	O	1.436044	0.548501	0.424246
O7	O	0.924121	0.276600	-0.092799
O8	O	1.424121	0.776600	0.407201
O9	O	0.929176	0.054943	0.068027
O10	O	1.429176	0.554943	0.568027
O11	O	0.809069	0.168078	0.059572
O12	O	1.309069	0.668078	0.559572
O13	O	1.037359	0.169905	0.059436
O14	O	1.537359	0.669905	0.559436
Cu15	Cu	0.922587	0.169580	0.072633
Cu16	Cu	1.422587	0.669580	0.572633
Cu17	Cu	0.930710	0.161963	-0.097405
Cu18	Cu	1.430710	0.661963	0.402595
O19	O	0.917252	0.283041	0.050982
O20	O	1.417252	0.783041	0.550982
C21	C	0.783285	0.162506	-0.012142
C22	C	1.283285	0.662506	0.487858
C23	C	0.696224	0.155487	-0.011618
C24	C	1.196224	0.655487	0.488382
C25	C	0.207149	0.108327	-0.008097
C26	C	0.707149	0.608327	0.491903
C27	C	0.288952	0.114928	-0.008585
C28	C	0.788952	0.614928	0.491415
C29	C	0.320677	0.189258	-0.014144
C30	C	0.820677	0.689258	0.485856
C31	C	0.270594	0.256991	-0.019206
C32	C	0.770594	0.756991	0.480794
C33	C	0.188793	0.250390	-0.018711
C34	C	0.688793	0.750390	0.481289
C35	C	0.564340	0.216618	-0.016186
C36	C	1.064340	0.716618	0.483814
C37	C	0.646148	0.223215	-0.016682
C38	C	1.146148	0.723215	0.483318
C39	C	0.664500	0.081151	-0.006060
C40	C	1.164500	0.581151	0.493940
C41	C	0.582697	0.074556	-0.005572
C42	C	1.082697	0.574556	0.494428
C43	C	0.532621	0.142290	-0.010629
C44	C	1.032621	0.642290	0.489371
N45	N	0.404292	0.196007	-0.014645
N46	N	0.904292	0.696007	0.485355
N47	N	0.449007	0.135540	-0.010121
N48	N	0.949007	0.635540	0.489879
C49	C	0.932023	0.022400	-0.001674
C50	C	1.432023	0.522400	0.498326
C51	C	0.930263	-0.064969	0.004849
C52	C	1.430263	0.435031	0.504849
C53	C	0.933182	-0.109522	-0.070460
C54	C	1.433182	0.390478	0.429540
C55	C	0.931523	-0.191614	-0.064328
C56	C	1.431523	0.308386	0.435672
C57	C	0.926951	-0.229152	0.017115
C58	C	1.426951	0.270848	0.517115
C59	C	0.924029	-0.184593	0.092430
C60	C	1.424029	0.315407	0.592430
C61	C	0.925682	-0.102502	0.086297
C62	C	1.425682	0.397498	0.586297
C63	C	0.921766	-0.476839	0.039553
C64	C	1.421766	0.023161	0.539553
C65	C	0.920116	-0.558936	0.045681
C66	C	1.420116	-0.058936	0.545681
C67	C	0.927608	-0.565951	-0.111078
C68	C	1.427608	-0.065951	0.388922
C69	C	0.929265	-0.483858	-0.117204
C70	C	1.429265	0.016142	0.382796
C71	C	0.926340	-0.439306	-0.041889
C72	C	1.426340	0.060694	0.458111
C73	C	0.925257	-0.313064	0.023385
C74	C	1.425257	0.186936	0.523385
C75	C	0.928027	-0.355396	-0.048159
C76	C	1.428027	0.144604	0.451841
C77	C	1.070012	0.169037	-0.012632
C78	C	1.570012	0.669037	0.487368
C79	C	1.157073	0.176055	-0.013161
C80	C	1.657073	0.676055	0.486839
C81	C	0.921274	0.309142	-0.023100
C82	C	1.421274	0.809142	0.476900
C83	C	0.923034	0.396511	-0.029629
C84	C	1.423034	0.896511	0.470371
N85	N	0.916880	0.174938	0.192228
N86	N	1.416880	0.674938	0.692228
N87	N	0.936423	0.156599	-0.216999
N88	N	1.436423	0.656599	0.283001
C89	C	0.967923	0.126893	0.241212
C90	C	1.467923	0.626893	0.741212
C91	C	0.963614	0.130953	0.331717
C92	C	1.463614	0.630953	0.831717
C93	C	0.908265	0.183061	0.373235
C94	C	1.408265	0.683061	0.873235
C95	C	0.857216	0.231107	0.324244
C96	C	1.357216	0.731107	0.824244
C97	C	0.861522	0.227043	0.233741
C98	C	1.361522	0.727043	0.733741
C99	C	0.889680	0.200581	0.643507
C100	C	1.389680	0.700581	1.143507
C101	C	0.885380	0.204643	0.734016
C102	C	1.385380	0.704643	1.234016
C103	C	0.991777	0.104488	0.741483
C104	C	1.491777	0.604488	1.241483
C105	C	0.996081	0.100432	0.650978
C106	C	1.496081	0.600432	1.150978
C107	C	0.945030	0.148475	0.601995
C108	C	1.445030	0.648475	1.101995
N109	N	0.903861	0.187213	0.465745
N110	N	1.403861	0.687213	0.965745
N111	N	0.949430	0.144318	0.509487
N112	N	1.449430	0.644318	1.009487
H113	H	0.936909	-0.078965	-0.136780
H114	H	1.436909	0.421035	0.363220
H115	H	0.671974	0.283746	-0.021196
H116	H	1.171974	0.783746	0.478804
H117	H	0.812146	0.273532	0.358053
H118	H	1.312146	0.773532	0.858053
H119	H	1.033340	0.065372	0.781373
H120	H	1.533340	0.565372	1.281373
O121	O	0.919552	-0.220928	0.171612
O122	O	1.419552	0.279072	0.671612
C123	C	0.917349	-0.164000	0.236767
C124	C	1.417349	0.336000	0.736767
H125	H	0.894819	-0.104816	0.209291
H126	H	1.394819	0.395184	0.709291
H127	H	0.876216	-0.182664	0.293162
H128	H	1.376216	0.317336	0.793162
H129	H	0.979228	-0.158485	0.260535
H130	H	1.479228	0.341515	0.760535
O131	O	0.713229	0.015412	-0.001260
O132	O	1.213229	0.515412	0.498740
C133	C	0.764640	0.011626	-0.075702
C134	C	1.264640	0.511626	0.424298
H135	H	0.770113	0.073172	-0.105217
H136	H	1.270113	0.573172	0.394783
H137	H	0.825246	-0.013043	-0.057052
H138	H	1.325246	0.486957	0.442948
H139	H	0.740134	-0.028310	-0.125032
H140	H	1.240134	0.471690	0.374968
H141	H	0.840306	0.247079	0.767815
H142	H	1.340306	0.747079	1.267815
H143	H	0.921537	-0.343637	0.089695
H144	H	1.421537	0.156363	0.589695
H145	H	0.923295	-0.066227	0.147622
H146	H	1.423295	0.433773	0.647622
O147	O	1.049868	0.049742	0.610790
O148	O	1.549868	0.549742	1.110790
C149	C	1.094011	0.008220	0.673432
C150	C	1.594011	0.508220	1.173432
H151	H	1.058790	0.008190	0.738173
H152	H	1.558790	0.508190	1.238173
H153	H	1.107069	-0.054978	0.651922
H154	H	1.607069	0.445022	1.151922
H155	H	1.151868	0.037872	0.680855
H156	H	1.651868	0.537872	1.180855
O157	O	0.176305	0.036133	-0.002853
O158	O	0.676305	0.536133	0.497147
C159	C	0.133078	0.024729	-0.076704
C160	C	0.633078	0.524729	0.423296
H161	H	0.155007	0.064692	-0.131915
H162	H	0.655007	0.564692	0.368085
H163	H	0.141463	-0.039289	-0.096994
H164	H	0.641463	0.460711	0.403006
H165	H	0.067813	0.039563	-0.060922
H166	H	0.567813	0.539563	0.439078
O167	O	0.934433	-0.234779	-0.137570
O168	O	1.434433	0.265221	0.362430
C169	C	0.938826	-0.184044	-0.210768
C170	C	1.438826	0.315956	0.289232
H171	H	0.963682	-0.126184	-0.192018
H172	H	1.463682	0.373816	0.307982
H173	H	0.979040	-0.212808	-0.263594
H174	H	1.479040	0.287192	0.236406
H175	H	0.877311	-0.172114	-0.235881
H176	H	1.377311	0.327886	0.264119
H177	H	0.523578	0.271772	-0.020308
H178	H	1.023578	0.771772	0.479692
O179	O	1.013228	0.084402	0.379391
O180	O	1.513228	0.584402	0.879391
C181	C	1.059222	0.131929	0.428333
C182	C	1.559222	0.631929	0.928333
H183	H	1.027485	0.192072	0.437438
H184	H	1.527485	0.692072	0.937438
H185	H	1.068521	0.102762	0.494371
H186	H	1.568521	0.602762	0.994371
H187	H	1.118852	0.139382	0.392769
H188	H	1.618852	0.639382	0.892769
O189	O	0.140186	0.316196	-0.023789
O190	O	0.640186	0.816196	0.476211
C191	C	0.158159	0.357692	-0.101597
C192	C	0.658159	0.857692	0.398403
H193	H	0.188502	0.315613	-0.150672
H194	H	0.688502	0.815613	0.349328
H195	H	0.101393	0.384448	-0.128675
H196	H	0.601393	0.884448	0.371325
H197	H	0.199113	0.406569	-0.088361
H198	H	0.699113	0.906569	0.411639
H199	H	0.296431	0.317512	-0.023726
H200	H	0.796431	0.817512	0.476274
H201	H	0.329721	0.059777	-0.004458
H202	H	0.829721	0.559777	0.495542
H203	H	0.932990	-0.453301	-0.183523
H204	H	1.432990	0.046699	0.316477
O205	O	0.840059	0.247333	0.596061
O206	O	1.340059	0.747333	1.096061
C207	C	0.790275	0.294182	0.652117
C208	C	1.290275	0.794182	1.152117
H209	H	0.819364	0.300003	0.716401
H210	H	1.319364	0.800003	1.216401
H211	H	0.779704	0.355034	0.621330
H212	H	1.279704	0.855034	1.121330
H213	H	0.731502	0.265396	0.663949
H214	H	1.231502	0.765396	1.163949
H215	H	0.929988	-0.602234	-0.172395
H216	H	1.429988	-0.102234	0.327605
O217	O	0.915634	-0.595275	0.124867
O218	O	1.415634	-0.095275	0.624867
C219	C	0.913425	-0.538351	0.190028
C220	C	1.413425	-0.038351	0.690028
H221	H	0.890895	-0.479166	0.162556
H222	H	1.390895	0.020834	0.662556
H223	H	0.872289	-0.557021	0.246417
H224	H	1.372289	-0.057021	0.746417
H225	H	0.975302	-0.532837	0.213803
H226	H	1.475302	-0.032837	0.713803
O227	O	0.552009	0.002294	-0.000122
O228	O	1.052009	0.502294	0.499878
C229	C	0.613751	-0.056072	0.004224
C230	C	1.113751	0.443928	0.504224
H231	H	0.668072	-0.029323	0.029532
H232	H	1.168072	0.470677	0.529532
H233	H	0.594541	-0.105783	0.049828
H234	H	1.094541	0.394217	0.549828
H235	H	0.628566	-0.080308	-0.063173
H236	H	1.128566	0.419692	0.436827
O237	O	0.811905	0.273795	0.186283
O238	O	1.311905	0.773795	0.686283
C239	C	0.762116	0.320646	0.242333
C240	C	1.262116	0.820646	0.742333
H241	H	0.791201	0.326471	0.306620
H242	H	1.291201	0.826471	0.806620
H243	H	0.751545	0.381496	0.211542
H244	H	1.251545	0.881496	0.711542
H245	H	0.703344	0.291858	0.254161
H246	H	1.203344	0.791858	0.754161
O247	O	0.932327	-0.318967	-0.127294
O248	O	1.432327	0.181033	0.372706
C249	C	0.866359	-0.336542	-0.173834
C250	C	1.366359	0.163458	0.326166
H251	H	0.816287	-0.353814	-0.126533
H252	H	1.316287	0.146186	0.373467
H253	H	0.846368	-0.282591	-0.213537
H254	H	1.346368	0.217409	0.286463
H255	H	0.883079	-0.387429	-0.219066
H256	H	1.383079	0.112571	0.280934
O257	O	0.919046	-0.433485	0.112646
O258	O	1.419046	0.066515	0.612646
C259	C	0.987643	-0.390446	0.114135
C260	C	1.487643	0.109554	0.614135
H261	H	1.013757	-0.382747	0.045279
H262	H	1.513757	0.117253	0.545279
H263	H	0.971964	-0.330188	0.142913
H264	H	1.471964	0.169812	0.642913
H265	H	1.032675	-0.423599	0.155417
H266	H	1.532675	0.076401	0.655417
O267	O	1.021713	0.076207	0.201025
O268	O	1.521713	0.576207	0.701025
C269	C	1.065853	0.034686	0.263671
C270	C	1.565853	0.534686	0.763671
H271	H	1.030629	0.034659	0.328411
H272	H	1.530629	0.534659	0.828411
H273	H	1.078910	-0.028513	0.242164
H274	H	1.578910	0.471487	0.742164
H275	H	1.123711	0.064337	0.271096
H276	H	1.623711	0.564337	0.771096
