data_functionalizedCrystal
_audit_creation_method	'MofGen! by Chris Wilmer'
_symmetry_space_group_name_H-M	'P1'
_symmetry_Int_Tables_number	1
_symmetry_cell_setting	triclinic
loop_
_symmetry_equiv_pos_as_xyz
  x,y,z
_cell_length_a	19.077105
_cell_length_b	16.120484
_cell_length_c	19.077174
_cell_angle_alpha	95.281307
_cell_angle_beta	85.483752
_cell_angle_gamma	90.738523
loop_
_atom_site_label
_atom_site_type_symbol
_atom_site_fract_x
_atom_site_fract_y
_atom_site_fract_z
Zn1	Zn	1.077028	-0.405078	-0.458497
Zn2	Zn	1.066713	-0.538658	-0.346101
Zn3	Zn	0.954893	-0.393424	-0.335415
Zn4	Zn	0.953609	-0.538603	-0.459216
O5	O	1.013061	-0.468941	-0.399807
O6	O	1.174108	-0.427698	-0.447758
O7	O	1.048100	-0.514538	-0.245834
O8	O	0.975948	-0.278308	-0.346969
O9	O	1.166530	-0.525838	-0.365181
O10	O	1.065680	-0.286870	-0.437397
O11	O	0.965946	-0.407835	-0.237983
O12	O	0.856274	-0.407782	-0.347667
O13	O	0.973761	-0.525745	-0.557970
O14	O	0.855331	-0.514445	-0.438623
O15	O	1.064436	-0.427645	-0.557441
O16	O	1.046856	-0.655312	-0.365879
O17	O	0.963759	-0.655272	-0.448984
C18	C	0.830276	-0.459844	-0.392064
C19	C	0.752080	-0.455973	-0.388769
C20	C	0.714864	-0.509765	-0.434509
C21	C	0.641391	-0.506117	-0.431416
C22	C	0.605135	-0.448680	-0.382579
C23	C	0.642355	-0.394883	-0.336836
C24	C	0.715827	-0.398527	-0.339933
C25	C	0.385448	-0.431813	-0.368249
C26	C	0.311971	-0.428174	-0.365154
C27	C	0.311012	-0.539408	-0.459734
C28	C	0.384485	-0.543051	-0.462824
C29	C	0.421700	-0.489250	-0.417085
N30	N	0.530033	-0.444952	-0.379414
N31	N	0.496800	-0.492975	-0.420253
C32	C	1.004068	-0.685543	-0.408685
C33	C	1.000287	-0.778211	-0.412510
C34	C	0.993387	-0.947877	-0.419507
C35	C	1.032861	-0.989171	-0.380125
C36	C	1.029022	-1.083579	-0.384018
C37	C	0.997225	-0.853460	-0.415614
C38	C	1.196559	-0.478074	-0.407581
C39	C	1.274755	-0.481966	-0.410894
C40	C	1.020106	-0.477989	-0.584053
C41	C	1.023108	-0.481845	-0.662568
C42	C	1.022108	-0.251494	-0.390911
C43	C	1.025963	-0.158832	-0.387120
C44	C	0.981747	-0.428103	-0.695366
C45	C	0.984565	-0.431733	-0.769139
C46	C	1.028748	-0.489101	-0.810112
C47	C	1.070110	-0.542848	-0.777309
C48	C	1.067288	-0.539222	-0.703537
C49	C	1.041771	-0.505907	-1.031184
C50	C	1.044591	-0.509528	-1.104961
C51	C	0.959044	-0.398413	-1.096786
C52	C	0.956230	-0.394788	-1.023013
C53	C	0.997589	-0.448538	-0.990216
N54	N	1.031631	-0.492811	-0.885520
N55	N	0.994702	-0.444832	-0.914810
C56	C	1.006086	-0.459870	-0.216277
C57	C	1.003230	-0.455786	-0.137759
H58	H	0.611094	-0.549920	-0.468662
C59	C	1.082390	-0.941150	-0.330606
H60	H	1.078493	-0.883076	-0.334439
H61	H	1.129489	-0.958160	-0.343535
H62	H	1.069724	-0.952578	-0.283281
C63	C	0.943837	-0.995891	-0.468999
H64	H	0.919575	-0.957570	-0.493201
H65	H	0.910819	-1.027060	-0.442027
H66	H	0.970553	-1.032664	-0.502313
C67	C	0.602478	-0.331701	-0.283117
H68	H	0.635168	-0.300181	-0.256324
H69	H	0.571311	-0.360597	-0.252390
H70	H	0.576364	-0.295332	-0.307499
H71	H	0.746127	-0.354720	-0.302690
C72	C	0.424364	-0.606259	-0.516519
H73	H	0.473450	-0.600739	-0.511799
H74	H	0.414666	-0.595916	-0.563006
H75	H	0.409583	-0.661134	-0.507857
H76	H	0.945773	-0.381383	-0.662010
H77	H	0.950882	-0.387973	-0.795840
C78	C	0.754743	-0.572949	-0.488225
H79	H	0.803831	-0.567424	-0.483515
H80	H	0.745032	-0.562575	-0.534701
H81	H	0.739975	-0.627836	-0.479588
H82	H	0.920249	-0.348075	-0.989657
H83	H	1.106081	-0.589563	-0.810675
C84	C	1.087276	-0.565018	-0.995117
H85	H	1.114000	-0.599693	-1.030086
H86	H	1.057759	-0.598593	-0.966682
H87	H	1.118157	-0.533229	-0.966336
H88	H	1.100974	-0.582978	-0.676834
H89	H	0.280704	-0.583208	-0.496974
C90	C	0.913544	-0.339302	-1.132864
H91	H	0.921546	-0.349682	-1.182668
H92	H	0.925703	-0.283205	-1.118921
H93	H	0.865304	-0.348568	-1.119269
C94	C	0.272090	-0.364986	-0.311435
H95	H	0.304776	-0.333461	-0.284642
H96	H	0.240923	-0.393883	-0.280707
H97	H	0.245974	-0.328623	-0.335821
H98	H	1.080573	-0.556245	-1.138320
H99	H	0.415739	-0.388011	-0.330999
