data_functionalizedCrystal
_audit_creation_method	'MofGen! by Chris Wilmer'
_symmetry_space_group_name_H-M	'P1'
_symmetry_Int_Tables_number	1
_symmetry_cell_setting	triclinic
loop_
_symmetry_equiv_pos_as_xyz
  x,y,z
_cell_length_a	12.759401
_cell_length_b	12.827892
_cell_length_c	12.759393
_cell_angle_alpha	89.968954
_cell_angle_beta	89.978838
_cell_angle_gamma	90.017125
loop_
_atom_site_label
_atom_site_type_symbol
_atom_site_fract_x
_atom_site_fract_y
_atom_site_fract_z
Zn1	Zn	1.606250	-0.415923	-0.594060
Zn2	Zn	1.606143	-0.590704	-0.418382
Zn3	Zn	1.430552	-0.415983	-0.418391
Zn4	Zn	1.430539	-0.590628	-0.594015
O5	O	1.518371	-0.503309	-0.506212
O6	O	1.753257	-0.439115	-0.570771
O7	O	1.582811	-0.567583	-0.271362
O8	O	1.453910	-0.269739	-0.441717
O9	O	1.753178	-0.567525	-0.441701
O10	O	1.582994	-0.269695	-0.570780
O11	O	1.453805	-0.439216	-0.271369
O12	O	1.283530	-0.439143	-0.441673
O13	O	1.453887	-0.567396	-0.741042
O14	O	1.283520	-0.567454	-0.570703
O15	O	1.582981	-0.439041	-0.741075
O16	O	1.582798	-0.736930	-0.441657
O17	O	1.453782	-0.736874	-0.570694
C18	C	1.245404	-0.503298	-0.506185
C19	C	1.128627	-0.503318	-0.506198
C20	C	0.964063	-0.570230	-0.573314
C21	C	1.073787	-0.570228	-0.573286
C22	C	1.073738	-0.436412	-0.439128
C23	C	0.964016	-0.436420	-0.439152
C24	C	0.964092	-0.647485	-0.650772
C25	C	1.073816	-0.647483	-0.650744
C26	C	1.518305	-0.774819	-0.506192
C27	C	1.518373	-0.890972	-0.506219
C28	C	1.582220	-0.942652	-0.570141
C29	C	1.582292	-1.062702	-0.570170
C30	C	1.792404	-0.503322	-0.506240
C31	C	1.909181	-0.503327	-0.506251
C32	C	1.518445	-0.503204	-0.780245
C33	C	1.518476	-0.503159	-0.897022
C34	C	1.518466	-0.230739	-0.506254
C35	C	1.518506	-0.114586	-0.506273
C36	C	1.585705	-0.436318	-0.951903
C37	C	1.585730	-0.436280	-1.061627
C38	C	1.451294	-0.569933	-1.061580
C39	C	1.451265	-0.569965	-0.951858
C40	C	1.663323	-0.359158	-0.951931
C41	C	1.663348	-0.359120	-1.061655
C42	C	1.518358	-0.503339	-0.233245
C43	C	1.518530	-0.503090	-0.116468
H44	H	0.934284	-0.728399	-0.628852
C45	C	0.904618	-0.363675	-0.366293
C46	C	0.976128	-0.305062	-0.307549
C47	C	0.921450	-0.238027	-0.240426
H48	H	0.861776	-0.403489	-0.320368
H49	H	0.861872	-0.318131	-0.406541
H50	H	1.018856	-0.350600	-0.267304
H51	H	1.018973	-0.265227	-0.353445
H52	H	0.878704	-0.192483	-0.280675
H53	H	0.878609	-0.277849	-0.194509
H54	H	0.969960	-0.198244	-0.200568
C55	C	0.918630	-0.609130	-0.753911
C56	C	0.856915	-0.687785	-0.798367
C57	C	0.815009	-0.652483	-0.893369
H58	H	0.974004	-0.591755	-0.800539
H59	H	0.876673	-0.549207	-0.741565
H60	H	0.898870	-0.747690	-0.810717
H61	H	0.801525	-0.705169	-0.751768
H62	H	0.773052	-0.592559	-0.881023
H63	H	0.870389	-0.635108	-0.939989
H64	H	0.773123	-0.705841	-0.923540
H65	H	1.463845	-1.070150	-0.451539
C66	C	1.766356	-0.397658	-0.906396
C67	C	1.810944	-0.319080	-0.844695
C68	C	1.905848	-0.354516	-0.802718
H69	H	1.812979	-0.415072	-0.961735
H70	H	1.753860	-0.457580	-0.864416
H71	H	1.823444	-0.259176	-0.886672
H72	H	1.764351	-0.301656	-0.789339
H73	H	1.893352	-0.414438	-0.760738
H74	H	1.952462	-0.371930	-0.858063
H75	H	1.936108	-0.301210	-0.760841
H76	H	1.636825	-0.898023	-0.624850
H77	H	1.634236	-0.282225	-1.095701
C78	C	1.445439	-0.950284	-0.433232
C79	C	1.386504	-0.879341	-0.374272
C80	C	1.319294	-0.933937	-0.307034
H81	H	1.485600	-0.992869	-0.387449
H82	H	1.399647	-0.992849	-0.473407
H83	H	1.432290	-0.836794	-0.334100
H84	H	1.346322	-0.836754	-0.420027
H85	H	1.273502	-0.976502	-0.347209
H86	H	1.359463	-0.976520	-0.261258
H87	H	1.279292	-0.885811	-0.267029
C88	C	1.133465	-0.363808	-0.366399
C89	C	1.241302	-0.378103	-0.380745
C90	C	1.296352	-0.311226	-0.313775
H91	H	1.115561	-0.378955	-0.295745
H92	H	1.115572	-0.293589	-0.381910
H93	H	1.259188	-0.448305	-0.365227
H94	H	1.259237	-0.362948	-0.451386
H95	H	1.278459	-0.241008	-0.329286
H96	H	1.278440	-0.326379	-0.243125
H97	H	1.369525	-0.320909	-0.323507
C98	C	1.634221	-0.251199	-0.912448
C99	C	1.616449	-0.185128	-0.997989
C100	C	1.589623	-0.085676	-0.961657
H101	H	1.689854	-0.224187	-0.871123
H102	H	1.572427	-0.255566	-0.871111
H103	H	1.678235	-0.180757	-1.039309
H104	H	1.560811	-0.212106	-1.039322
H105	H	1.527829	-0.090044	-0.920321
H106	H	1.645260	-0.058675	-0.920333
H107	H	1.577552	-0.040837	-1.019691
H108	H	1.744719	-0.380794	-1.091438
C109	C	1.655290	-1.121765	-0.643193
C110	C	1.714137	-1.050625	-0.702122
C111	C	1.781403	-1.104997	-0.769396
H112	H	1.615174	-1.164346	-0.688994
H113	H	1.701136	-1.164314	-0.603046
H114	H	1.668297	-1.008094	-0.742266
H115	H	1.754275	-1.008041	-0.656348
H116	H	1.827249	-1.147546	-0.729249
H117	H	1.741278	-1.147576	-0.815190
H118	H	1.821345	-1.056737	-0.809380
H119	H	1.107810	-0.724333	-0.621460
H120	H	1.396517	-0.624389	-0.907178
C121	C	1.378446	-0.642429	-1.121308
C122	C	1.392876	-0.628114	-1.229145
C123	C	1.325798	-0.694892	-1.284196
H124	H	1.307814	-0.627205	-1.103447
H125	H	1.393805	-0.712672	-1.103372
H126	H	1.377510	-0.557887	-1.247073
H127	H	1.463495	-0.643346	-1.247036
H128	H	1.341156	-0.765135	-1.266260
H129	H	1.255169	-0.679662	-1.266327
H130	H	1.335586	-0.685196	-1.357369
C131	C	1.113463	-0.618836	-0.759365
C132	C	1.076754	-0.691808	-0.832202
C133	C	1.113245	-0.665444	-0.932269
H134	H	1.187909	-0.618853	-0.759495
H135	H	1.088652	-0.551434	-0.777714
H136	H	1.101570	-0.759193	-0.813857
H137	H	1.002312	-0.691802	-0.832105
H138	H	1.088435	-0.598042	-0.950619
H139	H	1.187691	-0.665461	-0.932388
H140	H	1.088336	-0.714945	-0.981702
