data_functionalizedCrystal
_audit_creation_method	'MofGen! by Chris Wilmer'
_symmetry_space_group_name_H-M	'P1'
_symmetry_Int_Tables_number	1
_symmetry_cell_setting	triclinic
loop_
_symmetry_equiv_pos_as_xyz
  x,y,z
_cell_length_a	16.109301
_cell_length_b	15.186229
_cell_length_c	16.109301
_cell_angle_alpha	90.005167
_cell_angle_beta	83.461532
_cell_angle_gamma	90.000994
loop_
_atom_site_label
_atom_site_type_symbol
_atom_site_fract_x
_atom_site_fract_y
_atom_site_fract_z
O1	O	1.103130	0.073183	0.106867
O2	O	1.603130	0.573183	0.606867
O3	O	0.861069	0.073196	0.120166
O4	O	1.361069	0.573196	0.620166
O5	O	0.988749	0.073180	-0.007514
O6	O	1.488749	0.573180	0.492486
O7	O	0.975450	0.073199	0.234548
O8	O	1.475450	0.573199	0.734548
O9	O	0.988741	-0.073277	-0.007516
O10	O	1.488741	0.426723	0.492484
O11	O	0.861060	-0.073262	0.120164
O12	O	1.361060	0.426738	0.620164
O13	O	1.103122	-0.073274	0.106865
O14	O	1.603122	0.426726	0.606865
Zn15	Zn	0.982090	-0.096521	0.113515
Zn16	Zn	1.482090	0.403479	0.613515
Zn17	Zn	0.982101	0.096443	0.113517
Zn18	Zn	1.482101	0.596443	0.613517
O19	O	0.975441	-0.073259	0.234546
O20	O	1.475441	0.426741	0.734546
C21	C	0.830089	-0.000031	0.119627
C22	C	1.330089	0.499969	0.619627
C23	C	0.737794	-0.000027	0.118011
C24	C	1.237794	0.499973	0.618011
N25	N	0.982088	-0.228214	0.113512
N26	N	1.482088	0.271786	0.613512
C27	C	0.428796	-0.000037	0.188494
C28	C	0.928796	0.499963	0.688494
C29	C	0.515516	-0.000032	0.190020
C30	C	1.015516	0.499968	0.690020
C31	C	0.535389	-0.000031	0.038531
C32	C	1.035389	0.499969	0.538531
C33	C	0.448671	-0.000030	0.037007
C34	C	0.948671	0.499970	0.537007
C35	C	0.395376	-0.000037	0.111991
C36	C	0.895376	0.499963	0.611991
C37	C	0.568815	-0.000033	0.115041
C38	C	1.068815	0.499967	0.615041
C39	C	0.662841	-0.000028	0.116694
C40	C	1.162841	0.499972	0.616694
C41	C	0.301344	-0.000041	0.110338
C42	C	0.801344	0.499959	0.610338
C43	C	1.038644	-0.453944	0.056994
C44	C	1.538644	0.046056	0.556994
C45	C	1.038647	-0.546133	0.056992
C46	C	1.538647	-0.046133	0.556992
C47	C	0.925547	-0.546128	0.170033
C48	C	1.425547	-0.046128	0.670033
C49	C	0.925541	-0.453940	0.170030
C50	C	1.425541	0.046060	0.670030
C51	C	0.982094	-0.407850	0.113512
C52	C	1.482094	0.092150	0.613512
C53	C	0.982103	-0.592228	0.113513
C54	C	1.482103	-0.092228	0.613513
C55	C	0.982105	-0.692184	0.113511
C56	C	1.482105	-0.192184	0.613511
C57	C	0.982091	-0.307888	0.113512
C58	C	1.482091	0.192112	0.613512
C59	C	1.134101	-0.000045	0.107405
C60	C	1.634101	0.499955	0.607405
C61	C	1.226396	-0.000044	0.109020
C62	C	1.726396	0.499956	0.609020
C63	C	0.988206	-0.000049	-0.038490
C64	C	1.488206	0.499951	0.461510
C65	C	0.986591	-0.000050	-0.130785
C66	C	1.486591	0.499950	0.369215
N67	N	0.982109	0.228135	0.113512
N68	N	1.482109	0.728135	0.613512
C69	C	1.058599	-0.000040	-0.353058
C70	C	1.558599	0.499960	0.146942
C71	C	1.057075	-0.000033	-0.439778
C72	C	1.557075	0.499967	0.060222
C73	C	0.905586	-0.000028	-0.419904
C74	C	1.405586	0.499972	0.080096
C75	C	0.907111	-0.000029	-0.333185
C76	C	1.407111	0.499971	0.166815
C77	C	0.983620	-0.000040	-0.299765
C78	C	1.483620	0.499960	0.200235
C79	C	0.980571	-0.000031	-0.473204
C80	C	1.480571	0.499969	0.026796
C81	C	0.978918	-0.000023	-0.567230
C82	C	1.478918	0.499977	-0.067230
C83	C	0.985273	-0.000046	-0.205733
C84	C	1.485273	0.499954	0.294267
C85	C	0.975984	-0.000028	0.265522
C86	C	1.475984	0.499972	0.765522
C87	C	0.977599	-0.000021	0.357817
C88	C	1.477599	0.499979	0.857817
H89	H	0.385405	-0.000042	0.249551
H90	H	0.885405	0.499958	0.749551
F91	F	0.413101	-0.000022	-0.044423
F92	F	0.913101	0.499978	0.455577
H93	H	1.118130	-0.000031	-0.483167
H94	H	1.618130	0.499969	0.016833
F95	F	0.551080	-0.000027	0.271445
F96	F	1.051080	0.499973	0.771445
F97	F	0.865346	-0.404881	0.230184
F98	F	1.365346	0.095119	0.730184
H99	H	1.084692	-0.416419	0.010973
H100	H	1.584692	0.083581	0.510973
F101	F	0.824164	-0.000017	-0.455480
F102	F	1.324164	0.499983	0.044520
F103	F	0.592116	-0.000030	-0.041268
F104	F	1.092116	0.499970	0.458732
H105	H	0.846050	-0.000026	-0.289791
H106	H	1.346050	0.499974	0.210209
H107	H	1.084694	-0.583660	0.010970
H108	H	1.584694	-0.083660	0.510970
H109	H	1.120897	-0.000047	-0.325850
H110	H	1.620897	0.499953	0.174150
H111	H	0.879503	-0.583664	0.216050
H112	H	1.379503	-0.083664	0.716050
