data_functionalizedCrystal
_audit_creation_method	'MofGen! by Chris Wilmer'
_symmetry_space_group_name_H-M	'P1'
_symmetry_Int_Tables_number	1
_symmetry_cell_setting	triclinic
loop_
_symmetry_equiv_pos_as_xyz
  x,y,z
_cell_length_a	19.288862
_cell_length_b	11.892095
_cell_length_c	19.288857
_cell_angle_alpha	86.126649
_cell_angle_beta	96.865805
_cell_angle_gamma	86.097956
loop_
_atom_site_label
_atom_site_type_symbol
_atom_site_fract_x
_atom_site_fract_y
_atom_site_fract_z
O1	O	-0.925823	0.094446	0.082165
O2	O	-0.723558	0.094354	0.093860
O3	O	-0.830537	0.094389	-0.013118
O4	O	-0.818844	0.094411	0.189142
O5	O	-0.821617	-0.093621	-0.004212
O6	O	-0.714638	-0.093657	0.102765
O7	O	-0.916903	-0.093564	0.091071
Zn8	Zn	-0.814354	-0.123461	0.098332
Zn9	Zn	-0.826107	0.124251	0.086598
O10	O	-0.809924	-0.093599	0.198048
C11	C	-0.693221	0.000337	0.097937
C12	C	-0.616115	0.000301	0.096811
N13	N	-0.806339	-0.292518	0.106340
C14	C	-0.571418	0.000322	0.159578
C15	C	-0.498971	0.000328	0.158518
C16	C	-0.471226	0.000337	0.094685
C17	C	-0.515933	0.000309	0.031910
C18	C	-0.588377	0.000291	0.032972
C19	C	-0.366091	0.066229	0.041385
C20	C	-0.293648	0.066254	0.040325
C21	C	-0.247783	0.000387	0.091405
C22	C	-0.274369	-0.065490	0.143557
C23	C	-0.346813	-0.065508	0.144619
C24	C	-0.392673	0.000355	0.093526
C25	C	-0.124530	0.000413	0.153027
C26	C	-0.052082	0.000413	0.151964
C27	C	-0.069045	0.000405	0.025354
C28	C	-0.141491	0.000394	0.026419
C29	C	-0.169229	0.000404	0.090257
C30	C	-0.889903	-0.529138	0.022824
C31	C	-0.884305	-0.647482	0.028427
C32	C	-0.789543	-0.647551	0.123143
C33	C	-0.795141	-0.529207	0.117541
C34	C	-0.845323	-0.470005	0.067380
C35	C	-0.850923	-0.351659	0.061782
C36	C	-0.756159	-0.351731	0.156494
C37	C	-0.750561	-0.470074	0.162097
C38	C	0.052761	0.000436	0.086996
C39	C	-0.024341	0.000419	0.088131
C40	C	-0.825702	0.000383	-0.034542
C41	C	-0.824575	0.000379	-0.111645
N42	N	-0.834127	0.293308	0.078585
C43	C	-0.828911	0.102863	-0.152711
C44	C	-0.827843	0.102871	-0.225157
C45	C	-0.822452	0.000389	-0.256537
C46	C	-0.818111	-0.102109	-0.215462
C47	C	-0.819172	-0.102114	-0.143016
C48	C	-0.857730	-0.078101	-0.373051
C49	C	-0.856673	-0.078091	-0.445496
C50	C	-0.819174	0.000400	-0.479983
C51	C	-0.782743	0.078902	-0.442018
C52	C	-0.783805	0.078897	-0.369573
C53	C	-0.821300	0.000383	-0.335092
C54	C	-0.822352	0.102900	-0.599603
C55	C	-0.821279	0.102904	-0.672050
C56	C	-0.811554	-0.102079	-0.662354
C57	C	-0.812620	-0.102080	-0.589908
C58	C	-0.818022	0.000413	-0.558537
C59	C	-0.814759	0.000410	0.219472
C60	C	-0.815887	0.000421	0.296575
H61	H	-0.462572	0.000343	0.209632
O62	O	-0.812966	-0.201731	-0.245875
C63	C	-0.864511	-0.376870	-0.267855
C64	C	-0.870420	-0.264097	-0.233366
H65	H	-0.910963	-0.427315	-0.257766
H66	H	-0.813750	-0.427509	-0.244698
H67	H	-0.864466	-0.359232	-0.326682
H68	H	-0.870494	-0.281632	-0.174539
H69	H	-0.921174	-0.213493	-0.256578
O70	O	-0.229837	-0.129553	0.193156
C71	C	-0.192583	-0.316669	0.245961
C72	C	-0.243109	-0.244318	0.189777
H73	H	-0.203286	-0.409474	0.243239
H74	H	-0.200743	-0.288929	0.300024
H75	H	-0.136276	-0.305166	0.236182
H76	H	-0.299436	-0.255787	0.199490
H77	H	-0.234889	-0.272076	0.135734
O78	O	-0.410613	0.130394	-0.008176
C79	C	-0.447610	0.317612	-0.060957
C80	C	-0.397160	0.245086	-0.004793
H81	H	-0.436742	0.410353	-0.058250
H82	H	-0.503967	0.306380	-0.051244
H83	H	-0.439439	0.289775	-0.114994
H84	H	-0.405268	0.272876	0.049267
H85	H	-0.340822	0.256325	-0.014567
H86	H	-0.826746	0.186356	-0.574059
O87	O	-0.938667	-0.471797	-0.025954
C88	C	-1.032103	-0.484213	-0.119273
C89	C	-0.976897	-0.549289	-0.064073
H90	H	-1.063037	-0.546837	-0.150097
H91	H	-1.004883	-0.428866	-0.156565
H92	H	-1.069294	-0.428745	-0.091982
H93	H	-0.939689	-0.604819	-0.091304
H94	H	-1.004164	-0.604565	-0.026785
O95	O	-0.598398	0.000541	0.221565
C96	C	-0.675006	0.097939	0.291612
C97	C	-0.644495	0.097835	0.221387
H98	H	-0.712293	0.176580	0.291486
H99	H	-0.630634	0.098035	0.336309
H100	H	-0.704716	0.019220	0.299013
H101	H	-0.614793	0.176540	0.213918
H102	H	-0.688897	0.097679	0.176726
O103	O	-0.746398	0.155301	-0.475493
C104	C	-0.731901	0.352106	-0.503782
C105	C	-0.773127	0.265709	-0.465854
H106	H	-0.753485	0.441390	-0.495990
H107	H	-0.737403	0.338726	-0.562095
H108	H	-0.674252	0.340153	-0.481296
H109	H	-0.830790	0.277609	-0.488281
H110	H	-0.767566	0.279112	-0.407543
H111	H	-0.272008	0.119899	-0.002137
O112	O	-0.631878	0.000430	-0.027965
C113	C	-0.728130	0.097853	-0.104875
C114	C	-0.678921	0.097818	-0.035837
H115	H	-0.766167	0.176595	-0.111269
H116	H	-0.758771	0.019220	-0.103828
H117	H	-0.695841	0.097801	-0.150668
H118	H	-0.711157	0.097910	0.009993
H119	H	-0.648277	0.176444	-0.036945
O120	O	-0.701784	-0.527716	0.210730
C121	C	-0.600533	-0.661356	0.232091
C122	C	-0.655739	-0.596171	0.176940
H123	H	-0.563282	-0.716700	0.204792
H124	H	-0.627752	-0.716812	0.269325
H125	H	-0.569664	-0.598742	0.262990
H126	H	-0.686624	-0.658703	0.145991
H127	H	-0.628477	-0.540698	0.139753
O128	O	-0.184895	0.000588	-0.034583
C129	C	-0.226171	0.097946	-0.147099
C130	C	-0.176996	0.097885	-0.078037
H131	H	-0.219791	0.176590	-0.182257
H132	H	-0.282732	0.098005	-0.135422
H133	H	-0.212357	0.019229	-0.174768
H134	H	-0.190746	0.176588	-0.050334
H135	H	-0.120449	0.097767	-0.089761
O136	O	-0.489073	0.000472	-0.030148
C137	C	-0.486020	0.097908	-0.143281
C138	C	-0.516502	0.097857	-0.073037
H139	H	-0.508172	0.176647	-0.177970
H140	H	-0.500712	0.019272	-0.170613
H141	H	-0.426562	0.097874	-0.133239
H142	H	-0.575962	0.097931	-0.083017
H143	H	-0.501756	0.176486	-0.045727
O144	O	-0.712751	-0.294409	0.199756
C145	C	-0.593567	-0.258228	0.239040
C146	C	-0.642639	-0.323236	0.190022
H147	H	-0.536872	-0.281492	0.231176
H148	H	-0.601285	-0.281509	0.295766
H149	H	-0.606226	-0.163481	0.226431
H150	H	-0.630011	-0.417998	0.202567
H151	H	-0.634912	-0.299861	0.133309
H152	H	-0.748682	-0.695769	0.163978
O153	O	-0.834123	0.202523	-0.122345
C154	C	-0.843700	0.405834	-0.139617
C155	C	-0.837786	0.293053	-0.174095
H156	H	-0.846678	0.479057	-0.181442
H157	H	-0.795831	0.411015	-0.099453
H158	H	-0.893025	0.410917	-0.112428
H159	H	-0.788490	0.287895	-0.201322
H160	H	-0.885690	0.287920	-0.214221
H161	H	-0.920605	-0.695624	-0.007856
H162	H	-0.831369	0.186329	-0.258598
O163	O	-0.748367	0.154989	-0.332602
C164	C	-0.657578	0.183454	-0.239674
C165	C	-0.697667	0.097161	-0.281477
H166	H	-0.616568	0.136734	-0.198340
H167	H	-0.695827	0.237940	-0.212997
H168	H	-0.630627	0.239584	-0.276778
H169	H	-0.724620	0.040956	-0.244421
H170	H	-0.659385	0.042755	-0.308163
O171	O	-0.899685	-0.294322	0.012999
C172	C	-0.993108	-0.306749	-0.080331
C173	C	-0.937907	-0.371819	-0.025124
H174	H	-1.024035	-0.369378	-0.111158
H175	H	-0.965883	-0.251403	-0.117620
H176	H	-1.030305	-0.251282	-0.053048
H177	H	-0.900693	-0.427349	-0.052348
H178	H	-0.965178	-0.427094	0.012161
H179	H	-0.824807	0.186363	-0.705485
O180	O	-0.806188	-0.201667	-0.692772
C181	C	-0.737397	-0.376915	-0.698537
C182	C	-0.743385	-0.264154	-0.664046
H183	H	-0.686632	-0.427477	-0.675315
H184	H	-0.737330	-0.359391	-0.757370
H185	H	-0.783830	-0.427390	-0.688426
H186	H	-0.696964	-0.213622	-0.674103
H187	H	-0.743485	-0.281757	-0.605224
O188	O	-0.008761	0.000481	0.213002
C189	C	0.000418	0.000438	0.338694
C190	C	-0.048724	0.000388	0.269619
H191	H	-0.031871	0.000339	0.384488
H192	H	0.030994	0.079144	0.337679
H193	H	0.038523	-0.078220	0.345053
H194	H	-0.086870	0.078993	0.263216
H195	H	-0.079250	-0.078370	0.270666
O196	O	-0.808296	-0.201607	-0.549970
C197	C	-0.743715	-0.320577	-0.454463
C198	C	-0.748521	-0.207829	-0.499650
H199	H	-0.695399	-0.325634	-0.413759
H200	H	-0.739632	-0.393868	-0.489295
H201	H	-0.792592	-0.325665	-0.426851
H202	H	-0.699657	-0.202630	-0.527269
H203	H	-0.752638	-0.134591	-0.464783
O204	O	-0.892169	-0.154301	-0.482304
C205	C	-1.004102	-0.225814	-0.516588
C206	C	-0.963981	-0.139462	-0.474867
H207	H	-1.062170	-0.213830	-0.510601
H208	H	-0.982960	-0.315136	-0.495812
H209	H	-0.996877	-0.212350	-0.574284
H210	H	-0.971189	-0.152821	-0.417163
H211	H	-0.985130	-0.050170	-0.495701
H212	H	-0.888264	-0.142027	-0.344977
O213	O	-0.814842	-0.201642	-0.103075
C214	C	-0.750261	-0.320598	-0.007562
C215	C	-0.755070	-0.207854	-0.052754
H216	H	-0.701947	-0.325646	0.033143
H217	H	-0.746175	-0.393893	-0.042390
H218	H	-0.799140	-0.325686	0.020049
H219	H	-0.706205	-0.202656	-0.080372
H220	H	-0.759190	-0.134612	-0.017891
O221	O	-0.372725	-0.129577	0.195180
C222	C	-0.444917	-0.280727	0.221140
C223	C	-0.415635	-0.208226	0.163812
H224	H	-0.479604	-0.344347	0.195802
H225	H	-0.477091	-0.223809	0.252593
H226	H	-0.399684	-0.327749	0.257478
H227	H	-0.460825	-0.161193	0.127427
H228	H	-0.383441	-0.265202	0.132412
O229	O	-0.151524	0.000605	0.215009
C230	C	-0.228154	0.097948	0.285059
C231	C	-0.197625	0.097890	0.214842
H232	H	-0.265444	0.176583	0.284942
H233	H	-0.183791	0.098024	0.329768
H234	H	-0.257863	0.019223	0.292434
H235	H	-0.167923	0.176602	0.207400
H236	H	-0.242018	0.097756	0.170170
O237	O	-0.041989	0.000465	-0.036595
C238	C	0.062101	0.000421	-0.094342
C239	C	0.031549	0.000383	-0.024135
H240	H	0.121561	0.000331	-0.084291
H241	H	0.039972	0.079118	-0.129086
H242	H	0.047386	-0.078246	-0.121624
H243	H	0.046253	0.078998	0.003206
H244	H	0.053677	-0.078365	0.010558
