data_functionalizedCrystal
_audit_creation_method	'MofGen! by Chris Wilmer'
_symmetry_space_group_name_H-M	'P1'
_symmetry_Int_Tables_number	1
_symmetry_cell_setting	triclinic
loop_
_symmetry_equiv_pos_as_xyz
  x,y,z
_cell_length_a	14.971486
_cell_length_b	14.971486
_cell_length_c	13.448316
_cell_angle_alpha	89.993189
_cell_angle_beta	89.998199
_cell_angle_gamma	83.614129
loop_
_atom_site_label
_atom_site_type_symbol
_atom_site_fract_x
_atom_site_fract_y
_atom_site_fract_z
O1	O	1.186947	0.116565	-0.082578
O2	O	0.926547	0.130524	-0.082605
O3	O	1.063727	-0.006656	-0.082584
O4	O	1.049768	0.253744	-0.082599
O5	O	1.063709	-0.006664	0.082800
O6	O	0.926530	0.130515	0.082779
O7	O	1.186930	0.116556	0.082806
Cu8	Cu	1.056728	0.123535	0.097893
Cu9	Cu	1.056749	0.123545	-0.097692
O10	O	1.049751	0.253736	0.082784
C11	C	0.893214	0.129895	0.000083
C12	C	0.793917	0.128024	0.000073
C13	C	0.736692	0.208614	0.000070
C14	C	0.643392	0.206850	0.000085
C15	C	0.607320	0.124497	0.000096
C16	C	0.664552	0.043902	0.000102
C17	C	0.757850	0.045666	0.000095
C18	C	0.470090	0.040231	0.000116
C19	C	0.376786	0.038466	0.000122
C20	C	0.355632	0.201415	0.000106
C21	C	0.448930	0.203179	0.000099
C22	C	0.506156	0.122584	0.000103
C23	C	1.063094	-0.039985	0.000108
C24	C	1.061223	-0.139282	0.000107
C25	C	1.141812	-0.196507	0.000116
C26	C	1.140049	-0.289807	0.000106
C27	C	1.057696	-0.325879	0.000093
C28	C	0.977101	-0.268646	0.000081
C29	C	0.978865	-0.175349	0.000084
C30	C	0.973430	-0.463109	0.000077
C31	C	0.971665	-0.556413	0.000076
C32	C	1.134614	-0.577567	0.000099
C33	C	1.136378	-0.484269	0.000102
C34	C	1.055782	-0.427043	0.000091
C35	C	1.220263	0.117185	0.000115
C36	C	1.319561	0.119056	0.000119
C37	C	1.050384	0.287065	0.000091
C38	C	1.052254	0.386362	0.000085
N39	N	1.056721	0.123527	0.235457
N40	N	1.056764	0.123545	-0.235257
C41	C	1.117483	0.062809	0.287507
C42	C	1.117488	0.062809	0.391610
C43	C	1.056735	0.123531	0.443662
C44	C	0.995967	0.184252	0.391605
C45	C	0.995958	0.184248	0.287504
C46	C	0.995992	0.184258	0.608585
C47	C	0.996002	0.184264	0.712693
C48	C	1.117522	0.062819	0.712692
C49	C	1.117513	0.062815	0.608591
C50	C	1.056745	0.123537	0.556541
H51	H	0.478296	0.270239	0.000080
H52	H	1.166987	0.013374	0.566210
H53	H	1.200238	-0.624165	0.000104
O54	O	1.176410	0.003682	0.237016
C55	C	1.161773	-0.084872	0.262525
H56	H	1.090158	-0.085401	0.291138
H57	H	1.211308	-0.111048	0.322971
C58	C	1.263568	-0.144879	0.134945
C59	C	1.175607	-0.145530	0.170079
H60	H	1.272105	-0.182298	0.077922
H61	H	1.273433	-0.085219	0.117761
H62	H	1.304838	-0.166690	0.185326
H63	H	1.134339	-0.123709	0.119704
H64	H	1.165735	-0.205188	0.187253
H65	H	0.766054	0.275675	0.000060
H66	H	0.946478	0.233689	0.245125
H67	H	1.208874	-0.167145	0.000132
O68	O	1.218395	-0.345301	-0.000013
C69	C	1.268394	-0.328937	-0.085667
H70	H	1.246507	-0.258186	-0.114224
H71	H	1.256123	-0.379973	-0.145651
C72	C	1.396034	-0.424592	-0.024554
C73	C	1.369157	-0.337691	-0.059623
H74	H	1.458190	-0.429996	-0.008492
H75	H	1.362348	-0.435619	0.033151
H76	H	1.385801	-0.467112	-0.074547
H77	H	1.379380	-0.295174	-0.009626
H78	H	1.402847	-0.326657	-0.117320
H79	H	0.913240	-0.128756	0.000077
H80	H	0.946530	0.233709	0.755069
O81	O	0.895056	-0.407646	0.000109
C82	C	0.821990	-0.459488	0.000075
H83	H	0.844613	-0.529099	0.031387
H84	H	0.796760	-0.466148	-0.079271
C85	C	0.717911	-0.327589	0.026466
C86	C	0.745695	-0.413084	0.064932
H87	H	0.670847	-0.298964	0.066469
H88	H	0.767136	-0.292661	0.026486
H89	H	0.696892	-0.333151	-0.039655
H90	H	0.766724	-0.407520	0.131047
H91	H	0.696472	-0.448010	0.064926
H92	H	1.203437	-0.454903	0.000119
O93	O	1.176552	0.003955	0.442286
C94	C	1.231790	0.051961	0.502468
H95	H	1.196232	0.121893	0.518051
H96	H	1.297897	0.058151	0.462342
C97	C	1.294536	-0.084322	0.582225
C98	C	1.250859	0.001567	0.601371
H99	H	1.306303	-0.115408	0.643231
H100	H	1.257323	-0.116666	0.541677
H101	H	1.349620	-0.079151	0.548784
H102	H	1.195772	-0.003605	0.634800
H103	H	1.288063	0.033908	0.641927
H104	H	0.946505	0.233702	0.566209
H105	H	0.309033	0.267039	0.000107
H106	H	1.167001	0.013377	0.755077
H107	H	0.910047	-0.298024	0.000065
O108	O	0.936914	0.243114	0.442277
C109	C	0.881680	0.195120	0.502495
H110	H	0.917235	0.125187	0.518096
H111	H	0.815566	0.188931	0.462389
C112	C	0.818959	0.331416	0.582213
C113	C	0.862631	0.245525	0.601382
H114	H	0.807205	0.362509	0.643209
H115	H	0.856168	0.363751	0.541641
H116	H	0.763869	0.326246	0.548789
H117	H	0.917725	0.250696	0.634793
H118	H	0.825431	0.213192	0.641962
H119	H	0.596802	0.272474	0.000081
H120	H	0.347419	-0.028593	0.000133
H121	H	0.516682	-0.025399	0.000121
H122	H	0.635175	-0.023152	0.000126
H123	H	0.804443	-0.019958	0.000097
H124	H	0.904606	-0.585780	0.000082
