data_functionalizedCrystal
_audit_creation_method	'MofGen! by Chris Wilmer'
_symmetry_space_group_name_H-M	'P1'
_symmetry_Int_Tables_number	1
_symmetry_cell_setting	triclinic
loop_
_symmetry_equiv_pos_as_xyz
  x,y,z
_cell_length_a	10.908937
_cell_length_b	11.026607
_cell_length_c	10.066281
_cell_angle_alpha	97.650714
_cell_angle_beta	101.441572
_cell_angle_gamma	84.335986
loop_
_atom_site_label
_atom_site_type_symbol
_atom_site_fract_x
_atom_site_fract_y
_atom_site_fract_z
O1	O	1.642842	-0.190947	-0.113528
O2	O	1.289911	-0.100409	-0.113520
O3	O	1.437127	-0.316428	-0.113519
O4	O	1.495626	0.025072	-0.113530
O5	O	1.476307	-0.292663	0.113454
O6	O	1.329091	-0.076644	0.113452
O7	O	1.682023	-0.167182	0.113445
Zn8	Zn	1.511778	-0.118140	0.149485
Zn9	Zn	1.460156	-0.149451	-0.149561
O10	O	1.534807	0.048837	0.113443
C11	C	1.263616	-0.080066	-0.000033
C12	C	1.126890	-0.054868	-0.000030
C13	C	0.915308	-0.120781	-0.000053
C14	C	1.056625	-0.146824	-0.000035
C15	C	1.445924	-0.347578	-0.000034
C16	C	1.413751	-0.475800	-0.000038
C17	C	1.502584	-0.567533	-0.000042
C18	C	1.469334	-0.700058	-0.000046
C19	C	1.708317	-0.187526	-0.000046
C20	C	1.845042	-0.212724	-0.000057
C21	C	1.526009	0.079987	-0.000045
C22	C	1.558181	0.208208	-0.000050
N23	N	1.547017	-0.096773	0.353576
N24	N	1.424924	-0.170829	-0.353652
C25	C	1.472399	-0.142021	0.421386
C26	C	1.499553	-0.125575	0.578542
H27	H	1.603256	-0.547956	-0.000035
N28	N	1.658276	-0.029328	0.430755
H29	H	1.628350	0.044440	0.490049
H30	H	1.716647	-0.085928	0.489945
H31	H	1.340926	-0.221739	0.588063
H32	H	0.870843	-0.022786	-0.000070
H33	H	1.082433	0.043135	-0.000043
N34	N	1.280403	-0.501728	-0.000029
H35	H	1.252681	-0.456104	0.084114
H36	H	1.223716	-0.473729	-0.084219
H37	H	0.889504	-0.310721	-0.000057
N38	N	1.335972	-0.725965	-0.000057
H39	H	1.331121	-0.816964	-0.000061
H40	H	1.308323	-0.680268	0.084087
H41	H	1.388409	-0.192930	0.363094
H42	H	1.583539	-0.074650	0.636829
N43	N	1.115498	-0.276644	-0.000032
H44	H	1.208105	-0.276848	-0.000022
H45	H	1.103342	-0.311145	0.084109
H46	H	1.658840	-0.772235	-0.000155
