data_functionalizedCrystal
_audit_creation_method	'MofGen! by Chris Wilmer'
_symmetry_space_group_name_H-M	'P1'
_symmetry_Int_Tables_number	1
_symmetry_cell_setting	triclinic
loop_
_symmetry_equiv_pos_as_xyz
  x,y,z
_cell_length_a	14.519709
_cell_length_b	23.532407
_cell_length_c	13.596369
_cell_angle_alpha	89.989360
_cell_angle_beta	90.000291
_cell_angle_gamma	83.264412
loop_
_atom_site_label
_atom_site_type_symbol
_atom_site_fract_x
_atom_site_fract_y
_atom_site_fract_z
O1	O	1.222985	0.074654	-0.081674
O2	O	1.472985	0.324654	0.168326
O3	O	1.722985	0.574654	0.418326
O4	O	1.972985	0.824654	0.668326
O5	O	0.954404	0.083445	-0.081705
O6	O	1.204404	0.333445	0.168295
O7	O	1.454404	0.583445	0.418295
O8	O	1.704404	0.833445	0.668295
O9	O	1.096794	-0.003846	-0.081671
O10	O	1.346794	0.246154	0.168329
O11	O	1.596794	0.496154	0.418329
O12	O	1.846794	0.746154	0.668329
O13	O	1.080596	0.161945	-0.081708
O14	O	1.330596	0.411945	0.168292
O15	O	1.580596	0.661945	0.418292
O16	O	1.830596	0.911945	0.668292
O17	O	1.096780	-0.003850	0.081912
O18	O	1.346780	0.246150	0.331912
O19	O	1.596780	0.496150	0.581912
O20	O	1.846780	0.746150	0.831912
O21	O	0.954390	0.083441	0.081878
O22	O	1.204390	0.333441	0.331878
O23	O	1.454390	0.583441	0.581878
O24	O	1.704390	0.833441	0.831878
O25	O	1.222971	0.074649	0.081909
O26	O	1.472971	0.324649	0.331909
O27	O	1.722971	0.574649	0.581909
O28	O	1.972971	0.824649	0.831909
Zn29	Zn	1.088678	0.079044	0.107866
Zn30	Zn	1.338678	0.329044	0.357866
Zn31	Zn	1.588678	0.579044	0.607866
Zn32	Zn	1.838678	0.829044	0.857866
Zn33	Zn	1.088697	0.079050	-0.107662
Zn34	Zn	1.338697	0.329050	0.142338
Zn35	Zn	1.588697	0.579050	0.392338
Zn36	Zn	1.838697	0.829050	0.642338
O37	O	1.080582	0.161940	0.081874
O38	O	1.330582	0.411940	0.331874
O39	O	1.580582	0.661940	0.581874
O40	O	1.830582	0.911940	0.831874
C41	C	0.920042	0.083033	0.000083
C42	C	1.170042	0.333033	0.250083
C43	C	1.420042	0.583033	0.500083
C44	C	1.670042	0.833033	0.750083
C45	C	0.817676	0.081805	0.000071
C46	C	1.067676	0.331805	0.250071
C47	C	1.317676	0.581805	0.500071
C48	C	1.567676	0.831805	0.750071
C49	C	0.442833	0.077286	0.000117
C50	C	0.692833	0.327286	0.250117
C51	C	0.942833	0.577286	0.500117
C52	C	1.192833	0.827286	0.750117
C53	C	0.547126	0.078541	0.000104
C54	C	0.797126	0.328541	0.250104
C55	C	1.047126	0.578541	0.500104
C56	C	1.297126	0.828541	0.750104
C57	C	0.630251	0.079545	0.000093
C58	C	0.880251	0.329545	0.250093
C59	C	1.130251	0.579545	0.500093
C60	C	1.380251	0.829545	0.750093
C61	C	0.734551	0.080801	0.000082
C62	C	0.984551	0.330801	0.250082
C63	C	1.234551	0.580801	0.500082
C64	C	1.484551	0.830801	0.750082
C65	C	1.096374	-0.025066	0.000123
C66	C	1.346374	0.224934	0.250123
C67	C	1.596374	0.474934	0.500123
C68	C	1.846374	0.724934	0.750123
C69	C	1.095134	-0.088288	0.000131
C70	C	1.345134	0.161712	0.250131
C71	C	1.595134	0.411712	0.500131
C72	C	1.845134	0.661712	0.750131
C73	C	1.171619	-0.487046	0.000086
C74	C	1.421619	-0.237046	0.250086
C75	C	1.671619	0.012954	0.500086
C76	C	1.921619	0.262954	0.750086
C77	C	1.170467	-0.546452	0.000078
C78	C	1.420467	-0.296452	0.250078
C79	C	1.670467	-0.046452	0.500078
C80	C	1.920467	0.203548	0.750078
O81	O	1.241369	-0.582876	0.000050
O82	O	1.491369	-0.332876	0.250050
O83	O	1.741369	-0.082876	0.500050
O84	O	1.991369	0.167124	0.750050
N85	N	1.085816	-0.569460	0.000069
N86	N	1.335816	-0.319460	0.250069
N87	N	1.585816	-0.069460	0.500069
N88	N	1.835816	0.180540	0.750069
C89	C	1.002312	-0.533059	0.000057
C90	C	1.252312	-0.283059	0.250057
C91	C	1.502312	-0.033059	0.500057
C92	C	1.752312	0.216941	0.750057
O93	O	0.930205	-0.558084	0.000048
O94	O	1.180205	-0.308084	0.250048
O95	O	1.430205	-0.058084	0.500048
O96	O	1.680205	0.191916	0.750048
C97	C	1.003465	-0.473655	0.000058
C98	C	1.253465	-0.223655	0.250058
C99	C	1.503465	0.026345	0.500058
C100	C	1.753465	0.276345	0.750058
C101	C	1.088121	-0.450650	0.000077
C102	C	1.338121	-0.200650	0.250077
C103	C	1.588121	0.049350	0.500077
C104	C	1.838121	0.299350	0.750077
C105	C	1.256268	-0.464041	0.000104
C106	C	1.506268	-0.214041	0.250104
C107	C	1.756268	0.035959	0.500104
C108	C	2.006268	0.285959	0.750104
C109	C	1.257420	-0.404640	0.000113
C110	C	1.507420	-0.154640	0.250113
C111	C	1.757420	0.095360	0.500113
C112	C	2.007420	0.345360	0.750113
C113	C	1.173922	-0.368244	0.000105
C114	C	1.423922	-0.118244	0.250105
C115	C	1.673922	0.131756	0.500105
C116	C	1.923922	0.381756	0.750105
C117	C	1.089273	-0.391249	0.000087
C118	C	1.339273	-0.141249	0.250087
C119	C	1.589273	0.108751	0.500087
C120	C	1.839273	0.358751	0.750087
C121	C	0.919962	-0.437255	0.000039
C122	C	1.169962	-0.187255	0.250039
C123	C	1.419962	0.062745	0.500039
C124	C	1.669962	0.312745	0.750039
C125	C	0.921123	-0.377847	0.000039
C126	C	1.171123	-0.127847	0.250039
C127	C	1.421123	0.122153	0.500039
C128	C	1.671123	0.372153	0.750039
C129	C	1.005779	-0.354843	0.000058
C130	C	1.255779	-0.104843	0.250058
C131	C	1.505779	0.145157	0.500058
C132	C	1.755779	0.395157	0.750058
C133	C	1.006927	-0.295451	0.000087
C134	C	1.256927	-0.045451	0.250087
C135	C	1.506927	0.204549	0.500087
C136	C	1.756927	0.454549	0.750087
N137	N	1.091578	-0.272443	0.000097
N138	N	1.341578	-0.022443	0.250097
N139	N	1.591578	0.227557	0.500097
N140	N	1.841578	0.477557	0.750097
C141	C	1.175075	-0.308839	0.000105
C142	C	1.425075	-0.058839	0.250105
C143	C	1.675075	0.191161	0.500105
C144	C	1.925075	0.441161	0.750105
C145	C	0.999897	-0.657813	0.000055
C146	C	1.249897	-0.407813	0.250055
C147	C	1.499897	-0.157813	0.500055
C148	C	1.749897	0.092187	0.750055
C149	C	0.998743	-0.717216	0.000061
C150	C	1.248743	-0.467216	0.250061
C151	C	1.498743	-0.217216	0.500061
C152	C	1.748743	0.032784	0.750061
C153	C	1.166898	-0.730604	0.000080
C154	C	1.416898	-0.480604	0.250080
C155	C	1.666898	-0.230604	0.500080
C156	C	1.916898	0.019396	0.750080
C157	C	1.168051	-0.671200	0.000080
C158	C	1.418051	-0.421200	0.250080
C159	C	1.668051	-0.171200	0.500080
C160	C	1.918051	0.078800	0.750080
C161	C	1.084548	-0.634804	0.000064
C162	C	1.334548	-0.384804	0.250064
C163	C	1.584548	-0.134804	0.500064
C164	C	1.834548	0.115196	0.750064
C165	C	1.177487	-0.184092	0.000126
C166	C	1.427487	0.065908	0.250126
C167	C	1.677487	0.315908	0.500126
C168	C	1.927487	0.565908	0.750126
C169	C	1.178632	-0.124685	0.000139
C170	C	1.428632	0.125315	0.250139
C171	C	1.678632	0.375315	0.500139
C172	C	1.928632	0.625315	0.750139
C173	C	1.010477	-0.111301	0.000115
C174	C	1.260477	0.138699	0.250115
C175	C	1.510477	0.388699	0.500115
C176	C	1.760477	0.638699	0.750115
C177	C	1.009332	-0.170703	0.000107
C178	C	1.259332	0.079297	0.250107
C179	C	1.509332	0.329297	0.500107
C180	C	1.759332	0.579297	0.750107
C181	C	1.092845	-0.207098	0.000109
C182	C	1.342845	0.042902	0.250109
C183	C	1.592845	0.292902	0.500109
C184	C	1.842845	0.542902	0.750109
O185	O	0.936062	-0.258992	0.000111
O186	O	1.186062	-0.008992	0.250111
O187	O	1.436062	0.241008	0.500111
O188	O	1.686062	0.491008	0.750111
O189	O	1.247171	-0.283806	0.000102
O190	O	1.497171	-0.033806	0.250102
O191	O	1.747171	0.216194	0.500102
O192	O	1.997171	0.466194	0.750102
C193	C	1.257333	0.075061	0.000119
C194	C	1.507333	0.325061	0.250119
C195	C	1.757333	0.575061	0.500119
C196	C	2.007333	0.825061	0.750119
C197	C	1.359700	0.076289	0.000124
C198	C	1.609700	0.326289	0.250124
C199	C	1.859700	0.576289	0.500124
C200	C	2.109700	0.826289	0.750124
C201	C	1.081001	0.183160	0.000078
C202	C	1.331001	0.433160	0.250078
C203	C	1.581001	0.683160	0.500078
C204	C	1.831001	0.933160	0.750078
C205	C	1.082241	0.246383	0.000064
C206	C	1.332241	0.496383	0.250064
C207	C	1.582241	0.746383	0.500064
C208	C	1.832241	0.996383	0.750064
N209	N	1.088673	0.079040	0.254958
N210	N	1.338673	0.329040	0.504958
N211	N	1.588673	0.579040	0.754958
N212	N	1.838673	0.829040	1.004958
N213	N	1.088710	0.079050	-0.254754
N214	N	1.338710	0.329050	-0.004754
N215	N	1.588710	0.579050	0.245246
N216	N	1.838710	0.829050	0.495246
C217	C	1.088696	0.079051	0.656248
C218	C	1.338696	0.329051	0.906248
C219	C	1.588696	0.579051	1.156248
C220	C	1.838696	0.829051	1.406248
C221	C	1.088686	0.079050	0.544597
C222	C	1.338686	0.329050	0.794597
C223	C	1.588686	0.579050	1.044597
C224	C	1.838686	0.829050	1.294597
C225	C	1.088685	0.079046	0.455607
C226	C	1.338685	0.329046	0.705607
C227	C	1.588685	0.579046	0.955607
C228	C	1.838685	0.829046	1.205607
C229	C	1.088674	0.079044	0.343948
C230	C	1.338674	0.329044	0.593948
C231	C	1.588674	0.579044	0.843948
C232	C	1.838674	0.829044	1.093948
H233	H	1.247572	-0.105958	0.000158
H234	H	1.497572	0.144042	0.250158
H235	H	1.747572	0.394042	0.500158
H236	H	1.997572	0.644042	0.750158
H237	H	1.324266	-0.493670	0.000107
H238	H	1.574266	-0.243670	0.250107
H239	H	1.824266	0.006330	0.500107
H240	H	2.074266	0.256330	0.750107
C241	C	0.826839	-0.462547	0.000010
C242	C	1.076839	-0.212547	0.250010
C243	C	1.326839	0.037453	0.500010
C244	C	1.576839	0.287453	0.750010
H245	H	0.777285	-0.432356	-0.000008
H246	H	1.027285	-0.182356	0.249992
H247	H	1.277285	0.067644	0.499992
H248	H	1.527285	0.317644	0.749992
H249	H	0.822872	-0.485450	0.057049
H250	H	1.072872	-0.235450	0.307049
H251	H	1.322872	0.014550	0.557049
H252	H	1.572872	0.264550	0.807049
H253	H	0.822901	-0.485432	-0.057048
H254	H	1.072901	-0.235432	0.192952
H255	H	1.322901	0.014568	0.442952
H256	H	1.572901	0.264568	0.692952
C257	C	1.258745	-0.770648	0.000071
C258	C	1.508745	-0.520648	0.250071
C259	C	1.758745	-0.270648	0.500071
C260	C	2.008745	-0.020648	0.750071
H261	H	1.245927	-0.809320	0.000055
H262	H	1.495927	-0.559320	0.250055
H263	H	1.745927	-0.309320	0.500055
H264	H	1.995927	-0.059320	0.750055
H265	H	1.293487	-0.763678	0.057115
H266	H	1.543487	-0.513678	0.307115
H267	H	1.793487	-0.263678	0.557115
H268	H	2.043487	-0.013678	0.807115
H269	H	1.293474	-0.763655	-0.056982
H270	H	1.543474	-0.513655	0.193018
H271	H	1.793474	-0.263655	0.443018
H272	H	2.043474	-0.013655	0.693018
C273	C	0.918637	-0.071258	0.000100
C274	C	1.168637	0.178742	0.250100
C275	C	1.418637	0.428742	0.500100
C276	C	1.668637	0.678742	0.750100
H277	H	0.931455	-0.032586	0.000096
H278	H	1.181455	0.217414	0.250096
H279	H	1.431455	0.467414	0.500096
H280	H	1.681455	0.717414	0.750096
H281	H	0.883887	-0.078245	0.057135
H282	H	1.133887	0.171755	0.307135
H283	H	1.383887	0.421755	0.557135
H284	H	1.633887	0.671755	0.807135
H285	H	0.883916	-0.078234	-0.056962
H286	H	1.133916	0.171766	0.193038
H287	H	1.383916	0.421766	0.443038
H288	H	1.633916	0.671766	0.693038
H289	H	0.929808	-0.735940	0.000062
H290	H	1.179808	-0.485940	0.250062
H291	H	1.429808	-0.235940	0.500062
H292	H	1.679808	0.014060	0.750062
H293	H	1.245491	-0.213718	0.000124
H294	H	1.495491	0.036282	0.250124
H295	H	1.745491	0.286282	0.500124
H296	H	1.995491	0.536282	0.750124
C297	C	0.908037	-0.617782	0.000055
C298	C	1.158037	-0.367782	0.250055
C299	C	1.408037	-0.117782	0.500055
C300	C	1.658037	0.132218	0.750055
H301	H	0.857464	-0.639997	0.000058
H302	H	1.107464	-0.389997	0.250058
H303	H	1.357464	-0.139997	0.500058
H304	H	1.607464	0.110003	0.750058
H305	H	0.904986	-0.594321	-0.056987
H306	H	1.154986	-0.344321	0.193013
H307	H	1.404986	-0.094321	0.443013
H308	H	1.654986	0.155679	0.693013
H309	H	0.904987	-0.594339	0.057110
H310	H	1.154987	-0.344339	0.307110
H311	H	1.404987	-0.094339	0.557110
H312	H	1.654987	0.155661	0.807110
H313	H	0.940399	-0.189434	0.000119
H314	H	1.190399	0.060566	0.250119
H315	H	1.440399	0.310566	0.500119
H316	H	1.690399	0.560566	0.750119
C317	C	1.350539	-0.379339	0.000129
C318	C	1.600539	-0.129339	0.250129
C319	C	1.850539	0.120661	0.500129
C320	C	2.100539	0.370661	0.750129
H321	H	1.339280	-0.338747	0.000138
H322	H	1.589280	-0.088747	0.250138
H323	H	1.839280	0.161253	0.500138
H324	H	2.089280	0.411253	0.750138
H325	H	1.384899	-0.391823	-0.056912
H326	H	1.634899	-0.141823	0.193088
H327	H	1.884899	0.108177	0.443088
H328	H	2.134899	0.358177	0.693088
H329	H	1.384885	-0.391837	0.057185
H330	H	1.634885	-0.141837	0.307185
H331	H	1.884885	0.108163	0.557185
H332	H	2.134885	0.358163	0.807185
H333	H	1.236985	-0.652474	0.000095
H334	H	1.486985	-0.402474	0.250095
H335	H	1.736985	-0.152474	0.500095
H336	H	1.986985	0.097526	0.750095
H337	H	0.853122	-0.348216	0.000024
H338	H	1.103122	-0.098216	0.250024
H339	H	1.353122	0.151784	0.500024
H340	H	1.603122	0.401784	0.750024
