data_functionalizedCrystal
_audit_creation_method	'MofGen! by Chris Wilmer'
_symmetry_space_group_name_H-M	'P1'
_symmetry_Int_Tables_number	1
_symmetry_cell_setting	triclinic
loop_
_symmetry_equiv_pos_as_xyz
  x,y,z
_cell_length_a	16.625546
_cell_length_b	13.032831
_cell_length_c	13.033109
_cell_angle_alpha	103.334486
_cell_angle_beta	97.150917
_cell_angle_gamma	97.173222
loop_
_atom_site_label
_atom_site_type_symbol
_atom_site_fract_x
_atom_site_fract_y
_atom_site_fract_z
Zn1	Zn	-0.566824	-1.700046	-0.806356
Zn2	Zn	-0.233491	-1.366713	-0.473023
Zn3	Zn	0.099843	-1.033379	-0.139689
Zn4	Zn	-0.682041	-1.677364	-0.628728
Zn5	Zn	-0.348708	-1.344031	-0.295395
Zn6	Zn	-0.015375	-1.010698	0.037938
Zn7	Zn	-0.527607	-1.499875	-0.606253
Zn8	Zn	-0.194273	-1.166542	-0.272919
Zn9	Zn	0.139060	-0.833208	0.060414
Zn10	Zn	-0.681970	-1.522379	-0.783772
Zn11	Zn	-0.348637	-1.189046	-0.450439
Zn12	Zn	-0.015304	-0.855713	-0.117106
O13	O	-0.614611	-1.599916	-0.706277
O14	O	-0.281277	-1.266583	-0.372944
O15	O	0.052056	-0.933249	-0.039611
O16	O	-0.598550	-1.845671	-0.801651
O17	O	-0.265217	-1.512338	-0.468317
O18	O	0.068117	-1.179005	-0.134984
O19	O	-0.645173	-1.634909	-0.477117
O20	O	-0.311839	-1.301576	-0.143783
O21	O	0.021494	-0.968243	0.189550
O22	O	-0.419988	-1.526502	-0.632842
O23	O	-0.086655	-1.193169	-0.299509
O24	O	0.246678	-0.859836	0.033825
O25	O	-0.683200	-1.829007	-0.671148
O26	O	-0.349867	-1.495674	-0.337815
O27	O	-0.016533	-1.162341	-0.004482
O28	O	-0.448801	-1.673567	-0.779857
O29	O	-0.115468	-1.340234	-0.446524
O30	O	0.217866	-1.006901	-0.113190
O31	O	-0.531710	-1.504509	-0.460604
O32	O	-0.198377	-1.171175	-0.127271
O33	O	0.134957	-0.837842	0.206063
O34	O	-0.531641	-1.354226	-0.610944
O35	O	-0.198308	-1.020893	-0.277610
O36	O	0.135025	-0.687559	0.055723
O37	O	-0.683079	-1.564858	-0.935398
O38	O	-0.349745	-1.231524	-0.602065
O39	O	-0.016412	-0.898191	-0.268732
O40	O	-0.645052	-1.370760	-0.741366
O41	O	-0.311718	-1.037426	-0.408033
O42	O	0.021615	-0.704093	-0.074700
O43	O	-0.598481	-1.695389	-0.951990
O44	O	-0.265148	-1.362055	-0.618657
O45	O	0.068186	-1.028722	-0.285324
O46	O	-0.794853	-1.656731	-0.649250
O47	O	-0.461519	-1.323398	-0.315917
O48	O	-0.128186	-0.990064	0.017417
O49	O	-0.794801	-1.542864	-0.763160
O50	O	-0.461467	-1.209531	-0.429827
O51	O	-0.128134	-0.876197	-0.096493
C52	C	-0.824086	-1.599810	-0.706220
C53	C	-0.490752	-1.266477	-0.372887
C54	C	-0.157419	-0.933143	-0.039553
C55	C	-0.913714	-1.599866	-0.706243
C56	C	-0.580381	-1.266533	-0.372910
C57	C	-0.247048	-0.933200	-0.039577
C58	C	-0.584084	-1.323954	-0.671266
C59	C	-0.250750	-0.990620	-0.337933
C60	C	0.082583	-0.657287	-0.004600
C61	C	-0.571046	-1.205899	-0.656313
C62	C	-0.237713	-0.872566	-0.322980
C63	C	0.095620	-0.539232	0.010353
C64	C	-0.645147	-1.635164	-0.983310
C65	C	-0.311813	-1.301830	-0.649977
C66	C	0.021520	-0.968497	-0.316643
C67	C	-0.658159	-1.650184	-1.101365
C68	C	-0.324826	-1.316851	-0.768032
C69	C	0.008507	-0.983517	-0.434698
C70	C	-1.241923	-1.600066	-0.706378
C71	C	-0.908589	-1.266732	-0.373044
C72	C	-0.575256	-0.933399	-0.039711
C73	C	-1.150605	-1.600007	-0.706343
C74	C	-0.817272	-1.266674	-0.373009
C75	C	-0.483938	-0.933340	-0.039676
C76	C	-1.077821	-1.599965	-0.706310
C77	C	-0.744488	-1.266632	-0.372976
C78	C	-0.411155	-0.933298	-0.039643
C79	C	-0.986498	-1.599908	-0.706276
C80	C	-0.653165	-1.266575	-0.372943
C81	C	-0.319832	-0.933242	-0.039610
C82	C	-0.404324	-1.600055	-0.706362
C83	C	-0.070990	-1.266721	-0.373028
C84	C	0.262343	-0.933388	-0.039695
C85	C	-0.314712	-1.600114	-0.706398
C86	C	0.018622	-1.266780	-0.373064
C87	C	0.351955	-0.933447	-0.039731
C88	C	-0.645257	-1.876956	-0.741426
C89	C	-0.311924	-1.543623	-0.408092
C90	C	0.021409	-1.210289	-0.074759
C91	C	-0.658317	-1.995014	-0.756404
C92	C	-0.324984	-1.661681	-0.423071
C93	C	0.008349	-1.328347	-0.089737
C94	C	-0.621415	-1.161462	-0.714081
C95	C	-0.288082	-0.828129	-0.380748
C96	C	0.045252	-0.494796	-0.047414
C97	C	-0.607942	-1.039447	-0.698628
C98	C	-0.274608	-0.706114	-0.365295
C99	C	0.058725	-0.372780	-0.031962
C100	C	-0.607822	-1.592361	-1.145827
C101	C	-0.274488	-1.259027	-0.812494
C102	C	0.058845	-0.925694	-0.479161
C103	C	-0.621270	-1.607884	-1.267843
C104	C	-0.287936	-1.274550	-0.934510
C105	C	0.045397	-0.941217	-0.601176
C106	C	-0.584142	-1.564867	-0.430330
C107	C	-0.250809	-1.231534	-0.096997
C108	C	0.082525	-0.898200	0.236337
C109	C	-0.570925	-1.550052	-0.312302
C110	C	-0.237592	-1.216719	0.021032
C111	C	0.095742	-0.883386	0.354365
H112	H	-0.674510	-1.213751	-0.774982
H113	H	-0.341177	-0.880417	-0.441649
H114	H	-0.007843	-0.547084	-0.108315
Cl115	Cl	-0.489061	-1.125180	-0.562295
Cl116	Cl	-0.155728	-0.791847	-0.228962
Cl117	Cl	0.177605	-0.458513	0.104371
Cl118	Cl	-0.740292	-1.075730	-0.850450
Cl119	Cl	-0.406959	-0.742397	-0.517116
Cl120	Cl	-0.073625	-0.409063	-0.183783
H121	H	-0.554773	-1.531360	-1.093561
H122	H	-0.221439	-1.198027	-0.760228
H123	H	0.111894	-0.864693	-0.426894
H124	H	-0.517871	-1.489049	-1.260041
H125	H	-0.184537	-1.155716	-0.926707
H126	H	0.148796	-0.822382	-0.593374
Cl127	Cl	-0.703188	-1.702059	-1.348525
Cl128	Cl	-0.369855	-1.368726	-1.015191
Cl129	Cl	-0.036521	-1.035393	-0.681858
Cl130	Cl	-0.740074	-1.744355	-1.182050
Cl131	Cl	-0.406741	-1.411022	-0.848717
Cl132	Cl	-0.073407	-1.077689	-0.515383
H133	H	-0.554838	-0.987163	-0.637731
H134	H	-0.221504	-0.653830	-0.304398
H135	H	0.111829	-0.320496	0.028936
