data_functionalizedCrystal
_audit_creation_method	'MofGen! by Chris Wilmer'
_symmetry_space_group_name_H-M	'P1'
_symmetry_Int_Tables_number	1
_symmetry_cell_setting	triclinic
loop_
_symmetry_equiv_pos_as_xyz
  x,y,z
_cell_length_a	14.908571
_cell_length_b	21.295417
_cell_length_c	14.908308
_cell_angle_alpha	86.738273
_cell_angle_beta	89.824947
_cell_angle_gamma	86.725606
loop_
_atom_site_label
_atom_site_type_symbol
_atom_site_fract_x
_atom_site_fract_y
_atom_site_fract_z
Zn1	Zn	1.345222	-0.328502	0.587537
Zn2	Zn	1.353780	-0.428069	0.437164
Zn3	Zn	1.203540	-0.316412	0.428537
Zn4	Zn	1.194808	-0.427321	0.578816
O5	O	1.274337	-0.375076	0.508014
O6	O	1.472182	-0.347083	0.574851
O7	O	1.341086	-0.408510	0.310196
O8	O	1.222407	-0.229931	0.449668
O9	O	1.478469	-0.420234	0.464372
O10	O	1.326500	-0.238814	0.566485
O11	O	1.230705	-0.326476	0.303857
O12	O	1.076557	-0.325751	0.441211
O13	O	1.207525	-0.418959	0.705797
O14	O	1.070141	-0.407236	0.551621
O15	O	1.318033	-0.346358	0.712205
O16	O	1.332619	-0.516054	0.455915
O17	O	1.215823	-0.515505	0.559986
C18	C	1.040724	-0.365101	0.494534
C19	C	0.940782	-0.360849	0.488788
C20	C	1.274225	-0.538621	0.507961
C21	C	1.274258	-0.608591	0.507974
C22	C	0.746357	-0.437829	0.592807
C23	C	0.652453	-0.433836	0.587412
C24	C	0.659066	-0.348869	0.472608
C25	C	0.752971	-0.352861	0.478003
C26	C	0.796613	-0.397344	0.538104
C27	C	0.890520	-0.401339	0.543494
C28	C	0.897131	-0.316368	0.428695
C29	C	0.803226	-0.312376	0.423300
C30	C	1.328424	-0.646026	0.568840
C31	C	1.328454	-0.711771	0.568864
C32	C	1.274329	-0.740078	0.508007
C33	C	1.220152	-0.702634	0.447136
C34	C	1.220117	-0.636891	0.447120
N35	N	1.272081	-0.840068	0.428926
N36	N	1.272120	-0.902521	0.428945
C37	C	1.274432	-0.938158	0.508053
N38	N	1.276721	-0.908983	0.587146
N39	N	1.276686	-0.846523	0.587127
C40	C	1.274361	-0.811365	0.508018
C41	C	1.328634	-1.046881	0.568950
C42	C	1.328658	-1.112627	0.568975
C43	C	1.220361	-1.103489	0.447240
C44	C	1.220332	-1.037745	0.447222
C45	C	1.274473	-1.009445	0.508076
C46	C	1.508863	-0.385091	0.521547
C47	C	1.608804	-0.389358	0.527313
C48	C	1.260850	-0.383924	0.742538
C49	C	1.255103	-0.387694	0.842478
C50	C	1.274473	-0.210894	0.508087
C51	C	1.274531	-0.140930	0.508118
C52	C	1.287824	-0.366219	0.274405
C53	C	1.293745	-0.362279	0.174475
C54	C	1.359373	-0.319165	1.036950
C55	C	1.353975	-0.322705	1.130853
C56	C	1.238907	-0.398313	1.124188
C57	C	1.244304	-0.394772	1.030285
C58	C	1.304540	-0.355197	0.986670
C59	C	1.309941	-0.351661	0.892765
C60	C	1.194869	-0.427264	0.886102
C61	C	1.189471	-0.430805	0.980005
H62	H	0.926052	-0.437559	0.592429
N63	N	0.790940	-0.483257	0.654205
N64	N	0.840063	-0.465563	0.714572
H65	H	0.871549	-0.497647	0.757937
H66	H	1.176228	-1.007263	0.397656
H67	H	1.150222	-0.456606	0.845154
N68	N	0.601130	-0.475193	0.643300
N69	N	0.640112	-0.514902	0.696957
H70	H	0.603866	-0.544112	0.736433
N71	N	1.177346	-0.438704	1.168753
N72	N	1.094987	-0.430564	1.153478
H73	H	1.051499	-0.459080	1.184958
N74	N	0.614488	-0.303424	0.411231
N75	N	0.624656	-0.246023	0.417952
H76	H	0.593173	-0.213925	0.374606
N77	N	0.758629	-0.266941	0.361922
N78	N	0.674786	-0.263380	0.357115
H79	H	0.643288	-0.231291	0.313764
N80	N	0.948481	-0.275019	0.372813
N81	N	1.032323	-0.278592	0.377632
H82	H	1.068591	-0.249391	0.338164
N83	N	1.420911	-0.278746	0.992407
N84	N	1.469871	-0.246581	1.037312
H85	H	1.513335	-0.218034	1.005855
H86	H	1.140427	-0.463024	1.015529
N87	N	1.383731	-0.617130	0.631005
N88	N	1.432090	-0.650567	0.685347
H89	H	1.471151	-0.630158	0.729253
N90	N	1.383791	-0.750010	0.631046
N91	N	1.432123	-0.724734	0.685375
H92	H	1.471207	-0.751738	0.729291
H93	H	1.176081	-0.725686	0.397587
H94	H	1.176007	-0.606410	0.397555
N95	N	1.384007	-1.150867	0.631139
N96	N	1.443163	-1.188777	0.602859
H97	H	1.482257	-1.215785	0.646762
H98	H	1.372716	-1.023839	0.618504
H99	H	1.358990	-0.319438	0.857255
H100	H	1.176285	-1.126536	0.397694
H101	H	1.398624	-0.293362	1.171788
