data_functionalizedCrystal
_audit_creation_method	'MofGen! by Chris Wilmer'
_symmetry_space_group_name_H-M	'P1'
_symmetry_Int_Tables_number	1
_symmetry_cell_setting	triclinic
loop_
_symmetry_equiv_pos_as_xyz
  x,y,z
_cell_length_a	10.654545
_cell_length_b	13.262415
_cell_length_c	9.730223
_cell_angle_alpha	74.079822
_cell_angle_beta	89.997167
_cell_angle_gamma	84.458859
loop_
_atom_site_label
_atom_site_type_symbol
_atom_site_fract_x
_atom_site_fract_y
_atom_site_fract_z
O1	O	1.667081	0.147404	-0.169372
O2	O	1.301529	0.161455	-0.174629
O3	O	1.493497	0.001703	-0.114907
O4	O	1.475113	0.307156	-0.229094
O5	O	1.493485	0.001699	0.113675
O6	O	1.301517	0.161451	0.053952
O7	O	1.667069	0.147400	0.059210
Zn8	Zn	1.484291	0.154425	0.092873
Zn9	Zn	1.484307	0.154431	-0.208293
O10	O	1.475101	0.307152	-0.000513
C11	C	1.254730	0.160422	-0.059954
C12	C	1.115303	0.157339	-0.058803
C13	C	1.049799	0.155885	0.066340
C14	C	0.918795	0.152970	0.067430
C15	C	0.918809	0.152968	-0.181780
C16	C	1.049812	0.155875	-0.182865
C17	C	1.492459	-0.037411	0.014002
C18	C	1.489369	-0.153952	0.057560
C19	C	1.480692	-0.482440	-0.318064
C20	C	1.483605	-0.372944	-0.358995
C21	C	1.485046	-0.318191	-0.254860
C22	C	1.483574	-0.372943	-0.109786
C23	C	1.480670	-0.482450	-0.068849
C24	C	1.485024	-0.318201	-0.005646
C25	C	1.483552	-0.372954	0.139429
C26	C	1.480648	-0.482450	0.180358
C27	C	1.479208	-0.537204	0.076222
C28	C	1.487928	-0.208695	-0.046582
C29	C	1.487906	-0.208705	0.202632
C30	C	1.484993	-0.318200	0.243564
C31	C	1.713868	0.148433	-0.055469
C32	C	1.853295	0.151517	-0.056628
C33	C	1.476139	0.346266	-0.129425
C34	C	1.479229	0.462807	-0.172992
N35	N	1.484289	0.154420	0.298411
N36	N	1.484319	0.154427	-0.413828
C37	C	1.569321	0.083712	0.396771
C38	C	1.569334	0.083713	0.540654
C39	C	1.399278	0.225138	0.487801
C40	C	1.399260	0.225132	0.343923
H41	H	1.103147	0.157056	-0.284777
C42	C	0.846699	0.151644	0.204981
H43	H	0.759287	0.149774	0.187838
H44	H	0.859008	0.213308	0.232895
H45	H	0.877300	0.091092	0.279042
C46	C	1.662874	0.005938	0.648843
H47	H	1.713514	-0.036168	0.601124
H48	H	1.617486	-0.038110	0.721451
H49	H	1.715353	0.044115	0.690682
C50	C	1.305765	0.302924	0.537867
H51	H	1.317962	0.292810	0.637640
H52	H	1.221890	0.290876	0.518814
H53	H	1.319775	0.373086	0.488042
H54	H	1.330010	0.282711	0.263831
C55	C	1.121840	0.157464	0.202813
H56	H	1.064063	0.156165	0.277504
H57	H	1.163693	0.219693	0.184750
H58	H	1.182196	0.097482	0.230399
C59	C	1.662846	0.005935	0.346704
H60	H	1.650670	0.016064	0.246925
H61	H	1.648857	-0.064227	0.396520
H62	H	1.746720	0.018001	0.365762
H63	H	1.484806	-0.328373	-0.477115
H64	H	1.489125	-0.164126	-0.164703
C65	C	0.846766	0.151386	-0.318251
H66	H	0.904545	0.152664	-0.392936
H67	H	0.786408	0.211359	-0.345839
H68	H	0.804917	0.089148	-0.300177
C69	C	1.488483	-0.197773	-0.299874
H70	H	1.489215	-0.173013	-0.401185
H71	H	1.562347	-0.180627	-0.260255
H72	H	1.416051	-0.165391	-0.265972
H73	H	1.479529	-0.527031	-0.402834
C74	C	1.476001	-0.657649	0.121252
H75	H	1.475327	-0.682418	0.222565
H76	H	1.548488	-0.689898	0.087286
H77	H	1.402184	-0.674936	0.081697
H78	H	1.479466	-0.527028	0.298487
H79	H	1.483794	-0.362795	0.361686
C80	C	1.489480	-0.148487	0.317187
H81	H	1.491405	-0.075429	0.272030
H82	H	1.562145	-0.173901	0.377895
H83	H	1.415841	-0.158962	0.372290
