data_functionalizedCrystal
_audit_creation_method	'MofGen! by Chris Wilmer'
_symmetry_space_group_name_H-M	'P1'
_symmetry_Int_Tables_number	1
_symmetry_cell_setting	triclinic
loop_
_symmetry_equiv_pos_as_xyz
  x,y,z
_cell_length_a	10.489746
_cell_length_b	8.965430
_cell_length_c	16.109301
_cell_angle_alpha	89.999798
_cell_angle_beta	95.998609
_cell_angle_gamma	90.001189
loop_
_atom_site_label
_atom_site_type_symbol
_atom_site_fract_x
_atom_site_fract_y
_atom_site_fract_z
O1	O	1.692348	0.123944	-0.117312
O2	O	1.320994	0.123970	-0.128318
O3	O	1.516872	0.123941	-0.001847
O4	O	1.496469	0.123973	-0.243783
O5	O	1.516855	-0.124138	-0.001857
O6	O	1.320976	-0.124109	-0.128328
O7	O	1.692330	-0.124134	-0.117322
Cu8	Cu	1.506651	-0.146773	-0.122826
Cu9	Cu	1.506673	0.146609	-0.122814
O10	O	1.496452	-0.124106	-0.243793
C11	C	1.273465	-0.000066	-0.127491
C12	C	1.131872	-0.000057	-0.125001
N13	N	1.506646	-0.353122	-0.122834
C14	C	0.980203	-0.000089	-0.043058
C15	C	1.056994	-0.122395	-0.084031
C16	C	1.056967	0.122191	-0.084040
C17	C	0.956377	-0.122502	-0.161581
C18	C	0.956345	0.122195	-0.161578
C19	C	1.033086	-0.000141	-0.202609
C20	C	1.416798	-0.549819	-0.181780
C21	C	1.391032	-0.450363	-0.106731
C22	C	1.532355	-0.450371	-0.197877
C23	C	1.480865	-0.549775	-0.047713
C24	C	1.622239	-0.549792	-0.138907
C25	C	1.596521	-0.450380	-0.063805
C26	C	1.739859	-0.000095	-0.118149
C27	C	1.881452	-0.000094	-0.120639
C28	C	1.516037	-0.000099	0.029128
C29	C	1.513559	-0.000101	0.121438
N30	N	1.506688	0.352958	-0.122799
C31	C	1.497287	-0.000062	-0.274768
C32	C	1.499765	-0.000051	-0.367079
C33	C	1.624028	-0.000085	0.343029
C34	C	1.621690	-0.000072	0.429763
C35	C	1.389287	-0.000062	0.411324
C36	C	1.391626	-0.000064	0.324591
C37	C	1.509001	-0.000083	0.290446
C38	C	1.504323	-0.000069	0.463914
C39	C	1.501787	-0.000055	0.557956
C40	C	1.511537	-0.000093	0.196398
H41	H	1.100938	-0.225808	-0.051285
O42	O	1.558502	-0.398354	-0.273572
C43	C	1.679454	-0.451214	-0.291023
H44	H	1.739433	-0.480626	-0.230099
H45	H	1.666395	-0.554773	-0.332099
C46	C	1.674524	-0.293206	-0.411725
C47	C	1.748196	-0.329319	-0.336896
H48	H	1.716926	-0.218021	-0.440025
H49	H	1.593034	-0.257598	-0.399970
H50	H	1.663647	-0.379517	-0.445944
H51	H	1.759057	-0.243015	-0.302673
H52	H	1.829689	-0.364911	-0.348646
H53	H	1.340748	-0.593480	-0.231585
H54	H	1.715358	-0.000071	0.472573
O55	O	1.738010	-0.000351	0.309820
C56	C	1.746309	-0.128814	0.260186
H57	H	1.679664	-0.218619	0.281090
H58	H	1.716868	-0.099767	0.191975
C59	C	1.967027	-0.076764	0.244197
C60	C	1.885180	-0.187070	0.269877
H61	H	2.052689	-0.112697	0.250171
H62	H	1.961435	0.009787	0.277634
H63	H	1.942477	-0.052569	0.187356
H64	H	1.909720	-0.211250	0.326719
H65	H	1.890779	-0.273627	0.236450
O66	O	1.061290	-0.000402	-0.283111
C67	C	1.134061	-0.128296	-0.297472
H68	H	1.183992	-0.170418	-0.235656
H69	H	1.068071	-0.218998	-0.327141
C70	C	1.173922	-0.036842	-0.432506
C71	C	1.235256	-0.088569	-0.356584
H72	H	1.236340	-0.012341	-0.468972
H73	H	1.124890	0.049321	-0.422833
H74	H	1.118932	-0.112435	-0.457220
H75	H	1.290231	-0.012970	-0.331866
H76	H	1.284299	-0.174719	-0.366254
O77	O	1.454584	-0.601706	0.027972
C78	C	1.342373	-0.689261	0.017988
H79	H	1.282280	-0.656238	-0.042275
H80	H	1.369528	-0.812125	0.014998
C81	C	1.338099	-0.704102	0.166543
C82	C	1.264287	-0.663533	0.092530
H83	H	1.289934	-0.688238	0.212526
H84	H	1.413700	-0.645119	0.173271
H85	H	1.360723	-0.806486	0.164040
H86	H	1.241678	-0.561147	0.095030
H87	H	1.188680	-0.722498	0.085805
O88	O	1.279915	0.000202	0.273473
C89	C	1.274341	0.128668	0.222738
H90	H	1.339581	0.218464	0.254111
H91	H	1.307336	0.099620	0.159483
C92	C	1.055428	0.076646	0.171855
C93	C	1.135548	0.186940	0.210391
H94	H	0.969813	0.112589	0.164235
H95	H	1.059183	-0.009907	0.206033
H96	H	1.082938	0.052450	0.119147
H97	H	1.108046	0.211122	0.263103
H98	H	1.131784	0.273499	0.176222
H99	H	1.293724	-0.000050	0.439136
H100	H	1.672524	-0.406996	-0.013888
O101	O	1.109152	0.245668	-0.044955
C102	C	1.011468	0.331498	-0.014500
H103	H	0.915745	0.304354	-0.051622
H104	H	1.006056	0.304462	0.054194
C105	C	1.158947	0.531783	0.021713
C106	C	1.041380	0.498453	-0.023886
H107	H	1.177400	0.634769	0.015927
H108	H	1.224761	0.473956	0.001198
H109	H	1.154423	0.509242	0.078954
H110	H	1.045911	0.520977	-0.081127
H111	H	0.975568	0.556288	-0.003380
O112	O	0.904385	-0.246055	-0.200688
C113	C	1.002363	-0.332470	-0.230371
H114	H	1.088573	-0.258414	-0.238370
H115	H	1.031951	-0.424880	-0.183680
C116	C	0.847078	-0.493028	-0.305235
C117	C	0.952959	-0.402068	-0.315067
H118	H	0.816603	-0.535966	-0.357477
H119	H	0.781067	-0.434813	-0.285235
H120	H	0.871749	-0.570025	-0.266322
H121	H	0.928282	-0.325064	-0.353970
H122	H	1.018964	-0.460273	-0.335075
H123	H	1.293297	-0.406678	-0.093119
H124	H	0.956461	-0.000221	0.024402
H125	H	0.912377	0.225612	-0.194295
H126	H	1.719943	-0.593503	-0.152547
