data_functionalizedCrystal
_audit_creation_method	'MofGen! by Chris Wilmer'
_symmetry_space_group_name_H-M	'P1'
_symmetry_Int_Tables_number	1
_symmetry_cell_setting	triclinic
loop_
_symmetry_equiv_pos_as_xyz
  x,y,z
_cell_length_a	25.639242
_cell_length_b	25.639240
_cell_length_c	25.639233
_cell_angle_alpha	89.974071
_cell_angle_beta	89.978417
_cell_angle_gamma	90.027658
loop_
_atom_site_label
_atom_site_type_symbol
_atom_site_fract_x
_atom_site_fract_y
_atom_site_fract_z
Zn1	Zn	0.799247	-0.208286	-0.295708
Zn2	Zn	1.049247	0.041714	-0.045708
Zn3	Zn	1.299247	0.291714	0.204292
Zn4	Zn	1.549247	0.541714	0.454292
Zn5	Zn	0.799179	-0.295704	-0.208261
Zn6	Zn	1.049179	-0.045704	0.041739
Zn7	Zn	1.299179	0.204296	0.291739
Zn8	Zn	1.549179	0.454296	0.541739
Zn9	Zn	0.711823	-0.208277	-0.208273
Zn10	Zn	0.961823	0.041723	0.041727
Zn11	Zn	1.211823	0.291723	0.291727
Zn12	Zn	1.461823	0.541723	0.541727
Zn13	Zn	0.711777	-0.295684	-0.295652
Zn14	Zn	0.961777	-0.045684	-0.045652
Zn15	Zn	1.211777	0.204316	0.204348
Zn16	Zn	1.461777	0.454316	0.454348
O17	O	0.755506	-0.251988	-0.251974
O18	O	1.005506	-0.001988	-0.001974
O19	O	1.255506	0.248012	0.248026
O20	O	1.505506	0.498012	0.498026
O21	O	0.872403	-0.219894	-0.284127
O22	O	1.122403	0.030106	-0.034127
O23	O	1.372403	0.280106	0.215873
O24	O	1.622403	0.530106	0.465873
O25	O	0.787582	-0.284112	-0.135098
O26	O	1.037582	-0.034112	0.114902
O27	O	1.287582	0.215888	0.364902
O28	O	1.537582	0.465888	0.614902
O29	O	0.723467	-0.135113	-0.219900
O30	O	0.973467	0.114887	0.030100
O31	O	1.223467	0.364887	0.280100
O32	O	1.473467	0.614887	0.530100
O33	O	0.872353	-0.284120	-0.219880
O34	O	1.122353	-0.034120	0.030120
O35	O	1.372353	0.215880	0.280120
O36	O	1.622353	0.465880	0.530120
O37	O	0.787697	-0.135119	-0.284138
O38	O	1.037697	0.114881	-0.034138
O39	O	1.287697	0.364881	0.215862
O40	O	1.537697	0.614881	0.465862
O41	O	0.723402	-0.219879	-0.135106
O42	O	0.973402	0.030121	0.114894
O43	O	1.223402	0.280121	0.364894
O44	O	1.473402	0.530121	0.614894
O45	O	0.638652	-0.219860	-0.219846
O46	O	0.888652	0.030140	0.030154
O47	O	1.138652	0.280140	0.280154
O48	O	1.388652	0.530140	0.530154
O49	O	0.723389	-0.284085	-0.368825
O50	O	0.973389	-0.034085	-0.118825
O51	O	1.223389	0.215915	0.131175
O52	O	1.473389	0.465915	0.381175
O53	O	0.638618	-0.284077	-0.284043
O54	O	0.888618	-0.034077	-0.034043
O55	O	1.138618	0.215923	0.215957
O56	O	1.388618	0.465923	0.465957
O57	O	0.787653	-0.219874	-0.368866
O58	O	1.037653	0.030126	-0.118866
O59	O	1.287653	0.280126	0.131134
O60	O	1.537653	0.530126	0.381134
O61	O	0.787538	-0.368867	-0.219826
O62	O	1.037538	-0.118867	0.030174
O63	O	1.287538	0.131133	0.280174
O64	O	1.537538	0.381133	0.530174
O65	O	0.723324	-0.368852	-0.284031
O66	O	0.973324	-0.118852	-0.034031
O67	O	1.223324	0.131148	0.215969
O68	O	1.473324	0.381148	0.465969
C69	C	0.619664	-0.251966	-0.251940
C70	C	0.869664	-0.001966	-0.001940
C71	C	1.119664	0.248034	0.248060
C72	C	1.369664	0.498034	0.498060
C73	C	0.561550	-0.251969	-0.251937
C74	C	0.811550	-0.001969	-0.001937
C75	C	1.061550	0.248031	0.248063
C76	C	1.311550	0.498031	0.498063
C77	C	0.755433	-0.387830	-0.251933
C78	C	1.005433	-0.137830	-0.001933
C79	C	1.255433	0.112170	0.248067
C80	C	1.505433	0.362170	0.498067
C81	C	0.755449	-0.445944	-0.251933
C82	C	1.005449	-0.195944	-0.001933
C83	C	1.255449	0.054056	0.248067
C84	C	1.505449	0.304056	0.498067
C85	C	0.310365	-0.218494	-0.218604
C86	C	0.560365	0.031506	0.031396
C87	C	0.810365	0.281506	0.281396
C88	C	1.060365	0.531506	0.531396
C89	C	0.364969	-0.218489	-0.218597
C90	C	0.614969	0.031511	0.031403
C91	C	0.864969	0.281511	0.281403
C92	C	1.114969	0.531511	0.531403
O93	O	0.393214	-0.189996	-0.190227
O94	O	0.643214	0.060004	0.059773
O95	O	0.893214	0.310004	0.309773
O96	O	1.143214	0.560004	0.559773
N97	N	0.392276	-0.251975	-0.251964
N98	N	0.642276	-0.001975	-0.001964
N99	N	0.892276	0.248025	0.248036
N100	N	1.142276	0.498025	0.498036
C101	C	0.364975	-0.285465	-0.285343
C102	C	0.614975	-0.035465	-0.035343
C103	C	0.864975	0.214535	0.214657
C104	C	1.114975	0.464535	0.464657
O105	O	0.393216	-0.313947	-0.313723
O106	O	0.643216	-0.063947	-0.063723
O107	O	0.893216	0.186053	0.186277
O108	O	1.143216	0.436053	0.436277
C109	C	0.310372	-0.285467	-0.285352
C110	C	0.560372	-0.035467	-0.035352
C111	C	0.810372	0.214533	0.214648
C112	C	1.060372	0.464533	0.464648
C113	C	0.283068	-0.251982	-0.251979
C114	C	0.533068	-0.001982	-0.001979
C115	C	0.783068	0.248018	0.248021
C116	C	1.033068	0.498018	0.498021
C117	C	0.283061	-0.185011	-0.185235
C118	C	0.533061	0.064989	0.064765
C119	C	0.783061	0.314989	0.314765
C120	C	1.033061	0.564989	0.564765
C121	C	0.228461	-0.185017	-0.185241
C122	C	0.478461	0.064983	0.064759
C123	C	0.728461	0.314983	0.314759
C124	C	0.978461	0.564983	0.564759
C125	C	0.201164	-0.218505	-0.218616
C126	C	0.451164	0.031495	0.031384
C127	C	0.701164	0.281495	0.281384
C128	C	0.951164	0.531495	0.531384
C129	C	0.228468	-0.251987	-0.251985
C130	C	0.478468	-0.001987	-0.001985
C131	C	0.728468	0.248013	0.248015
C132	C	0.978468	0.498013	0.498015
C133	C	0.283072	-0.318953	-0.318733
C134	C	0.533072	-0.068953	-0.068733
C135	C	0.783072	0.181047	0.181267
C136	C	1.033072	0.431047	0.431267
C137	C	0.228465	-0.318952	-0.318739
C138	C	0.478465	-0.068952	-0.068739
C139	C	0.728465	0.181048	0.181261
C140	C	0.978465	0.431048	0.431261
C141	C	0.201162	-0.285467	-0.285367
C142	C	0.451162	-0.035467	-0.035367
C143	C	0.701162	0.214533	0.214633
C144	C	0.951162	0.464533	0.464633
C145	C	0.146570	-0.285481	-0.285367
C146	C	0.396570	-0.035481	-0.035367
C147	C	0.646570	0.214519	0.214633
C148	C	0.896570	0.464519	0.464633
N149	N	0.119264	-0.251995	-0.252000
N150	N	0.369264	-0.001995	-0.002000
N151	N	0.619264	0.248005	0.248000
N152	N	0.869264	0.498005	0.498000
C153	C	0.146561	-0.218507	-0.218625
C154	C	0.396561	0.031493	0.031375
C155	C	0.646561	0.281493	0.281375
C156	C	0.896561	0.531493	0.531375
C157	C	0.479646	-0.285458	-0.285322
C158	C	0.729646	-0.035458	-0.035322
C159	C	0.979646	0.214542	0.214678
C160	C	1.229646	0.464542	0.464678
C161	C	0.534248	-0.285459	-0.285311
C162	C	0.784248	-0.035459	-0.035311
C163	C	1.034248	0.214541	0.214689
C164	C	1.284248	0.464541	0.464689
C165	C	0.534239	-0.218482	-0.218566
C166	C	0.784239	0.031518	0.031434
C167	C	1.034239	0.281518	0.281434
C168	C	1.284239	0.531518	0.531434
C169	C	0.479635	-0.218484	-0.218575
C170	C	0.729635	0.031516	0.031425
C171	C	0.979635	0.281516	0.281425
C172	C	1.229635	0.531516	0.531425
C173	C	0.452339	-0.251971	-0.251956
C174	C	0.702339	-0.001971	-0.001956
C175	C	0.952339	0.248029	0.248044
C176	C	1.202339	0.498029	0.498044
C177	C	0.031896	-0.218522	-0.218640
C178	C	0.281896	0.031478	0.031360
C179	C	0.531896	0.281478	0.281360
C180	C	0.781896	0.531478	0.531360
C181	C	-0.022710	-0.218532	-0.218648
C182	C	0.227290	0.031468	0.031352
C183	C	0.477290	0.281468	0.281352
C184	C	0.727290	0.531468	0.531352
C185	C	-0.022695	-0.285506	-0.285394
C186	C	0.227305	-0.035506	-0.035394
C187	C	0.477305	0.214494	0.214606
C188	C	0.727305	0.464494	0.464606
C189	C	0.031905	-0.285498	-0.285385
C190	C	0.281905	-0.035498	-0.035385
C191	C	0.531905	0.214502	0.214615
C192	C	0.781905	0.464502	0.464615
C193	C	0.059199	-0.252002	-0.252006
C194	C	0.309199	-0.002002	-0.002006
C195	C	0.559199	0.247998	0.247994
C196	C	0.809199	0.497998	0.497994
O197	O	0.118292	-0.313958	-0.313724
O198	O	0.368292	-0.063958	-0.063724
O199	O	0.618292	0.186042	0.186276
O200	O	0.868292	0.436042	0.436276
O201	O	0.118314	-0.190025	-0.190254
O202	O	0.368314	0.059975	0.059746
O203	O	0.618314	0.309975	0.309746
O204	O	0.868314	0.559975	0.559746
C205	C	0.788967	-0.806272	-0.285483
C206	C	1.038967	-0.556272	-0.035483
C207	C	1.288967	-0.306272	0.214517
C208	C	1.538967	-0.056272	0.464517
C209	C	0.788983	-0.860876	-0.285493
C210	C	1.038983	-0.610876	-0.035493
C211	C	1.288983	-0.360876	0.214507
C212	C	1.538983	-0.110876	0.464507
O213	O	0.817394	-0.889083	-0.313977
O214	O	1.067394	-0.639083	-0.063977
O215	O	1.317394	-0.389083	0.186023
O216	O	1.567394	-0.139083	0.436023
N217	N	0.755579	-0.888227	-0.252024
N218	N	1.005579	-0.638227	-0.002024
N219	N	1.255579	-0.388227	0.247976
N220	N	1.505579	-0.138227	0.497976
C221	C	0.722154	-0.860970	-0.218546
C222	C	0.972154	-0.610970	0.031454
C223	C	1.222154	-0.360970	0.281454
C224	C	1.472154	-0.110970	0.531454
O225	O	0.693742	-0.889247	-0.190079
O226	O	0.943742	-0.639247	0.059921
O227	O	1.193742	-0.389247	0.309921
O228	O	1.443742	-0.139247	0.559921
C229	C	0.722136	-0.806367	-0.218538
C230	C	0.972136	-0.556367	0.031462
C231	C	1.222136	-0.306367	0.281462
C232	C	1.472136	-0.056367	0.531462
C233	C	0.755546	-0.779019	-0.252006
C234	C	1.005546	-0.529019	-0.002006
C235	C	1.255546	-0.279019	0.247994
C236	C	1.505546	-0.029019	0.497994
C237	C	0.822374	-0.778925	-0.318948
C238	C	1.072374	-0.528925	-0.068948
C239	C	1.322374	-0.278925	0.181052
C240	C	1.572374	-0.028925	0.431052
C241	C	0.822359	-0.724324	-0.318937
C242	C	1.072359	-0.474324	-0.068937
C243	C	1.322359	-0.224324	0.181063
C244	C	1.572359	0.025676	0.431063
C245	C	0.788938	-0.697071	-0.285460
C246	C	1.038938	-0.447071	-0.035460
C247	C	1.288938	-0.197071	0.214540
C248	C	1.538938	0.052929	0.464540
C249	C	0.755531	-0.724419	-0.251995
C250	C	1.005531	-0.474419	-0.001995
C251	C	1.255531	-0.224419	0.248005
C252	C	1.505531	0.025581	0.498005
C253	C	0.688708	-0.779111	-0.185063
C254	C	0.938708	-0.529111	0.064937
C255	C	1.188708	-0.279111	0.314937
C256	C	1.438708	-0.029111	0.564937
C257	C	0.688693	-0.724504	-0.185059
C258	C	0.938693	-0.474504	0.064941
C259	C	1.188693	-0.224504	0.314941
C260	C	1.438693	0.025496	0.564941
C261	C	0.722103	-0.697156	-0.218526
C262	C	0.972103	-0.447156	0.031474
C263	C	1.222103	-0.197156	0.281474
C264	C	1.472103	0.052844	0.531474
C265	C	0.722095	-0.642565	-0.218506
C266	C	0.972095	-0.392565	0.031494
C267	C	1.222095	-0.142565	0.281494
C268	C	1.472095	0.107435	0.531494
N269	N	0.755498	-0.615215	-0.251975
N270	N	1.005498	-0.365215	-0.001975
N271	N	1.255498	-0.115215	0.248025
N272	N	1.505498	0.134785	0.498025
C273	C	0.788920	-0.642468	-0.285452
C274	C	1.038920	-0.392468	-0.035452
C275	C	1.288920	-0.142468	0.214548
C276	C	1.538920	0.107532	0.464548
C277	C	0.722193	-0.975640	-0.218565
C278	C	0.972193	-0.725640	0.031435
C279	C	1.222193	-0.475640	0.281435
C280	C	1.472193	-0.225640	0.531435
C281	C	0.722213	-1.030243	-0.218570
C282	C	0.972213	-0.780243	0.031430
C283	C	1.222213	-0.530243	0.281430
C284	C	1.472213	-0.280243	0.531430
C285	C	0.789041	-1.030146	-0.285518
C286	C	1.039041	-0.780146	-0.035518
C287	C	1.289041	-0.530146	0.214482
C288	C	1.539041	-0.280146	0.464482
C289	C	0.789024	-0.975542	-0.285510
C290	C	1.039024	-0.725542	-0.035510
C291	C	1.289024	-0.475542	0.214490
C292	C	1.539024	-0.225542	0.464490
C293	C	0.755597	-0.948290	-0.252034
C294	C	1.005597	-0.698290	-0.002034
C295	C	1.255597	-0.448290	0.247966
C296	C	1.505597	-0.198290	0.497966
C297	C	0.788887	-0.527803	-0.285425
C298	C	1.038887	-0.277803	-0.035425
C299	C	1.288887	-0.027803	0.214575
C300	C	1.538887	0.222197	0.464575
C301	C	0.788870	-0.473197	-0.285409
C302	C	1.038870	-0.223197	-0.035409
C303	C	1.288870	0.026803	0.214591
C304	C	1.538870	0.276803	0.464591
C305	C	0.722040	-0.473299	-0.218463
C306	C	0.972040	-0.223299	0.031537
C307	C	1.222040	0.026701	0.281537
C308	C	1.472040	0.276701	0.531537
C309	C	0.722058	-0.527900	-0.218477
C310	C	0.972058	-0.277900	0.031523
C311	C	1.222058	-0.027900	0.281523
C312	C	1.472058	0.222100	0.531523
C313	C	0.755483	-0.555150	-0.251962
C314	C	1.005483	-0.305150	-0.001962
C315	C	1.255483	-0.055150	0.248038
C316	C	1.505483	0.194850	0.498038
O317	O	0.693697	-0.614323	-0.190039
O318	O	0.943697	-0.364323	0.059961
O319	O	1.193697	-0.114323	0.309961
O320	O	1.443697	0.135677	0.559961
O321	O	0.817322	-0.614184	-0.313919
O322	O	1.067322	-0.364184	-0.063919
O323	O	1.317322	-0.114184	0.186081
O324	O	1.567322	0.135816	0.436081
C325	C	0.891879	-0.252010	-0.252008
C326	C	1.141879	-0.002010	-0.002008
C327	C	1.391879	0.247990	0.247992
C328	C	1.641879	0.497990	0.497992
C329	C	0.949993	-0.252020	-0.252023
C330	C	1.199993	-0.002020	-0.002023
C331	C	1.449993	0.247980	0.247977
C332	C	1.699993	0.497980	0.497977
C333	C	0.755523	-0.251978	-0.388347
C334	C	1.005523	-0.001978	-0.138347
C335	C	1.255523	0.248022	0.111653
C336	C	1.505523	0.498022	0.361653
C337	C	0.755530	-0.251975	-0.446461
C338	C	1.005530	-0.001975	-0.196461
C339	C	1.255530	0.248025	0.053539
C340	C	1.505530	0.498025	0.303539
C341	C	0.755595	-0.115615	-0.252026
C342	C	1.005595	0.134385	-0.002026
C343	C	1.255595	0.384385	0.247974
C344	C	1.505595	0.634385	0.497974
C345	C	0.755632	-0.057501	-0.252049
C346	C	1.005632	0.192499	-0.002049
C347	C	1.255632	0.442499	0.247951
C348	C	1.505632	0.692499	0.497951
C349	C	0.789035	-0.218440	-0.806851
C350	C	1.039035	0.031560	-0.556851
C351	C	1.289035	0.281560	-0.306851
C352	C	1.539035	0.531560	-0.056851
C353	C	0.789041	-0.218426	-0.861455
C354	C	1.039041	0.031574	-0.611455
C355	C	1.289041	0.281574	-0.361455
C356	C	1.539041	0.531574	-0.111455
O357	O	0.817486	-0.189976	-0.889715
O358	O	1.067486	0.060024	-0.639715
O359	O	1.317486	0.310024	-0.389715
O360	O	1.567486	0.560024	-0.139715
N361	N	0.755588	-0.251852	-0.888743
N362	N	1.005588	-0.001852	-0.638743
N363	N	1.255588	0.248148	-0.388743
N364	N	1.505588	0.498148	-0.138743
C365	C	0.722122	-0.285291	-0.861424
C366	C	0.972122	-0.035291	-0.611424
C367	C	1.222122	0.214709	-0.361424
C368	C	1.472122	0.464709	-0.111424
O369	O	0.693668	-0.313721	-0.889649
O370	O	0.943668	-0.063721	-0.639649
O371	O	1.193668	0.186279	-0.389649
O372	O	1.443668	0.436279	-0.139649
C373	C	0.722114	-0.285302	-0.806821
C374	C	0.972114	-0.035302	-0.556821
C375	C	1.222114	0.214698	-0.306821
C376	C	1.472114	0.464698	-0.056821
C377	C	0.755573	-0.251878	-0.779536
C378	C	1.005573	-0.001878	-0.529536
C379	C	1.255573	0.248122	-0.279536
C380	C	1.505573	0.498122	-0.029536
C381	C	0.822491	-0.185018	-0.779566
C382	C	1.072491	0.064982	-0.529566
C383	C	1.322491	0.314982	-0.279566
C384	C	1.572491	0.564982	-0.029566
C385	C	0.822485	-0.185034	-0.724965
C386	C	1.072485	0.064966	-0.474965
C387	C	1.322485	0.314966	-0.224965
C388	C	1.572485	0.564966	0.025035
C389	C	0.789023	-0.218471	-0.697650
C390	C	1.039023	0.031529	-0.447650
C391	C	1.289023	0.281529	-0.197650
C392	C	1.539023	0.531529	0.052350
C393	C	0.755567	-0.251893	-0.724935
C394	C	1.005567	-0.001893	-0.474935
C395	C	1.255567	0.248107	-0.224935
C396	C	1.505567	0.498107	0.025065
C397	C	0.688646	-0.318738	-0.779503
C398	C	0.938646	-0.068738	-0.529503
C399	C	1.188646	0.181262	-0.279503
C400	C	1.438646	0.431262	-0.029503
C401	C	0.688640	-0.318747	-0.724896
C402	C	0.938640	-0.068747	-0.474896
C403	C	1.188640	0.181253	-0.224896
C404	C	1.438640	0.431253	0.025104
C405	C	0.722099	-0.285322	-0.697611
C406	C	0.972099	-0.035322	-0.447611
C407	C	1.222099	0.214678	-0.197611
C408	C	1.472099	0.464678	0.052389
C409	C	0.722099	-0.285346	-0.643019
C410	C	0.972099	-0.035346	-0.393019
C411	C	1.222099	0.214654	-0.143019
C412	C	1.472099	0.464654	0.106981
N413	N	0.755552	-0.251920	-0.615731
N414	N	1.005552	-0.001920	-0.365731
N415	N	1.255552	0.248080	-0.115731
N416	N	1.505552	0.498080	0.134269
C417	C	0.789014	-0.218482	-0.643046
C418	C	1.039014	0.031518	-0.393046
C419	C	1.289014	0.281518	-0.143046
C420	C	1.539014	0.531518	0.106954
C421	C	0.722143	-0.285264	-0.976095
C422	C	0.972143	-0.035264	-0.726095
C423	C	1.222143	0.214736	-0.476095
C424	C	1.472143	0.464736	-0.226095
C425	C	0.722154	-0.285255	-1.030697
C426	C	0.972154	-0.035255	-0.780697
C427	C	1.222154	0.214745	-0.530697
C428	C	1.472154	0.464745	-0.280697
C429	C	0.789072	-0.218390	-1.030725
C430	C	1.039072	0.031610	-0.780725
C431	C	1.289072	0.281610	-0.530725
C432	C	1.539072	0.531610	-0.280725
C433	C	0.789063	-0.218401	-0.976121
C434	C	1.039063	0.031599	-0.726121
C435	C	1.289063	0.281599	-0.476121
C436	C	1.539063	0.531599	-0.226121
C437	C	0.755596	-0.251838	-0.948807
C438	C	1.005596	-0.001838	-0.698807
C439	C	1.255596	0.248162	-0.448807
C440	C	1.505596	0.498162	-0.198807
C441	C	0.789000	-0.218517	-0.528381
C442	C	1.039000	0.031483	-0.278381
C443	C	1.289000	0.281483	-0.028381
C444	C	1.539000	0.531483	0.221619
C445	C	0.788992	-0.218537	-0.473776
C446	C	1.038992	0.031463	-0.223776
C447	C	1.288992	0.281463	0.026224
C448	C	1.538992	0.531463	0.276224
C449	C	0.722072	-0.285401	-0.473754
C450	C	0.972072	-0.035401	-0.223754
C451	C	1.222072	0.214599	0.026246
C452	C	1.472072	0.464599	0.276246
C453	C	0.722081	-0.285383	-0.528354
C454	C	0.972081	-0.035383	-0.278354
C455	C	1.222081	0.214617	-0.028354
C456	C	1.472081	0.464617	0.221646
C457	C	0.755547	-0.251937	-0.555667
C458	C	1.005547	-0.001937	-0.305667
C459	C	1.255547	0.248063	-0.055667
C460	C	1.505547	0.498063	0.194333
O461	O	0.693668	-0.313780	-0.614725
O462	O	0.943668	-0.063780	-0.364725
O463	O	1.193668	0.186220	-0.114725
O464	O	1.443668	0.436220	0.135275
O465	O	0.817459	-0.190053	-0.614815
O466	O	1.067459	0.059947	-0.364815
O467	O	1.317459	0.309947	-0.114815
O468	O	1.567459	0.559947	0.135185
C469	C	0.755520	-0.251959	-0.116131
C470	C	1.005520	-0.001959	0.133869
C471	C	1.255520	0.248041	0.383869
C472	C	1.505520	0.498041	0.633869
C473	C	0.755614	-0.251816	-0.058017
C474	C	1.005614	-0.001816	0.191983
C475	C	1.255614	0.248184	0.441983
C476	C	1.505614	0.498184	0.691983
H477	H	-0.044938	-0.191264	-0.191470
H478	H	0.205062	0.058736	0.058530
H479	H	0.455062	0.308736	0.308530
H480	H	0.705062	0.558736	0.558530
H481	H	0.206244	-0.346220	-0.345924
H482	H	0.456244	-0.096220	-0.095924
H483	H	0.706244	0.153780	0.154076
H484	H	0.956244	0.403780	0.404076
H485	H	0.457425	-0.312732	-0.312504
H486	H	0.707425	-0.062732	-0.062504
H487	H	0.957425	0.187268	0.187496
H488	H	1.207425	0.437268	0.437496
H489	H	0.305281	-0.157738	-0.158057
H490	H	0.555281	0.092262	0.091943
H491	H	0.805281	0.342262	0.341943
H492	H	1.055281	0.592262	0.591943
Br493	Br	0.643237	-0.364106	-0.816519
Br494	Br	0.893237	-0.114106	-0.566519
Br495	Br	1.143237	0.135894	-0.316519
Br496	Br	1.393237	0.385894	-0.066519
Br497	Br	0.676685	-0.436303	-0.173032
Br498	Br	0.926685	-0.186303	0.076968
Br499	Br	1.176685	0.063697	0.326968
Br500	Br	1.426685	0.313697	0.576968
Br501	Br	0.676753	-0.330629	-1.067721
Br502	Br	0.926753	-0.080629	-0.817721
Br503	Br	1.176753	0.169371	-0.567721
Br504	Br	1.426753	0.419371	-0.317721
H505	H	0.457408	-0.191216	-0.191402
H506	H	0.707408	0.058784	0.058598
H507	H	0.957408	0.308784	0.308598
H508	H	1.207408	0.558784	0.558598
H509	H	0.694830	-0.312626	-0.451504
H510	H	0.944830	-0.062626	-0.201504
H511	H	1.194830	0.187374	0.048496
H512	H	1.444830	0.437374	0.298496
H513	H	0.849730	-0.157815	-0.702754
H514	H	1.099730	0.092185	-0.452754
H515	H	1.349730	0.342185	-0.202754
H516	H	1.599730	0.592185	0.047246
H517	H	0.849740	-0.157787	-0.801800
H518	H	1.099740	0.092213	-0.551800
H519	H	1.349740	0.342213	-0.301800
H520	H	1.599740	0.592213	-0.051800
Br521	Br	0.834250	-0.564777	-0.330869
Br522	Br	1.084250	-0.314777	-0.080869
Br523	Br	1.334250	-0.064777	0.169131
Br524	Br	1.584250	0.185223	0.419131
H525	H	0.556474	-0.191213	-0.191391
H526	H	0.806474	0.058787	0.058609
H527	H	1.056474	0.308787	0.308609
H528	H	1.306474	0.558787	0.558609
Br529	Br	0.834473	-0.173038	-0.939097
Br530	Br	1.084473	0.076962	-0.689097
Br531	Br	1.334473	0.326962	-0.439097
Br532	Br	1.584473	0.576962	-0.189097
H533	H	0.556474	-0.312731	-0.312480
H534	H	0.806474	-0.062731	-0.062480
H535	H	1.056474	0.187269	0.187520
H536	H	1.306474	0.437269	0.437520
Br537	Br	0.834406	-0.173174	-0.436749
Br538	Br	1.084406	0.076826	-0.186749
Br539	Br	1.334406	0.326826	0.063251
Br540	Br	1.584406	0.576826	0.313251
Br541	Br	0.320113	-0.364400	-0.364027
Br542	Br	0.570113	-0.114400	-0.114027
Br543	Br	0.820113	0.135600	0.135973
Br544	Br	1.070113	0.385600	0.385973
H545	H	0.206235	-0.157750	-0.158066
H546	H	0.456235	0.092250	0.091934
H547	H	0.706235	0.342250	0.341934
H548	H	0.956235	0.592250	0.591934
Br549	Br	0.676722	-0.330650	-0.939031
Br550	Br	0.926722	-0.080650	-0.689031
Br551	Br	1.176722	0.169350	-0.439031
Br552	Br	1.426722	0.419350	-0.189031
H553	H	0.054137	-0.312768	-0.312555
H554	H	0.304137	-0.062768	-0.062555
H555	H	0.554137	0.187232	0.187445
H556	H	0.804137	0.437232	0.437445
H557	H	0.816249	-0.191281	-0.550613
H558	H	1.066249	0.058719	-0.300613
H559	H	1.316249	0.308719	-0.050613
H560	H	1.566249	0.558719	0.199387
H561	H	-0.044930	-0.312773	-0.312565
H562	H	0.205070	-0.062773	-0.062565
H563	H	0.455070	0.187227	0.187435
H564	H	0.705070	0.437227	0.437435
H565	H	0.661503	-0.801368	-0.157810
H566	H	0.911503	-0.551368	0.092190
H567	H	1.161503	-0.301368	0.342190
H568	H	1.411503	-0.051368	0.592190
H569	H	0.661471	-0.702318	-0.157799
H570	H	0.911471	-0.452318	0.092201
H571	H	1.161471	-0.202318	0.342201
H572	H	1.411471	0.047682	0.592201
H573	H	0.816079	-0.450933	-0.312663
H574	H	1.066079	-0.200933	-0.062663
H575	H	1.316079	0.049067	0.187337
H576	H	1.566079	0.299067	0.437337
H577	H	0.661380	-0.345970	-0.702660
H578	H	0.911380	-0.095970	-0.452660
H579	H	1.161380	0.154030	-0.202660
H580	H	1.411380	0.404030	0.047340
H581	H	0.816228	-0.953279	-0.312763
H582	H	1.066228	-0.703279	-0.062763
H583	H	1.316228	-0.453279	0.187237
H584	H	1.566228	-0.203279	0.437237
Br585	Br	0.834485	-0.173009	-1.067806
Br586	Br	1.084485	0.076991	-0.817806
Br587	Br	1.334485	0.326991	-0.567806
Br588	Br	1.584485	0.576991	-0.317806
Br589	Br	0.676676	-0.330749	-0.565386
Br590	Br	0.926676	-0.080749	-0.315386
Br591	Br	1.176676	0.169251	-0.065386
Br592	Br	1.426676	0.419251	0.184614
Br593	Br	0.867700	-0.687218	-0.364363
Br594	Br	1.117700	-0.437218	-0.114363
Br595	Br	1.367700	-0.187218	0.135637
Br596	Br	1.617700	0.062782	0.385637
H597	H	0.816254	-1.052345	-0.312778
H598	H	1.066254	-0.802345	-0.062778
H599	H	1.316254	-0.552345	0.187222
H600	H	1.566254	-0.302345	0.437222
H601	H	0.849590	-0.801108	-0.346212
H602	H	1.099590	-0.551108	-0.096212
H603	H	1.349590	-0.301108	0.153788
H604	H	1.599590	-0.051108	0.403788
Br605	Br	0.068929	-0.173062	-0.173340
Br606	Br	0.318929	0.076938	0.076660
Br607	Br	0.568929	0.326938	0.326660
Br608	Br	0.818929	0.576938	0.576660
Br609	Br	0.676826	-0.938661	-0.173126
Br610	Br	0.926826	-0.688661	0.076874
Br611	Br	1.176826	-0.438661	0.326874
Br612	Br	1.426826	-0.188661	0.576874
Br613	Br	0.676878	-1.067350	-0.173139
Br614	Br	0.926878	-0.817350	0.076861
Br615	Br	1.176878	-0.567350	0.326861
Br616	Br	1.426878	-0.317350	0.576861
Br617	Br	0.676724	-0.565016	-0.173048
Br618	Br	0.926724	-0.315016	0.076952
Br619	Br	1.176724	-0.065016	0.326952
Br620	Br	1.426724	0.184984	0.576952
