data_functionalizedCrystal
_audit_creation_method	'MofGen! by Chris Wilmer'
_symmetry_space_group_name_H-M	'P1'
_symmetry_Int_Tables_number	1
_symmetry_cell_setting	triclinic
loop_
_symmetry_equiv_pos_as_xyz
  x,y,z
_cell_length_a	16.974885
_cell_length_b	22.610064
_cell_length_c	16.992695
_cell_angle_alpha	90.004006
_cell_angle_beta	87.023153
_cell_angle_gamma	86.363258
loop_
_atom_site_label
_atom_site_type_symbol
_atom_site_fract_x
_atom_site_fract_y
_atom_site_fract_z
O1	O	1.055447	-0.001288	0.099901
O2	O	1.388780	0.332046	0.433234
O3	O	1.722113	0.665379	0.766568
O4	O	0.826050	0.009684	0.112635
O5	O	1.159384	0.343017	0.445968
O6	O	1.492717	0.676350	0.779302
O7	O	0.939829	0.004237	-0.007874
O8	O	1.273162	0.337570	0.325460
O9	O	1.606496	0.670904	0.658793
O10	O	0.941668	0.004159	0.220410
O11	O	1.275001	0.337492	0.553743
O12	O	1.608335	0.670825	0.887076
O13	O	0.939793	-0.094130	-0.007874
O14	O	1.273127	0.239203	0.325459
O15	O	1.606460	0.572536	0.658793
O16	O	0.826015	-0.088684	0.112635
O17	O	1.159348	0.244649	0.445968
O18	O	1.492681	0.577983	0.779301
O19	O	1.055411	-0.099655	0.099901
O20	O	1.388744	0.233678	0.433234
O21	O	1.722078	0.567011	0.766567
Zn22	Zn	0.940707	-0.109788	0.106268
Zn23	Zn	1.274041	0.223546	0.439601
Zn24	Zn	1.607374	0.556879	0.772934
Zn25	Zn	0.940754	0.019816	0.106268
Zn26	Zn	1.274087	0.353149	0.439601
Zn27	Zn	1.607421	0.686482	0.772935
O28	O	0.941633	-0.094209	0.220409
O29	O	1.274966	0.239124	0.553743
O30	O	1.608299	0.572458	0.887076
C31	C	0.796544	-0.038090	0.112152
C32	C	1.129878	0.295243	0.445485
C33	C	1.463211	0.628577	0.778818
C34	C	0.708678	-0.033888	0.110702
C35	C	1.042011	0.299446	0.444035
C36	C	1.375345	0.632779	0.777368
C37	C	0.214089	-0.004437	0.102515
C38	C	0.547422	0.328896	0.435848
C39	C	0.880756	0.662230	0.769182
C40	C	0.296649	-0.008393	0.103877
C41	C	0.629982	0.324940	0.437211
C42	C	0.963315	0.658273	0.770544
C43	C	0.337901	-0.063992	0.104564
C44	C	0.671234	0.269341	0.437897
C45	C	1.004567	0.602674	0.771231
C46	C	0.296589	-0.115638	0.103881
C47	C	0.629923	0.217695	0.437214
C48	C	0.963256	0.551029	0.770547
C49	C	0.214032	-0.111681	0.102513
C50	C	0.547365	0.221652	0.435846
C51	C	0.880698	0.554986	0.769179
C52	C	0.584809	-0.081576	0.108650
C53	C	0.918142	0.251757	0.441984
C54	C	1.251476	0.585090	0.775317
C55	C	0.667372	-0.085530	0.110021
C56	C	1.000706	0.247804	0.443354
C57	C	1.334039	0.581137	0.776687
C58	C	0.667426	0.021716	0.110016
C59	C	1.000760	0.355049	0.443349
C60	C	1.334093	0.688382	0.776682
C61	C	0.584867	0.025668	0.108653
C62	C	0.918200	0.359001	0.441986
C63	C	1.251533	0.692334	0.775319
C64	C	0.543563	-0.025978	0.107965
C65	C	0.876896	0.307355	0.441298
C66	C	1.210229	0.640689	0.774632
N67	N	0.422290	-0.068038	0.105959
N68	N	0.755623	0.265296	0.439292
N69	N	1.088956	0.598629	0.772626
N70	N	0.459176	-0.021932	0.106564
N71	N	0.792509	0.311401	0.439898
N72	N	1.125842	0.644735	0.773231
N73	N	0.940681	-0.198239	0.106267
N74	N	1.274014	0.135095	0.439600
N75	N	1.607348	0.468428	0.772934
C76	C	0.991710	-0.609319	0.153787
C77	C	1.325043	-0.275985	0.487121
C78	C	1.658376	0.057348	0.820454
C79	C	0.991720	-0.671239	0.153785
C80	C	1.325053	-0.337906	0.487119
C81	C	1.658386	-0.004572	0.820452
O82	O	1.035074	-0.705330	0.194183
O83	O	1.368407	-0.371996	0.527517
O84	O	1.701741	-0.038663	0.860850
N85	N	0.940769	-0.699780	0.106259
N86	N	1.274102	-0.366447	0.439592
N87	N	1.607435	-0.033113	0.772926
C88	C	0.889811	-0.666398	0.058726
C89	C	1.223144	-0.333064	0.392059
C90	C	1.556477	0.000269	0.725392
O91	O	0.846474	-0.696360	0.018300
O92	O	1.179808	-0.363026	0.351633
O93	O	1.513141	-0.029693	0.684967
C94	C	0.889805	-0.604479	0.058724
C95	C	1.223139	-0.271145	0.392057
C96	C	1.556472	0.062188	0.725391
C97	C	0.940754	-0.575941	0.106259
C98	C	1.274087	-0.242607	0.439593
C99	C	1.607420	0.090726	0.772926
C100	C	1.042655	-0.580781	0.201318
C101	C	1.375988	-0.247447	0.534651
C102	C	1.709321	0.085886	0.867985
C103	C	1.042644	-0.518864	0.201321
C104	C	1.375977	-0.185531	0.534654
C105	C	1.709310	0.147802	0.867987
C106	C	0.991688	-0.485486	0.153793
C107	C	1.325021	-0.152153	0.487126
C108	C	1.658354	0.181180	0.820460
C109	C	0.940743	-0.514025	0.106262
C110	C	1.274076	-0.180691	0.439595
C111	C	1.607409	0.152642	0.772929
C112	C	0.838852	-0.571097	0.011187
C113	C	1.172185	-0.237764	0.344520
C114	C	1.505518	0.095569	0.677853
C115	C	0.838851	-0.509174	0.011189
C116	C	1.172185	-0.175841	0.344522
C117	C	1.505518	0.157492	0.677855
C118	C	0.889800	-0.480637	0.058724
C119	C	1.223133	-0.147303	0.392057
C120	C	1.556466	0.186030	0.725391
C121	C	0.889776	-0.418730	0.058737
C122	C	1.223109	-0.085397	0.392070
C123	C	1.556442	0.247936	0.725404
N124	N	0.940726	-0.390189	0.106263
N125	N	1.274060	-0.056856	0.439596
N126	N	1.607393	0.276477	0.772930
C127	C	0.991682	-0.423567	0.153791
C128	C	1.325016	-0.090234	0.487124
C129	C	1.658349	0.243099	0.820458
C130	C	0.889826	-0.796432	0.058732
C131	C	1.223160	-0.463099	0.392065
C132	C	1.556493	-0.129765	0.725398
C133	C	0.889827	-0.858350	0.058737
C134	C	1.223160	-0.525016	0.392070
C135	C	1.556494	-0.191683	0.725404
C136	C	0.991737	-0.863187	0.153796
C137	C	1.325071	-0.529854	0.487129
C138	C	1.658404	-0.196520	0.820463
C139	C	0.991732	-0.801268	0.153794
C140	C	1.325065	-0.467935	0.487128
C141	C	1.658399	-0.134601	0.820461
C142	C	0.940777	-0.767891	0.106258
C143	C	1.274110	-0.434558	0.439591
C144	C	1.607444	-0.101224	0.772925
C145	C	0.991655	-0.293539	0.153794
C146	C	1.324988	0.039795	0.487127
C147	C	1.658322	0.373128	0.820461
C148	C	0.991637	-0.231617	0.153795
C149	C	1.324970	0.101717	0.487128
C150	C	1.658304	0.435050	0.820462
C151	C	0.889730	-0.226785	0.058734
C152	C	1.223063	0.106548	0.392067
C153	C	1.556397	0.439882	0.725400
C154	C	0.889745	-0.288701	0.058735
C155	C	1.223078	0.044632	0.392069
C156	C	1.556411	0.377965	0.725402
C157	C	0.940713	-0.322077	0.106268
C158	C	1.274047	0.011256	0.439601
C159	C	1.607380	0.344590	0.772934
O160	O	0.846445	-0.384602	0.018357
O161	O	1.179779	-0.051268	0.351690
O162	O	1.513112	0.282065	0.685024
O163	O	1.035019	-0.393598	0.194202
O164	O	1.368352	-0.060264	0.527535
O165	O	1.701685	0.273069	0.860869
C166	C	1.084917	-0.051881	0.100384
C167	C	1.418250	0.281453	0.433718
C168	C	1.751584	0.614786	0.767051
C169	C	1.172783	-0.056079	0.101834
C170	C	1.506117	0.277254	0.435167
C171	C	1.839450	0.610588	0.768501
C172	C	0.937445	-0.044833	-0.037084
C173	C	1.270778	0.288500	0.296250
C174	C	1.604112	0.621833	0.629583
C175	C	0.930386	-0.044496	-0.124120
C176	C	1.263719	0.288838	0.209213
C177	C	1.597052	0.622171	0.542547
N178	N	0.940786	0.108267	0.106262
N179	N	1.274120	0.441600	0.439596
N180	N	1.607453	0.774933	0.772929
C181	C	0.998499	-0.047754	-0.174436
C182	C	1.331833	0.285579	0.158898
C183	C	1.665166	0.618913	0.492231
C184	C	0.991862	-0.047431	-0.256215
C185	C	1.325195	0.285903	0.077118
C186	C	1.658528	0.619236	0.410452
C187	C	0.917109	-0.043854	-0.287677
C188	C	1.250443	0.289480	0.045656
C189	C	1.583776	0.622813	0.378990
C190	C	0.848991	-0.040593	-0.237355
C191	C	1.182324	0.292740	0.095978
C192	C	1.515657	0.626073	0.429312
C193	C	0.855629	-0.040912	-0.155577
C194	C	1.188962	0.292421	0.177756
C195	C	1.522296	0.625754	0.511089
C196	C	0.889595	-0.042530	-0.531244
C197	C	1.222929	0.290804	-0.197911
C198	C	1.556262	0.624137	0.135422
C199	C	0.882962	-0.042213	-0.613029
C200	C	1.216295	0.291121	-0.279695
C201	C	1.549629	0.624454	0.053638
C202	C	1.025834	-0.049049	-0.631883
C203	C	1.359167	0.284284	-0.298550
C204	C	1.692501	0.617618	0.034784
C205	C	1.032466	-0.049371	-0.550103
C206	C	1.365799	0.283962	-0.216770
C207	C	1.699132	0.617295	0.116564
C208	C	0.964347	-0.046108	-0.499788
C209	C	1.297680	0.287226	-0.166455
C210	C	1.631014	0.620559	0.166879
N211	N	0.910323	-0.043525	-0.371268
N212	N	1.243656	0.289808	-0.037935
N213	N	1.576989	0.623141	0.295398
N214	N	0.971134	-0.046432	-0.416198
N215	N	1.304468	0.286901	-0.082865
N216	N	1.637801	0.620235	0.250468
C217	C	0.944016	-0.045137	0.249619
C218	C	1.277350	0.288196	0.582953
C219	C	1.610683	0.621530	0.916286
C220	C	0.951076	-0.045471	0.336656
C221	C	1.284409	0.287862	0.669989
C222	C	1.617742	0.621196	1.003322
H223	H	1.033159	-0.320706	0.192499
H224	H	1.366492	0.012627	0.525832
H225	H	1.699826	0.345961	0.859166
H226	H	1.059371	-0.050670	-0.148826
H227	H	1.392704	0.282663	0.184507
H228	H	1.726037	0.615996	0.517840
H229	H	0.800163	-0.038259	-0.114610
H230	H	1.133497	0.295075	0.218723
H231	H	1.466830	0.628408	0.552056
N232	N	0.341207	0.047302	0.104621
N233	N	0.674540	0.380636	0.437955
N234	N	1.007874	0.713969	0.771288
H235	H	0.378803	0.047889	0.056608
H236	H	0.712136	0.381223	0.389942
H237	H	1.045469	0.714556	0.723275
H238	H	0.302500	0.083096	0.104014
H239	H	0.635833	0.416429	0.437347
H240	H	0.969167	0.749763	0.770680
N241	N	0.169594	0.055529	0.101774
N242	N	0.502927	0.388862	0.435108
N243	N	0.836261	0.722196	0.768441
H244	H	0.180632	0.078449	0.150588
H245	H	0.513965	0.411782	0.483922
H246	H	0.847299	0.745115	0.817255
H247	H	0.187336	0.078070	0.053398
H248	H	0.520670	0.411403	0.386731
H249	H	0.854003	0.744736	0.720065
N250	N	0.834855	-0.760432	0.007469
N251	N	1.168188	-0.427099	0.340803
N252	N	1.501521	-0.093766	0.674136
H253	H	0.866846	-0.736267	-0.030930
H254	H	1.200179	-0.402934	0.302403
H255	H	1.533513	-0.069601	0.635736
H256	H	0.802592	-0.787950	-0.022582
H257	H	1.135925	-0.454617	0.310752
H258	H	1.469259	-0.121283	0.644085
H259	H	0.797365	-0.594322	-0.027523
H260	H	1.130698	-0.260989	0.305811
H261	H	1.464031	0.072344	0.639144
N262	N	0.540376	0.085635	0.107902
N263	N	0.873709	0.418968	0.441235
N264	N	1.207042	0.752302	0.774569
H265	H	0.551413	0.108556	0.156715
H266	H	0.884746	0.441890	0.490048
H267	H	1.218080	0.775223	0.823381
H268	H	0.558122	0.108173	0.059524
H269	H	0.891455	0.441506	0.392858
H270	H	1.224788	0.774839	0.726191
H271	H	0.701065	0.063763	0.110575
H272	H	1.034398	0.397096	0.443908
H273	H	1.367731	0.730429	0.777241
H274	H	0.788125	-0.037677	-0.262978
H275	H	1.121459	0.295656	0.070356
H276	H	1.454792	0.628990	0.403689
H277	H	1.081292	-0.051705	-0.672858
H278	H	1.414625	0.281628	-0.339525
H279	H	1.747959	0.614962	-0.006191
N280	N	0.169479	-0.167381	0.101773
N281	N	0.502812	0.165952	0.435107
N282	N	0.836146	0.499286	0.768440
H283	H	0.208176	-0.203203	0.101859
H284	H	0.541509	0.130130	0.435192
H285	H	0.874842	0.463464	0.768526
H286	H	0.132280	-0.168115	0.150069
H287	H	0.465613	0.165218	0.483402
H288	H	0.798946	0.498551	0.816735
N289	N	1.113087	-0.053214	-0.516160
N290	N	1.446420	0.280119	-0.182827
N291	N	1.779753	0.613453	0.150507
H292	H	1.119015	-0.089961	-0.482650
H293	H	1.452348	0.243372	-0.149317
H294	H	1.785682	0.576706	0.184016
H295	H	1.155189	-0.055201	-0.560481
H296	H	1.488522	0.278133	-0.227148
H297	H	1.821856	0.611466	0.106185
H298	H	0.797357	-0.482002	-0.027522
H299	H	1.130690	-0.148669	0.305811
H300	H	1.464024	0.184665	0.639144
H301	H	0.551190	-0.123630	0.108079
H302	H	0.884524	0.209703	0.441412
H303	H	1.217857	0.543036	0.774746
N304	N	0.711866	-0.145501	0.110758
N305	N	1.045199	0.187833	0.444091
N306	N	1.378533	0.521166	0.777425
H307	H	0.770433	-0.140168	0.111735
H308	H	1.103766	0.193165	0.445068
H309	H	1.437099	0.526498	0.778401
H310	H	0.694077	-0.168061	0.159100
H311	H	1.027410	0.165272	0.492433
H312	H	1.360744	0.498606	0.825767
N313	N	0.341078	-0.175607	0.104619
N314	N	0.674411	0.157727	0.437952
N315	N	1.007745	0.491060	0.771286
H316	H	0.399646	-0.170278	0.105593
H317	H	0.732979	0.163055	0.438926
H318	H	1.066313	0.496388	0.772259
H319	H	0.323288	-0.198165	0.152963
H320	H	0.656622	0.135168	0.486296
H321	H	0.989955	0.468502	0.819629
H322	H	0.834128	-0.039872	-0.490287
H323	H	1.167461	0.293461	-0.156954
H324	H	1.500794	0.626794	0.176379
H325	H	1.033125	-0.208384	0.192508
H326	H	1.366459	0.124949	0.525841
H327	H	1.699792	0.458282	0.859174
N328	N	0.802333	-0.038353	-0.646965
N329	N	1.135666	0.294980	-0.313632
N330	N	1.468999	0.628313	0.019702
H331	H	0.760186	-0.036333	-0.602682
H332	H	1.093520	0.297001	-0.269349
H333	H	1.426853	0.630334	0.063984
H334	H	0.796488	-0.001607	-0.680484
H335	H	1.129822	0.331726	-0.347151
H336	H	1.463155	0.665059	-0.013817
N337	N	1.097604	-0.488089	0.252582
N338	N	1.430938	-0.154756	0.585915
N339	N	1.764271	0.178578	0.919248
H340	H	1.129886	-0.518637	0.282682
H341	H	1.463219	-0.185304	0.616015
H342	H	1.796552	0.148029	0.949348
H343	H	1.134093	-0.464140	0.218370
H344	H	1.467426	-0.130807	0.551703
H345	H	1.800760	0.202527	0.885037
H346	H	1.084153	-0.607951	0.240021
H347	H	1.417487	-0.274618	0.573354
H348	H	1.750820	0.058716	0.906688
H349	H	1.033218	-0.778037	0.192502
H350	H	1.366552	-0.444703	0.525836
H351	H	1.699885	-0.111370	0.859169
N352	N	1.046699	-0.899194	0.205060
N353	N	1.380033	-0.565860	0.538393
N354	N	1.713366	-0.232527	0.871727
H355	H	1.038970	-0.942748	0.197842
H356	H	1.372303	-0.609415	0.531176
H357	H	1.705636	-0.276082	0.864509
H358	H	1.103221	-0.891062	0.189538
H359	H	1.436554	-0.557728	0.522871
H360	H	1.769888	-0.224395	0.856205
H361	H	0.848331	-0.881579	0.020038
H362	H	1.181664	-0.548246	0.353372
H363	H	1.514997	-0.214913	0.686705
N364	N	0.834780	-0.319486	0.007483
N365	N	1.168113	0.013848	0.340816
N366	N	1.501447	0.347181	0.674150
H367	H	0.802494	-0.288942	-0.022620
H368	H	1.135827	0.044391	0.310713
H369	H	1.469161	0.377724	0.644047
H370	H	0.866831	-0.346700	-0.030870
H371	H	1.200164	-0.013367	0.302463
H372	H	1.533498	0.319966	0.635797
H373	H	0.848241	-0.199597	0.020040
H374	H	1.181574	0.133736	0.353373
H375	H	1.514908	0.467069	0.686706
N376	N	1.065327	-0.050949	-0.310485
N377	N	1.398660	0.282385	0.022848
N378	N	1.731993	0.615718	0.356182
H379	H	1.113689	-0.053268	-0.278145
H380	H	1.447022	0.280065	0.055188
H381	H	1.780355	0.613398	0.388522
H382	H	1.065664	-0.087431	-0.344828
H383	H	1.398997	0.245902	-0.011495
H384	H	1.732330	0.579235	0.321838
