data_functionalizedCrystal
_audit_creation_method	'MofGen! by Chris Wilmer'
_symmetry_space_group_name_H-M	'P1'
_symmetry_Int_Tables_number	1
_symmetry_cell_setting	triclinic
loop_
_symmetry_equiv_pos_as_xyz
  x,y,z
_cell_length_a	18.215407
_cell_length_b	16.959454
_cell_length_c	18.215399
_cell_angle_alpha	89.973895
_cell_angle_beta	89.983176
_cell_angle_gamma	90.020523
loop_
_atom_site_label
_atom_site_type_symbol
_atom_site_fract_x
_atom_site_fract_y
_atom_site_fract_z
Zn1	Zn	1.125075	-0.314661	-0.416138
Zn2	Zn	1.458408	0.018672	-0.082804
Zn3	Zn	1.791741	0.352005	0.250529
Zn4	Zn	1.125000	-0.446852	-0.293080
Zn5	Zn	1.458333	-0.113519	0.040253
Zn6	Zn	1.791667	0.219814	0.373586
Zn7	Zn	1.002014	-0.314693	-0.293085
Zn8	Zn	1.335347	0.018641	0.040248
Zn9	Zn	1.668680	0.351974	0.373582
Zn10	Zn	1.001983	-0.446803	-0.416105
Zn11	Zn	1.335317	-0.113470	-0.082772
Zn12	Zn	1.668650	0.219864	0.250561
O13	O	1.063518	-0.380752	-0.354602
O14	O	1.396851	-0.047419	-0.021269
O15	O	1.730185	0.285914	0.312065
O16	O	1.228049	-0.332204	-0.399825
O17	O	1.561382	0.001129	-0.066492
O18	O	1.894716	0.334462	0.266841
O19	O	1.108667	-0.429355	-0.190097
O20	O	1.442000	-0.096022	0.143237
O21	O	1.775334	0.237312	0.476570
O22	O	1.018382	-0.204078	-0.309424
O23	O	1.351715	0.129256	0.023910
O24	O	1.685049	0.462589	0.357243
O25	O	1.227994	-0.429325	-0.309416
O26	O	1.561327	-0.095991	0.023917
O27	O	1.894661	0.237342	0.357251
O28	O	1.108794	-0.204055	-0.399830
O29	O	1.442128	0.129279	-0.066496
O30	O	1.775461	0.462612	0.266837
O31	O	1.018309	-0.332258	-0.190100
O32	O	1.351643	0.001075	0.143233
O33	O	1.684976	0.334409	0.476567
O34	O	0.899025	-0.332210	-0.309392
O35	O	1.232359	0.001123	0.023941
O36	O	1.565692	0.334457	0.357274
O37	O	1.018330	-0.429240	-0.519094
O38	O	1.351664	-0.095907	-0.185761
O39	O	1.684997	0.237427	0.147573
O40	O	0.899003	-0.429271	-0.399775
O41	O	1.232337	-0.095937	-0.066442
O42	O	1.565670	0.237396	0.266892
O43	O	1.108765	-0.332156	-0.519118
O44	O	1.442098	0.001177	-0.185784
O45	O	1.775432	0.334510	0.147549
O46	O	1.108638	-0.557457	-0.309385
O47	O	1.441971	-0.224123	0.023949
O48	O	1.775304	0.109210	0.357282
O49	O	1.018258	-0.557420	-0.399770
O50	O	1.351591	-0.224087	-0.066437
O51	O	1.684925	0.109246	0.266896
C52	C	0.872312	-0.380739	-0.354581
C53	C	1.205645	-0.047406	-0.021248
C54	C	1.538978	0.285928	0.312086
C55	C	0.790513	-0.380752	-0.354589
C56	C	1.123846	-0.047419	-0.021256
C57	C	1.457179	0.285915	0.312077
C58	C	0.602327	-0.431371	-0.401593
C59	C	0.935660	-0.098038	-0.068259
C60	C	1.268993	0.235296	0.265074
C61	C	0.525468	-0.431374	-0.401602
C62	C	0.858801	-0.098040	-0.068268
C63	C	1.192134	0.235293	0.265065
C64	C	0.525461	-0.330148	-0.307628
C65	C	0.858795	0.003185	0.025706
C66	C	1.192128	0.336519	0.359039
C67	C	0.602319	-0.330142	-0.307623
C68	C	0.935652	0.003191	0.025711
C69	C	1.268985	0.336525	0.359044
C70	C	0.640749	-0.380758	-0.354604
C71	C	0.974083	-0.047425	-0.021271
C72	C	1.307416	0.285909	0.312063
C73	C	0.487033	-0.380766	-0.354618
C74	C	0.820367	-0.047433	-0.021285
C75	C	1.153700	0.285900	0.312048
C76	C	0.403700	-0.380769	-0.354628
C77	C	0.737033	-0.047435	-0.021294
C78	C	1.070366	0.285898	0.312039
C79	C	0.724088	-0.380755	-0.354596
C80	C	1.057422	-0.047422	-0.021262
C81	C	1.390755	0.285912	0.312071
C82	C	1.063456	-0.586119	-0.354590
C83	C	1.396790	-0.252785	-0.021256
C84	C	1.730123	0.080548	0.312077
C85	C	1.063497	-0.673975	-0.354609
C86	C	1.396831	-0.340642	-0.021276
C87	C	1.730164	-0.007309	0.312058
C88	C	1.016526	-1.045462	-0.401661
C89	C	1.349859	-0.712128	-0.068328
C90	C	1.683192	-0.378795	0.265006
C91	C	1.110715	-1.045440	-0.307618
C92	C	1.444049	-0.712106	0.025715
C93	C	1.777382	-0.378773	0.359048
C94	C	1.110690	-0.962894	-0.307611
C95	C	1.444023	-0.629561	0.025722
C96	C	1.777356	-0.296227	0.359055
C97	C	1.063580	-0.921628	-0.354629
C98	C	1.396914	-0.588295	-0.021296
C99	C	1.730247	-0.254961	0.312037
C100	C	1.016497	-0.962908	-0.401654
C101	C	1.349830	-0.629575	-0.068321
C102	C	1.683164	-0.296242	0.265013
C103	C	1.157767	-0.921608	-0.260582
C104	C	1.491100	-0.588274	0.072751
C105	C	1.824434	-0.254941	0.406084
C106	C	1.157743	-0.839057	-0.260573
C107	C	1.491076	-0.505723	0.072760
C108	C	1.824409	-0.172390	0.406094
C109	C	1.110637	-0.797789	-0.307595
C110	C	1.443970	-0.464456	0.025738
C111	C	1.777303	-0.131123	0.359071
C112	C	1.063552	-0.839075	-0.354622
C113	C	1.396885	-0.505741	-0.021289
C114	C	1.730218	-0.172408	0.312044
C115	C	1.016442	-0.797809	-0.401640
C116	C	1.349776	-0.464476	-0.068307
C117	C	1.683109	-0.131142	0.265026
C118	C	0.969361	-0.839093	-0.448672
C119	C	1.302694	-0.505759	-0.115339
C120	C	1.636027	-0.172426	0.217995
C121	C	0.969391	-0.921641	-0.448676
C122	C	1.302724	-0.588308	-0.115343
C123	C	1.636057	-0.254974	0.217990
C124	C	1.110606	-0.715241	-0.307591
C125	C	1.443940	-0.381908	0.025742
C126	C	1.777273	-0.048574	0.359076
C127	C	1.016414	-0.715255	-0.401634
C128	C	1.349747	-0.381922	-0.068300
C129	C	1.683080	-0.048589	0.265033
C130	C	1.255471	-0.380767	-0.354624
C131	C	1.588804	-0.047433	-0.021290
C132	C	1.922138	0.285900	0.312043
C133	C	1.337270	-0.380773	-0.354633
C134	C	1.670603	-0.047439	-0.021300
C135	C	2.003936	0.285894	0.312034
C136	C	1.063553	-0.380689	-0.546555
C137	C	1.396886	-0.047356	-0.213222
C138	C	1.730219	0.285977	0.120112
C139	C	1.063568	-0.380662	-0.628354
C140	C	1.396901	-0.047329	-0.295021
C141	C	1.730234	0.286004	0.038313
C142	C	1.063600	-0.174584	-0.354631
C143	C	1.396933	0.158749	-0.021297
C144	C	1.730267	0.492083	0.312036
C145	C	1.063635	-0.086728	-0.354643
C146	C	1.396968	0.246606	-0.021310
C147	C	1.730301	0.579939	0.312024
C148	C	1.016558	-0.330070	-0.816551
C149	C	1.349892	0.003264	-0.483217
C150	C	1.683225	0.336597	-0.149884
C151	C	1.016571	-0.330054	-0.893409
C152	C	1.349904	0.003280	-0.560076
C153	C	1.683238	0.336613	-0.226743
C154	C	1.110665	-0.431161	-0.893395
C155	C	1.443998	-0.097827	-0.560062
C156	C	1.777332	0.235506	-0.226729
C157	C	1.110648	-0.431180	-0.816538
C158	C	1.443981	-0.097847	-0.483205
C159	C	1.777314	0.235487	-0.149871
C160	C	1.063596	-0.380630	-0.778118
C161	C	1.396929	-0.047297	-0.444784
C162	C	1.730262	0.286037	-0.111451
C163	C	1.063625	-0.380595	-0.931834
C164	C	1.396959	-0.047261	-0.598500
C165	C	1.730292	0.286072	-0.265167
C166	C	1.063640	-0.380578	-1.015168
C167	C	1.396973	-0.047245	-0.681834
C168	C	1.730306	0.286089	-0.348501
C169	C	1.063580	-0.380648	-0.694779
C170	C	1.396914	-0.047314	-0.361445
C171	C	1.730247	0.286019	-0.028112
C172	C	1.063526	-0.380758	-0.163396
C173	C	1.396859	-0.047425	0.169937
C174	C	1.730192	0.285908	0.503271
C175	C	1.063653	-0.380562	-0.081597
C176	C	1.396987	-0.047229	0.251736
C177	C	1.730320	0.286104	0.585069
H178	H	0.494187	-0.472586	-0.439866
H179	H	0.827521	-0.139253	-0.106532
H180	H	1.160854	0.194080	0.226801
H181	H	1.148953	-0.472355	-0.785245
H182	H	1.482286	-0.139022	-0.451912
H183	H	1.815620	0.194311	-0.118578
C184	C	0.644598	-0.487039	-0.453276
C185	C	0.977931	-0.153705	-0.119943
C186	C	1.311265	0.179628	0.213390
H187	H	0.610704	-0.517176	-0.481267
H188	H	0.944037	-0.183843	-0.147934
H189	H	1.277371	0.149491	0.185400
H190	H	0.674562	-0.521442	-0.425073
H191	H	1.007895	-0.188108	-0.091740
H192	H	1.341229	0.145225	0.241593
H193	H	0.674598	-0.456834	-0.485389
H194	H	1.007931	-0.123501	-0.152055
H195	H	1.341264	0.209833	0.181278
H196	H	0.978245	-0.288909	-0.785271
H197	H	1.311578	0.044424	-0.451938
H198	H	1.644912	0.377758	-0.118604
H199	H	0.978268	-0.288883	-0.924698
H200	H	1.311601	0.044450	-0.591365
H201	H	1.644934	0.377783	-0.258032
H202	H	0.494162	-0.288939	-0.269376
H203	H	0.827495	0.044394	0.063957
H204	H	1.160828	0.377727	0.397291
C205	C	0.644587	-0.274466	-0.255932
C206	C	0.977920	0.058867	0.077401
C207	C	1.311253	0.392200	0.410735
H208	H	0.610692	-0.244330	-0.227945
H209	H	0.944026	0.089003	0.105388
H210	H	1.277359	0.422337	0.438722
H211	H	0.674588	-0.240062	-0.284136
H212	H	1.007922	0.093271	0.049197
H213	H	1.341255	0.426604	0.382531
H214	H	0.674548	-0.304665	-0.223816
H215	H	1.007882	0.028668	0.109517
H216	H	1.341215	0.362002	0.442850
C217	C	0.964594	-0.669869	-0.453356
C218	C	1.297927	-0.336536	-0.120022
C219	C	1.631260	-0.003202	0.213311
H220	H	0.936558	-0.706280	-0.481361
H221	H	1.269891	-0.372947	-0.148027
H222	H	1.603224	-0.039614	0.185306
H223	H	0.992713	-0.637623	-0.485442
H224	H	1.326047	-0.304290	-0.152108
H225	H	1.659380	0.029044	0.181225
H226	H	0.932529	-0.637712	-0.425168
H227	H	1.265862	-0.304379	-0.091834
H228	H	1.599195	0.028954	0.241499
C229	C	0.917544	-0.793699	-0.500392
C230	C	1.250878	-0.460365	-0.167058
C231	C	1.584211	-0.127032	0.166275
H232	H	0.889506	-0.830104	-0.528401
H233	H	1.222839	-0.496770	-0.195068
H234	H	1.556172	-0.163437	0.138266
H235	H	0.945668	-0.761451	-0.532474
H236	H	1.279001	-0.428118	-0.199140
H237	H	1.612334	-0.094785	0.134193
H238	H	0.885482	-0.761542	-0.472201
H239	H	1.218815	-0.428208	-0.138868
H240	H	1.552148	-0.094875	0.194465
H241	H	0.931059	-0.955262	-0.486966
H242	H	1.264392	-0.621928	-0.153633
H243	H	1.597725	-0.288595	0.179701
H244	H	1.148974	-0.472316	-0.924687
H245	H	1.482307	-0.138983	-0.591353
H246	H	1.815640	0.194351	-0.258020
C247	C	0.964738	-1.090868	-0.453389
C248	C	1.298071	-0.757535	-0.120056
C249	C	1.631404	-0.424202	0.213277
H250	H	0.971496	-1.145942	-0.446660
H251	H	1.304830	-0.812609	-0.113326
H252	H	1.638163	-0.479276	0.220007
H253	H	0.975470	-1.077299	-0.502844
H254	H	1.308803	-0.743966	-0.169511
H255	H	1.642136	-0.410633	0.163822
H256	H	0.915291	-1.077385	-0.442565
H257	H	1.248624	-0.744052	-0.109231
H258	H	1.581957	-0.410719	0.224102
H259	H	1.149065	-1.079043	-0.269334
H260	H	1.482398	-0.745710	0.063999
H261	H	1.815732	-0.412377	0.397333
H262	H	1.196115	-0.955212	-0.222297
H263	H	1.529449	-0.621879	0.111036
H264	H	1.862782	-0.288546	0.444369
H265	H	1.148936	-0.681632	-0.269295
H266	H	1.482270	-0.348298	0.064038
H267	H	1.815603	-0.014965	0.397372
H268	H	1.196079	-0.805449	-0.222279
H269	H	1.529413	-0.472115	0.111055
H270	H	1.862746	-0.138782	0.444388
