data_functionalizedCrystal
_audit_creation_method	'MofGen! by Chris Wilmer'
_symmetry_space_group_name_H-M	'P1'
_symmetry_Int_Tables_number	1
_symmetry_cell_setting	triclinic
loop_
_symmetry_equiv_pos_as_xyz
  x,y,z
_cell_length_a	25.639242
_cell_length_b	25.639239
_cell_length_c	18.215399
_cell_angle_alpha	90.030035
_cell_angle_beta	90.020639
_cell_angle_gamma	90.030990
loop_
_atom_site_label
_atom_site_type_symbol
_atom_site_fract_x
_atom_site_fract_y
_atom_site_fract_z
Zn1	Zn	0.799257	-0.208264	0.416121
Zn2	Zn	1.132591	0.125070	0.749454
Zn3	Zn	1.465924	0.458403	1.082788
Zn4	Zn	0.799171	-0.295700	0.293050
Zn5	Zn	1.132505	0.037634	0.626383
Zn6	Zn	1.465838	0.370967	0.959717
Zn7	Zn	0.711824	-0.208268	0.293067
Zn8	Zn	1.045158	0.125065	0.626400
Zn9	Zn	1.378491	0.458398	0.959733
Zn10	Zn	0.711779	-0.295658	0.416073
Zn11	Zn	1.045112	0.037675	0.749407
Zn12	Zn	1.378446	0.371009	1.082740
O13	O	0.755508	-0.251972	0.354578
O14	O	1.088841	0.081361	0.687911
O15	O	1.422175	0.414694	1.021244
O16	O	0.872411	-0.219878	0.399808
O17	O	1.205745	0.113456	0.733142
O18	O	1.539078	0.446789	1.066475
O19	O	0.787567	-0.284121	0.190068
O20	O	1.120901	0.049212	0.523401
O21	O	1.454234	0.382546	0.856735
O22	O	0.723477	-0.135102	0.309417
O23	O	1.056811	0.198231	0.642750
O24	O	1.390144	0.531564	0.976083
O25	O	0.872348	-0.284116	0.309389
O26	O	1.205681	0.049217	0.642722
O27	O	1.539015	0.382550	0.976055
O28	O	0.787714	-0.135099	0.399824
O29	O	1.121048	0.198234	0.733158
O30	O	1.454381	0.531568	1.066491
O31	O	0.723394	-0.219885	0.190080
O32	O	1.056727	0.113448	0.523413
O33	O	1.390061	0.446781	0.856747
O34	O	0.638653	-0.219845	0.309371
O35	O	0.971986	0.113488	0.642704
O36	O	1.305320	0.446821	0.976037
O37	O	0.723400	-0.284046	0.519064
O38	O	1.056734	0.049288	0.852397
O39	O	1.390067	0.382621	1.185731
O40	O	0.638620	-0.284050	0.399743
O41	O	0.971953	0.049283	0.733077
O42	O	1.305286	0.382617	1.066410
O43	O	0.787670	-0.219837	0.519099
O44	O	1.121004	0.113496	0.852432
O45	O	1.454337	0.446829	1.185766
O46	O	0.787524	-0.368859	0.309343
O47	O	1.120857	-0.035526	0.642676
O48	O	1.454190	0.297807	0.976009
O49	O	0.723317	-0.368829	0.399727
O50	O	1.056650	-0.035495	0.733061
O51	O	1.389983	0.297838	1.066394
C52	C	0.619665	-0.251944	0.354554
C53	C	0.952999	0.081389	0.687887
C54	C	1.286332	0.414723	1.021221
C55	C	0.561551	-0.251945	0.354561
C56	C	0.894885	0.081389	0.687895
C57	C	1.228218	0.414722	1.021228
C58	C	0.310399	-0.218583	0.401745
C59	C	0.643732	0.114751	0.735078
C60	C	0.977066	0.448084	1.068412
C61	C	0.365003	-0.218577	0.401741
C62	C	0.698337	0.114756	0.735074
C63	C	1.031670	0.448089	1.068408
O64	O	0.393275	-0.190189	0.441853
O65	O	0.726608	0.143144	0.775186
O66	O	1.059941	0.476478	1.108520
N67	N	0.392277	-0.251966	0.354586
N68	N	0.725611	0.081367	0.687920
N69	N	1.058944	0.414700	1.021253
C70	C	0.364945	-0.285366	0.307438
C71	C	0.698278	0.047967	0.640771
C72	C	1.031611	0.381300	0.974104
O73	O	0.393157	-0.313766	0.267329
O74	O	0.726491	0.019567	0.600662
O75	O	1.059824	0.352901	0.933996
C76	C	0.310341	-0.285374	0.307446
C77	C	0.643675	0.047960	0.640780
C78	C	0.977008	0.381293	0.974113
C79	C	0.283070	-0.251979	0.354599
C80	C	0.616403	0.081355	0.687932
C81	C	0.949737	0.414688	1.021266
C82	C	0.283127	-0.185191	0.448894
C83	C	0.616461	0.148142	0.782228
C84	C	0.949794	0.481476	1.115561
C85	C	0.228527	-0.185195	0.448897
C86	C	0.561860	0.148138	0.782231
C87	C	0.895194	0.481471	1.115564
C88	C	0.201198	-0.218592	0.401751
C89	C	0.534531	0.114742	0.735085
C90	C	0.867864	0.448075	1.068418
C91	C	0.228469	-0.251983	0.354602
C92	C	0.561803	0.081350	0.687935
C93	C	0.895136	0.414683	1.021269
C94	C	0.283009	-0.318776	0.260302
C95	C	0.616343	0.014557	0.593635
C96	C	0.949676	0.347891	0.926969
C97	C	0.228402	-0.318781	0.260315
C98	C	0.561736	0.014553	0.593648
C99	C	0.895069	0.347886	0.926982
C100	C	0.201131	-0.285386	0.307468
C101	C	0.534464	0.047947	0.640801
C102	C	0.867798	0.381281	0.974134
C103	C	0.146540	-0.285384	0.307459
C104	C	0.479873	0.047949	0.640792
C105	C	0.813206	0.381282	0.974125
N106	N	0.119265	-0.251995	0.354613
N107	N	0.452599	0.081338	0.687947
N108	N	0.785932	0.414671	1.021280
C109	C	0.146595	-0.218599	0.401760
C110	C	0.479928	0.114734	0.735093
C111	C	0.813261	0.448068	1.068426
C112	C	0.479615	-0.285349	0.307425
C113	C	0.812949	0.047985	0.640758
C114	C	1.146282	0.381318	0.974091
C115	C	0.534218	-0.285339	0.307412
C116	C	0.867551	0.047994	0.640745
C117	C	1.200884	0.381328	0.974079
C118	C	0.534272	-0.218551	0.401716
C119	C	0.867606	0.114782	0.735049
C120	C	1.200939	0.448116	1.068383
C121	C	0.479669	-0.218558	0.401725
C122	C	0.813002	0.114775	0.735058
C123	C	1.146336	0.448108	1.068391
C124	C	0.452341	-0.251960	0.354579
C125	C	0.785674	0.081373	0.687913
C126	C	1.119008	0.414707	1.021246
C127	C	0.031929	-0.218611	0.401762
C128	C	0.365263	0.114722	0.735095
C129	C	0.698596	0.448056	1.068429
C130	C	-0.022676	-0.218617	0.401759
C131	C	0.310657	0.114716	0.735092
C132	C	0.643991	0.448050	1.068425
C133	C	-0.022726	-0.285407	0.307458
C134	C	0.310607	0.047926	0.640791
C135	C	0.643941	0.381260	0.974124
C136	C	0.031875	-0.285399	0.307458
C137	C	0.365208	0.047934	0.640791
C138	C	0.698541	0.381267	0.974124
C139	C	0.059201	-0.252000	0.354616
C140	C	0.392534	0.081334	0.687949
C141	C	0.725868	0.414667	1.021283
O142	O	0.118234	-0.313760	0.267369
O143	O	0.451567	0.019574	0.600702
O144	O	0.784900	0.352907	0.934036
O145	O	0.118375	-0.190209	0.441868
O146	O	0.451708	0.143124	0.775202
O147	O	0.785042	0.476458	1.108535
C148	C	0.755420	-0.387815	0.354544
C149	C	1.088753	-0.054482	0.687877
C150	C	1.422087	0.278852	1.021211
C151	C	0.755430	-0.445929	0.354554
C152	C	1.088764	-0.112596	0.687888
C153	C	1.422097	0.220738	1.021221
C154	C	0.789028	-0.806295	0.307595
C155	C	1.122361	-0.472962	0.640928
C156	C	1.455694	-0.139629	0.974261
C157	C	0.789048	-0.860900	0.307605
C158	C	1.122381	-0.527566	0.640938
C159	C	1.455715	-0.194233	0.974271
O160	O	0.817523	-0.889139	0.267641
O161	O	1.150856	-0.555806	0.600974
O162	O	1.484189	-0.222472	0.934308
N163	N	0.755600	-0.888211	0.354627
N164	N	1.088933	-0.554878	0.687960
N165	N	1.422267	-0.221545	1.021293
C166	C	0.722133	-0.860916	0.401647
C167	C	1.055466	-0.527583	0.734980
C168	C	1.388800	-0.194249	1.068314
O169	O	0.693685	-0.889161	0.441644
O170	O	1.027018	-0.555827	0.774978
O171	O	1.360352	-0.222494	1.108311
C172	C	0.722116	-0.806313	0.401640
C173	C	1.055449	-0.472979	0.734974
C174	C	1.388782	-0.139646	1.068307
C175	C	0.755562	-0.779004	0.354610
C176	C	1.088896	-0.445670	0.687943
C177	C	1.422229	-0.112337	1.021277
C178	C	0.822472	-0.778986	0.260569
C179	C	1.155805	-0.445653	0.593902
C180	C	1.489139	-0.112320	0.927235
C181	C	0.822451	-0.724386	0.260558
C182	C	1.155784	-0.391052	0.593891
C183	C	1.489118	-0.057719	0.927225
C184	C	0.788986	-0.697094	0.307573
C185	C	1.122319	-0.363761	0.640907
C186	C	1.455652	-0.030428	0.974240
C187	C	0.755541	-0.724403	0.354599
C188	C	1.088875	-0.391070	0.687933
C189	C	1.422208	-0.057737	1.021266
C190	C	0.688652	-0.779018	0.448664
C191	C	1.021985	-0.445685	0.781997
C192	C	1.355319	-0.112352	1.115331
C193	C	0.688638	-0.724411	0.448654
C194	C	1.021971	-0.391078	0.781987
C195	C	1.355305	-0.057745	1.115320
C196	C	0.722085	-0.697102	0.401623
C197	C	1.055418	-0.363769	0.734957
C198	C	1.388751	-0.030436	1.068290
C199	C	0.722055	-0.642511	0.401604
C200	C	1.055388	-0.309178	0.734937
C201	C	1.388722	0.024156	1.068271
N202	N	0.755503	-0.615199	0.354582
N203	N	1.088836	-0.281866	0.687915
N204	N	1.422170	0.051467	1.021249
C205	C	0.788968	-0.642491	0.307567
C206	C	1.122302	-0.309158	0.640900
C207	C	1.455635	0.024176	0.974233
C208	C	0.722172	-0.975587	0.401658
C209	C	1.055506	-0.642253	0.734992
C210	C	1.388839	-0.308920	1.068325
C211	C	0.722187	-1.030189	0.401662
C212	C	1.055520	-0.696856	0.734995
C213	C	1.388853	-0.363522	1.068329
C214	C	0.789102	-1.030169	0.307620
C215	C	1.122436	-0.696835	0.640954
C216	C	1.455769	-0.363502	0.974287
C217	C	0.789085	-0.975565	0.307613
C218	C	1.122419	-0.642232	0.640947
C219	C	1.455752	-0.308899	0.974280
C220	C	0.755621	-0.948275	0.354636
C221	C	1.088954	-0.614941	0.687970
C222	C	1.422287	-0.281608	1.021303
C223	C	0.788921	-0.527826	0.307548
C224	C	1.122255	-0.194492	0.640881
C225	C	1.455588	0.138841	0.974214
C226	C	0.788896	-0.473220	0.307539
C227	C	1.122229	-0.139887	0.640872
C228	C	1.455562	0.193446	0.974206
C229	C	0.721982	-0.473245	0.401583
C230	C	1.055315	-0.139912	0.734916
C231	C	1.388649	0.193421	1.068250
C232	C	0.722005	-0.527846	0.401589
C233	C	1.055339	-0.194513	0.734923
C234	C	1.388672	0.138821	1.068256
C235	C	0.755479	-0.555135	0.354569
C236	C	1.088813	-0.221802	0.687902
C237	C	1.422146	0.111532	1.021236
O238	O	0.693596	-0.614237	0.441549
O239	O	1.026930	-0.280904	0.774883
O240	O	1.360263	0.052430	1.108216
O241	O	0.817416	-0.614239	0.267583
O242	O	1.150750	-0.280906	0.600916
O243	O	1.484083	0.052427	0.934250
C244	C	0.891881	-0.252001	0.354602
C245	C	1.225214	0.081332	0.687935
C246	C	1.558548	0.414666	1.021269
C247	C	0.949995	-0.252013	0.354612
C248	C	1.283328	0.081320	0.687946
C249	C	1.616662	0.414653	1.021279
C250	C	0.755540	-0.251936	0.546531
C251	C	1.088873	0.081397	0.879864
C252	C	1.422207	0.414730	1.213197
C253	C	0.755553	-0.251921	0.628330
C254	C	1.088887	0.081412	0.961663
C255	C	1.422220	0.414746	1.294996
C256	C	0.755610	-0.115599	0.354628
C257	C	1.088944	0.217734	0.687961
C258	C	1.422277	0.551067	1.021294
C259	C	0.755654	-0.057485	0.354649
C260	C	1.088988	0.275848	0.687982
C261	C	1.422321	0.609181	1.021316
C262	C	0.755506	-0.251970	0.163372
C263	C	1.088840	0.081363	0.496705
C264	C	1.422173	0.414696	0.830038
C265	C	0.755594	-0.251839	0.081573
C266	C	1.088927	0.081495	0.414906
C267	C	1.422261	0.414828	0.748240
C268	C	0.789031	-0.218456	0.816543
C269	C	1.122364	0.114877	1.149876
C270	C	1.455698	0.448210	1.483210
C271	C	0.789037	-0.218441	0.893402
C272	C	1.122370	0.114892	1.226735
C273	C	1.455704	0.448226	1.560069
C274	C	0.722113	-0.285305	0.893354
C275	C	1.055446	0.048029	1.226688
C276	C	1.388780	0.381362	1.560021
C277	C	0.722104	-0.285317	0.816497
C278	C	1.055438	0.048017	1.149830
C279	C	1.388771	0.381350	1.483164
C280	C	0.755566	-0.251893	0.778093
C281	C	1.088900	0.081440	1.111427
C282	C	1.422233	0.414773	1.444760
C283	C	0.755581	-0.251866	0.931809
C284	C	1.088914	0.081467	1.265143
C285	C	1.422248	0.414801	1.598476
C286	C	0.755588	-0.251850	1.015143
C287	C	1.088921	0.081484	1.348476
C288	C	1.422254	0.414817	1.681810
C289	C	0.755559	-0.251909	0.694754
C290	C	1.088893	0.081424	1.028088
C291	C	1.422226	0.414758	1.361421
H292	H	0.054172	-0.191413	0.440162
H293	H	0.387505	0.141920	0.773496
H294	H	0.720839	0.475253	1.106829
H295	H	0.556534	-0.191358	0.440106
H296	H	0.889867	0.141975	0.773439
H297	H	1.223200	0.475309	1.106772
C298	C	0.685358	-0.945572	0.453394
C299	C	1.018692	-0.612238	0.786727
C300	C	1.352025	-0.278905	1.120060
N301	N	0.657633	-0.922967	0.492365
N302	N	0.990966	-0.589634	0.825698
N303	N	1.324300	-0.256301	1.159031
H304	H	0.694850	-0.312545	0.785190
H305	H	1.028183	0.020788	1.118523
H306	H	1.361517	0.354122	1.451857
C307	C	0.198345	-0.355524	0.208447
C308	C	0.531678	-0.022191	0.541781
C309	C	0.865011	0.311142	0.875114
N310	N	0.175707	-0.383198	0.169378
N311	N	0.509040	-0.049864	0.502712
N312	N	0.842373	0.283469	0.836045
C313	C	0.651859	-0.809046	0.500404
C314	C	0.985192	-0.475713	0.833738
C315	C	1.318526	-0.142379	1.167071
N316	N	0.624145	-0.831662	0.539379
N317	N	0.957478	-0.498329	0.872713
N318	N	1.290812	-0.164995	1.206046
H319	H	0.849726	-0.801201	0.222283
H320	H	1.183060	-0.467868	0.555616
H321	H	1.516393	-0.134535	0.888950
H322	H	0.816320	-0.953334	0.269318
H323	H	1.149654	-0.620000	0.602651
H324	H	1.482987	-0.286667	0.935985
H325	H	0.661388	-0.702194	0.486948
H326	H	0.994721	-0.368861	0.820281
H327	H	1.328054	-0.035527	1.153614
H328	H	0.694772	-0.550082	0.439887
H329	H	1.028105	-0.216749	0.773221
H330	H	1.361439	0.116585	1.106554
H331	H	0.305204	-0.345970	0.221905
H332	H	0.638538	-0.012636	0.555239
H333	H	0.971871	0.320697	0.888572
C334	C	0.825852	-0.181659	0.935693
C335	C	1.159185	0.151675	1.269027
C336	C	1.492519	0.485008	1.602360
N337	N	0.853583	-0.153953	0.967547
N338	N	1.186916	0.179381	1.300880
N339	N	1.520249	0.512714	1.634213
H340	H	0.816276	-0.191239	0.785277
H341	H	1.149610	0.142094	1.118611
H342	H	1.482943	0.475427	1.451944
H343	H	0.054080	-0.312587	0.269056
H344	H	0.387413	0.020746	0.602389
H345	H	0.720747	0.354079	0.935722
C346	C	0.825688	-0.443184	0.255796
C347	C	1.159022	-0.109851	0.589130
C348	C	1.492355	0.223483	0.922463
N349	N	0.853400	-0.420562	0.216824
N350	N	1.186733	-0.087229	0.550157
N351	N	1.520066	0.246105	0.883491
H352	H	-0.044878	-0.191420	0.440156
H353	H	0.288455	0.141913	0.773489
H354	H	0.621789	0.475246	1.106823
H355	H	0.816354	-1.052399	0.269340
H356	H	1.149687	-0.719066	0.602674
H357	H	1.483020	-0.385733	0.936007
C358	C	0.685306	-0.322067	0.935605
C359	C	1.018639	0.011266	1.268939
C360	C	1.351972	0.344599	1.602272
N361	N	0.657582	-0.349758	0.967428
N362	N	0.990915	-0.016424	1.300761
N363	N	1.324248	0.316909	1.634095
H364	H	0.206327	-0.158004	0.487297
H365	H	0.539661	0.175329	0.820631
H366	H	0.872994	0.508662	1.153964
C367	C	0.685174	-0.443214	0.453300
C368	C	1.018507	-0.109881	0.786634
C369	C	1.351841	0.223452	1.119967
N370	N	0.657453	-0.420593	0.492259
N371	N	0.990786	-0.087260	0.825592
N372	N	1.324120	0.246073	1.158925
C373	C	0.449676	-0.181825	0.453600
C374	C	0.783009	0.151508	0.786934
C375	C	1.116342	0.484841	1.120267
N376	N	0.427087	-0.154158	0.492678
N377	N	0.760421	0.179176	0.826011
N378	N	1.093754	0.512509	1.159344
C379	C	0.313181	-0.148446	0.500759
C380	C	0.646514	0.184888	0.834093
C381	C	0.979848	0.518221	1.167426
N382	N	0.335813	-0.120763	0.539822
N383	N	0.669147	0.212570	0.873155
N384	N	1.002480	0.545904	1.206489
C385	C	0.449559	-0.322088	0.255547
C386	C	0.782893	0.011246	0.588880
C387	C	1.116226	0.344579	0.922213
N388	N	0.426924	-0.349759	0.216471
N389	N	0.760257	-0.016425	0.549804
N390	N	1.093590	0.316908	0.883138
C391	C	0.564210	-0.322071	0.255534
C392	C	0.897543	0.011262	0.588867
C393	C	1.230877	0.344595	0.922200
N394	N	0.586798	-0.349741	0.216460
N395	N	0.920132	-0.016408	0.549793
N396	N	1.253465	0.316925	0.883127
C397	C	0.825741	-0.557836	0.255819
C398	C	1.159074	-0.224502	0.589152
C399	C	1.492408	0.108831	0.922485
N400	N	0.853471	-0.580439	0.216852
N401	N	1.186804	-0.247105	0.550185
N402	N	1.520137	0.086228	0.883519
C403	C	-0.052798	-0.322142	0.255600
C404	C	0.280535	0.011191	0.588933
C405	C	0.613868	0.344525	0.922267
N406	N	-0.075451	-0.349814	0.216545
N407	N	0.257883	-0.016480	0.549878
N408	N	0.591216	0.316853	0.883211
H409	H	0.849687	-0.702154	0.222264
H410	H	1.183021	-0.368821	0.555598
H411	H	1.516354	-0.035487	0.888931
H412	H	0.694946	-1.052419	0.439952
H413	H	1.028280	-0.719086	0.773285
H414	H	1.361613	-0.385753	1.106618
