data_functionalizedCrystal
_audit_creation_method	'MofGen! by Chris Wilmer'
_symmetry_space_group_name_H-M	'P1'
_symmetry_Int_Tables_number	1
_symmetry_cell_setting	triclinic
loop_
_symmetry_equiv_pos_as_xyz
  x,y,z
_cell_length_a	9.065218
_cell_length_b	9.065218
_cell_length_c	8.140239
_cell_angle_alpha	89.998329
_cell_angle_beta	90.001551
_cell_angle_gamma	94.984115
loop_
_atom_site_label
_atom_site_type_symbol
_atom_site_fract_x
_atom_site_fract_y
_atom_site_fract_z
O1	O	-1.960395	0.216354	-0.136612
O2	O	-1.627062	0.549687	0.196722
O3	O	-1.293729	0.883021	0.530055
O4	O	-1.531111	0.234100	-0.136614
O5	O	-1.197777	0.567434	0.196720
O6	O	-0.864444	0.900767	0.530053
O7	O	-1.754626	0.010585	-0.136608
O8	O	-1.421293	0.343918	0.196725
O9	O	-1.087959	0.677252	0.530059
O10	O	-1.736880	0.439870	-0.136617
O11	O	-1.403546	0.773203	0.196716
O12	O	-1.070213	1.106536	0.530049
O13	O	-1.754619	0.010583	0.136619
O14	O	-1.421286	0.343917	0.469953
O15	O	-1.087952	0.677250	0.803286
O16	O	-1.531103	0.234099	0.136613
O17	O	-1.197770	0.567432	0.469947
O18	O	-0.864437	0.900766	0.803280
O19	O	-1.960388	0.216352	0.136615
O20	O	-1.627055	0.549686	0.469949
O21	O	-1.293721	0.883019	0.803282
Zn22	Zn	-1.745745	0.225225	0.179995
Zn23	Zn	-1.412411	0.558559	0.513328
Zn24	Zn	-1.079078	0.891892	0.846662
Zn25	Zn	-1.745754	0.225228	-0.179993
Zn26	Zn	-1.412421	0.558561	0.153340
Zn27	Zn	-1.079087	0.891894	0.486673
O28	O	-1.736872	0.439868	0.136610
O29	O	-1.403539	0.773201	0.469943
O30	O	-1.070206	1.106535	0.803276
C31	C	-1.476120	0.232394	-0.000000
C32	C	-1.142787	0.565727	0.333333
C33	C	-0.809454	0.899061	0.666666
C34	C	-1.312277	0.227294	-0.000001
C35	C	-0.978944	0.560628	0.333332
C36	C	-0.645611	0.893961	0.666666
C37	C	-1.752917	-0.044403	0.000003
C38	C	-1.419584	0.288931	0.333337
C39	C	-1.086250	0.622264	0.666670
C40	C	-1.747817	-0.208245	-0.000003
C41	C	-1.414484	0.125088	0.333330
C42	C	-1.081151	0.458421	0.666663
C43	C	-1.738582	0.494855	-0.000005
C44	C	-1.405248	0.828189	0.333328
C45	C	-1.071915	1.161522	0.666661
C46	C	-1.743681	0.658698	-0.000009
C47	C	-1.410348	0.992032	0.333324
C48	C	-1.077015	1.325365	0.666657
C49	C	-2.015378	0.218059	-0.000002
C50	C	-1.682045	0.551392	0.333332
C51	C	-1.348712	0.884725	0.666665
C52	C	-2.179221	0.223158	-0.000012
C53	C	-1.845888	0.556492	0.333322
C54	C	-1.512555	0.889825	0.666655
N55	N	-1.745749	0.225223	0.425678
N56	N	-1.412415	0.558556	0.759011
N57	N	-1.079082	0.891890	1.092344
N58	N	-1.745761	0.225218	-0.425676
N59	N	-1.412428	0.558552	-0.092343
N60	N	-1.079095	0.891885	0.240991
