data_functionalizedCrystal
_audit_creation_method	'MofGen! by Chris Wilmer'
_symmetry_space_group_name_H-M	'P1'
_symmetry_Int_Tables_number	1
_symmetry_cell_setting	triclinic
loop_
_symmetry_equiv_pos_as_xyz
  x,y,z
_cell_length_a	16.098538
_cell_length_b	19.288864
_cell_length_c	19.288865
_cell_angle_alpha	83.136245
_cell_angle_beta	92.708117
_cell_angle_gamma	87.256992
loop_
_atom_site_label
_atom_site_type_symbol
_atom_site_fract_x
_atom_site_fract_y
_atom_site_fract_z
O1	O	0.069533	-0.924481	-0.083521
O2	O	0.402867	-0.591147	0.249812
O3	O	0.736200	-0.257814	0.583145
O4	O	0.069478	-0.722217	-0.095213
O5	O	0.402811	-0.388884	0.238121
O6	O	0.736144	-0.055551	0.571454
O7	O	0.069491	-0.829193	0.011763
O8	O	0.402824	-0.495859	0.345096
O9	O	0.736157	-0.162526	0.678429
O10	O	0.069520	-0.817505	-0.190497
O11	O	0.402854	-0.484172	0.142837
O12	O	0.736187	-0.150839	0.476170
O13	O	-0.069023	-0.822944	0.005538
O14	O	0.264310	-0.489610	0.338871
O15	O	0.597644	-0.156277	0.672205
O16	O	-0.069036	-0.715969	-0.101437
O17	O	0.264297	-0.382635	0.231896
O18	O	0.597631	-0.049302	0.565230
O19	O	-0.068980	-0.918232	-0.089746
O20	O	0.264353	-0.584898	0.243587
O21	O	0.597686	-0.251565	0.576921
Zn22	Zn	-0.091000	-0.816108	-0.096580
Zn23	Zn	0.242333	-0.482775	0.236754
Zn24	Zn	0.575666	-0.149441	0.570087
Zn25	Zn	0.091498	-0.824341	-0.088379
Zn26	Zn	0.424831	-0.491008	0.244955
Zn27	Zn	0.758164	-0.157675	0.578288
O28	O	-0.068993	-0.811256	-0.196721
O29	O	0.264340	-0.477923	0.136612
O30	O	0.597673	-0.144590	0.469946
C31	C	0.000213	-0.693216	-0.097949
C32	C	0.333547	-0.359883	0.235384
C33	C	0.666880	-0.026550	0.568718
C34	C	0.000192	-0.616112	-0.096821
C35	C	0.333525	-0.282778	0.236512
C36	C	0.666858	0.050555	0.569846
C37	C	0.000231	-0.825692	0.034527
C38	C	0.333565	-0.492359	0.367860
C39	C	0.666898	-0.159025	0.701193
C40	C	0.000224	-0.824563	0.111630
C41	C	0.333557	-0.491229	0.444963
C42	C	0.666890	-0.157896	0.778297
N43	N	-0.215550	-0.810494	-0.102176
N44	N	0.117783	-0.477161	0.231157
N45	N	0.451117	-0.143827	0.564490
C46	C	-0.259130	-0.855915	-0.056788
C47	C	0.074204	-0.522582	0.276546
C48	C	0.407537	-0.189249	0.609879
C49	C	-0.346319	-0.851994	-0.060709
C50	C	-0.012986	-0.518661	0.272624
C51	C	0.320348	-0.185328	0.605957
C52	C	-0.389927	-0.802655	-0.110023
C53	C	-0.056594	-0.469322	0.223310
C54	C	0.276739	-0.135989	0.556643
C55	C	-0.346342	-0.757230	-0.155414
C56	C	-0.013008	-0.423896	0.177919
C57	C	0.320325	-0.090563	0.511253
C58	C	-0.259154	-0.761147	-0.151489
C59	C	0.074179	-0.427814	0.181845
C60	C	0.407513	-0.094481	0.515178
C61	C	-0.653179	-0.788453	-0.124242
C62	C	-0.319846	-0.455119	0.209092
C63	C	0.013488	-0.121786	0.542425
C64	C	-0.740373	-0.784539	-0.128165
C65	C	-0.407040	-0.451206	0.205168
C66	C	-0.073706	-0.117873	0.538502
C67	C	-0.740344	-0.879304	-0.033459
C68	C	-0.407011	-0.545971	0.299874
C69	C	-0.073678	-0.212637	0.633208
C70	C	-0.653155	-0.883220	-0.029541
C71	C	-0.319822	-0.549887	0.303792
C72	C	0.013512	-0.216554	0.637126
C73	C	-0.609577	-0.837792	-0.074929
C74	C	-0.276243	-0.504459	0.258404
C75	C	0.057090	-0.171125	0.591738
C76	C	-0.479049	-0.798648	-0.114035
C77	C	-0.145716	-0.465315	0.219299
C78	C	0.187618	-0.131981	0.552632
C79	C	-0.520457	-0.841796	-0.070914
C80	C	-0.187123	-0.508463	0.262419
C81	C	0.146210	-0.175130	0.595753
N82	N	0.216047	-0.829961	-0.082777
N83	N	0.549381	-0.496627	0.250557
N84	N	0.882714	-0.163294	0.583890
C85	C	0.000286	-0.947233	-0.087009
C86	C	0.333619	-0.613900	0.246324
C87	C	0.666952	-0.280566	0.579657
C88	C	0.000313	-1.024338	-0.088137
C89	C	0.333646	-0.691005	0.245196
C90	C	0.666980	-0.357671	0.578530
C91	C	0.000214	-0.571416	-0.159588
C92	C	0.333547	-0.238083	0.173745
C93	C	0.666881	0.095250	0.507079
C94	C	0.000223	-0.498970	-0.158527
C95	C	0.333556	-0.165636	0.174806
C96	C	0.666890	0.167697	0.508140
C97	C	0.000226	-0.471222	-0.094695
C98	C	0.333560	-0.137889	0.238639
C99	C	0.666893	0.195444	0.571972
C100	C	0.000199	-0.515927	-0.031920
C101	C	0.333533	-0.182594	0.301414
C102	C	0.666866	0.150739	0.634747
C103	C	0.000182	-0.588372	-0.032983
C104	C	0.333515	-0.255039	0.300350
C105	C	0.666849	0.078295	0.633684
C106	C	0.048774	-0.365151	-0.042334
C107	C	0.382108	-0.031817	0.291000
C108	C	0.715441	0.301516	0.624333
C109	C	0.048797	-0.292707	-0.041273
C110	C	0.382130	0.040626	0.292060
C111	C	0.715464	0.373960	0.625394
C112	C	0.000276	-0.247779	-0.091413
C113	C	0.333610	0.085554	0.241921
C114	C	0.666943	0.418888	0.575254
C115	C	-0.048256	-0.275302	-0.142625
C116	C	0.285077	0.058031	0.190709
C117	C	0.618410	0.391364	0.524042
C118	C	-0.048274	-0.347747	-0.143688
C119	C	0.285060	-0.014414	0.189645
C120	C	0.618393	0.318920	0.522979
C121	C	0.000245	-0.392669	-0.093535
C122	C	0.333578	-0.059336	0.239799
C123	C	0.666911	0.273998	0.573132
C124	C	0.000307	-0.124528	-0.153033
C125	C	0.333641	0.208805	0.180300
C126	C	0.666974	0.542139	0.513633
C127	C	0.000311	-0.052080	-0.151970
C128	C	0.333644	0.281253	0.181363
C129	C	0.666978	0.614586	0.514697
C130	C	0.000296	-0.069040	-0.025360
C131	C	0.333629	0.264294	0.307973
C132	C	0.666963	0.597627	0.641306
C133	C	0.000284	-0.141486	-0.026426
C134	C	0.333617	0.191848	0.306907
C135	C	0.666950	0.525181	0.640240
C136	C	0.000293	-0.169225	-0.090264
C137	C	0.333627	0.164108	0.243069
C138	C	0.666960	0.497441	0.576402
C139	C	0.000268	-0.814757	-0.219485
C140	C	0.333601	-0.481424	0.113848
C141	C	0.666935	-0.148091	0.447182
C142	C	0.000281	-0.815887	-0.296588
C143	C	0.333614	-0.482553	0.036745
C144	C	0.666948	-0.149220	0.370079
C145	C	0.000237	-0.887331	0.156327
C146	C	0.333570	-0.553998	0.489660
C147	C	0.666903	-0.220665	0.822994
C148	C	0.000250	-0.886271	0.228775
C149	C	0.333583	-0.552938	0.562108
C150	C	0.666916	-0.219604	0.895441
C151	C	0.000233	-0.822438	0.256521
C152	C	0.333566	-0.489105	0.589855
C153	C	0.666899	-0.155771	0.923188
C154	C	0.000224	-0.759662	0.211815
C155	C	0.333557	-0.426328	0.545148
C156	C	0.666891	-0.092995	0.878481
C157	C	0.000220	-0.760724	0.139369
C158	C	0.333553	-0.427391	0.472702
C159	C	0.666886	-0.094057	0.806036
C160	C	-0.048300	-0.770069	0.362628
C161	C	0.285034	-0.436736	0.695961
C162	C	0.618367	-0.103402	1.029294
C163	C	-0.048300	-0.769009	0.435072
C164	C	0.285033	-0.435676	0.768406
C165	C	0.618366	-0.102343	1.101739
C166	C	0.000250	-0.819159	0.479968
C167	C	0.333584	-0.485826	0.813301
C168	C	0.666917	-0.152493	1.146634
C169	C	0.048791	-0.870381	0.452411
C170	C	0.382124	-0.537047	0.785744
C171	C	0.715457	-0.203714	1.119078
C172	C	0.048786	-0.871443	0.379965
C173	C	0.382119	-0.538110	0.713299
C174	C	0.715453	-0.204776	1.046632
C175	C	0.000238	-0.821279	0.335076
C176	C	0.333571	-0.487946	0.668409
C177	C	0.666905	-0.154613	1.001742
C178	C	0.000279	-0.880783	0.603221
C179	C	0.333612	-0.547449	0.936555
C180	C	0.666945	-0.214116	1.269888
C181	C	0.000297	-0.879720	0.675670
C182	C	0.333630	-0.546387	1.009003
C183	C	0.666963	-0.213054	1.342337
C184	C	0.000263	-0.753109	0.658708
C185	C	0.333596	-0.419775	0.992042
C186	C	0.666929	-0.086442	1.325375
C187	C	0.000253	-0.754173	0.586262
C188	C	0.333586	-0.420840	0.919595
C189	C	0.666920	-0.087507	1.252928
C190	C	0.000257	-0.818012	0.558522
C191	C	0.333590	-0.484679	0.891856
C192	C	0.666924	-0.151345	1.225189
H193	H	-0.381801	-0.888979	-0.023750
H194	H	-0.048468	-0.555646	0.309583
H195	H	0.284866	-0.222313	0.642917
H196	H	-0.223672	-0.724160	-0.188448
H197	H	0.109661	-0.390827	0.144885
H198	H	0.442994	-0.057493	0.478219
N199	N	0.101158	-0.924479	0.500823
N200	N	0.434491	-0.591145	0.834156
N201	N	0.767825	-0.257812	1.167489
H202	H	0.093801	-0.916034	0.550898
H203	H	0.427134	-0.582700	0.884232
H204	H	0.760468	-0.249367	1.217565
H205	H	0.161684	-0.920902	0.489996
H206	H	0.495018	-0.587568	0.823330
H207	H	0.828351	-0.254235	1.156663
N208	N	0.000292	-0.039118	0.043486
N209	N	0.333625	0.294215	0.376819
N210	N	0.666958	0.627549	0.710153
H211	H	0.051644	-0.011772	0.049059
H212	H	0.384977	0.321561	0.382392
H213	H	0.718311	0.654894	0.715725
H214	H	0.000246	-0.078465	0.083048
H215	H	0.333579	0.254869	0.416381
H216	H	0.666912	0.588202	0.749715
N217	N	0.000259	-0.189698	0.041273
N218	N	0.333593	0.143635	0.374606
N219	N	0.666926	0.476968	0.707939
H220	H	0.000262	-0.161130	0.081873
H221	H	0.333595	0.172204	0.415206
H222	H	0.666928	0.505537	0.748539
H223	H	0.051599	-0.222462	0.045899
H224	H	0.384932	0.110871	0.379232
H225	H	0.718266	0.444204	0.712566
N226	N	0.000186	-0.693019	0.091156
N227	N	0.333519	-0.359685	0.424490
N228	N	0.666852	-0.026352	0.757823
H229	H	0.000179	-0.703378	0.041053
H230	H	0.333513	-0.370045	0.374386
H231	H	0.666846	-0.036711	0.707719
H232	H	0.051527	-0.667501	0.102409
H233	H	0.384860	-0.334168	0.435743
H234	H	0.718193	-0.000835	0.769076
H235	H	0.000253	-0.701135	0.681299
H236	H	0.333586	-0.367801	1.014632
H237	H	0.666920	-0.034468	1.347966
H238	H	-0.617705	-0.751464	-0.161200
H239	H	-0.284371	-0.418131	0.172133
H240	H	0.048962	-0.084798	0.505467
H241	H	0.000243	-0.939314	0.133747
H242	H	0.333576	-0.605980	0.467080
H243	H	0.666910	-0.272647	0.800414
H244	H	-0.514562	-0.758476	-0.154188
H245	H	-0.181229	-0.425143	0.179145
H246	H	0.152105	-0.091810	0.512478
H247	H	-0.381853	-0.717053	-0.195564
H248	H	-0.048519	-0.383720	0.137769
H249	H	0.284814	-0.050386	0.471102
N250	N	0.000305	-0.947423	0.723884
N251	N	0.333639	-0.614090	1.057217
N252	N	0.666972	-0.280756	1.390551
H253	H	0.051657	-0.952127	0.756618
H254	H	0.384990	-0.618794	1.089951
H255	H	0.718323	-0.285461	1.423284
H256	H	0.000273	-0.987982	0.695265
H257	H	0.333606	-0.654648	1.028599
H258	H	0.666939	-0.321315	1.361932
N259	N	0.000286	-0.003888	-0.219688
N260	N	0.333619	0.329445	0.113645
N261	N	0.666952	0.662778	0.446979
H262	H	0.051623	-0.015115	-0.245257
H263	H	0.384956	0.318218	0.088076
H264	H	0.718290	0.651552	0.421409
H265	H	0.000244	0.046205	-0.209297
H266	H	0.333577	0.379538	0.124036
H267	H	0.666911	0.712871	0.457369
H268	H	0.000286	-0.932764	0.580635
H269	H	0.333619	-0.599431	0.913968
H270	H	0.666952	-0.266098	1.247302
N271	N	-0.212087	-0.909127	-0.003601
N272	N	0.121246	-0.575794	0.329732
N273	N	0.454579	-0.242460	0.663066
H274	H	-0.227227	-0.957718	-0.012153
H275	H	0.106106	-0.624385	0.321181
H276	H	0.439440	-0.291051	0.654514
H277	H	-0.227296	-0.900539	0.044970
H278	H	0.106038	-0.567206	0.378303
H279	H	0.439371	-0.233872	0.711637
N280	N	0.000234	-0.686472	0.538047
N281	N	0.333567	-0.353139	0.871380
N282	N	0.666901	-0.019806	1.204713
H283	H	0.000225	-0.645872	0.566615
H284	H	0.333558	-0.312539	0.899948
H285	H	0.666891	0.020794	1.233282
H286	H	-0.051118	-0.681839	0.505320
H287	H	0.282216	-0.348506	0.838653
H288	H	0.615549	-0.015173	1.171987
N289	N	-0.606126	-0.936439	0.023648
N290	N	-0.272793	-0.603105	0.356981
N291	N	0.060541	-0.269772	0.690315
H292	H	-0.621276	-0.985024	0.015087
H293	H	-0.287943	-0.651691	0.348421
H294	H	0.045390	-0.318358	0.681754
H295	H	-0.621338	-0.927855	0.072219
H296	H	-0.288004	-0.594522	0.405553
H297	H	0.045329	-0.261188	0.738886
H298	H	-0.087767	-0.238723	-0.183453
H299	H	0.245566	0.094611	0.149880
H300	H	0.578900	0.427944	0.483214
H301	H	-0.484948	-0.881966	-0.030760
H302	H	-0.151615	-0.548633	0.302573
H303	H	0.181718	-0.215299	0.635907
N304	N	0.000196	-0.690810	0.241732
N305	N	0.333530	-0.357477	0.575066
N306	N	0.666863	-0.024143	0.908399
H307	H	0.051536	-0.665636	0.227719
H308	H	0.384869	-0.332302	0.561053
H309	H	0.718203	0.001031	0.894386
H310	H	0.000165	-0.699715	0.294403
H311	H	0.333499	-0.366381	0.627736
H312	H	0.666832	-0.033048	0.961070
H313	H	0.088318	-0.270304	0.000424
H314	H	0.421652	0.063030	0.333758
H315	H	0.754985	0.396363	0.667091
N316	N	0.101108	-0.413606	0.011751
N317	N	0.434441	-0.080273	0.345084
N318	N	0.767774	0.253060	0.678418
H319	H	0.131860	-0.385179	0.044349
H320	H	0.465193	-0.051846	0.377683
H321	H	0.798526	0.281487	0.711016
H322	H	0.142553	-0.442125	-0.012388
H323	H	0.475886	-0.108792	0.320945
H324	H	0.809219	0.224541	0.654278
H325	H	-0.087820	-0.727299	0.457503
H326	H	0.245514	-0.393966	0.790836
H327	H	0.578847	-0.060632	1.124169
N328	N	0.000230	-0.601336	-0.228438
N329	N	0.333564	-0.268003	0.104895
N330	N	0.666897	0.065330	0.438228
H331	H	0.000248	-0.562024	-0.268040
H332	H	0.333581	-0.228691	0.065293
H333	H	0.666914	0.104642	0.398626
H334	H	-0.051123	-0.628691	-0.233952
H335	H	0.282210	-0.295357	0.099381
H336	H	0.615544	0.037976	0.432715
N337	N	0.000193	-0.486005	0.036929
N338	N	0.333526	-0.152671	0.370262
N339	N	0.666860	0.180662	0.703595
H340	H	0.000208	-0.433329	0.028079
H341	H	0.333542	-0.099995	0.361412
H342	H	0.666875	0.233338	0.694745
H343	H	0.051532	-0.504705	0.066698
H344	H	0.384865	-0.171372	0.400031
H345	H	0.718199	0.161961	0.733364
H346	H	0.000239	-0.462572	-0.209641
H347	H	0.333572	-0.129238	0.123692
H348	H	0.666905	0.204095	0.457026
N349	N	-0.100618	-0.377435	-0.198916
N350	N	0.232715	-0.044102	0.134418
N351	N	0.566049	0.289232	0.467751
H352	H	-0.131356	-0.337986	-0.230520
H353	H	0.201978	-0.004652	0.102813
H354	H	0.535311	0.328681	0.436147
H355	H	-0.142076	-0.409030	-0.175656
H356	H	0.191257	-0.075697	0.157678
H357	H	0.524591	0.257636	0.491011
H358	H	-0.087840	-0.729229	0.326078
H359	H	0.245494	-0.395896	0.659412
H360	H	0.578827	-0.062562	0.992745
N361	N	0.000313	-0.154454	-0.221883
N362	N	0.333647	0.178879	0.111450
N363	N	0.666980	0.512212	0.444784
H364	H	0.000322	-0.115143	-0.261486
H365	H	0.333655	0.218190	0.071847
H366	H	0.666989	0.551523	0.405180
H367	H	-0.051040	-0.181811	-0.227388
H368	H	0.282294	0.151522	0.105945
H369	H	0.615627	0.484856	0.439279
H370	H	-0.775834	-0.916289	0.003494
H371	H	-0.442500	-0.582956	0.336828
H372	H	-0.109167	-0.249622	0.670161
H373	H	0.000164	-0.624764	0.018131
H374	H	0.333497	-0.291430	0.351465
H375	H	0.666831	0.041903	0.684798
N376	N	-0.787420	-0.731327	-0.181356
N377	N	-0.454086	-0.397993	0.151978
N378	N	-0.120753	-0.064660	0.485311
H379	H	-0.772226	-0.739849	-0.229950
H380	H	-0.438893	-0.406515	0.103383
H381	H	-0.105559	-0.073182	0.436716
H382	H	-0.772271	-0.682757	-0.172740
H383	H	-0.438938	-0.349424	0.160593
H384	H	-0.105604	-0.016091	0.493927
N385	N	0.000259	-0.953970	0.277000
N386	N	0.333593	-0.620637	0.610334
N387	N	0.666926	-0.287303	0.943667
H388	H	0.051608	-0.984155	0.270405
H389	H	0.384942	-0.650821	0.603738
H390	H	0.718275	-0.317488	0.937071
H391	H	-0.051120	-0.979452	0.265778
H392	H	0.282214	-0.646119	0.599111
H393	H	0.615547	-0.312785	0.932444
N394	N	0.101137	-0.926682	0.350241
N395	N	0.434470	-0.593349	0.683574
N396	N	0.767804	-0.260015	1.016908
H397	H	0.131896	-0.958294	0.389670
H398	H	0.465229	-0.624960	0.723003
H399	H	0.798563	-0.291627	1.056337
H400	H	0.142576	-0.903431	0.318615
H401	H	0.475910	-0.570097	0.651948
H402	H	0.809243	-0.236764	0.985282
