data_functionalizedCrystal
_audit_creation_method	'MofGen! by Chris Wilmer'
_symmetry_space_group_name_H-M	'P1'
_symmetry_Int_Tables_number	1
_symmetry_cell_setting	triclinic
loop_
_symmetry_equiv_pos_as_xyz
  x,y,z
_cell_length_a	12.827893
_cell_length_b	17.641079
_cell_length_c	12.827893
_cell_angle_alpha	78.791840
_cell_angle_beta	90.003786
_cell_angle_gamma	78.822486
loop_
_atom_site_label
_atom_site_type_symbol
_atom_site_fract_x
_atom_site_fract_y
_atom_site_fract_z
Zn1	Zn	1.681534	-0.314744	0.675039
Zn2	Zn	1.716746	-0.446861	0.535640
Zn3	Zn	1.506819	-0.314731	0.500310
Zn4	Zn	1.542029	-0.446855	0.710338
O5	O	1.611782	-0.380798	0.605332
O6	O	1.832443	-0.332278	0.656561
O7	O	1.688899	-0.429331	0.384717
O8	O	1.500524	-0.204147	0.493929
O9	O	1.858313	-0.429344	0.554145
O10	O	1.628886	-0.204157	0.622303
O11	O	1.534667	-0.332256	0.358760
O12	O	1.365252	-0.332249	0.528157
O13	O	1.560534	-0.429333	0.851892
O14	O	1.391120	-0.429320	0.682464
O15	O	1.663028	-0.332272	0.825959
O16	O	1.723041	-0.557446	0.588372
O17	O	1.594677	-0.557441	0.716722
C18	C	1.340268	-0.380783	0.605308
C19	C	1.224119	-0.380796	0.605328
C20	C	1.159555	-0.332850	0.656128
C21	C	1.039508	-0.332862	0.656150
C22	C	1.666529	-0.586117	0.660234
C23	C	1.690045	-0.673954	0.683757
C24	C	1.789943	-0.797696	0.783779
C25	C	1.767838	-0.715160	0.761668
C26	C	1.634323	-0.715274	0.627929
C27	C	1.656413	-0.797812	0.650033
C28	C	1.734225	-0.839016	0.727958
C29	C	1.600694	-0.839132	0.594212
C30	C	1.622787	-0.921663	0.616310
C31	C	1.700597	-0.962873	0.694229
C32	C	1.756317	-0.921546	0.750056
C33	C	1.522888	-0.797927	0.516282
C34	C	1.467169	-0.839247	0.460460
C35	C	1.489256	-0.921779	0.482563
C36	C	1.567067	-0.962989	0.560483
C37	C	1.433536	-0.963105	0.426736
C38	C	1.455629	-1.045636	0.448834
C39	C	1.589159	-1.045519	0.582581
C40	C	1.884356	-0.380813	0.605356
C41	C	2.000511	-0.380819	0.605367
C42	C	1.611781	-0.380803	0.877903
C43	C	1.611780	-0.380805	0.994057
C44	C	1.556850	-0.174676	0.550238
C45	C	1.533441	-0.086840	0.526760
C46	C	1.662492	-0.332782	1.033010
C47	C	1.662493	-0.332783	1.153061
C48	C	1.611780	-0.380810	1.333825
C49	C	1.611781	-0.380808	1.217671
H50	H	1.652501	-1.079070	0.646056
O51	O	1.560139	-0.429901	1.177558
C52	C	1.633293	-0.480913	1.128084
H53	H	1.705073	-0.453034	1.104398
H54	H	1.593609	-0.491447	1.054099
H55	H	1.660351	-0.539506	1.185748
H56	H	1.370189	-0.929546	0.363282
O57	O	1.559892	-0.429884	1.060137
C58	C	1.512764	-0.474551	1.000613
H59	H	1.500463	-0.442236	0.914143
H60	H	1.432698	-0.482956	1.034472
H61	H	1.567022	-0.534578	1.005093
O62	O	1.831754	-0.961622	0.825881
C63	C	1.784972	-1.009395	0.906081
H64	H	1.696020	-0.984561	0.905810
H65	H	1.822935	-1.010303	0.986784
H66	H	1.798131	-1.071949	0.890503
O67	O	1.558616	-0.675208	0.552380
C68	C	1.478323	-0.627481	0.599045
H69	H	1.478464	-0.652337	0.688000
H70	H	1.397692	-0.626601	0.560953
H71	H	1.493886	-0.564913	0.585918
H72	H	1.193154	-0.291790	0.699600
H73	H	1.705903	-0.291664	0.977482
O74	O	0.973251	-0.283999	0.708120
C75	C	0.922190	-0.329123	0.787555
H76	H	0.921907	-0.388980	0.766563
H77	H	0.836830	-0.297012	0.792986
H78	H	0.966541	-0.337864	0.867347
H79	H	1.190519	-0.421852	0.561849
O80	O	1.722230	-1.043043	0.715608
C81	C	1.829779	-1.070560	0.696253
H82	H	1.860280	-1.022985	0.637990
H83	H	1.837124	-1.125793	0.660932
H84	H	1.878900	-1.085153	0.774185
O85	O	1.865574	-0.837606	0.859501
C86	C	1.909985	-0.783441	0.904072
H87	H	1.897924	-0.724621	0.845519
H88	H	1.998673	-0.807244	0.921700
H89	H	1.869273	-0.774658	0.981038
H90	H	1.055980	-0.421874	0.561879
O91	O	1.821793	-0.674930	0.815928
C92	C	1.749469	-0.627227	0.870614
H93	H	1.667010	-0.614927	0.830396
H94	H	1.776475	-0.569160	0.869104
H95	H	1.746440	-0.659020	0.956561
H96	H	1.705913	-0.291672	1.186610
H97	H	1.403817	-0.805689	0.397010
O98	O	1.501327	-0.717757	0.494647
C99	C	1.420690	-0.690249	0.413912
H100	H	1.418847	-0.737836	0.365587
H101	H	1.437476	-0.635027	0.359499
H102	H	1.340545	-0.675641	0.451364
O103	O	1.401372	-1.085657	0.394550
C104	C	1.327972	-1.031593	0.321017
H105	H	1.308567	-0.972753	0.348059
H106	H	1.252045	-1.055496	0.316204
H107	H	1.363949	-1.022813	0.239331
