data_functionalizedCrystal
_audit_creation_method	'MofGen! by Chris Wilmer'
_symmetry_space_group_name_H-M	'P1'
_symmetry_Int_Tables_number	1
_symmetry_cell_setting	triclinic
loop_
_symmetry_equiv_pos_as_xyz
  x,y,z
_cell_length_a	13.339070
_cell_length_b	19.188930
_cell_length_c	12.376457
_cell_angle_alpha	78.732154
_cell_angle_beta	104.398083
_cell_angle_gamma	99.387037
loop_
_atom_site_label
_atom_site_type_symbol
_atom_site_fract_x
_atom_site_fract_y
_atom_site_fract_z
O1	O	0.106678	0.960520	-0.094379
O2	O	0.606678	1.460520	0.405621
O3	O	0.123681	0.760527	-0.094302
O4	O	0.623681	1.260527	0.405698
O5	O	-0.031980	0.837571	-0.094328
O6	O	0.468020	1.337571	0.405672
O7	O	0.262339	0.883477	-0.094352
O8	O	0.762339	1.383477	0.405648
O9	O	0.006883	0.818309	0.093691
O10	O	0.506883	1.318309	0.593691
O11	O	0.162544	0.741266	0.093717
O12	O	0.662544	1.241266	0.593717
O13	O	0.145541	0.941258	0.093640
O14	O	0.645541	1.441258	0.593640
Zn15	Zn	0.160213	0.838204	0.123530
Zn16	Zn	0.660213	1.338204	0.623530
Zn17	Zn	0.109010	0.863582	-0.124192
Zn18	Zn	0.609010	1.363582	0.375808
O19	O	0.301202	0.864215	0.093666
O20	O	0.801202	1.364215	0.593666
C21	C	0.142565	0.724777	-0.000283
C22	C	0.642565	1.224777	0.499717
C23	C	0.140919	0.646946	-0.000253
C24	C	0.640919	1.146946	0.499747
C25	C	-0.050203	0.820186	-0.000317
C26	C	0.449797	1.320186	0.499683
C27	C	-0.162402	0.797072	-0.000313
C28	C	0.337598	1.297072	0.499687
C29	C	-0.528004	0.976793	-0.000381
C30	C	-0.028004	1.476793	0.499619
C31	C	-0.422587	0.998510	-0.000379
C32	C	0.077413	1.498510	0.499621
C33	C	-0.357535	0.948153	-0.000363
C34	C	0.142465	1.448153	0.499637
C35	C	-0.397911	0.876074	-0.000348
C36	C	0.102089	1.376074	0.499652
C37	C	-0.503337	0.854353	-0.000342
C38	C	-0.003337	1.354353	0.499658
C39	C	-0.332869	0.825713	-0.000323
C40	C	0.167131	1.325713	0.499677
C41	C	-0.373244	0.753634	-0.000309
C42	C	0.126756	1.253634	0.499691
C43	C	-0.478660	0.731917	-0.000303
C44	C	0.021340	1.231917	0.499697
C45	C	-0.543711	0.782275	-0.000319
C46	C	-0.043711	1.282275	0.499681
C47	C	-0.227443	0.847434	-0.000330
C48	C	0.272557	1.347434	0.499670
C49	C	-0.202776	0.724994	-0.000290
C50	C	0.297224	1.224994	0.499710
C51	C	-0.308193	0.703276	-0.000293
C52	C	0.191807	1.203276	0.499707
C53	C	0.232248	0.619911	-0.000278
C54	C	0.732248	1.119911	0.499722
C55	C	0.230694	0.546784	-0.000290
C56	C	0.730694	1.046784	0.499710
C57	C	0.137802	0.500698	-0.000300
C58	C	0.637802	1.000698	0.499700
C59	C	0.046463	0.527740	-0.000268
C60	C	0.546463	1.027740	0.499732
C61	C	0.048021	0.600864	-0.000245
C62	C	0.548021	1.100864	0.499755
N63	N	0.053564	0.385373	-0.064331
N64	N	0.553564	0.885373	0.435669
N65	N	0.052089	0.315909	-0.064356
N66	N	0.552089	0.815909	0.435644
C67	C	0.133100	0.280378	-0.000369
C68	C	0.633100	0.780378	0.499631
N69	N	0.215654	0.316939	0.063629
N70	N	0.715654	0.816939	0.563629
N71	N	0.217131	0.386410	0.063649
N72	N	0.717131	0.886410	0.563649
C73	C	0.136101	0.421406	-0.000325
C74	C	0.636101	0.921406	0.499675
C75	C	0.222750	0.174051	-0.000406
C76	C	0.722750	0.674051	0.499594
C77	C	0.221193	0.100923	-0.000411
C78	C	0.721193	0.600923	0.499589
C79	C	0.036957	0.081881	-0.000401
C80	C	0.536957	0.581881	0.499599
C81	C	0.038519	0.155007	-0.000384
C82	C	0.538519	0.655007	0.499616
C83	C	0.131416	0.201089	-0.000392
C84	C	0.631416	0.701089	0.499608
C85	C	0.319425	0.881600	-0.000347
C86	C	0.819425	1.381600	0.499653
C87	C	0.431622	0.904714	-0.000359
C88	C	0.931622	1.404714	0.499641
C89	C	0.126657	0.977009	-0.000382
C90	C	0.626657	1.477009	0.499618
C91	C	0.128301	1.054841	-0.000419
C92	C	0.628301	1.554841	0.499581
N93	N	0.195156	0.820889	0.292595
N94	N	0.695156	1.320889	0.792595
N95	N	0.074058	0.880901	-0.293257
N96	N	0.574058	1.380901	0.206743
C97	C	-0.007078	0.921090	0.647546
C98	C	0.492922	1.421090	1.147546
C99	C	-0.031536	0.933205	0.529202
C100	C	0.468464	1.433205	1.029202
C101	C	0.025135	0.905126	0.470044
C102	C	0.525135	1.405126	0.970044
C103	C	0.106268	0.864932	0.529242
C104	C	0.606268	1.364932	1.029242
C105	C	0.130733	0.852821	0.647598
C106	C	0.630733	1.352821	1.147598
C107	C	0.162946	0.836858	0.470096
C108	C	0.662946	1.336858	0.970096
C109	C	0.244079	0.796663	0.529294
C110	C	0.744079	1.296663	1.029294
C111	C	0.268540	0.784554	0.647638
C112	C	0.768540	1.284554	1.147638
C113	C	0.211869	0.812632	0.706796
C114	C	0.711869	1.312632	1.206796
C115	C	0.138481	0.848969	0.351740
C116	C	0.638481	1.348969	0.851740
C117	C	0.276292	0.780700	0.351793
C118	C	0.776292	1.280700	0.851793
C119	C	0.300750	0.768585	0.470136
C120	C	0.800750	1.268585	0.970136
H121	H	-0.194580	0.906121	-0.000341
H122	H	0.305420	1.406121	0.499659
F123	F	0.327902	0.518004	-0.000314
F124	F	0.827902	1.018004	0.499686
F125	F	-0.597236	1.030376	-0.000381
F126	F	-0.097236	1.530376	0.499619
F127	F	-0.133547	0.671395	-0.000267
F128	F	0.366453	1.171395	0.499733
H129	H	0.307892	0.657427	-0.000287
H130	H	0.807892	1.157427	0.499713
H131	H	-0.097592	0.965931	0.481007
H132	H	0.402408	1.465931	0.981007
H133	H	-0.029174	0.490213	-0.000292
H134	H	0.470826	0.990213	0.499708
H135	H	-0.053207	0.943952	0.695719
H136	H	0.446793	1.443952	1.195719
F137	F	0.237895	0.799735	0.832753
F138	F	0.737895	1.299735	1.332753
F139	F	-0.379627	1.075221	-0.000413
F140	F	0.120373	1.575221	0.499587
H141	H	0.298396	0.211572	-0.000396
H142	H	0.798396	0.711572	0.499604
F143	F	-0.655933	0.759175	-0.000428
F144	F	-0.155933	1.259175	0.499572
F145	F	0.052137	0.891745	0.288751
F146	F	0.552137	1.391745	0.788751
H147	H	-0.026352	0.622875	-0.000225
H148	H	0.473648	1.122875	0.499775
H149	H	0.295569	0.078912	-0.000425
H150	H	0.795569	0.578912	0.499575
F151	F	-0.061904	0.032836	-0.000400
F152	F	0.438096	0.532836	0.499600
H153	H	-0.035852	0.177019	-0.000370
H154	H	0.464148	0.677019	0.499630
H155	H	0.005218	0.914992	0.373683
H156	H	0.505218	1.414992	0.873683
H157	H	-0.271701	0.965840	-0.000361
H158	H	0.228299	1.465840	0.499639
H159	H	-0.511528	0.673225	-0.000283
H160	H	-0.011528	1.173225	0.499717
F161	F	-0.351177	0.626566	-0.000279
F162	F	0.148823	1.126566	0.499721
F163	F	0.354898	0.741784	0.710641
F164	F	0.854898	1.241784	1.210641
H165	H	0.366810	0.735858	0.518350
H166	H	0.866810	1.235858	1.018350
H167	H	0.322441	0.757838	0.303627
H168	H	0.822441	1.257838	0.803627
