data_functionalizedCrystal
_audit_creation_method	'MofGen! by Chris Wilmer'
_symmetry_space_group_name_H-M	'P1'
_symmetry_Int_Tables_number	1
_symmetry_cell_setting	triclinic
loop_
_symmetry_equiv_pos_as_xyz
  x,y,z
_cell_length_a	13.033748
_cell_length_b	19.121111
_cell_length_c	13.032268
_cell_angle_alpha	80.750656
_cell_angle_beta	103.297929
_cell_angle_gamma	80.669646
loop_
_atom_site_label
_atom_site_type_symbol
_atom_site_fract_x
_atom_site_fract_y
_atom_site_fract_z
Zn1	Zn	1.534067	0.183272	-0.407899
Zn2	Zn	1.549100	0.284924	-0.237695
Zn3	Zn	1.379015	0.183323	-0.252843
Zn4	Zn	1.346495	0.319483	-0.440271
O5	O	1.452169	0.242751	-0.334677
O6	O	1.685741	0.182272	-0.365433
O7	O	1.546440	0.257004	-0.090035
O8	O	1.406901	0.083791	-0.266204
O9	O	1.696787	0.256955	-0.240386
O10	O	1.520817	0.083754	-0.380122
O11	O	1.421479	0.182359	-0.101164
O12	O	1.225021	0.215870	-0.297593
O13	O	1.351475	0.315857	-0.585646
O14	O	1.201129	0.315906	-0.435295
O15	O	1.489283	0.215783	-0.561863
O16	O	1.514906	0.389033	-0.271776
O17	O	1.366053	0.414424	-0.420607
C18	C	1.174264	0.269644	-0.371602
C19	C	1.055370	0.281169	-0.387425
C20	C	1.014149	0.236756	-0.326447
C21	C	0.891266	0.248667	-0.342799
C22	C	1.438608	0.427534	-0.348080
C23	C	1.432899	0.506579	-0.353836
C24	C	1.507763	0.530472	-0.279102
C25	C	1.502400	0.604744	-0.284521
C26	C	1.422167	0.655122	-0.364671
C27	C	1.347300	0.631225	-0.439413
C28	C	1.352669	0.556954	-0.433998
C29	C	1.402081	0.880035	-0.384902
C30	C	1.396716	0.954310	-0.390310
C31	C	1.551818	0.927824	-0.235418
C32	C	1.557175	0.853553	-0.230006
C33	C	1.482312	0.829662	-0.304751
C34	C	1.416681	0.731040	-0.370211
C35	C	1.487803	0.753745	-0.299216
C36	C	1.731160	0.215753	-0.297609
C37	C	1.850049	0.204248	-0.281813
C38	C	1.415075	0.269669	-0.613647
C39	C	1.399267	0.281140	-0.732528
C40	C	1.465799	1.057247	-0.321256
C41	C	1.471580	0.978203	-0.315575
C42	C	1.460405	0.236740	-0.773761
C43	C	1.444068	0.248595	-0.896630
C44	C	1.489185	0.215880	-0.056780
C45	C	1.505214	0.204188	0.062142
H46	H	0.905726	0.157406	-0.217493
O47	O	0.824794	0.304465	-0.419643
C48	C	0.678619	0.340260	-0.581366
C49	C	0.753847	0.277003	-0.494427
H50	H	0.621224	0.318082	-0.641838
H51	H	0.728707	0.371848	-0.624821
H52	H	0.630183	0.377692	-0.541747
H53	H	0.802298	0.239520	-0.533960
H54	H	0.703698	0.245471	-0.450980
O55	O	1.279917	0.533656	-0.506448
C56	C	1.139605	0.465275	-0.533820
C57	C	1.221964	0.491593	-0.451645
H58	H	1.092712	0.431274	-0.489546
H59	H	1.183693	0.431069	-0.580715
H60	H	1.081384	0.514051	-0.592052
H61	H	1.280206	0.442860	-0.393345
H62	H	1.177805	0.525823	-0.404829
O63	O	0.988796	0.336997	-0.464134
C64	C	0.805628	0.399814	-0.550299
C65	C	0.880895	0.336549	-0.463402
H66	H	0.718376	0.399482	-0.549721
H67	H	0.816897	0.393637	-0.632811
H68	H	0.825906	0.453195	-0.532643
H69	H	0.860664	0.283138	-0.480956
H70	H	0.869613	0.342790	-0.380918
O71	O	1.585797	0.481635	-0.201201
C72	C	1.739029	0.463212	-0.048103
C73	C	1.650724	0.518595	-0.136286
H74	H	1.791532	0.493073	0.004417
H75	H	1.790979	0.427733	-0.087225
H76	H	1.699895	0.427821	0.003829
H77	H	1.689767	0.554034	-0.188248
H78	H	1.598783	0.554023	-0.097095
H79	H	1.379621	0.295383	-0.952289
H80	H	1.569649	0.157392	-0.882201
O81	O	1.322313	0.336978	-0.798773
C82	C	1.181548	0.439262	-0.811795
C83	C	1.268643	0.376043	-0.736656
H84	H	1.138147	0.470872	-0.761603
H85	H	1.121043	0.417070	-0.869135
H86	H	1.221034	0.476677	-0.860281
H87	H	1.229252	0.338603	-0.688099
H88	H	1.329138	0.398284	-0.679386
O89	O	1.575349	0.627929	-0.212119
C90	C	1.715804	0.696209	-0.184989
C91	C	1.633158	0.670029	-0.267063
H92	H	1.762550	0.730265	-0.229381
H93	H	1.774122	0.647420	-0.126883
H94	H	1.671862	0.730368	-0.137937
H95	H	1.677009	0.635883	-0.314191
H96	H	1.574844	0.718849	-0.325098
O97	O	1.635220	0.804714	-0.152116
C98	C	1.788466	0.786285	0.000969
C99	C	1.700152	0.841671	-0.087200
H100	H	1.840974	0.816142	0.053491
H101	H	1.840409	0.750811	-0.038165
H102	H	1.749340	0.750889	0.052903
H103	H	1.739188	0.877115	-0.139164
H104	H	1.648218	0.877094	-0.047997
O105	O	1.624492	0.951155	-0.162940
C106	C	1.684945	1.053834	-0.102610
C107	C	1.602578	1.027512	-0.184770
H108	H	1.667243	1.115570	-0.120216
H109	H	1.769744	1.032696	-0.108951
H110	H	1.678779	1.032714	-0.017778
H111	H	1.608645	1.048622	-0.269638
H112	H	1.517813	1.048642	-0.178334
H113	H	1.351353	0.772066	-0.435467
H114	H	1.331391	0.995328	-0.455594
O115	O	1.080717	0.180891	-0.249801
C116	C	1.263893	0.118127	-0.163545
C117	C	1.188630	0.181415	-0.250404
H118	H	1.351157	0.118539	-0.163989
H119	H	1.243762	0.064710	-0.181195
H120	H	1.252473	0.124311	-0.081088
H121	H	1.200009	0.175301	-0.332896
H122	H	1.208780	0.234808	-0.232660
O123	O	1.537265	0.180975	-0.707210
C124	C	1.623557	0.118274	-0.524076
C125	C	1.536486	0.181466	-0.599317
H126	H	1.622941	0.118640	-0.436831
H127	H	1.706028	0.124510	-0.535336
H128	H	1.606109	0.064852	-0.544375
H129	H	1.553833	0.234917	-0.579064
H130	H	1.454043	0.175165	-0.588044
H131	H	1.281977	0.672249	-0.504677
O132	O	1.329374	0.856924	-0.457645
C133	C	1.254775	0.856749	-0.644790
C134	C	1.337156	0.882985	-0.562526
H135	H	1.261054	0.877795	-0.729602
H136	H	1.169966	0.877964	-0.638540
H137	H	1.272369	0.795013	-0.627112
H138	H	1.319662	0.944717	-0.580149
H139	H	1.421939	0.861716	-0.568793
O140	O	1.565698	0.704880	-0.221222
C141	C	1.643530	0.659546	-0.030758
C142	C	1.555283	0.714944	-0.118980
H143	H	1.635126	0.667653	0.051925
H144	H	1.726240	0.667564	-0.039111
H145	H	1.634510	0.602368	-0.039787
H146	H	1.564202	0.772144	-0.110006
H147	H	1.472607	0.706862	-0.110601
