data_functionalizedCrystal
_audit_creation_method	'MofGen! by Chris Wilmer'
_symmetry_space_group_name_H-M	'P1'
_symmetry_Int_Tables_number	1
_symmetry_cell_setting	triclinic
loop_
_symmetry_equiv_pos_as_xyz
  x,y,z
_cell_length_a	31.640172
_cell_length_b	14.395555
_cell_length_c	14.395555
_cell_angle_alpha	90.002465
_cell_angle_beta	60.006145
_cell_angle_gamma	59.997204
loop_
_atom_site_label
_atom_site_type_symbol
_atom_site_fract_x
_atom_site_fract_y
_atom_site_fract_z
Zr1	Zr	0.462570	-0.121849	0.895050
O2	O	0.550743	-0.270185	0.746741
O3	O	0.374402	-0.076378	0.940496
O4	O	0.462572	-0.270177	0.940516
O5	O	0.462569	0.076488	0.746726
O6	O	0.462569	-0.270169	1.093390
O7	O	0.462572	-0.076386	0.746721
O8	O	0.304848	0.076503	1.093354
O9	O	0.620291	-0.270184	0.746762
O10	O	0.410663	-0.056977	1.073989
O11	O	0.410663	0.057105	0.959904
O12	O	0.514472	-0.171069	0.959928
O13	O	0.514472	-0.056986	0.845843
Zr14	Zr	0.462560	0.121980	1.138875
Zr15	Zr	0.462565	-0.121836	1.138866
Zr16	Zr	0.462565	0.121967	0.895058
Zr17	Zr	0.573491	-0.121846	0.895083
Zr18	Zr	0.351640	0.121978	1.138841
O19	O	0.550729	0.076509	1.093428
O20	O	0.550736	-0.270167	1.093416
O21	O	0.550736	0.076490	0.746753
O22	O	0.374387	0.270316	1.287184
O23	O	0.374395	-0.076359	1.287171
O24	O	0.374395	0.270298	0.940508
O25	O	0.462561	-0.076357	1.287198
O26	O	0.462558	0.270308	1.093409
O27	O	0.462561	0.270300	0.940534
O28	O	0.462558	0.076517	1.287203
O29	O	0.620287	-0.270173	0.940563
O30	O	0.304844	0.270304	1.093361
O31	O	0.304840	0.270315	1.287163
O32	O	0.304844	0.076513	1.287156
O33	O	0.620287	-0.076382	0.746768
O34	O	0.620283	-0.076372	0.940570
O35	O	0.410658	0.171200	1.073996
O36	O	0.410658	0.057117	1.188081
O37	O	0.514468	-0.056974	1.074020
O38	O	0.514468	0.057108	0.959936
C39	C	0.323821	0.000062	1.016920
C40	C	0.276732	0.000061	1.016906
C41	C	0.462572	0.000049	0.711985
C42	C	0.462574	0.000044	0.608478
C43	C	0.462559	0.305043	1.016973
C44	C	0.462557	0.408549	1.016976
C45	C	-0.015309	-0.059474	1.076536
C46	C	-0.192305	-0.059473	1.076559
O47	O	-0.215210	-0.110077	1.127247
N48	N	-0.214434	0.000074	1.017007
C49	C	-0.192315	0.059632	0.957451
O50	O	-0.215202	0.110290	0.906808
C51	C	-0.015323	0.059637	0.957435
C52	C	0.006808	0.000077	1.016981
C53	C	0.006821	-0.119029	1.136079
C54	C	0.051070	-0.119033	1.136067
C55	C	0.073188	-0.059483	1.076513
C56	C	0.051057	0.000072	1.016970
C57	C	0.006793	0.119201	0.897886
C58	C	0.051043	0.119199	0.897889
C59	C	0.073174	0.059639	0.957436
C60	C	0.117424	0.059618	0.957404
N61	N	0.139553	0.000070	1.016956
C62	C	0.117435	-0.059480	1.076511
C63	C	-0.285237	0.059623	0.957462
C64	C	-0.329484	0.059620	0.957464
C65	C	-0.329472	-0.059483	1.076574
C66	C	-0.285222	-0.059486	1.076565
C67	C	-0.263108	0.000076	1.017014
C68	C	0.210360	-0.059486	1.076481
C69	C	0.254615	-0.059489	1.076460
C70	C	0.254597	0.059619	0.957355
C71	C	0.210349	0.059617	0.957371
C72	C	0.188230	0.000063	1.016942
O73	O	0.140351	0.110205	0.906754
O74	O	0.140321	-0.110110	1.127166
C75	C	-0.059558	-0.059469	1.076547
C76	C	-0.081689	0.000086	1.017004
C77	C	-0.059571	0.059636	0.957450
C78	C	-0.125936	0.000083	1.017007
C79	C	-0.148054	-0.059467	1.076561
C80	C	-0.125925	-0.119015	1.136113
C81	C	-0.081676	-0.119019	1.136102
C82	C	-0.081700	0.119183	0.897898
C83	C	-0.125948	0.119182	0.897913
C84	C	-0.148066	0.059632	0.957468
C85	C	0.601310	0.000069	1.017004
C86	C	0.648398	0.000070	1.017018
C87	C	0.462572	-0.304912	1.016951
C88	C	0.462574	-0.408418	1.016948
C89	C	0.405955	0.531346	1.079162
C90	C	0.434249	0.562177	1.124253
C91	C	0.434265	0.562142	0.971909
C92	C	0.490851	0.438017	1.062130
C93	C	0.490859	0.437985	0.909726
C94	C	0.519194	0.468742	0.954790
C95	C	0.519175	-0.062154	0.485698
C96	C	0.490882	-0.107232	0.454853
C97	C	0.490865	0.045113	0.454901
C98	C	0.434280	-0.045096	0.578996
C99	C	0.434271	0.107308	0.579041
C100	C	0.405936	0.062257	0.548268
C101	C	0.462559	0.000082	1.321939
C102	C	0.462557	0.000087	1.425446
C103	C	0.323815	0.000078	1.321898
C104	C	0.276724	0.000083	1.425390
C105	C	0.323815	0.305039	1.016931
C106	C	0.276724	0.408545	1.016920
C107	C	0.323808	0.305056	1.321908
C108	C	0.276716	0.408566	1.425404
C109	C	0.601322	-0.304925	0.712016
C110	C	0.648415	-0.408435	0.608520
C111	C	0.601316	0.000053	0.712027
C112	C	0.648406	0.000048	0.608534
C113	C	0.601316	-0.304908	1.016993
C114	C	0.648406	-0.408414	1.017004
C115	C	0.254612	-0.059482	1.414436
C116	C	0.210372	-0.059500	1.511669
C117	C	0.188241	0.000053	1.619854
C118	C	0.210357	0.059619	1.630806
C119	C	0.254600	0.059630	1.533574
C120	C	0.254607	0.516718	1.076470
C121	C	0.210367	0.613982	1.076456
C122	C	0.188241	0.603069	1.016898
C123	C	0.210362	0.494885	0.957340
C124	C	0.254605	0.397623	0.957349
C125	C	0.254600	0.397627	1.533568
C126	C	0.210358	0.494877	1.630823
C127	C	0.188228	0.603066	1.619911
C128	C	0.210348	0.614003	1.511736
C129	C	0.254593	0.516754	1.414484
C130	C	0.670536	-0.397496	0.500356
C131	C	0.714792	-0.494746	0.403101
C132	C	0.736924	-0.602935	0.414013
C133	C	0.714801	-0.613872	0.522188
C134	C	0.670549	-0.516623	0.619441
C135	C	0.670523	0.059602	0.619488
C136	C	0.714776	0.059594	0.522255
C137	C	0.736908	0.000038	0.414070
C138	C	0.714790	-0.059523	0.403118
C139	C	0.670541	-0.059521	0.500350
C140	C	0.670518	-0.397465	1.076574
C141	C	0.714759	-0.494710	1.076606
C142	C	0.736890	-0.602903	1.017061
C143	C	0.714774	-0.613849	0.957489
C144	C	0.670531	-0.516605	0.957464
H145	H	0.272633	-0.107995	1.124950
H146	H	0.652518	-0.309411	0.491450
H147	H	0.272617	0.525625	1.124970
H148	H	0.652506	-0.309378	1.125062
C149	C	0.785558	-0.709864	1.017091
H150	H	0.795572	-0.775873	0.973104
H151	H	0.820075	-0.709860	0.985225
H152	H	0.771044	-0.709852	1.092972
H153	H	0.358035	0.114862	0.573913
H154	H	0.192361	0.702061	1.124959
H155	H	0.732800	-0.701953	0.909009
H156	H	0.192340	0.486016	0.908850
H157	H	0.732796	-0.485818	0.315030
C158	C	0.401935	0.634480	1.246757
H159	H	0.428862	0.641184	1.253037
H160	H	0.368927	0.708004	1.264712
H161	H	0.388086	0.598844	1.298101
C162	C	0.139571	0.710063	1.016905
H163	H	0.129567	0.776047	1.060913
H164	H	0.154069	0.710080	0.941040
H165	H	0.105044	0.710081	1.048794
C166	C	0.646210	-0.125018	0.488287
H167	H	0.665727	-0.160473	0.409928
H168	H	0.653455	-0.181378	0.523744
H169	H	0.604436	-0.073601	0.523726
C170	C	0.523135	0.365945	1.113760
H171	H	0.522913	0.300197	1.113494
H172	H	0.563237	0.343541	1.069922
H173	H	0.503160	0.409634	1.189735
H174	H	0.772957	-0.682112	0.334815
C175	C	0.139570	0.000045	1.726802
H176	H	0.129556	0.044038	1.792808
H177	H	0.105054	0.031922	1.726783
H178	H	0.154081	-0.075839	1.726800
H179	H	0.272612	0.309542	1.542474
C180	C	0.186003	0.733011	1.499742
H181	H	0.205512	0.725611	1.421395
H182	H	0.144230	0.773422	1.535207
H183	H	0.193259	0.773418	1.535212
H184	H	0.192336	0.108101	0.908868
H185	H	0.410376	-0.083299	0.632346
C186	C	0.278913	0.528796	1.295507
H187	H	0.308436	0.455390	1.239140
H188	H	0.247142	0.569214	1.286988
H189	H	0.296174	0.569206	1.286987
H190	H	0.272606	0.309547	0.908860
C191	C	0.186029	0.482825	1.749800
H192	H	0.205539	0.404462	1.742361
H193	H	0.193281	0.518272	1.790229
H194	H	0.144253	0.518291	1.790203
H195	H	0.272598	0.108141	1.542509
C196	C	0.139556	0.710029	1.726895
H197	H	0.129552	0.688009	1.792873
H198	H	0.154050	0.754036	1.726923
H199	H	0.105028	0.754021	1.726901
C200	C	0.583827	-0.133315	0.451366
H201	H	0.603846	-0.209511	0.408145
H202	H	0.604133	-0.102065	0.406947
H203	H	0.583384	-0.132287	0.517840
H204	H	0.732827	-0.701971	0.531059
H205	H	0.358094	0.556790	1.131826
C206	C	0.646213	-0.528671	0.738415
H207	H	0.665730	-0.607035	0.730974
H208	H	0.653455	-0.493210	0.778857
H209	H	0.604440	-0.493221	0.778805
H210	H	0.652532	-0.525536	0.908951
H211	H	0.732817	-0.108012	0.315021
C212	C	0.646185	0.125121	0.738479
H213	H	0.665703	0.160574	0.731061
H214	H	0.604412	0.181483	0.778883
H215	H	0.653438	0.073714	0.778896
C216	C	0.401987	0.229791	0.651342
H217	H	0.422159	0.261698	0.608016
H218	H	0.361981	0.274315	0.673205
H219	H	0.401917	0.228920	0.717404
C220	C	0.739092	0.125127	0.534322
H221	H	0.719563	0.160610	0.612681
H222	H	0.780864	0.073736	0.498888
H223	H	0.731838	0.181485	0.498858
H224	H	0.514797	0.083211	0.401404
H225	H	0.192356	-0.107979	1.124991
C226	C	0.075402	-0.184537	1.201582
H227	H	0.055883	-0.219988	1.237056
H228	H	0.117175	-0.240901	1.150194
H229	H	0.068146	-0.133122	1.257940
C230	C	-0.017498	-0.184547	1.201587
H231	H	0.002028	-0.220017	1.237035
H232	H	-0.059271	-0.133158	1.257945
H233	H	-0.010239	-0.240917	1.150179
C234	C	0.785579	0.000048	0.307125
H235	H	0.795574	0.044058	0.329154
H236	H	0.820106	-0.075823	0.263131
H237	H	0.771076	0.031944	0.263125
H238	H	-0.143960	0.167680	0.849412
C239	C	0.523148	0.365686	0.787244
H240	H	0.502976	0.409023	0.755332
H241	H	0.563152	0.343817	0.742742
H242	H	0.523222	0.299619	0.788099
C243	C	-0.260888	-0.124989	1.142079
H244	H	-0.280404	-0.160445	1.177550
H245	H	-0.219114	-0.181347	1.090690
H246	H	-0.268147	-0.073571	1.198438
C247	C	0.739086	-0.482648	1.142122
H248	H	0.719575	-0.404284	1.177560
H249	H	0.731832	-0.518091	1.198490
H250	H	0.780862	-0.518114	1.090722
C251	C	0.278926	0.125133	0.891865
H252	H	0.308442	0.116609	0.900406
H253	H	0.296184	0.095740	0.813519
H254	H	0.247154	0.203489	0.921294
C255	C	0.278952	-0.125002	1.295445
H256	H	0.259446	-0.160485	1.302863
H257	H	0.271699	-0.073609	1.255023
H258	H	0.320728	-0.181360	1.255047
H259	H	-0.347487	-0.107973	1.125064
C260	C	-0.150264	-0.184510	1.201630
H261	H	-0.179791	-0.175962	1.193110
H262	H	-0.118506	-0.262864	1.172236
H263	H	-0.167526	-0.155081	1.279978
H264	H	-0.347493	0.108106	0.908960
C265	C	-0.017535	0.184706	0.832370
H266	H	0.001978	0.220172	0.796913
H267	H	-0.010282	0.133300	0.776017
H268	H	-0.059311	0.241075	0.883765
C269	C	-0.260912	0.125134	0.891940
H270	H	-0.280427	0.160583	0.856468
H271	H	-0.268161	0.181499	0.943325
H272	H	-0.219137	0.073720	0.835580
H273	H	-0.063660	-0.167519	1.184590
C274	C	0.075371	0.184709	0.832375
H275	H	0.104893	0.176188	0.840899
H276	H	0.092625	0.155298	0.754035
H277	H	0.043603	0.263066	0.861792
C278	C	0.583900	0.434095	0.883750
H279	H	0.603909	0.390782	0.915927
H280	H	0.604151	0.389679	0.807899
H281	H	0.583557	0.500461	0.883622
H282	H	-0.063697	0.167681	0.849403
H283	H	0.410334	0.615648	0.933804
H284	H	0.514805	-0.197926	0.401339
C285	C	0.186004	0.125132	1.749813
H286	H	0.156483	0.116599	1.806142
H287	H	0.217758	0.095741	1.758376
H288	H	0.168732	0.203489	1.758346
C289	C	0.186045	-0.125013	1.499608
H290	H	0.156530	-0.116507	1.573004
H291	H	0.168784	-0.095592	1.459199
H292	H	0.217816	-0.203366	1.459191
