data_functionalizedCrystal
_audit_creation_method	'MofGen! by Chris Wilmer'
_symmetry_space_group_name_H-M	'P1'
_symmetry_Int_Tables_number	1
_symmetry_cell_setting	triclinic
loop_
_symmetry_equiv_pos_as_xyz
  x,y,z
_cell_length_a	10.654562
_cell_length_b	23.532407
_cell_length_c	9.730223
_cell_angle_alpha	90.005957
_cell_angle_beta	90.003039
_cell_angle_gamma	83.669390
loop_
_atom_site_label
_atom_site_type_symbol
_atom_site_fract_x
_atom_site_fract_y
_atom_site_fract_z
O1	O	1.665290	0.080017	0.114396
O2	O	1.299572	0.087630	0.114380
O3	O	1.493459	0.000964	0.114363
O4	O	1.471402	0.166683	0.114413
O5	O	1.493457	0.000966	-0.114217
O6	O	1.299570	0.087632	-0.114200
O7	O	1.665287	0.080019	-0.114184
Zn8	Zn	1.482428	0.083826	-0.150484
Zn9	Zn	1.482431	0.083823	0.150680
O10	O	1.471400	0.166685	-0.114167
C11	C	1.252791	0.087070	0.000088
C12	C	1.113401	0.085393	0.000081
C13	C	1.047894	0.084612	-0.124507
C14	C	0.916922	0.083041	-0.124485
C15	C	0.916975	0.083035	0.124725
C16	C	1.047946	0.084602	0.124701
C17	C	1.113350	0.085404	-0.249128
C18	C	1.047842	0.084624	-0.373727
C19	C	0.916870	0.083053	-0.373704
C20	C	0.851405	0.082262	-0.249083
C21	C	1.492896	-0.020255	0.000070
C22	C	1.491207	-0.083483	0.000059
C23	C	1.595354	-0.481905	0.000139
C24	C	1.593785	-0.541316	0.000149
O25	O	1.690330	-0.577430	0.000204
N26	N	1.478520	-0.564696	0.000143
C27	C	1.364815	-0.528661	0.000141
O28	O	1.266628	-0.554002	0.000138
C29	C	1.366385	-0.469252	0.000141
C30	C	1.481658	-0.445876	0.000133
C31	C	1.710618	-0.458529	0.000133
C32	C	1.712186	-0.399122	0.000120
C33	C	1.598490	-0.363093	0.000113
C34	C	1.483227	-0.386469	0.000120
C35	C	1.252682	-0.433218	0.000148
C36	C	1.254262	-0.373806	0.000149
C37	C	1.369535	-0.350430	0.000141
C38	C	1.371099	-0.291033	0.000100
N39	N	1.486365	-0.267654	0.000106
C40	C	1.600060	-0.303683	0.000113
C41	C	1.361527	-0.653425	0.000145
C42	C	1.359955	-0.712833	0.000135
C43	C	1.588926	-0.725484	0.000146
C44	C	1.590496	-0.666075	0.000146
C45	C	1.476792	-0.630046	0.000151
C46	C	1.603345	-0.178925	0.000084
C47	C	1.604903	-0.119513	0.000066
C48	C	1.375933	-0.106867	0.000062
C49	C	1.374374	-0.166274	0.000074
C50	C	1.488091	-0.202302	0.000089
O51	O	1.274605	-0.254885	0.000051
O52	O	1.698231	-0.278334	0.000133
C53	C	1.712068	0.080578	0.000111
C54	C	1.851458	0.082255	0.000127
C55	C	1.471963	0.187904	0.000129
C56	C	1.473652	0.251132	0.000149
N57	N	1.482435	0.083827	-0.356020
C58	C	1.568310	0.045465	-0.427954
C59	C	1.568307	0.045458	-0.571837
C60	C	1.396550	0.122181	-0.571840
C61	C	1.396548	0.122185	-0.427960
C62	C	1.654197	0.007107	-0.356014
C63	C	1.740080	-0.031258	-0.427948
C64	C	1.740076	-0.031265	-0.571831
C65	C	1.654191	0.007093	-0.643780
N66	N	1.482434	0.083817	0.356216
H67	H	1.101282	0.085240	0.226152
H68	H	1.268929	-0.624093	0.000137
H69	H	0.744759	0.080981	-0.249075
H70	H	1.283365	-0.077521	0.000052
H71	H	1.101154	0.085263	-0.475188
O72	O	1.713725	-0.213975	-0.000090
C73	C	1.719688	-0.248716	-0.118486
H74	H	1.620056	-0.252134	-0.157949
H75	H	1.767057	-0.293166	-0.091858
H76	H	1.776773	-0.228942	-0.201389
O77	O	1.240606	0.086826	-0.249229
C78	C	1.299166	0.038128	-0.317646
H79	H	1.234052	0.002813	-0.315449
H80	H	1.391777	0.022650	-0.263990
H81	H	1.319023	0.049544	-0.428819
O82	O	1.654186	0.006980	-0.783549
C83	C	1.629311	-0.047183	-0.831614
H84	H	1.655475	-0.080623	-0.748698
H85	H	1.687699	-0.058598	-0.927874
H86	H	1.524647	-0.046128	-0.857136
O87	O	1.823410	-0.068484	-0.357850
C88	C	1.804958	-0.060273	-0.215432
H89	H	1.757515	-0.015186	-0.195764
H90	H	1.900117	-0.066239	-0.160722
H91	H	1.742323	-0.092755	-0.174646
O92	O	1.313083	0.159364	-0.641881
C93	C	1.235985	0.128534	-0.725092
H94	H	1.286559	0.084183	-0.746643
H95	H	1.215828	0.152216	-0.826271
H96	H	1.143226	0.124274	-0.669654
H97	H	0.863539	0.082413	-0.475158
O98	O	1.143840	-0.338784	0.000393
C99	C	1.137912	-0.304022	0.118753
H100	H	1.202413	-0.325508	0.201499
H101	H	1.036678	-0.297752	0.158492
H102	H	1.169850	-0.260697	0.091979
H103	H	0.863662	0.082392	0.226186
H104	H	1.326620	0.153423	-0.369391
O105	O	1.823544	-0.068454	-0.641861
C106	C	1.900642	-0.037629	-0.725059
H107	H	1.850063	0.006719	-0.746617
H108	H	1.920810	-0.061319	-0.826234
H109	H	1.993396	-0.033361	-0.669604
O110	O	1.248011	-0.735565	-0.000113
C111	C	1.240253	-0.769571	-0.118470
H112	H	1.305693	-0.755269	-0.201218
H113	H	1.138979	-0.764648	-0.158207
H114	H	1.269810	-0.816295	-0.091694
O115	O	1.716996	-0.096901	0.000124
C116	C	1.817006	-0.141446	0.000104
H117	H	1.782318	-0.181935	0.043385
H118	H	1.897530	-0.128703	0.066468
H119	H	1.852040	-0.149719	-0.109554
O120	O	1.824197	-0.376448	0.000369
C121	C	1.893460	-0.394826	0.118743
H122	H	1.826031	-0.407445	0.201480
H123	H	1.946439	-0.358631	0.158485
H124	H	1.963917	-0.433264	0.091986
O125	O	1.821040	-0.493546	0.000380
C126	C	1.826998	-0.528297	0.118743
H127	H	1.762501	-0.506807	0.201491
H128	H	1.928238	-0.534554	0.158475
H129	H	1.795074	-0.571628	0.091976
H130	H	1.158814	-0.452240	0.000163
H131	H	1.684362	-0.647046	0.000140
O132	O	1.699259	-0.760571	0.000230
C133	C	1.673142	-0.818018	0.000206
H134	H	1.574532	-0.820685	0.043467
H135	H	1.745646	-0.844636	0.066587
H136	H	1.678128	-0.835187	-0.109450
O137	O	1.262290	-0.188891	0.000137
C138	C	1.162278	-0.144348	0.000089
H139	H	1.196965	-0.103848	0.043339
H140	H	1.081760	-0.157078	0.066466
H141	H	1.127234	-0.136098	-0.109574
H142	H	1.654210	0.007111	-0.238858
