data_functionalizedCrystal
_audit_creation_method	'MofGen! by Chris Wilmer'
_symmetry_space_group_name_H-M	'P1'
_symmetry_Int_Tables_number	1
_symmetry_cell_setting	triclinic
loop_
_symmetry_equiv_pos_as_xyz
  x,y,z
_cell_length_a	21.395364
_cell_length_b	14.908520
_cell_length_c	14.908748
_cell_angle_alpha	89.821209
_cell_angle_beta	93.303344
_cell_angle_gamma	93.335646
loop_
_atom_site_label
_atom_site_type_symbol
_atom_site_fract_x
_atom_site_fract_y
_atom_site_fract_z
Zn1	Zn	0.965833	-0.328428	0.529050
Zn2	Zn	1.465833	0.171572	1.029050
Zn3	Zn	0.953728	-0.487437	0.387359
Zn4	Zn	1.453728	0.012563	0.887359
Zn5	Zn	0.854703	-0.337131	0.378705
Zn6	Zn	1.354703	0.162869	0.878705
Zn7	Zn	0.855350	-0.478792	0.537674
Zn8	Zn	1.355350	0.021208	1.037674
O9	O	0.907404	-0.407947	0.458197
O10	O	1.407404	0.092053	0.958197
O11	O	1.051906	-0.349497	0.510267
O12	O	1.551906	0.150503	1.010267
O13	O	0.935255	-0.474759	0.260384
O14	O	1.435255	0.025241	0.760384
O15	O	0.874240	-0.210145	0.391418
O16	O	1.374240	0.289855	0.891418
O17	O	1.043013	-0.466320	0.406167
O18	O	1.543013	0.033680	0.906167
O19	O	0.955887	-0.203751	0.501876
O20	O	1.455887	0.296249	1.001876
O21	O	0.862502	-0.364330	0.254026
O22	O	1.362502	0.135670	0.754026
O23	O	0.767110	-0.355946	0.399780
O24	O	1.267110	0.144054	0.899780
O25	O	0.875343	-0.451585	0.662357
O26	O	1.375343	0.048415	1.162357
O27	O	0.767585	-0.460024	0.516574
O28	O	1.267585	0.039976	1.016574
O29	O	0.956514	-0.341114	0.656021
O30	O	1.456514	0.158886	1.156021
O31	O	0.935882	-0.612122	0.414529
O32	O	1.435882	-0.112122	0.914529
O33	O	0.863605	-0.605770	0.524965
O34	O	1.363605	-0.105770	1.024965
C35	C	0.744613	-0.407992	0.458174
C36	C	1.244613	0.092008	0.958174
C37	C	0.674971	-0.408032	0.458187
C38	C	1.174971	0.091968	0.958187
C39	C	0.646911	-0.347291	0.512486
C40	C	1.146911	0.152709	1.012486
C41	C	0.581477	-0.347267	0.512488
C42	C	1.081477	0.152733	1.012488
C43	C	0.544104	-0.407999	0.458202
C44	C	1.044104	0.092001	0.958202
C45	C	0.572171	-0.468745	0.403891
C46	C	1.072171	0.031255	0.903891
C47	C	0.637605	-0.468761	0.403884
C48	C	1.137605	0.031239	0.903884
C49	C	0.437025	-0.489393	0.455645
C50	C	0.937025	0.010607	0.955645
C51	C	0.371593	-0.489378	0.455659
C52	C	0.871593	0.010622	0.955659
C53	C	0.342286	-0.407949	0.458219
C54	C	0.842286	0.092051	0.958219
C55	C	0.378421	-0.326531	0.460784
C56	C	0.878421	0.173469	0.960784
C57	C	0.443854	-0.326547	0.460776
C58	C	0.943854	0.173453	0.960776
C59	C	0.473153	-0.407988	0.458203
C60	C	0.973153	0.092012	0.958203
C61	C	0.243276	-0.347176	0.512523
C62	C	0.743276	0.152824	1.012523
C63	C	0.177840	-0.347151	0.512519
C64	C	0.677840	0.152849	1.012519
C65	C	0.168536	-0.468637	0.403927
C66	C	0.668536	0.031363	0.903927
C67	C	0.233970	-0.468654	0.403926
C68	C	0.733970	0.031346	0.903926
C69	C	0.271337	-0.407925	0.458229
C70	C	0.771337	0.092075	0.958229
C71	C	0.898518	-0.641572	0.471642
C72	C	1.398518	-0.141572	0.971642
C73	C	0.894776	-0.741516	0.477423
C74	C	1.394776	-0.241516	0.977423
C75	C	0.963092	-0.935869	0.373384
C76	C	1.463092	-0.435869	0.873384
C77	C	0.959577	-1.029775	0.378813
C78	C	1.459577	-0.529775	0.878813
C79	C	0.884236	-1.023236	0.493716
C80	C	1.384236	-0.523236	0.993716
C81	C	0.887751	-0.929330	0.488286
C82	C	1.387751	-0.429330	0.988286
C83	C	0.927179	-0.885650	0.428117
C84	C	1.427179	-0.385650	0.928117
C85	C	0.930690	-0.791742	0.422684
C86	C	1.430690	-0.291742	0.922684
C87	C	0.855352	-0.785205	0.537590
C88	C	1.355352	-0.285205	1.037590
C89	C	0.851838	-0.879111	0.543020
C90	C	1.351838	-0.379111	1.043020
C91	C	1.070830	-0.407902	0.458220
C92	C	1.570830	0.092098	0.958220
C93	C	1.140472	-0.407883	0.458230
C94	C	1.640472	0.092117	0.958230
C95	C	0.917351	-0.394414	0.692727
C96	C	1.417351	0.105586	1.192727
C97	C	0.921590	-0.388647	0.792670
C98	C	1.421590	0.111353	1.292670
C99	C	0.916341	-0.173409	0.444720
C100	C	1.416341	0.326591	0.944720
C101	C	0.920150	-0.073463	0.438976
C102	C	1.420150	0.426537	0.938976
C103	C	0.969821	-0.323009	0.930237
C104	C	1.469821	0.176991	1.430237
C105	C	0.965842	-0.328424	0.836332
C106	C	1.465842	0.171576	1.336332
C107	C	0.881316	-0.443462	0.842920
C108	C	1.381316	0.056538	1.342920
C109	C	0.885296	-0.438047	0.936825
C110	C	1.385296	0.061953	1.436825
C111	C	0.929549	-0.377818	0.980481
C112	C	1.429549	0.122182	1.480481
C113	C	0.933526	-0.372399	1.074387
C114	C	1.433526	0.127601	1.574387
C115	C	0.849003	-0.487440	1.080974
C116	C	1.349003	0.012560	1.580974
C117	C	0.845024	-0.492855	0.987068
C118	C	1.345024	0.007145	1.487068
C119	C	0.897490	-0.421447	1.224580
C120	C	1.397490	0.078553	1.724580
C121	C	0.893252	-0.427213	1.124637
C122	C	1.393252	0.072787	1.624637
H123	H	0.558626	-0.297800	0.556704
H124	H	1.058626	0.202200	1.056704
C125	C	0.832645	-0.509709	0.794889
C126	C	1.332645	-0.009709	1.294889
H127	H	0.836044	-0.505079	0.731766
H128	H	1.336044	-0.005079	1.231766
H129	H	0.840163	-0.569236	0.813750
H130	H	1.340163	-0.069236	1.313750
H131	H	0.791697	-0.495668	0.809507
H132	H	1.291697	0.004332	1.309507
C133	C	0.840876	-1.071291	0.559904
C134	C	1.340876	-0.571291	1.059904
H135	H	0.819993	-1.027934	0.591733
H136	H	1.319993	-0.527934	1.091733
H137	H	0.810765	-1.109976	0.527599
H138	H	1.310765	-0.609976	1.027599
H139	H	0.865125	-1.105599	0.601231
H140	H	1.365125	-0.605599	1.101231
C141	C	0.815849	-0.729962	0.597802
C142	C	1.315849	-0.229962	1.097802
H143	H	0.823590	-0.667778	0.585957
H144	H	1.323590	-0.167778	1.085957
H145	H	0.772620	-0.746190	0.585480
H146	H	1.272620	-0.246190	1.085480
H147	H	0.826975	-0.741827	0.659121
H148	H	1.326975	-0.241827	1.159121
H149	H	0.998636	-0.283794	0.795427
H150	H	1.498636	0.216206	1.295427
H151	H	0.808996	-0.541895	0.951511
H152	H	1.308996	-0.041895	1.451511
H153	H	0.541738	-0.518193	0.359690
H154	H	1.041738	-0.018193	0.859690
H155	H	0.969556	-0.323353	1.109930
H156	H	1.469556	0.176647	1.609930
C157	C	0.469255	-0.578971	0.452837
C158	C	0.969255	-0.078971	0.952837
H159	H	0.438366	-0.627456	0.451326
H160	H	0.938366	-0.127456	0.951326
H161	H	0.492613	-0.580743	0.400646
H162	H	0.992613	-0.080743	0.900646
H163	H	0.496664	-0.583981	0.504821
H164	H	0.996664	-0.083981	1.004821
H165	H	0.256816	-0.518120	0.359714
H166	H	0.756816	-0.018120	0.859714
C167	C	0.999075	-1.085018	0.318602
C168	C	1.499075	-0.585018	0.818602
H169	H	0.991339	-1.147202	0.330454
H170	H	1.491339	-0.647202	0.830454
H171	H	0.987952	-1.073148	0.257288
H172	H	1.487952	-0.573148	0.757288
H173	H	1.042307	-1.068794	0.330930
H174	H	1.542307	-0.568794	0.830930
C175	C	0.127437	-0.535441	0.344208
C176	C	0.627437	-0.035441	0.844208
H177	H	0.153523	-0.571617	0.311864
H178	H	0.653523	-0.071617	0.811864
H179	H	0.101865	-0.572686	0.380796
H180	H	0.601865	-0.072686	0.880796
H181	H	0.101571	-0.503225	0.303101
H182	H	0.601571	-0.003225	0.803101
C183	C	0.331849	-0.578929	0.452844
C184	C	0.831849	-0.078929	0.952844
H185	H	0.288683	-0.567259	0.453228
H186	H	0.788683	-0.067259	0.953228
H187	H	0.339138	-0.610760	0.399705
H188	H	0.839138	-0.110760	0.899705
H189	H	0.343200	-0.614013	0.503880
H190	H	0.843200	-0.114013	1.003880
C191	C	0.668471	-0.535587	0.344161
C192	C	1.168471	-0.035587	0.844161
H193	H	0.636845	-0.571758	0.311832
H194	H	1.136845	-0.071758	0.811832
H195	H	0.693658	-0.503397	0.303056
H196	H	1.193658	-0.003397	0.803056
H197	H	0.693949	-0.572848	0.380759
H198	H	1.193949	-0.072848	0.880759
C199	C	1.006458	-0.887818	0.307200
C200	C	1.506458	-0.387818	0.807200
H201	H	1.027345	-0.931177	0.275381
H202	H	1.527345	-0.431177	0.775381
H203	H	0.982218	-0.853499	0.265877
H204	H	1.482218	-0.353499	0.765877
H205	H	1.036574	-0.849143	0.339518
H206	H	1.536574	-0.349143	0.839518
C207	C	1.018495	-0.256760	0.978261
C208	C	1.518495	0.243240	1.478261
H209	H	1.041912	-0.224895	0.934888
H210	H	1.541912	0.275105	1.434888
H211	H	0.997572	-0.215479	1.012641
H212	H	1.497572	0.284521	1.512641
H213	H	1.046040	-0.289043	1.016872
H214	H	1.546040	0.210957	1.516872
C215	C	0.804708	-0.547741	1.136243
C216	C	1.304708	-0.047741	1.636243
H217	H	0.813418	-0.535897	1.198423
H218	H	1.313418	-0.035897	1.698423
H219	H	0.762457	-0.535489	1.120090
H220	H	1.262457	-0.035489	1.620090
H221	H	0.810932	-0.609044	1.124323
H222	H	1.310932	-0.109044	1.624323
H223	H	0.677331	-0.297840	0.556703
H224	H	1.177331	0.202160	1.056703
C225	C	0.974061	-0.743694	0.356505
C226	C	1.474061	-0.243694	0.856505
H227	H	0.994951	-0.787055	0.324693
H228	H	1.494951	-0.287055	0.824693
H229	H	0.949827	-0.709375	0.315176
H230	H	1.449827	-0.209375	0.815176
H231	H	1.004175	-0.705019	0.388827
H232	H	1.504175	-0.205019	0.888827
H233	H	0.819738	-0.914688	0.592010
H234	H	1.319738	-0.414688	1.092010
H235	H	0.154996	-0.297683	0.556734
H236	H	0.654996	0.202317	1.056734
H237	H	0.473272	-0.260255	0.462862
H238	H	0.973272	0.239745	0.962862
H239	H	0.273701	-0.297722	0.556734
H240	H	0.773701	0.202278	1.056734
C241	C	0.346193	-0.236954	0.463603
C242	C	0.846193	0.263046	0.963603
H243	H	0.302049	-0.248601	0.463231
H244	H	0.802049	0.251399	0.963231
H245	H	0.360347	-0.205131	0.516740
H246	H	0.860347	0.294869	1.016740
H247	H	0.356294	-0.201875	0.412565
H248	H	0.856294	0.298125	0.912565
