data_functionalizedCrystal
_audit_creation_method	'MofGen! by Chris Wilmer'
_symmetry_space_group_name_H-M	'P1'
_symmetry_Int_Tables_number	1
_symmetry_cell_setting	triclinic
loop_
_symmetry_equiv_pos_as_xyz
  x,y,z
_cell_length_a	17.699077
_cell_length_b	10.654550
_cell_length_c	16.776229
_cell_angle_alpha	89.994543
_cell_angle_beta	89.993415
_cell_angle_gamma	83.882740
loop_
_atom_site_label
_atom_site_type_symbol
_atom_site_fract_x
_atom_site_fract_y
_atom_site_fract_z
O1	O	1.005091	0.158773	-0.066276
O2	O	0.784843	0.179442	-0.066279
O3	O	0.900031	-0.013721	-0.066274
O4	O	0.889903	0.351936	-0.066280
O5	O	0.900015	-0.013732	0.066302
O6	O	0.784828	0.179430	0.066297
O7	O	1.005075	0.158761	0.066301
Zn8	Zn	0.894949	0.169094	0.087348
Zn9	Zn	0.894969	0.169109	-0.087327
O10	O	0.889888	0.351924	0.066296
C11	C	0.756634	0.178697	0.000008
C12	C	0.672601	0.176479	0.000007
C13	C	0.633119	0.175427	0.072275
C14	C	0.554163	0.173323	0.072276
C15	C	0.514690	0.172280	0.000008
C16	C	0.554178	0.173328	-0.072266
C17	C	0.633134	0.175423	-0.072266
C18	C	0.235761	0.164877	-0.072267
C19	C	0.156800	0.162785	-0.072262
C20	C	0.156791	0.162777	0.072275
C21	C	0.235746	0.164872	0.072275
C22	C	0.275228	0.165913	0.000002
C23	C	0.360841	0.168192	0.000001
C24	C	0.429078	0.170009	0.000007
C25	C	0.899279	-0.060511	0.000013
C26	C	0.897055	-0.199916	0.000010
C27	C	0.964875	-0.280591	0.000014
C28	C	0.962780	-0.411575	0.000008
C29	C	0.825038	-0.381196	-0.000001
C30	C	0.827134	-0.250214	-0.000001
C31	C	1.034796	-0.230292	0.000025
C32	C	1.102623	-0.310969	0.000030
C33	C	1.100527	-0.441953	0.000024
C34	C	1.030606	-0.492261	0.000014
C35	C	1.033285	0.159506	0.000011
C36	C	1.117317	0.161724	0.000008
C37	C	0.890639	0.398715	0.000007
C38	C	0.892864	0.538119	0.000005
N39	N	0.894941	0.169082	0.206560
N40	N	0.894984	0.169111	-0.206538
C41	C	0.945962	0.083585	0.248279
C42	C	0.945966	0.083584	0.331731
C43	C	0.894952	0.169087	0.373463
C44	C	0.843926	0.254589	0.331737
C45	C	0.843918	0.254583	0.248287
C46	C	0.843953	0.254613	0.668285
C47	C	0.843966	0.254615	0.751741
C48	C	0.946001	0.083615	0.751729
C49	C	0.945993	0.083609	0.668278
C50	C	0.894964	0.169105	0.626561
C51	C	0.894960	0.169104	0.536072
C52	C	0.894960	0.169096	0.463949
H53	H	0.522021	0.172446	0.131124
H54	H	0.771908	-0.184526	-0.000003
H55	H	0.665251	0.176287	0.131125
O56	O	1.170475	-0.261897	0.000071
C57	C	1.234751	-0.073578	0.000032
C58	C	1.157855	-0.128979	0.000006
H59	H	1.224574	0.033893	-0.000037
H60	H	1.268306	-0.106742	0.055528
H61	H	1.268307	-0.106885	-0.055438
H62	H	1.124237	-0.095697	0.055438
H63	H	1.124358	-0.095821	-0.055527
H64	H	0.987506	0.013964	0.214307
O65	O	0.118455	0.161974	0.142504
C66	C	0.086315	0.270041	0.266062
C67	C	0.129749	0.271119	0.186552
H68	H	0.095444	0.358261	0.301705
H69	H	0.023089	0.268439	0.253700
H70	H	0.108303	0.182562	0.301670
H71	H	0.107825	0.358584	0.150905
H72	H	0.192969	0.272655	0.198970
H73	H	0.267880	0.165728	0.131123
O74	O	1.166480	-0.520144	0.000060
C75	C	1.303323	-0.536445	0.000025
C76	C	1.228686	-0.447753	-0.000002
H77	H	1.353636	-0.477953	-0.000041
H78	H	1.305829	-0.598514	0.055519
H79	H	1.305754	-0.598541	-0.055447
H80	H	1.226205	-0.385578	0.055432
H81	H	1.226211	-0.385770	-0.055533
O82	O	0.757186	-0.430270	0.000030
C83	C	0.692914	-0.618594	-0.000016
C84	C	0.769809	-0.563188	-0.000037
H85	H	0.703094	-0.726065	-0.000087
H86	H	0.659345	-0.585448	0.055479
H87	H	0.659372	-0.585272	-0.055487
H88	H	0.803413	-0.596485	0.055397
H89	H	0.803321	-0.596327	-0.055568
O90	O	0.995609	0.000498	0.372133
C91	C	1.096806	-0.169135	0.363315
C92	C	1.040632	-0.075091	0.317461
H93	H	1.133211	-0.230292	0.319132
H94	H	1.134945	-0.115040	0.402345
H95	H	1.063805	-0.231757	0.402422
H96	H	1.073571	-0.012446	0.278310
H97	H	1.002493	-0.129265	0.278481
H98	H	0.522034	0.172469	-0.131108
H99	H	0.665279	0.176281	-0.131114
O100	O	0.995575	0.000429	0.627865
C101	C	1.096811	-0.169144	0.636662
C102	C	1.040690	-0.075025	0.682528
H103	H	1.133311	-0.230155	0.680837
H104	H	1.063842	-0.231899	0.597629
H105	H	1.134863	-0.114984	0.597556
H106	H	1.002624	-0.129082	0.721677
H107	H	1.073706	-0.012271	0.721511
H108	H	0.124664	0.161934	-0.131115
O109	O	0.794330	0.337718	0.792157
C110	C	0.693140	0.507366	0.783368
C111	C	0.749295	0.413309	0.737498
H112	H	0.656726	0.568525	0.739196
H113	H	0.655009	0.453282	0.822430
H114	H	0.726157	0.569985	0.822445
H115	H	0.716340	0.350667	0.698377
H116	H	0.787426	0.467472	0.698485
H117	H	0.802405	0.324230	0.634325
H118	H	0.267898	0.165720	-0.131117
H119	H	0.802385	0.324203	0.365720
O120	O	0.794331	0.337760	0.207882
C121	C	0.693092	0.507326	0.216695
C122	C	0.749226	0.413218	0.262552
H123	H	0.656599	0.568340	0.260876
H124	H	0.726051	0.570078	0.177633
H125	H	0.655033	0.453156	0.177619
H126	H	0.787298	0.467285	0.301672
H127	H	0.716220	0.350467	0.301564
H128	H	1.036510	-0.123640	0.000032
H129	H	1.028906	-0.598918	0.000001
H130	H	0.987549	0.013994	0.785704
