data_functionalizedCrystal
_audit_creation_method	'MofGen! by Chris Wilmer'
_symmetry_space_group_name_H-M	'P1'
_symmetry_Int_Tables_number	1
_symmetry_cell_setting	triclinic
loop_
_symmetry_equiv_pos_as_xyz
  x,y,z
_cell_length_a	25.639242
_cell_length_b	25.639239
_cell_length_c	12.759387
_cell_angle_alpha	89.963582
_cell_angle_beta	89.976152
_cell_angle_gamma	90.030990
loop_
_atom_site_label
_atom_site_type_symbol
_atom_site_fract_x
_atom_site_fract_y
_atom_site_fract_z
Zn1	Zn	0.799274	-0.208231	-0.594057
Zn2	Zn	1.299274	0.291769	-0.094057
Zn3	Zn	0.799183	-0.295676	-0.418361
Zn4	Zn	1.299183	0.204324	0.081639
Zn5	Zn	0.711836	-0.208245	-0.418384
Zn6	Zn	1.211836	0.291755	0.081616
Zn7	Zn	0.711795	-0.295625	-0.593990
Zn8	Zn	1.211795	0.204375	-0.093990
O9	O	0.755522	-0.251944	-0.506198
O10	O	1.255522	0.248056	-0.006198
O11	O	0.872427	-0.219846	-0.570770
O12	O	1.372427	0.280154	-0.070770
O13	O	0.787575	-0.284106	-0.271343
O14	O	1.287575	0.215894	0.228657
O15	O	0.723490	-0.135078	-0.441726
O16	O	1.223490	0.364922	0.058274
O17	O	0.872360	-0.284092	-0.441686
O18	O	1.372360	0.215908	0.058314
O19	O	0.787730	-0.135067	-0.570792
O20	O	1.287730	0.364933	-0.070792
O21	O	0.723401	-0.219870	-0.271360
O22	O	1.223401	0.280130	0.228640
O23	O	0.638665	-0.219821	-0.441660
O24	O	1.138665	0.280179	0.058340
O25	O	0.723421	-0.284005	-0.741020
O26	O	1.223421	0.215995	-0.241020
O27	O	0.638636	-0.284018	-0.570676
O28	O	1.138636	0.215982	-0.070676
O29	O	0.787691	-0.219796	-0.741070
O30	O	1.287691	0.280204	-0.241070
O31	O	0.787536	-0.368835	-0.441620
O32	O	1.287536	0.131165	0.058380
O33	O	0.723333	-0.368797	-0.570654
O34	O	1.223333	0.131203	-0.070654
C35	C	0.619680	-0.251916	-0.506164
C36	C	1.119680	0.248084	-0.006164
C37	C	0.561566	-0.251916	-0.506174
C38	C	1.061566	0.248084	-0.006174
C39	C	0.310415	-0.218551	-0.573534
C40	C	0.810415	0.281449	-0.073534
C41	C	0.365019	-0.218546	-0.573528
C42	C	0.865019	0.281454	-0.073528
O43	O	0.393292	-0.190154	-0.630793
O44	O	0.893292	0.309846	-0.130793
N45	N	0.392292	-0.251938	-0.506210
N46	N	0.892292	0.248062	-0.006210
C47	C	0.364957	-0.285342	-0.438901
C48	C	0.864957	0.214658	0.061099
O49	O	0.393168	-0.313745	-0.381641
O50	O	0.893168	0.186255	0.118359
C51	C	0.310354	-0.285349	-0.438913
C52	C	0.810354	0.214651	0.061087
C53	C	0.283084	-0.251951	-0.506228
C54	C	0.783084	0.248049	-0.006228
C55	C	0.283145	-0.185155	-0.640845
C56	C	0.783145	0.314845	-0.140845
C57	C	0.228545	-0.185160	-0.640850
C58	C	0.728545	0.314840	-0.140850
C59	C	0.201214	-0.218560	-0.573543
C60	C	0.701214	0.281440	-0.073543
C61	C	0.228483	-0.251955	-0.506232
C62	C	0.728483	0.248045	-0.006232
C63	C	0.283020	-0.318755	-0.371609
C64	C	0.783020	0.181245	0.128391
C65	C	0.228413	-0.318760	-0.371628
C66	C	0.728413	0.181240	0.128372
C67	C	0.201143	-0.285361	-0.438943
C68	C	0.701143	0.214639	0.061057
C69	C	0.146552	-0.285360	-0.438930
C70	C	0.646552	0.214640	0.061070
N71	N	0.119280	-0.251967	-0.506249
N72	N	0.619280	0.248033	-0.006249
C73	C	0.146611	-0.218567	-0.573555
C74	C	0.646611	0.281433	-0.073555
C75	C	0.479627	-0.285324	-0.438882
C76	C	0.979627	0.214676	0.061118
C77	C	0.534230	-0.285315	-0.438864
C78	C	1.034230	0.214685	0.061136
C79	C	0.534288	-0.218519	-0.573493
C80	C	1.034288	0.281481	-0.073493
C81	C	0.479685	-0.218526	-0.573505
C82	C	0.979685	0.281474	-0.073505
C83	C	0.452355	-0.251932	-0.506200
C84	C	0.952355	0.248068	-0.006200
C85	C	0.031945	-0.218579	-0.573559
C86	C	0.531945	0.281421	-0.073559
C87	C	-0.022660	-0.218585	-0.573554
C88	C	0.477340	0.281415	-0.073554
C89	C	-0.022714	-0.285383	-0.438929
C90	C	0.477286	0.214617	0.061071
C91	C	0.031887	-0.285375	-0.438929
C92	C	0.531887	0.214625	0.061071
C93	C	0.059215	-0.251971	-0.506253
C94	C	0.559215	0.248029	-0.006253
O95	O	0.118244	-0.313739	-0.381698
O96	O	0.618244	0.186261	0.118302
O97	O	0.118393	-0.190174	-0.630815
O98	O	0.618393	0.309826	-0.130815
C99	C	0.755434	-0.387787	-0.506150
C100	C	1.255434	0.112213	-0.006150
C101	C	0.755444	-0.445901	-0.506164
C102	C	1.255444	0.054099	-0.006164
C103	C	0.789040	-0.806271	-0.439125
C104	C	1.289040	-0.306271	0.060875
C105	C	0.789060	-0.860875	-0.439139
C106	C	1.289060	-0.360875	0.060861
O107	O	0.817533	-0.889118	-0.382086
O108	O	1.317533	-0.389118	0.117914
N109	N	0.755614	-0.888183	-0.506268
N110	N	1.255614	-0.388183	-0.006268
C111	C	0.722149	-0.860884	-0.573394
C112	C	1.222149	-0.360884	-0.073394
O113	O	0.693703	-0.889126	-0.630495
O114	O	1.193703	-0.389126	-0.130495
C115	C	0.722132	-0.806281	-0.573385
C116	C	1.222132	-0.306281	-0.073385
C117	C	0.755577	-0.778976	-0.506244
C118	C	1.255577	-0.278976	-0.006244
C119	C	0.822482	-0.778966	-0.371990
C120	C	1.322482	-0.278966	0.128010
C121	C	0.822461	-0.724365	-0.371975
C122	C	1.322461	-0.224365	0.128025
C123	C	0.788998	-0.697070	-0.439094
C124	C	1.288998	-0.197070	0.060906
C125	C	0.755555	-0.724375	-0.506229
C126	C	1.255555	-0.224375	-0.006229
C127	C	0.688670	-0.778983	-0.640516
C128	C	1.188670	-0.278983	-0.140516
C129	C	0.688656	-0.724376	-0.640501
C130	C	1.188656	-0.224376	-0.140501
C131	C	0.722101	-0.697071	-0.573361
C132	C	1.222101	-0.197071	-0.073361
C133	C	0.722071	-0.642479	-0.573333
C134	C	1.222071	-0.142479	-0.073333
N135	N	0.755517	-0.615171	-0.506204
N136	N	1.255517	-0.115171	-0.006204
C137	C	0.788981	-0.642467	-0.439085
C138	C	1.288981	-0.142467	0.060915
C139	C	0.722188	-0.975555	-0.573411
C140	C	1.222188	-0.475555	-0.073411
C141	C	0.722203	-1.030157	-0.573416
C142	C	1.222203	-0.530157	-0.073416
C143	C	0.789115	-1.030144	-0.439161
C144	C	1.289115	-0.530144	0.060839
C145	C	0.789097	-0.975541	-0.439151
C146	C	1.289097	-0.475541	0.060849
C147	C	0.755635	-0.948247	-0.506282
C148	C	1.255635	-0.448247	-0.006282
C149	C	0.788933	-0.527801	-0.439057
C150	C	1.288933	-0.027801	0.060943
C151	C	0.788908	-0.473196	-0.439045
C152	C	1.288908	0.026804	0.060955
C153	C	0.721998	-0.473214	-0.573303
C154	C	1.221998	0.026786	-0.073303
C155	C	0.722021	-0.527814	-0.573312
C156	C	1.222021	-0.027814	-0.073312
C157	C	0.755493	-0.555107	-0.506186
C158	C	1.255493	-0.055107	-0.006186
O159	O	0.693614	-0.614202	-0.630359
O160	O	1.193614	-0.114202	-0.130359
O161	O	0.817427	-0.614218	-0.382004
O162	O	1.317427	-0.114218	0.117996
C163	C	0.891895	-0.251973	-0.506233
C164	C	1.391895	0.248027	-0.006233
C165	C	0.950009	-0.251985	-0.506247
C166	C	1.450009	0.248015	-0.006247
C167	C	0.755562	-0.251893	-0.780232
C168	C	1.255562	0.248107	-0.280232
C169	C	0.755578	-0.251871	-0.897008
C170	C	1.255578	0.248129	-0.397008
C171	C	0.755625	-0.115571	-0.506269
C172	C	1.255625	0.384429	-0.006269
C173	C	0.755668	-0.057457	-0.506300
C174	C	1.255668	0.442543	-0.006300
C175	C	0.822507	-0.185015	-0.897080
C176	C	1.322507	0.314985	-0.397080
C177	C	0.855979	-0.151580	-0.951977
C178	C	1.355979	0.348420	-0.451977
C179	C	0.855992	-0.151561	-1.061698
C180	C	1.355992	0.348439	-0.561698
C181	C	0.822528	-0.184980	-1.116526
C182	C	1.322528	0.315020	-0.616526
C183	C	0.789056	-0.218415	-1.061629
C184	C	1.289056	0.281585	-0.561629
C185	C	0.789048	-0.218432	-0.951905
C186	C	1.289048	0.281568	-0.451905
C187	C	0.722126	-0.285268	-1.061558
C188	C	1.222126	0.214732	-0.561558
C189	C	0.722115	-0.285290	-0.951836
C190	C	1.222115	0.214710	-0.451836
C191	C	0.688662	-0.318687	-1.116385
C192	C	1.188662	0.181313	-0.616385
C193	C	0.655192	-0.352126	-1.061488
C194	C	1.155192	0.147874	-0.561488
C195	C	0.655181	-0.352144	-0.951760
C196	C	1.155181	0.147856	-0.451760
C197	C	0.688643	-0.318726	-0.896939
C198	C	1.188643	0.181274	-0.396939
C199	C	0.755513	-0.251958	-0.233230
C200	C	1.255513	0.248042	0.266770
C201	C	0.755597	-0.251832	-0.116454
C202	C	1.255597	0.248168	0.383546
H203	H	0.457379	-0.312526	-0.384065
H204	H	0.957379	0.187474	0.115935
Br205	Br	0.822540	-0.184947	-1.265435
Br206	Br	1.322540	0.315053	-0.765435
Br207	Br	0.609777	-0.397471	-1.135901
Br208	Br	1.109777	0.102529	-0.635901
H209	H	0.883244	-0.124331	-1.106395
H210	H	1.383244	0.375669	-0.606395
H211	H	0.822505	-0.185032	-0.807739
H212	H	1.322505	0.314968	-0.307739
H213	H	0.305213	-0.345952	-0.316794
H214	H	0.805213	0.154048	0.183206
H215	H	0.206163	-0.345965	-0.316822
H216	H	0.706163	0.154035	0.183178
H217	H	0.694964	-1.052384	-0.628079
H218	H	1.194964	-0.552384	-0.128079
Br219	Br	0.901377	-0.106212	-0.877565
Br220	Br	1.401377	0.393788	-0.377565
H221	H	0.694935	-0.953334	-0.628073
H222	H	1.194935	-0.453334	-0.128073
H223	H	0.816142	-0.450966	-0.384367
H224	H	1.316142	0.049034	0.115633
H225	H	0.457486	-0.191330	-0.628318
H226	H	0.957486	0.308670	-0.128318
Br227	Br	-0.059665	-0.173254	-0.664913
Br228	Br	0.440335	0.326746	-0.164913
Br229	Br	0.867861	-0.687316	-0.280865
Br230	Br	1.367861	-0.187316	0.219135
H231	H	0.849735	-0.801184	-0.317333
H232	H	1.349735	-0.301184	0.182667
H233	H	0.694751	-0.450981	-0.627948
H234	H	1.194751	0.049019	-0.127948
H235	H	0.054190	-0.191379	-0.628379
H236	H	0.554190	0.308621	-0.128379
Br237	Br	0.068897	-0.330705	-0.347578
Br238	Br	0.568897	0.169295	0.152422
H239	H	0.305392	-0.157957	-0.695660
H240	H	0.805392	0.342043	-0.195660
H241	H	0.688672	-0.318667	-1.205726
H242	H	1.188672	0.181333	-0.705726
H243	H	0.556551	-0.191323	-0.628298
H244	H	1.056551	0.308677	-0.128298
H245	H	-0.044977	-0.312574	-0.384125
H246	H	0.455023	0.187426	0.115875
Br247	Br	0.834360	-0.564833	-0.347957
Br248	Br	1.334360	-0.064833	0.152043
Br249	Br	0.643283	-0.816026	-0.731653
Br250	Br	1.143283	-0.316026	-0.231653
H251	H	0.627918	-0.379366	-0.907070
H252	H	1.127918	0.120634	-0.407070
Br253	Br	0.688634	-0.318752	-0.748030
Br254	Br	1.188634	0.181248	-0.248030
H255	H	0.816331	-0.953312	-0.384480
H256	H	1.316331	-0.453312	0.115520
Br257	Br	0.643241	-0.687337	-0.731616
Br258	Br	1.143241	-0.187337	-0.231616
Br259	Br	0.834528	-1.067198	-0.348065
Br260	Br	1.334528	-0.567198	0.151935
H261	H	0.556428	-0.312506	-0.384037
H262	H	1.056428	0.187494	0.115963
Br263	Br	0.191545	-0.139835	-0.732220
Br264	Br	0.691545	0.360165	-0.232220
Br265	Br	0.676619	-0.564873	-0.664407
Br266	Br	1.176619	-0.064873	-0.164407
