data_functionalizedCrystal
_audit_creation_method	'MofGen! by Chris Wilmer'
_symmetry_space_group_name_H-M	'P1'
_symmetry_Int_Tables_number	1
_symmetry_cell_setting	triclinic
loop_
_symmetry_equiv_pos_as_xyz
  x,y,z
_cell_length_a	10.723024
_cell_length_b	15.995350
_cell_length_c	9.798715
_cell_angle_alpha	89.999084
_cell_angle_beta	89.996609
_cell_angle_gamma	83.980122
loop_
_atom_site_label
_atom_site_type_symbol
_atom_site_fract_x
_atom_site_fract_y
_atom_site_fract_z
O1	O	1.655689	0.117435	-0.113475
O2	O	1.292393	0.128675	-0.113479
O3	O	1.483972	0.001224	-0.113475
O4	O	1.464110	0.244886	-0.113478
O5	O	1.483958	0.001224	0.113507
O6	O	1.292379	0.128675	0.113503
O7	O	1.655675	0.117434	0.113507
Zn8	Zn	1.474025	0.123055	0.149544
Zn9	Zn	1.474044	0.123055	-0.149515
O10	O	1.464096	0.244885	0.113504
C11	C	1.245897	0.127857	0.000012
C12	C	1.107374	0.125410	0.000010
C13	C	1.031482	0.196725	0.000008
C14	C	0.888310	0.194197	0.000007
C15	C	1.483144	-0.029975	0.000013
C16	C	1.480682	-0.122940	0.000005
C17	C	1.471842	-0.460738	0.000010
C18	C	1.335403	-0.414088	-0.000501
C19	C	1.337865	-0.317383	0.000011
C20	C	1.476227	-0.293152	0.000007
C21	C	1.543515	-0.333843	0.129623
C22	C	1.540088	-0.430499	0.129732
C23	C	1.542922	-0.430840	-0.128390
C24	C	1.542890	-0.333895	-0.130103
C25	C	1.478712	-0.198441	0.000010
C26	C	1.469360	-0.555450	0.000016
C27	C	1.702171	0.118252	0.000014
C28	C	1.840694	0.120700	0.000007
C29	C	1.464924	0.276085	0.000013
C30	C	1.467386	0.369049	0.000011
N31	N	1.474021	0.123054	0.353643
N32	N	1.474057	0.123049	-0.353615
C33	C	1.554463	0.069305	0.421422
C34	C	1.554483	0.069302	0.578584
H35	H	1.066355	0.062483	-0.000024
H36	H	1.623357	0.023288	0.636871
H37	H	1.284604	-0.289825	0.093082
H38	H	1.284971	-0.289265	-0.092903
H39	H	1.623314	0.023287	0.363100
C40	C	1.046466	0.327290	-0.116672
C41	C	1.086841	0.281679	0.000010
H42	H	1.080636	0.379740	-0.116663
H43	H	1.073865	0.296341	-0.195809
H44	H	0.957514	0.336731	-0.116660
H45	H	1.175793	0.272233	-0.000007
H46	H	1.059450	0.312634	0.079168
C47	C	1.437572	-0.383588	0.338044
C48	C	1.473818	-0.455591	0.260521
H49	H	1.396651	-0.399077	0.418783
H50	H	1.509638	-0.356917	0.361719
H51	H	1.381827	-0.345943	0.286208
H52	H	1.529571	-0.493233	0.312354
H53	H	1.401742	-0.482275	0.236848
H54	H	1.280875	-0.432932	-0.093451
H55	H	1.405188	0.169072	0.588108
C56	C	1.224387	-0.370333	0.204450
C57	C	1.262088	-0.440949	0.124274
H58	H	1.179120	-0.386918	0.281475
H59	H	1.296208	-0.345386	0.234260
H60	H	1.172245	-0.330809	0.151990
H61	H	1.314237	-0.480470	0.176732
H62	H	1.190256	-0.465908	0.094465
H63	H	1.405162	0.169065	0.411967
H64	H	0.905898	0.059646	-0.000001
H65	H	1.640259	-0.462172	0.135610
H66	H	1.496768	-0.305731	0.226082
C67	C	0.675495	0.258161	0.000006
C68	C	0.800287	0.276619	0.000006
H69	H	0.621154	0.309049	0.000013
H70	H	0.660351	0.226468	-0.079144
H71	H	0.660345	0.226460	0.079164
H72	H	0.815440	0.308315	-0.079158
H73	H	0.815437	0.308326	0.079163
C74	C	1.744727	-0.345975	0.019702
C75	C	1.680738	-0.313984	0.136140
H76	H	1.829439	-0.333708	0.023722
H77	H	1.742350	-0.405120	0.015829
H78	H	1.705796	-0.320779	-0.059413
H79	H	1.719664	-0.339184	0.215254
H80	H	1.683123	-0.254827	0.140026
C81	C	1.380902	-0.503458	-0.229082
C82	C	1.482709	-0.458905	-0.261017
H83	H	1.343717	-0.520777	-0.310957
H84	H	1.409233	-0.551483	-0.176179
H85	H	1.320703	-0.468321	-0.178470
H86	H	1.542913	-0.494044	-0.311621
H87	H	1.454380	-0.410873	-0.313942
H88	H	1.643790	-0.317954	-0.137932
C89	C	1.481527	-0.210317	-0.263053
C90	C	1.476574	-0.297420	-0.259555
H91	H	1.440590	-0.187797	-0.342974
H92	H	1.440778	-0.185442	-0.184702
H93	H	1.566577	-0.198640	-0.263879
H94	H	1.391524	-0.309097	-0.258719
H95	H	1.517320	-0.322303	-0.337927
H96	H	1.643518	-0.462023	-0.129264
