data_functionalizedCrystal
_audit_creation_method	'MofGen! by Chris Wilmer'
_symmetry_space_group_name_H-M	'P1'
_symmetry_Int_Tables_number	1
_symmetry_cell_setting	triclinic
loop_
_symmetry_equiv_pos_as_xyz
  x,y,z
_cell_length_a	18.050589
_cell_length_b	12.759401
_cell_length_c	12.759393
_cell_angle_alpha	90.018496
_cell_angle_beta	89.969379
_cell_angle_gamma	89.971618
loop_
_atom_site_label
_atom_site_type_symbol
_atom_site_fract_x
_atom_site_fract_y
_atom_site_fract_z
Zn1	Zn	-0.295612	-1.606157	-0.593988
Zn2	Zn	-0.419823	-1.606010	-0.418311
Zn3	Zn	-0.295651	-1.430459	-0.418328
Zn4	Zn	-0.419766	-1.430406	-0.593953
O5	O	-0.357713	-1.518258	-0.506145
O6	O	-0.312097	-1.753158	-0.570692
O7	O	-0.403391	-1.582683	-0.271292
O8	O	-0.191722	-1.453849	-0.441651
O9	O	-0.403354	-1.753050	-0.441623
O10	O	-0.191693	-1.582934	-0.570708
O11	O	-0.312163	-1.453706	-0.271304
O12	O	-0.312108	-1.283431	-0.441617
O13	O	-0.403256	-1.453759	-0.740979
O14	O	-0.403294	-1.283392	-0.570648
O15	O	-0.312041	-1.582882	-0.741005
O16	O	-0.523740	-1.582632	-0.441589
O17	O	-0.523698	-1.453616	-0.570632
C18	C	-0.357699	-1.245290	-0.506131
C19	C	-0.357711	-1.128514	-0.506149
C20	C	-0.550665	-1.518131	-0.506127
C21	C	-0.633211	-1.518173	-0.506155
C22	C	-0.357638	-1.518331	-0.780178
C23	C	-0.357606	-1.518363	-0.896955
C24	C	-0.832666	-1.448083	-0.576304
C25	C	-0.882114	-1.422469	-0.480436
C26	C	-0.784341	-1.518276	-0.506169
C27	C	-0.881974	-1.543942	-0.602048
C28	C	-0.930326	-1.518374	-0.506191
C29	C	-0.832703	-1.492611	-0.410250
C30	C	-0.832558	-1.614129	-0.531927
C31	C	-0.881985	-1.588551	-0.435992
C32	C	-0.700243	-1.518217	-0.506158
C33	C	-1.014423	-1.518433	-0.506191
C34	C	-0.164007	-1.518414	-0.506185
C35	C	-0.081462	-1.518480	-0.506203
C36	C	-0.357727	-1.792291	-0.506160
C37	C	-0.357733	-1.909068	-0.506166
C38	C	-0.405268	-1.073659	-0.573225
C39	C	-0.405277	-0.963935	-0.573236
C40	C	-0.310171	-0.963930	-0.439088
C41	C	-0.310159	-1.073652	-0.439083
C42	C	-0.452820	-1.128521	-0.640292
C43	C	-0.500382	-1.073666	-0.707372
C44	C	-0.500391	-0.963942	-0.707383
C45	C	-0.452839	-0.909072	-0.640314
C46	C	-0.310106	-1.585606	-0.951832
C47	C	-0.310079	-1.585631	-1.061557
C48	C	-0.405059	-1.451166	-1.061516
C49	C	-0.405081	-1.451136	-0.951794
C50	C	-0.262631	-1.652833	-0.896993
C51	C	-0.215128	-1.720083	-0.951871
C52	C	-0.215101	-1.720108	-1.061595
C53	C	-0.262577	-1.652883	-1.116442
C54	C	-0.357734	-1.518245	-0.233178
C55	C	-0.357557	-1.518417	-0.116401
H56	H	-0.811010	-1.388636	-0.635531
O57	O	-0.169046	-1.785523	-0.898712
C58	C	-0.133044	-1.964259	-0.865114
C59	C	-0.185268	-1.890267	-0.925398
H60	H	-0.146151	-2.048961	-0.886651
H61	H	-0.073142	-1.945950	-0.886723
H62	H	-0.141210	-1.952637	-0.777272
H63	H	-0.177168	-1.901848	-1.013254
H64	H	-0.245150	-1.908595	-0.903702
H65	H	-0.903898	-1.341455	-0.458669
H66	H	-0.262649	-1.652822	-0.807650
O67	O	-0.452941	-0.802486	-0.640457
C68	C	-0.505054	-0.645032	-0.714197
C69	C	-0.505037	-0.765737	-0.714108
H70	H	-0.547158	-0.615284	-0.773753
H71	H	-0.520434	-0.615098	-0.632846
H72	H	-0.447535	-0.615355	-0.736106
H73	H	-0.562539	-0.795503	-0.692244
H74	H	-0.489616	-0.795600	-0.795468
O75	O	-0.451124	-1.385709	-0.898443
C76	C	-0.461151	-1.243857	-0.774514
C77	C	-0.408921	-1.317877	-0.834880
H78	H	-0.427051	-1.189011	-0.723093
H79	H	-0.495067	-1.195753	-0.832519
H80	H	-0.500013	-1.292070	-0.723184
H81	H	-0.370014	-1.269745	-0.886212
H82	H	-0.375057	-1.365984	-0.776819
O83	O	-0.168852	-1.785375	-1.114786
C84	C	-0.042519	-1.836455	-1.148435
C85	C	-0.094812	-1.762483	-1.088118
H86	H	0.017354	-1.817958	-1.126913
H87	H	-0.055514	-1.921170	-1.126842
H88	H	-0.050690	-1.824949	-1.236273
H89	H	-0.086671	-1.773895	-1.000267
H90	H	-0.081805	-1.677795	-1.109799
H91	H	-0.262543	-1.652896	-1.205786
O92	O	-0.546592	-1.126798	-0.772621
C93	C	-0.640953	-1.115221	-0.905638
C94	C	-0.588646	-1.054922	-0.831811
H95	H	-0.674979	-1.057135	-0.953497
H96	H	-0.606934	-1.166602	-0.960722
H97	H	-0.679709	-1.166578	-0.857287
H98	H	-0.549880	-1.003508	-0.880078
H99	H	-0.622711	-1.003607	-0.776724
H100	H	-0.539112	-0.919282	-0.762010
O101	O	-0.264061	-0.910471	-0.373965
C102	C	-0.221913	-0.741434	-0.314551
C103	C	-0.274179	-0.801843	-0.388346
H104	H	-0.230064	-0.653597	-0.326168
H105	H	-0.234888	-0.762895	-0.229781
H106	H	-0.162048	-0.763098	-0.333125
H107	H	-0.334061	-0.780211	-0.369867
H108	H	-0.261140	-0.780376	-0.473093
O109	O	-0.451156	-1.385975	-1.114954
C110	C	-0.493189	-1.326395	-1.283971
C111	C	-0.440954	-1.400290	-1.223587
H112	H	-0.484948	-1.337928	-1.371811
H113	H	-0.553093	-1.344794	-1.262455
H114	H	-0.480157	-1.241693	-1.262339
H115	H	-0.453919	-1.485017	-1.245186
H116	H	-0.381066	-1.381801	-1.245108
H117	H	-0.903503	-1.647952	-0.376622
O118	O	-0.806872	-1.466615	-0.313574
C119	C	-0.699607	-1.437462	-0.205086
C120	C	-0.728762	-1.466896	-0.314622
H121	H	-0.636453	-1.437701	-0.205891
H122	H	-0.720409	-1.356020	-0.182978
H123	H	-0.720385	-1.496951	-0.145272
H124	H	-0.707996	-1.407477	-0.374509
H125	H	-0.707967	-1.548364	-0.336641
H126	H	-0.903618	-1.565611	-0.683124
O127	O	-0.806600	-1.710722	-0.558128
C128	C	-0.802245	-1.846966	-0.688815
C129	C	-0.831679	-1.737555	-0.659270
H130	H	-0.822522	-1.868703	-0.770581
H131	H	-0.739094	-1.846199	-0.687868
H132	H	-0.823373	-1.907029	-0.629826
H133	H	-0.810606	-1.677430	-0.718231
H134	H	-0.894829	-1.738409	-0.660185
H135	H	-0.452820	-1.217863	-0.640288
H136	H	-0.271429	-1.118316	-0.384472
