data_functionalizedCrystal
_audit_creation_method	'MofGen! by Chris Wilmer'
_symmetry_space_group_name_H-M	'P1'
_symmetry_Int_Tables_number	1
_symmetry_cell_setting	triclinic
loop_
_symmetry_equiv_pos_as_xyz
  x,y,z
_cell_length_a	17.699083
_cell_length_b	13.339070
_cell_length_c	16.776229
_cell_angle_alpha	89.996888
_cell_angle_beta	89.998886
_cell_angle_gamma	99.456154
loop_
_atom_site_label
_atom_site_type_symbol
_atom_site_fract_x
_atom_site_fract_y
_atom_site_fract_z
O1	O	1.031106	0.127864	-0.066171
O2	O	0.814244	0.144499	-0.066196
O3	O	0.897786	-0.011021	-0.066184
O4	O	0.947563	0.283384	-0.066183
O5	O	0.897768	-0.011031	0.066392
O6	O	0.814226	0.144489	0.066380
O7	O	1.031088	0.127854	0.066406
Zn8	Zn	0.922654	0.136170	0.087442
Zn9	Zn	0.922677	0.136183	-0.087233
O10	O	0.947546	0.283374	0.066394
C11	C	0.785912	0.143898	0.000089
C12	C	0.701516	0.142110	0.000079
C13	C	0.672191	0.233397	0.000079
C14	C	0.592891	0.231710	0.000090
C15	C	0.542918	0.138736	0.000094
C16	C	0.572248	0.047442	0.000096
C17	C	0.651546	0.049129	0.000091
C18	C	0.252446	0.040635	0.000115
C19	C	0.173143	0.038955	0.000117
C20	C	0.193791	0.223216	0.000114
C21	C	0.273089	0.224904	0.000109
C22	C	0.302412	0.133610	0.000115
C23	C	0.388398	0.135440	0.000106
C24	C	0.456933	0.136906	0.000098
C25	C	0.889369	-0.048694	0.000102
C26	C	0.864305	-0.160935	0.000096
C27	C	1.059185	-0.526207	0.000119
C28	C	1.082736	-0.420752	0.000129
C29	C	1.028130	-0.355792	0.000121
C30	C	0.949970	-0.396298	0.000102
C31	C	0.926417	-0.501763	0.000098
C32	C	0.895362	-0.331349	0.000100
C33	C	0.817202	-0.371855	0.000082
C34	C	0.793652	-0.477310	0.000077
C35	C	0.848258	-0.542269	0.000086
C36	C	0.918915	-0.225884	0.000104
C37	C	0.786147	-0.201441	0.000083
C38	C	0.762596	-0.306895	0.000073
C39	C	1.059420	0.128455	0.000119
C40	C	1.143816	0.130243	0.000124
C41	C	0.955963	0.321047	0.000106
C42	C	0.981027	0.433288	0.000107
N43	N	0.922644	0.136161	0.206654
N44	N	0.922692	0.136184	-0.206444
C45	C	0.959658	0.067325	0.248376
C46	C	0.959662	0.067324	0.331828
C47	C	0.922656	0.136165	0.373556
C48	C	0.885638	0.205004	0.331828
C49	C	0.885629	0.204999	0.248378
C50	C	0.885669	0.205024	0.668375
C51	C	0.885682	0.205026	0.751832
C52	C	0.959702	0.067349	0.751826
C53	C	0.959694	0.067344	0.668375
C54	C	0.922672	0.136179	0.626654
C55	C	0.922667	0.136178	0.536166
C56	C	0.922666	0.136172	0.464043
H57	H	0.169907	0.297552	0.000113
H58	H	0.989845	0.011296	0.785804
H59	H	0.698956	-0.339890	0.000059
H60	H	0.855487	0.261051	0.214408
H61	H	0.829087	-0.628140	0.000074
H62	H	0.855545	0.261086	0.785806
C63	C	1.109724	-0.658986	-0.068022
C64	C	1.119201	-0.597609	0.000131
H65	H	1.146782	-0.703063	-0.068015
H66	H	1.059810	-0.698194	-0.068024
H67	H	1.116166	-0.617324	-0.114249
H68	H	1.112753	-0.639271	0.046358
H69	H	1.169127	-0.558398	0.000140
H70	H	0.855526	0.261074	0.634413
H71	H	0.730009	-0.510286	0.000068
H72	H	0.855502	0.261052	0.365808
C73	C	0.763294	-0.028929	0.000068
C74	C	0.726117	-0.130047	0.000068
H75	H	0.726236	0.015149	0.000054
H76	H	0.794414	-0.016677	0.046303
H77	H	0.794436	-0.016678	-0.046162
H78	H	0.694979	-0.142300	0.046301
H79	H	0.694984	-0.142303	-0.046172
C80	C	0.992538	0.006189	0.459750
C81	C	1.000350	-0.008342	0.377691
H82	H	1.017653	-0.040532	0.488061
H83	H	1.014922	0.073650	0.473418
H84	H	0.939738	-0.004712	0.473423
H85	H	1.053150	0.002567	0.364017
H86	H	0.977968	-0.075818	0.364017
C87	C	0.714192	0.390985	-0.068075
C88	C	0.727116	0.335601	0.000074
H89	H	0.748096	0.454086	-0.068072
H90	H	0.722951	0.353412	-0.114299
H91	H	0.662764	0.403032	-0.068062
H92	H	0.778542	0.323547	0.000059
H93	H	0.718362	0.373182	0.046311
C94	C	0.515690	0.336709	-0.068067
C95	C	0.560659	0.332057	0.000082
H96	H	0.495789	0.398661	-0.068068
H97	H	0.546194	0.333534	-0.114292
H98	H	0.474579	0.281094	-0.068050
H99	H	0.601772	0.387668	0.000061
H100	H	0.530153	0.335243	0.046319
H101	H	0.989797	0.011271	0.214406
C102	C	0.967282	-0.107803	0.642859
C103	C	1.000349	-0.008418	0.622586
H104	H	0.992372	-0.154602	0.614610
H105	H	0.972561	-0.117554	0.698538
H106	H	0.914489	-0.118657	0.629163
H107	H	1.053141	0.002438	0.636287
H108	H	0.995077	0.001337	0.566894
C109	C	0.285533	0.406876	0.000116
C110	C	0.328019	0.327104	0.000109
H111	H	0.319445	0.469970	0.000124
H112	H	0.254177	0.402394	-0.046112
H113	H	0.254171	0.402372	0.046353
H114	H	0.359377	0.331603	-0.046131
H115	H	0.359388	0.331588	0.046343
C116	C	0.364828	-0.038608	0.000109
C117	C	0.284672	-0.059712	0.000110
H118	H	0.384723	-0.100563	0.000108
H119	H	0.382060	-0.000477	-0.046119
H120	H	0.382059	-0.000485	0.046346
H121	H	0.267440	-0.097830	-0.046130
H122	H	0.267433	-0.097860	0.046343
C123	C	0.160692	-0.143026	0.000140
C124	C	0.118209	-0.063250	0.000130
H125	H	0.126777	-0.206118	0.000152
H126	H	0.192047	-0.138544	-0.046091
H127	H	0.192053	-0.138528	0.046374
H128	H	0.086851	-0.067745	-0.046108
H129	H	0.086840	-0.067735	0.046366
H130	H	0.982554	-0.192915	0.000119
C131	C	0.471096	-0.061351	-0.068055
C132	C	0.517319	-0.054759	0.000098
H133	H	0.437190	-0.124451	-0.068056
H134	H	0.442284	-0.007232	-0.068048
H135	H	0.502470	-0.056859	-0.114282
H136	H	0.485945	-0.059244	0.046325
H137	H	0.546134	-0.108893	0.000099
C138	C	1.203160	-0.409112	-0.068002
C139	C	1.168645	-0.376232	0.000146
H140	H	1.256199	-0.381622	-0.067993
H141	H	1.196947	-0.481207	-0.067999
H142	H	1.179748	-0.386791	-0.114233
H143	H	1.192054	-0.398560	0.046376
H144	H	1.174864	-0.304122	0.000150
H145	H	1.047310	-0.269927	0.000129
C146	C	0.623176	-0.133180	0.000082
C147	C	0.683783	-0.051216	0.000083
H148	H	0.643078	-0.195130	0.000074
H149	H	0.592679	-0.130011	0.046314
H150	H	0.592674	-0.129994	-0.046152
H151	H	0.714282	-0.054399	0.046320
H152	H	0.714292	-0.054387	-0.046154
