data_functionalizedCrystal
_audit_creation_method	'MofGen! by Chris Wilmer'
_symmetry_space_group_name_H-M	'P1'
_symmetry_Int_Tables_number	1
_symmetry_cell_setting	triclinic
loop_
_symmetry_equiv_pos_as_xyz
  x,y,z
_cell_length_a	12.645331
_cell_length_b	12.645330
_cell_length_c	12.645324
_cell_angle_alpha	90.031659
_cell_angle_beta	90.021980
_cell_angle_gamma	90.016671
loop_
_atom_site_label
_atom_site_type_symbol
_atom_site_fract_x
_atom_site_fract_y
_atom_site_fract_z
Zn1	Zn	1.620724	-0.421989	0.599446
Zn2	Zn	1.620608	-0.599298	0.422186
Zn3	Zn	1.443441	-0.422046	0.422191
Zn4	Zn	1.443420	-0.599208	0.599402
O5	O	1.532048	-0.510635	0.510806
O6	O	1.769056	-0.445523	0.575949
O7	O	1.597066	-0.575846	0.273840
O8	O	1.467015	-0.273691	0.445724
O9	O	1.768970	-0.575791	0.445717
O10	O	1.597264	-0.273649	0.575953
O11	O	1.466902	-0.445620	0.273843
O12	O	1.295091	-0.445533	0.445681
O13	O	1.466980	-0.575638	0.747755
O14	O	1.295076	-0.575693	0.575877
O15	O	1.597244	-0.445436	0.747788
O16	O	1.597046	-0.747633	0.445674
O17	O	1.466867	-0.747567	0.575873
C18	C	1.256618	-0.510610	0.510776
C19	C	1.138788	-0.510625	0.510788
C20	C	0.971198	-0.428364	0.429333
C21	C	1.093758	-0.428577	0.428974
C22	C	1.094269	-0.622302	0.480273
C23	C	0.971670	-0.621853	0.479717
C24	C	0.971638	-0.482270	0.623072
C25	C	1.094244	-0.479775	0.622448
C26	C	1.531971	-0.786065	0.510791
C27	C	1.532035	-0.903895	0.510821
C28	C	1.450477	-1.071461	0.592982
C29	C	1.450060	-0.948902	0.592717
C30	C	1.501791	-0.948501	0.399099
C31	C	1.501293	-1.071100	0.399597
C32	C	1.644335	-1.070983	0.539475
C33	C	1.643647	-0.948375	0.541918
C34	C	1.808553	-0.510661	0.510838
C35	C	1.926383	-0.510672	0.510851
C36	C	1.532123	-0.510520	0.787312
C37	C	1.532155	-0.510471	0.905142
C38	C	1.532155	-0.234130	0.510844
C39	C	1.532200	-0.116300	0.510861
C40	C	1.532035	-0.510673	0.235377
C41	C	1.532208	-0.510423	0.117547
C42	C	1.614122	-0.428544	0.950044
C43	C	1.614474	-0.428758	1.072604
C44	C	1.562111	-0.622241	1.073023
C45	C	1.562675	-0.621795	0.950425
C46	C	1.420090	-0.481547	0.950312
C47	C	1.420721	-0.479055	1.072919
H48	H	1.123859	-0.345764	0.448100
C49	C	1.390239	-0.367889	1.112246
N50	N	1.367281	-0.284160	1.141876
C51	C	0.929510	-0.453429	0.317650
N52	N	0.898106	-0.472309	0.233532
C53	C	1.338867	-1.113193	0.567691
N54	N	1.254802	-1.144623	0.548635
H55	H	1.356430	-0.534332	1.103509
H56	H	1.123037	-0.447350	0.345814
C57	C	0.932970	-0.654377	0.368882
N58	N	0.903826	-0.678869	0.285397
H59	H	1.366928	-0.919668	0.573760
H60	H	0.942025	-0.685255	0.536502
H61	H	1.644582	-0.646259	0.921841
C62	C	1.390551	-1.109865	0.366856
N63	N	1.307136	-1.139058	0.342199
C64	C	1.725669	-0.454132	0.908445
N65	N	1.809685	-0.473409	0.877112
H66	H	1.469226	-1.100863	0.676094
C67	C	1.726676	-0.454651	1.112248
N68	N	1.811190	-0.474160	1.142107
H69	H	1.505525	-0.684917	0.920717
C70	C	1.483953	-0.706946	1.112346
N71	N	1.425084	-0.770744	1.141968
C72	C	1.133687	-0.707371	0.557954
N73	N	1.163384	-0.771445	0.616463
H74	H	1.468982	-0.918738	0.675558
C75	C	1.135672	-0.655395	0.370626
N76	N	1.166855	-0.680314	0.288036
C77	C	1.578204	-1.111180	0.314109
N78	N	1.636126	-1.141363	0.249714
C79	C	0.931389	-0.316148	0.454889
N80	N	0.901397	-0.231625	0.474138
H81	H	1.559427	-0.919352	0.336240
C82	C	1.671573	-0.655843	1.114506
N83	N	1.754024	-0.681145	1.145747
C84	C	1.383196	-0.373276	0.908572
N85	N	1.355420	-0.291722	0.877134
H86	H	0.940741	-0.402256	0.650823
C87	C	1.133547	-0.368744	0.653529
N88	N	1.163154	-0.285112	0.676935
H89	H	1.124900	-0.535351	0.686433
C90	C	0.932482	-0.563254	0.705128
N91	N	0.902983	-0.624254	0.766924
H92	H	1.671924	-1.101817	0.619558
C93	C	1.392199	-0.907161	0.365761
N94	N	1.309651	-0.876026	0.340659
C95	C	1.674487	-0.908937	0.652974
N96	N	1.697720	-0.879212	0.736614
C97	C	1.337591	-0.562149	0.911070
N98	N	1.275462	-0.622861	0.881506
C99	C	1.730238	-0.906983	0.466996
N100	N	1.795456	-0.875808	0.410554
C101	C	1.726591	-1.110161	0.458678
N102	N	1.788538	-1.139678	0.397819
H103	H	1.595790	-0.345859	1.102711
H104	H	1.595658	-0.345394	0.920588
