data_functionalizedCrystal
_audit_creation_method	'MofGen! by Chris Wilmer'
_symmetry_space_group_name_H-M	'P1'
_symmetry_Int_Tables_number	1
_symmetry_cell_setting	triclinic
loop_
_symmetry_equiv_pos_as_xyz
  x,y,z
_cell_length_a	14.519709
_cell_length_b	19.188930
_cell_length_c	12.996460
_cell_angle_alpha	89.988736
_cell_angle_beta	90.000034
_cell_angle_gamma	83.412464
loop_
_atom_site_label
_atom_site_type_symbol
_atom_site_fract_x
_atom_site_fract_y
_atom_site_fract_z
O1	O	1.223300	0.091525	-0.085445
O2	O	0.954756	0.102303	-0.085478
O3	O	1.096778	-0.004714	-0.085440
O4	O	1.081279	0.198542	-0.085482
O5	O	1.096763	-0.004720	0.085693
O6	O	0.954742	0.102297	0.085656
O7	O	1.223285	0.091519	0.085689
Cu8	Cu	1.089012	0.096907	0.101298
Cu9	Cu	1.089030	0.096914	-0.101087
O10	O	1.081264	0.198536	0.085651
C11	C	0.920392	0.101797	0.000085
C12	C	0.818020	0.100292	0.000073
C13	C	0.443159	0.094751	0.000121
C14	C	0.547457	0.096290	0.000108
C15	C	0.630586	0.097521	0.000097
C16	C	0.734891	0.099060	0.000085
C17	C	1.096269	-0.030730	0.000129
C18	C	1.094762	-0.108240	0.000138
C19	C	1.178095	-0.152867	0.000153
C20	C	1.176680	-0.225696	0.000137
C21	C	1.091926	-0.253895	0.000125
C22	C	1.008582	-0.209257	0.000105
C23	C	1.009999	-0.136430	0.000111
N24	N	1.027137	-0.362132	0.058358
N25	N	1.025796	-0.431316	0.058354
C26	C	1.087649	-0.473318	0.000104
N27	N	1.150908	-0.443526	-0.058129
N28	N	1.152252	-0.374336	-0.058120
C29	C	1.090379	-0.332863	0.000118
C30	C	1.169454	-0.596916	0.000100
C31	C	1.168035	-0.669745	0.000077
C32	C	0.999934	-0.653305	0.000055
C33	C	1.001355	-0.580477	0.000068
C34	C	1.086118	-0.552287	0.000095
C35	C	1.257649	0.092024	0.000124
C36	C	1.360021	0.093529	0.000128
C37	C	1.081773	0.224551	0.000079
C38	C	1.083280	0.302061	0.000064
N39	N	1.089007	0.096902	0.243645
N40	N	1.089042	0.096914	-0.243434
C41	C	1.089028	0.096915	0.663460
C42	C	1.089020	0.096914	0.546655
C43	C	1.089018	0.096909	0.453556
C44	C	1.089008	0.096906	0.336744
H45	H	1.244542	-0.262039	0.000145
C46	C	0.910975	-0.531903	0.000010
C47	C	0.930356	-0.462089	-0.000009
C48	C	0.847118	-0.417324	-0.000081
H49	H	0.876135	-0.540379	0.059665
H50	H	0.876209	-0.540411	-0.059699
H51	H	0.965108	-0.453585	0.059694
H52	H	0.965183	-0.453591	-0.059660
H53	H	0.812352	-0.425832	-0.059790
H54	H	0.812284	-0.425807	0.059575
H55	H	0.860256	-0.369951	-0.000103
C56	C	1.258490	-0.718234	-0.000124
C57	C	1.262612	-0.760492	-0.088190
C58	C	1.345933	-0.805162	-0.088418
H59	H	1.261513	-0.747064	0.059478
H60	H	1.309195	-0.691034	-0.000162
H61	H	1.211921	-0.787690	-0.088143
H62	H	1.259605	-0.731681	-0.147807
H63	H	1.396638	-0.777962	-0.088456
H64	H	1.348949	-0.833988	-0.028812
H65	H	1.348745	-0.833835	-0.148174
C66	C	0.916535	-0.239830	-0.000119
C67	C	0.866194	-0.217160	-0.088186
C68	C	0.781399	-0.245315	-0.088440
H69	H	0.882114	-0.224546	0.059483
H70	H	0.927587	-0.289599	-0.000174
H71	H	0.855140	-0.167402	-0.088122
H72	H	0.900587	-0.232443	-0.147802
H73	H	0.792451	-0.295084	-0.088495
H74	H	0.746987	-0.230029	-0.028834
H75	H	0.747237	-0.229943	-0.148196
H76	H	1.247116	-0.129920	0.000172
C77	C	0.919546	-0.087939	-0.000111
C78	C	0.915449	-0.045644	-0.088163
C79	C	0.832132	-0.000971	-0.088408
H80	H	0.916510	-0.059134	0.059501
H81	H	0.868838	-0.115137	-0.000180
H82	H	0.966143	-0.018449	-0.088085
H83	H	0.918470	-0.074431	-0.147789
H84	H	0.781424	-0.028169	-0.088476
H85	H	0.829103	0.027830	-0.028792
H86	H	0.829337	0.027727	-0.148154
C87	C	1.261503	-0.566340	-0.000102
C88	C	1.311855	-0.588980	-0.088161
C89	C	1.396648	-0.560822	-0.088392
H90	H	1.295917	-0.581643	0.059505
H91	H	1.250449	-0.516572	-0.000151
H92	H	1.322912	-0.638738	-0.088102
H93	H	1.277469	-0.573678	-0.147783
H94	H	1.385594	-0.511054	-0.088442
H95	H	1.431054	-0.576127	-0.028781
H96	H	1.430819	-0.576174	-0.148143
H97	H	0.930926	-0.676263	0.000041
