data_functionalizedCrystal
_audit_creation_method	'MofGen! by Chris Wilmer'
_symmetry_space_group_name_H-M	'P1'
_symmetry_Int_Tables_number	1
_symmetry_cell_setting	triclinic
loop_
_symmetry_equiv_pos_as_xyz
  x,y,z
_cell_length_a	6.817900
_cell_length_b	19.361523
_cell_length_c	15.301126
_cell_angle_alpha	83.455784
_cell_angle_beta	104.177575
_cell_angle_gamma	81.486190
loop_
_atom_site_label
_atom_site_type_symbol
_atom_site_fract_x
_atom_site_fract_y
_atom_site_fract_z
V1	V	-3.975094	0.218075	-0.125730
O2	O	-3.960071	0.213705	0.005043
O3	O	-3.930349	0.216793	-0.248342
O4	O	-3.902615	0.313089	-0.124235
O5	O	-3.987997	0.116743	-0.119923
V6	V	-4.461368	0.205929	-0.110037
O7	O	-4.230317	0.244717	-0.160156
O8	O	-4.656343	0.179287	-0.075611
O9	O	-4.282907	0.207210	0.012575
O10	O	-4.593788	0.210299	-0.240810
O11	O	-4.565861	0.307261	-0.115844
O12	O	-4.310641	0.110915	-0.111532
C13	C	-3.777018	0.213407	-0.278218
C14	C	-3.821560	0.212993	-0.378457
C15	C	-4.023838	0.216291	-0.430158
C16	C	-4.065680	0.215906	-0.524344
C17	C	-3.905239	0.212218	-0.566826
C18	C	-3.702945	0.208921	-0.515119
C19	C	-3.661108	0.209311	-0.420936
C20	C	-3.790158	0.208106	-0.711426
C21	C	-3.831997	0.207715	-0.805615
C22	C	-4.194731	0.214701	-0.814834
C23	C	-4.152894	0.215092	-0.720651
C24	C	-3.950601	0.211794	-0.668950
C25	C	-4.134959	0.087759	-0.115864
C26	C	-4.092149	0.010083	-0.116271
C27	C	-3.898679	-0.022841	-0.120989
C28	C	-3.858459	-0.095826	-0.121377
C29	C	-4.011733	-0.135882	-0.117066
C30	C	-4.205228	-0.102950	-0.112342
C31	C	-4.245436	-0.029968	-0.111945
C32	C	-4.119035	-0.247727	-0.167339
C33	C	-4.078824	-0.320707	-0.167742
C34	C	-3.887722	-0.360984	-0.118287
C35	C	-3.736813	-0.328269	-0.068441
C36	C	-3.777021	-0.255287	-0.068044
C37	C	-3.968153	-0.215019	-0.117495
C38	C	-3.650628	-0.473046	-0.123425
C39	C	-3.610410	-0.546033	-0.123807
C40	C	-3.957191	-0.553154	-0.114782
C41	C	-3.997397	-0.480170	-0.114390
C42	C	-3.844110	-0.440119	-0.118716
C43	C	-3.741640	0.336241	-0.119906
C44	C	-3.763688	0.413916	-0.119494
C45	C	-4.099580	0.210594	0.042446
C46	C	-4.034275	0.211013	0.142684
H47	H	-4.230391	0.218593	-0.566435
Cl48	Cl	-3.535846	0.203963	-0.646432
Cl49	Cl	-4.240644	-0.438776	-0.108478
Cl50	Cl	-4.359299	-0.197101	-0.229512
H51	H	-3.496396	0.206628	-0.378842
H52	H	-4.201704	-0.347336	-0.208333
H53	H	-3.452858	-0.572838	-0.127646
H54	H	-3.773856	0.009764	-0.124510
H55	H	-3.525807	-0.440436	-0.126940
H56	H	-3.700897	-0.122639	-0.125204
Cl57	Cl	-4.149875	-0.603506	-0.109346
H58	H	-3.572316	0.205922	-0.549716
H59	H	-4.330022	-0.135568	-0.108832
Cl60	Cl	-4.354588	0.219712	-0.667242
Cl61	Cl	-3.630303	0.203095	-0.859024
H62	H	-3.654145	-0.228655	-0.027456
Cl63	Cl	-3.496557	-0.378895	-0.006266
H64	H	-4.154491	0.219288	-0.395575
Cl65	Cl	-4.449043	0.218853	-0.879830
H66	H	-4.402985	-0.003162	-0.108104
