data_functionalizedCrystal
_audit_creation_method	'MofGen! by Chris Wilmer'
_symmetry_space_group_name_H-M	'P1'
_symmetry_Int_Tables_number	1
_symmetry_cell_setting	triclinic
loop_
_symmetry_equiv_pos_as_xyz
  x,y,z
_cell_length_a	13.032831
_cell_length_b	16.120484
_cell_length_c	13.032268
_cell_angle_alpha	99.642751
_cell_angle_beta	90.886977
_cell_angle_gamma	86.078521
loop_
_atom_site_label
_atom_site_type_symbol
_atom_site_fract_x
_atom_site_fract_y
_atom_site_fract_z
Zn1	Zn	1.458766	-0.562103	-0.811459
Zn2	Zn	1.792099	-0.228769	-0.478126
Zn3	Zn	2.125432	0.104564	-0.144793
Zn4	Zn	1.471747	-0.686112	-0.646236
Zn5	Zn	1.805080	-0.352779	-0.312902
Zn6	Zn	2.138413	-0.019446	0.020431
Zn7	Zn	1.311081	-0.527333	-0.615806
Zn8	Zn	1.644414	-0.193999	-0.282473
Zn9	Zn	1.977747	0.139334	0.050861
Zn10	Zn	1.278313	-0.681612	-0.796116
Zn11	Zn	1.611646	-0.348279	-0.462782
Zn12	Zn	1.944979	-0.014945	-0.129449
O13	O	1.379976	-0.614290	-0.717404
O14	O	1.713310	-0.280957	-0.384071
O15	O	2.046643	0.052377	-0.050738
O16	O	1.603247	-0.594988	-0.808698
O17	O	1.936581	-0.261654	-0.475365
O18	O	2.269914	0.071679	-0.142032
O19	O	1.469580	-0.652382	-0.497592
O20	O	1.802913	-0.319048	-0.164259
O21	O	2.136247	0.014285	0.169074
O22	O	1.338953	-0.415480	-0.635446
O23	O	1.672286	-0.082147	-0.302113
O24	O	2.005619	0.251186	0.031220
O25	O	1.612784	-0.686097	-0.687309
O26	O	1.946117	-0.352764	-0.353976
O27	O	2.279451	-0.019430	-0.020643
O28	O	1.447456	-0.441026	-0.779192
O29	O	1.780789	-0.107692	-0.445859
O30	O	2.114123	0.225641	-0.112525
O31	O	1.351539	-0.535727	-0.475236
O32	O	1.684873	-0.202394	-0.141902
O33	O	2.018206	0.130939	0.191431
O34	O	1.163974	-0.531364	-0.620568
O35	O	1.497308	-0.198030	-0.287235
O36	O	1.830641	0.135303	0.046098
O37	O	1.283104	-0.678427	-0.942758
O38	O	1.616437	-0.345094	-0.609425
O39	O	1.949771	-0.011760	-0.276091
O40	O	1.139900	-0.644712	-0.753041
O41	O	1.473233	-0.311379	-0.419708
O42	O	1.806567	0.021955	-0.086374
O43	O	1.415682	-0.590624	-0.954031
O44	O	1.749016	-0.257291	-0.620698
O45	O	2.082349	0.076043	-0.287364
O46	O	1.437806	-0.801980	-0.672431
O47	O	1.771139	-0.468647	-0.339098
O48	O	2.104473	-0.135314	-0.005764
O49	O	1.295691	-0.798674	-0.782547
O50	O	1.629024	-0.465341	-0.449214
O51	O	1.962358	-0.132007	-0.115881
C52	C	1.114921	-0.583777	-0.681838
C53	C	1.448254	-0.250444	-0.348505
C54	C	1.781588	0.082890	-0.015172
C55	C	1.001525	-0.570746	-0.666648
C56	C	1.334858	-0.237412	-0.333315
C57	C	1.668191	0.095921	0.000018
C58	C	0.939092	-0.621091	-0.725332
C59	C	1.272425	-0.287758	-0.391998
C60	C	1.605758	0.045575	-0.058665
C61	C	0.821890	-0.607624	-0.709634
C62	C	1.155223	-0.274291	-0.376301
C63	C	1.488557	0.059043	-0.042967
C64	C	1.364626	-0.830530	-0.729153
C65	C	1.697959	-0.497197	-0.395819
C66	C	2.031293	-0.163864	-0.062486
C67	C	1.358148	-0.923053	-0.734226
C68	C	1.691481	-0.589719	-0.400892
C69	C	2.024815	-0.256386	-0.067559
C70	C	1.346324	-1.092455	-0.743510
C71	C	1.679657	-0.759121	-0.410176
C72	C	2.012990	-0.425788	-0.076843
C73	C	1.413810	-1.135307	-0.691340
C74	C	1.747143	-0.801974	-0.358007
C75	C	2.080477	-0.468641	-0.024674
C76	C	1.407231	-1.229569	-0.696506
C77	C	1.740564	-0.896235	-0.363173
C78	C	2.073897	-0.562902	-0.029839
C79	C	1.352901	-0.998185	-0.738345
C80	C	1.686234	-0.664852	-0.405012
C81	C	2.019568	-0.331518	-0.071678
C82	C	1.646067	-0.644923	-0.753110
C83	C	1.979400	-0.311589	-0.419776
C84	C	2.312733	0.021744	-0.086443
C85	C	1.759458	-0.657977	-0.768325
C86	C	2.092792	-0.324643	-0.434992
C87	C	2.426125	0.008690	-0.101659
C88	C	1.344290	-0.637902	-0.986938
C89	C	1.677623	-0.304569	-0.653605
C90	C	2.010957	0.028765	-0.320271
C91	C	1.329082	-0.647964	-1.101797
C92	C	1.662416	-0.314631	-0.768464
C93	C	1.995749	0.018703	-0.435130
C94	C	1.395412	-0.397210	-0.705636
C95	C	1.728745	-0.063877	-0.372303
C96	C	2.062078	0.269456	-0.038970
C97	C	1.401989	-0.304704	-0.700622
C98	C	1.735322	0.028629	-0.367288
C99	C	2.068656	0.361963	-0.033955
C100	C	1.387900	-0.609007	-1.158582
C101	C	1.721233	-0.275673	-0.825249
C102	C	2.054566	0.057660	-0.491916
C103	C	1.372183	-0.619405	-1.277296
C104	C	1.705517	-0.286072	-0.943962
C105	C	2.038850	0.047261	-0.610629
C106	C	1.415587	-0.590717	-0.448924
C107	C	1.748920	-0.257383	-0.115590
C108	C	2.082254	0.075950	0.217743
C109	C	1.431009	-0.580443	-0.334079
C110	C	1.764342	-0.247109	-0.000746
C111	C	2.097675	0.086224	0.332588
H112	H	0.788578	-0.554544	-0.647771
H113	H	1.121912	-0.221211	-0.314438
H114	H	1.455245	0.112122	0.018895
H115	H	1.267086	-0.689009	-1.141066
H116	H	1.600419	-0.355676	-0.807733
H117	H	1.933752	-0.022342	-0.474400
F118	F	1.512052	-0.526791	-1.282764
F119	F	1.845385	-0.193458	-0.949430
F120	F	2.178718	0.139876	-0.616097
F121	F	1.495785	-1.090732	-0.627887
F122	F	1.829119	-0.757399	-0.294554
F123	F	2.162452	-0.424065	0.038779
H124	H	1.449887	-0.567952	-1.119311
H125	H	1.783220	-0.234619	-0.785978
H126	H	2.116553	0.098714	-0.452645
H127	H	0.968208	-0.517670	-0.604790
H128	H	1.301541	-0.184336	-0.271457
H129	H	1.634875	0.148997	0.061877
F130	F	0.802991	-0.727343	-0.849204
F131	F	1.136325	-0.394010	-0.515871
F132	F	1.469658	-0.060677	-0.182537
F133	F	1.264350	-1.137029	-0.806953
F134	F	1.597684	-0.803696	-0.473620
F135	F	1.931017	-0.470362	-0.140287
H136	H	1.310182	-0.660453	-1.316561
H137	H	1.643516	-0.327120	-0.983227
H138	H	1.976849	0.006213	-0.649894
H139	H	0.972408	-0.674162	-0.787198
H140	H	1.305741	-0.340828	-0.453864
H141	H	1.639074	-0.007495	-0.120531
