data_functionalizedCrystal
_audit_creation_method	'MofGen! by Chris Wilmer'
_symmetry_space_group_name_H-M	'P1'
_symmetry_Int_Tables_number	1
_symmetry_cell_setting	triclinic
loop_
_symmetry_equiv_pos_as_xyz
  x,y,z
_cell_length_a	21.295420
_cell_length_b	21.295417
_cell_length_c	21.295412
_cell_angle_alpha	89.968813
_cell_angle_beta	89.983421
_cell_angle_gamma	90.028757
loop_
_atom_site_label
_atom_site_type_symbol
_atom_site_fract_x
_atom_site_fract_y
_atom_site_fract_z
Zn1	Zn	0.962305	-0.250651	-0.355914
Zn2	Zn	0.962222	-0.355920	-0.250639
Zn3	Zn	0.857043	-0.250666	-0.250658
Zn4	Zn	0.856998	-0.355883	-0.355870
O5	O	0.909642	-0.303280	-0.303270
O6	O	1.050383	-0.264625	-0.341959
O7	O	0.948254	-0.341980	-0.162552
O8	O	0.871060	-0.162574	-0.264647
O9	O	1.050323	-0.341966	-0.264614
O10	O	0.948395	-0.162564	-0.341977
O11	O	0.870980	-0.264650	-0.162566
O12	O	0.768948	-0.264614	-0.264605
O13	O	0.870982	-0.341902	-0.443966
O14	O	0.768914	-0.341916	-0.341904
O15	O	0.948351	-0.264589	-0.443997
O16	O	0.948210	-0.444005	-0.264572
O17	O	0.870902	-0.443977	-0.341885
C18	C	0.746090	-0.303263	-0.303252
C19	C	0.676122	-0.303271	-0.303260
C20	C	0.176663	-0.343606	-0.343481
C21	C	0.242406	-0.343606	-0.343474
C22	C	0.275283	-0.303294	-0.303290
C23	C	0.242412	-0.262991	-0.263098
C24	C	0.176671	-0.262996	-0.263102
N25	N	0.378524	-0.248178	-0.298558
N26	N	0.440976	-0.248174	-0.298558
C27	C	0.473358	-0.303277	-0.303277
N28	N	0.440929	-0.358384	-0.308007
N29	N	0.378471	-0.358386	-0.308010
C30	C	0.346568	-0.303284	-0.303282
C31	C	0.577506	-0.343581	-0.343456
C32	C	0.643250	-0.343582	-0.343445
C33	C	0.643255	-0.262962	-0.263072
C34	C	0.577512	-0.262966	-0.263080
C35	C	0.544642	-0.303275	-0.303275
C36	C	0.909559	-0.466832	-0.303236
C37	C	0.909582	-0.536800	-0.303242
C38	C	0.949872	-0.569660	-0.263026
C39	C	0.949901	-0.635402	-0.263040
C40	C	0.909629	-0.668282	-0.303263
C41	C	0.869337	-0.635414	-0.343487
C42	C	0.869313	-0.569673	-0.343476
N43	N	0.854562	-0.771546	-0.308056
N44	N	0.854586	-0.833998	-0.308063
C45	C	0.909700	-0.866357	-0.303299
N46	N	0.964790	-0.833905	-0.298517
N47	N	0.964764	-0.771448	-0.298507
C48	C	0.909651	-0.739568	-0.303280
C49	C	0.950025	-0.970503	-0.263097
C50	C	0.950056	-1.036246	-0.263116
C51	C	0.869486	-1.036257	-0.343559
C52	C	0.869461	-0.970515	-0.343544
C53	C	0.909730	-0.937641	-0.303309
C54	C	1.073832	-0.303298	-0.303289
C55	C	1.143800	-0.303305	-0.303297
C56	C	0.909671	-0.303239	-0.467461
C57	C	0.909683	-0.303222	-0.537429
C58	C	0.909742	-0.139090	-0.303319
C59	C	0.909785	-0.069122	-0.303340
C60	C	0.950029	-0.262865	-1.036905
C61	C	0.950024	-0.262881	-0.971162
C62	C	0.909738	-0.303139	-0.938269
C63	C	0.869465	-0.343397	-0.971123
C64	C	0.869476	-0.343385	-1.036864
N65	N	0.854617	-0.307981	-0.835040
N66	N	0.854608	-0.307989	-0.772588
C67	C	0.909705	-0.303178	-0.740194
N68	N	0.964811	-0.298348	-0.772610
N69	N	0.964818	-0.298337	-0.835067
C70	C	0.909722	-0.303157	-0.866983
C71	C	0.949973	-0.262943	-0.636062
C72	C	0.949969	-0.262963	-0.570318
C73	C	0.869404	-0.343475	-0.570280
C74	C	0.869414	-0.343459	-0.636023
C75	C	0.909697	-0.303189	-0.668909
C76	C	0.909649	-0.303275	-0.139719
C77	C	0.909759	-0.303115	-0.069751
H78	H	0.550742	-0.376403	-0.376184
H79	H	0.982766	-0.230188	-0.543575
O80	O	0.830345	-1.068091	-0.382692
C81	C	0.794763	-1.024986	-0.418172
H82	H	0.820527	-0.978099	-0.420366
H83	H	0.788023	-1.043950	-0.467766
H84	H	0.746966	-1.018054	-0.395074
O85	O	0.989133	-0.223664	-1.068777
C86	C	0.975395	-0.160927	-1.052742
H87	H	0.951184	-0.159634	-1.005009
H88	H	1.020840	-0.132703	-1.050501
H89	H	0.943052	-0.139714	-1.089747
H90	H	0.836650	-0.943758	-0.376288
O91	O	0.830357	-0.382615	-0.538267
C92	C	0.866167	-0.423294	-0.500243
H93	H	0.913883	-0.401098	-0.490407
H94	H	0.840514	-0.431739	-0.454008
H95	H	0.873061	-0.469938	-0.525566
H96	H	0.836503	-0.542918	-0.376225
O97	O	0.675252	-0.223890	-0.224005
C98	C	0.713236	-0.259677	-0.183269
H99	H	0.723073	-0.307408	-0.205384
H100	H	0.759473	-0.234022	-0.174874
H101	H	0.687879	-0.266537	-0.136609
H102	H	0.836619	-0.376232	-0.662766
H103	H	0.149904	-0.376431	-0.376209
O104	O	0.830383	-0.382571	-1.068703
C105	C	0.844115	-0.445315	-1.052632
H106	H	0.868308	-0.446631	-1.004903
H107	H	0.798669	-0.473541	-1.050365
H108	H	0.876472	-0.466511	-1.089631
H109	H	0.836665	-0.376176	-0.944337
H110	H	0.269168	-0.376423	-0.376199
H111	H	0.982817	-0.230102	-0.944413
H112	H	0.982869	-1.063000	-0.230368
O113	O	0.274416	-0.223920	-0.224033
C114	C	0.312404	-0.259707	-0.183302
H115	H	0.322239	-0.307438	-0.205419
H116	H	0.358642	-0.234052	-0.174911
H117	H	0.287051	-0.266568	-0.136640
O118	O	0.144842	-0.223784	-0.224048
C119	C	0.187953	-0.188216	-0.188563
H120	H	0.234827	-0.186066	-0.214345
H121	H	0.168978	-0.138612	-0.181939
H122	H	0.194915	-0.211208	-0.140712
H123	H	0.550755	-0.230147	-0.230360
H124	H	0.670006	-0.376404	-0.376166
O125	O	0.989054	-0.537825	-0.223930
C126	C	1.024612	-0.580932	-0.188427
H127	H	1.026787	-0.627775	-0.214220
H128	H	1.074208	-0.561902	-0.181758
H129	H	1.001594	-0.587974	-0.140597
O130	O	0.989092	-0.667367	-0.224053
C131	C	1.029733	-0.705359	-0.259918
H132	H	1.033612	-0.685508	-0.309495
H133	H	1.078182	-0.706096	-0.237174
H134	H	1.010270	-0.755191	-0.262087
H135	H	0.836548	-0.662189	-0.376238
H136	H	0.982817	-0.943736	-0.230338
H137	H	0.982774	-0.230153	-0.662839
