data_functionalizedCrystal
_audit_creation_method	'MofGen! by Chris Wilmer'
_symmetry_space_group_name_H-M	'P1'
_symmetry_Int_Tables_number	1
_symmetry_cell_setting	triclinic
loop_
_symmetry_equiv_pos_as_xyz
  x,y,z
_cell_length_a	17.639617
_cell_length_b	13.897447
_cell_length_c	17.640968
_cell_angle_alpha	101.230028
_cell_angle_beta	109.666032
_cell_angle_gamma	101.205126
loop_
_atom_site_label
_atom_site_type_symbol
_atom_site_fract_x
_atom_site_fract_y
_atom_site_fract_z
Zn1	Zn	1.354381	0.127585	0.721243
Zn2	Zn	1.326420	-0.074626	0.583402
Zn3	Zn	1.188673	0.045840	0.555515
Zn4	Zn	1.216510	-0.074532	0.693284
O5	O	1.271496	0.006067	0.638361
O6	O	1.466019	0.134933	0.726329
O7	O	1.284797	-0.092896	0.464358
O8	O	1.210707	0.191685	0.577528
O9	O	1.445476	-0.013631	0.625058
O10	O	1.332452	0.251743	0.699288
O11	O	1.183595	-0.004390	0.443870
O12	O	1.077019	-0.004299	0.550418
O13	O	1.258150	-0.013471	0.812337
O14	O	1.097470	-0.092736	0.651637
O15	O	1.359443	0.135024	0.832878
O16	O	1.311788	-0.209615	0.597948
O17	O	1.231037	-0.209546	0.678679
C18	C	1.057336	-0.057378	0.594968
C19	C	0.965722	-0.084538	0.576424
C20	C	0.717937	0.212475	0.779441
C21	C	0.631848	0.186926	0.762000
C22	C	0.610448	0.032386	0.656394
C23	C	0.696538	0.057920	0.673830
C24	C	0.750276	0.147967	0.735353
C25	C	0.728877	-0.006588	0.629742
C26	C	0.814958	0.018947	0.647173
C27	C	0.868701	0.108991	0.708692
C28	C	0.836357	0.173502	0.752785
C29	C	0.675136	-0.096630	0.568214
C30	C	0.707475	-0.161139	0.524127
C31	C	0.793559	-0.135608	0.541562
C32	C	0.847302	-0.045564	0.603081
C33	C	0.825902	-0.200119	0.497469
C34	C	0.911984	-0.174584	0.514901
C35	C	0.933383	-0.020029	0.620512
C36	C	1.271425	-0.244573	0.638328
C37	C	1.271476	-0.351768	0.638357
C38	C	1.271519	-0.438820	0.638384
C39	C	1.271582	-0.548029	0.638417
C40	C	1.486492	0.069759	0.681923
C41	C	1.578111	0.096901	0.700487
C42	C	1.315020	0.069906	0.853351
C43	C	1.333568	0.097110	0.944968
C44	C	1.271593	0.257697	0.638416
C45	C	1.271635	0.364927	0.638440
C46	C	1.228188	-0.057440	0.424216
C47	C	1.209801	-0.084325	0.332633
C48	C	1.130909	-0.199983	1.192815
C49	C	1.148355	-0.174403	1.278906
C50	C	1.253823	-0.019789	1.300283
C51	C	1.236383	-0.045354	1.214192
C52	C	1.174926	-0.135452	1.160464
C53	C	1.280400	0.019177	1.181841
C54	C	1.262965	-0.006388	1.095758
C55	C	1.201512	-0.096485	1.042025
C56	C	1.157491	-0.161018	1.074381
C57	C	1.341861	0.109272	1.235570
C58	C	1.385878	0.173802	1.203220
C59	C	1.368439	0.148241	1.117134
C60	C	1.306986	0.058145	1.063402
C61	C	1.412460	0.212774	1.084778
C62	C	1.395025	0.187209	0.998695
C63	C	1.289551	0.032579	0.977318
H64	H	0.605040	-0.117402	0.554006
Cl65	Cl	0.639911	-0.274334	0.446783
Cl66	Cl	0.758335	-0.313307	0.420120
H67	H	1.303863	0.053567	1.344040
H68	H	1.356056	0.130082	1.305665
H69	H	0.938314	-0.227114	0.479000
H70	H	1.239487	-0.040771	0.933566
Cl71	Cl	0.542885	-0.080808	0.579051
Cl72	Cl	1.463137	0.287063	1.270770
Cl73	Cl	0.903922	0.286699	0.830137
H74	H	0.761695	0.285797	0.829543
H75	H	1.462504	0.286127	1.128537
Cl76	Cl	1.450364	0.268331	0.958022
H77	H	1.187321	-0.117301	0.971932
H78	H	0.605522	0.239467	0.797902
Cl79	Cl	1.080222	-0.274281	1.006830
Cl80	Cl	1.000948	0.093168	0.697865
H81	H	1.112506	-0.226959	1.305241
Cl82	Cl	0.976918	0.141100	0.730601
H83	H	1.080845	-0.273333	1.149063
