data_functionalizedCrystal
_audit_creation_method	'MofGen! by Chris Wilmer'
_symmetry_space_group_name_H-M	'P1'
_symmetry_Int_Tables_number	1
_symmetry_cell_setting	triclinic
loop_
_symmetry_equiv_pos_as_xyz
  x,y,z
_cell_length_a	15.944551
_cell_length_b	16.992695
_cell_length_c	15.455301
_cell_angle_alpha	87.173129
_cell_angle_beta	93.004278
_cell_angle_gamma	92.916520
loop_
_atom_site_label
_atom_site_type_symbol
_atom_site_fract_x
_atom_site_fract_y
_atom_site_fract_z
O1	O	1.124798	-0.104194	0.072217
O2	O	0.881084	-0.116661	0.072201
O3	O	1.001964	0.003715	0.072202
O4	O	1.003919	-0.224571	0.072216
O5	O	0.994977	0.009846	-0.072061
O6	O	0.874097	-0.110531	-0.072063
O7	O	1.117811	-0.098064	-0.072046
Cu8	Cu	0.995316	-0.103738	-0.085227
Cu9	Cu	1.003579	-0.110988	0.085382
O10	O	0.996932	-0.218440	-0.072047
C11	C	0.846262	-0.113079	0.000067
C12	C	0.752911	-0.111527	0.000060
C13	C	1.152634	-0.101647	0.000090
C14	C	1.245984	-0.103199	0.000102
C15	C	0.995957	0.035993	0.000070
C16	C	0.988457	0.123038	0.000070
C17	C	1.466093	-0.181523	0.000087
C18	C	1.528119	-0.148174	0.071213
C19	C	1.416898	-0.106006	0.000090
C20	C	1.521207	-0.142112	-0.071019
C21	C	1.581992	-0.108722	0.000074
C22	C	1.477697	-0.072639	0.071275
C23	C	1.470776	-0.066585	-0.071022
C24	C	1.532781	-0.033182	0.000122
C25	C	1.321791	-0.104443	0.000099
C26	C	1.677098	-0.110279	0.000070
C27	C	1.002939	-0.250718	0.000086
C28	C	1.010439	-0.337763	0.000092
N29	N	0.989511	-0.098638	-0.205223
C30	C	1.060822	0.173274	0.000074
C31	C	1.053770	0.255061	0.000082
C32	C	0.974352	0.286610	0.000079
C33	C	0.901982	0.236367	0.000078
C34	C	0.909035	0.154581	0.000076
C35	C	0.945121	0.530208	0.000089
C36	C	0.938074	0.612000	0.000088
C37	C	1.089863	0.630689	0.000094
C38	C	1.096909	0.548901	0.000087
C39	C	1.024538	0.498665	0.000090
N40	N	0.967142	0.370209	0.000085
N41	N	1.031749	0.415068	0.000091
C42	C	1.041451	-0.144298	-0.250607
C43	C	1.037071	-0.140437	-0.341416
C44	C	0.980747	-0.090918	-0.386839
C45	C	0.928805	-0.045253	-0.341449
C46	C	0.933189	-0.049111	-0.250642
C47	C	0.961833	-0.074274	-0.658424
C48	C	0.957451	-0.070421	-0.749238
C49	C	1.065719	-0.165604	-0.749199
C50	C	1.070095	-0.169461	-0.658390
C51	C	1.018156	-0.123792	-0.613008
N52	N	0.976267	-0.086972	-0.479660
N53	N	1.022641	-0.127735	-0.520188
N54	N	1.009391	-0.116081	0.205378
H55	H	1.553288	-0.182671	0.131347
H56	H	1.458484	-0.043285	0.131476
O57	O	0.824887	0.267100	0.000192
C58	C	0.819878	0.310654	0.074917
H59	H	0.885922	0.329961	0.099830
H60	H	0.787678	0.272298	0.127234
C61	C	0.687576	0.360252	0.021618
C62	C	0.768691	0.383971	0.052212
H63	H	0.655999	0.405475	0.007615
H64	H	0.690948	0.330906	-0.028725
H65	H	0.660753	0.328288	0.065220
H66	H	0.795516	0.415926	0.008606
H67	H	0.765322	0.413324	0.102547
O68	O	0.838652	0.105892	0.000034
C69	C	0.767044	0.151272	0.000054
H70	H	0.782940	0.213473	-0.027260
H71	H	0.746315	0.154154	0.069265
C72	C	0.675827	0.036531	-0.022971
C73	C	0.695349	0.112925	-0.056526
H74	H	0.631600	0.012876	-0.057868
H75	H	0.724070	0.005956	-0.022981
H76	H	0.658558	0.038943	0.034704
H77	H	0.712627	0.110512	-0.114195
H78	H	0.647106	0.143499	-0.056526
H79	H	1.445590	-0.032116	-0.131161
O80	O	0.874111	0.002783	-0.385702
C81	C	0.881345	-0.003627	-0.475584
H82	H	0.908647	-0.062521	-0.487961
H83	H	0.924659	0.046596	-0.501391
C84	C	0.760325	0.073418	-0.506983
C85	C	0.793851	0.001081	-0.522185
H86	H	0.706355	0.076326	-0.535730
H87	H	0.755452	0.077740	-0.446428
H88	H	0.796428	0.115263	-0.528489
H89	H	0.757753	-0.040762	-0.500670
H90	H	0.798715	-0.003248	-0.582738
O91	O	1.096237	-0.192417	-0.206622
C92	C	1.141127	-0.231903	-0.266156
H93	H	1.140726	-0.196695	-0.330888
H94	H	1.110185	-0.293020	-0.275817
C95	C	1.232994	-0.283281	-0.151192
C96	C	1.232507	-0.240034	-0.230694
H97	H	1.289361	-0.288300	-0.129317
H98	H	1.202750	-0.256681	-0.111081
H99	H	1.207205	-0.334208	-0.159253
H100	H	1.258286	-0.189106	-0.222630
H101	H	1.262758	-0.266625	-0.270803
H102	H	0.919541	-0.037086	-0.621485
H103	H	0.890893	-0.011930	-0.213691
O104	O	0.902826	-0.022197	-0.793322
C105	C	0.921824	0.056435	-0.771124
H106	H	0.990259	0.062912	-0.746149
H107	H	0.879116	0.072428	-0.718427
C108	C	0.823771	0.104018	-0.882476
C109	C	0.907826	0.111975	-0.851808
H110	H	0.815133	0.138279	-0.932244
H111	H	0.810969	0.051042	-0.897429
H112	H	0.788191	0.117345	-0.838554
H113	H	0.943403	0.098639	-0.895726
H114	H	0.920634	0.164950	-0.836864
H115	H	1.436995	-0.244209	0.000162
H116	H	1.561728	0.029556	0.000154
O117	O	1.174084	0.518292	0.000243
C118	C	1.222161	0.540800	0.074948
H119	H	1.178349	0.555586	0.127172
H120	H	1.264566	0.594822	0.058059
C121	C	1.330388	0.454274	0.044678
C122	C	1.276578	0.472428	0.108823
H123	H	1.363958	0.412101	0.065573
H124	H	1.298000	0.439112	-0.005654
H125	H	1.365718	0.499298	0.030609
H126	H	1.241242	0.427408	0.122883
H127	H	1.308962	0.487581	0.159159
O128	O	1.544145	-0.177286	-0.142733
C129	C	1.510008	-0.255481	-0.142442
H130	H	1.452879	-0.261009	-0.100799
H131	H	1.559333	-0.297327	-0.114679
C132	C	1.553428	-0.270114	-0.287029
C133	C	1.483257	-0.276902	-0.235887
H134	H	1.536930	-0.283329	-0.344670
H135	H	1.576430	-0.217433	-0.287224
H136	H	1.594526	-0.304986	-0.263882
H137	H	1.442166	-0.242023	-0.259028
H138	H	1.460248	-0.329577	-0.235698
O139	O	1.138036	0.142760	0.000117
C140	C	1.200393	0.204643	0.000104
H141	H	1.174436	0.259039	0.027413
H142	H	1.219629	0.219160	-0.069104
C143	C	1.309466	0.112338	0.023146
C144	C	1.277588	0.179147	0.056694
H145	H	1.357086	0.096611	0.058050
H146	H	1.267456	0.070646	0.023152
H147	H	1.325490	0.124445	-0.034526
H148	H	1.261555	0.167037	0.114361
H149	H	1.319598	0.220837	0.056700
O150	O	1.160076	0.679598	0.000137
C151	C	1.136825	0.758550	0.000116
H152	H	1.071961	0.760528	0.027422
H153	H	1.135072	0.785149	-0.069093
C154	C	1.281085	0.803764	0.023162
C155	C	1.201420	0.806193	0.056706
H156	H	1.320932	0.833153	0.058065
H157	H	1.296751	0.750572	0.023172
H158	H	1.279613	0.825928	-0.034512
H159	H	1.202891	0.784020	0.114374
H160	H	1.185757	0.859382	0.056706
O161	O	0.860861	0.642515	0.000134
C162	C	0.798495	0.580640	0.000119
H163	H	0.827093	0.523916	0.027428
H164	H	0.772546	0.572014	-0.069090
C165	C	0.691668	0.670996	0.023159
C166	C	0.726791	0.601329	0.056708
H167	H	0.647435	0.683759	0.058062
H168	H	0.733684	0.712684	0.023166
H169	H	0.670050	0.663799	-0.034514
H170	H	0.748417	0.608530	0.114375
H171	H	0.684777	0.559643	0.056712
H172	H	1.079368	-0.177617	-0.378364
O173	O	1.124886	-0.217574	-0.614403
C174	C	1.169778	-0.257062	-0.673934
H175	H	1.169378	-0.221857	-0.738668
H176	H	1.138838	-0.318180	-0.683592
C177	C	1.261644	-0.308433	-0.558964
C178	C	1.261158	-0.265190	-0.638469
H179	H	1.318010	-0.313451	-0.537087
H180	H	1.231398	-0.281832	-0.518856
H181	H	1.235856	-0.359361	-0.567023
H182	H	1.286936	-0.214261	-0.630407
H183	H	1.291411	-0.291783	-0.678575
H184	H	1.108005	-0.202784	-0.786159
H185	H	1.112698	0.295961	0.000083
H186	H	0.886192	0.489316	0.000092
