data_functionalizedCrystal
_audit_creation_method	'MofGen! by Chris Wilmer'
_symmetry_space_group_name_H-M	'P1'
_symmetry_Int_Tables_number	1
_symmetry_cell_setting	triclinic
loop_
_symmetry_equiv_pos_as_xyz
  x,y,z
_cell_length_a	16.625546
_cell_length_b	12.759393
_cell_length_c	12.759401
_cell_angle_alpha	90.020938
_cell_angle_beta	89.976007
_cell_angle_gamma	89.964881
loop_
_atom_site_label
_atom_site_type_symbol
_atom_site_fract_x
_atom_site_fract_y
_atom_site_fract_z
Zn1	Zn	-0.320930	-0.593986	-1.606210
Zn2	Zn	0.179070	-0.093986	-1.106210
Zn3	Zn	-0.455784	-0.418292	-1.606077
Zn4	Zn	0.044216	0.081708	-1.106077
Zn5	Zn	-0.320973	-0.418322	-1.430508
Zn6	Zn	0.179027	0.081678	-0.930508
Zn7	Zn	-0.455728	-0.593930	-1.430476
Zn8	Zn	0.044272	-0.093930	-0.930476
O9	O	-0.388354	-0.506132	-1.518318
O10	O	0.111646	-0.006132	-1.018318
O11	O	-0.338824	-0.570692	-1.753213
O12	O	0.161176	-0.070692	-1.253213
O13	O	-0.437943	-0.271275	-1.582745
O14	O	0.062057	0.228725	-1.082745
O15	O	-0.208135	-0.441660	-1.453884
O16	O	0.291865	0.058340	-0.953884
O17	O	-0.437901	-0.441610	-1.753116
O18	O	0.062099	0.058390	-1.253116
O19	O	-0.208103	-0.570720	-1.582971
O20	O	0.291897	-0.070720	-1.082971
O21	O	-0.338897	-0.271297	-1.453756
O22	O	0.161103	0.228703	-0.953756
O23	O	-0.338843	-0.441605	-1.283483
O24	O	0.161157	0.058395	-0.783483
O25	O	-0.437805	-0.740958	-1.453830
O26	O	0.062195	-0.240958	-0.953830
O27	O	-0.437847	-0.570623	-1.283460
O28	O	0.062153	-0.070623	-0.783460
O29	O	-0.338770	-0.741000	-1.582940
O30	O	0.161230	-0.241000	-1.082940
O31	O	-0.568609	-0.441555	-1.582714
O32	O	-0.068609	0.058445	-1.082714
O33	O	-0.568568	-0.570595	-1.453701
O34	O	-0.068568	-0.070595	-0.953701
C35	C	-0.388344	-0.506112	-1.245350
C36	C	0.111656	-0.006112	-0.745350
C37	C	-0.388359	-0.506128	-1.128574
C38	C	0.111641	-0.006128	-0.628574
C39	C	-0.597844	-0.506088	-1.518218
C40	C	-0.097844	-0.006088	-1.018218
C41	C	-0.687466	-0.506105	-1.518272
C42	C	-0.187466	-0.006105	-1.018272
C43	C	-0.388276	-0.780166	-1.518396
C44	C	0.111724	-0.280166	-1.018396
C45	C	-0.388243	-0.896943	-1.518430
C46	C	0.111757	-0.396943	-1.018430
C47	C	-1.015641	-0.506214	-1.518455
C48	C	-0.515641	-0.006214	-1.018455
C49	C	-0.924333	-0.506187	-1.518401
C50	C	-0.424333	-0.006187	-1.018401
C51	C	-0.851556	-0.506159	-1.518363
C52	C	-0.351556	-0.006159	-1.018363
C53	C	-0.760242	-0.506132	-1.518310
C54	C	-0.260242	-0.006132	-1.018310
C55	C	-0.178045	-0.506200	-1.518446
C56	C	0.321955	-0.006200	-1.018446
C57	C	-0.088424	-0.506228	-1.518501
C58	C	0.411576	-0.006228	-1.018501
C59	C	-0.336667	-0.951828	-1.585663
C60	C	0.163333	-0.451828	-1.085663
C61	C	-0.336632	-1.061552	-1.585681
C62	C	0.163368	-0.561552	-1.085681
C63	C	-0.439757	-1.061496	-1.451230
C64	C	0.060243	-0.561496	-0.951230
C65	C	-0.439787	-0.951774	-1.451208
C66	C	0.060213	-0.451774	-0.951208
C67	C	-0.388372	-0.233165	-1.518300
C68	C	0.111628	0.266835	-1.018300
C69	C	-0.388178	-0.116389	-1.518470
C70	C	0.111822	0.383611	-1.018470
C71	C	-0.388364	-0.506154	-1.792351
C72	C	0.111636	-0.006154	-1.292351
C73	C	-0.388369	-0.506163	-1.909128
C74	C	0.111631	-0.006163	-1.409128
C75	C	-0.439989	-0.573202	-1.073727
C76	C	0.060011	-0.073202	-0.573727
C77	C	-0.439992	-0.573223	-0.964003
C78	C	0.060008	-0.073223	-0.464003
C79	C	-0.336733	-0.439086	-0.963982
C80	C	0.163267	0.060914	-0.463982
C81	C	-0.336726	-0.439071	-1.073704
C82	C	0.163274	0.060929	-0.573704
H83	H	-0.294695	-0.907188	-1.640397
H84	H	0.205305	-0.407188	-1.140397
O85	O	-0.286657	-0.373759	-1.126942
O86	O	0.213343	0.126241	-0.626942
C87	C	-0.304168	-0.269009	-1.100056
C88	C	0.195832	0.230991	-0.600056
H89	H	-0.368578	-0.263552	-1.069860
H90	H	0.131422	0.236448	-0.569860
H91	H	-0.260916	-0.241654	-1.036376
H92	H	0.239084	0.258346	-0.536376
C93	C	-0.215606	-0.205608	-1.234586
C94	C	0.284394	0.294392	-0.734586
C95	C	-0.294718	-0.198905	-1.197507
C96	C	0.205282	0.301095	-0.697507
H97	H	-0.209774	-0.162362	-1.294696
H98	H	0.290226	0.337638	-0.794696
H99	H	-0.203806	-0.276180	-1.252698
H100	H	0.296194	0.223820	-0.752698
H101	H	-0.179571	-0.182814	-1.181510
H102	H	0.320429	0.317186	-0.681510
H103	H	-0.330750	-0.221710	-1.250578
H104	H	0.169250	0.278290	-0.750578
H105	H	-0.306524	-0.128334	-1.179406
H106	H	0.193476	0.371666	-0.679406
O107	O	-0.286508	-1.114705	-1.651092
O108	O	0.213492	-0.614705	-1.151092
C109	C	-0.241009	-1.042777	-1.710395
C110	C	0.258991	-0.542777	-1.210395
H111	H	-0.274059	-0.964555	-1.713995
H112	H	0.225941	-0.464555	-1.213995
H113	H	-0.179771	-1.031117	-1.671961
H114	H	0.320229	-0.531117	-1.171961
C115	C	-0.188790	-1.181695	-1.817807
C116	C	0.311210	-0.681695	-1.317807
C117	C	-0.229387	-1.085624	-1.822236
C118	C	0.270613	-0.585624	-1.322236
H119	H	-0.181617	-1.208126	-1.886794
H120	H	0.318383	-0.708126	-1.386794
H121	H	-0.219441	-1.230156	-1.777851
H122	H	0.280559	-0.730156	-1.277851
H123	H	-0.137763	-1.171966	-1.785774
H124	H	0.362237	-0.671966	-1.285774
H125	H	-0.280416	-1.095357	-1.854256
H126	H	0.219584	-0.595357	-1.354256
H127	H	-0.198744	-1.037166	-1.862200
H128	H	0.301256	-0.537166	-1.362200
H129	H	-0.481723	-1.106153	-1.396502
H130	H	0.018277	-0.606153	-0.896502
H131	H	-0.481785	-0.907085	-1.396451
H132	H	0.018215	-0.407085	-0.896451
H133	H	-0.482029	-0.627806	-1.118399
H134	H	0.017971	-0.127806	-0.618399
H135	H	-0.482033	-0.627843	-0.919352
H136	H	0.017967	-0.127843	-0.419352
H137	H	-0.294697	-0.384490	-0.919294
H138	H	0.205303	0.115510	-0.419294
