data_functionalizedCrystal
_audit_creation_method	'MofGen! by Chris Wilmer'
_symmetry_space_group_name_H-M	'P1'
_symmetry_Int_Tables_number	1
_symmetry_cell_setting	triclinic
loop_
_symmetry_equiv_pos_as_xyz
  x,y,z
_cell_length_a	8.597340
_cell_length_b	27.732025
_cell_length_c	7.681481
_cell_angle_alpha	84.320682
_cell_angle_beta	103.474906
_cell_angle_gamma	83.991195
loop_
_atom_site_label
_atom_site_type_symbol
_atom_site_fract_x
_atom_site_fract_y
_atom_site_fract_z
O1	O	2.098188	0.066845	0.171966
O2	O	1.633936	0.074546	0.101534
O3	O	1.880494	0.000332	0.138886
O4	O	1.851631	0.141059	0.134614
O5	O	1.910842	-0.008823	0.436341
O6	O	1.664284	0.065391	0.398989
O7	O	2.128536	0.057689	0.469421
Zn8	Zn	1.901228	0.060087	0.481433
Zn9	Zn	1.861244	0.072149	0.089522
O10	O	1.881978	0.131903	0.432069
C11	C	1.589735	0.069651	0.241253
C12	C	1.412814	0.068701	0.214408
C13	C	1.895066	-0.022254	0.287505
C14	C	1.893252	-0.075912	0.287177
C15	C	1.863871	-0.454119	0.123189
C16	C	1.870633	-0.252442	0.124158
O17	O	1.857503	-0.222128	-0.013600
N18	N	1.888021	-0.232209	0.286425
C19	C	1.903730	-0.262400	0.448462
O20	O	1.918692	-0.240564	0.586504
C21	C	1.896980	-0.464076	0.447493
C22	C	1.879574	-0.484305	0.285213
C23	C	1.846469	-0.474348	-0.039077
C24	C	1.844770	-0.524764	-0.039319
C25	C	1.860473	-0.554950	0.122705
C26	C	1.877875	-0.534720	0.284971
C27	C	1.912700	-0.494265	0.609530
C28	C	1.911015	-0.544687	0.609274
C29	C	1.893610	-0.564916	0.446994
C30	C	1.891880	-0.615322	0.446753
N31	N	1.874491	-0.635555	0.284487
C32	C	1.858788	-0.605369	0.122463
C33	C	1.907270	-0.156516	0.448959
C34	C	1.908955	-0.106098	0.449201
C35	C	1.875861	-0.096144	0.124897
C36	C	1.874165	-0.146563	0.124655
C37	C	1.889882	-0.176749	0.286692
C38	C	1.855220	-0.711246	0.121967
C39	C	1.853516	-0.761667	0.121738
C40	C	1.886619	-0.771616	0.446042
C41	C	1.888315	-0.721200	0.446271
C42	C	1.872619	-0.691016	0.284219
O43	O	1.905020	-0.645666	0.584442
O44	O	1.843864	-0.627216	-0.015554
C45	C	1.865570	-0.403703	0.123431
C46	C	1.882972	-0.383473	0.285697
C47	C	1.898676	-0.413659	0.447721
C48	C	1.884657	-0.333054	0.285939
C49	C	1.868954	-0.302868	0.123915
C50	C	1.851566	-0.323101	-0.038351
C51	C	1.849867	-0.373517	-0.038593
C52	C	1.916064	-0.393426	0.609987
C53	C	1.917759	-0.343010	0.610216
C54	C	1.902056	-0.312824	0.448192
C55	C	2.172738	0.062584	0.329699
C56	C	2.349657	0.063535	0.356531
C57	C	1.867406	0.154489	0.283447
C58	C	1.869219	0.208147	0.283762
N59	N	1.928528	0.051854	0.748903
N60	N	1.833957	0.080378	-0.177946
H61	H	1.430938	0.059836	0.498752
Br62	Br	1.833919	-0.670290	-0.097962
H63	H	1.331526	0.072397	0.072179
Br64	Br	1.932532	-0.078648	0.669439
H65	H	1.926890	-0.477804	0.741678
Br66	Br	1.673051	0.128906	0.672349
H67	H	1.859988	-0.163030	-0.007488
H68	H	1.839336	-0.778134	-0.010416
H69	H	1.838768	-0.298514	-0.170279
Br70	Br	1.821164	-0.552210	-0.259565
H71	H	1.833686	-0.449776	-0.171023
H72	H	1.931919	-0.326544	0.742371
Br73	Br	1.854519	-0.055166	-0.094996
H74	H	1.920071	-0.181090	0.580917
H75	H	2.025085	0.022741	0.838736
Br76	Br	1.937376	-0.434386	0.829900
Br77	Br	1.932359	-0.585652	0.829196
H78	H	1.899398	-0.796203	0.577957
Br79	Br	1.911931	-0.693745	0.666507
Br80	Br	1.826244	-0.400962	-0.258841
