data_functionalizedCrystal
_audit_creation_method	'MofGen! by Chris Wilmer'
_symmetry_space_group_name_H-M	'P1'
_symmetry_Int_Tables_number	1
_symmetry_cell_setting	triclinic
loop_
_symmetry_equiv_pos_as_xyz
  x,y,z
_cell_length_a	18.101398
_cell_length_b	21.295417
_cell_length_c	21.295411
_cell_angle_alpha	89.979403
_cell_angle_beta	89.970135
_cell_angle_gamma	90.024968
loop_
_atom_site_label
_atom_site_type_symbol
_atom_site_fract_x
_atom_site_fract_y
_atom_site_fract_z
Zn1	Zn	1.132169	-0.250760	-0.356005
Zn2	Zn	1.632169	0.249240	0.143995
Zn3	Zn	1.132056	-0.356012	-0.250732
Zn4	Zn	1.632056	0.143988	0.249268
Zn5	Zn	1.008316	-0.250752	-0.250740
Zn6	Zn	1.508316	0.249248	0.249260
Zn7	Zn	1.008281	-0.355987	-0.355954
Zn8	Zn	1.508281	0.144013	0.144046
O9	O	1.070205	-0.303378	-0.303358
O10	O	1.570205	0.196622	0.196642
O11	O	1.235787	-0.264736	-0.342058
O12	O	1.735787	0.235264	0.157942
O13	O	1.115608	-0.342056	-0.162644
O14	O	1.615608	0.157944	0.337356
O15	O	1.024807	-0.162664	-0.264729
O16	O	1.524807	0.337336	0.235271
O17	O	1.235704	-0.342064	-0.264715
O18	O	1.735704	0.157936	0.235285
O19	O	1.115801	-0.162670	-0.342066
O20	O	1.615801	0.337330	0.157934
O21	O	1.024697	-0.264722	-0.162650
O22	O	1.524697	0.235278	0.337350
O23	O	0.904678	-0.264698	-0.264679
O24	O	1.404678	0.235302	0.235321
O25	O	1.024748	-0.342021	-0.444050
O26	O	1.524748	0.157979	0.055950
O27	O	0.904653	-0.342013	-0.341980
O28	O	1.404653	0.157987	0.158020
O29	O	1.115768	-0.264712	-0.444088
O30	O	1.615768	0.235288	0.055912
O31	O	1.115575	-0.444098	-0.264666
O32	O	1.615575	0.055902	0.235334
O33	O	1.024639	-0.444080	-0.341972
O34	O	1.524639	0.055920	0.158028
C35	C	0.877795	-0.303352	-0.303325
C36	C	1.377795	0.196648	0.196675
C37	C	0.795481	-0.303357	-0.303326
C38	C	1.295481	0.196643	0.196674
C39	C	0.496390	-0.303396	-0.303379
C40	C	0.996390	0.196604	0.196621
C41	C	0.527706	-0.254508	-0.254981
C42	C	1.027706	0.245492	0.245019
C43	C	0.613324	-0.254639	-0.254774
C44	C	1.113324	0.245361	0.245226
C45	C	0.644772	-0.303376	-0.303353
C46	C	1.144772	0.196624	0.196647
C47	C	0.613654	-0.369683	-0.285223
C48	C	1.113654	0.130317	0.214777
C49	C	0.528009	-0.369412	-0.284886
C50	C	1.028009	0.130588	0.215114
C51	C	0.528011	-0.286553	-0.370020
C52	C	1.028011	0.213447	0.129980
C53	C	0.613662	-0.285076	-0.369657
C54	C	1.113662	0.214924	0.130343
C55	C	0.728632	-0.303369	-0.303339
C56	C	1.228632	0.196631	0.196661
C57	C	0.412530	-0.303408	-0.303391
C58	C	0.912530	0.196592	0.196609
C59	C	1.070111	-0.466930	-0.303326
C60	C	1.570111	0.033070	0.196674
C61	C	1.070138	-0.536898	-0.303334
C62	C	1.570138	-0.036898	0.196666
C63	C	1.117492	-0.569710	-0.343632
C64	C	1.617492	-0.069710	0.156368
C65	C	1.117518	-0.635453	-0.343648
C66	C	1.617518	-0.135453	0.156352
C67	C	1.070198	-0.668380	-0.303353
C68	C	1.570198	-0.168380	0.196647
C69	C	1.022836	-0.635560	-0.263052
C70	C	1.522836	-0.135560	0.236948
C71	C	1.022806	-0.569818	-0.263042
C72	C	1.522806	-0.069818	0.236958
N73	N	1.064599	-0.771632	-0.248262
N74	N	1.564599	-0.271632	0.251738
N75	N	1.064632	-0.834084	-0.248273
N76	N	1.564632	-0.334084	0.251727
C77	C	1.070285	-0.866455	-0.303382
C78	C	1.570285	-0.366455	0.196618
N79	N	1.075918	-0.834015	-0.358480
N80	N	1.575918	-0.334015	0.141520
N81	N	1.075889	-0.771558	-0.358468
N82	N	1.575889	-0.271558	0.141532
C83	C	1.070225	-0.739666	-0.303360
C84	C	1.570225	-0.239666	0.196640
C85	C	1.117669	-0.970553	-0.343701
C86	C	1.617669	-0.470553	0.156299
C87	C	1.117690	-1.036297	-0.343717
C88	C	1.617690	-0.536297	0.156283
C89	C	1.023012	-1.036402	-0.263116
C90	C	1.523012	-0.536402	0.236884
C91	C	1.022987	-0.970660	-0.263105
C92	C	1.522987	-0.470660	0.236895
C93	C	1.070320	-0.937739	-0.303396
C94	C	1.570320	-0.437739	0.196604
C95	C	1.263367	-0.303404	-0.303391
C96	C	1.763367	0.196596	0.196609
C97	C	1.345681	-0.303415	-0.303406
C98	C	1.845681	0.196585	0.196594
C99	C	1.070267	-0.303365	-0.467548
C100	C	1.570267	0.196635	0.032452
C101	C	1.070293	-0.303359	-0.537516
C102	C	1.570293	0.196641	-0.037516
C103	C	1.070320	-0.139188	-0.303404
C104	C	1.570320	0.360812	0.196596
C105	C	1.070369	-0.069220	-0.303423
C106	C	1.570369	0.430780	0.196577
C107	C	1.117685	-0.263102	-0.570404
C108	C	1.617685	0.236898	-0.070404
C109	C	1.117684	-0.263075	-0.636146
C110	C	1.617684	0.236925	-0.136146
C111	C	1.070299	-0.303316	-0.668999
C112	C	1.570299	0.196684	-0.168999
C113	C	1.022898	-0.343575	-0.636104
C114	C	1.522898	0.156425	-0.136104
C115	C	1.022895	-0.343597	-0.570363
C116	C	1.522895	0.156403	-0.070363
N117	N	1.064586	-0.358383	-0.772215
N118	N	1.564586	0.141617	-0.272215
N119	N	1.064593	-0.358361	-0.834666
N120	N	1.564593	0.141639	-0.334666
C121	C	1.070303	-0.303252	-0.867074
C122	C	1.570303	0.196748	-0.367074
N123	N	1.076021	-0.248165	-0.834671
N124	N	1.576021	0.251835	-0.334671
N125	N	1.076018	-0.248188	-0.772213
N126	N	1.576018	0.251812	-0.272213
C127	C	1.070296	-0.303296	-0.740284
C128	C	1.570296	0.196704	-0.240284
C129	C	1.117697	-0.262962	-0.971247
C130	C	1.617697	0.237038	-0.471247
C131	C	1.117690	-0.262934	-1.036990
C132	C	1.617690	0.237066	-0.536990
C133	C	1.022908	-0.343440	-1.036947
C134	C	1.522908	0.156560	-0.536947
C135	C	1.022911	-0.343462	-0.971205
C136	C	1.522911	0.156538	-0.471205
C137	C	1.070309	-0.303224	-0.938358
C138	C	1.570309	0.196776	-0.438358
C139	C	1.070187	-0.303346	-0.139806
C140	C	1.570187	0.196654	0.360194
C141	C	1.070304	-0.303174	-0.069839
C142	C	1.570304	0.196826	0.430161
H143	H	0.634006	-0.236281	-0.383327
H144	H	1.134006	0.263719	0.116673
Cl145	Cl	1.177252	-0.212450	-0.677499
Cl146	Cl	1.677252	0.287550	-0.177499
Cl147	Cl	0.496744	-0.341527	-0.425696
Cl148	Cl	0.996744	0.158473	0.074304
H149	H	1.156287	-0.230194	-0.944502
H150	H	1.656287	0.269806	-0.444502
Cl151	Cl	1.177217	-1.077548	-0.394391
Cl152	Cl	1.677217	-0.577548	0.105609
H153	H	0.635073	-0.318090	-0.407650
H154	H	1.135073	0.181910	0.092350
H155	H	0.984244	-0.543102	-0.230226
H156	H	1.484244	-0.043102	0.269774
Cl157	Cl	0.496020	-0.427555	-0.336931
Cl158	Cl	0.996020	0.072445	0.163069
H159	H	1.156031	-0.542908	-0.376441
H160	H	1.656031	-0.042908	0.123559
Cl161	Cl	1.177267	-0.212514	-0.529114
Cl162	Cl	1.677267	0.287486	-0.029114
H163	H	0.984306	-0.662373	-0.230246
H164	H	1.484306	-0.162373	0.269754
H165	H	0.634023	-0.407084	-0.319370
H166	H	1.134023	0.092916	0.180630
H167	H	1.156073	-0.662174	-0.376471
H168	H	1.656073	-0.162174	0.123529
H169	H	0.984319	-0.376198	-1.063695
H170	H	1.484319	0.123802	-0.563695
Cl171	Cl	0.963325	-0.394161	-0.677404
Cl172	Cl	1.463325	0.105839	-0.177404
H173	H	1.156208	-0.943748	-0.376510
H174	H	1.656208	-0.443748	0.123490
H175	H	0.984478	-1.063211	-0.230312
H176	H	1.484478	-0.563211	0.269688
Cl177	Cl	1.177286	-0.212330	-1.078335
Cl178	Cl	1.677286	0.287670	-0.578335
Cl179	Cl	0.963453	-0.929407	-0.212441
Cl180	Cl	1.463453	-0.429407	0.287559
Cl181	Cl	0.644900	-0.271826	-0.178534
Cl182	Cl	1.144900	0.228174	0.321466
Cl183	Cl	0.963332	-0.394077	-0.929858
Cl184	Cl	1.463332	0.105923	-0.429858
H185	H	0.507992	-0.383697	-0.236168
H186	H	1.007992	0.116303	0.263832
Cl187	Cl	0.645812	-0.178723	-0.272318
Cl188	Cl	1.145812	0.321277	0.227682
H189	H	0.984299	-0.376378	-0.543586
H190	H	1.484299	0.123622	-0.043586
H191	H	0.507136	-0.205188	-0.266220
H192	H	1.007136	0.294812	0.233780
H193	H	0.506151	-0.265516	-0.205888
H194	H	1.006151	0.234484	0.294112
H195	H	0.506440	-0.239044	-0.386503
H196	H	1.006440	0.260956	0.113497
Cl197	Cl	0.646704	-0.392124	-0.210817
Cl198	Cl	1.146704	0.107876	0.289183
