data_functionalizedCrystal
_audit_creation_method	'MofGen! by Chris Wilmer'
_symmetry_space_group_name_H-M	'P1'
_symmetry_Int_Tables_number	1
_symmetry_cell_setting	triclinic
loop_
_symmetry_equiv_pos_as_xyz
  x,y,z
_cell_length_a	14.044220
_cell_length_b	10.654550
_cell_length_c	9.130313
_cell_angle_alpha	89.996938
_cell_angle_beta	90.001517
_cell_angle_gamma	91.163110
loop_
_atom_site_label
_atom_site_type_symbol
_atom_site_fract_x
_atom_site_fract_y
_atom_site_fract_z
O1	O	1.259695	-0.302985	0.121789
O2	O	0.983654	-0.292052	0.121793
O3	O	1.128021	-0.115417	0.121785
O4	O	1.115328	-0.479620	0.121796
O5	O	1.128015	-0.115412	-0.121813
O6	O	0.983648	-0.292046	-0.121806
O7	O	1.259689	-0.302980	-0.121810
Cu8	Cu	1.121668	-0.297513	-0.144050
Cu9	Cu	1.121675	-0.297519	0.144033
O10	O	1.115322	-0.479615	-0.121802
C11	C	0.948305	-0.287263	-0.000006
C12	C	0.842986	-0.272988	-0.000004
C13	C	1.295038	-0.307769	-0.000008
C14	C	1.400358	-0.322044	0.000000
C15	C	1.127086	-0.068523	-0.000012
C16	C	1.124298	0.071201	-0.000007
C17	C	1.593191	-0.348143	-0.000000
C18	C	1.650158	-0.246895	-0.000004
C19	C	1.757457	-0.261416	-0.000004
C20	C	1.485882	-0.333623	0.000000
C21	C	1.116257	-0.526509	-0.000001
C22	C	1.119045	-0.666233	0.000003
N23	N	1.121670	-0.297508	-0.346673
C24	C	1.209299	0.142145	-0.000013
C25	C	1.206673	0.273429	-0.000002
C26	C	1.034038	0.262814	0.000013
C27	C	1.036664	0.131532	0.000013
C28	C	1.308969	0.148274	-0.000028
C29	C	1.306343	0.279559	-0.000018
C30	C	1.063650	-0.214794	-0.423350
C31	C	1.063652	-0.214800	-0.576687
C32	C	1.179703	-0.380238	-0.576656
C33	C	1.179695	-0.380237	-0.423322
C34	C	0.996652	-0.119276	-0.423369
C35	C	0.996654	-0.119282	-0.576706
N36	N	1.121680	-0.297515	0.346656
H37	H	1.618346	-0.149307	0.000100
H38	H	1.340705	0.109460	-0.105210
H39	H	1.625001	-0.445722	0.000004
H40	H	0.921836	-0.142625	-0.381768
H41	H	1.026509	-0.027715	-0.375811
H42	H	1.226943	-0.447595	-0.639082
H43	H	0.925214	-0.151568	-0.624270
H44	H	0.967448	0.073774	0.000038
H45	H	0.962689	0.311952	0.000031
H46	H	1.347956	0.114996	0.101910
H47	H	1.336467	0.322172	0.105161
H48	H	1.226933	-0.447601	-0.360897
H49	H	1.343895	0.317548	-0.101962
H50	H	1.020013	-0.022588	-0.618326
