data_functionalizedCrystal
_audit_creation_method	'MofGen! by Chris Wilmer'
_symmetry_space_group_name_H-M	'P1'
_symmetry_Int_Tables_number	1
_symmetry_cell_setting	triclinic
loop_
_symmetry_equiv_pos_as_xyz
  x,y,z
_cell_length_a	9.065218
_cell_length_b	9.065218
_cell_length_c	22.610064
_cell_angle_alpha	90.003700
_cell_angle_beta	90.015297
_cell_angle_gamma	94.984115
loop_
_atom_site_label
_atom_site_type_symbol
_atom_site_fract_x
_atom_site_fract_y
_atom_site_fract_z
O1	O	1.960424	-0.216341	0.049198
O2	O	1.531139	-0.234087	0.049196
O3	O	1.754654	-0.010572	0.049196
O4	O	1.736908	-0.439856	0.049198
O5	O	1.754591	-0.010596	-0.049173
O6	O	1.531075	-0.234112	-0.049173
O7	O	1.960360	-0.216366	-0.049171
Zn8	Zn	1.745707	-0.225243	-0.064790
Zn9	Zn	1.745791	-0.225210	0.064815
O10	O	1.736844	-0.439881	-0.049171
C11	C	1.476120	-0.232394	0.000011
C12	C	1.312277	-0.227294	0.000010
N13	N	1.745661	-0.225264	-0.153243
C14	C	1.752917	0.044403	0.000012
C15	C	1.747817	0.208245	0.000015
C16	C	2.015378	-0.218059	0.000016
C17	C	2.179221	-0.223158	0.000020
C18	C	1.738582	-0.494855	0.000014
C19	C	1.743681	-0.658698	0.000015
C20	C	1.655070	-0.134458	-0.438085
C21	C	1.655056	-0.134465	-0.376165
O22	O	1.577972	-0.057262	-0.344142
N23	N	1.745722	-0.225218	-0.345195
C24	C	1.836418	-0.315959	-0.376148
O25	O	1.913536	-0.393152	-0.344120
C26	C	1.836439	-0.315944	-0.438067
C27	C	1.745756	-0.225195	-0.469034
C28	C	1.564396	-0.043716	-0.469052
C29	C	1.564409	-0.043711	-0.530968
C30	C	1.655095	-0.134449	-0.561916
C31	C	1.745769	-0.225191	-0.530949
C32	C	1.927142	-0.406676	-0.469019
C33	C	1.927156	-0.406652	-0.530942
C34	C	1.836473	-0.315903	-0.561909
C35	C	1.836467	-0.315924	-0.623814
N36	N	1.745802	-0.225171	-0.654784
C37	C	1.655115	-0.134433	-0.623835
C38	C	1.836369	-0.315984	-0.246114
C39	C	1.836342	-0.316008	-0.184197
C40	C	1.654982	-0.134511	-0.184218
C41	C	1.655002	-0.134495	-0.246137
C42	C	1.745704	-0.225230	-0.277085
C43	C	1.655147	-0.134431	-0.753862
C44	C	1.655163	-0.134439	-0.815784
C45	C	1.836528	-0.315930	-0.815757
C46	C	1.836508	-0.315928	-0.753841
C47	C	1.745813	-0.225167	-0.722895
O48	O	1.913517	-0.393083	-0.655877
O49	O	1.578025	-0.057239	-0.655871
N50	N	1.745849	-0.225177	0.153268
H51	H	1.581312	-0.060541	-0.840994
Br52	Br	2.050180	-0.529882	-0.427008
H53	H	1.910167	-0.389922	-0.158989
Br54	Br	1.531930	-0.011333	-0.288157
H55	H	1.490571	0.030191	-0.556176
Br56	Br	1.959596	-0.439068	-0.711813
H57	H	1.910359	-0.389810	-0.840966
H58	H	2.001020	-0.480539	-0.556136
H59	H	1.490548	0.030181	-0.443860
Br60	Br	1.531906	-0.011365	-0.142205
Br61	Br	1.532068	-0.011247	-0.711874
Br62	Br	1.959465	-0.439147	-0.288108
