data_functionalizedCrystal
_audit_creation_method	'MofGen! by Chris Wilmer'
_symmetry_space_group_name_H-M	'P1'
_symmetry_Int_Tables_number	1
_symmetry_cell_setting	triclinic
loop_
_symmetry_equiv_pos_as_xyz
  x,y,z
_cell_length_a	10.489741
_cell_length_b	11.792241
_cell_length_c	10.268362
_cell_angle_alpha	90.005428
_cell_angle_beta	89.993443
_cell_angle_gamma	95.633705
loop_
_atom_site_label
_atom_site_type_symbol
_atom_site_fract_x
_atom_site_fract_y
_atom_site_fract_z
O1	O	1.693508	-0.160138	-0.108362
O2	O	1.322261	-0.175169	-0.108351
O3	O	1.516894	-0.002507	-0.108347
O4	O	1.498876	-0.332799	-0.108365
O5	O	1.516877	-0.002500	0.108253
O6	O	1.322244	-0.175162	0.108250
O7	O	1.693491	-0.160130	0.108239
Cu8	Cu	1.507866	-0.167645	0.128022
Cu9	Cu	1.507886	-0.167654	-0.128134
O10	O	1.498858	-0.332792	0.108236
C11	C	1.274725	-0.174030	-0.000049
C12	C	1.133107	-0.170633	-0.000045
C13	C	1.515753	0.039791	-0.000047
C14	C	1.512366	0.165813	-0.000049
C15	C	1.741027	-0.161269	-0.000065
C16	C	1.882645	-0.164666	-0.000078
C17	C	1.950411	-0.274526	-0.000070
C18	C	2.042723	-0.222632	-0.106859
C19	C	2.042672	-0.222599	0.106693
C20	C	1.973092	-0.112728	-0.106955
C21	C	1.973032	-0.112709	0.106693
C22	C	2.065317	-0.060737	-0.000122
C23	C	1.499999	-0.375090	-0.000067
C24	C	1.503387	-0.501113	-0.000075
N25	N	1.507861	-0.167639	0.308188
C26	C	1.506136	0.396542	-0.000070
C27	C	1.509598	0.268148	-0.000058
N28	N	1.507901	-0.167652	-0.308299
C29	C	1.507880	-0.167652	0.573858
C30	C	1.507865	-0.167648	0.426020
H31	H	1.900455	-0.364852	-0.000183
H32	H	1.942428	-0.066290	-0.197344
H33	H	2.073592	-0.269122	-0.197143
H34	H	1.942134	-0.066262	0.196986
Cl35	Cl	2.142103	0.078843	-0.000195
Cl36	Cl	2.090247	-0.294390	0.246083
