data_functionalizedCrystal
_audit_creation_method	'MofGen! by Chris Wilmer'
_symmetry_space_group_name_H-M	'P1'
_symmetry_Int_Tables_number	1
_symmetry_cell_setting	triclinic
loop_
_symmetry_equiv_pos_as_xyz
  x,y,z
_cell_length_a	18.215407
_cell_length_b	15.297327
_cell_length_c	18.215399
_cell_angle_alpha	99.648308
_cell_angle_beta	89.980167
_cell_angle_gamma	99.707397
loop_
_atom_site_label
_atom_site_type_symbol
_atom_site_fract_x
_atom_site_fract_y
_atom_site_fract_z
Zn1	Zn	1.074360	-0.359166	-0.466794
Zn2	Zn	1.574360	0.140834	0.033206
Zn3	Zn	1.052966	-0.510038	-0.365016
Zn4	Zn	1.552966	-0.010038	0.134984
Zn5	Zn	0.951288	-0.359195	-0.343746
Zn6	Zn	1.451288	0.140805	0.156254
Zn7	Zn	0.929963	-0.509988	-0.488034
Zn8	Zn	1.429963	-0.009988	0.011966
O9	O	1.002144	-0.434597	-0.415897
O10	O	1.502144	0.065403	0.084103
O11	O	1.174505	-0.379188	-0.453306
O12	O	1.674505	0.120812	0.046694
O13	O	1.039449	-0.490062	-0.259215
O14	O	1.539449	0.009938	0.240785
O15	O	0.985492	-0.232944	-0.342278
O16	O	1.485492	0.267056	0.157722
O17	O	1.158787	-0.490033	-0.378530
O18	O	1.658787	0.009967	0.121470
O19	O	1.075912	-0.232922	-0.432681
O20	O	1.575912	0.267078	0.067319
O21	O	0.964747	-0.379238	-0.243588
O22	O	1.464747	0.120762	0.256412
O23	O	0.845476	-0.379190	-0.362873
O24	O	1.345476	0.120810	0.137127
O25	O	0.949146	-0.489948	-0.588196
O26	O	1.449146	0.010052	-0.088196
O27	O	0.829808	-0.489976	-0.468881
O28	O	1.329808	0.010024	0.031119
O29	O	1.055234	-0.379139	-0.572591
O30	O	1.555234	0.120861	-0.072591
O31	O	1.018771	-0.636279	-0.399125
O32	O	1.518771	-0.136279	0.100875
O33	O	0.928401	-0.636242	-0.489506
O34	O	1.428401	-0.136242	0.010494
C35	C	0.810940	-0.434581	-0.415874
C36	C	1.310940	0.065419	0.084126
C37	C	0.729139	-0.434597	-0.415885
C38	C	1.229139	0.065403	0.084115
C39	C	0.532793	-0.492374	-0.471037
C40	C	1.032793	0.007626	0.028963
C41	C	0.455934	-0.492377	-0.471046
C42	C	0.955934	0.007623	0.028954
C43	C	0.472244	-0.376836	-0.360776
C44	C	0.972244	0.123164	0.139224
C45	C	0.549103	-0.376830	-0.360771
C46	C	1.049103	0.123170	0.139229
C47	C	0.579374	-0.434603	-0.415900
C48	C	1.079374	0.065397	0.084100
C49	C	0.425657	-0.434613	-0.415916
C50	C	0.925657	0.065387	0.084084
C51	C	0.342323	-0.434616	-0.415926
C52	C	0.842323	0.065384	0.084074
C53	C	0.662714	-0.434600	-0.415891
C54	C	1.162714	0.065400	0.084109
C55	C	0.968970	-0.668995	-0.448944
C56	C	1.468970	-0.168995	0.051056
C57	C	0.954846	-0.769272	-0.463106
C58	C	1.454846	-0.269272	0.036894
C59	C	1.103397	-1.051887	-0.314929
C60	C	1.603397	-0.551887	0.185071
C61	C	1.116667	-0.957672	-0.301619
C62	C	1.616667	-0.457672	0.198381
C63	C	1.076213	-0.910567	-0.341990
C64	C	1.576213	-0.410567	0.158010
C65	C	1.022486	-0.957687	-0.395673
C66	C	1.522486	-0.457687	0.104327
C67	C	1.009211	-1.051911	-0.408980
C68	C	1.509211	-0.551911	0.091020
C69	C	0.982027	-0.910591	-0.436041
C70	C	1.482027	-0.410591	0.063959
C71	C	0.928300	-0.957711	-0.489723
C72	C	1.428300	-0.457711	0.010277
C73	C	0.915027	-1.051926	-0.503028
C74	C	1.415027	-0.551926	-0.003028
C75	C	0.955481	-1.099031	-0.462658
C76	C	1.455481	-0.599031	0.037342
C77	C	0.995303	-0.816367	-0.422734
C78	C	1.495303	-0.316367	0.077266
C79	C	0.901116	-0.816392	-0.516784
C80	C	1.401116	-0.316392	-0.016784
C81	C	0.887846	-0.910606	-0.530094
C82	C	1.387846	-0.410606	-0.030094
C83	C	1.194095	-0.434613	-0.415921
C84	C	1.694095	0.065387	0.084079
C85	C	1.275892	-0.434620	-0.415931
C86	C	1.775892	0.065380	0.084069
C87	C	1.002198	-0.434535	-0.607842
C88	C	1.502198	0.065465	-0.107842
C89	C	1.002220	-0.434508	-0.689637
C90	C	1.502220	0.065492	-0.189637
C91	C	1.035467	-0.199283	-0.382738
C92	C	1.535467	0.300717	0.117262
C93	C	1.049667	-0.099006	-0.368607
C94	C	1.549667	0.400994	0.131393
C95	C	1.057485	-0.376756	-0.869699
C96	C	1.557485	0.123244	-0.369699
C97	C	1.057497	-0.376730	-0.946554
C98	C	1.557497	0.123270	-0.446554
C99	C	0.947028	-0.492120	-0.962793
C100	C	1.447028	0.007880	-0.462793
C101	C	0.947013	-0.492141	-0.885938
C102	C	1.447013	0.007859	-0.385938
C103	C	1.002245	-0.434461	-0.839394
C104	C	1.502245	0.065539	-0.339394
C105	C	1.002273	-0.434413	-0.993103
C106	C	1.502273	0.065587	-0.493103
C107	C	1.002286	-0.434385	-1.076433
C108	C	1.502286	0.065615	-0.576433
C109	C	1.002232	-0.434487	-0.756058
C110	C	1.502232	0.065513	-0.256058
C111	C	1.002142	-0.434594	-0.224691
C112	C	1.502142	0.065406	0.275309
C113	C	1.002298	-0.434366	-0.142860
C114	C	1.502298	0.065634	0.357140
H115	H	0.447587	-0.329800	-0.315891
H116	H	0.947587	0.170200	0.184109
C117	C	1.106514	-0.325548	-0.744676
C118	C	1.606514	0.174452	-0.244676
C119	C	1.118188	-0.313346	-0.818534
C120	C	1.618188	0.186654	-0.318534
H121	H	1.143993	-0.286401	-0.713092
H122	H	1.643993	0.213599	-0.213092
H123	H	1.058939	-0.312350	-0.730216
H124	H	1.558939	0.187650	-0.230216
H125	H	1.108706	-0.386170	-0.740628
H126	H	1.608706	0.113830	-0.240628
H127	H	1.115991	-0.252726	-0.822583
H128	H	1.615991	0.247274	-0.322583
H129	H	1.165776	-0.326538	-0.832998
H130	H	1.665776	0.173462	-0.332998
C131	C	0.801087	-1.157976	-0.528144
C132	C	1.301087	-0.657976	-0.028144
C133	C	0.855967	-1.103723	-0.562033
C134	C	1.355967	-0.603723	-0.062033
H135	H	0.764626	-1.189948	-0.564572
H136	H	1.264626	-0.689948	-0.064572
H137	H	0.823282	-1.199504	-0.506010
H138	H	1.323282	-0.699504	-0.006010
H139	H	0.778127	-1.121264	-0.490875
H140	H	1.278127	-0.621264	0.009125
H141	H	0.878932	-1.140436	-0.599299
H142	H	1.378932	-0.640436	-0.099299
H143	H	0.833770	-1.062190	-0.584179
H144	H	1.333770	-0.562190	-0.084179
C145	C	0.955215	-1.233915	-0.551739
C146	C	1.455215	-0.733915	-0.051739
C147	C	0.940903	-1.202597	-0.477289
C148	C	1.440903	-0.702597	0.022711
H149	H	0.946223	-1.297853	-0.560768
H150	H	1.446223	-0.797853	-0.060768
H151	H	0.923425	-1.212618	-0.583455
H152	H	1.423425	-0.712618	-0.083455
H153	H	1.005710	-1.212523	-0.561479
H154	H	1.505710	-0.712523	-0.061479
H155	H	0.890407	-1.223983	-0.467550
H156	H	1.390407	-0.723983	0.032450
H157	H	0.972694	-1.223903	-0.445563
H158	H	1.472694	-0.723903	0.054437
H159	H	0.557438	-0.539415	-0.515928
H160	H	1.057438	-0.039415	-0.015928
H161	H	1.102478	-0.329740	-0.971224
H162	H	1.602478	0.170260	-0.471224
H163	H	0.418010	-0.539418	-0.515945
H164	H	0.918010	-0.039418	-0.015945
C165	C	0.862652	-1.016506	-0.644027
C166	C	1.362652	-0.516506	-0.144027
C167	C	0.828787	-0.962410	-0.589097
C168	C	1.328787	-0.462410	-0.089097
H169	H	0.826189	-1.048491	-0.680449
H170	H	1.326189	-0.548491	-0.180449
H171	H	0.899877	-0.979694	-0.667008
H172	H	1.399877	-0.479694	-0.167008
H173	H	0.884846	-1.058032	-0.621876
H174	H	1.384846	-0.558032	-0.121876
H175	H	0.806597	-0.920879	-0.611246
H176	H	1.306597	-0.420879	-0.111246
H177	H	0.791549	-0.999225	-0.566114
H178	H	1.291549	-0.499225	-0.066114
C179	C	0.879649	-0.671975	-0.538156
C180	C	1.379649	-0.171975	-0.038156
C181	C	0.856647	-0.764624	-0.561168
C182	C	1.356647	-0.264624	-0.061168
H183	H	0.852200	-0.640013	-0.565558
H184	H	1.352200	-0.140013	-0.065558
H185	H	0.871072	-0.656588	-0.486533
H186	H	1.371072	-0.156588	0.013467
H187	H	0.931275	-0.656488	-0.546785
H188	H	1.431275	-0.156488	-0.046785
H189	H	0.805022	-0.780111	-0.552534
H190	H	1.305022	-0.280111	-0.052534
H191	H	0.865219	-0.780016	-0.612803
H192	H	1.365219	-0.280016	-0.112803
C193	C	0.557510	-0.262626	-0.251764
C194	C	1.057510	0.237374	0.248236
C195	C	0.600311	-0.313326	-0.300158
C196	C	1.100311	0.186674	0.199842
H197	H	0.589125	-0.223427	-0.214346
H198	H	1.089125	0.276573	0.285654
H199	H	0.532424	-0.228168	-0.279015
H200	H	1.032424	0.271832	0.220985
H201	H	0.521963	-0.301901	-0.229102
H202	H	1.021963	0.198099	0.270898
H203	H	0.635855	-0.274051	-0.322824
H204	H	1.135855	0.225949	0.177176
H205	H	0.625410	-0.347787	-0.272903
H206	H	1.125410	0.152213	0.227097
C207	C	0.898002	-0.543329	-1.087817
C208	C	1.398002	-0.043329	-0.587817
C209	C	0.886323	-0.555528	-1.013958
C210	C	1.386323	-0.055528	-0.513958
H211	H	0.860527	-0.582481	-1.119402
H212	H	1.360527	-0.082481	-0.619402
H213	H	0.895813	-0.482717	-1.091868
H214	H	1.395813	0.017283	-0.591868
H215	H	0.945584	-0.556532	-1.102273
H216	H	1.445584	-0.056532	-0.602273
H217	H	0.838743	-0.542318	-0.999500
H218	H	1.338743	-0.042318	-0.499500
H219	H	0.888505	-0.616154	-1.009904
H220	H	1.388505	-0.116154	-0.509904
H221	H	1.136324	-1.090248	-0.282060
H222	H	1.636324	-0.590248	0.217940
C223	C	0.837821	-0.606212	-0.909705
C224	C	1.337821	-0.106212	-0.409705
C225	C	0.886291	-0.555579	-0.852622
C226	C	1.386291	-0.055579	-0.352622
H227	H	0.800339	-0.645375	-0.889135
H228	H	1.300339	-0.145375	-0.389135
H229	H	0.815240	-0.566898	-0.934136
H230	H	1.315240	-0.066898	-0.434136
H231	H	0.865012	-0.640713	-0.944551
H232	H	1.365012	-0.140713	-0.444551
H233	H	0.859100	-0.521073	-0.817779
H234	H	1.359100	-0.021073	-0.317779
H235	H	0.908873	-0.594898	-0.828179
H236	H	1.408873	-0.094898	-0.328179
H237	H	1.039047	-0.778011	-0.379024
H238	H	1.539047	-0.278011	0.120976
H239	H	1.087021	-0.833853	-0.331149
H240	H	1.587021	-0.333853	0.168851
C241	C	1.208437	-0.967119	-0.210001
C242	C	1.708437	-0.467119	0.289999
C243	C	1.175728	-0.905881	-0.242622
C244	C	1.675728	-0.405881	0.257378
H245	H	1.244905	-0.935143	-0.173582
H246	H	1.744905	-0.435143	0.326418
H247	H	1.171206	-1.003918	-0.187017
H248	H	1.671206	-0.503918	0.312983
H249	H	1.231395	-1.003818	-0.247283
H250	H	1.731395	-0.503818	0.252717
H251	H	1.152766	-0.869186	-0.205340
H252	H	1.652766	-0.369186	0.294660
H253	H	1.212966	-0.869066	-0.265605
H254	H	1.712966	-0.369066	0.234395
