data_functionalizedCrystal
_audit_creation_method	'MofGen! by Chris Wilmer'
_symmetry_space_group_name_H-M	'P1'
_symmetry_Int_Tables_number	1
_symmetry_cell_setting	triclinic
loop_
_symmetry_equiv_pos_as_xyz
  x,y,z
_cell_length_a	12.827893
_cell_length_b	19.805405
_cell_length_c	19.805399
_cell_angle_alpha	90.030709
_cell_angle_beta	89.986043
_cell_angle_gamma	89.973619
loop_
_atom_site_label
_atom_site_type_symbol
_atom_site_fract_x
_atom_site_fract_y
_atom_site_fract_z
Zn1	Zn	1.597535	0.269470	-0.382659
Zn2	Zn	1.597411	0.382661	-0.269467
Zn3	Zn	1.422792	0.269491	-0.269489
Zn4	Zn	1.422728	0.382622	-0.382620
O5	O	1.510117	0.326061	-0.326059
O6	O	1.743754	0.284492	-0.367651
O7	O	1.574223	0.367674	-0.174753
O8	O	1.446051	0.174772	-0.284527
O9	O	1.743664	0.367653	-0.284489
O10	O	1.574433	0.174756	-0.367672
O11	O	1.445931	0.284529	-0.174769
O12	O	1.276548	0.284491	-0.284489
O13	O	1.445941	0.367587	-0.477341
O14	O	1.276500	0.367608	-0.367605
O15	O	1.574371	0.284455	-0.477370
O16	O	1.574161	0.477373	-0.284451
O17	O	1.445821	0.477344	-0.367584
C18	C	1.238607	0.326048	-0.326046
C19	C	1.122454	0.326059	-0.326056
C20	C	1.509999	0.501917	-0.326026
C21	C	1.510044	0.577149	-0.326034
C22	C	1.510162	0.326014	-0.502601
C23	C	1.510182	0.325994	-0.577833
C24	C	1.070673	0.367252	-0.367121
C25	C	0.950623	0.367264	-0.367133
C26	C	1.782687	0.326075	-0.326072
C27	C	1.898840	0.326081	-0.326078
C28	C	1.510263	0.149518	-0.326106
C29	C	1.510326	0.074286	-0.326127
C30	C	1.576935	0.612486	-0.282793
C31	C	1.576980	0.683174	-0.282808
C32	C	1.510127	0.718525	-0.326061
C33	C	1.443233	0.683183	-0.369308
C34	C	1.443195	0.612496	-0.369296
C35	C	1.443387	0.968257	-0.369358
C36	C	1.443428	1.038949	-0.369366
C37	C	1.577172	1.038935	-0.282870
C38	C	1.577134	0.968247	-0.282858
C39	C	1.510244	0.932912	-0.326107
C40	C	1.510198	0.856264	-0.326091
C41	C	1.510167	0.795172	-0.326074
C42	C	1.443399	0.282696	-0.613185
C43	C	1.443414	0.282683	-0.683874
C44	C	1.510217	0.325965	-0.719209
C45	C	1.577002	0.369268	-0.683852
C46	C	1.576982	0.369284	-0.613165
C47	C	1.577085	0.369204	-0.968925
C48	C	1.577103	0.369183	-1.039618
C49	C	1.443517	0.282604	-1.039635
C50	C	1.443497	0.282620	-0.968947
C51	C	1.510278	0.325925	-0.933597
C52	C	1.510260	0.325939	-0.856948
C53	C	1.510241	0.325947	-0.795856
C54	C	1.510131	0.326059	-0.150203
C55	C	1.510314	0.325889	-0.074971
H56	H	1.115218	0.402508	-0.402273
O57	O	1.641988	0.717395	-0.240736
C58	C	1.700998	0.671036	-0.202566
H59	H	1.658166	0.620673	-0.200191
H60	H	1.780338	0.663457	-0.227392
C61	C	1.768747	0.760523	-0.133458
C62	C	1.716136	0.698668	-0.130536
H63	H	1.778089	0.777569	-0.089028
H64	H	1.728994	0.791757	-0.159176
H65	H	1.834858	0.754199	-0.154150
H66	H	1.650021	0.704995	-0.109853
H67	H	1.755878	0.667436	-0.104814
O68	O	1.378522	0.240639	-1.074005
C69	C	1.311017	0.279159	-1.114889
H70	H	1.304512	0.332472	-1.093570
H71	H	1.343334	0.281479	-1.168464
C72	C	1.210400	0.180604	-1.142158
C73	C	1.202403	0.246082	-1.115971
H74	H	1.143403	0.160200	-1.142829
H75	H	1.255881	0.154651	-1.114616
H76	H	1.237334	0.182546	-1.186801
H77	H	1.175482	0.244138	-1.071326
H78	H	1.156915	0.272034	-1.143506
H79	H	0.906093	0.402533	-0.402289
O80	O	1.378601	1.073259	-0.411486
C81	C	1.401357	1.055918	-0.478955
H82	H	1.484827	1.036438	-0.482412
H83	H	1.345292	1.014907	-0.496615
C84	C	1.286680	1.142616	-0.519881
C85	C	1.389201	1.118696	-0.524127
H86	H	1.279177	1.181338	-0.547747
H87	H	1.271345	1.154297	-0.474426
H88	H	1.239970	1.108434	-0.534597
H89	H	1.435908	1.152874	-0.509403
H90	H	1.404544	1.107021	-0.569581
H91	H	1.389029	0.247428	-0.712654
O92	O	1.641908	0.411249	-0.578748
C93	C	1.709443	0.372730	-0.537885
H94	H	1.672631	0.321436	-0.527307
H95	H	1.786901	0.365293	-0.565132
C96	C	1.773524	0.472991	-0.483722
C97	C	1.728306	0.409993	-0.470726
H98	H	1.785165	0.495977	-0.442296
H99	H	1.728028	0.498943	-0.511254
H100	H	1.838067	0.466785	-0.506429
H101	H	1.663759	0.416201	-0.448026
H102	H	1.773793	0.384043	-0.443188
H103	H	0.943363	0.290814	-0.290916
O104	O	1.642027	0.411297	-1.073839
C105	C	1.700983	0.449512	-1.027480
H106	H	1.658166	0.451867	-0.977089
H107	H	1.780373	0.424738	-1.019973
C108	C	1.768569	0.518651	-1.116945
C109	C	1.715976	0.521547	-1.055055
H110	H	1.777822	0.563084	-1.133954
H111	H	1.728853	0.492903	-1.148178
H112	H	1.834721	0.498002	-1.110680
H113	H	1.649820	0.542188	-1.061322
H114	H	1.755681	0.547300	-1.023823
H115	H	1.631389	0.404512	-0.712627
O116	O	1.069483	0.283930	-0.284100
C117	C	1.140937	0.245640	-0.245902
H118	H	1.218787	0.243278	-0.273575
H119	H	1.152462	0.270353	-0.194444
C120	C	1.002641	0.176520	-0.202316
C121	C	1.098256	0.173615	-0.236308
H122	H	0.976313	0.132092	-0.196395
H123	H	0.954500	0.202318	-0.228048
H124	H	1.012258	0.197118	-0.159438
H125	H	1.088635	0.153025	-0.279188
H126	H	1.146394	0.147811	-0.210582
O127	O	1.642174	0.934013	-0.240820
C128	C	1.701208	0.980361	-0.202644
H129	H	1.704826	1.030729	-0.230377
H130	H	1.662998	0.987934	-0.151217
C131	C	1.807981	0.890858	-0.158890
C132	C	1.812431	0.952719	-0.192954
H133	H	1.876587	0.873807	-0.152910
H134	H	1.768206	0.859632	-0.184607
H135	H	1.776134	0.897177	-0.116037
H136	H	1.844265	0.946398	-0.235809
H137	H	1.852214	0.983944	-0.167244
O138	O	1.378506	0.933833	-0.411343
C139	C	1.392784	0.863862	-0.402052
H140	H	1.473448	0.854177	-0.379931
H141	H	1.330824	0.843859	-0.365970
C142	C	1.284044	0.839428	-0.497697
C143	C	1.383120	0.827532	-0.470532
H144	H	1.278078	0.817017	-0.539937
H145	H	1.274421	0.886569	-0.503955
H146	H	1.232421	0.822759	-0.467622
H147	H	1.434740	0.844209	-0.500603
H148	H	1.392752	0.780393	-0.464281
H149	H	1.631370	0.583708	-0.247567
H150	H	1.631641	1.067713	-0.247657
H151	H	1.388805	0.711971	-0.404529
H152	H	1.388726	0.583726	-0.404509
O153	O	1.378505	0.240555	-0.934728
C154	C	1.319580	0.202324	-0.981090
H155	H	1.315953	0.230034	-1.031470
H156	H	1.357890	0.150917	-0.988623
C157	C	1.212813	0.158538	-0.891622
C158	C	1.208352	0.192575	-0.953499
H159	H	1.144204	0.152521	-0.874602
H160	H	1.252514	0.184293	-0.860386
H161	H	1.244743	0.115703	-0.897908
H162	H	1.176434	0.235412	-0.947210
H163	H	1.168642	0.166827	-0.984732
O164	O	1.641813	0.411337	-0.934564
C165	C	1.582280	0.455056	-0.893649
H166	H	1.499975	0.459227	-0.914942
H167	H	1.578690	0.434147	-0.840080
C168	C	1.734369	0.520296	-0.866403
C169	C	1.633282	0.525425	-0.892559
H170	H	1.765831	0.563703	-0.865727
H171	H	1.774479	0.490841	-0.893966
H172	H	1.731363	0.502870	-0.821765
H173	H	1.636291	0.542843	-0.937199
H174	H	1.593174	0.554884	-0.865003
H175	H	1.389006	0.247447	-0.584421
