data_functionalizedCrystal
_audit_creation_method	'MofGen! by Chris Wilmer'
_symmetry_space_group_name_H-M	'P1'
_symmetry_Int_Tables_number	1
_symmetry_cell_setting	triclinic
loop_
_symmetry_equiv_pos_as_xyz
  x,y,z
_cell_length_a	10.489768
_cell_length_b	19.288855
_cell_length_c	17.766277
_cell_angle_alpha	89.992196
_cell_angle_beta	89.992921
_cell_angle_gamma	83.841365
loop_
_atom_site_label
_atom_site_type_symbol
_atom_site_fract_x
_atom_site_fract_y
_atom_site_fract_z
O1	O	-1.691818	-0.098085	0.062559
O2	O	-1.191818	0.401915	0.562559
O3	O	-1.320419	-0.107263	0.062570
O4	O	-0.820419	0.392737	0.562570
O5	O	-1.516856	-0.001615	0.062554
O6	O	-1.016856	0.498385	0.562554
O7	O	-1.495380	-0.203732	0.062575
O8	O	-0.995380	0.296268	0.562575
O9	O	-1.516821	-0.001612	-0.062634
O10	O	-1.016821	0.498388	0.437366
O11	O	-1.320383	-0.107259	-0.062619
O12	O	-0.820383	0.392741	0.437381
O13	O	-1.691783	-0.098081	-0.062629
O14	O	-1.191783	0.401919	0.437371
Cu15	Cu	-1.506080	-0.102670	-0.074055
Cu16	Cu	-1.006080	0.397330	0.425945
Cu17	Cu	-1.506121	-0.102674	0.073995
Cu18	Cu	-1.006121	0.397326	0.573995
O19	O	-1.495345	-0.203729	-0.062614
O20	O	-0.995345	0.296271	0.437386
C21	C	-1.272886	-0.106564	-0.000023
C22	C	-0.772886	0.393436	0.499977
C23	C	-1.131305	-0.104478	-0.000020
C24	C	-0.631305	0.395522	0.499980
C25	C	-0.980002	-0.036014	-0.000038
C26	C	-0.480002	0.463986	0.499962
C27	C	-1.056601	-0.070242	-0.061756
C28	C	-0.556601	0.429758	0.438244
C29	C	-1.056591	-0.070261	0.061670
C30	C	-0.556591	0.429739	0.561670
C31	C	-0.955641	-0.135023	-0.061809
C32	C	-0.455641	0.364977	0.438191
C33	C	-0.955626	-0.135033	0.061672
C34	C	-0.455626	0.364967	0.561672
C35	C	-1.032175	-0.169308	-0.000061
C36	C	-0.532175	0.330692	0.499939
C37	C	-1.516150	0.024267	-0.000041
C38	C	-1.016150	0.524267	0.499959
C39	C	-1.514082	0.101385	-0.000044
C40	C	-1.014082	0.601385	0.499956
C41	C	-0.739318	-0.098769	-0.000036
C42	C	-0.239318	0.401231	0.499964
C43	C	-0.880907	-0.100822	-0.000040
C44	C	-0.380907	0.399178	0.499960
C45	C	-1.513136	0.137601	0.068197
C46	C	-1.013136	0.637601	0.568197
C47	C	-1.511174	0.210060	0.068202
C48	C	-1.011174	0.710060	0.568202
C49	C	-1.510185	0.246303	-0.000037
C50	C	-1.010185	0.746303	0.499963
C51	C	-1.511124	0.210078	-0.068286
C52	C	-1.011124	0.710078	0.431714
C53	C	-1.513072	0.137620	-0.068290
C54	C	-1.013072	0.637620	0.431710
C55	C	-1.581788	0.366052	-0.052315
C56	C	-1.081788	0.866052	0.447685
C57	C	-1.579847	0.438510	-0.052309
C58	C	-1.079847	0.938510	0.447691
C59	C	-1.504169	0.469790	-0.000030
C60	C	-1.004169	0.969790	0.499970
C61	C	-1.430448	0.428604	0.052255
C62	C	-0.930448	0.928604	0.552255
C63	C	-1.432397	0.356145	0.052252
C64	C	-0.932397	0.856145	0.552252
C65	C	-1.508071	0.324872	-0.000042
C66	C	-1.008071	0.824872	0.499958
C67	C	-1.501094	0.584574	0.068220
C68	C	-1.001094	1.084574	0.568220
C69	C	-1.499125	0.657034	0.068222
C70	C	-0.999125	1.157034	0.568222
C71	C	-1.499088	0.657052	-0.068268
C72	C	-0.999088	1.157052	0.431732
C73	C	-1.501044	0.584592	-0.068268
C74	C	-1.001044	1.084592	0.431732
C75	C	-1.502053	0.548358	-0.000022
C76	C	-1.002053	1.048358	0.499978
C77	C	-1.496055	0.770389	-0.000019
C78	C	-0.996055	1.270389	0.499981
C79	C	-1.498134	0.693272	-0.000018
C80	C	-0.998134	1.193272	0.499982
N81	N	-1.506060	-0.102667	-0.178185
N82	N	-1.006060	0.397333	0.321815
C83	C	-1.583156	-0.145212	-0.217564
C84	C	-1.083156	0.354788	0.282436
C85	C	-1.583176	-0.145210	-0.296365
C86	C	-1.083176	0.354790	0.203635
C87	C	-1.506077	-0.102671	-0.335786
C88	C	-1.006077	0.397329	0.164214
C89	C	-1.428976	-0.060117	-0.296398
C90	C	-0.928976	0.439883	0.203602
C91	C	-1.428967	-0.060115	-0.217597
C92	C	-0.928967	0.439885	0.282403
C93	C	-1.391106	-0.100137	-0.460642
C94	C	-0.891106	0.399863	0.039358
C95	C	-1.391111	-0.100144	-0.539441
C96	C	-0.891111	0.399856	-0.039441
C97	C	-1.506103	-0.102674	-0.578832
C98	C	-1.006103	0.397326	-0.078832
C99	C	-1.621091	-0.105210	-0.539415
C100	C	-1.121091	0.394790	-0.039415
C101	C	-1.621083	-0.105208	-0.460614
C102	C	-1.121083	0.394792	0.039386
C103	C	-1.506077	-0.102668	-0.421231
C104	C	-1.006077	0.397332	0.078769
C105	C	-1.583228	-0.145219	-0.703656
C106	C	-1.083228	0.354781	-0.203656
C107	C	-1.583250	-0.145212	-0.782460
C108	C	-1.083250	0.354788	-0.282460
C109	C	-1.429038	-0.060123	-0.782490
C110	C	-0.929038	0.439877	-0.282490
C111	C	-1.429027	-0.060126	-0.703689
C112	C	-0.929027	0.439874	-0.203689
C113	C	-1.506120	-0.102678	-0.664276
C114	C	-1.006120	0.397322	-0.164276
N115	N	-1.506151	-0.102672	0.178125
N116	N	-1.006151	0.397328	0.678125
H117	H	-0.956559	0.020344	-0.000106
H118	H	-0.456559	0.520344	0.499894
H119	H	-1.498272	0.686559	-0.123829
H120	H	-0.998272	1.186559	0.376171
H121	H	-1.297457	-0.098082	-0.428576
H122	H	-0.797457	0.401918	0.071424
H123	H	-1.366241	-0.025484	-0.671626
H124	H	-0.866241	0.474516	-0.171626
H125	H	-1.100683	-0.042882	-0.113942
H126	H	-0.600683	0.457118	0.386058
H127	H	-1.645958	-0.179858	-0.328434
H128	H	-1.145958	0.320142	0.171566
H129	H	-1.055372	-0.225708	-0.000089
H130	H	-0.555372	0.274292	0.499911
H131	H	-0.911728	-0.162362	-0.114049
H132	H	-0.411728	0.337638	0.385951
H133	H	-1.513837	0.108133	-0.123861
H134	H	-1.013837	0.608133	0.376139
H135	H	-1.501825	0.555106	-0.123837
H136	H	-1.001825	1.055106	0.376163
H137	H	-1.643413	0.340590	-0.094893
H138	H	-1.143413	0.840590	0.405107
H139	H	-1.714711	-0.107272	-0.428524
H140	H	-1.214711	0.392728	0.071476
H141	H	-0.911521	-0.162368	0.113860
H142	H	-0.411521	0.337632	0.613860
H143	H	-1.100669	-0.042891	0.113850
H144	H	-0.600669	0.457109	0.613850
H145	H	-1.645936	-0.179858	-0.185479
H146	H	-1.145936	0.320142	0.314521
H147	H	-1.714728	-0.107274	-0.571485
H148	H	-1.214728	0.392726	-0.071485
H149	H	-1.639880	0.472038	-0.094881
H150	H	-1.139880	0.972038	0.405119
H151	H	-1.366263	-0.025486	-0.814586
H152	H	-0.866263	0.474514	-0.314586
H153	H	-1.646002	-0.179866	-0.671565
H154	H	-1.146002	0.320134	-0.171565
H155	H	-1.297480	-0.098082	-0.571529
H156	H	-0.797480	0.401918	-0.071529
H157	H	-1.513954	0.108103	0.123768
H158	H	-1.013954	0.608103	0.623768
H159	H	-1.510396	0.239552	0.123773
H160	H	-1.010396	0.739552	0.623773
H161	H	-1.646040	-0.179855	-0.814520
H162	H	-1.146040	0.320145	-0.314520
H163	H	-1.366202	-0.025481	-0.328499
H164	H	-0.866202	0.474519	0.171501
H165	H	-1.372368	0.322614	0.094823
H166	H	-0.872368	0.822614	0.594823
H167	H	-1.498348	0.686519	0.123794
H168	H	-0.998348	1.186519	0.623794
H169	H	-1.510314	0.239592	-0.123847
H170	H	-1.010314	0.739592	0.376153
H171	H	-1.368824	0.454070	0.094826
H172	H	-0.868824	0.954070	0.594826
H173	H	-1.501909	0.555070	0.123790
H174	H	-1.001909	1.055070	0.623790
H175	H	-1.366184	-0.025469	-0.185536
H176	H	-0.866184	0.474531	0.314464
