data_functionalizedCrystal
_audit_creation_method	'MofGen! by Chris Wilmer'
_symmetry_space_group_name_H-M	'P1'
_symmetry_Int_Tables_number	1
_symmetry_cell_setting	triclinic
loop_
_symmetry_equiv_pos_as_xyz
  x,y,z
_cell_length_a	12.759401
_cell_length_b	12.827892
_cell_length_c	12.827885
_cell_angle_alpha	89.970024
_cell_angle_beta	89.981935
_cell_angle_gamma	90.015363
loop_
_atom_site_label
_atom_site_type_symbol
_atom_site_fract_x
_atom_site_fract_y
_atom_site_fract_z
Zn1	Zn	1.606247	-0.415978	-0.590814
Zn2	Zn	1.606141	-0.590755	-0.416073
Zn3	Zn	1.430551	-0.416029	-0.416091
Zn4	Zn	1.430536	-0.590678	-0.590777
O5	O	1.518369	-0.503360	-0.503439
O6	O	1.753254	-0.439173	-0.567642
O7	O	1.582811	-0.567631	-0.269840
O8	O	1.453907	-0.269787	-0.439291
O9	O	1.753176	-0.567582	-0.439261
O10	O	1.582991	-0.269749	-0.567659
O11	O	1.453805	-0.439261	-0.269853
O12	O	1.283528	-0.439186	-0.439255
O13	O	1.453883	-0.567450	-0.737018
O14	O	1.283517	-0.567500	-0.567597
O15	O	1.582977	-0.439098	-0.737045
O16	O	1.582797	-0.736981	-0.439226
O17	O	1.453780	-0.736924	-0.567580
C18	C	1.518304	-0.774870	-0.503419
C19	C	1.518372	-0.891023	-0.503446
C20	C	1.245402	-0.503341	-0.503425
C21	C	1.128625	-0.503358	-0.503443
C22	C	1.454516	-0.942814	-0.566913
C23	C	1.454585	-1.062865	-0.566942
C24	C	1.073785	-0.570278	-0.570160
C25	C	0.964061	-0.570291	-0.570171
C26	C	0.964026	-0.436462	-0.436740
C27	C	1.073748	-0.436444	-0.436735
C28	C	1.128661	-0.637192	-0.636868
C29	C	1.073821	-0.704118	-0.703589
C30	C	0.964097	-0.704131	-0.703601
C31	C	0.909213	-0.637218	-0.636891
C32	C	1.792402	-0.503380	-0.503454
C33	C	1.909179	-0.503389	-0.503460
C34	C	1.518440	-0.503260	-0.776009
C35	C	1.518471	-0.503217	-0.892162
C36	C	1.518463	-0.230790	-0.503481
C37	C	1.518502	-0.114637	-0.503499
C38	C	1.582358	-0.439692	-0.943960
C39	C	1.582391	-0.439647	-1.064011
C40	C	1.518358	-0.503385	-0.231929
C41	C	1.518531	-0.503133	-0.115776
H42	H	1.399790	-0.898281	-0.621225
H43	H	1.463793	-0.557562	-0.936693
O44	O	1.389396	-1.116152	-0.631672
C45	C	1.330106	-1.284393	-0.690798
C46	C	1.403970	-1.224174	-0.617419
H47	H	1.341878	-1.371740	-0.679315
H48	H	1.245344	-1.263161	-0.672387
H49	H	1.348466	-1.262850	-0.775080
H50	H	1.385704	-1.245685	-0.533112
H51	H	1.488709	-1.245412	-0.635920
O52	O	1.647594	-0.374614	-1.117027
C53	C	1.698588	-0.196872	-1.150700
C54	C	1.624693	-0.270407	-1.090575
H55	H	1.680084	-0.112605	-1.129352
H56	H	1.783328	-0.215131	-1.129280
H57	H	1.687008	-0.208449	-1.238048
H58	H	1.636180	-0.258872	-1.003213
H59	H	1.539980	-0.252131	-1.112081
O60	O	0.910553	-0.371576	-0.371965
C61	C	0.741503	-0.312267	-0.312869
C62	C	0.801928	-0.385814	-0.386269
H63	H	0.653669	-0.323737	-0.324424
H64	H	0.762969	-0.330523	-0.228552
H65	H	0.763148	-0.228030	-0.331344
H66	H	0.780315	-0.470076	-0.367888
H67	H	0.780457	-0.367469	-0.470565
H68	H	1.218004	-0.637190	-0.636865
O69	O	1.126864	-0.371416	-0.371819
C70	C	1.115261	-0.238650	-0.239501
C71	C	1.054977	-0.312259	-0.312948
H72	H	1.057166	-0.190787	-0.191900
H73	H	1.166572	-0.286514	-0.184709
H74	H	1.166687	-0.184102	-0.287581
H75	H	1.003494	-0.366822	-0.264952
H76	H	1.003732	-0.264330	-0.367743
H77	H	0.819868	-0.637226	-0.636914
H78	H	1.573179	-1.070105	-0.449163
O79	O	1.583800	-0.944174	-0.438811
C80	C	1.725622	-1.067421	-0.425071
C81	C	1.651585	-1.007289	-0.498380
H82	H	1.780429	-1.118480	-0.473202
H83	H	1.773766	-1.009782	-0.377321
H84	H	1.677420	-1.118572	-0.370402
H85	H	1.699705	-0.956135	-0.553112
H86	H	1.603437	-1.064983	-0.546056
O87	O	0.910662	-0.769037	-0.768380
C88	C	0.741647	-0.828421	-0.827486
C89	C	0.802028	-0.754839	-0.754091
H90	H	0.653806	-0.816983	-0.815943
H91	H	0.763179	-0.810171	-0.911803
H92	H	0.763266	-0.912647	-0.808994
H93	H	0.780442	-0.670588	-0.772488
H94	H	0.780491	-0.773178	-0.669795
O95	O	1.127293	-0.769076	-0.768293
C96	C	1.296340	-0.828322	-0.827461
C97	C	1.235918	-0.754721	-0.754112
H98	H	1.384174	-0.816726	-0.816037
H99	H	1.274825	-0.912589	-0.808966
H100	H	1.274740	-0.810085	-0.911747
H101	H	1.257486	-0.772864	-0.669802
H102	H	1.257438	-0.670476	-0.772697
H103	H	1.463836	-0.557526	-1.071238
O104	O	1.647732	-0.374898	-0.890963
C105	C	1.826426	-0.324271	-0.857334
C106	C	1.752505	-0.397702	-0.917431
H107	H	1.911152	-0.342697	-0.878695
H108	H	1.808119	-0.239962	-0.878767
H109	H	1.814726	-0.335841	-0.769982
H110	H	1.764164	-0.386225	-1.004797
H111	H	1.770831	-0.481985	-0.895912
