data_functionalizedCrystal
_audit_creation_method	'MofGen! by Chris Wilmer'
_symmetry_space_group_name_H-M	'P1'
_symmetry_Int_Tables_number	1
_symmetry_cell_setting	triclinic
loop_
_symmetry_equiv_pos_as_xyz
  x,y,z
_cell_length_a	17.038275
_cell_length_b	16.098538
_cell_length_c	14.971486
_cell_angle_alpha	87.274078
_cell_angle_beta	92.637799
_cell_angle_gamma	87.063517
loop_
_atom_site_label
_atom_site_type_symbol
_atom_site_fract_x
_atom_site_fract_y
_atom_site_fract_z
O1	O	-1.041091	0.069273	0.190503
O2	O	-0.813457	0.069271	0.187421
O3	O	-0.933375	0.069266	0.059219
O4	O	-0.921173	0.069278	0.318705
O5	O	-0.926370	-0.069246	0.066677
O6	O	-0.806452	-0.069241	0.194879
O7	O	-1.034086	-0.069239	0.197960
Zn8	Zn	-0.919157	-0.091232	0.197604
Zn9	Zn	-0.928386	0.091264	0.187778
O10	O	-0.914168	-0.069234	0.326163
C11	C	-0.780823	0.000015	0.188345
C12	C	-0.694020	0.000014	0.179977
C13	C	-0.203548	0.000010	0.128564
C14	C	-0.285108	0.000006	0.136435
C15	C	-0.316640	0.000014	0.221149
C16	C	-0.266608	0.000017	0.297998
C17	C	-0.185050	0.000015	0.290127
C18	C	-0.562430	0.000015	0.248955
C19	C	-0.643995	0.000020	0.256820
C20	C	-0.662489	0.000007	0.095256
C21	C	-0.580928	0.000010	0.087392
C22	C	-0.530903	0.000009	0.164242
C23	C	-0.400007	0.000013	0.229195
C24	C	-0.447538	0.000004	0.156195
N25	N	-0.912864	-0.215781	0.204309
C26	C	-0.963780	-0.259368	0.149917
C27	C	-0.959385	-0.346557	0.154617
C28	C	-0.904077	-0.390157	0.213714
C29	C	-0.853155	-0.346564	0.268108
C30	C	-0.857547	-0.259377	0.263403
C31	C	-0.888156	-0.653406	0.230755
C32	C	-0.883769	-0.740600	0.235458
C33	C	-0.989999	-0.740587	0.121965
C34	C	-0.994390	-0.653398	0.117269
C35	C	-0.943465	-0.609812	0.171660
C36	C	-0.899585	-0.479278	0.218522
C37	C	-0.947954	-0.520693	0.166847
C38	C	-0.066720	0.000017	0.197037
C39	C	-0.153523	0.000016	0.205408
C40	C	-0.929327	0.000010	0.029582
C41	C	-0.927692	0.000011	-0.069837
N42	N	-0.934686	0.215813	0.181066
C43	C	-0.998140	0.000011	-0.121789
C44	C	-0.996600	0.000019	-0.215204
C45	C	-0.924609	0.000022	-0.256666
C46	C	-0.854155	0.000024	-0.204707
C47	C	-0.855697	0.000022	-0.111294
C48	C	-0.850946	0.000027	-0.399410
C49	C	-0.849403	0.000028	-0.492830
C50	C	-0.991849	0.000025	-0.503320
C51	C	-0.993391	0.000022	-0.409907
C52	C	-0.922936	0.000023	-0.357955
C53	C	-0.918217	0.000023	0.355799
C54	C	-0.919852	0.000028	0.455219
H55	H	-0.292288	0.000019	0.366974
H56	H	-0.555261	0.000003	0.018409
Cl57	Cl	-0.824141	-0.598619	0.299134
H58	H	-0.992983	-0.485191	0.118727
Cl59	Cl	-1.088648	-0.000000	-0.069675
Cl60	Cl	-0.122160	0.000017	0.386735
Cl61	Cl	-0.763652	0.000038	-0.256831
H62	H	-0.669664	0.000014	0.325808
H63	H	-0.793574	0.000030	-0.357113
H64	H	-0.798330	0.000022	-0.068996
Cl65	Cl	-0.163916	0.000003	0.022061
Cl66	Cl	-1.083895	0.000024	-0.357785
H67	H	-0.808117	-0.382068	0.316224
H68	H	-1.008822	-0.223875	0.101798
Cl69	Cl	-0.439655	0.000033	0.335689
Cl70	Cl	-0.793531	-0.204582	0.331782
H71	H	-1.049215	0.000027	-0.545624
Cl72	Cl	-0.758899	0.000031	-0.544952
Cl73	Cl	-1.063922	-0.598586	0.042976
Cl74	Cl	-0.347994	-0.000006	0.039827
Cl75	Cl	-0.407895	-0.000010	0.049701
H76	H	-0.703227	0.000007	0.032690
H77	H	-0.854553	-0.514784	0.266642
H78	H	-1.053966	0.000018	-0.257500
H79	H	-1.000845	-0.382045	0.110326
Cl80	Cl	-1.054012	-0.795384	0.053588
Cl81	Cl	-0.499552	0.000026	0.345566
H82	H	-0.838728	-0.776095	0.283586
