data_functionalizedCrystal
_audit_creation_method	'MofGen! by Chris Wilmer'
_symmetry_space_group_name_H-M	'P1'
_symmetry_Int_Tables_number	1
_symmetry_cell_setting	triclinic
loop_
_symmetry_equiv_pos_as_xyz
  x,y,z
_cell_length_a	6.817900
_cell_length_b	11.102188
_cell_length_c	14.858572
_cell_angle_alpha	93.467807
_cell_angle_beta	104.524003
_cell_angle_gamma	108.603875
loop_
_atom_site_label
_atom_site_type_symbol
_atom_site_fract_x
_atom_site_fract_y
_atom_site_fract_z
V1	V	-4.064538	-0.176639	-0.289960
O2	O	-4.024475	0.007665	-0.284441
O3	O	-4.041627	-0.349453	-0.287977
O4	O	-4.020828	-0.174283	-0.416422
O5	O	-4.045417	-0.168718	-0.155107
V6	V	-4.544255	-0.154551	-0.273831
O7	O	-4.334144	-0.225089	-0.325342
O8	O	-4.724846	-0.106100	-0.238449
O9	O	-4.343960	0.018263	-0.275814
O10	O	-4.701715	-0.338855	-0.279350
O11	O	-4.680772	-0.162472	-0.408684
O12	O	-4.364758	-0.156907	-0.147369
C13	C	-3.892677	-0.391570	-0.283403
C14	C	-3.955262	-0.532851	-0.282625
C15	C	-3.866145	-0.168121	-0.447246
C16	C	-3.911859	-0.167339	-0.550629
C17	C	-3.938296	-0.580841	-0.197095
C18	C	-3.997125	-0.713590	-0.196367
C19	C	-4.089878	-0.750350	-0.366706
C20	C	-4.031063	-0.617603	-0.367434
C21	C	-4.139577	-0.877091	-0.096035
C22	C	-4.122575	-0.925082	-0.010500
C23	C	-3.944737	-0.861606	0.067442
C24	C	-3.783850	-0.750137	0.059853
C25	C	-3.800837	-0.702151	-0.025683
C26	C	-3.978720	-0.765627	-0.103623
C27	C	-3.888591	-0.454098	-0.467759
C28	C	-3.905563	-0.406110	-0.553296
C29	C	-4.083392	-0.469585	-0.631245
C30	C	-4.244255	-0.581059	-0.623665
C31	C	-4.227283	-0.629048	-0.538128
C32	C	-4.049454	-0.565563	-0.460179
C33	C	-4.079177	-0.164478	-0.929197
C34	C	-4.032615	-0.165274	-0.823868
C35	C	-3.995520	-0.165909	-0.739916
C36	C	-3.948955	-0.166703	-0.634580
C37	C	-4.156253	0.060374	-0.280385
C38	C	-4.072906	0.201653	-0.281170
C39	C	-4.182784	-0.163072	-0.116540
C40	C	-4.116307	-0.163849	-0.013156
H41	H	-3.876576	-0.511838	-0.128038
O42	O	-4.296083	-1.045291	-0.002284
H43	H	-4.368978	-1.022745	0.052575
H44	H	-4.389052	-0.632748	-0.687139
O45	O	-4.171628	-0.841758	-0.458177
H46	H	-4.209661	-0.942128	-0.443304
O47	O	-4.101704	-0.417836	-0.723509
H48	H	-3.959972	-0.329658	-0.715692
O49	O	-3.732078	-0.285868	-0.561477
H50	H	-3.605584	-0.249772	-0.492899
H51	H	-3.669841	-0.611399	-0.031863
H52	H	-4.284412	-0.928775	-0.159492
H53	H	-4.358275	-0.719820	-0.531961
O54	O	-3.696778	-0.385639	-0.383680
H55	H	-3.587753	-0.300077	-0.403327
O56	O	-3.592019	-0.681688	0.143921
H57	H	-3.482998	-0.596127	0.124271
H58	H	-3.930899	-0.900691	0.137086
