data_functionalizedCrystal
_audit_creation_method	'MofGen! by Chris Wilmer'
_symmetry_space_group_name_H-M	'P1'
_symmetry_Int_Tables_number	1
_symmetry_cell_setting	triclinic
loop_
_symmetry_equiv_pos_as_xyz
  x,y,z
_cell_length_a	10.723024
_cell_length_b	15.625429
_cell_length_c	9.198806
_cell_angle_alpha	71.919667
_cell_angle_beta	89.996352
_cell_angle_gamma	84.344341
loop_
_atom_site_label
_atom_site_type_symbol
_atom_site_fract_x
_atom_site_fract_y
_atom_site_fract_z
O1	O	1.655907	0.126443	-0.187529
O2	O	1.292632	0.138546	-0.193913
O3	O	1.483975	0.001318	-0.121571
O4	O	1.464563	0.263670	-0.259871
O5	O	1.483960	0.001318	0.120214
O6	O	1.292617	0.138545	0.047872
O7	O	1.655891	0.126442	0.054256
Cu8	Cu	1.474253	0.132494	0.073141
Cu9	Cu	1.474271	0.132494	-0.212798
O10	O	1.464548	0.263670	-0.018086
C11	C	1.246133	0.137665	-0.072557
C12	C	1.107606	0.135030	-0.071170
C13	C	1.031845	0.211815	-0.111648
C14	C	0.888669	0.209093	-0.110216
C15	C	1.483089	-0.032274	0.017027
C16	C	1.480455	-0.132370	0.069784
C17	C	1.471800	-0.461572	-0.415638
C18	C	1.469319	-0.555627	-0.366020
C19	C	1.469303	-0.555613	-0.102443
C20	C	1.471790	-0.461558	-0.152038
C21	C	1.473036	-0.414544	-0.308638
C22	C	1.473026	-0.414530	-0.045038
C23	C	1.475506	-0.320481	-0.094631
C24	C	1.476749	-0.273461	-0.251223
C25	C	1.475516	-0.320496	-0.358230
C26	C	1.471771	-0.461544	0.111560
C27	C	1.473007	-0.414516	0.218561
C28	C	1.475496	-0.320467	0.168969
C29	C	1.476739	-0.273446	0.012376
C30	C	1.476729	-0.273432	0.275976
C31	C	1.479208	-0.179383	0.226383
C32	C	1.479218	-0.179398	-0.037216
C33	C	1.702390	0.127323	-0.067103
C34	C	1.840917	0.129959	-0.068500
C35	C	1.465435	0.297263	-0.156687
C36	C	1.468068	0.397358	-0.209454
N37	N	1.474249	0.132493	0.274256
N38	N	1.474284	0.132488	-0.413909
C39	C	1.554591	0.074621	0.376961
C40	C	1.554611	0.074618	0.544375
H41	H	0.906009	0.064221	-0.033854
H42	H	1.405475	0.182034	0.310267
H43	H	1.623399	0.025075	0.632579
H44	H	1.623357	0.025073	0.340955
C45	C	1.052040	0.043494	-0.022916
N46	N	1.010190	-0.025453	0.013428
C47	C	1.473177	-0.409853	-0.587906
N48	N	1.474211	-0.370897	-0.717653
C49	C	1.475341	-0.325158	0.448230
N50	N	1.474294	-0.364118	0.577974
C51	C	0.800727	0.297901	-0.157031
N52	N	0.734485	0.364793	-0.192291
H53	H	1.480189	-0.141090	0.313513
C54	C	1.480596	-0.127679	-0.209484
N55	N	1.481629	-0.088723	-0.339231
H56	H	1.405501	0.182041	0.497892
C57	C	1.467925	-0.607351	-0.483744
N58	N	1.466859	-0.646309	-0.572413
H59	H	1.478754	-0.196880	-0.291600
H60	H	1.476542	-0.282216	-0.485748
C61	C	1.467927	-0.607338	0.069813
N62	N	1.466893	-0.646297	0.199558
C63	C	1.087411	0.303351	-0.159896
N64	N	1.129261	0.372298	-0.196239
H65	H	1.469738	-0.538123	0.151933
H66	H	1.471988	-0.452807	0.346064
