data_functionalizedCrystal
_audit_creation_method	'MofGen! by Chris Wilmer'
_symmetry_space_group_name_H-M	'P1'
_symmetry_Int_Tables_number	1
_symmetry_cell_setting	triclinic
loop_
_symmetry_equiv_pos_as_xyz
  x,y,z
_cell_length_a	10.685976
_cell_length_b	10.685194
_cell_length_c	19.076919
_cell_angle_alpha	92.275516
_cell_angle_beta	83.171153
_cell_angle_gamma	90.347622
loop_
_atom_site_label
_atom_site_type_symbol
_atom_site_fract_x
_atom_site_fract_y
_atom_site_fract_z
Zn1	Zn	1.857231	-0.665515	0.289850
Zn2	Zn	1.850780	-0.866980	0.163820
Zn3	Zn	1.655791	-0.642344	0.181799
Zn4	Zn	1.631280	-0.859284	0.291218
O5	O	1.748770	-0.758531	0.231672
O6	O	2.032540	-0.705158	0.265036
O7	O	1.832473	-0.830706	0.067669
O8	O	1.695471	-0.470313	0.203084
O9	O	2.027801	-0.853174	0.172442
O10	O	1.843467	-0.487337	0.282469
O11	O	1.689216	-0.665666	0.080877
O12	O	1.476375	-0.658203	0.204410
O13	O	1.653694	-0.840056	0.389573
O14	O	1.458366	-0.817588	0.284800
O15	O	1.819699	-0.697695	0.388568
O16	O	1.808705	-1.041064	0.173768
O17	O	1.647439	-1.035409	0.267367
C18	C	1.421693	-0.734547	0.246704
C19	C	1.281765	-0.724317	0.253151
C20	C	1.724745	-1.083642	0.218779
C21	C	1.714580	-1.222736	0.213281
C22	C	2.077125	-0.782610	0.216581
C23	C	2.217050	-0.792870	0.210150
C24	C	1.734681	-0.770602	0.415334
C25	C	1.728678	-0.775746	0.493600
C26	C	1.772923	-0.432153	0.244629
C27	C	1.783215	-0.293071	0.250151
C28	C	1.762884	-0.746422	0.048724
C29	C	1.769157	-0.740943	-0.029539
C30	C	1.812283	-0.704046	0.529848
C31	C	1.806626	-0.708874	0.603388
C32	C	1.717370	-0.785408	0.640678
C33	C	1.633756	-0.857111	0.604426
C34	C	1.639408	-0.852276	0.530888
C35	C	1.691195	-0.807810	0.860671
C36	C	1.685552	-0.812643	0.934214
C37	C	1.858422	-0.664403	0.933171
C38	C	1.864070	-0.659581	0.859631
C39	C	1.780452	-0.731278	0.823385
N40	N	1.711589	-0.790348	0.715848
N41	N	1.786228	-0.726331	0.748217
H42	H	1.268700	-0.859401	0.168402
H43	H	1.230120	-0.657803	0.294902
C44	C	1.625629	-1.284249	0.165678
C45	C	1.502162	-1.244527	0.187926
C46	C	1.420186	-1.301179	0.144098
H47	H	1.649125	-1.261191	0.118339
H48	H	1.630264	-1.372692	0.168206
H49	H	1.497532	-1.156104	0.185391
H50	H	1.478627	-1.267586	0.235258
H51	H	1.424821	-1.389621	0.146627
H52	H	1.443693	-1.278116	0.096762
H53	H	1.336403	-1.274244	0.159191
C54	C	1.871921	-1.231252	0.297785
C55	C	1.864747	-1.100956	0.293934
C56	C	1.946457	-1.043960	0.337799
H57	H	1.848347	-1.254209	0.345135
H58	H	1.955802	-1.258003	0.282793
H59	H	1.780884	-1.074215	0.308931
H60	H	1.888332	-1.077963	0.246595
H61	H	2.030339	-1.070712	0.322806
H62	H	1.922876	-1.066926	0.385146
H63	H	1.941609	-0.955550	0.335187
H64	H	1.884968	-0.641727	0.499490
C65	C	1.897555	-0.630988	0.642610
C66	C	1.976959	-0.562960	0.594210
C67	C	2.060753	-0.491207	0.630315
H68	H	1.851384	-0.574715	0.675674
H69	H	1.946726	-0.684743	0.666862
H70	H	1.927795	-0.509210	0.569971
H71	H	2.023159	-0.619202	0.561146
H72	H	2.109923	-0.544963	0.654566
H73	H	2.014571	-0.434942	0.663377
H74	H	2.114646	-0.445051	0.597481
C75	C	1.588825	-0.895898	0.974729
C76	C	1.650919	-0.984128	1.010476
C77	C	1.561862	-1.060846	1.047801
H78	H	1.535288	-0.846027	1.007889
H79	H	1.539840	-0.937982	0.942633
H80	H	1.699882	-0.942047	1.042569
H81	H	1.704449	-1.034027	0.977333
H82	H	1.512877	-1.102930	1.015705
H83	H	1.508330	-1.010964	1.080957
H84	H	1.603979	-1.120725	1.072054
C85	C	1.961023	-0.576355	0.819276
C86	C	2.033011	-0.514570	0.866763
C87	C	2.122329	-0.437883	0.829615
H88	H	2.014657	-0.626228	0.786167
H89	H	1.919137	-0.516353	0.794981
H90	H	2.074895	-0.574564	0.891046
H91	H	1.979412	-0.464674	0.899873
H92	H	2.080442	-0.377881	0.805320
H93	H	2.175953	-0.487765	0.796507
H94	H	2.171176	-0.395944	0.861830
H95	H	1.926497	-0.606030	0.962690
H96	H	1.623124	-0.866211	0.831167
C97	C	1.536976	-0.940175	0.645033
C98	C	1.549942	-0.929093	0.717192
C99	C	1.460821	-1.005609	0.754618
H100	H	1.454611	-0.914946	0.637678
H101	H	1.550110	-1.024839	0.628835
H102	H	1.536798	-0.844447	0.733385
H103	H	1.632288	-0.954331	0.724569
H104	H	1.473955	-1.090273	0.738419
H105	H	1.378462	-0.980373	0.747256
H106	H	1.469614	-0.998109	0.803580
C107	C	1.548585	-0.930284	0.491652
C108	C	1.469237	-0.998379	0.540045
C109	C	1.385567	-1.070272	0.503927
H110	H	1.499354	-0.876653	0.467377
H111	H	1.594892	-0.986512	0.458606
H112	H	1.422934	-0.942157	0.573079
H113	H	1.518433	-1.052033	0.564322
H114	H	1.431874	-1.126500	0.470881
H115	H	1.336345	-1.016631	0.479653
H116	H	1.331727	-1.116491	0.536755
