data_functionalizedCrystal
_audit_creation_method	'MofGen! by Chris Wilmer'
_symmetry_space_group_name_H-M	'P1'
_symmetry_Int_Tables_number	1
_symmetry_cell_setting	triclinic
loop_
_symmetry_equiv_pos_as_xyz
  x,y,z
_cell_length_a	10.967926
_cell_length_b	11.026607
_cell_length_c	7.540329
_cell_angle_alpha	89.998289
_cell_angle_beta	102.126281
_cell_angle_gamma	96.380754
loop_
_atom_site_label
_atom_site_type_symbol
_atom_site_fract_x
_atom_site_fract_y
_atom_site_fract_z
O1	O	1.693962	0.170510	0.370248
O2	O	2.193962	0.670510	0.870248
O3	O	1.334339	0.186834	0.260334
O4	O	1.834339	0.686834	0.760334
O5	O	1.484345	0.001771	0.306188
O6	O	1.984345	0.501771	0.806188
O7	O	1.543956	0.355573	0.324394
O8	O	2.043956	0.855573	0.824394
O9	O	1.484333	0.001769	0.601149
O10	O	1.984333	0.501769	1.101149
O11	O	1.334327	0.186832	0.555295
O12	O	1.834327	0.686832	1.055295
O13	O	1.693950	0.170508	0.665210
O14	O	2.193950	0.670508	1.165210
Cu15	Cu	1.514137	0.178669	0.637185
Cu16	Cu	2.014137	0.678669	1.137185
Cu17	Cu	1.514151	0.178672	0.288359
Cu18	Cu	2.014151	0.678672	0.788359
O19	O	1.543944	0.355571	0.619356
O20	O	2.043944	0.855571	1.119356
C21	C	1.287578	0.185645	0.393524
C22	C	1.787578	0.685645	0.893524
C23	C	1.148259	0.182092	0.350943
C24	C	1.648259	0.682092	0.850943
C25	C	1.086140	0.180507	0.484757
C26	C	1.586140	0.680507	0.984757
C27	C	0.942146	0.176835	0.440751
C28	C	1.442146	0.676835	0.940751
C29	C	1.473342	-0.043533	0.450305
C30	C	1.973342	0.456467	0.950305
C31	C	1.440559	-0.178519	0.440279
C32	C	1.940559	0.321481	0.940279
C33	C	1.531078	-0.251572	0.467943
C34	C	2.031078	0.248428	0.967943
C35	C	1.497198	-0.391088	0.457581
C36	C	1.997198	0.108912	0.957581
C37	C	1.740711	0.171696	0.532015
C38	C	2.240711	0.671696	1.032015
C39	C	1.880030	0.175250	0.574585
C40	C	2.380030	0.675250	1.074585
C41	C	1.554947	0.400874	0.475234
C42	C	2.054947	0.900874	0.975234
C43	C	1.587729	0.535861	0.485248
C44	C	2.087729	1.035861	0.985248
N45	N	1.514136	0.178667	0.882533
N46	N	2.014136	0.678667	1.382533
N47	N	1.514160	0.178665	0.043013
N48	N	2.014160	0.678665	0.543013
H49	H	1.139559	0.181862	0.631900
H50	H	1.639559	0.681862	1.131900
F51	F	0.949839	0.177015	0.766927
F52	F	1.449839	0.677015	1.266927
F53	F	1.721818	-0.410898	0.526223
F54	F	2.221818	0.089102	1.026223
F55	F	1.078441	0.180304	0.158612
F56	F	1.578441	0.680304	0.658612
F57	F	0.872333	0.175047	0.248410
F58	F	1.372333	0.675047	0.748410
H59	H	1.633657	-0.210827	0.499306
H60	H	2.133657	0.289173	0.999306
F61	F	1.306479	-0.231769	0.399283
F62	F	1.806479	0.268231	0.899283
H63	H	1.394612	-0.431827	0.426215
H64	H	1.894612	0.068173	0.926215
