data_functionalizedCrystal
_audit_creation_method	'MofGen! by Chris Wilmer'
_symmetry_space_group_name_H-M	'P1'
_symmetry_Int_Tables_number	1
_symmetry_cell_setting	triclinic
loop_
_symmetry_equiv_pos_as_xyz
  x,y,z
_cell_length_a	17.640112
_cell_length_b	18.050590
_cell_length_c	18.050591
_cell_angle_alpha	90.007244
_cell_angle_beta	78.811372
_cell_angle_gamma	101.243844
loop_
_atom_site_label
_atom_site_type_symbol
_atom_site_fract_x
_atom_site_fract_y
_atom_site_fract_z
Zn1	Zn	1.208276	-0.065983	0.190769
Zn2	Zn	1.208232	-0.190140	0.066586
Zn3	Zn	1.076136	-0.091096	0.091652
Zn4	Zn	1.076074	-0.215284	0.215797
O5	O	1.142179	-0.140626	0.141201
O6	O	1.318879	-0.061420	0.153331
O7	O	1.190717	-0.176988	-0.034015
O8	O	1.093709	0.016168	0.104816
O9	O	1.318847	-0.152638	0.062094
O10	O	1.190791	0.034619	0.177637
O11	O	1.093666	-0.104221	-0.015599
O12	O	0.965518	-0.128602	0.129085
O13	O	1.093603	-0.195492	0.316403
O14	O	0.965473	-0.219842	0.220293
O15	O	1.190731	-0.085801	0.298015
O16	O	1.190657	-0.297408	0.086362
O17	O	1.093561	-0.315881	0.195987
C18	C	0.936815	-0.179676	0.180125
C19	C	0.848960	-0.196400	0.196795
C20	C	0.560023	-0.013563	0.014568
C21	C	0.477469	-0.029293	0.030242
C22	C	0.477476	-0.124432	0.125054
C23	C	0.560032	-0.108707	0.109390
C24	C	0.601298	-0.053273	0.054146
C25	C	0.601307	-0.148417	0.148968
C26	C	0.683855	-0.132697	0.133303
C27	C	0.725128	-0.077266	0.078060
C28	C	0.683847	-0.037552	0.038481
C29	C	0.560039	-0.203855	0.204208
C30	C	0.601314	-0.243565	0.243786
C31	C	0.683864	-0.227841	0.228125
C32	C	0.725136	-0.172411	0.172882
C33	C	0.725145	-0.267555	0.267704
C34	C	0.807693	-0.251835	0.252039
C35	C	0.807684	-0.156690	0.157217
C36	C	1.142119	-0.333589	0.141183
C37	C	1.142165	-0.416126	0.141186
C38	C	1.195075	-0.605483	0.081621
C39	C	1.214362	-0.651172	0.145743
C40	C	1.142210	-0.567248	0.141207
C41	C	1.123004	-0.668625	0.077100
C42	C	1.142255	-0.713225	0.141221
C43	C	1.161533	-0.611843	0.205358
C44	C	1.070142	-0.629298	0.136676
C45	C	1.089401	-0.674970	0.200850
C46	C	1.142186	-0.483154	0.141198
C47	C	1.142278	-0.797317	0.141239
C48	C	1.348345	-0.101423	0.102125
C49	C	1.436201	-0.084717	0.085473
C50	C	1.142165	-0.140650	0.334909
C51	C	1.142159	-0.140660	0.417456
C52	C	1.142262	0.053096	0.141231
C53	C	1.142297	0.135648	0.141244
C54	C	1.089328	-0.200304	0.676283
C55	C	1.070021	-0.136225	0.630558
C56	C	1.142152	-0.140640	0.714578
C57	C	1.161425	-0.204732	0.613228
C58	C	1.142153	-0.140654	0.568592
C59	C	1.122807	-0.076532	0.669947
C60	C	1.214245	-0.145078	0.652615
C61	C	1.194965	-0.080947	0.606906
C62	C	1.142149	-0.140633	0.798677
C63	C	1.142156	-0.140653	0.484495
C64	C	1.142176	-0.140625	0.948249
C65	C	1.142148	-0.140631	0.865709
H66	H	0.492823	-0.216653	0.216961
H67	H	1.177727	-0.258928	0.588440
C68	C	0.474777	-0.309908	0.309906
C69	C	0.555949	-0.304494	0.304512
H70	H	0.446773	-0.347519	0.347401
H71	H	0.461243	-0.323278	0.262564
H72	H	0.461263	-0.262598	0.323424
H73	H	0.569463	-0.351803	0.290989
H74	H	0.569488	-0.291128	0.351865
C75	C	1.326348	-0.086083	0.703361
C76	C	1.296522	-0.150176	0.666341
H77	H	1.377144	-0.089237	0.711832
H78	H	1.292002	-0.083473	0.750417
H79	H	1.330136	-0.042073	0.672933
H80	H	1.292728	-0.194186	0.696772
H81	H	1.330876	-0.152794	0.619278
H82	H	1.044713	-0.705017	0.251295
H83	H	0.841286	-0.111539	0.112243
H84	H	1.239797	-0.575292	0.031270
C85	C	1.312206	-0.038436	0.512896
C86	C	1.255270	-0.012780	0.566396
H87	H	1.349434	0.003648	0.487889
H88	H	1.287366	-0.067087	0.476956
H89	H	1.338439	-0.069261	0.537562
H90	H	1.229033	0.018040	0.541729
H91	H	1.280112	0.015883	0.602341
H92	H	0.792344	-0.064469	0.065305
C93	C	0.675557	0.054916	-0.053685
C94	C	0.729215	0.023378	-0.022250
H95	H	0.703567	0.092523	-0.091182
H96	H	0.643376	0.077148	-0.015174
H97	H	0.643344	0.016464	-0.076032
H98	H	0.761424	0.061828	0.000101
H99	H	0.761410	0.001146	-0.060768
H100	H	0.691533	-0.312695	0.312679
C101	C	0.957992	-0.578693	0.195507
C102	C	0.987863	-0.615681	0.131457
H103	H	0.907194	-0.570291	0.192280
H104	H	0.992316	-0.531594	0.198157
H105	H	0.954195	-0.609117	0.239522
H106	H	0.991666	-0.585254	0.087443
H107	H	0.953531	-0.662787	0.128800
C108	C	0.485756	0.066340	-0.065058
C109	C	0.432098	0.014365	-0.013264
H110	H	0.457744	0.093292	-0.091912
H111	H	0.517941	0.040159	-0.099629
H112	H	0.517964	0.100826	-0.038755
H113	H	0.399894	-0.020125	-0.039567
H114	H	0.399899	0.040548	0.021312
H115	H	1.106741	-0.693442	0.022880
H116	H	0.841300	-0.284170	0.284269
C117	C	1.351907	-0.629335	0.088476
C118	C	1.296659	-0.664767	0.150936
H119	H	1.402713	-0.637731	0.091677
H120	H	1.352606	-0.576587	0.088048
H121	H	1.337876	-0.649668	0.043344
H122	H	1.310687	-0.644430	0.196068
H123	H	1.295962	-0.717526	0.151372
H124	H	0.593625	0.031589	-0.030406
C125	C	0.350939	-0.190774	0.191174
C126	C	0.432111	-0.185361	0.185780
H127	H	0.322935	-0.228386	0.228669
H128	H	0.337405	-0.204145	0.143831
H129	H	0.337425	-0.143464	0.204692
H130	H	0.445626	-0.232669	0.172256
H131	H	0.445650	-0.171994	0.233132
C132	C	1.183403	-0.500919	0.277869
C133	C	1.183592	-0.578453	0.278556
H134	H	1.197028	-0.480305	0.323055
H135	H	1.132357	-0.493342	0.274541
H136	H	1.220706	-0.476528	0.235551
H137	H	1.146284	-0.602845	0.320872
H138	H	1.234645	-0.586036	0.281892
H139	H	1.044622	-0.250708	0.706428
H140	H	1.009054	-0.132471	0.620417
C141	C	1.100855	-0.004042	0.780840
C142	C	1.100692	-0.003369	0.703301
H143	H	1.087193	0.041121	0.801432
H144	H	1.151903	-0.007290	0.788483
H145	H	1.063567	-0.046408	0.805191
H146	H	1.137984	0.038994	0.678949
H147	H	1.049637	-0.000113	0.695652
