data_functionalizedCrystal
_audit_creation_method	'MofGen! by Chris Wilmer'
_symmetry_space_group_name_H-M	'P1'
_symmetry_Int_Tables_number	1
_symmetry_cell_setting	triclinic
loop_
_symmetry_equiv_pos_as_xyz
  x,y,z
_cell_length_a	12.645331
_cell_length_b	19.120786
_cell_length_c	12.645323
_cell_angle_alpha	92.471912
_cell_angle_beta	90.022676
_cell_angle_gamma	92.464092
loop_
_atom_site_label
_atom_site_type_symbol
_atom_site_fract_x
_atom_site_fract_y
_atom_site_fract_z
Zn1	Zn	1.602667	-0.279644	0.581385
Zn2	Zn	1.594961	-0.397110	0.396539
Zn3	Zn	1.425380	-0.279668	0.404128
Zn4	Zn	1.417779	-0.397064	0.573757
O5	O	1.510197	-0.338371	0.488952
O6	O	1.749992	-0.295235	0.556881
O7	O	1.572422	-0.381560	0.249196
O8	O	1.455304	-0.181374	0.434010
O9	O	1.744330	-0.381537	0.421075
O10	O	1.585556	-0.181357	0.564240
O11	O	1.447832	-0.295276	0.254772
O12	O	1.276025	-0.295231	0.426613
O13	O	1.442349	-0.381459	0.723118
O14	O	1.270441	-0.381482	0.551239
O15	O	1.578185	-0.295191	0.728723
O16	O	1.565051	-0.495394	0.413678
O17	O	1.434876	-0.495360	0.543880
C18	C	1.234768	-0.338355	0.488923
C19	C	1.116938	-0.338364	0.488934
C20	C	1.498332	-0.520863	0.477151
C21	C	1.493352	-0.598933	0.472138
C22	C	0.952868	-0.283855	0.411000
C23	C	1.075418	-0.283996	0.410632
C24	C	1.067638	-0.412356	0.453640
C25	C	0.945059	-0.412058	0.453104
C26	C	0.951001	-0.319586	0.602431
C27	C	1.073714	-0.317933	0.601914
C28	C	1.558778	-0.635541	0.537642
C29	C	1.554095	-0.708897	0.532933
C30	C	1.483992	-0.745643	0.462715
C31	C	1.418559	-0.709030	0.397208
C32	C	1.423237	-0.635675	0.401923
C33	C	1.466472	-0.967129	0.445089
C34	C	1.461801	-1.040488	0.440377
C35	C	1.597336	-1.040351	0.576104
C36	C	1.602013	-0.966995	0.580808
C37	C	1.536576	-0.930388	0.515306
C38	C	1.479206	-0.820624	0.457898
C39	C	1.541357	-0.855408	0.520129
C40	C	1.786701	-0.338389	0.488982
C41	C	1.904531	-0.338396	0.488995
C42	C	1.510279	-0.338317	0.765461
C43	C	1.510313	-0.338294	0.883293
C44	C	1.522138	-0.155167	0.500823
C45	C	1.527226	-0.077097	0.505881
C46	C	1.510180	-0.338375	0.213522
C47	C	1.510363	-0.338200	0.095704
C48	C	1.424622	-0.392309	1.047348
C49	C	1.424820	-0.392577	0.924770
C50	C	1.620715	-0.358383	0.926515
C51	C	1.620243	-0.358722	1.049092
C52	C	1.486678	-0.263887	1.055296
C53	C	1.484157	-0.264333	0.932661
H54	H	1.109063	-0.229128	0.433302
H55	H	1.440066	-0.447668	0.891898
H56	H	1.659096	-0.937078	0.637985
Br57	Br	0.891119	-0.482084	0.543218
H58	H	1.650610	-1.070164	0.629434
H59	H	1.615868	-0.605628	0.594816
Br60	Br	1.366661	-1.090358	0.345068
Br61	Br	1.111742	-0.481900	0.545011
H62	H	1.607380	-0.738700	0.586265
Br63	Br	1.355254	-0.233366	1.108772
Br64	Br	1.120838	-0.379317	0.704601
H65	H	1.342803	-0.380005	0.895480
Br66	Br	1.377651	-0.917457	0.356206
Br67	Br	1.323403	-0.758898	0.301924
H68	H	1.369959	-0.605870	0.348584
Br69	Br	1.636486	-0.805538	0.615431
Br70	Br	0.898427	-0.385797	0.699389
H71	H	1.641802	-0.412138	0.892355
Br72	Br	1.348772	-0.239083	0.885810
H73	H	0.923529	-0.266574	0.633606
Br74	Br	1.287490	-0.371555	1.097798
H75	H	1.422130	-0.850551	0.400723
Br76	Br	1.449691	-0.483548	1.092909
H77	H	1.640878	-0.413046	1.074194
Br78	Br	1.729838	-0.295843	1.102626
H79	H	1.542427	-0.221887	0.904781
Br80	Br	1.729705	-0.294775	0.882071
H81	H	0.926959	-0.228822	0.433475
Br82	Br	0.900107	-0.304328	0.271889
H83	H	1.103893	-0.296428	0.326669
Br84	Br	0.895590	-0.438643	0.314650
H85	H	1.097245	-0.428581	0.371434
Br86	Br	1.128102	-0.227187	0.646143
Br87	Br	1.590862	-0.196695	1.107989
