data_functionalizedCrystal
_audit_creation_method	'MofGen! by Chris Wilmer'
_symmetry_space_group_name_H-M	'P1'
_symmetry_Int_Tables_number	1
_symmetry_cell_setting	triclinic
loop_
_symmetry_equiv_pos_as_xyz
  x,y,z
_cell_length_a	19.188930
_cell_length_b	19.288864
_cell_length_c	17.766277
_cell_angle_alpha	89.976755
_cell_angle_beta	90.010343
_cell_angle_gamma	96.859488
loop_
_atom_site_label
_atom_site_type_symbol
_atom_site_fract_x
_atom_site_fract_y
_atom_site_fract_z
O1	O	0.087098	-0.921360	0.062844
O2	O	0.098848	-0.719100	0.062794
O3	O	-0.008683	-0.826067	0.062806
O4	O	0.194629	-0.814393	0.062832
O5	O	-0.008686	-0.826048	-0.062383
O6	O	0.098844	-0.719081	-0.062395
O7	O	0.087095	-0.921341	-0.062345
Cu8	Cu	0.092969	-0.820209	-0.073800
Cu9	Cu	0.092973	-0.820232	0.074250
O10	O	0.194626	-0.814374	-0.062356
C11	C	0.098468	-0.693214	0.000193
C12	C	0.097333	-0.616110	0.000173
C13	C	-0.034696	-0.825679	0.000209
C14	C	-0.112200	-0.824544	0.000202
C15	C	0.087475	-0.947227	0.000258
C16	C	0.088609	-1.024330	0.000283
C17	C	-0.157129	-0.887309	0.000214
C18	C	-0.229953	-0.886243	0.000226
C19	C	-0.257844	-0.822408	0.000211
C20	C	-0.212906	-0.759636	0.000203
C21	C	-0.140084	-0.760704	0.000199
N22	N	-0.365847	-0.773608	-0.042405
N23	N	-0.435025	-0.772598	-0.042403
C24	C	-0.477253	-0.819187	0.000225
N25	N	-0.447690	-0.866835	0.042841
N26	N	-0.378505	-0.867847	0.042836
C27	C	-0.336807	-0.821243	0.000216
C28	C	-0.601146	-0.880800	0.000251
C29	C	-0.673971	-0.879731	0.000268
C30	C	-0.656922	-0.753122	0.000237
C31	C	-0.584099	-0.754193	0.000228
C32	C	-0.556216	-0.818034	0.000231
C33	C	0.220638	-0.814762	0.000242
C34	C	0.298143	-0.815896	0.000253
N35	N	0.092966	-0.820198	-0.177931
C36	C	0.160427	-0.571419	0.000193
C37	C	0.159361	-0.498972	0.000201
C38	C	0.095197	-0.471219	0.000204
C39	C	0.032095	-0.515921	0.000180
C40	C	0.033163	-0.588366	0.000164
C41	C	0.044758	-0.362960	0.044082
C42	C	0.043693	-0.290516	0.044103
C43	C	0.091900	-0.247773	0.000249
C44	C	0.141185	-0.277483	-0.043614
C45	C	0.142253	-0.349929	-0.043630
C46	C	0.094032	-0.392665	0.000221
C47	C	0.153843	-0.124526	0.000277
C48	C	0.152774	-0.052078	0.000281
C49	C	0.025506	-0.069028	0.000267
C50	C	0.026576	-0.141475	0.000256
C51	C	0.090747	-0.169219	0.000265
C52	C	0.135209	-0.862189	-0.217294
C53	C	0.135207	-0.862200	-0.296096
C54	C	0.092971	-0.820207	-0.335531
C55	C	0.050720	-0.778214	-0.296158
C56	C	0.050718	-0.778210	-0.217358
C57	C	0.091205	-0.757595	-0.460407
C58	C	0.091212	-0.757598	-0.539206
C59	C	0.092973	-0.820222	-0.578578
C60	C	0.094741	-0.882844	-0.539141
C61	C	0.094739	-0.882839	-0.460341
C62	C	0.092968	-0.820208	-0.420977
C63	C	0.135215	-0.862228	-0.703387
C64	C	0.135208	-0.862240	-0.782191
C65	C	0.050725	-0.778248	-0.782251
C66	C	0.050728	-0.778242	-0.703449
C67	C	0.092977	-0.820231	-0.664022
N68	N	0.092971	-0.820248	0.178380
H69	H	-0.134431	-0.939293	0.000220
Br70	Br	-0.006608	-0.721268	-0.835761
Br71	Br	-0.734948	-0.964920	0.000292
Br72	Br	-0.523120	-0.669008	0.000211
Br73	Br	0.247515	-0.609069	0.000203
Br74	Br	-0.023184	-0.250201	0.103641
Br75	Br	-0.694767	-0.666488	0.000224
Br76	Br	0.088821	-0.672611	-0.592719
H77	H	0.204155	-0.015690	0.000293
Br78	Br	0.244995	-0.438307	0.000224
Br79	Br	0.240929	-0.162183	0.000283
Br80	Br	-0.250757	-0.673003	0.000192
H81	H	0.089775	-0.706594	-0.428357
H82	H	0.182381	-0.374115	-0.079348
Br83	Br	-0.020674	-0.420961	0.103600
H84	H	0.169616	-0.896418	-0.671284
Br85	Br	-0.563299	-0.967438	0.000248
Br86	Br	-0.006613	-0.721215	-0.163932
H87	H	-0.103502	-0.709591	0.000189
Br88	Br	0.192537	-0.919238	-0.835615
H89	H	-0.020148	-0.493320	0.000193
Br90	Br	0.097140	-0.967821	-0.406821
Br91	Br	0.206617	-0.219485	-0.103131
Br92	Br	-0.006606	-0.721228	-0.349675
Br93	Br	-0.061576	-0.031373	0.000259
Br94	Br	-0.290939	-0.971429	0.000246
Br95	Br	-0.059056	-0.202132	0.000231
H96	H	-0.018218	-0.624755	0.000148
Br97	Br	0.097134	-0.967839	-0.592564
Br98	Br	0.192563	-0.919156	-0.163790
H99	H	0.169607	-0.896394	-0.328152
Br100	Br	-0.006591	-0.721238	-0.650023
