data_functionalizedCrystal
_audit_creation_method	'MofGen! by Chris Wilmer'
_symmetry_space_group_name_H-M	'P1'
_symmetry_Int_Tables_number	1
_symmetry_cell_setting	triclinic
loop_
_symmetry_equiv_pos_as_xyz
  x,y,z
_cell_length_a	19.188930
_cell_length_b	17.699083
_cell_length_c	16.776229
_cell_angle_alpha	89.992455
_cell_angle_beta	89.978976
_cell_angle_gamma	83.213897
loop_
_atom_site_label
_atom_site_type_symbol
_atom_site_fract_x
_atom_site_fract_y
_atom_site_fract_z
O1	O	0.926253	0.094493	-0.066546
O2	O	0.722956	0.107213	-0.066492
O3	O	0.830348	-0.009343	-0.066513
O4	O	0.818861	0.211050	-0.066524
O5	O	0.830334	-0.009351	0.066063
O6	O	0.722942	0.107206	0.066085
O7	O	0.926239	0.094486	0.066030
Zn8	Zn	0.824588	0.100845	0.087107
Zn9	Zn	0.824607	0.100854	-0.087568
O10	O	0.818847	0.211043	0.066052
C11	C	0.696938	0.106798	-0.000196
C12	C	0.619432	0.105561	-0.000175
C13	C	0.829930	-0.037543	-0.000225
C14	C	0.828695	-0.121560	-0.000224
C15	C	0.891732	-0.170264	-0.000240
C16	C	0.890567	-0.249206	-0.000247
C17	C	0.826365	-0.279442	-0.000232
C18	C	0.763323	-0.230732	-0.000219
C19	C	0.764489	-0.151791	-0.000218
C20	C	0.758623	-0.549089	-0.000224
C21	C	0.757463	-0.628035	-0.000222
C22	C	0.884702	-0.646503	-0.000253
C23	C	0.885867	-0.567563	-0.000252
C24	C	0.822826	-0.518859	-0.000243
C25	C	0.824089	-0.433262	-0.000237
C26	C	0.825101	-0.365038	-0.000232
C27	C	0.574584	0.173953	-0.000191
C28	C	0.501759	0.172791	-0.000200
C29	C	0.473785	0.103234	-0.000209
C30	C	0.518642	0.034833	-0.000188
C31	C	0.591465	0.035997	-0.000172
N32	N	0.365750	0.050069	-0.045360
N33	N	0.296570	0.048968	-0.045377
C34	C	0.254372	0.099724	-0.000257
N35	N	0.283966	0.151634	0.044871
N36	N	0.353152	0.152737	0.044885
C37	C	0.394821	0.101965	-0.000226
C38	C	0.130559	0.166861	-0.000282
C39	C	0.057733	0.165696	-0.000285
C40	C	0.074617	0.027736	-0.000282
C41	C	0.147442	0.028903	-0.000270
C42	C	0.175408	0.098467	-0.000274
C43	C	0.952258	0.094902	-0.000267
C44	C	1.029763	0.096138	-0.000293
C45	C	0.819266	0.239243	-0.000238
C46	C	0.820500	0.323259	-0.000244
N47	N	0.824581	0.100838	0.206318
N48	N	0.824620	0.100855	-0.206779
C49	C	0.872148	0.049248	0.248026
C50	C	0.872152	0.049247	0.331478
C51	C	0.824591	0.100841	0.373221
C52	C	0.777018	0.152434	0.331508
C53	C	0.777012	0.152430	0.248057
C54	C	0.777044	0.152449	0.668055
C55	C	0.777055	0.152450	0.751512
C56	C	0.872184	0.049266	0.751476
C57	C	0.872177	0.049262	0.668025
C58	C	0.824602	0.100852	0.626319
C59	C	0.824598	0.100851	0.535831
C60	C	0.824598	0.100846	0.463708
H61	H	0.941898	-0.288858	-0.000258
H62	H	0.910908	0.007252	0.634040
C63	C	0.043857	-0.048778	-0.000288
H64	H	0.081001	-0.089344	-0.000273
H65	H	0.015820	-0.052100	-0.046524
H66	H	0.015781	-0.052099	0.045947
C67	C	0.924483	-0.007495	0.377353
H68	H	0.952815	-0.038214	0.340540
H69	H	0.899434	-0.038939	0.409928
H70	H	0.953499	0.019667	0.409884
H71	H	0.711049	-0.255356	-0.000212
C72	C	0.724733	0.209213	0.622185
H73	H	0.731536	0.201824	0.566506
H74	H	0.732242	0.259700	0.635857
H75	H	0.678146	0.201128	0.635883
C76	C	0.008400	0.240931	-0.000303
H77	H	0.035489	0.282524	-0.000310
H78	H	-0.020381	0.243348	0.045923
H79	H	-0.020336	0.243341	-0.046547
C80	C	0.196776	-0.046329	-0.000265
H81	H	0.169687	-0.087923	-0.000278
H82	H	0.225515	-0.048748	0.045972
H83	H	0.225555	-0.048737	-0.046498
C84	C	0.695148	-0.098217	-0.000198
H85	H	0.656744	-0.127529	-0.000183
H86	H	0.692964	-0.067033	-0.046430
H87	H	0.692952	-0.067045	0.046041
H88	H	0.910881	0.007237	0.214044
H89	H	0.738290	0.194440	0.365500
H90	H	0.910920	0.007256	0.785442
C91	C	0.724723	0.209192	0.797428
H92	H	0.696381	0.239909	0.760638
H93	H	0.749774	0.240639	0.829968
H94	H	0.695718	0.182024	0.829998
C95	C	0.956489	-0.534306	-0.000272
H96	H	0.993866	-0.574620	-0.000290
H97	H	0.959586	-0.503900	0.045958
H98	H	0.959589	-0.503892	-0.046512
C99	C	0.724690	0.209180	0.202175
H100	H	0.731493	0.201784	0.146497
H101	H	0.732183	0.259675	0.215836
H102	H	0.678109	0.201078	0.215879
C103	C	0.962355	-0.137011	-0.000256
H104	H	0.999730	-0.177326	-0.000274
H105	H	0.965452	-0.106606	0.045975
H106	H	0.965459	-0.106596	-0.046495
C107	C	0.686837	-0.661293	-0.000217
H108	H	0.649458	-0.620982	-0.000220
H109	H	0.683728	-0.691710	0.046015
H110	H	0.683753	-0.691699	-0.046456
C111	C	0.689281	-0.495525	-0.000200
H112	H	0.650879	-0.524841	-0.000180
H113	H	0.687088	-0.464338	-0.046429
H114	H	0.687088	-0.464356	0.046041
C115	C	0.605344	0.250471	-0.000181
H116	H	0.568200	0.291036	-0.000183
H117	H	0.633427	0.253799	-0.046403
H118	H	0.633374	0.253787	0.046067
C119	C	0.954047	-0.700078	-0.000276
H120	H	0.944162	-0.751423	-0.000284
H121	H	0.980374	-0.690944	0.045950
H122	H	0.980382	-0.690926	-0.046521
C123	C	0.452418	0.248025	-0.000230
H124	H	0.479504	0.289621	-0.000236
H125	H	0.423630	0.250445	0.045991
H126	H	0.423689	0.250428	-0.046479
C127	C	0.487876	-0.041680	-0.000199
H128	H	0.525019	-0.082246	-0.000182
H129	H	0.459842	-0.045000	-0.046439
H130	H	0.459796	-0.045002	0.046032
C131	C	0.640802	-0.039235	-0.000160
H132	H	0.688179	-0.028579	-0.000146
H133	H	0.632357	-0.067767	-0.046392
H134	H	0.632316	-0.067768	0.046078
C135	C	0.161326	0.243377	-0.000278
H136	H	0.124183	0.283943	-0.000277
H137	H	0.189403	0.246702	-0.046505
H138	H	0.189362	0.246694	0.045965
