data_functionalizedCrystal
_audit_creation_method	'MofGen! by Chris Wilmer'
_symmetry_space_group_name_H-M	'P1'
_symmetry_Int_Tables_number	1
_symmetry_cell_setting	triclinic
loop_
_symmetry_equiv_pos_as_xyz
  x,y,z
_cell_length_a	16.109301
_cell_length_b	27.732048
_cell_length_c	14.586319
_cell_angle_alpha	89.991275
_cell_angle_beta	89.999213
_cell_angle_gamma	83.052068
loop_
_atom_site_label
_atom_site_type_symbol
_atom_site_fract_x
_atom_site_fract_y
_atom_site_fract_z
O1	O	1.102362	0.062130	-0.076193
O2	O	1.435695	0.395463	0.257141
O3	O	1.769028	0.728797	0.590474
O4	O	0.860204	0.069862	-0.076208
O5	O	1.193537	0.403195	0.257125
O6	O	1.526870	0.736529	0.590458
O7	O	0.988804	-0.004369	-0.076183
O8	O	1.322137	0.328964	0.257151
O9	O	1.655470	0.662297	0.590484
O10	O	0.973762	0.136361	-0.076218
O11	O	1.307095	0.469695	0.257115
O12	O	1.640428	0.803028	0.590448
O13	O	0.988795	-0.004370	0.076298
O14	O	1.322128	0.328963	0.409632
O15	O	1.655461	0.662296	0.742965
O16	O	0.860195	0.069861	0.076272
O17	O	1.193528	0.403194	0.409606
O18	O	1.526862	0.736528	0.742939
O19	O	1.102353	0.062129	0.076288
O20	O	1.435686	0.395462	0.409622
O21	O	1.769019	0.728796	0.742955
Cu22	Cu	0.981273	0.065995	0.090203
Cu23	Cu	1.314606	0.399328	0.423536
Cu24	Cu	1.647940	0.732662	0.756870
Cu25	Cu	0.981283	0.065996	-0.090123
Cu26	Cu	1.314617	0.399329	0.243210
Cu27	Cu	1.647950	0.732663	0.576544
O28	O	0.973753	0.136360	0.076262
O29	O	1.307086	0.469694	0.409596
O30	O	1.640420	0.803027	0.742929
C31	C	0.829228	0.069548	0.000030
C32	C	1.162562	0.402882	0.333364
C33	C	1.495895	0.736215	0.666697
C34	C	0.736945	0.068609	0.000025
C35	C	1.070278	0.401943	0.333358
C36	C	1.403611	0.735276	0.666692
C37	C	0.514154	0.110473	0.000025
C38	C	0.847487	0.443807	0.333358
C39	C	1.180821	0.777140	0.666692
C40	C	0.427445	0.109587	0.000031
C41	C	0.760778	0.442921	0.333364
C42	C	1.094111	0.776254	0.666698
C43	C	0.448409	0.021514	0.000050
C44	C	0.781743	0.354848	0.333383
C45	C	1.115076	0.688181	0.666716
C46	C	0.535117	0.022401	0.000050
C47	C	0.868450	0.355734	0.333383
C48	C	1.201784	0.689068	0.666717
C49	C	0.567987	0.066882	0.000033
C50	C	0.901320	0.400215	0.333366
C51	C	1.234653	0.733548	0.666700
C52	C	0.394570	0.065109	0.000039
C53	C	0.727903	0.398443	0.333372
C54	C	1.061236	0.731776	0.666705
C55	C	0.300556	0.064148	0.000045
C56	C	0.633889	0.397481	0.333379
C57	C	0.967222	0.730815	0.666712
C58	C	0.662007	0.067843	0.000028
C59	C	0.995340	0.401176	0.333362
C60	C	1.328674	0.734510	0.666695
C61	C	0.988483	-0.022378	0.000060
C62	C	1.321817	0.310955	0.333394
C63	C	1.655150	0.644289	0.666727
C64	C	0.987533	-0.076037	0.000068
C65	C	1.320866	0.257296	0.333401
C66	C	1.654199	0.590630	0.666735
C67	C	1.057541	-0.414559	0.000025
C68	C	1.390874	-0.081226	0.333359
C69	C	1.724208	0.252108	0.666692
C70	C	1.054013	-0.616233	0.000012
C71	C	1.387347	-0.282900	0.333346
C72	C	1.720680	0.050433	0.666679
O73	O	1.118031	-0.647221	-0.000024
O74	O	1.451365	-0.313888	0.333310
O75	O	1.784698	0.019446	0.666643
N76	N	0.977759	-0.635676	0.000008
N77	N	1.311092	-0.302343	0.333342
N78	N	1.644426	0.030990	0.666675
C79	C	0.902381	-0.604697	0.000001
C80	C	1.235715	-0.271364	0.333335
C81	C	1.569048	0.061970	0.666668
O82	O	0.837441	-0.625862	-0.000012
O83	O	1.170775	-0.292529	0.333321
O84	O	1.504108	0.040805	0.666655
C85	C	0.905910	-0.403024	0.000008
C86	C	1.239243	-0.069690	0.333341
C87	C	1.572576	0.263643	0.666674
C88	C	0.982169	-0.383584	0.000021
C89	C	1.315502	-0.050250	0.333355
C90	C	1.648836	0.283083	0.666688
C91	C	1.133794	-0.395119	0.000038
C92	C	1.467127	-0.061785	0.333371
C93	C	1.800461	0.271548	0.666704
C94	C	1.134675	-0.344703	0.000046
C95	C	1.468009	-0.011370	0.333379
C96	C	1.801342	0.321964	0.666713
C97	C	1.059303	-0.313728	0.000042
C98	C	1.392637	0.019606	0.333375
C99	C	1.725970	0.352939	0.666709
C100	C	0.983050	-0.333168	0.000029
C101	C	1.316384	0.000165	0.333363
C102	C	1.649717	0.333499	0.666696
C103	C	0.830533	-0.372045	-0.000006
C104	C	1.163866	-0.038712	0.333328
C105	C	1.497200	0.294621	0.666661
C106	C	0.831422	-0.321624	-0.000006
C107	C	1.164755	0.011709	0.333327
C108	C	1.498088	0.345042	0.666660
C109	C	0.907681	-0.302184	0.000007
C110	C	1.241014	0.031149	0.333340
C111	C	1.574348	0.364482	0.666674
C112	C	0.908559	-0.251777	0.000034
C113	C	1.241893	0.081556	0.333367
C114	C	1.575226	0.414889	0.666700
N115	N	0.984814	-0.232334	0.000038
N116	N	1.318147	0.100999	0.333371
N117	N	1.651480	0.434332	0.666704
C118	C	1.060186	-0.263310	0.000042
C119	C	1.393519	0.070024	0.333375
C120	C	1.726852	0.403357	0.666709
C121	C	0.900534	-0.710579	-0.000000
C122	C	1.233868	-0.377246	0.333333
C123	C	1.567201	-0.043912	0.666666
C124	C	0.899652	-0.760997	-0.000000
C125	C	1.232985	-0.427664	0.333333
C126	C	1.566319	-0.094330	0.666666
C127	C	1.051284	-0.772530	0.000009
C128	C	1.384618	-0.439196	0.333342
C129	C	1.717951	-0.105863	0.666676
C130	C	1.052166	-0.722111	0.000016
C131	C	1.385499	-0.388777	0.333349
C132	C	1.718832	-0.055444	0.666682
C133	C	0.976789	-0.691136	0.000004
C134	C	1.310122	-0.357803	0.333337
C135	C	1.643455	-0.024469	0.666671
C136	C	1.062030	-0.157433	0.000060
C137	C	1.395364	0.175901	0.333393
C138	C	1.728697	0.509234	0.666727
C139	C	1.062905	-0.107012	0.000072
C140	C	1.396238	0.226321	0.333405
C141	C	1.729571	0.559655	0.666739
C142	C	0.911273	-0.095484	0.000058
C143	C	1.244606	0.237850	0.333391
C144	C	1.577939	0.571183	0.666725
C145	C	0.910398	-0.145900	0.000051
C146	C	1.243731	0.187434	0.333384
C147	C	1.577064	0.520767	0.666717
C148	C	0.985783	-0.176874	0.000049
C149	C	1.319117	0.156460	0.333382
C150	C	1.652450	0.489793	0.666715
O151	O	0.844576	-0.220761	0.000059
O152	O	1.177909	0.112572	0.333393
O153	O	1.511243	0.445906	0.666726
O154	O	1.125116	-0.242135	0.000035
O155	O	1.458449	0.091198	0.333368
O156	O	1.791783	0.424531	0.666701
C157	C	1.056660	-0.464975	0.000017
C158	C	1.389993	-0.131641	0.333350
C159	C	1.723327	0.201692	0.666684
C160	C	0.980407	-0.484415	0.000005
C161	C	1.313740	-0.151082	0.333338
C162	C	1.647074	0.182252	0.666671
C163	C	0.905035	-0.453440	0.000001
C164	C	1.238368	-0.120106	0.333334
C165	C	1.571702	0.213227	0.666667
C166	C	0.979525	-0.534833	0.000005
C167	C	1.312858	-0.201500	0.333338
C168	C	1.646191	0.131834	0.666671
C169	C	1.054897	-0.565808	0.000009
C170	C	1.388230	-0.232475	0.333342
C171	C	1.721563	0.100858	0.666676
C172	C	1.131151	-0.546365	0.000013
C173	C	1.464484	-0.213032	0.333346
C174	C	1.797818	0.120301	0.666680
C175	C	1.132032	-0.495950	0.000021
C176	C	1.465365	-0.162616	0.333355
C177	C	1.798699	0.170717	0.666688
C178	C	0.828781	-0.472883	-0.000004
C179	C	1.162114	-0.139549	0.333330
C180	C	1.495447	0.193784	0.666663
C181	C	0.827906	-0.523299	-0.000011
C182	C	1.161239	-0.189965	0.333323
C183	C	1.494572	0.143368	0.666656
C184	C	0.903278	-0.554274	-0.000007
C185	C	1.236611	-0.220941	0.333327
C186	C	1.569944	0.112393	0.666660
C187	C	1.133328	0.062443	0.000048
C188	C	1.466661	0.395776	0.333381
C189	C	1.799995	0.729109	0.666714
C190	C	1.225612	0.063382	0.000047
C191	C	1.558945	0.396715	0.333380
C192	C	1.892278	0.730048	0.666714
C193	C	0.974073	0.154369	0.000017
C194	C	1.307406	0.487702	0.333351
C195	C	1.640740	0.821036	0.666684
C196	C	0.975024	0.208028	0.000004
C197	C	1.308357	0.541361	0.333337
C198	C	1.641691	0.874694	0.666671
N199	N	0.981272	0.065994	0.217035
N200	N	1.314605	0.399327	0.550368
N201	N	1.647938	0.732660	0.883701
N202	N	0.981291	0.065994	-0.216955
N203	N	1.314625	0.399327	0.116378
N204	N	1.647958	0.732660	0.449712
C205	C	1.038234	0.033135	0.452053
C206	C	1.371568	0.366468	0.785386
C207	C	1.704901	0.699802	1.118719
C208	C	1.038237	0.033134	0.548034
C209	C	1.371570	0.366467	0.881367
C210	C	1.704903	0.699801	1.214701
C211	C	0.924323	0.098854	0.548020
C212	C	1.257656	0.432187	0.881354
C213	C	1.590990	0.765520	1.214687
C214	C	0.924317	0.098852	0.452041
C215	C	1.257650	0.432185	0.785374
C216	C	1.590984	0.765519	1.118708
C217	C	0.981278	0.065993	0.404060
C218	C	1.314611	0.399327	0.737393
C219	C	1.647944	0.732660	1.070726
C220	C	0.981286	0.065994	0.596020
C221	C	1.314619	0.399327	0.929354
C222	C	1.647952	0.732660	1.262687
C223	C	0.981288	0.065993	0.700087
C224	C	1.314621	0.399326	1.033421
C225	C	1.647954	0.732659	1.366754
C226	C	0.981275	0.065994	0.299986
C227	C	1.314608	0.399327	0.633319
C228	C	1.647941	0.732660	0.966652
H229	H	1.125007	-0.091187	0.000085
H230	H	1.458340	0.242146	0.333419
H231	H	1.791673	0.575479	0.666752
Cl232	Cl	0.602798	-0.032404	0.000068
Cl233	Cl	0.936131	0.300929	0.333401
Cl234	Cl	1.269465	0.634262	0.666734
Cl235	Cl	1.156802	-0.196363	0.000059
Cl236	Cl	1.490135	0.136970	0.333392
Cl237	Cl	1.823469	0.470303	0.666726
Cl238	Cl	0.803779	-0.785429	0.000001
Cl239	Cl	1.137112	-0.452096	0.333334
Cl240	Cl	1.470446	-0.118762	0.666667
H241	H	0.877948	0.125607	0.587097
H242	H	1.211281	0.458941	0.920430
H243	H	1.544615	0.792274	1.253763
Cl244	Cl	1.230549	-0.320272	0.000037
Cl245	Cl	1.563883	0.013061	0.333370
Cl246	Cl	1.897216	0.346395	0.666703
H247	H	0.540913	0.146692	0.000018
H248	H	0.874247	0.480026	0.333351
H249	H	1.207580	0.813359	0.666685
H250	H	0.877932	0.125610	0.412962
H251	H	1.211265	0.458943	0.746296
H252	H	1.544599	0.792276	1.079629
H253	H	0.383617	0.145084	0.000026
H254	H	0.716950	0.478417	0.333360
H255	H	1.050283	0.811751	0.666693
Cl256	Cl	1.148038	-0.697678	0.000031
Cl257	Cl	1.481371	-0.364344	0.333365
Cl258	Cl	1.814704	-0.031011	0.666698
H259	H	1.084615	0.006377	0.587107
H260	H	1.417948	0.339710	0.920441
H261	H	1.751282	0.673044	1.253774
H262	H	0.421636	-0.014700	0.000069
H263	H	0.754969	0.318633	0.333402
H264	H	1.088303	0.651966	0.666736
H265	H	1.084614	0.006379	0.412988
H266	H	1.417947	0.339712	0.746322
H267	H	1.751280	0.673045	1.079655
H268	H	0.839149	-0.685363	-0.000010
H269	H	1.172483	-0.352030	0.333324
H270	H	1.505816	-0.018696	0.666657
H271	H	0.767402	-0.447667	-0.000009
H272	H	1.100735	-0.114334	0.333324
H273	H	1.434069	0.219000	0.666658
Cl274	Cl	1.146037	-0.811479	0.000010
Cl275	Cl	1.479370	-0.478146	0.333343
Cl276	Cl	1.812704	-0.144813	0.666677
Cl277	Cl	1.228561	-0.434051	0.000045
Cl278	Cl	1.561894	-0.100717	0.333378
Cl279	Cl	1.895228	0.232616	0.666711
Cl280	Cl	0.736655	-0.282687	-0.000022
Cl281	Cl	1.069989	0.050646	0.333311
Cl282	Cl	1.403322	0.383979	0.666644
Cl283	Cl	0.734658	-0.396471	-0.000029
Cl284	Cl	1.067991	-0.063138	0.333305
Cl285	Cl	1.401324	0.270195	0.666638
Cl286	Cl	0.814528	-0.170339	0.000051
Cl287	Cl	1.147861	0.162994	0.333384
Cl288	Cl	1.481195	0.496327	0.666718
Cl289	Cl	0.816525	-0.056534	0.000051
Cl290	Cl	1.149858	0.276799	0.333384
Cl291	Cl	1.483191	0.610132	0.666717
H292	H	1.194130	-0.480127	0.000032
H293	H	1.527463	-0.146794	0.333365
H294	H	1.860797	0.186540	0.666699
Cl295	Cl	1.225903	-0.585315	0.000022
Cl296	Cl	1.559236	-0.251982	0.333356
Cl297	Cl	1.892570	0.081351	0.666689
Cl298	Cl	0.732027	-0.547730	-0.000023
Cl299	Cl	1.065360	-0.214397	0.333310
Cl300	Cl	1.398693	0.118936	0.666643
