data_functionalizedCrystal
_audit_creation_method	'MofGen! by Chris Wilmer'
_symmetry_space_group_name_H-M	'P1'
_symmetry_Int_Tables_number	1
_symmetry_cell_setting	triclinic
loop_
_symmetry_equiv_pos_as_xyz
  x,y,z
_cell_length_a	12.759401
_cell_length_b	16.120484
_cell_length_c	12.759393
_cell_angle_alpha	87.137118
_cell_angle_beta	90.018496
_cell_angle_gamma	92.925560
loop_
_atom_site_label
_atom_site_type_symbol
_atom_site_fract_x
_atom_site_fract_y
_atom_site_fract_z
Zn1	Zn	1.584972	-0.331853	0.615146
Zn2	Zn	2.084972	0.168147	1.115146
Zn3	Zn	1.575923	-0.471291	0.448359
Zn4	Zn	2.075923	0.028709	0.948359
Zn5	Zn	1.409271	-0.331897	0.439488
Zn6	Zn	1.909271	0.168103	0.939488
Zn7	Zn	1.400324	-0.471227	0.623996
Zn8	Zn	1.900324	0.028773	1.123996
O9	O	1.492622	-0.401567	0.531747
O10	O	1.992622	0.098433	1.031747
O11	O	1.730792	-0.350358	0.593030
O12	O	2.230792	0.149642	1.093030
O13	O	1.553774	-0.452845	0.300164
O14	O	2.053774	0.047155	0.800164
O15	O	1.440109	-0.215226	0.455373
O16	O	1.940109	0.284774	0.955373
O17	O	1.724144	-0.452803	0.470492
O18	O	2.224144	0.047197	0.970492
O19	O	1.569196	-0.215194	0.584428
O20	O	2.069196	0.284806	1.084428
O21	O	1.431335	-0.350433	0.293646
O22	O	1.931335	0.149567	0.793646
O23	O	1.261064	-0.350370	0.463955
O24	O	1.761064	0.149630	0.963955
O25	O	1.424860	-0.452693	0.769840
O26	O	1.924860	0.047307	1.269840
O27	O	1.254490	-0.452736	0.599512
O28	O	1.754490	0.047264	1.099512
O29	O	1.560520	-0.350296	0.763338
O30	O	2.060520	0.149704	1.263338
O31	O	1.545098	-0.587947	0.479074
O32	O	2.045098	-0.087947	0.979074
O33	O	1.416086	-0.587900	0.608114
O34	O	1.916086	-0.087900	1.108114
C35	C	1.219656	-0.401551	0.531732
C36	C	1.719656	0.098449	1.031732
C37	C	1.102879	-0.401565	0.531752
C38	C	1.602879	0.098435	1.031752
C39	C	1.044616	-0.454952	0.602231
C40	C	1.544616	0.045048	1.102231
C41	C	0.934891	-0.454962	0.602243
C42	C	1.434891	0.045038	1.102243
C43	C	0.941702	-0.348197	0.461287
C44	C	1.441702	0.151803	0.961287
C45	C	1.051425	-0.348183	0.461281
C46	C	1.551425	0.151817	0.961281
C47	C	1.096069	-0.508334	0.672701
C48	C	1.596069	-0.008334	1.172701
C49	C	1.037806	-0.561726	0.743185
C50	C	1.537806	-0.061726	1.243185
C51	C	0.928081	-0.561736	0.743197
C52	C	1.428081	-0.061736	1.243197
C53	C	0.876620	-0.508355	0.672725
C54	C	1.376620	-0.008355	1.172725
C55	C	1.478668	-0.618174	0.545540
C56	C	1.978668	-0.118174	1.045540
C57	C	1.472794	-0.710839	0.551475
C58	C	1.972794	-0.210839	1.051475
C59	C	1.462076	-0.880500	0.562334
C60	C	1.962076	-0.380500	1.062334
C61	C	1.523357	-0.921793	0.501178
C62	C	2.023357	-0.421793	1.001178
C63	C	1.517393	-1.016198	0.507219
C64	C	2.017393	-0.516198	1.007219
C65	C	1.468038	-0.786086	0.556293
C66	C	1.968038	-0.286086	1.056293
C67	C	1.766655	-0.401583	0.531763
C68	C	2.266655	0.098417	1.031763
C69	C	1.883431	-0.401590	0.531770
C70	C	2.383431	0.098410	1.031770
C71	C	1.492701	-0.401483	0.805775
C72	C	1.992701	0.098517	1.305775
C73	C	1.492735	-0.401447	0.922550
C74	C	1.992735	0.098553	1.422550
C75	C	1.506660	-0.184114	0.517924
C76	C	2.006660	0.315886	1.017924
C77	C	1.512642	-0.091448	0.512033
C78	C	2.012642	0.408552	1.012033
C79	C	1.492608	-0.401590	0.258781
C80	C	1.992608	0.098410	0.758781
C81	C	1.492793	-0.401391	0.141992
C82	C	1.992793	0.098609	0.641992
C83	C	1.563383	-0.348123	0.974027
C84	C	2.063383	0.151877	1.474027
C85	C	1.563410	-0.348093	1.083750
C86	C	2.063410	0.151907	1.583750
C87	C	1.422138	-0.454717	1.090507
C88	C	1.922138	0.045283	1.590507
C89	C	1.422106	-0.454742	0.980787
C90	C	1.922106	0.045258	1.480787
C91	C	1.634011	-0.294828	0.915790
C92	C	2.134011	0.205172	1.415790
C93	C	1.704666	-0.241501	0.967268
C94	C	2.204666	0.258499	1.467268
C95	C	1.704693	-0.241471	1.076990
C96	C	2.204693	0.258529	1.576990
C97	C	1.634065	-0.294768	1.135235
C98	C	2.134065	0.205232	1.635235
H99	H	1.580299	-0.886244	0.444283
H100	H	2.080299	-0.386244	0.944283
C101	C	1.385147	-0.928517	0.639179
C102	C	1.885147	-0.428517	1.139179
H103	H	1.391176	-0.986587	0.633196
H104	H	1.891176	-0.486587	1.133196
H105	H	1.401355	-0.914244	0.708892
H106	H	1.901355	-0.414244	1.208892
H107	H	1.315440	-0.914358	0.622837
H108	H	1.815440	-0.414358	1.122837
H109	H	1.634000	-0.294848	0.826449
H110	H	2.134000	0.205152	1.326449
C111	C	0.755926	-0.508360	0.672740
C112	C	1.255926	-0.008360	1.172740
H113	H	0.733625	-0.468922	0.620679
H114	H	1.233625	0.031078	1.120679
H115	H	0.727634	-0.562144	0.657890
H116	H	1.227634	-0.062144	1.157890
H117	H	0.732060	-0.494002	0.739661
H118	H	1.232060	0.005998	1.239661
C119	C	1.634097	-0.294735	1.255927
C120	C	2.134097	0.205265	1.755927
H121	H	1.686292	-0.255347	1.278246
H122	H	2.186292	0.244653	1.778246
H123	H	1.567238	-0.280310	1.279832
H124	H	2.067238	0.219690	1.779832
H125	H	1.648806	-0.348534	1.284160
H126	H	2.148806	0.151466	1.784160
H127	H	1.364563	-0.498150	0.938872
H128	H	1.864563	0.001850	1.438872
C129	C	1.782347	-0.182878	0.903204
C130	C	2.282347	0.317122	1.403204
H131	H	1.772221	-0.190537	0.830486
H132	H	2.272221	0.309463	1.330486
H133	H	1.770597	-0.126856	0.917626
H134	H	2.270597	0.373144	1.417626
H135	H	1.852157	-0.195087	0.921969
H136	H	2.352157	0.304913	1.421969
H137	H	1.364636	-0.498108	1.137939
H138	H	1.864636	0.001892	1.637939
C139	C	1.216762	-0.508320	0.672696
C140	C	1.716762	-0.008320	1.172696
H141	H	1.239064	-0.547753	0.724763
H142	H	1.739064	-0.047753	1.224763
H143	H	1.240637	-0.522664	0.605778
H144	H	1.740637	-0.022664	1.105778
H145	H	1.245045	-0.454532	0.687562
H146	H	1.745045	0.045468	1.187562
C147	C	1.094409	-0.620443	0.820694
C148	C	1.594409	-0.120443	1.320694
H149	H	1.168100	-0.612798	0.810586
H150	H	1.668100	-0.112798	1.310586
H151	H	1.077240	-0.608316	0.890541
H152	H	1.577240	-0.108316	1.390541
H153	H	1.072815	-0.676446	0.808755
H154	H	1.572815	-0.176446	1.308755
C155	C	0.863990	-0.620458	0.820726
C156	C	1.363990	-0.120458	1.320726
H157	H	0.791273	-0.612817	0.810648
H158	H	1.291273	-0.112817	1.310648
H159	H	0.878365	-0.676456	0.808797
H160	H	1.378365	-0.176456	1.308797
H161	H	0.882783	-0.608317	0.890571
H162	H	1.382783	-0.108317	1.390571
C163	C	1.782406	-0.182814	1.133613
C164	C	2.282406	0.317186	1.633613
H165	H	1.824467	-0.151084	1.083212
H166	H	2.324467	0.348916	1.583212
H167	H	1.744580	-0.146473	1.174107
H168	H	2.244580	0.353527	1.674107
H169	H	1.826136	-0.214707	1.178441
H170	H	2.326136	0.285293	1.678441
C171	C	0.885101	-0.289486	0.383769
C172	C	1.385101	0.210514	0.883769
H173	H	0.935517	-0.257683	0.341798
H174	H	1.435517	0.242317	0.841798
H175	H	0.840234	-0.321340	0.339957
H176	H	1.340234	0.178660	0.839957
H177	H	0.844646	-0.253202	0.421734
H178	H	1.344646	0.246798	0.921734
C179	C	1.115518	-0.289455	0.383761
C180	C	1.615518	0.210545	0.883761
H181	H	1.069161	-0.257671	0.341784
H182	H	1.569161	0.242329	0.841784
H183	H	1.160664	-0.253166	0.421722
H184	H	1.660664	0.246834	0.921722
H185	H	1.156260	-0.321298	0.339938
H186	H	1.656260	0.178702	0.839938
