data_functionalizedCrystal
_audit_creation_method	'MofGen! by Chris Wilmer'
_symmetry_space_group_name_H-M	'P1'
_symmetry_Int_Tables_number	1
_symmetry_cell_setting	triclinic
loop_
_symmetry_equiv_pos_as_xyz
  x,y,z
_cell_length_a	6.817900
_cell_length_b	11.102237
_cell_length_c	14.858572
_cell_angle_alpha	93.468276
_cell_angle_beta	104.524003
_cell_angle_gamma	108.604801
loop_
_atom_site_label
_atom_site_type_symbol
_atom_site_fract_x
_atom_site_fract_y
_atom_site_fract_z
V1	V	-4.064544	-0.176639	-0.289962
O2	O	-4.024474	0.007665	-0.284440
O3	O	-4.041639	-0.349454	-0.287981
O4	O	-4.020834	-0.174283	-0.416424
O5	O	-4.045423	-0.168718	-0.155108
V6	V	-4.544261	-0.154552	-0.273832
O7	O	-4.334152	-0.225090	-0.325344
O8	O	-4.724850	-0.106101	-0.238450
O9	O	-4.343959	0.018263	-0.275814
O10	O	-4.701727	-0.338856	-0.279354
O11	O	-4.680778	-0.162472	-0.408686
O12	O	-4.364764	-0.156908	-0.147371
C13	C	-3.892690	-0.391572	-0.283407
C14	C	-3.955281	-0.532852	-0.282630
C15	C	-4.031063	-0.617607	-0.367431
C16	C	-4.089866	-0.750355	-0.366700
C17	C	-3.997102	-0.713581	-0.196360
C18	C	-3.938287	-0.580835	-0.197092
C19	C	-4.048057	-0.569624	-0.452969
C20	C	-4.123846	-0.654380	-0.537777
C21	C	-4.182649	-0.787128	-0.537046
C22	C	-4.165662	-0.835120	-0.451508
C23	C	-3.866150	-0.168122	-0.447248
C24	C	-3.911865	-0.167339	-0.550631
C25	C	-4.079182	-0.164479	-0.929199
C26	C	-4.032621	-0.165275	-0.823869
C27	C	-3.995525	-0.165910	-0.739918
C28	C	-3.948961	-0.166704	-0.634582
C29	C	-4.156251	0.060374	-0.280385
C30	C	-4.072899	0.201654	-0.281168
C31	C	-4.182790	-0.163073	-0.116542
C32	C	-4.116313	-0.163849	-0.013158
H33	H	-4.137654	-0.615295	-0.607419
N34	N	-3.987943	-0.434026	-0.453718
N35	N	-3.799266	-0.361557	-0.412440
H36	H	-3.756807	-0.265790	-0.412968
N37	N	-3.979744	-0.762576	-0.108981
N38	N	-3.800414	-0.730428	-0.048445
H39	H	-3.788158	-0.765027	0.013270
N40	N	-4.260027	-0.873686	-0.623677
N41	N	-4.275172	-0.830821	-0.700039
H42	H	-4.329826	-0.891950	-0.761226
H43	H	-4.213522	-0.943213	-0.450919
N44	N	-3.860857	-0.494269	-0.110462
N45	N	-3.845702	-0.537124	-0.034097
H46	H	-3.791004	-0.475987	0.027088
