data_functionalizedCrystal
_audit_creation_method	'MofGen! by Chris Wilmer'
_symmetry_space_group_name_H-M	'P1'
_symmetry_Int_Tables_number	1
_symmetry_cell_setting	triclinic
loop_
_symmetry_equiv_pos_as_xyz
  x,y,z
_cell_length_a	14.044220
_cell_length_b	12.503572
_cell_length_c	14.044220
_cell_angle_alpha	86.156832
_cell_angle_beta	93.188878
_cell_angle_gamma	93.835250
loop_
_atom_site_label
_atom_site_type_symbol
_atom_site_fract_x
_atom_site_fract_y
_atom_site_fract_z
O1	O	1.282200	0.089210	0.225116
O2	O	1.005530	0.089237	0.216809
O3	O	1.139712	0.089213	0.082627
O4	O	1.148019	0.089234	0.359298
O5	O	1.129622	-0.089427	0.092737
O6	O	0.995440	-0.089403	0.226918
O7	O	1.272110	-0.089430	0.235226
Cu8	Cu	1.132854	-0.105728	0.231995
Cu9	Cu	1.144786	0.105535	0.220040
O10	O	1.137929	-0.089406	0.369407
C11	C	0.964864	-0.000080	0.218228
C12	C	0.858721	-0.000070	0.207383
C13	C	0.664382	-0.000092	0.187558
C14	C	0.613253	-0.000091	0.264472
C15	C	0.505116	-0.000104	0.253441
C16	C	0.772529	-0.000080	0.198587
N17	N	1.124469	-0.254319	0.240404
C18	C	1.112134	-0.473432	0.252782
C19	C	1.165511	-0.526768	0.199249
C20	C	1.158648	-0.648690	0.206136
C21	C	1.118996	-0.351499	0.245896
C22	C	1.312777	-0.000111	0.233807
C23	C	1.418920	-0.000114	0.244651
C24	C	1.131031	-0.000107	0.052060
C25	C	1.120187	-0.000107	-0.054082
N26	N	1.153179	0.254126	0.211624
C27	C	1.100361	-0.000090	-0.248421
C28	C	1.177275	-0.000094	-0.299551
C29	C	1.166244	-0.000084	-0.407687
C30	C	1.111391	-0.000099	-0.140274
C31	C	1.146609	-0.000084	0.399974
C32	C	1.157454	-0.000077	0.506117
H33	H	0.626945	-0.000104	0.113431
C34	C	0.931298	-0.000078	-0.230711
C35	C	1.000288	-0.000079	-0.298954
H36	H	0.869520	-0.000066	-0.261919
H37	H	0.935270	-0.062373	-0.188456
H38	H	0.942310	0.062219	-0.195488
H39	H	0.989280	-0.062380	-0.334173
H40	H	0.996313	0.062223	-0.341227
C41	C	0.642471	0.091779	0.409002
C42	C	0.663778	-0.000061	0.364556
H43	H	0.673660	0.091796	0.470790
H44	H	0.663929	0.154056	0.371769
H45	H	0.575374	0.091757	0.414604
H46	H	0.730875	-0.000035	0.358947
H47	H	0.642325	-0.062354	0.401798
C48	C	0.995456	-0.462434	0.369805
C49	C	1.043488	-0.535390	0.321634
H50	H	0.953075	-0.500696	0.412306
H51	H	1.040589	-0.418570	0.405020
H52	H	0.960117	-0.418570	0.324754
H53	H	1.078833	-0.579249	0.366684
H54	H	0.998349	-0.579272	0.286417
H55	H	1.216364	-0.480864	0.148245
C56	C	1.269056	-0.000133	-0.150119
C57	C	1.277354	-0.000120	-0.249015
H58	H	1.330838	-0.000158	-0.118919
H59	H	1.238887	0.062165	-0.135697
H60	H	1.231827	-0.062427	-0.128669
H61	H	1.314578	0.062178	-0.270466
H62	H	1.307537	-0.062425	-0.263444
