data_functionalizedCrystal
_audit_creation_method	'MofGen! by Chris Wilmer'
_symmetry_space_group_name_H-M	'P1'
_symmetry_Int_Tables_number	1
_symmetry_cell_setting	triclinic
loop_
_symmetry_equiv_pos_as_xyz
  x,y,z
_cell_length_a	12.837942
_cell_length_b	12.811445
_cell_length_c	15.186229
_cell_angle_alpha	95.435588
_cell_angle_beta	89.996406
_cell_angle_gamma	90.587018
loop_
_atom_site_label
_atom_site_type_symbol
_atom_site_fract_x
_atom_site_fract_y
_atom_site_fract_z
O1	O	0.139716	-1.406647	-0.185553
O2	O	0.154898	-1.102581	-0.161274
O3	O	-0.003625	-1.247872	-0.172869
O4	O	0.298239	-1.261357	-0.173957
O5	O	-0.003629	-1.247859	-0.026411
O6	O	0.154894	-1.102568	-0.014816
O7	O	0.139713	-1.406634	-0.039094
Zn8	Zn	0.147303	-1.254599	-0.003701
Zn9	Zn	0.147307	-1.254616	-0.196667
O10	O	0.298236	-1.261343	-0.027499
C11	C	-0.042267	-1.243310	-0.099277
C12	C	-0.157403	-1.229724	-0.098194
C13	C	0.154044	-1.063385	-0.084916
C14	C	0.151493	-0.946613	-0.075591
C15	C	0.140566	-1.445830	-0.115455
C16	C	0.143118	-1.562603	-0.124784
C17	C	-0.397653	-1.393054	-0.111253
C18	C	-0.505835	-1.380293	-0.110236
C19	C	-0.481949	-1.191443	-0.095148
C20	C	-0.373768	-1.204204	-0.096165
C21	C	-0.331624	-1.305012	-0.104217
C22	C	-0.223441	-1.317772	-0.105228
C23	C	-0.199557	-1.128923	-0.090146
C24	C	-0.307738	-1.116162	-0.089129
C25	C	0.336878	-1.265905	-0.101093
C26	C	0.452014	-1.279491	-0.102182
C27	C	0.146722	-0.727195	-0.217756
C28	C	0.144325	-0.617477	-0.208999
C29	C	0.144310	-0.617454	-0.049321
C30	C	0.146707	-0.727173	-0.058078
C31	C	0.147911	-0.782040	-0.142298
C32	C	0.150300	-0.891761	-0.151055
C33	C	0.150293	-0.891736	0.008622
C34	C	0.147896	-0.782017	0.017379
N35	N	0.147299	-1.254594	0.127992
C36	C	0.077130	-1.318959	0.440773
C37	C	0.077130	-1.318956	0.348584
C38	C	0.217482	-1.190257	0.358865
C39	C	0.217486	-1.190266	0.451053
C40	C	0.147304	-1.254615	0.492004
C41	C	0.147300	-1.254604	0.307627
C42	C	0.147301	-1.254600	0.207672
C43	C	0.147304	-1.254620	0.591966
N44	N	0.147305	-1.254624	0.671640
H45	H	-0.189130	-1.399855	-0.111781
H46	H	0.019989	-1.371352	0.306873
H47	H	-0.559593	-1.451986	-0.115969
H48	H	0.274636	-1.137869	0.492768
H49	H	0.274622	-1.137864	0.325513
Br50	Br	-0.109940	-1.009430	-0.080580
H51	H	-0.363340	-1.475136	-0.117801
H52	H	0.019985	-1.371357	0.474113
H53	H	-0.342067	-1.034087	-0.082577
Br54	Br	-0.539163	-1.054643	-0.084253
Br55	Br	0.151884	-0.966174	0.111036
H56	H	0.147698	-0.771869	-0.286331
H57	H	0.151280	-0.936432	-0.219631
H58	H	0.143360	-0.572827	-0.270444
H59	H	0.146919	-0.737330	0.085949
Br60	Br	0.142699	-0.542974	0.064968
