data_functionalizedCrystal
_audit_creation_method	'MofGen! by Chris Wilmer'
_symmetry_space_group_name_H-M	'P1'
_symmetry_Int_Tables_number	1
_symmetry_cell_setting	triclinic
loop_
_symmetry_equiv_pos_as_xyz
  x,y,z
_cell_length_a	13.033808
_cell_length_b	13.032721
_cell_length_c	10.686551
_cell_angle_alpha	93.335252
_cell_angle_beta	93.339964
_cell_angle_gamma	103.361820
loop_
_atom_site_label
_atom_site_type_symbol
_atom_site_fract_x
_atom_site_fract_y
_atom_site_fract_z
Zn1	Zn	1.606156	-0.180236	-0.495142
Zn2	Zn	2.106156	0.319764	0.004858
Zn3	Zn	1.570626	-0.370746	-0.318779
Zn4	Zn	2.070626	0.129254	0.181221
Zn5	Zn	1.415683	-0.215724	-0.318763
Zn6	Zn	1.915683	0.284276	0.181237
Zn7	Zn	1.410319	-0.376033	-0.555087
Zn8	Zn	1.910319	0.123967	-0.055087
O9	O	1.500696	-0.285685	-0.421943
O10	O	2.000696	0.214315	0.078057
O11	O	1.748246	-0.188442	-0.446667
O12	O	2.248246	0.311558	0.053333
O13	O	1.537447	-0.362821	-0.146066
O14	O	2.037447	0.137179	0.353934
O15	O	1.458065	-0.064198	-0.317066
O16	O	1.958065	0.435802	0.182934
O17	O	1.722141	-0.328409	-0.317094
O18	O	2.222141	0.171591	0.182906
O19	O	1.598004	-0.038125	-0.446651
O20	O	2.098004	0.461875	0.053349
O21	O	1.423612	-0.248927	-0.146054
O22	O	1.923612	0.251073	0.353946
O23	O	1.268169	-0.254055	-0.375192
O24	O	1.768169	0.245945	0.124808
O25	O	1.448922	-0.337421	-0.719846
O26	O	1.948922	0.162579	-0.219846
O27	O	1.264228	-0.371833	-0.548818
O28	O	1.764228	0.128167	-0.048818
O29	O	1.592803	-0.193569	-0.675805
O30	O	2.092803	0.306431	-0.175805
O31	O	1.532246	-0.518266	-0.375220
O32	O	2.032246	-0.018266	0.124780
O33	O	1.414470	-0.522150	-0.548834
O34	O	1.914470	-0.022150	-0.048834
C35	C	1.228135	-0.317369	-0.468509
C36	C	1.728135	0.182631	0.031491
C37	C	1.111531	-0.330947	-0.488463
C38	C	1.611531	0.169053	0.011537
C39	C	0.940972	-0.292647	-0.432178
C40	C	1.440972	0.207353	0.067822
C41	C	1.061487	-0.278615	-0.411550
C42	C	1.561487	0.221385	0.088450
C43	C	1.468951	-0.558271	-0.468556
C44	C	1.968951	-0.058271	0.031444
C45	C	1.455469	-0.674871	-0.488521
C46	C	1.955469	-0.174871	0.011479
C47	C	1.507792	-0.724887	-0.411568
C48	C	2.007792	-0.224887	0.088432
C49	C	1.493859	-0.845399	-0.432202
C50	C	1.993859	-0.345399	0.067798
C51	C	1.774322	-0.253877	-0.375196
C52	C	2.274322	0.246123	0.124804
C53	C	1.890925	-0.240323	-0.355275
C54	C	2.390925	0.259677	0.144725
C55	C	1.524228	-0.262126	-0.743860
C56	C	2.024228	0.237874	-0.243860
C57	C	1.534256	-0.252087	-0.881042
C58	C	2.034256	0.247913	-0.381042
C59	C	1.532596	-0.012028	-0.375170
C60	C	2.032596	0.487972	0.124830
C61	C	1.546190	0.104588	-0.355239
C62	C	2.046190	0.604588	0.144761
C63	C	1.477325	-0.309069	-0.101255
C64	C	1.977325	0.190931	0.398745
C65	C	1.467535	-0.318789	0.036011
C66	C	1.967535	0.181211	0.536011
H67	H	1.107857	-0.223430	-0.330429
H68	H	1.607857	0.276570	0.169571
C69	C	1.419400	-0.908071	-0.541851
C70	C	1.919400	-0.408071	-0.041851
N71	N	1.363316	-0.955278	-0.624434
N72	N	1.863316	-0.455278	-0.124434
H73	H	1.400363	-0.721267	-0.569684
H74	H	1.900363	-0.221267	-0.069684
H75	H	1.402744	-0.383578	-0.930055
H76	H	1.902744	0.116422	-0.430055
C77	C	0.953571	-0.165764	-0.245698
C78	C	1.453571	0.334236	0.254302
N79	N	1.000755	-0.109602	-0.163164
N80	N	1.500755	0.390398	0.336836
H81	H	0.894596	-0.347837	-0.513285
H82	H	1.394596	0.152163	-0.013285
C83	C	1.048892	-0.405506	-0.598051
C84	C	1.548892	0.094494	-0.098051
N85	N	1.001712	-0.461661	-0.680593
N86	N	1.501712	0.038339	-0.180593
H87	H	1.601309	-0.849019	-0.274079
H88	H	2.101309	-0.349019	0.225921
C89	C	1.621795	-0.164555	-0.926886
C90	C	2.121795	0.335445	-0.426886
N91	N	1.687726	-0.098625	-0.961418
N92	N	2.187726	0.401375	-0.461418
C93	C	1.582246	-0.662212	-0.301923
C94	C	2.082246	-0.162212	0.198077
N95	N	1.638324	-0.615006	-0.219335
N96	N	2.138324	-0.115006	0.280665
