data_functionalizedCrystal
_audit_creation_method	'MofGen! by Chris Wilmer'
_symmetry_space_group_name_H-M	'P1'
_symmetry_Int_Tables_number	1
_symmetry_cell_setting	triclinic
loop_
_symmetry_equiv_pos_as_xyz
  x,y,z
_cell_length_a	17.699097
_cell_length_b	16.956984
_cell_length_c	16.176319
_cell_angle_alpha	89.992579
_cell_angle_beta	89.988988
_cell_angle_gamma	79.670925
loop_
_atom_site_label
_atom_site_type_symbol
_atom_site_fract_x
_atom_site_fract_y
_atom_site_fract_z
O1	O	0.997935	0.100901	-0.068815
O2	O	0.776761	0.114011	-0.068802
O3	O	0.900636	-0.008648	-0.068803
O4	O	0.874060	0.223560	-0.068813
O5	O	0.900621	-0.008655	0.068690
O6	O	0.776746	0.114004	0.068691
O7	O	0.997920	0.100894	0.068678
Cu8	Cu	0.887331	0.107448	0.081239
Cu9	Cu	0.887350	0.107457	-0.081363
O10	O	0.874045	0.223553	0.068680
C11	C	0.748585	0.113536	-0.000053
C12	C	0.664654	0.112121	-0.000048
C13	C	0.149471	0.103454	-0.075029
C14	C	0.228335	0.104778	-0.075025
C15	C	0.267752	0.105437	-0.000074
C16	C	0.228303	0.104764	0.074878
C17	C	0.149442	0.103434	0.074873
C18	C	0.546341	0.110124	0.074900
C19	C	0.625207	0.111456	0.074899
C20	C	0.625234	0.111468	-0.074998
C21	C	0.546373	0.110139	-0.075003
C22	C	0.506932	0.109461	-0.000052
C23	C	0.421419	0.108024	-0.000057
C24	C	0.353262	0.106880	-0.000068
C25	C	0.901989	-0.038362	-0.000057
C26	C	0.906035	-0.126890	-0.000058
C27	C	0.838388	-0.158847	-0.000058
C28	C	0.842194	-0.242029	-0.000056
C29	C	0.913648	-0.293254	-0.000060
C30	C	0.981300	-0.261292	-0.000058
C31	C	0.977493	-0.178111	-0.000054
C32	C	0.932491	-0.543062	-0.000067
C33	C	0.936293	-0.626248	-0.000073
C34	C	0.797186	-0.606980	-0.000069
C35	C	0.793386	-0.523798	-0.000070
C36	C	0.861038	-0.491843	-0.000064
N37	N	0.917540	-0.378280	-0.000061
N38	N	0.857145	-0.406819	-0.000057
C39	C	1.026096	0.101369	-0.000072
C40	C	1.110027	0.102784	-0.000083
C41	C	0.872692	0.253267	-0.000068
C42	C	0.868646	0.341795	-0.000073
N43	N	0.887324	0.107441	0.195604
N44	N	0.887363	0.107458	-0.195728
C45	C	0.942190	0.053150	0.238868
C46	C	0.942194	0.053149	0.325415
C47	C	0.887335	0.107444	0.368697
C48	C	0.832463	0.161737	0.325427
C49	C	0.832456	0.161734	0.238882
C50	C	0.832488	0.161752	0.674456
C51	C	0.832500	0.161753	0.761007
C52	C	0.942225	0.053167	0.760988
C53	C	0.942219	0.053164	0.674443
C54	C	0.887345	0.107454	0.631181
C55	C	0.887341	0.107454	0.537337
C56	C	0.887342	0.107449	0.462539
H57	H	0.260447	0.105319	-0.136053
H58	H	0.787824	0.205968	0.796246
H59	H	0.780202	-0.117145	-0.000058
H60	H	0.657357	0.112016	-0.136027
H61	H	0.514283	0.109606	-0.136036
H62	H	0.787778	0.205942	0.203657
O63	O	0.663492	0.111947	0.147732
C64	C	0.700464	0.043293	0.275867
C65	C	0.657093	0.042627	0.193412
H66	H	0.695292	-0.012738	0.312831
H67	H	0.763621	0.044311	0.263042
H68	H	0.674540	0.098839	0.312799
H69	H	0.682952	-0.012910	0.156440
H70	H	0.593939	0.041651	0.206296
H71	H	0.514240	0.109561	0.135929
O72	O	0.723912	-0.474155	-0.000021
C73	C	0.586339	-0.463824	-0.000055
C74	C	0.664967	-0.520136	-0.000090
H75	H	0.538662	-0.500977	-0.000129
H76	H	0.581025	-0.424424	0.057502
H77	H	0.581125	-0.424373	-0.057579
H78	H	0.670235	-0.559637	0.057395
H79	H	0.670246	-0.559481	-0.057686
H80	H	0.742108	-0.633006	-0.000073
O81	O	0.776407	-0.272939	-0.000092
C82	C	0.638031	-0.245049	-0.000038
C83	C	0.712478	-0.209939	-0.000020
H84	H	0.586326	-0.194131	0.000038
H85	H	0.636289	-0.283477	-0.057591
H86	H	0.636371	-0.283543	0.057490
H87	H	0.714188	-0.171410	-0.057509
H88	H	0.714191	-0.171557	0.057571
H89	H	0.260404	0.105295	0.135904
O90	O	0.111233	0.102822	0.147750
C91	C	0.119534	0.102898	0.296433
C92	C	0.162893	0.103618	0.213958
H93	H	0.161285	0.103525	0.349984
H94	H	0.072213	0.158076	0.300236
H95	H	0.093009	0.046498	0.300132
H96	H	0.189467	0.159981	0.210204
H97	H	0.210174	0.048402	0.210190
H98	H	0.994483	-0.667954	-0.000082
O99	O	0.998280	-0.512161	-0.000099
C100	C	1.136656	-0.540058	-0.000050
C101	C	1.062207	-0.575164	-0.000034
H102	H	1.188359	-0.590979	0.000021
H103	H	1.138417	-0.501614	-0.057599
H104	H	1.138302	-0.501581	0.057483
H105	H	1.060511	-0.613676	-0.057527
H106	H	1.060475	-0.613562	0.057554
H107	H	1.039480	-0.303006	-0.000056
H108	H	0.787809	0.205959	0.639238
O109	O	0.779193	0.214587	0.367376
C110	C	0.726181	0.353315	0.393877
C111	C	0.786536	0.293548	0.346309
H112	H	0.732108	0.417168	0.376876
H113	H	0.666191	0.343061	0.376863
H114	H	0.735600	0.343955	0.463162
H115	H	0.777189	0.302872	0.277014
H116	H	0.846505	0.303818	0.363392
H117	H	0.986905	0.008958	0.796222
H118	H	1.032579	-0.152094	-0.000053
H119	H	0.986866	0.008940	0.203633
H120	H	0.986893	0.008955	0.639205
O121	O	0.111307	0.102784	-0.147911
C122	C	0.119657	0.102986	-0.296593
C123	C	0.162972	0.103729	-0.214112
H124	H	0.161406	0.103767	-0.350138
H125	H	0.093175	0.046564	-0.300401
H126	H	0.072304	0.158141	-0.300299
H127	H	0.210359	0.048613	-0.210351
H128	H	0.189399	0.160188	-0.210339
O129	O	0.995574	0.000389	0.367312
C130	C	1.104400	-0.107329	0.358161
C131	C	1.043996	-0.047610	0.310610
H132	H	1.143555	-0.146163	0.312337
H133	H	1.140105	-0.072973	0.398635
H134	H	1.074216	-0.147099	0.398722
H135	H	1.074117	-0.007825	0.270003
H136	H	1.008295	-0.082016	0.270188
