data_functionalizedCrystal
_audit_creation_method	'MofGen! by Chris Wilmer'
_symmetry_space_group_name_H-M	'P1'
_symmetry_Int_Tables_number	1
_symmetry_cell_setting	triclinic
loop_
_symmetry_equiv_pos_as_xyz
  x,y,z
_cell_length_a	17.699083
_cell_length_b	10.967829
_cell_length_c	16.776229
_cell_angle_alpha	77.865496
_cell_angle_beta	89.998886
_cell_angle_gamma	84.013885
loop_
_atom_site_label
_atom_site_type_symbol
_atom_site_fract_x
_atom_site_fract_y
_atom_site_fract_z
O1	O	1.005076	0.157800	-0.087851
O2	O	0.784827	0.178331	-0.090697
O3	O	0.900030	-0.013602	-0.064315
O4	O	0.889874	0.349733	-0.114232
O5	O	0.900014	-0.013613	0.068263
O6	O	0.784812	0.178319	0.041881
O7	O	1.005061	0.157789	0.044727
Zn8	Zn	0.894934	0.168052	0.064354
Zn9	Zn	0.894954	0.168067	-0.110324
O10	O	0.889859	0.349721	0.018346
C11	C	0.756618	0.177589	-0.024310
C12	C	0.672586	0.175382	-0.024017
C13	C	0.899282	-0.060095	0.008359
C14	C	0.897067	-0.198615	0.027383
C15	C	0.624677	0.288042	-0.039495
C16	C	0.545721	0.285961	-0.039198
C17	C	0.514675	0.171219	-0.023430
C18	C	0.562590	0.058550	-0.007949
C19	C	0.641545	0.060632	-0.008239
C20	C	0.244173	0.050149	-0.006775
C21	C	0.165212	0.048076	-0.006488
C22	C	0.148350	0.275478	-0.037734
C23	C	0.227305	0.277561	-0.038025
C24	C	0.275213	0.164893	-0.022539
C25	C	0.360826	0.167150	-0.022859
C26	C	0.429063	0.168959	-0.023116
C27	C	0.896088	-0.260359	-0.032815
C28	C	0.893800	-0.403525	-0.013153
C29	C	1.033270	0.158530	-0.021661
C30	C	1.117302	0.160737	-0.021960
C31	C	0.890606	0.396215	-0.054330
C32	C	0.892821	0.534734	-0.073360
N33	N	0.894925	0.168040	0.183567
N34	N	0.894969	0.168069	-0.229535
C35	C	0.945953	0.083088	0.236961
C36	C	0.945957	0.083087	0.320413
C37	C	0.894937	0.168045	0.350469
C38	C	0.843904	0.253002	0.297068
C39	C	0.843897	0.252996	0.213619
C40	C	0.843932	0.253027	0.633612
C41	C	0.843944	0.253028	0.717068
C42	C	0.945992	0.083117	0.740407
C43	C	0.945984	0.083111	0.656957
C44	C	0.894949	0.168063	0.603564
C45	C	0.894944	0.168062	0.513076
C46	C	0.894945	0.168054	0.440955
H47	H	0.649949	0.381479	-0.052336
C48	C	0.252900	-0.174841	0.024135
C49	C	0.296827	-0.073694	0.010240
H50	H	0.285410	-0.251299	0.034635
H51	H	0.221755	-0.170923	0.069827
H52	H	0.221752	-0.170907	-0.022640
H53	H	0.327971	-0.077623	0.057019
H54	H	0.327985	-0.077614	-0.035456
H55	H	0.139938	-0.045367	0.006355
H56	H	0.802359	0.322173	0.321545
H57	H	0.893668	-0.412141	-0.139459
C58	C	0.202704	0.502138	-0.068872
C59	C	0.261430	0.403689	-0.055354
H60	H	0.223772	0.580004	-0.079563
H61	H	0.172260	0.496607	-0.114341
H62	H	0.172259	0.496580	-0.021872
H63	H	0.291871	0.409242	-0.102356
H64	H	0.291886	0.409223	-0.009880
H65	H	0.802395	0.322214	0.741537
C66	C	0.449047	-0.045619	0.006364
C67	C	0.528465	-0.067579	0.009383
H68	H	0.427983	-0.123489	0.017058
H69	H	0.432647	0.000745	0.046224
H70	H	0.432649	0.000764	-0.046243
H71	H	0.544863	-0.113955	0.061993
H72	H	0.544872	-0.113963	-0.030479
C73	C	0.833516	-0.099558	-0.138640
C74	C	0.897259	-0.188638	-0.122039
H75	H	0.834246	-0.055277	-0.193723
H76	H	0.788650	-0.140684	-0.130054
H77	H	0.834429	-0.042285	-0.103408
H78	H	0.896342	-0.245917	-0.157267
H79	H	0.942136	-0.147510	-0.130633
H80	H	0.987502	0.013910	0.212495
C81	C	0.740125	-0.068943	-0.058593
C82	C	0.694212	-0.063204	0.008771
H83	H	0.772643	-0.145393	-0.048084
H84	H	0.708973	-0.065034	-0.105352
H85	H	0.769908	-0.000300	-0.068017
H86	H	0.664425	-0.131842	0.018192
H87	H	0.725368	-0.067125	0.055544
H88	H	0.802344	0.322172	0.170145
H89	H	0.896207	-0.251743	0.093477
C90	C	0.890591	-0.603175	0.078285
C91	C	0.892637	-0.475229	0.076079
H92	H	0.889875	-0.647439	0.133373
H93	H	0.846201	-0.614777	0.050162
H94	H	0.934318	-0.634082	0.052828
H95	H	0.848908	-0.444319	0.101532
H96	H	0.937032	-0.463619	0.104214
C97	C	1.046849	-0.084833	0.335096
C98	C	1.002060	-0.010277	0.379101
H99	H	1.081491	-0.142465	0.371328
H100	H	1.015118	-0.129672	0.308720
H101	H	1.074325	-0.032923	0.295403
H102	H	0.974580	-0.062187	0.418791
H103	H	1.033795	0.034565	0.405490
C104	C	1.046852	-0.084856	0.688412
C105	C	1.002065	-0.010282	0.623921
H106	H	1.081469	-0.142520	0.668018
H107	H	1.074349	-0.032970	0.713822
H108	H	1.015111	-0.129668	0.727128
H109	H	1.033805	0.034538	0.585208
H110	H	0.974566	-0.062174	0.598499
C111	C	0.743067	0.420990	0.618936
C112	C	0.787841	0.346414	0.574929
H113	H	0.708442	0.478651	0.582702
H114	H	0.715581	0.369105	0.658619
H115	H	0.774817	0.465806	0.645320
H116	H	0.756092	0.301591	0.548549
H117	H	0.815329	0.398306	0.535231
H118	H	0.109333	0.367218	-0.050338
H119	H	0.506716	0.377701	-0.051803
H120	H	0.987545	0.013941	0.783889
