data_functionalizedCrystal
_audit_creation_method	'MofGen! by Chris Wilmer'
_symmetry_space_group_name_H-M	'P1'
_symmetry_Int_Tables_number	1
_symmetry_cell_setting	triclinic
loop_
_symmetry_equiv_pos_as_xyz
  x,y,z
_cell_length_a	15.944551
_cell_length_b	10.654541
_cell_length_c	9.730217
_cell_angle_alpha	89.998097
_cell_angle_beta	89.996148
_cell_angle_gamma	83.991333
loop_
_atom_site_label
_atom_site_type_symbol
_atom_site_fract_x
_atom_site_fract_y
_atom_site_fract_z
O1	O	0.117965	1.666316	-0.114251
O2	O	0.129207	1.300691	-0.114263
O3	O	0.001369	1.493488	-0.114245
O4	O	0.245803	1.473519	-0.114270
O5	O	0.001369	1.493475	0.114335
O6	O	0.129207	1.300678	0.114317
O7	O	0.117965	1.666303	0.114329
Zn8	Zn	0.123586	1.483489	0.150615
Zn9	Zn	0.123586	1.483505	-0.150549
O10	O	0.245803	1.473506	0.114310
C11	C	0.128382	1.253897	0.000025
C12	C	0.125914	1.114486	0.000021
C13	C	-0.029930	1.492652	0.000046
C14	C	-0.123190	1.490167	0.000046
C15	C	0.278779	1.084537	-0.000012
C16	C	0.354048	1.004069	-0.000034
C17	C	0.351724	0.873081	-0.000035
C18	C	0.274122	0.822560	-0.000010
C19	C	0.198852	0.903028	0.000012
C20	C	0.201185	1.034017	0.000009
C21	C	0.045989	0.932976	0.000055
C22	C	0.048311	1.063965	0.000046
C23	C	-0.031613	0.882455	0.000080
C24	C	-0.106885	0.962924	0.000092
C25	C	-0.104557	1.093919	0.000091
C26	C	-0.026958	1.144433	0.000068
C27	C	-0.338772	1.364722	0.000023
C28	C	-0.399453	1.422968	0.112729
C29	C	-0.293942	1.485671	0.000036
C30	C	-0.399436	1.423009	-0.112633
C31	C	-0.458880	1.481319	0.000019
C32	C	-0.353394	1.543950	0.112834
C33	C	-0.353371	1.543974	-0.112629
C34	C	-0.414034	1.602309	0.000104
C35	C	-0.198925	1.488175	0.000046
C36	C	-0.553896	1.478825	0.000019
C37	C	0.277102	1.474342	0.000017
C38	C	0.370362	1.476827	0.000007
C39	C	0.118790	1.713097	0.000037
C40	C	0.121258	1.852508	0.000033
N41	N	0.123586	1.483486	0.356151
N42	N	0.123580	1.483518	-0.356086
C43	C	0.010412	1.654309	0.643892
C44	C	-0.046174	1.739692	0.571942
C45	C	-0.046176	1.739675	0.428062
C46	C	0.010416	1.654269	0.356130
C47	C	0.067002	1.568886	0.428080
C48	C	0.066996	1.568909	0.571963
C49	C	0.180172	1.398103	0.428102
C50	C	0.180171	1.398111	0.571982
C51	C	0.236764	1.312697	0.356170
C52	C	0.293347	1.227305	0.428121
C53	C	0.293346	1.227324	0.572009
C54	C	0.236757	1.312728	0.643933
H55	H	0.280679	1.191193	-0.000042
O56	O	0.432902	0.786275	-0.000052
H57	H	0.469995	0.804225	-0.093231
O58	O	0.236755	1.312680	0.200985
H59	H	0.299625	1.332769	0.163026
H60	H	-0.165851	1.159430	0.000114
H61	H	0.272236	0.715901	0.000005
O62	O	0.354397	1.135247	0.649601
H63	H	0.343094	1.037345	0.622014
O64	O	-0.326524	1.611649	0.239187
H65	H	-0.357445	1.709953	0.239472
O66	O	0.010416	1.654326	0.799077
H67	H	-0.052460	1.634254	0.837028
O68	O	0.354366	1.135174	0.350544
H69	H	0.344853	1.149500	0.238408
H70	H	-0.446611	1.702790	0.000171
O71	O	-0.326300	1.611688	-0.238836
H72	H	-0.344538	1.561291	-0.332260
H73	H	-0.419809	1.371843	-0.207924
H74	H	0.417231	1.045218	-0.000051
O75	O	-0.034128	0.741177	0.000082
H76	H	0.031247	0.693707	0.000050
O77	O	-0.190578	0.908439	0.000124
H78	H	-0.179548	0.803837	0.000122
H79	H	-0.306045	1.264329	0.000132
O80	O	0.236763	1.312753	0.799117
H81	H	0.187913	1.386492	0.837042
O82	O	-0.107209	1.831801	0.649534
H83	H	-0.095889	1.929690	0.621907
O84	O	-0.107209	1.831758	0.350444
H85	H	-0.146564	1.891144	0.424627
O86	O	-0.426482	1.355215	0.238948
H87	H	-0.396064	1.256626	0.238718
H88	H	-0.025055	1.251088	0.000051
H89	H	0.010417	1.654271	0.238975
