data_functionalizedCrystal
_audit_creation_method	'MofGen! by Chris Wilmer'
_symmetry_space_group_name_H-M	'P1'
_symmetry_Int_Tables_number	1
_symmetry_cell_setting	triclinic
loop_
_symmetry_equiv_pos_as_xyz
  x,y,z
_cell_length_a	16.974800
_cell_length_b	11.792254
_cell_length_c	15.455313
_cell_angle_alpha	92.683372
_cell_angle_beta	90.973911
_cell_angle_gamma	83.793472
loop_
_atom_site_label
_atom_site_type_symbol
_atom_site_fract_x
_atom_site_fract_y
_atom_site_fract_z
O1	O	1.049697	0.144683	0.001582
O2	O	0.820339	0.162015	-0.014526
O3	O	0.940579	-0.011852	-0.006075
O4	O	0.929458	0.318550	-0.006869
O5	O	0.933703	-0.001950	0.137704
O6	O	0.813463	0.171917	0.129253
O7	O	1.042821	0.154584	0.145361
Cu8	Cu	0.927514	0.164155	0.150435
Cu9	Cu	0.935646	0.152445	-0.019600
O10	O	0.922582	0.328451	0.136910
C11	C	0.787538	0.166126	0.055301
C12	C	0.700046	0.163607	0.049157
C13	C	0.655198	0.167818	0.124646
C14	C	0.572991	0.165434	0.118875
C15	C	0.535633	0.158846	0.037614
C16	C	0.580487	0.154631	-0.037881
C17	C	0.662693	0.157008	-0.032109
C18	C	0.290175	0.151153	0.011948
C19	C	0.207963	0.148781	0.006181
C20	C	0.200473	0.159581	0.162938
C21	C	0.282681	0.161964	0.168703
C22	C	0.327528	0.157743	0.093208
N23	N	0.451604	0.156413	0.031713
N24	N	0.411556	0.160168	0.099110
C25	C	0.936440	-0.049188	0.065765
C26	C	0.934343	-0.175189	0.065617
C27	C	0.932640	-0.277516	0.065494
C28	C	0.930510	-0.405891	0.065336
C29	C	1.075622	0.150474	0.075532
C30	C	1.163115	0.152992	0.081671
C31	C	0.926720	0.365787	0.065068
C32	C	0.928818	0.491788	0.065211
N33	N	0.921801	0.172390	0.270029
N34	N	0.941366	0.144201	-0.139194
C35	C	0.972901	0.098552	0.319015
C36	C	0.968587	0.104791	0.409519
C37	C	0.913177	0.184873	0.451037
C38	C	0.862071	0.258714	0.402045
C39	C	0.866382	0.252469	0.311541
C40	C	0.894571	0.211797	0.721311
C41	C	0.890266	0.218038	0.811821
C42	C	0.996781	0.064113	0.819289
C43	C	1.001090	0.057880	0.728784
C44	C	0.949982	0.131717	0.679799
N45	N	0.908768	0.191254	0.543547
N46	N	0.954388	0.125330	0.587290
H47	H	0.177548	0.143419	-0.059994
H48	H	1.010196	0.044666	0.449403
C49	C	0.151915	0.164218	0.244999
C50	C	0.202226	0.170521	0.317398
C51	C	0.157522	0.174804	0.393011
H52	H	0.125409	0.097416	0.246533
H53	H	0.113974	0.229670	0.245653
H54	H	0.240152	0.105076	0.316745
H55	H	0.228732	0.237320	0.315893
H56	H	0.119581	0.240256	0.393664
H57	H	0.131018	0.108001	0.394535
H58	H	0.191650	0.179092	0.442142
H59	H	0.550063	0.149259	-0.104045
H60	H	0.326680	0.147712	-0.049526
H61	H	0.824770	0.312594	0.271658
C62	C	0.711244	0.152492	-0.114170
C63	C	0.660932	0.146248	-0.186572
C64	C	0.705627	0.142098	-0.262183
H65	H	0.749205	0.087080	-0.114896
H66	H	0.737723	0.219343	-0.115628
H67	H	0.634466	0.079404	-0.185115
H68	H	0.622971	0.211653	-0.185874
H69	H	0.732105	0.208949	-0.263641
H70	H	0.743585	0.076685	-0.262900
H71	H	0.671496	0.137872	-0.311316
C72	C	0.323355	0.168925	0.256877
C73	C	0.378794	0.073061	0.265357
C74	C	0.416283	0.079444	0.346568
H75	H	0.284960	0.171037	0.301087
H76	H	0.349589	0.236168	0.261998
H77	H	0.352561	0.005836	0.260245
H78	H	0.417204	0.070930	0.221167
H79	H	0.442517	0.146687	0.351689
H80	H	0.377882	0.081559	0.390771
H81	H	0.453907	0.014408	0.352330
C82	C	1.033089	0.011487	0.274101
C83	C	1.076901	-0.051862	0.336375
C84	C	1.132346	-0.132091	0.295036
H85	H	1.067824	0.049877	0.241100
H86	H	1.006240	-0.038371	0.236824
H87	H	1.103749	-0.002011	0.373637
H88	H	1.042188	-0.090276	0.369380
H89	H	1.105497	-0.181949	0.257759
H90	H	1.167076	-0.093692	0.262036
H91	H	1.162074	-0.175089	0.337282
C92	C	1.061139	-0.029500	0.683979
C93	C	1.046606	-0.139375	0.705323
C94	C	1.101896	-0.220007	0.664159
H95	H	1.113108	-0.016172	0.702529
H96	H	1.056521	-0.023003	0.623019
H97	H	1.051231	-0.145868	0.766269
H98	H	0.994647	-0.152739	0.686771
H99	H	1.097278	-0.213511	0.603199
H100	H	1.153862	-0.206669	0.682712
H101	H	1.092038	-0.294567	0.678628
C102	C	0.695614	0.174913	0.212955
C103	C	0.638742	0.178057	0.277829
C104	C	0.675942	0.184572	0.359192
H105	H	0.721798	0.242179	0.218187
H106	H	0.733237	0.109914	0.218914
H107	H	0.601133	0.243050	0.271873
H108	H	0.612554	0.110798	0.272626
H109	H	0.713566	0.119574	0.365151
H110	H	0.702125	0.251839	0.364415
H111	H	0.637362	0.186696	0.403219
H112	H	1.038390	0.003997	0.859180
C113	C	0.830012	0.305016	0.856736
C114	C	0.786158	0.368318	0.794467
C115	C	0.730640	0.448434	0.835810
H116	H	0.856781	0.354928	0.894031
H117	H	0.795319	0.266502	0.889717
H118	H	0.820846	0.406830	0.761501
H119	H	0.759372	0.318438	0.757168
H120	H	0.695947	0.409919	0.868791
H121	H	0.757415	0.498337	0.873104
H122	H	0.700873	0.491387	0.793567
C123	C	0.839224	0.292029	0.668040
C124	C	0.883976	0.358072	0.619019
C125	C	0.833018	0.431994	0.569925
H126	H	0.805597	0.340722	0.705635
H127	H	0.807934	0.248674	0.630380
H128	H	0.915253	0.401424	0.656674
H129	H	0.917601	0.309411	0.581407
H130	H	0.801728	0.388640	0.532266
H131	H	0.799394	0.480679	0.607527
H132	H	0.863375	0.476806	0.536653
H133	H	0.536481	0.168845	0.180346
H134	H	0.816951	0.323915	0.435853
