data_functionalizedCrystal
_audit_creation_method	'MofGen! by Chris Wilmer'
_symmetry_space_group_name_H-M	'P1'
_symmetry_Int_Tables_number	1
_symmetry_cell_setting	triclinic
loop_
_symmetry_equiv_pos_as_xyz
  x,y,z
_cell_length_a	17.638166
_cell_length_b	18.215407
_cell_length_c	18.215399
_cell_angle_alpha	90.019833
_cell_angle_beta	101.179426
_cell_angle_gamma	78.754997
loop_
_atom_site_label
_atom_site_type_symbol
_atom_site_fract_x
_atom_site_fract_y
_atom_site_fract_z
Zn1	Zn	-0.314699	-1.065799	-0.475319
Zn2	Zn	0.018634	-0.732466	-0.141986
Zn3	Zn	0.351967	-0.399132	0.191347
Zn4	Zn	-0.446893	-1.040809	-0.377122
Zn5	Zn	-0.113559	-0.707476	-0.043789
Zn6	Zn	0.219774	-0.374142	0.289544
Zn7	Zn	-0.314725	-0.942727	-0.352272
Zn8	Zn	0.018608	-0.609393	-0.018938
Zn9	Zn	0.351942	-0.276060	0.314395
Zn10	Zn	-0.446849	-0.917807	-0.500139
Zn11	Zn	-0.113515	-0.584474	-0.166805
Zn12	Zn	0.219818	-0.251141	0.166528
O13	O	-0.380791	-0.991785	-0.426213
O14	O	-0.047458	-0.658452	-0.092880
O15	O	0.285875	-0.325119	0.240454
O16	O	-0.332243	-1.165467	-0.462306
O17	O	0.001091	-0.832133	-0.128973
O18	O	0.334424	-0.498800	0.204360
O19	O	-0.429390	-1.027768	-0.270847
O20	O	-0.096056	-0.694435	0.062486
O21	O	0.237277	-0.361102	0.395820
O22	O	-0.204104	-0.979940	-0.347807
O23	O	0.129229	-0.646606	-0.014474
O24	O	0.462563	-0.313273	0.318860
O25	O	-0.429365	-1.147107	-0.390161
O26	O	-0.096031	-0.813773	-0.056828
O27	O	0.237302	-0.480440	0.276505
O28	O	-0.204085	-1.070360	-0.438210
O29	O	0.129248	-0.737027	-0.104876
O30	O	0.462582	-0.403694	0.228457
O31	O	-0.332287	-0.955708	-0.252589
O32	O	0.001047	-0.622374	0.080744
O33	O	0.334380	-0.289041	0.414077
O34	O	-0.332244	-0.836438	-0.371873
O35	O	0.001089	-0.503105	-0.038540
O36	O	0.334423	-0.169771	0.294793
O37	O	-0.429290	-0.937468	-0.599825
O38	O	-0.095956	-0.604135	-0.266492
O39	O	0.237377	-0.270801	0.066841
O40	O	-0.429315	-0.818130	-0.480511
O41	O	-0.095981	-0.484797	-0.147178
O42	O	0.237352	-0.151463	0.186156
O43	O	-0.332200	-1.046197	-0.581590
O44	O	0.001133	-0.712864	-0.248257
O45	O	0.334467	-0.379530	0.085076
O46	O	-0.557504	-1.003605	-0.414228
O47	O	-0.224171	-0.670272	-0.080894
O48	O	0.109162	-0.336938	0.252439
O49	O	-0.557472	-0.913236	-0.504608
O50	O	-0.224139	-0.579903	-0.171274
O51	O	0.109195	-0.246570	0.162059
C52	C	-0.380778	-0.800582	-0.426189
C53	C	-0.047445	-0.467248	-0.092856
C54	C	0.285889	-0.133915	0.240477
C55	C	-0.380791	-0.718780	-0.426200
C56	C	-0.047458	-0.385447	-0.092867
C57	C	0.285876	-0.052114	0.240466
C58	C	-0.586170	-0.953025	-0.464824
C59	C	-0.252837	-0.619692	-0.131490
C60	C	0.080497	-0.286358	0.201843
C61	C	-0.674032	-0.936510	-0.481366
C62	C	-0.340699	-0.603177	-0.148033
C63	C	-0.007365	-0.269844	0.185301
C64	C	-0.797881	-0.866144	-0.551699
C65	C	-0.464548	-0.532810	-0.218366
C66	C	-0.131215	-0.199477	0.114967
C67	C	-0.715322	-0.881667	-0.536150
C68	C	-0.381988	-0.548334	-0.202817
C69	C	-0.048655	-0.215001	0.130517
C70	C	-0.715292	-0.975849	-0.442106
C71	C	-0.381959	-0.642515	-0.108773
C72	C	-0.048626	-0.309182	0.224560
C73	C	-0.797854	-0.960331	-0.457645
C74	C	-0.464520	-0.626997	-0.124312
C75	C	-0.131187	-0.293664	0.209021
C76	C	-0.839142	-0.905478	-0.512443
C77	C	-0.505808	-0.572144	-0.179110
C78	C	-0.172475	-0.238811	0.154224
C79	C	-0.839114	-0.999665	-0.418389
C80	C	-0.505781	-0.666331	-0.085056
C81	C	-0.172447	-0.332998	0.248278
C82	C	-0.921668	-0.984150	-0.433930
C83	C	-0.588335	-0.650817	-0.100596
C84	C	-0.255002	-0.317483	0.232737
C85	C	-0.962962	-0.929301	-0.488726
C86	C	-0.629629	-0.595968	-0.155393
C87	C	-0.296295	-0.262635	0.177940
C88	C	-0.921696	-0.889963	-0.527984
C89	C	-0.588362	-0.556630	-0.194650
C90	C	-0.255029	-0.223297	0.138683
C91	C	-0.797825	-1.054521	-0.363595
C92	C	-0.464491	-0.721187	-0.030262
C93	C	-0.131158	-0.387854	0.303071
C94	C	-0.839085	-1.093855	-0.324339
C95	C	-0.505752	-0.760521	0.008994
C96	C	-0.172418	-0.427188	0.342328
C97	C	-0.921641	-1.078337	-0.339876
C98	C	-0.588307	-0.745003	-0.006542
C99	C	-0.254974	-0.411670	0.326791
C100	C	-0.962934	-1.023488	-0.394672
C101	C	-0.629601	-0.690155	-0.061339
C102	C	-0.296268	-0.356822	0.271994
C103	C	-0.962907	-1.117675	-0.300618
C104	C	-0.629573	-0.784342	0.032715
C105	C	-0.296240	-0.451008	0.366048
C106	C	-1.045461	-1.102160	-0.316159
C107	C	-0.712128	-0.768827	0.017174
C108	C	-0.378794	-0.435494	0.350508
C109	C	-1.045488	-1.007974	-0.410213
C110	C	-0.712155	-0.674640	-0.076880
C111	C	-0.378822	-0.341307	0.256454
C112	C	-0.380737	-0.991840	-0.618156
C113	C	-0.047404	-0.658507	-0.284822
C114	C	0.285930	-0.325174	0.048511
C115	C	-0.380714	-0.991864	-0.699950
C116	C	-0.047380	-0.658531	-0.366617
C117	C	0.285953	-0.325197	-0.033284
C118	C	-0.174611	-1.030717	-0.387468
C119	C	0.158723	-0.697384	-0.054134
C120	C	0.492056	-0.364051	0.279199
C121	C	-0.086749	-1.047308	-0.370957
C122	C	0.246585	-0.713974	-0.037623
C123	C	0.579918	-0.380641	0.295710
C124	C	-0.380806	-1.183736	-0.426237
C125	C	-0.047472	-0.850402	-0.092904
C126	C	0.285861	-0.517069	0.240429
C127	C	-0.380812	-1.265533	-0.426248
C128	C	-0.047478	-0.932200	-0.092914
C129	C	0.285855	-0.598867	0.240419
C130	C	-0.431415	-0.521058	-0.482724
C131	C	-0.098082	-0.187724	-0.149390
C132	C	0.235251	0.145609	0.183943
C133	C	-0.431418	-0.444198	-0.482733
C134	C	-0.098084	-0.110865	-0.149400
C135	C	0.235249	0.222468	0.183933
C136	C	-0.330182	-0.463262	-0.369721
C137	C	0.003151	-0.129929	-0.036388
C138	C	0.336485	0.203404	0.296946
C139	C	-0.330176	-0.540121	-0.369715
C140	C	0.003157	-0.206788	-0.036382
C141	C	0.336491	0.126546	0.296952
C142	C	-0.380797	-0.569016	-0.426216
C143	C	-0.047464	-0.235682	-0.092883
C144	C	0.285869	0.097651	0.240451
C145	C	-0.380806	-0.415298	-0.426232
C146	C	-0.047472	-0.081965	-0.092898
C147	C	0.285861	0.251369	0.240435
C148	C	-0.380808	-0.331964	-0.426242
C149	C	-0.047475	0.001369	-0.092908
C150	C	0.285859	0.334703	0.240425
C151	C	-0.380794	-0.652355	-0.426207
C152	C	-0.047461	-0.319022	-0.092874
C153	C	0.285873	0.014311	0.240460
C154	C	-0.330112	-1.048505	-0.878642
C155	C	0.003221	-0.715172	-0.545308
C156	C	0.336555	-0.381838	-0.211975
C157	C	-0.330089	-1.048518	-0.955496
C158	C	0.003245	-0.715185	-0.622163
C159	C	0.336578	-0.381851	-0.288830
C160	C	-0.431193	-0.935298	-0.974474
C161	C	-0.097860	-0.601965	-0.641140
C162	C	0.235473	-0.268631	-0.307807
C163	C	-0.431212	-0.935283	-0.897620
C164	C	-0.097878	-0.601949	-0.564287
C165	C	0.235455	-0.268616	-0.230953
C166	C	-0.380672	-0.991890	-0.849706
C167	C	-0.047339	-0.658557	-0.516373
C168	C	0.285994	-0.325223	-0.183039
C169	C	-0.380631	-0.991919	-1.003414
C170	C	-0.047297	-0.658585	-0.670081
C171	C	0.286036	-0.325252	-0.336748
C172	C	-0.380606	-0.991932	-1.086743
C173	C	-0.047273	-0.658599	-0.753410
C174	C	0.286061	-0.325266	-0.420077
C175	C	-0.380696	-0.991876	-0.766371
C176	C	-0.047362	-0.658542	-0.433038
C177	C	0.285971	-0.325209	-0.099705
C178	C	-0.380789	-0.991784	-0.235006
C179	C	-0.047455	-0.658450	0.098327
C180	C	0.285878	-0.325117	0.431660
C181	C	-0.380589	-0.991945	-0.153170
C182	C	-0.047256	-0.658611	0.180163
C183	C	0.286077	-0.325278	0.513496
H184	H	-1.079107	-0.963310	-0.454838
H185	H	-0.745774	-0.629977	-0.121505
H186	H	-0.412441	-0.296644	0.211828
Cl187	Cl	-0.494729	-0.864142	-1.034714
Cl188	Cl	-0.161396	-0.530808	-0.701380
Cl189	Cl	0.171937	-0.197475	-0.368047
Cl190	Cl	-0.494774	-0.864100	-0.861240
Cl191	Cl	-0.161441	-0.530767	-0.527907
Cl192	Cl	0.171892	-0.197434	-0.194573
Cl193	Cl	-0.266531	-1.119700	-0.991870
Cl194	Cl	0.066802	-0.786366	-0.658537
Cl195	Cl	0.400136	-0.453033	-0.325203
H196	H	-0.929279	-1.162341	-0.256007
H197	H	-0.595946	-0.829008	0.077326
H198	H	-0.262613	-0.495675	0.410660
Cl199	Cl	-0.495053	-0.383911	-0.553776
Cl200	Cl	-0.161720	-0.050578	-0.220443
Cl201	Cl	0.171613	0.282756	0.112891
Cl202	Cl	-0.663454	-0.832213	-0.585508
Cl203	Cl	-0.330120	-0.498880	-0.252175
Cl204	Cl	0.003213	-0.165546	0.081159
Cl205	Cl	-1.066745	-0.909501	-0.507969
Cl206	Cl	-0.733411	-0.576168	-0.174636
Cl207	Cl	-0.400078	-0.242835	0.158697
H208	H	-0.288957	-1.094597	-0.839632
H209	H	0.044376	-0.761263	-0.506298
H210	H	0.377710	-0.427930	-0.172965
Cl211	Cl	-0.973607	-0.820990	-0.596860
Cl212	Cl	-0.640274	-0.487657	-0.263526
Cl213	Cl	-0.306940	-0.154324	0.069807
H214	H	-0.831500	-0.821481	-0.596325
H215	H	-0.498167	-0.488147	-0.262991
H216	H	-0.164834	-0.154814	0.070342
H217	H	-0.681666	-1.020512	-0.397492
H218	H	-0.348333	-0.687179	-0.064158
H219	H	-0.015000	-0.353846	0.269175
H220	H	-0.805459	-1.138518	-0.279724
H221	H	-0.472126	-0.805185	0.053609
H222	H	-0.138792	-0.471851	0.386942
Cl223	Cl	-0.694041	-1.074094	-0.344128
Cl224	Cl	-0.360708	-0.740760	-0.010794
Cl225	Cl	-0.027374	-0.407427	0.322539
Cl226	Cl	-1.097335	-1.151611	-0.266809
Cl227	Cl	-0.764002	-0.818277	0.066524
Cl228	Cl	-0.430668	-0.484944	0.399857
Cl229	Cl	-0.266549	-0.426931	-0.298694
Cl230	Cl	0.066784	-0.093598	0.034639
Cl231	Cl	0.400117	0.239735	0.367973
H232	H	-0.472632	-0.544581	-0.528732
H233	H	-0.139299	-0.211248	-0.195399
H234	H	0.194034	0.122086	0.137935
H235	H	-0.288952	-0.579171	-0.323699
H236	H	0.044382	-0.245838	0.009635
H237	H	0.377715	0.087495	0.342968
