data_functionalizedCrystal
_audit_creation_method	'MofGen! by Chris Wilmer'
_symmetry_space_group_name_H-M	'P1'
_symmetry_Int_Tables_number	1
_symmetry_cell_setting	triclinic
loop_
_symmetry_equiv_pos_as_xyz
  x,y,z
_cell_length_a	12.827893
_cell_length_b	12.759394
_cell_length_c	12.827885
_cell_angle_alpha	89.970280
_cell_angle_beta	89.980538
_cell_angle_gamma	90.013826
loop_
_atom_site_label
_atom_site_type_symbol
_atom_site_fract_x
_atom_site_fract_y
_atom_site_fract_z
Zn1	Zn	1.597683	-0.418214	-0.590851
Zn2	Zn	1.597581	-0.593931	-0.416112
Zn3	Zn	1.422924	-0.418266	-0.416124
Zn4	Zn	1.422914	-0.593852	-0.590812
O5	O	1.510275	-0.506066	-0.503474
O6	O	1.743905	-0.441535	-0.567682
O7	O	1.574374	-0.570683	-0.269877
O8	O	1.446152	-0.271238	-0.439324
O9	O	1.743830	-0.570633	-0.439302
O10	O	1.574547	-0.271200	-0.567694
O11	O	1.446054	-0.441623	-0.269886
O12	O	1.276686	-0.441547	-0.439286
O13	O	1.446136	-0.570499	-0.737053
O14	O	1.276679	-0.570549	-0.567628
O15	O	1.574538	-0.441459	-0.737081
O16	O	1.574364	-0.740941	-0.439264
O17	O	1.446037	-0.740883	-0.567616
C18	C	1.238765	-0.506046	-0.503455
C19	C	1.122612	-0.506062	-0.503471
C20	C	1.070852	-0.569996	-0.566881
C21	C	0.950801	-0.570015	-0.566899
C22	C	1.510217	-0.779033	-0.503457
C23	C	1.510288	-0.895810	-0.503485
C24	C	1.643885	-0.895612	-0.637257
C25	C	1.710717	-0.950374	-0.704152
C26	C	1.710779	-1.060096	-0.704174
C27	C	1.644000	-1.115058	-0.637298
C28	C	1.577169	-1.060296	-0.570403
C29	C	1.577116	-0.950572	-0.570386
C30	C	1.443567	-1.060494	-0.436638
C31	C	1.443509	-0.950772	-0.436608
C32	C	1.376788	-1.115456	-0.369761
C33	C	1.309960	-1.060694	-0.302860
C34	C	1.309902	-0.950966	-0.302839
C35	C	1.376677	-0.896010	-0.369714
C36	C	1.782845	-0.506087	-0.503495
C37	C	1.898999	-0.506096	-0.503504
C38	C	1.510347	-0.505964	-0.776045
C39	C	1.510378	-0.505921	-0.892198
C40	C	1.510362	-0.232032	-0.503515
C41	C	1.510399	-0.115256	-0.503532
C42	C	1.573952	-0.442012	-1.064041
C43	C	1.573922	-0.442055	-0.943991
C44	C	1.510264	-0.506091	-0.231965
C45	C	1.510435	-0.505839	-0.115812
H46	H	1.115414	-0.624715	-0.621158
O47	O	1.775728	-0.897102	-0.769065
C48	C	1.953446	-0.863314	-0.819897
C49	C	1.879944	-0.923720	-0.746329
H50	H	2.037722	-0.884796	-0.801526
H51	H	1.935149	-0.884868	-0.904165
H52	H	1.941875	-0.775491	-0.808415
H53	H	1.891474	-1.011558	-0.757717
H54	H	1.898259	-0.902079	-0.662088
H55	H	0.943505	-0.451360	-0.449210
O56	O	1.445649	-0.571234	-0.945341
C57	C	1.431692	-0.712885	-1.068718
C58	C	1.505115	-0.638998	-1.008573
H59	H	1.479740	-0.767676	-1.119872
H60	H	1.383866	-0.761054	-1.011089
H61	H	1.377100	-0.664563	-1.119776
H62	H	1.559770	-0.687239	-0.957513
H63	H	1.552868	-0.590825	-1.066258
O64	O	1.643738	-0.789029	-0.637399
C65	C	1.616837	-0.631515	-0.737542
C66	C	1.616939	-0.752220	-0.737520
H67	H	1.595194	-0.601718	-0.818487
H68	H	1.557567	-0.601759	-0.678306
H69	H	1.697757	-0.601709	-0.715858
H70	H	1.536063	-0.782115	-0.759230
H71	H	1.676265	-0.781905	-0.796734
O72	O	1.445390	-0.571027	-1.062788
C73	C	1.267639	-0.621970	-1.029119
C74	C	1.341185	-0.548089	-1.089245
H75	H	1.183374	-0.603437	-1.050471
H76	H	1.285870	-0.706713	-1.050534
H77	H	1.279232	-0.610408	-0.941771
H78	H	1.329634	-0.559559	-1.176607
H79	H	1.322936	-0.463374	-1.067743
H80	H	1.628358	-0.387339	-1.108595
O81	O	1.069419	-0.440931	-0.438597
C82	C	0.945961	-0.426778	-0.297688
C83	C	1.006148	-0.500657	-0.371085
H84	H	0.894776	-0.475036	-0.243101
H85	H	1.003563	-0.378664	-0.249865
H86	H	0.894931	-0.371924	-0.345820
H87	H	1.057180	-0.555574	-0.323033
H88	H	0.948489	-0.548698	-0.418911
H89	H	0.906288	-0.624754	-0.621183
H90	H	1.765188	-1.104683	-0.758656
O91	O	1.245196	-1.114245	-0.237938
C92	C	1.186025	-1.283371	-0.178747
C93	C	1.259441	-1.222851	-0.252308
H94	H	1.197500	-1.371190	-0.190354
H95	H	1.204406	-1.261932	-0.094468
H96	H	1.101753	-1.261783	-0.197012
H97	H	1.343737	-1.244407	-0.234137
H98	H	1.240969	-1.244295	-0.336565
H99	H	1.255476	-0.906384	-0.248370
H100	H	1.644048	-1.204399	-0.637331
H101	H	1.376840	-1.204797	-0.369788
H102	H	1.376641	-0.806669	-0.369699
H103	H	1.628297	-0.387406	-0.899469
