data_functionalizedCrystal
_audit_creation_method	'MofGen! by Chris Wilmer'
_symmetry_space_group_name_H-M	'P1'
_symmetry_Int_Tables_number	1
_symmetry_cell_setting	triclinic
loop_
_symmetry_equiv_pos_as_xyz
  x,y,z
_cell_length_a	17.000371
_cell_length_b	15.995350
_cell_length_c	14.472310
_cell_angle_alpha	89.998838
_cell_angle_beta	89.986849
_cell_angle_gamma	100.454189
loop_
_atom_site_label
_atom_site_type_symbol
_atom_site_fract_x
_atom_site_fract_y
_atom_site_fract_z
O1	O	1.056113	-0.030165	-0.076844
O2	O	1.556113	0.469835	0.423156
O3	O	0.824380	-0.060553	-0.076843
O4	O	1.324380	0.439447	0.423157
O5	O	0.946581	0.076995	-0.076843
O6	O	1.446581	0.576995	0.423157
O7	O	0.933912	-0.167713	-0.076844
O8	O	1.433912	0.332287	0.423156
O9	O	0.946550	0.076985	0.076839
O10	O	1.446550	0.576985	0.576839
O11	O	0.824349	-0.060563	0.076839
O12	O	1.324349	0.439437	0.576839
O13	O	1.056082	-0.030174	0.076838
O14	O	1.556082	0.469826	0.576838
Cu15	Cu	0.940212	-0.045370	0.090871
Cu16	Cu	1.440212	0.454630	0.590871
Cu17	Cu	0.940250	-0.045358	-0.090876
Cu18	Cu	1.440250	0.454642	0.409124
O19	O	0.933881	-0.167723	0.076838
O20	O	1.433881	0.332277	0.576838
C21	C	0.794711	-0.062191	-0.000002
C22	C	1.294711	0.437809	0.499998
C23	C	0.706352	-0.067044	-0.000002
C24	C	1.206352	0.432956	0.499998
C25	C	0.674327	0.007647	-0.000000
C26	C	1.174327	0.507647	0.500000
C27	C	0.591304	0.003082	-0.000007
C28	C	1.091304	0.503082	0.499993
C29	C	0.540308	-0.076176	-0.000009
C30	C	1.040308	0.423824	0.499991
C31	C	0.572338	-0.150873	-0.000014
C32	C	1.072338	0.349127	0.499986
C33	C	0.655360	-0.146307	-0.000014
C34	C	1.155360	0.353693	0.499986
C35	C	0.289162	-0.093814	-0.000015
C36	C	0.789162	0.406186	0.499985
C37	C	0.206135	-0.098375	-0.000013
C38	C	0.706135	0.401625	0.499987
C39	C	0.225106	0.055580	-0.000007
C40	C	0.725106	0.555580	0.499993
C41	C	0.308129	0.060139	-0.000002
C42	C	0.808129	0.560139	0.499998
C43	C	0.340152	-0.014557	-0.000011
C44	C	0.840152	0.485443	0.499989
C45	C	0.455445	-0.080845	-0.000013
C46	C	0.955445	0.419155	0.499987
C47	C	0.425014	-0.009888	-0.000014
C48	C	0.925014	0.490112	0.499986
C49	C	0.946042	0.108146	-0.000003
C50	C	1.446042	0.608146	0.499997
C51	C	0.944472	0.200981	-0.000008
C52	C	1.444472	0.700981	0.499992
C53	C	1.085751	-0.028537	-0.000005
C54	C	1.585751	0.471463	0.499995
C55	C	1.174110	-0.023684	-0.000011
C56	C	1.674110	0.476316	0.499989
C57	C	0.934420	-0.198874	-0.000003
C58	C	1.434420	0.301126	0.499997
C59	C	0.935990	-0.291709	-0.000004
C60	C	1.435990	0.208291	0.499996
N61	N	0.940192	-0.045377	0.218702
N62	N	1.440192	0.454623	0.718702
C63	C	0.938832	0.538313	-0.000005
C64	C	1.438832	1.038313	0.499995
C65	C	0.851803	0.484472	-0.000350
C66	C	1.351803	0.984472	0.499650
C67	C	0.853374	0.387897	-0.000004
C68	C	1.353374	0.887897	0.499996
C69	C	0.941630	0.370959	-0.000007
C70	C	1.441630	0.870959	0.499993
C71	C	0.984538	0.415191	0.087751
C72	C	1.484538	0.915191	0.587751
C73	C	0.982351	0.511666	0.087824
C74	C	1.482351	1.011666	0.587824
C75	C	0.984185	0.512167	-0.086941
C76	C	1.484185	1.012167	0.413059
C77	C	0.984164	0.415221	-0.088101
C78	C	1.484164	0.915221	0.411899
C79	C	0.943215	0.276378	-0.000006
C80	C	1.443215	0.776378	0.499994
C81	C	0.937250	0.632895	-0.000001
C82	C	1.437250	1.132895	0.499999
N83	N	0.940276	-0.045344	-0.218707
N84	N	1.440276	0.454656	0.281293
C85	C	0.940248	-0.045355	0.592793
C86	C	1.440248	0.454645	1.092793
C87	C	0.874642	-0.118740	0.553627
C88	C	1.374642	0.381260	1.053627
C89	C	0.874793	-0.118979	0.446539
C90	C	1.374793	0.381021	0.946539
C91	C	0.940220	-0.045366	0.407202
C92	C	1.440220	0.454634	0.907202
C93	C	1.023268	-0.058333	0.446039
C94	C	1.523268	0.441667	0.946039
C95	C	1.022900	-0.058848	0.553161
C96	C	1.522900	0.441152	1.053161
C97	C	0.923547	0.041255	0.553323
C98	C	1.423547	0.541255	1.053323
C99	C	0.921643	0.040529	0.446196
C100	C	1.421643	0.540529	0.946196
C101	C	0.940209	-0.045370	0.302314
C102	C	1.440209	0.454630	0.802314
C103	C	0.940265	-0.045352	0.697681
C104	C	1.440265	0.454648	1.197681
H105	H	0.315225	-0.154638	-0.000030
H106	H	0.815225	0.345362	0.499970
H107	H	0.164615	-0.162919	-0.000010
H108	H	0.664615	0.337081	0.499990
C109	C	0.843496	0.060132	0.589849
C110	C	1.343496	0.560132	1.089849
H111	H	0.819508	0.015362	0.629516
H112	H	1.319508	0.515362	1.129516
H113	H	0.852793	0.112135	0.623211
H114	H	1.352793	0.612135	1.123211
H115	H	0.808788	0.064520	0.539346
H116	H	1.308788	0.564520	1.039346
H117	H	0.199023	0.116394	-0.000010
H118	H	0.699023	0.616394	0.499990
C119	C	0.399350	-0.168025	-0.000014
C120	C	0.899350	0.331975	0.499986
H121	H	0.430310	-0.211860	-0.000020
H122	H	0.930310	0.288140	0.499980
H123	H	0.366553	-0.173008	0.053574
H124	H	0.866553	0.326992	0.553574
H125	H	0.366586	-0.172996	-0.053618
H126	H	0.866586	0.327004	0.446382
C127	C	1.042771	-0.143926	0.586905
C128	C	1.542771	0.356074	1.086905
H129	H	1.050989	-0.177851	0.535146
H130	H	1.550989	0.322149	1.035146
H131	H	1.089947	-0.133397	0.623443
H132	H	1.589947	0.366603	1.123443
H133	H	0.999622	-0.173028	0.622930
H134	H	1.499622	0.326972	1.122930
C135	C	0.888863	-0.205263	0.589939
C136	C	1.388863	0.294737	1.089939
H137	H	0.848969	-0.249249	0.565939
H138	H	1.348969	0.250751	1.065939
H139	H	0.940145	-0.214174	0.570766
H140	H	1.440145	0.285826	1.070766
H141	H	0.886239	-0.205749	0.655512
H142	H	1.386239	0.294251	1.155512
H143	H	0.860551	0.050513	0.420813
H144	H	1.360551	0.550513	0.920813
C145	C	0.690592	-0.228464	-0.000016
C146	C	1.190592	0.271536	0.499984
H147	H	0.747340	-0.214394	-0.000026
H148	H	1.247340	0.285606	0.499974
H149	H	0.673081	-0.260849	0.053573
H150	H	1.173081	0.239151	0.553573
H151	H	0.673100	-0.260832	-0.053618
H152	H	1.173100	0.239168	0.446382
H153	H	0.466538	0.054643	-0.000018
H154	H	0.966538	0.554643	0.499982
H155	H	0.819644	0.356995	-0.062912
H156	H	1.319644	0.856995	0.437088
H157	H	1.038338	-0.120554	0.419201
H158	H	1.538338	0.379446	0.919201
H159	H	0.954710	0.384610	0.153060
H160	H	1.454710	0.884610	0.653060
H161	H	1.046246	0.548618	0.091803
H162	H	1.546246	1.048618	0.591803
H163	H	0.966323	0.097224	0.419422
H164	H	1.466323	0.597224	0.919422
H165	H	1.049376	0.405839	0.091012
H166	H	1.549376	0.905839	0.591012
C167	C	0.804820	0.506058	-0.085357
C168	C	1.304820	1.006058	0.414643
H169	H	0.837855	0.548104	-0.121399
H170	H	1.337855	1.048104	0.378601
H171	H	0.788821	0.456307	-0.121497
H172	H	1.288821	0.956307	0.378503
H173	H	0.758801	0.527105	-0.065613
H174	H	1.258801	1.027105	0.434387
H175	H	0.349645	0.124680	0.000004
H176	H	0.849645	0.624680	0.500004
C177	C	0.790973	-0.109798	0.588451
C178	C	1.290973	0.390202	1.088451
H179	H	0.752237	-0.154682	0.564026
H180	H	1.252237	0.345318	1.064026
H181	H	0.789894	-0.112414	0.654024
H182	H	1.289894	0.387586	1.154024
H183	H	0.779160	-0.056778	0.568770
H184	H	1.279160	0.443222	1.068770
H185	H	0.971391	0.095794	0.578650
H186	H	1.471391	0.595794	1.078650
H187	H	1.073244	-0.007178	0.579067
H188	H	1.573244	0.492822	1.079067
H189	H	0.565233	0.063903	-0.000006
H190	H	1.065233	0.563903	0.499994
H191	H	0.955744	0.530616	-0.153457
H192	H	1.455744	1.030616	0.346543
H193	H	0.715843	0.072187	0.000006
H194	H	1.215843	0.572187	0.500006
H195	H	0.952793	0.385665	-0.153022
H196	H	1.452793	0.885665	0.346978
H197	H	1.048525	0.404598	-0.093402
H198	H	1.548525	0.904598	0.406598
H199	H	0.530811	-0.215406	-0.000022
H200	H	1.030811	0.284594	0.499978
C201	C	1.090800	0.012289	0.411610
C202	C	1.590800	0.512289	0.911610
H203	H	1.068894	0.050399	0.373149
H204	H	1.568894	0.550399	0.873149
H205	H	1.116679	0.042383	0.463031
H206	H	1.616679	0.542383	0.963031
H207	H	1.128485	-0.012350	0.377391
H208	H	1.628485	0.487650	0.877391
H209	H	1.048351	0.548653	-0.087533
H210	H	1.548351	1.048653	0.412467
H211	H	0.817160	0.501512	0.062233
H212	H	1.317160	1.001512	0.562233
H213	H	0.819391	0.357528	0.063012
H214	H	1.319391	0.857528	0.563012
C215	C	0.940038	0.533274	0.176439
C216	C	1.440038	1.033274	0.676439
H217	H	0.924341	0.483123	0.212052
H218	H	1.424341	0.983123	0.712052
H219	H	0.975589	0.573860	0.211528
H220	H	1.475589	1.073860	0.711528
H221	H	0.894065	0.556152	0.160403
H222	H	1.394065	1.056152	0.660403
H223	H	0.813062	-0.112155	0.420283
H224	H	1.313062	0.387845	0.920283
H225	H	0.885458	-0.183378	0.420904
H226	H	1.385458	0.316622	0.920904
