data_functionalizedCrystal
_audit_creation_method	'MofGen! by Chris Wilmer'
_symmetry_space_group_name_H-M	'P1'
_symmetry_Int_Tables_number	1
_symmetry_cell_setting	triclinic
loop_
_symmetry_equiv_pos_as_xyz
  x,y,z
_cell_length_a	10.654550
_cell_length_b	14.519709
_cell_length_c	9.730223
_cell_angle_alpha	89.994652
_cell_angle_beta	89.999957
_cell_angle_gamma	84.082538
loop_
_atom_site_label
_atom_site_type_symbol
_atom_site_fract_x
_atom_site_fract_y
_atom_site_fract_z
O1	O	1.666594	0.129532	-0.114191
O2	O	1.300996	0.141873	-0.114216
O3	O	1.493488	0.001514	-0.114190
O4	O	1.474102	0.269891	-0.114216
O5	O	1.493476	0.001511	0.114390
O6	O	1.300984	0.141869	0.114364
O7	O	1.666581	0.129528	0.114389
Zn8	Zn	1.483781	0.135698	0.150669
Zn9	Zn	1.483797	0.135703	-0.150495
O10	O	1.474089	0.269887	0.114363
C11	C	1.254201	0.140965	0.000071
C12	C	1.114784	0.138254	0.000061
C13	C	1.034504	0.220895	0.000057
C14	C	0.903507	0.218342	0.000081
C15	C	0.933084	0.050500	0.000108
C16	C	1.064078	0.053054	0.000094
C17	C	1.492579	-0.032852	0.000100
C18	C	1.489871	-0.135247	0.000100
C19	C	1.479904	-0.510195	0.000064
C20	C	1.482672	-0.405872	0.000075
C21	C	1.484887	-0.322724	0.000083
C22	C	1.487656	-0.218395	0.000091
C23	C	1.713377	0.130436	0.000099
C24	C	1.852794	0.133147	0.000100
C25	C	1.474999	0.304253	0.000070
C26	C	1.477706	0.406649	0.000061
N27	N	1.483779	0.135694	0.356205
N28	N	1.483809	0.135700	-0.356032
C29	C	1.569043	0.073570	0.428142
C30	C	1.569056	0.073570	0.572025
C31	C	1.398535	0.197827	0.572021
C32	C	1.398518	0.197822	0.428140
H33	H	0.838147	0.285637	0.000081
C34	C	1.090283	0.314612	0.000036
C35	C	1.060086	0.383490	0.118730
C36	C	1.115861	0.477209	0.118714
C37	C	1.201835	0.502050	0.000005
C38	C	1.232037	0.433170	-0.118698
C39	C	1.176261	0.339451	-0.118682
H40	H	0.996439	0.365102	0.206613
H41	H	1.093503	0.528198	0.206586
H42	H	1.243123	0.571427	-0.000007
H43	H	1.295684	0.451558	-0.206581
H44	H	1.198619	0.288462	-0.206553
C45	C	1.662818	0.005224	0.349012
C46	C	1.758928	0.041909	0.250078
C47	C	1.852703	-0.026442	0.170953
C48	C	1.850367	-0.131476	0.190763
C49	C	1.754253	-0.168166	0.289702
C50	C	1.660478	-0.099816	0.368826
H51	H	1.760661	0.119666	0.235410
H52	H	1.923853	0.000719	0.097712
H53	H	1.919785	-0.182073	0.132190
H54	H	1.752520	-0.245924	0.304370
H55	H	1.589328	-0.126977	0.442067
C56	C	1.152397	-0.037858	0.000096
C57	C	1.146597	-0.107442	0.118802
C58	C	1.234915	-0.198349	0.118810
C59	C	1.329032	-0.219672	0.000112
C60	C	1.334835	-0.150085	-0.118603
C61	C	1.246517	-0.059178	-0.118611
H62	H	1.076923	-0.091660	0.206677
H63	H	1.230618	-0.249862	0.206691
H64	H	1.394410	-0.286966	0.000118
H65	H	1.404510	-0.165868	-0.206479
H66	H	1.250814	-0.007666	-0.206493
C67	C	1.662851	0.005235	0.651158
C68	C	1.756650	-0.063086	0.572029
C69	C	1.850448	-0.131425	0.651162
C70	C	1.850447	-0.131443	0.809424
C71	C	1.756644	-0.063119	0.888563
C72	C	1.662846	0.005220	0.809430
H73	H	1.756654	-0.063075	0.454865
H74	H	1.919887	-0.182002	0.592577
H75	H	1.919882	-0.182031	0.868003
H76	H	1.756640	-0.063130	1.005726
H77	H	1.593407	0.055797	0.868014
H78	H	1.329079	0.248411	0.369565
H79	H	0.891783	-0.018867	0.000143
H80	H	1.329120	0.248412	0.630605
