data_functionalizedCrystal
_audit_creation_method	'MofGen! by Chris Wilmer'
_symmetry_space_group_name_H-M	'P1'
_symmetry_Int_Tables_number	1
_symmetry_cell_setting	triclinic
loop_
_symmetry_equiv_pos_as_xyz
  x,y,z
_cell_length_a	19.288864
_cell_length_b	15.944551
_cell_length_c	18.366186
_cell_angle_alpha	89.992809
_cell_angle_beta	89.977106
_cell_angle_gamma	83.317492
loop_
_atom_site_label
_atom_site_type_symbol
_atom_site_fract_x
_atom_site_fract_y
_atom_site_fract_z
O1	O	0.921629	0.104784	-0.060785
O2	O	0.719405	0.118919	-0.060735
O3	O	0.826039	-0.010445	-0.060755
O4	O	0.814995	0.234147	-0.060765
O5	O	0.826021	-0.010451	0.060345
O6	O	0.719387	0.118912	0.060364
O7	O	0.921611	0.104777	0.060315
Zn8	Zn	0.820496	0.111844	0.079567
Zn9	Zn	0.820520	0.111852	-0.079987
O10	O	0.814977	0.234141	0.060334
C11	C	0.693519	0.118461	-0.000179
C12	C	0.616411	0.117095	-0.000160
C13	C	0.571915	0.193000	-0.000175
C14	C	0.499465	0.191717	-0.000183
C15	C	0.471514	0.114526	-0.000191
C16	C	0.516020	0.038611	-0.000172
C17	C	0.588469	0.039896	-0.000156
C18	C	0.363098	0.053847	-0.042639
C19	C	0.290650	0.052565	-0.042659
C20	C	0.248058	0.110560	-0.000234
C21	C	0.277920	0.169850	0.042200
C22	C	0.350369	0.171135	0.042216
C23	C	0.392956	0.113124	-0.000207
C24	C	0.125002	0.185079	-0.000257
C25	C	0.052550	0.183793	-0.000260
C26	C	0.069107	0.030684	-0.000257
C27	C	0.141557	0.031972	-0.000246
C28	C	0.169500	0.109172	-0.000249
C29	C	0.825572	-0.041740	-0.000205
C30	C	0.824197	-0.134981	-0.000204
C31	C	0.754815	-0.349571	-0.000197
C32	C	0.787025	-0.410715	0.059504
C33	C	0.821710	-0.305697	-0.000209
C34	C	0.787058	-0.410692	-0.059890
C35	C	0.819303	-0.470601	-0.000217
C36	C	0.853939	-0.365614	0.059542
C37	C	0.853963	-0.365585	-0.059906
C38	C	0.886222	-0.426712	-0.000190
C39	C	0.823095	-0.210700	-0.000204
C40	C	0.817924	-0.565597	-0.000217
C41	C	0.947497	0.105235	-0.000243
C42	C	1.024605	0.106600	-0.000267
C43	C	0.815444	0.265436	-0.000217
C44	C	0.816819	0.358677	-0.000223
N45	N	0.820485	0.111838	0.188458
N46	N	0.820537	0.111852	-0.188878
C47	C	0.867718	0.054583	0.226549
C48	C	0.867722	0.054580	0.302777
C49	C	0.820500	0.111844	0.340910
C50	C	0.773258	0.169103	0.302810
C51	C	0.773251	0.169100	0.226583
C52	C	0.811404	0.188378	0.461669
C53	C	0.811416	0.188383	0.537894
C54	C	0.820520	0.111855	0.576018
C55	C	0.829626	0.035320	0.537908
C56	C	0.829618	0.035316	0.461681
C57	C	0.820503	0.111854	0.423565
C58	C	0.867760	0.054592	0.696765
C59	C	0.867760	0.054587	0.772994
C60	C	0.773299	0.169118	0.773025
C61	C	0.773296	0.169115	0.696797
C62	C	0.820531	0.111853	0.658671
H63	H	0.016321	0.245606	-0.000268
C64	C	0.257804	-0.012644	-0.089337
H65	H	0.208556	-0.005097	-0.083279
H66	H	0.275674	-0.068008	-0.074416
H67	H	0.268910	-0.005045	-0.139123
H68	H	0.734808	0.215728	0.333861
C69	C	0.801401	0.272564	0.579812
H70	H	0.802718	0.261607	0.630669
H71	H	0.757593	0.302647	0.567340
H72	H	0.837725	0.305369	0.567293
H73	H	0.941797	-0.460084	-0.000170
C74	C	0.801394	0.272564	0.419740
H75	H	0.795984	0.318144	0.453352
H76	H	0.760950	0.274393	0.390022
H77	H	0.841085	0.277095	0.389985
C78	C	0.721297	0.232088	0.184681
H79	H	0.693175	0.266197	0.218306
H80	H	0.692384	0.201962	0.154960
H81	H	0.746286	0.266979	0.154931
C82	C	0.721356	0.232108	0.814962
H83	H	0.728127	0.223914	0.865816
H84	H	0.675001	0.223130	0.802495
H85	H	0.728903	0.288147	0.802458
H86	H	0.243242	0.217075	0.076747
H87	H	0.493258	-0.024239	-0.000188
H88	H	0.882240	-0.345560	-0.110395
C89	C	0.155746	0.269990	-0.000252
H90	H	0.205267	0.259885	-0.000251
H91	H	0.140450	0.301231	0.041976
H92	H	0.140493	0.301235	-0.042490
C93	C	0.721354	0.232109	0.654891
H94	H	0.728111	0.223905	0.604032
H95	H	0.728904	0.288144	0.667374
H96	H	0.674996	0.223133	0.667404
C97	C	0.748835	-0.437674	-0.128074
H98	H	0.702160	-0.410977	-0.127984
H99	H	0.748605	-0.497218	-0.127824
H100	H	0.772153	-0.421453	-0.170479
H101	H	0.906177	0.007955	0.195510
C102	C	0.038373	-0.054227	-0.000262
H103	H	0.075254	-0.099251	-0.000248
H104	H	0.010476	-0.057912	-0.042495
H105	H	0.010435	-0.057911	0.041970
C106	C	0.602649	0.277916	-0.000165
H107	H	0.565767	0.322939	-0.000167
H108	H	0.630594	0.281607	-0.042386
H109	H	0.630539	0.281594	0.042079
H110	H	0.837039	-0.026997	0.568947
C111	C	0.919682	-0.008401	0.344687
H112	H	0.947813	-0.042501	0.311063
H113	H	0.894703	-0.043289	0.374444
H114	H	0.948596	0.021739	0.374401
H115	H	0.837031	-0.027002	0.430655
C116	C	0.637417	-0.043603	-0.000149
H117	H	0.610397	-0.089761	-0.000159
H118	H	0.666004	-0.046288	0.042084
H119	H	0.666042	-0.046278	-0.042382
C120	C	0.190505	-0.051524	-0.000241
H121	H	0.163484	-0.097682	-0.000253
H122	H	0.219090	-0.054210	0.041993
H123	H	0.219133	-0.054199	-0.042472
H124	H	0.463229	0.253530	-0.000193
H125	H	0.374680	0.219409	0.076770
H126	H	0.906219	0.007963	0.665722
H127	H	0.699288	-0.316049	-0.000124
C128	C	0.409943	-0.009945	-0.089315
H129	H	0.381783	-0.045429	-0.114599
H130	H	0.441860	-0.043365	-0.058729
H131	H	0.435079	0.019611	-0.123426
C132	C	0.748795	-0.437742	0.127705
H133	H	0.702114	-0.411062	0.127645
H134	H	0.772103	-0.421551	0.170099
H135	H	0.748568	-0.497290	0.127434
C136	C	0.892113	-0.338765	0.127804
H137	H	0.892728	-0.279274	0.127404
H138	H	0.938652	-0.365873	0.127969
H139	H	0.868496	-0.354571	0.170157
H140	H	0.906221	0.007959	0.804009
