data_functionalizedCrystal
_audit_creation_method	'MofGen! by Chris Wilmer'
_symmetry_space_group_name_H-M	'P1'
_symmetry_Int_Tables_number	1
_symmetry_cell_setting	triclinic
loop_
_symmetry_equiv_pos_as_xyz
  x,y,z
_cell_length_a	10.723023
_cell_length_b	14.519731
_cell_length_c	9.798715
_cell_angle_alpha	89.995867
_cell_angle_beta	89.996449
_cell_angle_gamma	84.078200
loop_
_atom_site_label
_atom_site_type_symbol
_atom_site_fract_x
_atom_site_fract_y
_atom_site_fract_z
O1	O	1.655992	0.129343	-0.113491
O2	O	2.155992	0.629343	0.386509
O3	O	1.292725	0.141724	-0.113495
O4	O	1.792725	0.641724	0.386505
O5	O	1.483976	0.001346	-0.113480
O6	O	1.983976	0.501346	0.386520
O7	O	1.464741	0.269722	-0.113505
O8	O	1.964741	0.769722	0.386495
O9	O	1.483962	0.001345	0.113502
O10	O	1.983962	0.501345	0.613502
O11	O	1.292710	0.141724	0.113488
O12	O	1.792710	0.641724	0.613488
O13	O	1.655977	0.129342	0.113492
O14	O	2.155977	0.629342	0.613492
Zn15	Zn	1.474342	0.135533	0.149528
Zn16	Zn	1.974342	0.635533	0.649528
Zn17	Zn	1.474360	0.135534	-0.149531
Zn18	Zn	1.974360	0.635534	0.350469
O19	O	1.464726	0.269721	0.113477
O20	O	1.964726	0.769721	0.613477
C21	C	1.246226	0.140823	-0.000004
C22	C	1.746226	0.640823	0.499996
C23	C	1.107697	0.138128	-0.000005
C24	C	1.607697	0.638128	0.499995
C25	C	1.045944	0.136926	-0.117589
C26	C	1.545944	0.636926	0.382411
C27	C	0.902766	0.134141	-0.117593
C28	C	1.402766	0.634141	0.382407
C29	C	1.483067	-0.033019	0.000011
C30	C	1.983067	0.466981	0.500011
C31	C	1.480367	-0.135413	0.000012
C32	C	1.980367	0.364587	0.500012
C33	C	1.478172	-0.218568	0.000009
C34	C	1.978172	0.281432	0.500009
C35	C	1.475430	-0.322891	-0.000002
C36	C	1.975430	0.177109	0.499998
C37	C	1.473254	-0.406041	-0.000010
C38	C	1.973254	0.093959	0.499990
C39	C	1.470512	-0.510370	-0.000018
C40	C	1.970512	-0.010370	0.499982
C41	C	1.702476	0.130243	-0.000002
C42	C	2.202476	0.630243	0.499998
C43	C	1.841005	0.132939	-0.000010
C44	C	2.341005	0.632939	0.499990
C45	C	1.465635	0.304085	-0.000017
C46	C	1.965635	0.804085	0.499983
C47	C	1.468336	0.406479	-0.000027
C48	C	1.968336	0.906479	0.499973
N49	N	1.474338	0.135532	0.353628
N50	N	1.974338	0.635532	0.853628
N51	N	1.474374	0.135527	-0.353631
N52	N	1.974374	0.635527	0.146369
C53	C	1.554642	0.076331	0.421411
C54	C	2.054642	0.576331	0.921411
C55	C	1.554662	0.076328	0.578573
C56	C	2.054662	0.576328	1.078573
H57	H	0.894104	0.133968	0.100663
H58	H	1.394104	0.633968	0.600663
H59	H	1.405624	0.186218	0.588088
H60	H	1.905624	0.686218	1.088088
H61	H	1.099072	0.137965	-0.218254
H62	H	1.599072	0.637965	0.281746
Br63	Br	1.668897	-0.008380	0.324221
Br64	Br	2.168897	0.491620	0.824221
H65	H	1.054567	0.137099	0.100660
H66	H	1.554567	0.637099	0.600660
H67	H	1.405597	0.186211	0.411947
H68	H	1.905597	0.686211	0.911947
H69	H	0.849661	0.133105	-0.218261
H70	H	1.349661	0.633105	0.281739
Br71	Br	1.669268	-0.008147	0.675720
Br72	Br	2.169268	0.491853	1.175720
