data_functionalizedCrystal
_audit_creation_method	'MofGen! by Chris Wilmer'
_symmetry_space_group_name_H-M	'P1'
_symmetry_Int_Tables_number	1
_symmetry_cell_setting	triclinic
loop_
_symmetry_equiv_pos_as_xyz
  x,y,z
_cell_length_a	16.974800
_cell_length_b	23.532357
_cell_length_c	15.455313
_cell_angle_alpha	92.642146
_cell_angle_beta	90.973911
_cell_angle_gamma	83.110074
loop_
_atom_site_label
_atom_site_type_symbol
_atom_site_fract_x
_atom_site_fract_y
_atom_site_fract_z
O1	O	1.048489	0.072598	0.001487
O2	O	0.818986	0.081295	-0.014633
O3	O	0.940678	-0.005947	-0.006068
O4	O	0.926797	0.159840	-0.007078
O5	O	0.933719	-0.000979	0.137705
O6	O	0.812027	0.086264	0.129140
O7	O	1.041530	0.077566	0.145259
Cu8	Cu	0.926143	0.082369	0.150327
Cu9	Cu	0.934373	0.076493	-0.019700
O10	O	0.919838	0.164809	0.136694
C11	C	0.786151	0.083358	0.055192
C12	C	0.698679	0.082094	0.049049
C13	C	0.653796	0.084207	0.124536
C14	C	0.571609	0.083011	0.118766
C15	C	0.534306	0.079705	0.037510
C16	C	0.579195	0.077590	-0.037982
C17	C	0.661381	0.078782	-0.032212
C18	C	0.288913	0.075845	0.011848
C19	C	0.206720	0.074654	0.006084
C20	C	0.199140	0.080074	0.162833
C21	C	0.281328	0.081270	0.168596
C22	C	0.326210	0.079151	0.093104
N23	N	0.450297	0.078484	0.031610
N24	N	0.410218	0.080368	0.099004
C25	C	0.936851	-0.024681	0.065797
C26	C	0.935807	-0.087905	0.065732
C27	C	0.933048	-0.482664	-0.013146
C28	C	0.932056	-0.542069	-0.013220
O29	O	0.934742	-0.575092	-0.079909
N30	N	0.927770	-0.569075	0.065114
C31	C	0.924469	-0.536671	0.143528
O32	O	0.920732	-0.565097	0.210151
C33	C	0.925456	-0.477267	0.143602
C34	C	0.929749	-0.450265	0.065262
C35	C	0.937340	-0.455662	-0.091478
C36	C	0.938334	-0.396261	-0.091403
C37	C	0.935035	-0.363862	-0.012995
C38	C	0.930743	-0.390864	0.065338
C39	C	0.922149	-0.444864	0.222014
C40	C	0.923135	-0.385455	0.222081
C41	C	0.927429	-0.358454	0.143742
C42	C	0.928438	-0.299064	0.143821
N43	N	0.932723	-0.272058	0.065486
C44	C	0.936022	-0.304457	-0.012922
C45	C	0.922396	-0.661425	0.143368
C46	C	0.921415	-0.720829	0.143296
C47	C	0.929000	-0.726223	-0.013453
C48	C	0.929987	-0.666818	-0.013379
C49	C	0.926681	-0.634420	0.065034
C50	C	0.938109	-0.179710	-0.012758
C51	C	0.939105	-0.120304	-0.012676
C52	C	0.931516	-0.114916	0.144072
C53	C	0.930523	-0.174317	0.143990
C54	C	0.933818	-0.206713	0.065568
O55	O	0.925751	-0.266005	0.210475
O56	O	0.939748	-0.276023	-0.079534
C57	C	1.074365	0.075504	0.075433
C58	C	1.161837	0.076768	0.081570
C59	C	0.923665	0.183543	0.064828
C60	C	0.924710	0.246767	0.064887
N61	N	0.920361	0.086501	0.269916
N62	N	0.940161	0.072356	-0.139288
C63	C	0.972077	0.049451	0.318950
C64	C	0.967712	0.052581	0.409450
C65	C	0.911632	0.092765	0.450915
C66	C	0.859910	0.129816	0.401875
C67	C	0.864273	0.126683	0.311375
C68	C	0.892802	0.106274	0.721172
C69	C	0.888445	0.109406	0.811677
C70	C	0.996246	0.032170	0.819247
C71	C	1.000606	0.029043	0.728746
C72	C	0.948882	0.066092	0.679713
N73	N	0.907170	0.095966	0.543422
N74	N	0.953341	0.062887	0.587208
H75	H	0.697924	0.077063	-0.093681
H76	H	1.009823	0.022412	0.449374
O77	O	0.542903	0.074481	-0.116896
C78	C	0.486251	0.122901	-0.125579
H79	H	0.502351	0.159239	-0.079831
H80	H	0.425053	0.111586	-0.108743
C81	C	0.465514	0.097362	-0.275791
C82	C	0.485292	0.141993	-0.219608
H83	H	0.464918	0.109138	-0.333792
H84	H	0.503679	0.064739	-0.269941
H85	H	0.414517	0.087936	-0.261750
H86	H	0.536291	0.151413	-0.233641
H87	H	0.447135	0.174618	-0.225462
H88	H	0.162588	0.081797	0.224294
H89	H	1.046271	-0.003678	0.694987
O90	O	0.690134	0.087341	0.203421
C91	C	0.746760	0.038908	0.212122
H92	H	0.765475	0.020308	0.145162
H93	H	0.719745	0.005278	0.249038
C94	C	0.796840	0.079402	0.344453
C95	C	0.819831	0.056560	0.262211
H96	H	0.841913	0.090289	0.375353
H97	H	0.758688	0.112031	0.338593
H98	H	0.774327	0.051373	0.375205
H99	H	0.842335	0.084590	0.231457
H100	H	0.857989	0.023935	0.268067
H101	H	0.919707	-0.635050	0.207226
O102	O	0.317441	0.084456	0.247598
C103	C	0.260199	0.086080	0.312990
H104	H	0.206136	0.066420	0.286148
H105	H	0.241650	0.132434	0.335852
C106	C	0.362159	0.075943	0.422762
C107	C	0.295760	0.051792	0.389796
H108	H	0.384095	0.054795	0.470142
H109	H	0.400725	0.074851	0.378707
H110	H	0.346692	0.114570	0.441807
H111	H	0.311229	0.013168	0.370741
H112	H	0.257198	0.052877	0.433849
H113	H	0.535071	0.084722	0.180235
O114	O	1.046451	-0.003903	0.866783
C115	C	1.035144	-0.061069	0.843838
H116	H	1.007940	-0.063331	0.776003
H117	H	0.993602	-0.076994	0.892041
C118	C	1.149071	-0.096168	0.928612
C119	C	1.115664	-0.098947	0.845292
H120	H	1.198738	-0.119534	0.929513
H121	H	1.156688	-0.057654	0.944074
H122	H	1.114445	-0.109437	0.968773
H123	H	1.150285	-0.085671	0.805136
H124	H	1.108055	-0.137459	0.829825
H125	H	0.942603	-0.098323	-0.076472
H126	H	0.928834	-0.088526	0.207910
O127	O	0.917935	-0.470990	0.298189
C128	C	0.915250	-0.429645	0.367399
H129	H	0.892123	-0.385774	0.342705
H130	H	0.977414	-0.428374	0.395955
C131	C	0.887987	-0.499344	0.468111
C132	C	0.859576	-0.445462	0.437784
H133	H	0.853648	-0.509101	0.511530
H134	H	0.889799	-0.527200	0.421484
H135	H	0.939790	-0.498278	0.491902
H136	H	0.807778	-0.446531	0.413984
H137	H	0.857754	-0.417607	0.484409
O138	O	0.332559	0.073694	-0.061453
C139	C	0.389666	0.024951	-0.062134
H140	H	0.369266	-0.008315	-0.018936
H141	H	0.448826	0.037722	-0.036855
C142	C	0.424743	0.040251	-0.208436
C143	C	0.399684	-0.000609	-0.155385
H144	H	0.430926	0.024485	-0.265957
H145	H	0.386271	0.073091	-0.207977
H146	H	0.474041	0.050890	-0.187360
H147	H	0.350383	-0.011242	-0.176455
H148	H	0.438148	-0.033451	-0.155849
O149	O	0.170611	0.071421	-0.072922
C150	C	0.227845	0.069824	-0.138317
H151	H	0.288728	0.053447	-0.110993
H152	H	0.229118	0.114765	-0.162414
C153	C	0.131623	0.049608	-0.247674
C154	C	0.206400	0.029489	-0.214115
H155	H	0.118394	0.024729	-0.294431
H156	H	0.093062	0.050686	-0.203617
H157	H	0.132693	0.087059	-0.267747
H158	H	0.205326	-0.007959	-0.194032
H159	H	0.244960	0.028404	-0.258170
O160	O	0.941335	-0.211091	-0.089012
C161	C	0.945309	-0.174507	-0.158128
H162	H	0.969868	-0.133697	-0.133339
H163	H	0.883348	-0.163130	-0.186643
C164	C	0.970007	-0.255166	-0.259037
C165	C	1.000178	-0.205044	-0.228593
H166	H	1.003850	-0.274002	-0.302505
H167	H	0.967328	-0.279813	-0.212473
H168	H	0.918374	-0.245677	-0.282793
H169	H	1.051806	-0.214534	-0.204827
H170	H	1.002868	-0.180399	-0.275154
H171	H	0.927035	-0.196304	0.207781
H172	H	0.941827	-0.374281	-0.155196
O173	O	0.940588	-0.487047	-0.167725
C174	C	0.944566	-0.450462	-0.236838
H175	H	0.969103	-0.409645	-0.212040
H176	H	0.882611	-0.439096	-0.265374
C177	C	0.969322	-0.531118	-0.337740
C178	C	0.999465	-0.480989	-0.307284
H179	H	1.003183	-0.549949	-0.381197
H180	H	0.966639	-0.555767	-0.291179
H181	H	0.917693	-0.521640	-0.361514
H182	H	1.051089	-0.490468	-0.283501
H183	H	1.002158	-0.456342	-0.353844
H184	H	0.917931	-0.742810	0.207089
H185	H	0.933482	-0.644837	-0.077170
O186	O	0.932057	-0.757712	-0.089610
C187	C	0.863461	-0.785899	-0.099117
H188	H	0.813902	-0.762027	-0.057972
H189	H	0.877123	-0.831629	-0.077026
C190	C	0.897892	-0.816486	-0.245459
C191	C	0.837020	-0.787162	-0.194930
H192	H	0.881584	-0.817267	-0.304561
H193	H	0.944108	-0.797497	-0.239054
H194	H	0.909272	-0.854591	-0.227040
H195	H	0.825649	-0.749056	-0.213342
H196	H	0.790802	-0.806144	-0.201341
H197	H	0.920431	-0.359078	0.285935
O198	O	1.026578	0.010366	0.278811
C199	C	1.071299	-0.021654	0.341501
H200	H	1.035886	-0.020128	0.403752
H201	H	1.129222	-0.002711	0.355205
C202	C	1.133238	-0.086156	0.230923
C203	C	1.089740	-0.084286	0.307378
H204	H	1.144616	-0.124790	0.209874
H205	H	1.103110	-0.064582	0.188687
H206	H	1.181502	-0.070367	0.242354
H207	H	1.041473	-0.100068	0.295944
H208	H	1.119860	-0.105864	0.349612
O209	O	0.833855	0.148379	0.851916
C210	C	0.756993	0.138198	0.824344
H211	H	0.758187	0.091740	0.799476
H212	H	0.736110	0.167902	0.770170
C213	C	0.698165	0.206771	0.931542
C214	C	0.699630	0.149709	0.901005
H215	H	0.662779	0.213873	0.978828
H216	H	0.749948	0.213631	0.950116
H217	H	0.680765	0.231517	0.886389
H218	H	0.717039	0.124964	0.946154
H219	H	0.647849	0.142844	0.882441
H220	H	0.850687	0.136443	0.681256
O221	O	0.805504	0.168834	0.442290
C222	C	0.812730	0.163648	0.532681
H223	H	0.874956	0.142917	0.549446
H224	H	0.767124	0.135883	0.555272
C225	C	0.721747	0.248953	0.557666
C226	C	0.798176	0.223496	0.578257
H227	H	0.712766	0.285870	0.585781
H228	H	0.716875	0.252447	0.496768
H229	H	0.683750	0.225811	0.576493
H230	H	0.836172	0.246635	0.559421
H231	H	0.803054	0.220008	0.639154
O232	O	0.814001	0.162734	0.263873
C233	C	0.763555	0.198864	0.319874
H234	H	0.792748	0.201808	0.386645
H235	H	0.704705	0.180586	0.325421
C236	C	0.712660	0.255430	0.201346
C237	C	0.748518	0.259049	0.283354
H238	H	0.703380	0.292554	0.178818
H239	H	0.746643	0.231087	0.163616
H240	H	0.663622	0.240196	0.205980
H241	H	0.797558	0.274276	0.278717
H242	H	0.714542	0.283396	0.321082
