data_functionalizedCrystal
_audit_creation_method	'MofGen! by Chris Wilmer'
_symmetry_space_group_name_H-M	'P1'
_symmetry_Int_Tables_number	1
_symmetry_cell_setting	triclinic
loop_
_symmetry_equiv_pos_as_xyz
  x,y,z
_cell_length_a	11.792241
_cell_length_b	11.892095
_cell_length_c	12.837942
_cell_angle_alpha	94.302569
_cell_angle_beta	90.488822
_cell_angle_gamma	93.921548
loop_
_atom_site_label
_atom_site_type_symbol
_atom_site_fract_x
_atom_site_fract_y
_atom_site_fract_z
O1	O	1.527863	0.093891	-0.135586
O2	O	1.199010	0.093918	-0.150236
O3	O	1.356144	0.093898	0.008033
O4	O	1.370729	0.093911	-0.293854
O5	O	1.343041	-0.094108	-0.005143
O6	O	1.185906	-0.094088	-0.163411
O7	O	1.514760	-0.094114	-0.148761
Zn8	Zn	1.348253	-0.123951	-0.158178
Zn9	Zn	1.365517	0.123755	-0.140819
O10	O	1.357626	-0.094095	-0.307030
C11	C	1.150074	-0.000082	-0.155903
C12	C	1.023782	-0.000072	-0.153148
N13	N	1.336478	-0.293004	-0.170025
C14	C	1.459226	-0.529667	-0.046469
C15	C	1.451005	-0.648008	-0.054757
C16	C	1.311809	-0.648029	-0.194885
C17	C	1.320030	-0.529688	-0.186596
C18	C	1.393742	-0.470511	-0.112387
C19	C	1.401969	-0.352168	-0.104104
C20	C	1.262768	-0.352191	-0.244226
C21	C	1.254547	-0.470532	-0.252515
C22	C	0.792554	-0.000105	-0.148084
C23	C	0.921226	-0.000087	-0.150898
C24	C	1.563696	-0.000112	-0.143094
C25	C	1.689989	-0.000115	-0.145849
C26	C	1.344666	-0.000104	0.040093
C27	C	1.329972	-0.000101	0.155253
N28	N	1.377300	0.292807	-0.128964
C29	C	1.369104	-0.000091	-0.339090
C30	C	1.383798	-0.000086	-0.454249
C31	C	1.506619	-0.000091	0.395219
C32	C	1.492818	-0.000088	0.503423
C33	C	1.288572	-0.000084	0.479866
C34	C	1.302373	-0.000087	0.371663
C35	C	1.411399	-0.000092	0.329343
C36	C	1.425198	-0.000103	0.221137
C37	C	1.220954	-0.000091	0.197583
C38	C	1.207153	-0.000088	0.305787
H39	H	1.519254	-0.481484	0.013949
N40	N	1.521646	-0.711812	0.016330
H41	H	1.469878	-0.760921	0.059087
H42	H	1.569580	-0.656289	0.064527
N43	N	1.232296	-0.711864	-0.274906
H44	H	1.237023	-0.795808	-0.270146
H45	H	1.254803	-0.691188	-0.347127
N46	N	1.192141	-0.288389	-0.315337
H47	H	1.208535	-0.204440	-0.298831
H48	H	1.108841	-0.309081	-0.304317
H49	H	1.194528	-0.518727	-0.312932
H50	H	1.199808	-0.000067	0.514343
N51	N	1.542784	-0.000116	0.175487
H52	H	1.601010	-0.000112	0.233642
H53	H	1.557813	0.069578	0.135984
H54	H	1.595392	-0.000107	0.360762
H55	H	1.570356	-0.000084	0.557056
N56	N	1.089566	-0.000078	0.351435
H57	H	1.095270	-0.000075	0.429978
H58	H	1.042534	-0.069777	0.322499
H59	H	1.143419	-0.000100	0.143934
N60	N	1.481459	-0.288323	-0.024070
H61	H	1.561927	-0.308900	-0.037939
H62	H	1.458884	-0.308941	0.048151
