data_functionalizedCrystal
_audit_creation_method	'MofGen! by Chris Wilmer'
_symmetry_space_group_name_H-M	'P1'
_symmetry_Int_Tables_number	1
_symmetry_cell_setting	triclinic
loop_
_symmetry_equiv_pos_as_xyz
  x,y,z
_cell_length_a	11.169417
_cell_length_b	19.121063
_cell_length_c	11.169409
_cell_angle_alpha	87.599247
_cell_angle_beta	90.019513
_cell_angle_gamma	92.470085
loop_
_atom_site_label
_atom_site_type_symbol
_atom_site_fract_x
_atom_site_fract_y
_atom_site_fract_z
Zn1	Zn	1.814442	-0.279532	0.698841
Zn2	Zn	1.805708	-0.397005	0.506692
Zn3	Zn	1.613725	-0.279576	0.498179
Zn4	Zn	1.605116	-0.396949	0.707334
O5	O	1.709748	-0.338266	0.602761
O6	O	1.981233	-0.295121	0.673360
O7	O	1.780188	-0.381470	0.337616
O8	O	1.647608	-0.181286	0.517680
O9	O	1.974816	-0.381428	0.532189
O10	O	1.795075	-0.181254	0.665105
O11	O	1.639139	-0.295195	0.331362
O12	O	1.444633	-0.295140	0.525916
O13	O	1.632936	-0.381332	0.874154
O14	O	1.438309	-0.381374	0.679581
O15	O	1.786727	-0.295066	0.867914
O16	O	1.771841	-0.495282	0.540424
O17	O	1.624467	-0.495241	0.687835
C18	C	1.397924	-0.338256	0.602747
C19	C	1.264523	-0.338269	0.602770
C20	C	1.696304	-0.520745	0.616001
C21	C	1.690663	-0.598811	0.621706
C22	C	1.764802	-0.635484	0.547700
C23	C	1.759504	-0.708835	0.553072
C24	C	1.680059	-0.745511	0.632444
C25	C	1.605917	-0.708832	0.706458
C26	C	1.611222	-0.635483	0.701091
C27	C	1.660204	-0.966979	0.652490
C28	C	1.654902	-1.040334	0.657849
C29	C	1.808491	-1.040332	0.504464
C30	C	1.813784	-0.966981	0.499099
C31	C	1.739647	-0.930309	0.573117
C32	C	1.674639	-0.820488	0.637934
C33	C	1.745074	-0.855334	0.567632
C34	C	2.022789	-0.338276	0.602777
C35	C	2.156189	-0.338280	0.602783
C36	C	1.709846	-0.338188	0.915798
C37	C	1.709887	-0.338154	1.049196
C38	C	1.723276	-0.155073	0.589496
C39	C	1.729041	-0.077008	0.583843
C40	C	1.709723	-0.338293	0.290939
C41	C	1.709928	-0.338128	0.157527
H42	H	1.819875	-0.738692	0.492808
H43	H	1.599836	-0.937127	0.712756
O44	O	1.577757	-1.076071	0.734852
C45	C	1.588992	-1.148675	0.723727
H46	H	1.627618	-1.158714	0.631870
H47	H	1.497070	-1.176592	0.733830
H48	H	1.651369	-1.169427	0.796483
H49	H	1.609952	-0.850357	0.702557
O50	O	1.842039	-0.599784	0.470756
C51	C	1.922615	-0.557296	0.536043
H52	H	1.881036	-0.546279	0.626153
H53	H	1.942456	-0.505734	0.483395
H54	H	2.009508	-0.585515	0.551373
H55	H	1.878474	-0.937121	0.434468
O56	O	1.880472	-1.076064	0.432704
C57	C	1.858743	-1.148669	0.454438
H58	H	1.818651	-1.158660	0.547751
H59	H	1.946638	-1.176502	0.448427
H60	H	1.793370	-1.169556	0.384713
H61	H	1.541237	-0.738700	0.771089
H62	H	1.550852	-0.605624	0.761356
H63	H	1.809762	-0.825470	0.503012
