data_functionalizedCrystal
_audit_creation_method	'MofGen! by Chris Wilmer'
_symmetry_space_group_name_H-M	'P1'
_symmetry_Int_Tables_number	1
_symmetry_cell_setting	triclinic
loop_
_symmetry_equiv_pos_as_xyz
  x,y,z
_cell_length_a	8.559649
_cell_length_b	16.109301
_cell_length_c	14.586319
_cell_angle_alpha	90.005214
_cell_angle_beta	90.003180
_cell_angle_gamma	76.620073
loop_
_atom_site_label
_atom_site_type_symbol
_atom_site_fract_x
_atom_site_fract_y
_atom_site_fract_z
O1	O	-2.120141	0.028207	-0.076224
O2	O	-1.654914	-0.014732	-0.076230
O3	O	-1.900308	0.128583	-0.076218
O4	O	-1.874747	-0.115108	-0.076237
O5	O	-1.900291	0.128584	0.076263
O6	O	-1.654897	-0.014731	0.076250
O7	O	-2.120124	0.028208	0.076257
Cu8	Cu	-1.887509	0.006738	0.090176
Cu9	Cu	-1.887529	0.006737	-0.090150
O10	O	-1.874730	-0.115107	0.076244
C11	C	-1.595374	-0.017985	0.000009
C12	C	-1.417989	-0.027671	0.000007
C13	C	-1.899264	0.159492	0.000023
C14	C	-1.896160	0.251590	0.000024
C15	C	-2.179664	0.031461	0.000015
C16	C	-2.357049	0.041147	0.000011
C17	C	-1.875774	-0.146016	0.000001
C18	C	-1.878878	-0.238114	-0.000006
N19	N	-1.887506	0.006740	0.217008
C20	C	-2.034553	0.482679	0.000012
C21	C	-2.031624	0.569213	0.000004
C22	C	-1.740473	0.530789	0.000004
C23	C	-1.743404	0.444257	0.000005
C24	C	-1.890449	0.420205	0.000013
C25	C	-1.884589	0.593271	0.000005
C26	C	-1.881412	0.687094	-0.000003
C27	C	-1.893627	0.326376	0.000020
N28	N	-1.887544	0.006743	-0.216982
C29	C	-1.996202	0.070183	0.452020
C30	C	-1.996207	0.070186	0.548001
C31	C	-1.778837	-0.056704	0.547999
C32	C	-1.778826	-0.056702	0.452020
C33	C	-1.887518	0.006741	0.404033
C34	C	-1.887533	0.006742	0.595994
C35	C	-1.887537	0.006744	0.700061
C36	C	-1.887512	0.006741	0.299959
H37	H	-1.440580	0.107476	0.000012
C38	C	-1.660585	-0.125504	0.600057
C39	C	-1.503577	-0.121983	0.576742
C40	C	-1.394601	-0.185343	0.624687
H41	H	-1.677683	-0.179943	0.584359
H42	H	-1.676052	-0.116422	0.664100
H43	H	-1.488115	-0.131072	0.512713
H44	H	-1.486428	-0.067559	0.592442
H45	H	-1.410069	-0.176260	0.688731
H46	H	-1.411714	-0.239777	0.608986
H47	H	-1.288060	-0.182957	0.608882
C48	C	-1.306424	-0.116071	-0.000146
C49	C	-1.209616	-0.125722	-0.078586
C50	C	-1.106810	-0.207138	-0.078752
H51	H	-1.368241	-0.158026	-0.000195
H52	H	-1.240512	-0.122790	0.052998
H53	H	-1.275521	-0.119011	-0.131715
H54	H	-1.147766	-0.083786	-0.078553
H55	H	-1.040898	-0.213857	-0.025609
H56	H	-1.168640	-0.249086	-0.078799
H57	H	-1.041104	-0.213694	-0.131968
H58	H	-2.154287	0.463099	0.000017
H59	H	-1.690313	-0.108364	0.412946
C60	C	-2.188256	0.636915	0.000052
C61	C	-2.317649	0.597325	0.000082
C62	C	-2.461968	0.659665	0.000137
H63	H	-2.193401	0.671497	-0.053108
H64	H	-2.193247	0.671469	0.053245
H65	H	-2.312661	0.562785	-0.053105
H66	H	-2.312557	0.562748	0.053239
H67	H	-2.466959	0.694219	0.053331
H68	H	-2.467097	0.694243	-0.053024
H69	H	-2.549778	0.632812	0.000166
H70	H	-1.620755	0.550384	-0.000002
C71	C	-1.586765	0.376548	0.000053
C72	C	-1.457362	0.416130	0.000078
C73	C	-1.313051	0.353785	0.000131
H74	H	-1.581636	0.341957	-0.053106
H75	H	-1.581769	0.342003	0.053248
H76	H	-1.462356	0.450660	-0.053111
H77	H	-1.462437	0.450716	0.053233
H78	H	-1.308055	0.319240	0.053325
H79	H	-1.307939	0.319197	-0.053029
H80	H	-1.225234	0.380632	0.000156
C81	C	-2.114266	0.139165	0.400084
C82	C	-2.209418	0.194738	0.462658
C83	C	-2.318180	0.258304	0.414852
H84	H	-2.180915	0.113594	0.362631
H85	H	-2.056841	0.170171	0.362671
H86	H	-2.266839	0.163737	0.500055
H87	H	-2.142813	0.220330	0.500114
H88	H	-2.260755	0.289310	0.377439
H89	H	-2.384818	0.232726	0.377400
H90	H	-2.382743	0.296023	0.457300
C91	C	-2.113957	0.139144	0.600150
C92	C	-2.028881	0.184649	0.655243
C93	C	-2.137301	0.248191	0.703285
H94	H	-2.180497	0.113563	0.637661
H95	H	-2.178660	0.176973	0.557850
H96	H	-1.964206	0.146827	0.697538
H97	H	-1.962347	0.210249	0.617755
H98	H	-2.202004	0.286020	0.660985
H99	H	-2.203835	0.222603	0.740791
H100	H	-2.079592	0.279079	0.740665
