data_functionalizedCrystal
_audit_creation_method	'MofGen! by Chris Wilmer'
_symmetry_space_group_name_H-M	'P1'
_symmetry_Int_Tables_number	1
_symmetry_cell_setting	triclinic
loop_
_symmetry_equiv_pos_as_xyz
  x,y,z
_cell_length_a	12.759401
_cell_length_b	14.908520
_cell_length_c	12.759393
_cell_angle_alpha	93.263606
_cell_angle_beta	89.979062
_cell_angle_gamma	93.322137
loop_
_atom_site_label
_atom_site_type_symbol
_atom_site_fract_x
_atom_site_fract_y
_atom_site_fract_z
Zn1	Zn	1.582080	-0.359078	-0.618119
Zn2	Zn	1.571808	-0.509962	-0.452566
Zn3	Zn	1.406376	-0.359126	-0.442458
Zn4	Zn	1.396212	-0.509899	-0.628199
O5	O	1.489119	-0.434516	-0.535335
O6	O	1.727738	-0.379099	-0.596170
O7	O	1.549818	-0.490000	-0.304207
O8	O	1.438236	-0.232875	-0.457311
O9	O	1.720192	-0.489953	-0.474539
O10	O	1.567325	-0.232840	-0.586369
O11	O	1.428275	-0.379181	-0.296781
O12	O	1.258007	-0.379120	-0.467085
O13	O	1.420913	-0.489846	-0.773880
O14	O	1.250540	-0.489892	-0.603548
O15	O	1.557470	-0.379038	-0.766474
O16	O	1.539963	-0.636198	-0.484313
O17	O	1.410953	-0.636152	-0.613349
C18	C	1.216153	-0.434505	-0.535314
C19	C	1.099375	-0.434522	-0.535331
C20	C	1.473269	-0.668908	-0.551045
C21	C	1.466584	-0.769183	-0.557800
C22	C	1.040646	-0.492289	-0.606288
C23	C	0.930922	-0.492292	-0.606309
C24	C	0.938665	-0.376759	-0.464407
C25	C	1.048387	-0.376752	-0.464392
C26	C	1.588499	-0.957595	-0.436237
C27	C	1.582222	-1.051812	-0.442581
C28	C	1.447758	-1.051834	-0.576837
C29	C	1.454036	-0.957617	-0.570493
C30	C	1.524407	-0.910501	-0.500189
C31	C	1.530679	-0.816283	-0.493841
C32	C	1.396221	-0.816307	-0.628101
C33	C	1.389944	-0.910523	-0.634445
C34	C	1.763152	-0.434528	-0.535358
C35	C	1.879928	-0.434533	-0.535367
C36	C	1.489204	-0.434429	-0.809363
C37	C	1.489240	-0.434392	-0.926137
C38	C	1.505060	-0.199208	-0.519588
C39	C	1.511853	-0.098934	-0.512877
C40	C	1.560350	-0.376686	-0.977144
C41	C	1.560371	-0.376647	-1.086866
C42	C	1.418166	-0.492029	-1.094564
C43	C	1.418142	-0.492063	-0.984844
C44	C	1.489100	-0.434537	-0.262369
C45	C	1.489285	-0.434320	-0.145579
H46	H	1.082157	-0.539327	-0.664053
C47	C	0.882580	-0.313215	-0.386374
C48	C	0.897123	-0.320445	-0.267406
C49	C	0.841043	-0.256898	-0.189369
C50	C	0.770421	-0.186122	-0.230300
C51	C	0.755874	-0.178890	-0.349274
C52	C	0.811954	-0.242437	-0.427311
H53	H	0.949405	-0.372840	-0.237101
H54	H	0.851812	-0.262252	-0.101297
H55	H	0.728907	-0.139081	-0.172533
H56	H	0.703592	-0.126495	-0.379579
H57	H	0.801185	-0.237083	-0.515383
C58	C	0.866320	-0.555839	-0.684360
C59	C	0.922410	-0.619379	-0.762388
C60	C	0.857808	-0.682927	-0.840444
C61	C	0.737118	-0.682936	-0.840473
C62	C	0.681022	-0.619393	-0.762443
C63	C	0.745623	-0.555845	-0.684386
H64	H	1.011758	-0.619375	-0.762369
H65	H	0.899335	-0.729966	-0.898208
H66	H	0.689296	-0.729978	-0.898256
H67	H	0.591674	-0.619397	-0.762462
H68	H	0.704097	-0.508807	-0.626623
H69	H	1.618274	-0.329655	-1.128391
H70	H	1.360228	-0.539054	-0.943314
H71	H	1.096206	-0.329706	-0.406610
H72	H	1.587976	-0.777922	-0.436593
H73	H	1.332652	-0.948898	-0.691687
C74	C	1.370364	-1.103677	-0.654169
C75	C	1.251785	-1.090841	-0.644627
C76	C	1.174392	-1.142687	-0.721959
C77	C	1.215579	-1.207370	-0.808834
C78	C	1.334165	-1.220209	-0.818379
C79	C	1.411557	-1.168363	-0.741046
H80	H	1.221290	-1.042956	-0.580314
H81	H	1.086607	-1.133183	-0.714893
H82	H	1.158289	-1.245750	-0.866080
H83	H	1.364659	-1.268094	-0.882692
H84	H	1.499342	-1.177867	-0.748113
C85	C	1.665901	-0.905760	-0.358906
C86	C	1.624728	-0.841073	-0.272028
C87	C	1.702131	-0.789238	-0.194697
C88	C	1.820707	-0.802089	-0.204244
C89	C	1.861886	-0.866778	-0.291126
C90	C	1.784483	-0.918613	-0.368457
H91	H	1.536946	-0.831557	-0.264957
H92	H	1.671647	-0.741350	-0.130381
H93	H	1.878005	-0.763717	-0.146999
H94	H	1.949668	-0.876294	-0.298196
H95	H	1.814967	-0.966501	-0.432773
C96	C	1.325713	-0.764505	-0.698458
C97	C	1.247560	-0.699831	-0.648497
C98	C	1.177049	-0.648031	-0.718849
C99	C	1.184691	-0.660906	-0.839160
C100	C	1.262846	-0.725583	-0.889126
C101	C	1.333357	-0.777383	-0.818775
H102	H	1.241901	-0.690298	-0.559430
H103	H	1.119193	-0.600153	-0.681859
H104	H	1.132494	-0.622560	-0.891238
H105	H	1.268506	-0.735116	-0.978194
H106	H	1.391213	-0.825261	-0.855764
H107	H	1.634414	-1.090152	-0.390506
H108	H	1.618240	-0.329724	-0.929348
H109	H	1.360283	-0.538984	-1.142377
