data_functionalizedCrystal
_audit_creation_method	'MofGen! by Chris Wilmer'
_symmetry_space_group_name_H-M	'P1'
_symmetry_Int_Tables_number	1
_symmetry_cell_setting	triclinic
loop_
_symmetry_equiv_pos_as_xyz
  x,y,z
_cell_length_a	10.540535
_cell_length_b	10.489741
_cell_length_c	9.016244
_cell_angle_alpha	89.998079
_cell_angle_beta	89.995024
_cell_angle_gamma	84.531408
loop_
_atom_site_label
_atom_site_type_symbol
_atom_site_fract_x
_atom_site_fract_y
_atom_site_fract_z
O1	O	1.685918	0.179732	-0.123258
O2	O	1.316506	0.196675	-0.123279
O3	O	1.509618	0.002605	-0.123259
O4	O	1.492806	0.373803	-0.123278
O5	O	1.509589	0.002609	0.123421
O6	O	1.316478	0.196680	0.123402
O7	O	1.685889	0.179736	0.123422
Cu8	Cu	1.501181	0.188208	0.145936
Cu9	Cu	1.501215	0.188203	-0.145793
O10	O	1.492778	0.373807	0.123403
C11	C	1.269189	0.195408	0.000059
C12	C	1.128240	0.191610	0.000051
C13	C	1.091552	0.049915	0.000064
C14	C	0.944951	0.045918	0.000639
C15	C	0.918895	0.256294	0.140658
C16	C	1.065661	0.259309	0.140762
C17	C	1.065578	0.261366	-0.139771
C18	C	0.919231	0.254813	-0.141603
C19	C	1.508334	-0.044925	0.000080
C20	C	1.504535	-0.186554	0.000077
C21	C	1.381664	-0.254677	0.000060
C22	C	1.439693	-0.346805	0.121689
C23	C	1.439750	-0.346784	-0.121519
C24	C	1.562615	-0.276817	0.121807
C25	C	1.562655	-0.276786	-0.121510
C26	C	1.620773	-0.368887	0.000149
C27	C	1.733207	0.181004	0.000081
C28	C	1.874156	0.184801	0.000079
C29	C	1.494062	0.421336	0.000060
C30	C	1.497860	0.562965	0.000053
N31	N	1.501167	0.188211	0.351122
N32	N	1.501239	0.188190	-0.350979
C33	C	1.397547	0.291678	0.586144
C34	C	1.397777	0.292066	0.414253
C35	C	1.633893	0.218488	0.413466
C36	C	1.633328	0.219221	0.585411
C37	C	1.473377	0.054129	0.585671
C38	C	1.470332	0.054998	0.413716
H39	H	1.133526	-0.004499	-0.100733
F40	F	1.371726	-0.387329	0.256088
F41	F	1.148327	-0.020016	0.131646
H42	H	1.548979	-0.022898	0.626331
H43	H	0.916480	-0.009716	0.102012
H44	H	0.887975	0.207248	0.245685
H45	H	0.870195	0.356173	-0.150535
H46	H	1.378636	0.025312	0.629114
H47	H	1.614612	-0.245750	-0.224339
H48	H	1.614547	-0.245990	0.224751
F49	F	0.906607	-0.027160	-0.131052
F50	F	1.342707	0.024998	0.360461
F51	F	1.737199	0.124430	0.639778
F52	F	1.421147	0.422081	0.360460
H53	H	1.540849	-0.025712	0.370748
F54	F	1.752936	-0.433509	0.000241
F55	F	1.371783	-0.387277	-0.255916
F56	F	1.249619	-0.189762	0.000205
H57	H	1.712940	0.145171	0.372570
H58	H	1.299158	0.273848	0.372105
H59	H	1.088704	0.363183	0.146763
F60	F	1.118149	0.196206	0.278648
F61	F	0.857015	0.389953	0.146972
H62	H	1.298620	0.273741	0.627533
H63	H	1.108044	0.217149	-0.246362
F64	F	0.881888	0.186789	-0.277545
F65	F	1.665175	0.347062	0.637810
F66	F	1.094546	0.397645	-0.141524
H67	H	1.415226	0.390577	0.629334
F68	F	1.666456	0.344884	0.357159
