data_functionalizedCrystal
_audit_creation_method	'MofGen! by Chris Wilmer'
_symmetry_space_group_name_H-M	'P1'
_symmetry_Int_Tables_number	1
_symmetry_cell_setting	triclinic
loop_
_symmetry_equiv_pos_as_xyz
  x,y,z
_cell_length_a	19.188940
_cell_length_b	17.699083
_cell_length_c	16.776229
_cell_angle_alpha	90.001114
_cell_angle_beta	89.992904
_cell_angle_gamma	96.784135
loop_
_atom_site_label
_atom_site_type_symbol
_atom_site_fract_x
_atom_site_fract_y
_atom_site_fract_z
O1	O	0.088294	-1.003966	-0.066177
O2	O	0.099781	-0.783572	-0.066203
O3	O	-0.007611	-0.900125	-0.066183
O4	O	0.195686	-0.887413	-0.066197
O5	O	-0.007617	-0.900110	0.066393
O6	O	0.099775	-0.783557	0.066373
O7	O	0.088287	-1.003950	0.066399
Zn8	Zn	0.094030	-0.893751	0.087436
Zn9	Zn	0.094039	-0.893771	-0.087240
O10	O	0.195679	-0.887397	0.066379
C11	C	0.099366	-0.755368	0.000081
C12	C	0.098131	-0.671352	0.000072
C13	C	-0.033625	-0.899705	0.000105
C14	C	-0.111131	-0.898465	0.000104
C15	C	0.088702	-1.032154	0.000113
C16	C	0.089937	-1.116171	0.000117
C17	C	-0.664403	-0.889639	0.072352
C18	C	-0.591578	-0.890795	0.072356
C19	C	-0.555154	-0.891385	0.000090
C20	C	-0.591559	-0.890799	-0.072187
C21	C	-0.664383	-0.889636	-0.072189
N22	N	-0.446077	-0.936287	-0.053694
N23	N	-0.376898	-0.937395	-0.053687
C24	C	-0.335741	-0.894891	0.000093
N25	N	-0.366377	-0.851247	0.053878
N26	N	-0.435563	-0.850143	0.053873
C27	C	-0.476189	-0.892647	0.000084
C28	C	-0.220377	-0.896725	0.072370
C29	C	-0.147550	-0.897876	0.072371
C30	C	-0.147534	-0.897888	-0.072174
C31	C	-0.220359	-0.896729	-0.072173
C32	C	-0.256777	-0.896151	0.000101
C33	C	0.221694	-0.887818	0.000089
C34	C	0.299199	-0.889057	0.000085
N35	N	0.094024	-0.893743	0.206647
C36	C	0.161168	-0.622650	0.000068
C37	C	0.160004	-0.543708	0.000078
C38	C	0.095802	-0.513470	0.000087
C39	C	0.032760	-0.562178	0.000093
C40	C	0.033926	-0.641118	0.000088
C41	C	0.028060	-0.243820	0.000113
C42	C	0.026900	-0.164874	0.000115
C43	C	0.154138	-0.146411	0.000103
C44	C	0.155303	-0.225351	0.000098
C45	C	0.092262	-0.274052	0.000109
C46	C	0.093526	-0.359650	0.000099
C47	C	0.094538	-0.427874	0.000091
N48	N	0.094039	-0.893786	-0.206451
C49	C	0.046490	-0.945368	0.248373
C50	C	0.046489	-0.945372	0.331825
C51	C	0.094026	-0.893754	0.373550
C52	C	0.141562	-0.842124	0.331818
C53	C	0.141559	-0.842116	0.248367
C54	C	0.141576	-0.842151	0.668365
C55	C	0.141577	-0.842164	0.751822
C56	C	0.046506	-0.945407	0.751823
C57	C	0.046503	-0.945400	0.668372
C58	C	0.094036	-0.893767	0.626648
C59	C	0.094035	-0.893762	0.536159
C60	C	0.094031	-0.893762	0.464036
H61	H	-0.694050	-0.889167	0.131203
C62	C	0.225930	-0.258609	0.000093
N63	N	0.279128	-0.283657	0.000095
H64	H	0.007797	-0.987434	0.634402
C65	C	0.193855	-0.785331	0.202469
N66	N	0.233247	-0.742558	0.167900
H67	H	-0.561935	-0.891254	0.131206
C68	C	0.193869	-0.785372	0.797717
N69	N	0.233253	-0.742598	0.832286
H70	H	0.180280	-0.800111	0.634400
H71	H	0.180265	-0.800091	0.365795
H72	H	0.205469	-0.106749	0.000098
H73	H	-0.561898	-0.891277	-0.131027
H74	H	0.007800	-0.987447	0.785804
H75	H	0.211335	-0.504058	0.000074
H76	H	-0.025384	-0.140257	0.000124
C77	C	-0.704425	-0.889024	-0.151692
N78	N	-0.734586	-0.888574	-0.211575
C79	C	-0.041287	-0.297381	0.000120
N80	N	-0.093523	-0.337727	0.000123
C81	C	-0.035420	-0.694690	0.000090
N82	N	-0.087653	-0.735040	0.000094
C83	C	-0.107471	-0.898535	-0.151668
N84	N	-0.077293	-0.899021	-0.211545
H85	H	-0.250030	-0.896247	0.131219
C86	C	-0.037862	-0.528912	0.000104
N87	N	-0.091057	-0.503858	0.000109
C88	C	-0.005818	-1.002146	0.377720
N89	N	-0.045225	-1.044904	0.412287
C90	C	-0.260403	-0.896136	-0.151674
N91	N	-0.290566	-0.895702	-0.211557
C92	C	-0.107512	-0.898512	0.151875
N93	N	-0.077356	-0.898992	0.211759
H94	H	0.213449	-0.647264	0.000060
H95	H	0.007783	-0.987404	0.214406
