data_functionalizedCrystal
_audit_creation_method	'MofGen! by Chris Wilmer'
_symmetry_space_group_name_H-M	'P1'
_symmetry_Int_Tables_number	1
_symmetry_cell_setting	triclinic
loop_
_symmetry_equiv_pos_as_xyz
  x,y,z
_cell_length_a	18.101398
_cell_length_b	21.295417
_cell_length_c	18.101389
_cell_angle_alpha	90.022566
_cell_angle_beta	90.009745
_cell_angle_gamma	90.026064
loop_
_atom_site_label
_atom_site_type_symbol
_atom_site_fract_x
_atom_site_fract_y
_atom_site_fract_z
Zn1	Zn	1.132124	-0.250750	0.418529
Zn2	Zn	1.132021	-0.356003	0.294679
Zn3	Zn	1.008283	-0.250744	0.294722
Zn4	Zn	1.008235	-0.355977	0.418499
O5	O	1.070166	-0.303369	0.356607
O6	O	1.235743	-0.264726	0.402095
O7	O	1.115584	-0.342049	0.191052
O8	O	1.024774	-0.162655	0.311176
O9	O	1.235668	-0.342055	0.311102
O10	O	1.115759	-0.162660	0.402137
O11	O	1.024674	-0.264715	0.191083
O12	O	0.904644	-0.264690	0.311147
O13	O	1.024692	-0.342010	0.522136
O14	O	0.904608	-0.342004	0.402085
O15	O	1.115713	-0.264700	0.522158
O16	O	1.115538	-0.444089	0.311073
O17	O	1.024592	-0.444070	0.402043
C18	C	0.877755	-0.303344	0.356618
C19	C	0.795441	-0.303348	0.356640
C20	C	0.496350	-0.303385	0.356609
C21	C	0.527678	-0.352265	0.413542
C22	C	0.613296	-0.352112	0.413776
C23	C	0.644733	-0.303368	0.356624
C24	C	0.613677	-0.237068	0.377957
C25	C	0.528032	-0.237361	0.378362
C26	C	0.527898	-0.320222	0.278204
C27	C	0.613548	-0.321676	0.278623
C28	C	0.728592	-0.303353	0.356631
C29	C	0.412491	-0.303395	0.356603
C30	C	1.070069	-0.466920	0.356566
C31	C	1.070095	-0.536888	0.356573
C32	C	1.117492	-0.569744	0.309254
C33	C	1.117527	-0.635487	0.309270
C34	C	1.070151	-0.668371	0.356599
C35	C	1.022751	-0.635507	0.403928
C36	C	1.022722	-0.569766	0.403915
N37	N	1.005367	-0.771633	0.362248
N38	N	1.005396	-0.834084	0.362256
C39	C	1.070234	-0.866445	0.356641
N40	N	1.135044	-0.833996	0.351004
N41	N	1.135014	-0.771539	0.350993
C42	C	1.070177	-0.739656	0.356618
C43	C	1.117673	-0.970587	0.309337
C44	C	1.117709	-1.036331	0.309359
C45	C	1.022926	-1.036350	0.404013
C46	C	1.022897	-0.970607	0.403995
C47	C	1.070269	-0.937730	0.356653
C48	C	1.263328	-0.303394	0.356597
C49	C	1.345642	-0.303405	0.356593
C50	C	1.070209	-0.303353	0.549769
C51	C	1.070227	-0.303346	0.632083
C52	C	1.070283	-0.139178	0.356665
C53	C	1.070334	-0.069210	0.356689
C54	C	1.070166	-0.303339	0.164197
C55	C	1.070291	-0.303168	0.081883
C56	C	1.070270	-0.303228	0.931174
C57	C	1.012805	-0.351714	0.899835
C58	C	1.012960	-0.351939	0.814217
C59	C	1.070248	-0.303286	0.782792
C60	C	1.148273	-0.321298	0.813876
C61	C	1.147953	-0.321617	0.899521
C62	C	1.050388	-0.236622	0.899609
C63	C	1.048652	-0.237006	0.813959
C64	C	1.070240	-0.303318	0.698932
C65	C	1.070283	-0.303197	1.015034
H66	H	0.507063	-0.401591	0.400320
Cl67	Cl	1.174749	-0.395674	0.780761
Cl68	Cl	1.033269	-0.428156	0.782576
H69	H	0.994480	-0.220212	0.921211
Cl70	Cl	0.959995	-0.216036	0.782603
H71	H	0.506167	-0.341268	0.471298
H72	H	0.634041	-0.199662	0.337784
Cl73	Cl	0.963304	-0.929300	0.463482
H74	H	1.156067	-0.542977	0.270707
Cl75	Cl	1.115007	-0.180847	0.930901
H76	H	0.984355	-1.063123	0.442552
H77	H	0.633799	-0.340973	0.471868
Cl78	Cl	1.177225	-0.929252	0.249823
H79	H	0.508071	-0.223080	0.435679
Cl80	Cl	0.923631	-0.334534	0.781765
H81	H	0.984178	-0.662285	0.442464
Cl82	Cl	1.177305	-1.077636	0.249871
Cl83	Cl	0.494518	-0.393581	0.248266
Cl84	Cl	1.177115	-0.676800	0.249777
H85	H	0.954772	-0.340558	0.920437
H86	H	1.025801	-0.400784	0.921353
H87	H	0.633852	-0.370463	0.262534
Cl88	Cl	1.108565	-0.178269	0.780946
Cl89	Cl	1.173974	-0.396790	0.930364
Cl90	Cl	1.216156	-0.268489	0.782454
Cl91	Cl	0.645715	-0.428026	0.393164
H92	H	1.192220	-0.287834	0.920253
H93	H	0.507310	-0.199638	0.338796
H94	H	0.634947	-0.288659	0.233925
Cl95	Cl	0.646812	-0.214618	0.465490
Cl96	Cl	0.496618	-0.265255	0.212709
Cl97	Cl	0.963132	-0.528459	0.463407
