data_functionalizedCrystal
_audit_creation_method	'MofGen! by Chris Wilmer'
_symmetry_space_group_name_H-M	'P1'
_symmetry_Int_Tables_number	1
_symmetry_cell_setting	triclinic
loop_
_symmetry_equiv_pos_as_xyz
  x,y,z
_cell_length_a	19.077105
_cell_length_b	12.759400
_cell_length_c	19.077569
_cell_angle_alpha	87.679985
_cell_angle_beta	85.299277
_cell_angle_gamma	87.709695
loop_
_atom_site_label
_atom_site_type_symbol
_atom_site_fract_x
_atom_site_fract_y
_atom_site_fract_z
Zn1	Zn	1.093778	-0.457497	-0.441874
Zn2	Zn	1.088985	-0.639971	-0.323994
Zn3	Zn	0.971160	-0.457512	-0.319270
Zn4	Zn	0.975880	-0.626338	-0.437113
O5	O	1.032451	-0.545330	-0.380563
O6	O	1.191793	-0.487402	-0.430207
O7	O	1.069374	-0.621480	-0.224716
O8	O	0.987457	-0.310490	-0.335549
O9	O	1.188272	-0.621465	-0.343601
O10	O	1.077543	-0.310479	-0.425626
O11	O	0.982809	-0.487428	-0.221245
O12	O	0.873135	-0.474208	-0.330932
O13	O	0.995500	-0.598229	-0.536396
O14	O	0.876603	-0.598244	-0.417511
O15	O	1.082120	-0.474183	-0.539894
O16	O	1.073951	-0.785183	-0.338984
O17	O	0.990853	-0.775167	-0.422092
C18	C	0.849290	-0.534749	-0.373193
C19	C	0.770934	-0.530247	-0.370057
C20	C	0.735942	-0.592816	-0.413589
C21	C	0.662318	-0.588572	-0.410646
C22	C	0.623687	-0.521763	-0.364166
C23	C	0.658683	-0.459187	-0.320631
C24	C	0.732306	-0.463427	-0.323579
C25	C	0.403303	-0.502143	-0.350528
C26	C	0.329675	-0.497910	-0.347582
C27	C	0.333316	-0.627294	-0.437598
C28	C	0.406940	-0.631532	-0.440539
C29	C	0.441929	-0.568952	-0.397007
N30	N	0.548431	-0.517426	-0.361155
N31	N	0.517184	-0.573285	-0.400022
C32	C	1.032413	-0.818296	-0.380550
C33	C	1.032463	-0.935074	-0.380571
C34	C	1.079350	-0.989847	-0.427510
C35	C	1.079383	-1.099572	-0.427529
C36	C	0.985640	-1.099741	-0.333663
C37	C	0.985604	-0.990018	-0.333648
C38	C	1.126209	-0.934903	-0.474433
C39	C	1.173100	-0.989676	-0.521375
C40	C	1.173134	-1.099401	-0.521394
C41	C	1.126276	-1.154353	-0.474470
C42	C	1.216327	-0.555952	-0.387962
C43	C	1.294684	-0.560479	-0.391115
C44	C	1.039871	-0.534683	-0.564439
C45	C	1.043033	-0.530147	-0.642796
C46	C	1.032508	-0.271298	-0.380592
C47	C	1.032533	-0.154522	-0.380604
C48	C	0.999421	-0.592595	-0.677789
C49	C	1.002398	-0.588332	-0.751414
C50	C	1.048984	-0.521615	-0.790045
C51	C	1.092600	-0.459165	-0.755048
C52	C	1.089626	-0.463434	-0.681424
C53	C	1.062717	-0.501928	-1.010432
C54	C	1.065686	-0.497662	-1.084060
C55	C	0.975485	-0.626831	-1.080421
C56	C	0.972512	-0.631089	-1.006796
C57	C	1.016131	-0.568643	-0.971805
N58	N	1.052026	-0.517254	-0.865302
N59	N	1.013092	-0.573010	-0.896550
C60	C	1.025100	-0.555861	-0.197404
C61	C	1.022075	-0.560110	-0.119052
H62	H	0.304819	-0.678241	-0.473041
H63	H	1.126299	-1.243698	-0.474497
H64	H	0.298223	-0.443494	-0.309737
H65	H	0.961478	-0.646910	-0.646340
H66	H	0.431783	-0.451194	-0.315076
H67	H	0.934588	-0.685434	-0.975347
O68	O	0.959960	-0.649026	-0.785293
C69	C	0.918214	-0.708840	-0.735409
H70	H	0.913665	-0.668706	-0.682834
H71	H	0.863527	-0.715599	-0.754447
H72	H	0.943692	-0.790580	-0.728609
H73	H	0.627223	-0.404786	-0.282789
O74	O	0.773493	-0.657833	-0.458642
C75	C	0.814455	-0.730364	-0.420137
H76	H	0.790016	-0.738666	-0.363718
H77	H	0.816310	-0.809852	-0.445578
H78	H	0.870159	-0.701228	-0.419981
H79	H	1.211309	-1.143994	-0.559622
H80	H	0.633832	-0.639523	-0.446094
H81	H	1.103619	-0.443324	-1.115512
O82	O	0.933192	-0.687459	-1.114523
C83	C	0.945791	-0.669371	-1.187789
H84	H	1.000607	-0.637519	-1.200035
H85	H	0.942125	-0.746170	-1.215570
H86	H	0.904829	-0.609799	-1.207005
O87	O	1.105109	-0.441160	-0.976557
C88	C	1.146872	-0.381377	-1.026445
H89	H	1.120114	-0.373032	-1.077764
H90	H	1.153551	-0.300266	-1.005484
H91	H	1.200721	-0.422488	-1.036428
O92	O	1.137793	-0.394381	-0.792678
C93	C	1.131079	-0.404020	-0.865165
H94	H	1.077073	-0.434700	-0.873031
H95	H	1.137008	-0.323978	-0.893343
H96	H	1.173725	-0.461174	-0.887736
H97	H	1.125139	-0.412582	-0.652935
O98	O	0.444358	-0.696453	-0.485753
C99	C	0.397685	-0.750790	-0.523532
H100	H	0.345310	-0.704597	-0.523926
H101	H	0.421210	-0.760142	-0.579914
H102	H	0.388794	-0.831569	-0.497309
H103	H	0.760795	-0.412471	-0.288133
O104	O	1.126247	-0.828315	-0.474530
C105	C	1.177671	-0.791563	-0.525996
H106	H	1.189196	-0.852943	-0.567599
H107	H	1.157436	-0.715388	-0.551862
H108	H	1.227962	-0.776640	-0.500146
O109	O	1.218540	-0.936336	-0.567055
C110	C	1.205930	-0.958187	-0.636686
H111	H	1.149761	-0.984956	-0.637937
H112	H	1.213356	-0.884335	-0.671751
H113	H	1.244476	-1.022936	-0.656675
H114	H	0.947491	-1.144492	-0.295459
H115	H	0.947424	-0.945421	-0.295427
