data_functionalizedCrystal
_audit_creation_method	'MofGen! by Chris Wilmer'
_symmetry_space_group_name_H-M	'P1'
_symmetry_Int_Tables_number	1
_symmetry_cell_setting	triclinic
loop_
_symmetry_equiv_pos_as_xyz
  x,y,z
_cell_length_a	26.455835
_cell_length_b	26.455273
_cell_length_c	26.451828
_cell_angle_alpha	60.005170
_cell_angle_beta	60.010757
_cell_angle_gamma	59.993435
loop_
_atom_site_label
_atom_site_type_symbol
_atom_site_fract_x
_atom_site_fract_y
_atom_site_fract_z
O1	O	0.069940	-0.738516	0.617604
O2	O	0.569940	-0.238516	1.117604
O3	O	0.026299	-0.574986	0.497618
O4	O	0.526299	-0.074986	0.997618
O5	O	0.129847	-0.678463	0.497546
O6	O	0.629847	-0.178463	0.997546
O7	O	-0.033607	-0.635040	0.617676
O8	O	0.466393	-0.135040	1.117676
O9	O	0.164197	-0.644116	0.531822
O10	O	0.664197	-0.144116	1.031822
O11	O	0.060649	-0.540639	0.531894
O12	O	0.560649	-0.040639	1.031894
O13	O	0.104290	-0.704170	0.651880
O14	O	0.604290	-0.204170	1.151880
Cu15	Cu	0.085606	-0.619268	0.595016
Cu16	Cu	0.585606	-0.119268	1.095016
Cu17	Cu	0.044984	-0.659887	0.554481
Cu18	Cu	0.544984	-0.159887	1.054481
O19	O	0.000742	-0.600693	0.651952
O20	O	0.500742	-0.100693	1.151952
N21	N	0.114179	-0.590703	0.623530
N22	N	0.614179	-0.090703	1.123530
N23	N	0.016416	-0.688458	0.525968
N24	N	0.516416	-0.188458	1.025968
C25	C	0.157553	-0.547535	0.933368
C26	C	0.657553	-0.047535	1.433368
C27	C	0.424104	-0.547506	0.666656
C28	C	0.924104	-0.047506	1.166656
C29	C	0.157413	-0.547503	0.666729
C30	C	0.657413	-0.047503	1.166729
C31	C	0.157397	-0.280846	0.666749
C32	C	0.657397	0.219154	1.166749
C33	C	0.200330	-0.409550	0.709625
C34	C	0.700330	0.090450	1.209625
C35	C	0.200339	-0.504608	0.709615
C36	C	0.700339	-0.004608	1.209615
C37	C	0.224118	-0.480848	0.733375
C38	C	0.724118	0.019152	1.233375
C39	C	0.327800	-0.462984	0.678792
C40	C	0.827800	0.037016	1.178792
C41	C	0.392611	-0.484588	0.657175
C42	C	0.892611	0.015412	1.157175
C43	C	0.392630	-0.589450	0.697162
C44	C	0.892630	-0.089450	1.197162
C45	C	0.327821	-0.567844	0.718781
C46	C	0.827821	-0.067844	1.218781
C47	C	0.215955	-0.377135	0.645910
C48	C	0.715955	0.122865	1.145910
C49	C	0.194327	-0.312320	0.624323
C50	C	0.694327	0.187680	1.124323
C51	C	0.141457	-0.312339	0.730169
C52	C	0.641457	0.187661	1.230169
C53	C	0.163084	-0.377154	0.751756
C54	C	0.663084	0.122846	1.251756
C55	C	0.136618	-0.488954	0.725292
C56	C	0.636618	0.011046	1.225292
C57	C	0.115007	-0.510553	0.703686
C58	C	0.615007	-0.010553	1.203686
C59	C	0.220833	-0.563461	0.650740
C60	C	0.720833	-0.063461	1.150740
C61	C	0.242447	-0.541861	0.672339
C62	C	0.742447	-0.041861	1.172339
C63	C	0.136680	-0.488971	0.837094
C64	C	0.636680	0.011029	1.337094
C65	C	0.115112	-0.510589	0.901907
C66	C	0.615112	-0.010589	1.401907
C67	C	0.220969	-0.563508	0.901868
C68	C	0.720969	-0.063508	1.401868
C69	C	0.242535	-0.541892	0.837053
C70	C	0.742535	-0.041892	1.337053
C71	C	0.200389	-0.504622	0.804668
C72	C	0.700389	-0.004622	1.304668
C73	C	0.295409	-0.504610	0.709593
C74	C	0.795409	-0.004610	1.209593
C75	C	0.132990	-0.570876	1.004655
C76	C	0.632990	-0.070876	1.504655
C77	C	0.495389	-0.570440	0.642547
C78	C	0.995389	-0.070440	1.142547
C79	C	0.132802	-0.570856	0.643399
C80	C	0.632802	-0.070856	1.143399
C81	C	0.133212	-0.209553	0.643833
C82	C	0.633212	0.290447	1.143833
C83	C	-0.097217	-0.706972	0.506986
C84	C	0.402783	-0.206972	1.006986
C85	C	-0.002040	-0.707108	0.412067
C86	C	0.497960	-0.207108	0.912067
C87	C	-0.002230	-0.802124	0.507163
C88	C	0.497770	-0.302124	1.007163
C89	C	-0.002214	-0.707101	0.507221
C90	C	0.497786	-0.207101	1.007221
C91	C	-0.025925	-0.730827	0.483360
C92	C	0.474075	-0.230827	0.983360
N93	N	0.553723	-0.590712	0.623415
N94	N	1.053723	-0.090712	1.123415
O95	O	0.751638	-0.596429	0.475603
O96	O	1.251638	-0.096429	0.975603
O97	O	0.751819	-0.716773	0.638980
O98	O	1.251819	-0.216773	1.138980
O99	O	0.751753	-0.716500	0.535361
O100	O	1.251753	-0.216500	1.035361
O101	O	0.751705	-0.596703	0.579222
O102	O	1.251705	-0.096703	1.079222
O103	O	0.648791	-0.682239	0.569747
O104	O	1.148791	-0.182239	1.069747
O105	O	0.648858	-0.682512	0.673366
O106	O	1.148858	-0.182512	1.173366
O107	O	0.648676	-0.562169	0.509989
O108	O	1.148676	-0.062169	1.009989
Cu109	Cu	0.639366	-0.619212	0.594817
Cu110	Cu	1.139366	-0.119212	1.094817
Cu111	Cu	0.761130	-0.659729	0.554152
Cu112	Cu	1.261130	-0.159729	1.054152
O113	O	0.648743	-0.562442	0.613609
O114	O	1.148743	-0.062442	1.113609
N115	N	0.846773	-0.688230	0.525548
N116	N	1.346773	-0.188230	1.025548
N117	N	0.114157	-0.151217	0.623565
N118	N	0.614157	0.348783	1.123565
O119	O	-0.033591	0.046803	0.617717
O120	O	0.466409	0.546803	1.117717
O121	O	0.129795	0.046806	0.497390
O122	O	0.629795	0.546806	0.997390
O123	O	0.026157	0.046789	0.497680
O124	O	0.526157	0.546789	0.997680
O125	O	0.070046	0.046819	0.617427
O126	O	0.570046	0.546819	1.117427
O127	O	0.060509	-0.056181	0.532004
O128	O	0.560509	0.443819	1.032004
O129	O	0.164146	-0.056164	0.531714
O130	O	0.664146	0.443836	1.031714
O131	O	0.000760	-0.056167	0.652041
O132	O	0.500760	0.443833	1.152041
Cu133	Cu	0.085590	-0.065568	0.595012
Cu134	Cu	0.585590	0.434432	1.095012
Cu135	Cu	0.044965	0.056206	0.554419
Cu136	Cu	0.544965	0.556206	1.054419
O137	O	0.104397	-0.056151	0.651751
O138	O	0.604397	0.443849	1.151751
N139	N	0.016390	0.141855	0.525867
N140	N	0.516390	0.641855	1.025867
N141	N	0.114410	-0.590756	1.062992
N142	N	0.614410	-0.090756	1.562992
O143	O	0.108565	-0.738494	1.260998
O144	O	0.608565	-0.238494	1.760998
O145	O	-0.011747	-0.575059	1.261012
O146	O	0.488253	-0.075059	1.761012
O147	O	-0.011470	-0.678679	1.260970
O148	O	0.488530	-0.178679	1.760970
O149	O	0.108287	-0.634874	1.261040
O150	O	0.608287	-0.134874	1.761040
O151	O	0.022849	-0.644347	1.158004
O152	O	0.522849	-0.144347	1.658004
O153	O	0.022572	-0.540726	1.158046
O154	O	0.522572	-0.040726	1.658046
O155	O	0.142884	-0.704162	1.158033
O156	O	0.642884	-0.204162	1.658033
Cu157	Cu	0.085861	-0.619309	1.148638
Cu158	Cu	0.585861	-0.119309	1.648638
Cu159	Cu	0.045275	-0.659911	1.270406
Cu160	Cu	0.545275	-0.159911	1.770406
O161	O	0.142606	-0.600541	1.158074
O162	O	0.642606	-0.100541	1.658074
N163	N	0.016726	-0.688471	1.356052
N164	N	0.516726	-0.188471	1.856052
C165	C	0.039385	-0.537207	0.498225
C166	C	0.539385	-0.037207	0.998225
C167	C	0.167616	-0.665350	0.498136
C168	C	0.667616	-0.165350	0.998136
C169	C	0.091204	-0.741950	0.651272
C170	C	0.591204	-0.241950	1.151272
C171	C	-0.037027	-0.613806	0.651361
C172	C	0.462973	-0.113806	1.151361
C173	C	0.700360	-0.716215	0.676756
C174	C	1.200360	-0.216215	1.176756
C175	C	0.700279	-0.715877	0.548436
C176	C	1.200279	-0.215877	1.048436
C177	C	0.700133	-0.562725	0.472214
C178	C	1.200133	-0.062725	0.972214
C179	C	0.700218	-0.563065	0.600533
C180	C	1.200218	-0.063065	1.100533
C181	C	0.167511	-0.004552	0.497940
C182	C	0.667511	0.495448	0.997940
C183	C	0.039211	-0.004699	0.498341
C184	C	0.539211	0.495301	0.998341
C185	C	-0.036999	-0.004682	0.651449
C186	C	0.463001	0.495318	1.151449
C187	C	0.091344	-0.004663	0.651090
C188	C	0.591344	0.495337	1.151090
C189	C	-0.011156	-0.537302	1.209530
C190	C	0.488844	-0.037302	1.709530
C191	C	-0.010806	-0.665617	1.209458
C192	C	0.489194	-0.165617	1.709458
C193	C	0.142293	-0.741918	1.209514
C194	C	0.642293	-0.241918	1.709514
C195	C	0.141950	-0.613596	1.209563
C196	C	0.641950	-0.113596	1.709563
H197	H	0.102355	-0.458618	0.810728
H198	H	0.602355	0.041382	1.310728
C199	C	-0.114008	-0.481933	1.262450
C200	C	0.385992	0.018067	1.762450
C201	C	-0.062152	-0.473938	1.209532
C202	C	0.437848	0.026062	1.709532
H203	H	-0.145491	-0.442814	1.262447
H204	H	0.354509	0.057186	1.762447
H205	H	-0.102760	-0.500454	1.298357
H206	H	0.397240	-0.000454	1.798357
H207	H	-0.128946	-0.507945	1.262428
H208	H	0.371054	-0.007945	1.762428
H209	H	-0.047211	-0.447929	1.209557
H210	H	0.452789	0.052071	1.709557
H211	H	-0.073401	-0.455407	1.173616
H212	H	0.426599	0.044593	1.673616
H213	H	-0.048413	-0.674973	1.209396
H214	H	0.451587	-0.174973	1.709396
H215	H	0.700298	-0.753510	0.539047
H216	H	1.200298	-0.253510	1.039047
H217	H	0.700073	-0.524942	0.425295
H218	H	1.200073	-0.024942	0.925295
C219	C	-0.138678	-0.540911	0.680150
C220	C	0.361322	-0.040911	1.180150
C221	C	-0.100401	-0.601314	0.702292
C222	C	0.399599	-0.101314	1.202292
H223	H	-0.177801	-0.533199	0.711596
H224	H	0.322199	-0.033199	1.211596
H225	H	-0.144082	-0.536261	0.644977
H226	H	0.355918	-0.036261	1.144977
H227	H	-0.120113	-0.512307	0.668872
H228	H	0.379887	-0.012307	1.168872
H229	H	-0.118964	-0.629919	0.713566
H230	H	0.381036	-0.129919	1.213566
H231	H	-0.094999	-0.605970	0.737476
H232	H	0.405001	-0.105970	1.237476
C233	C	0.244635	-0.607767	1.156653
C234	C	0.744635	-0.107767	1.656653
C235	C	0.192745	-0.600951	1.209581
C236	C	0.692745	-0.100951	1.709581
H237	H	0.275994	-0.599964	1.156667
H238	H	0.775994	-0.099964	1.656667
H239	H	0.233354	-0.579202	1.120752
H240	H	0.733354	-0.079202	1.620752
H241	H	0.259753	-0.648763	1.156651
H242	H	0.759753	-0.148763	1.656651
H243	H	0.177625	-0.559954	1.209580
H244	H	0.677625	-0.059954	1.709580
H245	H	0.204027	-0.629517	1.245490
H246	H	0.704027	-0.129517	1.745490
C247	C	0.061929	0.048276	0.718490
C248	C	0.561929	0.548276	1.218490
C249	C	0.104028	-0.004657	0.701876
C250	C	0.604028	0.495343	1.201876
H251	H	0.069765	0.048280	0.749839
H252	H	0.569765	0.548280	1.249839
H253	H	0.020944	0.048269	0.733623
H254	H	0.520944	0.548269	1.233623
H255	H	0.066534	0.084180	0.683275
H256	H	0.566534	0.584180	1.183275
H257	H	0.099419	-0.040561	0.737090
H258	H	0.599419	0.459439	1.237090
H259	H	0.145023	-0.004655	0.686745
H260	H	0.645023	0.495345	1.186745
C261	C	0.700249	-0.534568	0.673616
C262	C	1.200249	-0.034568	1.173616
C263	C	0.700196	-0.512258	0.613200
C264	C	1.200196	-0.012258	1.113200
H265	H	0.700231	-0.503199	0.681436
H266	H	1.200231	-0.003199	1.181436
H267	H	0.736177	-0.569758	0.678201
H268	H	1.236177	-0.069758	1.178201
H269	H	0.664367	-0.545866	0.702185
H270	H	1.164367	-0.045866	1.202185
H271	H	0.736081	-0.500964	0.584631
H272	H	1.236081	-0.000964	1.084631
H273	H	0.664264	-0.477057	0.608609
H274	H	1.164264	0.022943	1.108609
C275	C	0.231142	-0.625013	0.394178
C276	C	0.731142	-0.125013	0.894178
C277	C	0.230990	-0.677841	0.447205
C278	C	0.730990	-0.177841	0.947205
H279	H	0.270266	-0.632727	0.362734
H280	H	0.770266	-0.132727	0.862734
H281	H	0.223619	-0.591270	0.403864
H282	H	0.723619	-0.091270	0.903864
H283	H	0.199650	-0.615221	0.379967
H284	H	0.699650	-0.115221	0.879967
H285	H	0.262479	-0.687630	0.461418
H286	H	0.762479	-0.187630	0.961418
H287	H	0.238520	-0.711594	0.437517
H288	H	0.738520	-0.211594	0.937517
C289	C	0.171248	-0.843612	1.209483
C290	C	0.671248	-0.343612	1.709483
C291	C	0.193288	-0.805282	1.209508
C292	C	0.693288	-0.305282	1.709508
H293	H	0.202731	-0.882730	1.209482
H294	H	0.702731	-0.382730	1.709482
H295	H	0.160005	-0.825081	1.173571
H296	H	0.660005	-0.325081	1.673571
H297	H	0.136067	-0.849026	1.245384
H298	H	0.636067	-0.349026	1.745384
H299	H	0.228467	-0.799865	1.173604
H300	H	0.728467	-0.299865	1.673604
H301	H	0.204540	-0.823817	1.245423
H302	H	0.704540	-0.323817	1.745423
C303	C	0.012644	-0.456091	0.895426
C304	C	0.512644	0.043909	1.395426
C305	C	0.045077	-0.493371	0.937543
C306	C	0.545077	0.006629	1.437543
H307	H	-0.030592	-0.445459	0.917429
H308	H	0.469408	0.054541	1.417429
H309	H	0.023254	-0.478076	0.870147
H310	H	0.523254	0.021924	1.370147
H311	H	0.023268	-0.419448	0.870146
H312	H	0.523268	0.080552	1.370146
H313	H	0.034456	-0.530017	0.962820
H314	H	0.534456	-0.030017	1.462820
H315	H	0.034462	-0.471385	0.962832
H316	H	0.534462	0.028615	1.462832
C317	C	0.277374	-0.056974	0.467508
C318	C	0.777374	0.443026	0.967508
C319	C	0.230726	-0.004164	0.446816
C320	C	0.730726	0.495836	0.946816
H321	H	0.316401	-0.056732	0.435949
H322	H	0.816401	0.443268	0.935949
H323	H	0.270023	-0.092957	0.477133
H324	H	0.770023	0.407043	0.977133
H325	H	0.277339	-0.057040	0.503471
H326	H	0.777339	0.442960	1.003471
H327	H	0.230757	-0.004100	0.410856
H328	H	0.730757	0.495900	0.910856
H329	H	0.238078	0.031828	0.437183
H330	H	0.738078	0.531828	0.937183
C331	C	0.327772	-0.613631	0.895309
C332	C	0.827772	-0.113631	1.395309
C333	C	0.267298	-0.604464	0.937461
C334	C	0.767298	-0.104464	1.437461
H335	H	0.356374	-0.638919	0.917284
H336	H	0.856374	-0.138919	1.417284
H337	H	0.333974	-0.574782	0.870035
H338	H	0.833974	-0.074782	1.370035
H339	H	0.333982	-0.633418	0.870027
H340	H	0.833982	-0.133418	1.370027
H341	H	0.261086	-0.584672	0.962740
H342	H	0.761086	-0.084672	1.462740
H343	H	0.261093	-0.643319	0.962746
H344	H	0.761093	-0.143319	1.462746
H345	H	0.100526	-0.788925	0.688956
H346	H	0.600526	-0.288925	1.188956
C347	C	-0.033878	-0.004750	0.469876
C348	C	0.466122	0.495250	0.969876
C349	C	0.026541	-0.004734	0.447562
C350	C	0.526541	0.495266	0.947562
H351	H	-0.041695	-0.004782	0.438530
H352	H	0.458305	0.495218	0.938530
H353	H	-0.062437	0.031165	0.481129
H354	H	0.437563	0.531165	0.981129
H355	H	-0.038473	-0.040651	0.505098
H356	H	0.461527	0.459349	1.005098
H357	H	0.031135	0.031170	0.412342
H358	H	0.531135	0.531170	0.912342
H359	H	0.055108	-0.040652	0.436300
H360	H	0.555108	0.459348	0.936300
C361	C	-0.138699	-0.004670	0.680407
C362	C	0.361301	0.495330	1.180407
C363	C	-0.100347	-0.004667	0.702444
C364	C	0.399653	0.495333	1.202444
H365	H	-0.177809	-0.004653	0.711887
H366	H	0.322191	0.495347	1.211887
H367	H	-0.120185	-0.040584	0.669177
H368	H	0.379815	0.459416	1.169177
H369	H	-0.144120	0.031232	0.645217
H370	H	0.355880	0.531232	1.145217
H371	H	-0.094922	-0.040571	0.737632
H372	H	0.405078	0.459429	1.237632
H373	H	-0.118864	0.031251	0.713683
H374	H	0.381136	0.531251	1.213683
H375	H	0.102328	-0.458621	0.755642
H376	H	0.602328	0.041379	1.255642
C377	C	0.328201	-0.505069	0.764145
C378	C	0.828201	-0.005069	1.264145
C379	C	0.312570	-0.559097	0.801410
C380	C	0.812570	-0.059097	1.301410
H381	H	0.371436	-0.515693	0.742140
H382	H	0.871436	-0.015693	1.242140
H383	H	0.317589	-0.483091	0.789433
H384	H	0.817589	0.016909	1.289433
H385	H	0.306186	-0.479787	0.735584
H386	H	0.806186	0.020213	1.235584
H387	H	0.334582	-0.584378	0.829975
H388	H	0.834582	-0.084378	1.329975
H389	H	0.323189	-0.581085	0.776121
H390	H	0.823189	-0.081085	1.276121
C391	C	0.012567	-0.456104	0.758209
C392	C	0.512567	0.043896	1.258209
C393	C	0.044964	-0.493357	0.720922
C394	C	0.544964	0.006643	1.220922
H395	H	-0.030674	-0.445494	0.768853
H396	H	0.469326	0.054506	1.268853
H397	H	0.023170	-0.419455	0.736224
H398	H	0.523170	0.080545	1.236224
H399	H	0.023226	-0.478106	0.794842
H400	H	0.523226	0.021894	1.294842
H401	H	0.034308	-0.471354	0.684286
H402	H	0.534308	0.028646	1.184286
H403	H	0.034356	-0.530013	0.742906
H404	H	0.534356	-0.030013	1.242906
C405	C	0.327612	-0.613588	0.600578
C406	C	0.827612	-0.113588	1.100578
C407	C	0.267121	-0.604412	0.609769
C408	C	0.767121	-0.104412	1.109769
H409	H	0.356189	-0.638866	0.575279
H410	H	0.856189	-0.138866	1.075279
H411	H	0.333856	-0.633383	0.639416
H412	H	0.833856	-0.133383	1.139416
H413	H	0.333820	-0.574735	0.580794
H414	H	0.833820	-0.074735	1.080794
H415	H	0.260912	-0.643264	0.629557
H416	H	0.760912	-0.143264	1.129557
H417	H	0.260875	-0.584618	0.570924
H418	H	0.760875	-0.084618	1.070924
H419	H	0.294333	-0.554601	0.659567
H420	H	0.794333	-0.054601	1.159567
H421	H	0.419022	-0.640939	0.704632
H422	H	0.919022	-0.140939	1.204632
C423	C	0.307860	-0.643792	0.713312
C424	C	0.807860	-0.143792	1.213312
C425	C	0.292214	-0.613603	0.752635
C426	C	0.792214	-0.113603	1.252635
H427	H	0.285874	-0.672039	0.734213
H428	H	0.785874	-0.172039	1.234213
H429	H	0.351092	-0.665706	0.701756
H430	H	0.851092	-0.165706	1.201756
H431	H	0.297214	-0.614104	0.677303
H432	H	0.797214	-0.114104	1.177303
H433	H	0.302863	-0.643291	0.788643
H434	H	0.802863	-0.143291	1.288643
H435	H	0.248972	-0.591688	0.764200
H436	H	0.748972	-0.091688	1.264200
C437	C	0.386081	-0.378765	0.619812
C438	C	0.886081	0.121235	1.119812
C439	C	0.428218	-0.438831	0.623314
C440	C	0.928218	0.061169	1.123314
H441	H	0.408066	-0.350516	0.598903
H442	H	0.908066	0.149484	1.098903
H443	H	0.360820	-0.377111	0.660412
H444	H	0.860820	0.122889	1.160412
H445	H	0.360787	-0.367928	0.597735
H446	H	0.860787	0.132072	1.097735
H447	H	0.453510	-0.449669	0.645395
H448	H	0.953510	0.050331	1.145395
H449	H	0.453490	-0.440486	0.582706
H450	H	0.953490	0.059514	1.082706
H451	H	0.246280	-0.403511	0.611604
H452	H	0.746280	0.096489	1.111604
C453	C	0.254930	-0.384625	0.726102
C454	C	0.754930	0.115375	1.226102
C455	C	0.292173	-0.393477	0.668694
C456	C	0.792173	0.106523	1.168694
H457	H	0.232932	-0.341713	0.719866
H458	H	0.732932	0.158287	1.219866
H459	H	0.280230	-0.399825	0.749833
H460	H	0.780230	0.100175	1.249833
H461	H	0.226363	-0.406325	0.747536
H462	H	0.726363	0.093675	1.247536
H463	H	0.320744	-0.371780	0.647263
H464	H	0.820744	0.128220	1.147263
H465	H	0.266871	-0.378268	0.644954
H466	H	0.766871	0.121732	1.144954
H467	H	0.030065	-0.490230	0.460543
H468	H	0.530065	0.009770	0.960543
H469	H	0.111138	-0.285961	0.764475
H470	H	0.611138	0.214039	1.264475
C471	C	0.248760	-0.318808	0.521862
C472	C	0.748760	0.181192	1.021862
C473	C	0.211499	-0.276685	0.554282
C474	C	0.711499	0.223315	1.054282
H475	H	0.259363	-0.296808	0.478623
H476	H	0.759363	0.203192	0.978623
H477	H	0.226776	-0.344087	0.532490
H478	H	0.726776	0.155913	1.032490
H479	H	0.285416	-0.344090	0.532481
H480	H	0.785416	0.155910	1.032481
H481	H	0.174841	-0.251406	0.543667
H482	H	0.674841	0.248594	1.043667
H483	H	0.233483	-0.251395	0.543650
H484	H	0.733483	0.248605	1.043650
C485	C	0.700438	-0.745173	0.778438
C486	C	1.200438	-0.245173	1.278438
C487	C	0.700428	-0.767222	0.740098
C488	C	1.200428	-0.267222	1.240098
H489	H	0.700484	-0.776664	0.817540
H490	H	1.200484	-0.276664	1.317540
H491	H	0.664517	-0.710008	0.783880
H492	H	1.164517	-0.210008	1.283880
H493	H	0.736327	-0.733902	0.759898
H494	H	1.236327	-0.233902	1.259898
H495	H	0.664536	-0.778488	0.758636
H496	H	1.164536	-0.278488	1.258636
H497	H	0.736353	-0.802397	0.734657
H498	H	1.236353	-0.302397	1.234657
H499	H	0.150353	-0.403547	0.803641
H500	H	0.650353	0.096453	1.303641
