data_functionalizedCrystal
_audit_creation_method	'MofGen! by Chris Wilmer'
_symmetry_space_group_name_H-M	'P1'
_symmetry_Int_Tables_number	1
_symmetry_cell_setting	triclinic
loop_
_symmetry_equiv_pos_as_xyz
  x,y,z
_cell_length_a	10.654550
_cell_length_b	14.044220
_cell_length_c	9.130313
_cell_angle_alpha	89.997493
_cell_angle_beta	89.996220
_cell_angle_gamma	88.836890
loop_
_atom_site_label
_atom_site_type_symbol
_atom_site_fract_x
_atom_site_fract_y
_atom_site_fract_z
O1	O	1.681222	0.133227	-0.121925
O2	O	1.317019	0.145921	-0.121902
O3	O	1.493654	0.001554	-0.121899
O4	O	1.504587	0.277595	-0.121929
O5	O	1.493652	0.001557	0.121700
O6	O	1.317017	0.145925	0.121696
O7	O	1.681220	0.133231	0.121673
Cu8	Cu	1.499119	0.139578	0.143927
Cu9	Cu	1.499121	0.139574	-0.144156
O10	O	1.504585	0.277598	0.121670
C11	C	1.270127	0.144991	-0.000100
C12	C	1.130403	0.142202	-0.000091
C13	C	1.488867	-0.033790	-0.000099
C14	C	1.474592	-0.139110	-0.000096
C15	C	1.059459	0.227203	-0.000121
C16	C	0.928175	0.224578	-0.000146
C17	C	0.938790	0.051942	-0.000116
C18	C	1.070072	0.054569	-0.000081
C19	C	1.119790	0.314837	-0.000131
C20	C	1.048846	0.399845	-0.000163
C21	C	0.917561	0.397219	-0.000188
C22	C	0.857221	0.309585	-0.000181
C23	C	1.448493	-0.331943	-0.000116
C24	C	1.549741	-0.388911	-0.000126
C25	C	1.535219	-0.496210	-0.000137
C26	C	1.463013	-0.224634	-0.000105
C27	C	1.728113	0.134161	-0.000132
C28	C	1.867836	0.136950	-0.000151
C29	C	1.509372	0.312942	-0.000133
C30	C	1.523648	0.418262	-0.000146
N31	N	1.499126	0.139581	0.346550
N32	N	1.499122	0.139564	-0.346779
C33	C	1.577364	0.075677	0.423203
C34	C	1.577359	0.075666	0.576540
C35	C	1.420876	0.203470	0.576557
C36	C	1.420875	0.203477	0.423223
C37	C	1.655615	0.011782	0.346531
C38	C	1.733861	-0.052127	0.423184
C39	C	1.733856	-0.052138	0.576521
C40	C	1.655606	0.011759	0.653204
H41	H	1.097984	0.471193	-0.000156
C42	C	0.872418	-0.044445	-0.000129
H43	H	0.784070	-0.033835	-0.000171
H44	H	0.896087	-0.079485	0.084825
H45	H	0.896138	-0.079477	-0.085082
C46	C	1.334822	0.273774	0.338898
H47	H	1.288232	0.311837	0.406520
H48	H	1.278690	0.239285	0.279083
H49	H	1.384462	0.313583	0.279083
H50	H	1.655629	0.011787	0.221676
C51	C	0.839520	0.490719	-0.000218
H52	H	0.752691	0.476607	-0.000223
H53	H	0.858875	0.526610	-0.085169
H54	H	0.858837	0.526618	0.084738
H55	H	1.797562	-0.104155	0.360741
C56	C	1.316670	-0.374913	-0.000095
H57	H	1.324082	-0.442439	-0.000088
H58	H	1.272292	-0.354410	-0.085031
H59	H	1.272316	-0.354418	0.084876
H60	H	1.127836	-0.014647	-0.000060
C61	C	1.819918	-0.122434	0.660837
H62	H	1.866524	-0.160479	0.593208
H63	H	1.770296	-0.162246	0.720654
H64	H	1.876054	-0.087937	0.720648
C65	C	1.655592	0.011745	0.821872
H66	H	1.597783	0.058949	0.856558
H67	H	1.737366	0.025287	0.856562
H68	H	1.631595	-0.049010	0.856549
H69	H	1.647328	-0.357098	-0.000231
C70	C	1.334821	0.273758	0.660905
H71	H	1.346037	0.264608	0.763203
H72	H	1.249791	0.262873	0.635788
H73	H	1.355568	0.337166	0.635773
H74	H	0.750320	0.307454	-0.000179
C75	C	1.264198	0.317729	-0.000097
H76	H	1.289971	0.382092	-0.000096
H77	H	1.295877	0.286436	-0.085028
H78	H	1.295835	0.286453	0.084879
