data_functionalizedCrystal
_audit_creation_method	'MofGen! by Chris Wilmer'
_symmetry_space_group_name_H-M	'P1'
_symmetry_Int_Tables_number	1
_symmetry_cell_setting	triclinic
loop_
_symmetry_equiv_pos_as_xyz
  x,y,z
_cell_length_a	16.974829
_cell_length_b	16.992695
_cell_length_c	13.448316
_cell_angle_alpha	89.993283
_cell_angle_beta	86.337924
_cell_angle_gamma	87.025716
loop_
_atom_site_label
_atom_site_type_symbol
_atom_site_fract_x
_atom_site_fract_y
_atom_site_fract_z
O1	O	1.055467	0.099963	-0.167628
O2	O	0.826064	0.112684	-0.149170
O3	O	0.939846	-0.007818	-0.158317
O4	O	0.941685	0.220465	-0.158481
O5	O	0.939830	-0.007826	0.007068
O6	O	0.826048	0.112677	0.016215
O7	O	1.055451	0.099955	-0.002243
Cu8	Cu	0.940748	0.106315	0.022087
Cu9	Cu	0.940767	0.106324	-0.173500
O10	O	0.941669	0.220458	0.006904
C11	C	0.796567	0.112196	-0.064105
C12	C	0.708698	0.110741	-0.057034
C13	C	0.214088	0.102578	-0.007558
C14	C	0.296650	0.103945	-0.014204
C15	C	0.337940	0.104627	-0.107679
C16	C	0.296663	0.103949	-0.194515
C17	C	0.214102	0.102588	-0.187869
C18	C	0.584861	0.108702	-0.137224
C19	C	0.667428	0.110061	-0.143864
C20	C	0.667408	0.110059	0.036449
C21	C	0.584846	0.108693	0.043087
C22	C	0.543577	0.108020	-0.043749
N23	N	0.422332	0.106021	-0.114474
N24	N	0.459186	0.106631	-0.036953
C25	C	0.937472	-0.037032	-0.075434
C26	C	0.930412	-0.124069	-0.074867
C27	C	0.998528	-0.174381	-0.080346
C28	C	0.991890	-0.256160	-0.079822
C29	C	0.917136	-0.287626	-0.073810
C30	C	0.849015	-0.237308	-0.068333
C31	C	0.855654	-0.155530	-0.068865
C32	C	0.889621	-0.531195	-0.071610
C33	C	0.882987	-0.612980	-0.071076
C34	C	1.025863	-0.631826	-0.082566
C35	C	1.032495	-0.550046	-0.083091
C36	C	0.964375	-0.499735	-0.077620
N37	N	0.910349	-0.371218	-0.073271
N38	N	0.971162	-0.416145	-0.078166
C39	C	1.084948	0.100444	-0.087311
C40	C	1.172817	0.101899	-0.094388
C41	C	0.944043	0.249672	-0.075981
C42	C	0.951103	0.336708	-0.076555
N43	N	0.940741	0.106309	0.159652
N44	N	0.940780	0.106325	-0.311065
C45	C	0.991142	0.052972	0.207640
C46	C	0.991147	0.052972	0.311743
C47	C	0.940754	0.106312	0.367855
C48	C	0.890348	0.159651	0.319860
C49	C	0.890340	0.159647	0.215759
C50	C	0.890370	0.159656	0.536838
C51	C	0.890380	0.159661	0.640946
C52	C	0.991177	0.052981	0.632822
C53	C	0.991169	0.052977	0.528721
C54	C	0.940764	0.106317	0.480733
H55	H	0.701043	0.110623	-0.219987
H56	H	1.032186	0.009540	0.350815
O57	O	0.174102	0.101952	0.083325
C58	C	0.228238	0.102826	0.158536
H59	H	0.285388	0.128607	0.127500
H60	H	0.241336	0.040102	0.185211
C61	C	0.122290	0.122023	0.284702
C62	C	0.192480	0.153694	0.246585
H63	H	0.100232	0.153397	0.339017
H64	H	0.085816	0.121431	0.234032
H65	H	0.133214	0.069753	0.306924
H66	H	0.181553	0.205959	0.224353
H67	H	0.228951	0.154296	0.297254
O68	O	0.544904	0.108003	-0.221672
C69	C	0.599054	0.108909	-0.305597
H70	H	0.659607	0.085074	-0.284028
H71	H	0.603519	0.171921	-0.333695
C72	C	0.496004	0.086250	-0.414942
C73	C	0.570375	0.056969	-0.388453
H74	H	0.478312	0.054215	-0.466054
H75	H	0.459521	0.085643	-0.358401
H76	H	0.499734	0.138760	-0.438351
H77	H	0.566641	0.004464	-0.365033
H78	H	0.606857	0.057566	-0.444992
O79	O	0.336727	0.104754	-0.285339
C80	C	0.311883	0.172284	-0.338202
H81	H	0.285923	0.219345	-0.283367
H82	H	0.265020	0.156152	-0.390644
C83	C	0.415000	0.146468	-0.466526
C84	C	0.383123	0.204272	-0.399177
H85	H	0.458943	0.166199	-0.504143
H86	H	0.431737	0.100970	-0.430914
H87	H	0.375940	0.133030	-0.510219
H88	H	0.422179	0.217702	-0.355478
H89	H	0.366394	0.249774	-0.434783
H90	H	0.180500	0.102037	-0.258575
O91	O	0.841318	0.211493	0.374216
C92	C	0.796843	0.258579	0.309533
H93	H	0.793918	0.226431	0.235568
H94	H	0.826186	0.316815	0.296080
C95	C	0.716167	0.314259	0.447806
C96	C	0.712568	0.274771	0.356964
H97	H	0.664183	0.324251	0.477064
H98	H	0.746132	0.282538	0.491385
H99	H	0.740623	0.362784	0.436583
H100	H	0.688122	0.226243	0.368190
H101	H	0.682597	0.306484	0.313387
H102	H	1.093368	-0.524433	-0.087987
O103	O	0.823510	-0.482248	-0.066161
C104	C	0.823055	-0.434399	0.019540
H105	H	0.886070	-0.430333	0.043027
H106	H	0.785237	-0.461269	0.082561
C107	C	0.711125	-0.356322	-0.032552
C108	C	0.788522	-0.351323	-0.003709
H109	H	0.689821	-0.305077	-0.046890
H110	H	0.711429	-0.388560	-0.090288
H111	H	0.679620	-0.378716	0.019971
H112	H	0.820028	-0.328938	-0.056236
H113	H	0.788222	-0.319079	0.054019
O114	O	1.092055	-0.680666	-0.087718
C115	C	1.137140	-0.666413	-0.005706
H116	H	1.097163	-0.638427	0.057382
H117	H	1.185535	-0.624816	-0.028966
C118	C	1.224119	-0.779211	-0.047410
C119	C	1.175017	-0.744844	0.030079
H120	H	1.247487	-0.827590	-0.025338
H121	H	1.193747	-0.788812	-0.102665
H122	H	1.264442	-0.744539	-0.066786
H123	H	1.134690	-0.779511	0.049445
H124	H	1.205384	-0.735250	0.085339
O125	O	0.544859	0.108073	0.133969
C126	C	0.598992	0.108947	0.209185
H127	H	0.656143	0.134726	0.178152
H128	H	0.612087	0.046222	0.235862
C129	C	0.493038	0.128147	0.335343
C130	C	0.563230	0.159816	0.297231
H131	H	0.470979	0.159522	0.389657
H132	H	0.456567	0.127555	0.284670
H133	H	0.503960	0.075877	0.357566
H134	H	0.552306	0.212080	0.274997
H135	H	0.599699	0.160417	0.347903
O136	O	1.040103	0.001056	0.679323
C137	C	1.022345	-0.076556	0.655349
H138	H	0.991866	-0.076448	0.582227
H139	H	0.981469	-0.100791	0.717245
C140	C	1.136769	-0.128878	0.734133
C141	C	1.099340	-0.128746	0.644320
H142	H	1.184262	-0.161073	0.727334
H143	H	1.148732	-0.076590	0.750289
H144	H	1.102698	-0.149072	0.785704
H145	H	1.133407	-0.108544	0.592754
H146	H	1.087385	-0.181032	0.628155
O147	O	0.841386	0.211360	0.695574
C148	C	0.789964	0.169380	0.759935
H149	H	0.817593	0.108015	0.773298
H150	H	0.731188	0.164074	0.724571
C151	C	0.741936	0.288955	0.843546
C152	C	0.775872	0.213588	0.859966
H153	H	0.733239	0.316225	0.905249
H154	H	0.776577	0.317239	0.800183
H155	H	0.692959	0.284523	0.814074
H156	H	0.824852	0.218021	0.889426
H157	H	0.741239	0.185306	0.903336
O158	O	1.071085	-0.143688	-0.086138
C159	C	1.062342	-0.060719	-0.085457
H160	H	1.001853	-0.041451	-0.049277
H161	H	1.067619	-0.037951	-0.165224
C162	C	1.201668	-0.050540	-0.070271
C163	C	1.127377	-0.026874	-0.025826
H164	H	1.241786	-0.029661	-0.033492
H165	H	1.207559	-0.106437	-0.070733
H166	H	1.206054	-0.031564	-0.136742
H167	H	1.122989	-0.045857	0.040639
H168	H	1.121486	0.029022	-0.025351
H169	H	0.701019	0.110608	0.107145
H170	H	1.032180	0.009540	0.161960
H171	H	1.047357	-0.297122	-0.084282
H172	H	0.822110	-0.638596	-0.066164
O173	O	0.789406	-0.106766	-0.063491
C174	C	0.722001	-0.152073	-0.058097
H175	H	0.738206	-0.213132	-0.028086
H176	H	0.699342	-0.157867	-0.135618
C177	C	0.637187	-0.036260	-0.024883
C178	C	0.657089	-0.111252	0.011984
H179	H	0.597145	-0.011079	0.018342
H180	H	0.682598	-0.005735	-0.028521
H181	H	0.618310	-0.041099	-0.089484
H182	H	0.675976	-0.106412	0.076578
H183	H	0.611680	-0.141775	0.015635
H184	H	0.330249	0.104497	0.056502
H185	H	0.788148	-0.262934	-0.063445
O186	O	1.039917	0.000972	0.474234
C187	C	0.994364	-0.047374	0.417889
H188	H	0.934556	-0.015972	0.407013
H189	H	0.985153	-0.105195	0.458961
C190	C	1.111296	-0.103065	0.328911
C191	C	1.037841	-0.064493	0.315545
H192	H	1.138115	-0.113629	0.265782
H193	H	1.141986	-0.070496	0.366874
H194	H	1.103609	-0.151245	0.363141
H195	H	1.045528	-0.016310	0.281328
H196	H	1.007152	-0.097055	0.277574
H197	H	0.849322	0.203089	0.497770
H198	H	0.849297	0.203078	0.176689
