data_functionalizedCrystal
_audit_creation_method	'MofGen! by Chris Wilmer'
_symmetry_space_group_name_H-M	'P1'
_symmetry_Int_Tables_number	1
_symmetry_cell_setting	triclinic
loop_
_symmetry_equiv_pos_as_xyz
  x,y,z
_cell_length_a	14.971486
_cell_length_b	14.971487
_cell_length_c	13.448316
_cell_angle_alpha	90.000586
_cell_angle_beta	89.993189
_cell_angle_gamma	96.385734
loop_
_atom_site_label
_atom_site_type_symbol
_atom_site_fract_x
_atom_site_fract_y
_atom_site_fract_z
O1	O	0.116568	-1.186947	-0.082550
O2	O	0.130526	-0.926547	-0.082583
O3	O	-0.006653	-1.063726	-0.082559
O4	O	0.253747	-1.049768	-0.082575
O5	O	-0.006662	-1.063709	0.082825
O6	O	0.130517	-0.926530	0.082801
O7	O	0.116559	-1.186930	0.082834
Cu8	Cu	0.123537	-1.056728	0.097918
Cu9	Cu	0.123547	-1.056749	-0.097667
O10	O	0.253738	-1.049750	0.082809
C11	C	0.129897	-0.893214	0.000104
C12	C	0.128026	-0.793917	0.000092
C13	C	0.208615	-0.736691	0.000087
C14	C	0.206852	-0.643392	0.000100
C15	C	0.124499	-0.607320	0.000110
C16	C	0.043903	-0.664552	0.000118
C17	C	0.045668	-0.757850	0.000112
C18	C	0.040232	-0.470090	0.000127
C19	C	0.038467	-0.376786	0.000131
C20	C	0.201416	-0.355632	0.000115
C21	C	0.203181	-0.448929	0.000109
C22	C	0.122585	-0.506156	0.000115
C23	C	-0.039982	-1.063094	0.000133
C24	C	-0.139279	-1.061223	0.000132
C25	C	-0.196504	-1.141812	0.000143
C26	C	-0.289804	-1.140049	0.000133
C27	C	-0.325876	-1.057696	0.000118
C28	C	-0.268644	-0.977100	0.000104
C29	C	-0.175346	-0.978864	0.000108
C30	C	-0.463107	-0.973429	0.000100
C31	C	-0.556411	-0.971665	0.000099
C32	C	-0.577564	-1.134614	0.000125
C33	C	-0.484266	-1.136378	0.000128
C34	C	-0.427040	-1.055782	0.000116
C35	C	0.287067	-1.050383	0.000116
C36	C	0.386364	-1.052254	0.000110
N37	N	0.123530	-1.056720	0.235482
C38	C	0.117187	-0.220263	0.000138
C39	C	0.119056	-0.319560	0.000126
N40	N	0.123548	-1.056763	-0.235232
C41	C	0.062812	-1.117482	0.287534
C42	C	0.062811	-1.117488	0.391637
C43	C	0.123533	-1.056735	0.443687
C44	C	0.184254	-0.995967	0.391628
C45	C	0.184250	-0.995957	0.287527
C46	C	0.184260	-0.995992	0.608608
C47	C	0.184266	-0.996002	0.712717
C48	C	0.062822	-1.117522	0.712718
C49	C	0.062817	-1.117513	0.608617
C50	C	0.123539	-1.056745	0.556566
H51	H	-0.028592	-0.347419	0.000141
Cl52	Cl	0.306712	-0.494276	0.000085
H53	H	-0.336394	-1.205673	0.000144
Cl54	Cl	-0.013522	-1.193875	0.457075
Cl55	Cl	-0.391166	-0.872107	0.000085
Cl56	Cl	-0.438919	-1.239909	0.000141
H57	H	-0.019956	-0.804443	0.000116
Cl58	Cl	-0.013525	-1.193866	0.222110
H59	H	0.233692	-0.946496	0.434014
Cl60	Cl	0.260582	-0.919564	0.222092
H61	H	-0.167142	-1.208873	0.000160
H62	H	0.013380	-1.167000	0.755105
Cl63	Cl	-0.649505	-1.235934	0.000135
Cl64	Cl	0.260604	-0.919621	0.778144
H65	H	-0.585777	-0.904606	0.000104
Cl66	Cl	-0.103405	-0.877548	0.000090
H67	H	0.275677	-0.766053	0.000078
Cl68	Cl	-0.061090	-0.542030	0.000137
H69	H	0.267040	-0.309033	0.000114
H70	H	-0.023150	-0.635175	0.000141
Cl71	Cl	-0.013514	-1.193893	0.543181
Cl72	Cl	0.260597	-0.919594	0.543177
H73	H	0.272476	-0.596802	0.000095
H74	H	-0.298021	-0.910047	0.000087
