data_functionalizedCrystal
_audit_creation_method	'MofGen! by Chris Wilmer'
_symmetry_space_group_name_H-M	'P1'
_symmetry_Int_Tables_number	1
_symmetry_cell_setting	triclinic
loop_
_symmetry_equiv_pos_as_xyz
  x,y,z
_cell_length_a	12.837943
_cell_length_b	14.044220
_cell_length_c	11.295483
_cell_angle_alpha	94.468632
_cell_angle_beta	85.461227
_cell_angle_gamma	94.008909
loop_
_atom_site_label
_atom_site_type_symbol
_atom_site_fract_x
_atom_site_fract_y
_atom_site_fract_z
O1	O	1.404877	0.242691	-0.099010
O2	O	1.101936	0.230415	-0.099017
O3	O	1.248859	0.098158	-0.099002
O4	O	1.257954	0.374947	-0.099025
O5	O	1.235952	0.109755	0.099047
O6	O	1.089030	0.242012	0.099032
O7	O	1.391970	0.254287	0.099039
Cu8	Cu	1.239322	0.249208	0.117119
Cu9	Cu	1.254585	0.235494	-0.117097
O10	O	1.245048	0.386544	0.099024
C11	C	1.056479	0.232067	0.000007
C12	C	0.940259	0.219699	0.000005
C13	C	0.713048	0.368378	0.000009
C14	C	0.603848	0.356763	0.000008
C15	C	0.612656	0.184853	0.000010
C16	C	0.721856	0.196469	0.000011
C17	C	0.772048	0.288234	0.000009
C18	C	0.881251	0.299849	0.000002
C19	C	0.890056	0.127940	0.000012
C20	C	0.780856	0.116324	0.000011
C21	C	1.238424	0.068282	0.000023
C22	C	1.226550	-0.038016	0.000024
C23	C	1.204843	-0.232639	0.000007
C24	C	1.289060	-0.282665	0.000005
C25	C	1.276982	-0.390961	-0.000005
C26	C	1.216919	-0.124334	0.000016
C27	C	1.437428	0.252635	0.000012
C28	C	1.553649	0.265002	0.000007
C29	C	1.255482	0.416420	-0.000004
C30	C	1.267357	0.522717	-0.000013
N31	N	1.228594	0.258854	0.281854
N32	N	1.265320	0.225841	-0.281832
C33	C	1.342540	0.156351	0.531156
C34	C	1.334441	0.163648	0.655818
C35	C	1.204292	0.280740	0.655845
C36	C	1.212391	0.273443	0.531182
C37	C	1.281518	0.211247	0.468842
C38	C	1.289622	0.203956	0.344177
C39	C	1.159469	0.321042	0.344206
C40	C	1.151370	0.328339	0.468869
H41	H	0.922115	0.374569	0.000002
C42	C	0.954959	0.039778	0.000010
H43	H	1.027183	0.059836	0.000015
H44	H	0.943367	-0.001482	-0.069054
H45	H	0.934375	0.006599	0.069083
C46	C	1.128190	0.349084	0.724428
H47	H	1.092980	0.380714	0.669464
H48	H	1.166250	0.395151	0.773093
H49	H	1.078355	0.313526	0.773025
H50	H	1.384129	0.118944	0.706551
C51	C	1.095191	-0.284642	0.000002
H52	H	1.043935	-0.239016	-0.000002
H53	H	1.082494	-0.319461	0.069062
H54	H	1.091495	-0.327531	-0.069075
C55	C	1.092355	0.381443	0.275659
H56	H	1.107077	0.368192	0.192485
H57	H	1.108291	0.447460	0.296095
H58	H	1.020292	0.365928	0.296095
H59	H	1.370237	-0.244167	-0.000073
C60	C	0.725645	0.015388	0.000008
H61	H	0.776426	-0.030679	0.000013
H62	H	0.687727	0.003246	-0.069055
H63	H	0.678731	0.011322	0.069082
H64	H	1.345912	0.153316	0.293420
H65	H	0.571765	0.110147	0.000110
C66	C	0.768263	0.469313	-0.000004
H67	H	0.717484	0.515382	-0.000002
H68	H	0.815180	0.473370	-0.069068
H69	H	0.806177	0.481462	0.069069
C70	C	1.418578	0.087947	0.462572
H71	H	1.414667	0.091469	0.379403
H72	H	1.400008	0.024316	0.483007
H73	H	1.487981	0.105871	0.482984
C74	C	0.538952	0.444920	-0.000002
H75	H	0.584489	0.501232	-0.000012
H76	H	0.491666	0.448007	0.069059
H77	H	0.500676	0.439918	-0.069078
C78	C	1.075304	0.396721	0.537444
H79	H	1.040108	0.428358	0.482474
H80	H	1.113397	0.442779	0.586086
H81	H	1.025452	0.361198	0.586064
