data_functionalizedCrystal
_audit_creation_method	'MofGen! by Chris Wilmer'
_symmetry_space_group_name_H-M	'P1'
_symmetry_Int_Tables_number	1
_symmetry_cell_setting	triclinic
loop_
_symmetry_equiv_pos_as_xyz
  x,y,z
_cell_length_a	14.853569
_cell_length_b	19.188924
_cell_length_c	13.930277
_cell_angle_alpha	89.993371
_cell_angle_beta	89.994756
_cell_angle_gamma	83.388765
loop_
_atom_site_label
_atom_site_type_symbol
_atom_site_fract_x
_atom_site_fract_y
_atom_site_fract_z
O1	O	1.195858	0.091160	-0.079791
O2	O	0.933338	0.102018	-0.079804
O3	O	1.072177	-0.005041	-0.079786
O4	O	1.057019	0.198220	-0.079809
O5	O	1.072158	-0.005044	0.079876
O6	O	0.933319	0.102016	0.079858
O7	O	1.195839	0.091158	0.079870
Zn8	Zn	1.064575	0.096587	0.105214
Zn9	Zn	1.064601	0.096590	-0.105147
O10	O	1.057000	0.198218	0.079853
C11	C	0.899742	0.101525	0.000026
C12	C	0.799667	0.100050	0.000022
C13	C	0.763650	0.035762	0.000026
C14	C	0.741649	0.162952	0.000022
C15	C	0.647623	0.161569	0.000023
C16	C	0.611606	0.097281	0.000027
C17	C	0.669615	0.034377	0.000030
C18	C	0.589606	0.224471	0.000030
C19	C	0.495574	0.223090	0.000033
C20	C	0.459555	0.158802	0.000030
C21	C	0.517571	0.095895	0.000031
C22	C	0.481554	0.031608	0.000035
C23	C	0.539568	-0.031300	0.000030
C24	C	0.633596	-0.029912	0.000027
C25	C	0.365527	0.157414	0.000033
C26	C	0.387519	0.030222	0.000039
C27	C	1.071677	-0.031055	0.000046
C28	C	1.070207	-0.108565	0.000048
C29	C	1.069531	-0.144965	-0.086983
C30	C	1.068137	-0.217792	-0.086991
C31	C	1.067436	-0.254219	0.000039
C32	C	1.068107	-0.217809	0.087082
C33	C	1.069492	-0.144983	0.087087
N34	N	1.116557	-0.373719	0.064815
N35	N	1.115242	-0.442901	0.064804
C36	C	1.063260	-0.473642	0.000029
N37	N	1.012653	-0.432587	-0.064750
N38	N	1.013972	-0.363398	-0.064742
C39	C	1.065934	-0.333187	0.000043
C40	C	1.061071	-0.589009	-0.087017
C41	C	1.059671	-0.661837	-0.087020
C42	C	1.059651	-0.661854	0.087055
C43	C	1.061042	-0.589027	0.087056
C44	C	1.061756	-0.552609	0.000018
C45	C	1.229434	0.091651	0.000039
C46	C	1.329509	0.093126	0.000037
C47	C	1.057499	0.224232	0.000019
C48	C	1.058969	0.301741	0.000010
N49	N	1.064565	0.096584	0.248780
N50	N	1.064619	0.096587	-0.248713
C51	C	1.003121	0.143977	0.701042
C52	C	1.126106	0.049197	0.701027
C53	C	1.126095	0.049195	0.600531
C54	C	1.064597	0.096585	0.550286
C55	C	1.003110	0.143978	0.600537
C56	C	1.187587	0.001808	0.550273
C57	C	1.187580	0.001804	0.449771
C58	C	1.126077	0.049192	0.399524
C59	C	1.064586	0.096586	0.449781
C60	C	1.003088	0.143976	0.399536
C61	C	0.941593	0.191367	0.449791
C62	C	0.941607	0.191365	0.550290
C63	C	1.126063	0.049194	0.299025
C64	C	1.003077	0.143977	0.299031
H65	H	0.358202	-0.022129	0.000038
O66	O	0.689856	-0.091062	0.000154
C67	C	0.673580	-0.130086	0.082857
H68	H	0.602179	-0.113012	0.110426
H69	H	0.680428	-0.188311	0.064261
H70	H	0.724972	-0.120494	0.140760
O71	O	0.881912	0.237495	0.598998
C72	C	0.896296	0.306634	0.574441
H73	H	0.931036	0.306598	0.501464
H74	H	0.828393	0.340920	0.571012
H75	H	0.941087	0.328291	0.630989
H76	H	0.318296	0.208632	0.000045
H77	H	1.067581	-0.247434	-0.157865
O78	O	0.943475	0.189985	0.750001
C79	C	0.956647	0.179813	0.849480
H80	H	1.028425	0.153820	0.863201
H81	H	0.946404	0.232674	0.887668
H82	H	0.905765	0.144720	0.878012
H83	H	1.061648	-0.559356	-0.157889
O84	O	1.185714	0.003097	0.749879
C85	C	1.137608	-0.040028	0.808051
H86	H	1.066517	-0.041307	0.777775
H87	H	1.174608	-0.095473	0.809204
H88	H	1.132799	-0.018177	0.884212
H89	H	1.070110	-0.115318	-0.157857
O90	O	0.820126	-0.025278	0.000064
C91	C	0.910844	-0.010276	0.000030
H92	H	0.914239	0.044565	0.030255
H93	H	0.953603	-0.050369	0.046381
H94	H	0.938048	-0.012893	-0.076570
H95	H	1.067534	-0.247472	0.157942
H96	H	1.176136	0.010612	0.258112
O97	O	1.247193	-0.044292	0.599130
C98	C	1.199081	-0.087419	0.657292
H99	H	1.127995	-0.088700	0.627005
H100	H	1.236084	-0.142863	0.658449
H101	H	1.194261	-0.065568	0.733453
O102	O	1.070189	-0.109732	0.171720
C103	C	1.069242	-0.157493	0.248537
H104	H	1.096792	-0.212268	0.223024
H105	H	1.113392	-0.140848	0.309414
H106	H	0.996780	-0.157982	0.275289
O107	O	1.059066	-0.697096	-0.171654
C108	C	1.059977	-0.649330	-0.248469
H109	H	1.089489	-0.600282	-0.222942
H110	H	1.103359	-0.674758	-0.309328
H111	H	0.987824	-0.634328	-0.275253
H112	H	1.237652	-0.036784	0.408859
H113	H	1.061600	-0.559390	0.157927
O114	O	0.504533	-0.093730	-0.000135
C115	C	0.450777	-0.098317	-0.082806
H116	H	0.472877	-0.061809	-0.140606
H117	H	0.459426	-0.154576	-0.110563
H118	H	0.376561	-0.082275	-0.064101
O119	O	0.439185	0.284176	0.000196
C120	C	0.384109	0.287172	0.082869
H121	H	0.418678	0.251502	0.140673
H122	H	0.373309	0.343403	0.110617
H123	H	0.315803	0.269036	0.064172
H124	H	0.618939	0.276811	0.000033
O125	O	0.776783	0.225337	-0.000014
C126	C	0.872215	0.213071	0.000017
H127	H	0.894512	0.158609	-0.030215
H128	H	0.900936	0.254217	-0.046330
H129	H	0.898367	0.216468	0.076617
O130	O	1.058831	-0.697286	0.171541
C131	C	0.979946	-0.731553	0.176742
H132	H	0.953738	-0.739851	0.101169
H133	H	0.996503	-0.784526	0.213592
H134	H	0.925809	-0.697992	0.219670
O135	O	0.943249	0.189918	0.250183
C136	C	0.887797	0.152449	0.192043
H137	H	0.886500	0.097382	0.222334
H138	H	0.816028	0.180833	0.190912
H139	H	0.916021	0.148834	0.115872
O140	O	0.881733	0.237373	0.401084
C141	C	0.792539	0.225884	0.425631
H142	H	0.792756	0.198972	0.498605
H143	H	0.747930	0.278303	0.429061
H144	H	0.764805	0.191088	0.369076
