data_functionalizedCrystal
_audit_creation_method	'MofGen! by Chris Wilmer'
_symmetry_space_group_name_H-M	'P1'
_symmetry_Int_Tables_number	1
_symmetry_cell_setting	triclinic
loop_
_symmetry_equiv_pos_as_xyz
  x,y,z
_cell_length_a	14.971496
_cell_length_b	14.971486
_cell_length_c	13.448316
_cell_angle_alpha	89.999879
_cell_angle_beta	89.995435
_cell_angle_gamma	83.616127
loop_
_atom_site_label
_atom_site_type_symbol
_atom_site_fract_x
_atom_site_fract_y
_atom_site_fract_z
O1	O	-0.116561	-1.186950	0.082580
O2	O	-0.130519	-0.926550	0.082607
O3	O	0.006659	-1.063725	0.082584
O4	O	-0.253739	-1.049775	0.082603
O5	O	0.006661	-1.063711	-0.082800
O6	O	-0.130518	-0.926536	-0.082777
O7	O	-0.116559	-1.186936	-0.082804
Cu8	Cu	-0.123539	-1.056735	-0.097891
Cu9	Cu	-0.123540	-1.056751	0.097694
O10	O	-0.253738	-1.049761	-0.082781
C11	C	-0.129895	-0.893218	-0.000082
C12	C	-0.128024	-0.793921	-0.000071
C13	C	0.039985	-1.063092	-0.000108
C14	C	0.139281	-1.061218	-0.000109
C15	C	-0.117184	-1.220268	-0.000114
C16	C	-0.119055	-1.319565	-0.000117
C17	C	-0.287063	-1.050394	-0.000087
C18	C	-0.386360	-1.052268	-0.000080
C19	C	0.566985	-1.053158	0.090069
C20	C	0.473685	-1.054924	0.090064
C21	C	0.427043	-1.055793	-0.000090
C22	C	0.473705	-1.054906	-0.090246
C23	C	0.567003	-1.053146	-0.090241
C24	C	0.279242	-1.058570	-0.090252
C25	C	0.185937	-1.060328	-0.090258
C26	C	0.185924	-1.060348	0.090053
C27	C	0.279222	-1.058588	0.090059
C28	C	0.325878	-1.057700	-0.000097
N29	N	-0.123537	-1.056730	-0.235456
C30	C	-0.208613	-0.736699	-0.000067
C31	C	-0.206850	-0.643399	-0.000082
C32	C	-0.124497	-0.607324	-0.000094
C33	C	-0.043902	-0.664554	-0.000102
C34	C	-0.045666	-0.757852	-0.000094
C35	C	-0.040231	-0.470091	-0.000116
C36	C	-0.038466	-0.376787	-0.000122
C37	C	-0.201414	-0.355639	-0.000104
C38	C	-0.203179	-0.448937	-0.000096
C39	C	-0.122583	-0.506160	-0.000101
C40	C	-0.177878	-1.111034	-0.287494
C41	C	-0.177874	-1.111045	-0.391597
C42	C	-0.123533	-1.056747	-0.443660
C43	C	-0.069186	-1.002441	-0.391615
C44	C	-0.069186	-1.002435	-0.287514
C45	C	-0.069192	-1.002455	-0.608595
C46	C	-0.069194	-1.002459	-0.712704
C47	C	-0.177880	-1.111065	-0.712678
C48	C	-0.177880	-1.111060	-0.608577
C49	C	-0.123534	-1.056752	-0.556539
N50	N	-0.123535	-1.056763	0.235258
H51	H	0.604953	-1.052442	0.163483
Cl52	Cl	-0.312148	-0.782041	-0.000045
Cl53	Cl	0.059629	-0.619202	-0.000124
Cl54	Cl	0.065065	-0.331437	-0.000171
Cl55	Cl	0.061091	-0.542028	-0.000125
H56	H	0.019958	-0.804442	-0.000097
H57	H	-0.024936	-0.958214	-0.245146
Cl58	Cl	-0.246216	-1.179300	-0.543127
Cl59	Cl	-0.246197	-1.179342	-0.778096
H60	H	-0.024937	-0.958233	-0.566229
Cl61	Cl	-0.302735	-0.283702	-0.000099
Cl62	Cl	-0.246197	-1.179298	-0.222053
Cl63	Cl	0.337857	-1.057489	0.203398
Cl64	Cl	-0.000870	-0.934180	-0.457067
H65	H	-0.222122	-1.155267	-0.433961
Cl66	Cl	0.415069	-1.056004	-0.203584
H67	H	0.604989	-1.052421	-0.163649
Cl68	Cl	-0.000873	-0.934202	-0.778154
H69	H	0.435703	-1.055650	0.163473
Cl70	Cl	0.127266	-1.061420	0.203393
H71	H	0.147959	-1.061008	-0.163669
H72	H	0.317226	-1.057848	-0.163666
Cl73	Cl	-0.308166	-0.571466	-0.000070
H74	H	-0.270237	-0.478306	-0.000076
