data_functionalizedCrystal
_audit_creation_method	'MofGen! by Chris Wilmer'
_symmetry_space_group_name_H-M	'P1'
_symmetry_Int_Tables_number	1
_symmetry_cell_setting	triclinic
loop_
_symmetry_equiv_pos_as_xyz
  x,y,z
_cell_length_a	17.038272
_cell_length_b	16.956984
_cell_length_c	16.053802
_cell_angle_alpha	87.610701
_cell_angle_beta	92.751609
_cell_angle_gamma	83.582487
loop_
_atom_site_label
_atom_site_type_symbol
_atom_site_fract_x
_atom_site_fract_y
_atom_site_fract_z
O1	O	0.028759	1.063355	-0.069433
O2	O	0.528759	1.563355	0.430567
O3	O	0.056089	0.833051	-0.069434
O4	O	0.556089	1.333051	0.430566
O5	O	-0.071303	0.946834	-0.069427
O6	O	0.428697	1.446834	0.430573
O7	O	0.156151	0.949572	-0.069441
O8	O	0.656151	1.449572	0.430559
O9	O	-0.064318	0.940569	0.069431
O10	O	0.435682	1.440569	0.569431
O11	O	0.063074	0.826786	0.069424
O12	O	0.563074	1.326786	0.569424
O13	O	0.035744	1.057090	0.069425
O14	O	0.535744	1.557090	0.569425
Zn15	Zn	0.050518	0.940943	0.091471
Zn16	Zn	0.550518	1.440943	0.591471
Zn17	Zn	0.041315	0.949197	-0.091481
Zn18	Zn	0.541315	1.449197	0.408519
O19	O	0.163136	0.943307	0.069418
O20	O	0.663136	1.443307	0.569418
C21	C	0.060981	0.800305	-0.000005
C22	C	0.560981	1.300305	0.499995
C23	C	0.065142	0.712067	-0.000006
C24	C	0.565142	1.212067	0.499994
C25	C	-0.004426	0.675263	0.000000
C26	C	0.495574	1.175263	0.500000
C27	C	-0.000512	0.592354	-0.000006
C28	C	0.499488	1.092354	0.499994
C29	C	0.072970	0.546249	-0.000012
C30	C	0.572970	1.046249	0.499988
C31	C	0.142543	0.583059	-0.000020
C32	C	0.642543	1.083059	0.499980
C33	C	0.138628	0.665967	-0.000020
C34	C	0.638628	1.165967	0.499980
C35	C	0.092348	0.297792	-0.000019
C36	C	0.592348	0.797792	0.499981
C37	C	0.096258	0.214878	-0.000017
C38	C	0.596258	0.714878	0.499983
C39	C	-0.046798	0.224179	-0.000004
C40	C	0.453202	0.724179	0.499996
C41	C	-0.050706	0.307088	0.000001
C42	C	0.449294	0.807088	0.500001
C43	C	0.018866	0.343890	-0.000012
C44	C	0.518866	0.843890	0.499988
N45	N	0.076973	0.461502	-0.000016
N46	N	0.576973	0.961502	0.499984
N47	N	0.014863	0.428636	-0.000014
N48	N	0.514863	0.928636	0.499986
C49	C	-0.096779	0.941211	0.000002
C50	C	0.403221	1.441211	0.500002
C51	C	-0.183093	0.933783	0.000002
C52	C	0.316907	1.433783	0.500002
C53	C	-0.237598	1.001985	0.000003
C54	C	0.262402	1.501985	0.500003
C55	C	-0.318699	0.995000	-0.000005
C56	C	0.181301	1.495000	0.499995
C57	C	-0.345294	0.919814	-0.000008
C58	C	0.154706	1.419814	0.499992
C59	C	-0.290783	0.851607	-0.000012
C60	C	0.209217	1.351607	0.499988
C61	C	-0.209683	0.858592	-0.000010
C62	C	0.290317	1.358592	0.499990
C63	C	-0.589464	0.895137	-0.000020
C64	C	-0.089464	1.395137	0.499980
C65	C	-0.670570	0.888156	-0.000019
C66	C	-0.170570	1.388156	0.499981
C67	C	-0.698481	1.031551	-0.000014
C68	C	-0.198481	1.531551	0.499986
C69	C	-0.617378	1.038529	-0.000007
C70	C	-0.117378	1.538529	0.499993
C71	C	-0.562875	0.970322	-0.000015
C72	C	-0.062875	1.470322	0.499985
C73	C	-0.428192	0.912673	-0.000014
C74	C	0.071808	1.412673	0.499986
C75	C	-0.479978	0.977464	-0.000016
C76	C	0.020022	1.477464	0.499984
C77	C	0.188611	0.948929	-0.000013
C78	C	0.688611	1.448929	0.499987
C79	C	0.274925	0.956358	-0.000018
C80	C	0.774925	1.456358	0.499982
C81	C	0.030851	1.089835	-0.000006
C82	C	0.530851	1.589835	0.499994
C83	C	0.026690	1.178074	-0.000011
C84	C	0.526690	1.678074	0.499989
N85	N	0.056798	0.935316	0.216331
N86	N	0.556798	1.435316	0.716331
N87	N	0.035028	0.954831	-0.216341
N88	N	0.535028	1.454831	0.283659
C89	C	0.002609	0.983751	0.260028
C90	C	0.502609	1.483751	0.760028
C91	C	0.007009	0.979822	0.347435
C92	C	0.507009	1.479822	0.847435
C93	C	0.065601	0.927462	0.391143
C94	C	0.565601	1.427462	0.891143
C95	C	0.119792	0.879022	0.347440
C96	C	0.619792	1.379022	0.847440
C97	C	0.115389	0.882947	0.260035
C98	C	0.615389	1.382947	0.760035
C99	C	0.084816	0.910316	0.652551
C100	C	0.584816	1.410316	1.152551
C101	C	0.089217	0.906396	0.739962
C102	C	0.589217	1.406396	1.239962
C103	C	-0.023568	1.007195	0.739952
C104	C	0.476432	1.507195	1.239952
C105	C	-0.027964	1.011119	0.652545
C106	C	0.472036	1.511119	1.152545
C107	C	0.026225	0.962676	0.608849
C108	C	0.526225	1.462676	1.108849
N109	N	0.070101	0.923447	0.480486
N110	N	0.570101	1.423447	0.980486
N111	N	0.021720	0.966688	0.519508
N112	N	0.521720	1.466688	1.019508
H113	H	0.195278	0.695931	-0.000020
H114	H	0.695278	1.195931	0.499980
H115	H	0.159514	0.843505	0.224457
H116	H	0.659514	1.343505	0.724457
H117	H	-0.037116	1.019261	0.383013
H118	H	0.462884	1.519261	0.883013
H119	H	-0.363075	1.050538	-0.000002
H120	H	0.136925	1.550538	0.499998
H121	H	0.156100	0.177341	-0.000017
H122	H	0.656100	0.677341	0.499983
H123	H	-0.075675	1.053755	0.616960
H124	H	0.424325	1.553755	1.116960
H125	H	-0.067687	1.046635	0.775536
H126	H	0.432313	1.546635	1.275536
H127	H	0.148999	0.327746	-0.000035
H128	H	0.648999	0.827746	0.499965
H129	H	-0.045100	1.026391	0.224447
H130	H	0.454900	1.526391	0.724447
H131	H	-0.742866	1.087080	-0.000009
H132	H	-0.242866	1.587080	0.499991
H133	H	-0.103440	0.194205	-0.000004
H134	H	0.396560	0.694205	0.499996
H135	H	-0.110543	0.344621	0.000009
H136	H	0.389457	0.844621	0.500009
H137	H	0.136933	0.863756	0.775545
H138	H	0.636933	1.363756	1.275545
H139	H	0.128940	0.870873	0.616981
H140	H	0.628940	1.370873	1.116981
H141	H	-0.595732	1.099754	-0.000004
H142	H	-0.095732	1.599754	0.499996
H143	H	-0.692218	0.826927	-0.000008
H144	H	-0.192218	1.326927	0.499992
H145	H	0.202374	0.545514	-0.000030
H146	H	0.702374	1.045514	0.499970
H147	H	-0.064264	0.712796	0.000008
H148	H	0.435736	1.212796	0.500008
H149	H	0.167497	0.836385	0.383032
H150	H	0.667497	1.336385	0.883032
H151	H	-0.545096	0.839598	-0.000026
H152	H	-0.045096	1.339598	0.499974
H153	H	-0.215952	1.063209	0.000011
H154	H	0.284048	1.563209	0.500011
H155	H	-0.312443	0.790389	-0.000020
H156	H	0.187557	1.290389	0.499980
H157	H	-0.165305	0.803055	-0.000011
H158	H	0.334695	1.303055	0.499989
H159	H	-0.057162	0.562392	-0.000002
H160	H	0.442838	1.062392	0.499998
H161	H	-0.449855	0.851455	-0.000015
H162	H	0.050145	1.351455	0.499985
H163	H	-0.458322	1.038682	-0.000031
H164	H	0.041678	1.538682	0.499969
