data_functionalizedCrystal
_audit_creation_method	'MofGen! by Chris Wilmer'
_symmetry_space_group_name_H-M	'P1'
_symmetry_Int_Tables_number	1
_symmetry_cell_setting	triclinic
loop_
_symmetry_equiv_pos_as_xyz
  x,y,z
_cell_length_a	11.792241
_cell_length_b	11.026607
_cell_length_c	10.065875
_cell_angle_alpha	79.268236
_cell_angle_beta	98.803625
_cell_angle_gamma	96.389716
loop_
_atom_site_label
_atom_site_type_symbol
_atom_site_fract_x
_atom_site_fract_y
_atom_site_fract_z
O1	O	-1.552943	-0.148821	-0.113353
O2	O	-1.226014	-0.165980	-0.113384
O3	O	-1.362382	0.019430	-0.113366
O4	O	-1.416574	-0.334231	-0.113371
O5	O	-1.336408	-0.016068	0.113619
O6	O	-1.200039	-0.201479	0.113601
O7	O	-1.526968	-0.184319	0.113632
Zn8	Zn	-1.359380	-0.198535	0.149655
Zn9	Zn	-1.393602	-0.151764	-0.149407
O10	O	-1.390600	-0.369730	0.113614
C11	C	-1.339398	0.046958	0.000124
C12	C	-1.309596	0.181870	0.000116
C13	C	-1.170522	-0.182651	0.000104
C14	C	-1.043869	-0.179422	0.000092
C15	C	-1.582461	-0.167648	0.000141
C16	C	-1.709115	-0.170876	0.000144
C17	C	-0.811974	-0.173493	0.000132
C18	C	-0.941016	-0.176787	0.000110
C19	C	-1.413585	-0.397257	0.000121
C20	C	-1.443387	-0.532167	0.000120
N21	N	-1.336032	-0.230453	0.353758
C22	C	-1.391885	0.255133	0.000122
C23	C	-1.361086	0.394571	0.000114
N24	N	-1.416957	-0.119836	-0.353510
C25	C	-1.385470	-0.162862	0.421543
C26	C	-1.367512	-0.187437	0.578708
H27	H	-1.485137	0.214625	0.000139
H28	H	-1.441086	-0.086796	0.363226
N29	N	-1.560375	0.417018	0.000151
N30	N	-1.587410	0.334361	0.095839
H31	H	-1.670031	0.298470	0.095863
H32	H	-1.216344	0.222378	0.000098
N33	N	-1.297723	-0.282848	0.651872
N34	N	-1.283228	-0.302672	0.779439
H35	H	-1.233939	-0.370053	0.831115
N36	N	-1.486725	-0.024405	0.573329
N37	N	-1.501212	-0.004570	0.445762
H38	H	-1.550483	0.062828	0.394089
N39	N	-1.266246	-0.325859	0.426927
N40	N	-1.251752	-0.345683	0.554494
H41	H	-1.202463	-0.413065	0.606170
H42	H	-1.267828	0.435073	0.000096
