data_functionalizedCrystal
_audit_creation_method	'MofGen! by Chris Wilmer'
_symmetry_space_group_name_H-M	'P1'
_symmetry_Int_Tables_number	1
_symmetry_cell_setting	triclinic
loop_
_symmetry_equiv_pos_as_xyz
  x,y,z
_cell_length_a	9.616153
_cell_length_b	14.044220
_cell_length_c	10.540535
_cell_angle_alpha	88.856260
_cell_angle_beta	89.996418
_cell_angle_gamma	89.997882
loop_
_atom_site_label
_atom_site_type_symbol
_atom_site_fract_x
_atom_site_fract_y
_atom_site_fract_z
O1	O	0.115506	-1.259780	-0.306257
O2	O	0.115541	-0.983736	-0.295205
O3	O	0.115509	-1.128058	-0.116661
O4	O	0.115538	-1.115458	-0.484801
O5	O	-0.115783	-1.128038	-0.116663
O6	O	-0.115751	-0.983716	-0.295207
O7	O	-0.115785	-1.259760	-0.306259
Zn8	Zn	-0.152491	-1.121735	-0.300733
Zn9	Zn	0.152246	-1.121761	-0.300731
O10	O	-0.115753	-1.115438	-0.484803
C11	C	-0.000101	-0.948379	-0.290369
C12	C	-0.000088	-0.843056	-0.275939
N13	N	-0.360465	-1.121724	-0.300735
C14	C	-0.000138	-1.127104	-0.069264
C15	C	-0.000139	-1.124280	0.071970
C16	C	-0.580818	-1.044285	-0.395874
C17	C	-0.419650	-1.044456	-0.396277
C18	C	-0.418924	-1.220901	-0.340895
C19	C	-0.580142	-1.220479	-0.341582
C20	C	-0.580384	-1.100973	-0.165198
C21	C	-0.419157	-1.098696	-0.165833
N22	N	0.360220	-1.121779	-0.300720
C23	C	-0.000141	-1.295117	-0.311095
C24	C	-0.000145	-1.400440	-0.325525
C25	C	-0.000117	-0.650216	-0.249558
C26	C	-0.000115	-0.593274	-0.351901
C27	C	-0.000132	-0.485972	-0.337222
C28	C	-0.000101	-0.757529	-0.264235
C29	C	-0.000104	-1.116392	-0.532201
C30	C	-0.000093	-1.119216	-0.673434
C31	C	-0.000116	-1.018907	0.119294
C32	C	0.000434	-1.015935	0.266195
C33	C	0.131708	-1.172392	0.276433
C34	C	0.131794	-1.174634	0.129441
C35	C	-0.131237	-1.176144	0.129422
C36	C	-0.132945	-1.171271	0.276261
H37	H	-0.380128	-0.970765	-0.370696
H38	H	-0.621310	-1.057486	-0.495632
H39	H	0.095492	-0.974573	0.298823
H40	H	-0.000100	-0.625112	-0.450543
H41	H	-0.621115	-1.030181	-0.129362
H42	H	-0.141310	-1.246652	0.317676
H43	H	-0.000133	-0.618380	-0.150924
H44	H	-0.094019	-0.974340	0.299742
H45	H	0.094273	-0.979129	0.079852
H46	H	-0.094624	-0.978434	0.081422
H47	H	-0.619621	-0.970364	-0.370548
H48	H	0.230705	-1.138739	0.092892
H49	H	0.137397	-1.251881	0.098601
H50	H	0.136231	-1.248437	0.316101
H51	H	0.230188	-1.135925	0.311014
H52	H	-0.381065	-1.057830	-0.496613
H53	H	-0.378875	-1.151398	-0.090840
H54	H	-0.231180	-1.143255	0.090295
H55	H	-0.230454	-1.132574	0.308786
H56	H	-0.619143	-1.279993	-0.275609
H57	H	-0.380585	-1.279975	-0.273904
H58	H	-0.618513	-1.157475	-0.094256
H59	H	-0.617725	-1.238677	-0.440759
H60	H	-0.378529	-1.239505	-0.439014
H61	H	-0.132532	-1.253670	0.099389
H62	H	-0.380950	-1.025736	-0.135616
