data_functionalizedCrystal
_audit_creation_method	'MofGen! by Chris Wilmer'
_symmetry_space_group_name_H-M	'P1'
_symmetry_Int_Tables_number	1
_symmetry_cell_setting	triclinic
loop_
_symmetry_equiv_pos_as_xyz
  x,y,z
_cell_length_a	8.597226
_cell_length_b	16.176319
_cell_length_c	17.699083
_cell_angle_alpha	89.995661
_cell_angle_beta	84.315245
_cell_angle_gamma	82.290518
loop_
_atom_site_label
_atom_site_type_symbol
_atom_site_fract_x
_atom_site_fract_y
_atom_site_fract_z
O1	O	-2.082054	0.217078	-0.112983
O2	O	-1.582054	0.717078	0.387017
O3	O	-1.625078	0.184524	-0.121644
O4	O	-1.125078	0.684524	0.378356
O5	O	-1.866477	0.201714	-0.007232
O6	O	-1.366477	0.701714	0.492768
O7	O	-1.840655	0.199889	-0.227396
O8	O	-1.340655	0.699889	0.272604
O9	O	-1.866448	0.064219	-0.007231
O10	O	-1.366448	0.564219	0.492769
O11	O	-1.625049	0.047029	-0.121644
O12	O	-1.125049	0.547029	0.378356
O13	O	-2.082026	0.079583	-0.112983
O14	O	-1.582026	0.579583	0.387017
Cu15	Cu	-1.853535	0.050752	-0.117313
Cu16	Cu	-1.353535	0.550752	0.382687
Cu17	Cu	-1.853569	0.213356	-0.117314
Cu18	Cu	-1.353569	0.713356	0.382686
O19	O	-1.840627	0.062394	-0.227395
O20	O	-1.340627	0.562394	0.272605
C21	C	-1.566594	0.111611	-0.120713
C22	C	-1.066594	0.611611	0.379287
C23	C	-1.392375	0.099200	-0.117929
C24	C	-0.892375	0.599200	0.382071
N25	N	-1.853523	-0.063614	-0.117312
N26	N	-1.353523	0.436386	0.382688
C27	C	-1.948525	-0.100104	-0.163949
C28	C	-1.448525	0.399896	0.336051
C29	C	-1.948541	-0.186650	-0.163946
C30	C	-1.448541	0.313350	0.336054
C31	C	-1.853547	-0.236705	-0.117310
C32	C	-1.353547	0.263295	0.382690
C33	C	-1.758542	-0.200210	-0.070668
C34	C	-1.258542	0.299790	0.429332
C35	C	-1.758534	-0.113665	-0.070667
C36	C	-1.258534	0.386335	0.429333
C37	C	-1.758571	-0.549236	-0.070669
C38	C	-1.258571	-0.049236	0.429331
C39	C	-1.758582	-0.635787	-0.070675
C40	C	-1.258582	-0.135787	0.429325
C41	C	-1.948578	-0.622221	-0.163948
C42	C	-1.448578	-0.122221	0.336052
C43	C	-1.948571	-0.535676	-0.163948
C44	C	-1.448571	-0.035676	0.336052
C45	C	-1.853572	-0.499188	-0.117303
C46	C	-1.353572	0.000812	0.382697
C47	C	-1.853557	-0.405345	-0.117305
C48	C	-1.353557	0.094655	0.382695
C49	C	-1.853553	-0.330547	-0.117311
C50	C	-1.353553	0.169453	0.382689
C51	C	-1.140510	0.152494	-0.113912
C52	C	-0.640510	0.652494	0.386088
C53	C	-1.314731	0.164899	-0.116690
C54	C	-0.814731	0.664899	0.383310
C55	C	-1.865537	0.132900	0.020973
C56	C	-1.365537	0.632900	0.520973
C57	C	-1.862762	0.132702	0.105014
C58	C	-1.362762	0.632702	0.605014
N59	N	-1.853593	0.327723	-0.117309
N60	N	-1.353593	0.827723	0.382691
C61	C	-1.841566	0.131209	-0.255600
C62	C	-1.341566	0.631209	0.244400
C63	C	-1.844342	0.131413	-0.339641
C64	C	-1.344342	0.631413	0.160359
C65	C	-2.004458	0.142795	0.152460
C66	C	-1.504458	0.642795	0.652460
C67	C	-2.001840	0.142616	0.231425
C68	C	-1.501840	0.642616	0.731425
C69	C	-1.857525	0.132338	0.262943
C70	C	-1.357525	0.632338	0.762943
C71	C	-1.715818	0.122246	0.215491
C72	C	-1.215818	0.622246	0.715491
C73	C	-1.718437	0.122432	0.136528
C74	C	-1.218437	0.622432	0.636528
C75	C	-1.705253	0.121500	0.533942
C76	C	-1.205253	0.621500	1.033942
C77	C	-1.702644	0.121314	0.612912
C78	C	-1.202644	0.621314	1.112912
C79	C	-1.988656	0.141685	0.628839
C80	C	-1.488656	0.641685	1.128839
C81	C	-1.991275	0.141870	0.549876
C82	C	-1.491275	0.641870	1.049876
C83	C	-1.849569	0.131783	0.502431
C84	C	-1.349569	0.631783	1.002431
C85	C	-1.852408	0.131979	0.416808
C86	C	-1.352408	0.631979	0.916808
C87	C	-1.854684	0.132136	0.348564
C88	C	-1.354684	0.632136	0.848564
H89	H	-2.025871	-0.059355	-0.201930
H90	H	-1.525871	0.440645	0.298070
Cl91	Cl	-1.639122	-0.263137	-0.012038
Cl92	Cl	-1.139122	0.236863	0.487962
Cl93	Cl	-1.289227	-0.002298	-0.116289
Cl94	Cl	-0.789227	0.497702	0.383711
H95	H	-2.025934	-0.651940	-0.201927
H96	H	-1.525934	-0.151940	0.298073
H97	H	-1.381548	0.230641	-0.117761
H98	H	-0.881548	0.730641	0.382239
Cl99	Cl	-2.067976	-0.472755	-0.222588
Cl100	Cl	-1.567976	0.027245	0.277412
Cl101	Cl	-2.067974	-0.232519	-0.222580
Cl102	Cl	-1.567974	0.267481	0.277420
Cl103	Cl	-1.639153	-0.698713	-0.012041
Cl104	Cl	-1.139153	-0.198713	0.487959
H105	H	-1.681174	-0.083957	-0.032691
H106	H	-1.181174	0.416043	0.467309
H107	H	-1.681218	-0.519538	-0.032688
H108	H	-1.181218	-0.019538	0.467312
H109	H	-2.117224	0.150833	0.270052
H110	H	-1.617224	0.650833	0.770052
Cl111	Cl	-2.185893	0.155709	0.112845
Cl112	Cl	-1.685893	0.655709	0.612845
H113	H	-2.108791	0.150235	0.524218
H114	H	-1.608791	0.650235	1.024218
Cl115	Cl	-2.166804	0.154369	0.688489
Cl116	Cl	-1.666804	0.654369	1.188489
H117	H	-1.585119	0.112942	0.638570
H118	H	-1.085119	0.612942	1.138570
Cl119	Cl	-1.527107	0.108822	0.474308
Cl120	Cl	-1.027107	0.608822	0.974308
H121	H	-1.598314	0.113883	0.241160
H122	H	-1.098314	0.613883	0.741160
Cl123	Cl	-1.540297	0.109746	0.076882
Cl124	Cl	-1.040297	0.609746	0.576882
