data_functionalizedCrystal
_audit_creation_method	'MofGen! by Chris Wilmer'
_symmetry_space_group_name_H-M	'P1'
_symmetry_Int_Tables_number	1
_symmetry_cell_setting	triclinic
loop_
_symmetry_equiv_pos_as_xyz
  x,y,z
_cell_length_a	19.077105
_cell_length_b	19.077356
_cell_length_c	19.077237
_cell_angle_alpha	89.925100
_cell_angle_beta	94.513445
_cell_angle_gamma	89.903992
loop_
_atom_site_label
_atom_site_type_symbol
_atom_site_fract_x
_atom_site_fract_y
_atom_site_fract_z
Zn1	Zn	1.079561	-0.340824	0.427643
Zn2	Zn	1.412894	-0.007491	0.760976
Zn3	Zn	1.746227	0.325843	1.094309
Zn4	Zn	1.070094	-0.453223	0.305074
Zn5	Zn	1.403427	-0.119889	0.638407
Zn6	Zn	1.736761	0.213444	0.971740
Zn7	Zn	0.957358	-0.331022	0.305449
Zn8	Zn	1.290691	0.002312	0.638783
Zn9	Zn	1.624025	0.335645	0.972116
Zn10	Zn	0.956984	-0.453174	0.418193
Zn11	Zn	1.290318	-0.119840	0.751526
Zn12	Zn	1.623651	0.213493	1.084859
O13	O	1.015999	-0.394560	0.364090
O14	O	1.349333	-0.061227	0.697423
O15	O	1.682666	0.272106	1.030756
O16	O	1.176784	-0.359857	0.415181
O17	O	1.510117	-0.026524	0.748514
O18	O	1.843451	0.306810	1.081848
O19	O	1.051334	-0.432930	0.206645
O20	O	1.384667	-0.099597	0.539978
O21	O	1.718001	0.233736	0.873311
O22	O	0.977687	-0.234162	0.325771
O23	O	1.311020	0.099172	0.659104
O24	O	1.644353	0.432505	0.992437
O25	O	1.169829	-0.442436	0.325130
O26	O	1.503162	-0.109102	0.658464
O27	O	1.836496	0.224231	0.991797
O28	O	1.067469	-0.241364	0.415545
O29	O	1.400802	0.091970	0.748879
O30	O	1.734135	0.425303	1.082212
O31	O	0.968507	-0.343150	0.206921
O32	O	1.301841	-0.009817	0.540254
O33	O	1.635174	0.323517	0.873587
O34	O	0.858829	-0.343102	0.316607
O35	O	1.192163	-0.009769	0.649941
O36	O	1.525496	0.323564	0.983274
O37	O	0.977050	-0.442352	0.517925
O38	O	1.310383	-0.109019	0.851258
O39	O	1.643716	0.224315	1.184592
O40	O	0.858555	-0.432847	0.399439
O41	O	1.191888	-0.099514	0.732773
O42	O	1.525222	0.233820	1.066106
O43	O	1.067106	-0.359809	0.524868
O44	O	1.400439	-0.026476	0.858201
O45	O	1.733773	0.306857	1.191535
O46	O	1.050972	-0.551376	0.315967
O47	O	1.384305	-0.218043	0.649301
O48	O	1.717638	0.115290	0.982634
O49	O	0.967870	-0.551340	0.399075
O50	O	1.301204	-0.218007	0.732409
O51	O	1.634537	0.115326	1.065742
C52	C	0.833158	-0.386906	0.357039
C53	C	1.166491	-0.053573	0.690373
C54	C	1.499824	0.279760	1.023706
C55	C	0.754937	-0.383649	0.354039
C56	C	1.088270	-0.050316	0.687372
C57	C	1.421604	0.283017	1.020706
C58	C	1.023675	-0.211599	0.371754
C59	C	1.357009	0.121734	0.705087
C60	C	1.690342	0.455067	1.038421
C61	C	1.026946	-0.133632	0.375020
C62	C	1.360280	0.199701	0.708353
C63	C	1.693613	0.533035	1.041687
C64	C	1.008977	-0.386933	0.181252
C65	C	1.342310	-0.053600	0.514585
C66	C	1.675643	0.279734	0.847919
C67	C	1.006099	-0.383499	0.103046
C68	C	1.339432	-0.050165	0.436379
C69	C	1.672765	0.283168	0.769712
C70	C	0.718059	-0.428909	0.395682
C71	C	1.051392	-0.095576	0.729015
C72	C	1.384725	0.237758	1.062349
C73	C	0.644563	-0.425840	0.392867
C74	C	0.977896	-0.092506	0.726200
C75	C	1.311229	0.240827	1.059534
C76	C	0.607946	-0.377513	0.348404
C77	C	0.941279	-0.044180	0.681738
C78	C	1.274613	0.289153	1.015071
C79	C	0.644830	-0.332249	0.306760
C80	C	0.978163	0.001084	0.640093
C81	C	1.311496	0.334418	0.973426
C82	C	0.718325	-0.335315	0.309579
C83	C	1.051658	-0.001982	0.642912
C84	C	1.384991	0.331351	0.976246
C85	C	0.388154	-0.363322	0.335359
C86	C	0.721487	-0.029988	0.668692
C87	C	1.054821	0.303345	1.002026
C88	C	0.314654	-0.360260	0.332541
C89	C	0.647987	-0.026927	0.665874
C90	C	0.981320	0.306407	0.999208
C91	C	0.314392	-0.453850	0.418650
C92	C	0.647725	-0.120517	0.751983
C93	C	0.981059	0.212816	1.085316
C94	C	0.387888	-0.456915	0.421462
C95	C	0.721221	-0.123582	0.754795
C96	C	1.054555	0.209751	1.088129
C97	C	0.424766	-0.411648	0.379820
C98	C	0.758099	-0.078315	0.713153
C99	C	1.091432	0.255018	1.046487
N100	N	0.532821	-0.374376	0.345524
N101	N	0.866155	-0.041043	0.678857
N102	N	1.199488	0.292290	1.012191
N103	N	0.499889	-0.414783	0.382705
N104	N	0.833223	-0.081449	0.716038
N105	N	1.166556	0.251884	1.049371
C106	C	1.199555	-0.402245	0.371168
C107	C	1.532888	-0.068912	0.704501
C108	C	1.866222	0.264422	1.037835
C109	C	1.277775	-0.405520	0.374184
C110	C	1.611109	-0.072187	0.707518
C111	C	1.944442	0.261147	1.040851
C112	C	1.008373	-0.576811	0.356471
C113	C	1.341706	-0.243478	0.689804
C114	C	1.675040	0.089855	1.023138
C115	C	1.005176	-0.654783	0.353238
C116	C	1.338509	-0.321450	0.686571
C117	C	1.671842	0.011884	1.019905
C118	C	0.981741	-0.093252	0.329815
C119	C	1.315075	0.240081	0.663149
C120	C	1.648408	0.573414	0.996482
C121	C	0.984814	-0.019994	0.332891
C122	C	1.318147	0.313339	0.666224
C123	C	1.651481	0.646673	0.999558
C124	C	1.033096	0.012883	0.381169
C125	C	1.366429	0.346216	0.714502
C126	C	1.699762	0.679550	1.047836
C127	C	1.078302	-0.027502	0.426379
C128	C	1.411636	0.305831	0.759712
C129	C	1.744969	0.639165	1.093045
C130	C	1.075226	-0.100759	0.423306
C131	C	1.408559	0.232574	0.756639
C132	C	1.741893	0.565908	1.089972
C133	C	1.047306	0.231575	0.395375
C134	C	1.380639	0.564908	0.728708
C135	C	1.713973	0.898242	1.062041
C136	C	1.050380	0.304837	0.398443
C137	C	1.383714	0.638171	0.731776
C138	C	1.717047	0.971504	1.065109
C139	C	0.956891	0.312340	0.304956
C140	C	1.290224	0.645674	0.638289
C141	C	1.623557	0.979007	0.971622
C142	C	0.953821	0.239082	0.301884
C143	C	1.287155	0.572415	0.635218
C144	C	1.620488	0.905748	0.968551
C145	C	0.999026	0.198703	0.347096
C146	C	1.332359	0.532036	0.680430
C147	C	1.665692	0.865370	1.013763
N148	N	1.036239	0.087765	0.384313
N149	N	1.369572	0.421098	0.717646
N150	N	1.702906	0.754431	1.050979
N151	N	0.995878	0.123823	0.343956
N152	N	1.329212	0.457156	0.677289
N153	N	1.662545	0.790490	1.010622
C154	C	1.023092	-0.402169	0.547645
C155	C	1.356426	-0.068835	0.880978
C156	C	1.689759	0.264498	1.214312
C157	C	1.026115	-0.405411	0.625865
C158	C	1.359448	-0.072078	0.959199
C159	C	1.692781	0.261256	1.292532
C160	C	1.047796	-0.428716	1.066147
C161	C	1.381129	-0.095383	1.399480
C162	C	1.714463	0.237950	1.732814
C163	C	1.044946	-0.425665	0.992651
C164	C	1.378279	-0.092332	1.325984
C165	C	1.711612	0.241001	1.659317
C166	C	1.000402	-0.377393	0.956054
C167	C	1.333735	-0.044059	1.289387
C168	C	1.667068	0.289274	1.622721
C169	C	0.958700	-0.332173	0.992958
C170	C	1.292033	0.001160	1.326291
C171	C	1.625366	0.334494	1.659624
C172	C	0.961547	-0.335228	1.066452
C173	C	1.294880	-0.001895	1.399786
C174	C	1.628213	0.331439	1.733119
C175	C	0.987260	-0.363246	0.736264
C176	C	1.320593	-0.029913	1.069597
C177	C	1.653926	0.303420	1.402930
C178	C	0.984418	-0.360193	0.662764
C179	C	1.317751	-0.026860	0.996097
C180	C	1.651084	0.306473	1.329430
C181	C	1.070663	-0.453687	0.662462
C182	C	1.403996	-0.120353	0.995795
C183	C	1.737330	0.212980	1.329128
C184	C	1.073509	-0.456735	0.735958
C185	C	1.406842	-0.123401	1.069292
C186	C	1.740176	0.209932	1.402625
C187	C	1.031805	-0.411518	0.772855
C188	C	1.365138	-0.078184	1.106188
C189	C	1.698471	0.255149	1.439522
N190	N	0.997489	-0.374271	0.880929
N191	N	1.330822	-0.040938	1.214262
N192	N	1.664155	0.292395	1.547596
N193	N	1.034714	-0.414643	0.847979
N194	N	1.368047	-0.081310	1.181312
N195	N	1.701381	0.252024	1.514645
H196	H	0.747867	-0.468264	0.431886
H197	H	1.081200	-0.134930	0.765219
H198	H	1.414533	0.198403	1.098553
H199	H	0.948146	-0.320879	0.632969
H200	H	1.281479	0.012454	0.966302
H201	H	1.614812	0.345788	1.299636
C202	C	0.758890	-0.285527	0.263767
C203	C	1.092224	0.047806	0.597100
C204	C	1.425557	0.381139	0.930433
N205	N	0.789443	-0.248024	0.229260
N206	N	1.122777	0.085309	0.562594
N207	N	1.456110	0.418642	0.895927
C208	C	0.941394	-0.313496	0.776841
C209	C	1.274727	0.019837	1.110175
C210	C	1.608061	0.353171	1.443508
N211	N	0.906849	-0.276018	0.807407
N212	N	1.240182	0.057315	1.140741
N213	N	1.573516	0.390649	1.474074
C214	C	0.907164	0.356763	0.255232
C215	C	1.240497	0.690096	0.588565
C216	C	1.573830	1.023429	0.921898
N217	N	0.869705	0.390222	0.217780
N218	N	1.203038	0.723555	0.551113
N219	N	1.536371	1.056888	0.884447
C220	C	1.122508	-0.509841	0.776209
C221	C	1.455841	-0.176508	1.109542
C222	C	1.789175	0.156825	1.442875
N223	N	1.159415	-0.549841	0.806525
N224	N	1.492749	-0.216508	1.139859
N225	N	1.826082	0.116825	1.473192
H226	H	0.614540	-0.462696	0.426776
H227	H	0.947873	-0.129362	0.760110
H228	H	1.281206	0.203971	1.093443
H229	H	0.914507	0.212319	0.262570
H230	H	1.247840	0.545652	0.595903
H231	H	1.581174	0.878985	0.929237
H232	H	1.078891	-0.462494	0.962610
H233	H	1.412225	-0.129161	1.295944
H234	H	1.745558	0.204172	1.629277
C235	C	0.428709	-0.313530	0.289547
C236	C	0.762042	0.019803	0.622880
C237	C	1.095376	0.353136	0.956213
N238	N	0.459258	-0.276026	0.255037
N239	N	0.792591	0.057307	0.588370
N240	N	1.125924	0.390640	0.921704
H241	H	1.104616	-0.490501	0.632412
H242	H	1.437949	-0.157167	0.965746
H243	H	1.771282	0.176166	1.299079
C244	C	0.909707	-0.279067	0.952699
C245	C	1.243040	0.054266	1.286033
C246	C	1.576373	0.387600	1.619366
N247	N	0.872808	-0.239062	0.922378
N248	N	1.206142	0.094271	1.255711
N249	N	1.539475	0.427605	1.589044
H250	H	0.942428	-0.120015	0.290500
H251	H	1.275761	0.213318	0.623833
H252	H	1.609094	0.546652	0.957167
C253	C	1.103487	0.341000	0.451564
C254	C	1.436820	0.674334	0.784897
C255	C	1.770154	1.007667	1.118230
N256	N	1.143482	0.368238	0.491574
N257	N	1.476816	0.701572	0.824908
N258	N	1.810149	1.034905	1.158241
H259	H	1.084122	0.198707	0.432182
H260	H	1.417455	0.532041	0.765515
H261	H	1.750789	0.865374	1.098849
H262	H	0.927593	-0.298406	1.096494
H263	H	1.260926	0.034927	1.429828
H264	H	1.594260	0.368260	1.763161
H265	H	0.417696	-0.496269	0.457666
H266	H	0.751030	-0.162936	0.791000
H267	H	1.084363	0.170397	1.124333
C268	C	0.273821	-0.503636	0.464458
C269	C	0.607155	-0.170302	0.797791
C270	C	0.940488	0.163031	1.131125
N271	N	0.243264	-0.541134	0.498965
N272	N	0.576597	-0.207800	0.832299
N273	N	0.909930	0.125533	1.165632
H274	H	0.615011	-0.292898	0.270560
H275	H	0.948344	0.040436	0.603894
H276	H	1.281677	0.373769	0.937227
C277	C	0.274377	-0.307094	0.283628
C278	C	0.607710	0.026239	0.616961
C279	C	0.941044	0.359572	0.950294
N280	N	0.244040	-0.267053	0.246787
N281	N	0.577374	0.066281	0.580120
N282	N	0.910707	0.399614	0.913454
H283	H	0.948004	0.012883	0.296082
H284	H	1.281338	0.346216	0.629416
H285	H	1.614671	0.679550	0.962749
C286	C	1.131414	0.008665	0.479484
C287	C	1.464747	0.341999	0.812817
C288	C	1.798080	0.675332	1.146151
N289	N	1.171420	0.035906	0.519482
N290	N	1.504754	0.369239	0.852815
N291	N	1.838087	0.702573	1.186148
C292	C	1.096798	-0.481821	1.106396
C293	C	1.430131	-0.148487	1.439730
C294	C	1.763465	0.184846	1.773063
N295	N	1.133706	-0.521823	1.136710
N296	N	1.467039	-0.188490	1.470043
N297	N	1.800372	0.144844	1.803377
C298	C	1.124957	-0.145176	0.473033
C299	C	1.458290	0.188157	0.806366
C300	C	1.791624	0.521490	1.139699
N301	N	1.162415	-0.178631	0.510490
N302	N	1.495748	0.154702	0.843823
N303	N	1.829082	0.488036	1.177157
