data_functionalizedCrystal
_audit_creation_method	'MofGen! by Chris Wilmer'
_symmetry_space_group_name_H-M	'P1'
_symmetry_Int_Tables_number	1
_symmetry_cell_setting	triclinic
loop_
_symmetry_equiv_pos_as_xyz
  x,y,z
_cell_length_a	16.776229
_cell_length_b	9.065218
_cell_length_c	9.065218
_cell_angle_alpha	85.015885
_cell_angle_beta	89.995234
_cell_angle_gamma	89.992815
loop_
_atom_site_label
_atom_site_type_symbol
_atom_site_fract_x
_atom_site_fract_y
_atom_site_fract_z
O1	O	0.066287	-1.960407	-0.216360
O2	O	0.066288	-1.531122	-0.234107
O3	O	0.066285	-1.754638	-0.010591
O4	O	0.066289	-1.736891	-0.439876
O5	O	-0.066291	-1.754607	-0.010577
O6	O	-0.066289	-1.531092	-0.234093
O7	O	-0.066290	-1.960377	-0.216346
Zn8	Zn	-0.087339	-1.745729	-0.225217
Zn9	Zn	0.087336	-1.745769	-0.225236
O10	O	-0.066288	-1.736861	-0.439862
C11	C	-0.000001	-1.476120	-0.232394
C12	C	-0.000000	-1.312277	-0.227294
C13	C	-0.000001	-1.752917	0.044403
C14	C	0.000002	-1.747817	0.208245
N15	N	-0.206550	-1.745713	-0.225203
C16	C	-0.248268	-1.844717	-0.126272
C17	C	-0.331720	-1.844725	-0.126271
C18	C	-0.373453	-1.745735	-0.225209
C19	C	-0.331729	-1.646721	-0.324145
C20	C	-0.248278	-1.646707	-0.324138
C21	C	-0.668276	-1.646775	-0.324175
C22	C	-0.751733	-1.646799	-0.324177
C23	C	-0.751718	-1.844793	-0.126308
C24	C	-0.668267	-1.844779	-0.126301
C25	C	-0.626551	-1.745760	-0.225231
C26	C	-0.536062	-1.745750	-0.225229
C27	C	-0.463940	-1.745751	-0.225220
N28	N	0.206548	-1.745797	-0.225238
C29	C	0.000000	-2.015378	-0.218059
C30	C	0.000005	-2.179221	-0.223158
C31	C	0.000001	-1.738582	-0.494855
C32	C	0.000002	-1.743681	-0.658698
H33	H	-0.214295	-1.925332	-0.045712
C34	C	-0.377606	-1.953601	-0.017403
N35	N	-0.412167	-2.035598	0.064615
H36	H	-0.634291	-1.925390	-0.045741
C37	C	-0.797614	-1.953704	-0.017469
N38	N	-0.832181	-2.035735	0.064505
C39	C	-0.202389	-1.537806	-0.432982
N40	N	-0.167826	-1.455780	-0.514967
C41	C	-0.797637	-1.537888	-0.433013
N42	N	-0.832212	-1.455859	-0.514982
C43	C	-0.377638	-1.537817	-0.432965
N44	N	-0.412216	-1.455788	-0.514929
H45	H	-0.634317	-1.566153	-0.404730
