data_functionalizedCrystal
_audit_creation_method	'MofGen! by Chris Wilmer'
_symmetry_space_group_name_H-M	'P1'
_symmetry_Int_Tables_number	1
_symmetry_cell_setting	triclinic
loop_
_symmetry_equiv_pos_as_xyz
  x,y,z
_cell_length_a	13.185408
_cell_length_b	18.266242
_cell_length_c	13.339070
_cell_angle_alpha	89.997720
_cell_angle_beta	96.198603
_cell_angle_gamma	90.006967
loop_
_atom_site_label
_atom_site_type_symbol
_atom_site_fract_x
_atom_site_fract_y
_atom_site_fract_z
O1	O	1.373302	0.060830	0.243486
O2	O	1.084469	0.060842	0.148749
O3	O	1.195737	0.060835	0.334357
O4	O	1.262034	0.060837	0.057879
O5	O	1.195708	-0.060927	0.334357
O6	O	1.084441	-0.060920	0.148749
O7	O	1.373273	-0.060932	0.243487
Zn8	Zn	1.228853	-0.080258	0.196118
Zn9	Zn	1.228890	0.080168	0.196118
O10	O	1.262006	-0.060925	0.057879
C11	C	1.046733	-0.000038	0.139145
C12	C	0.934328	-0.000033	0.110538
C13	C	0.895277	-0.000031	0.008684
C14	C	0.789668	-0.000038	-0.018197
C15	C	0.723099	-0.000041	0.056774
C16	C	0.762150	-0.000037	0.158631
C17	C	0.867770	-0.000037	0.185514
C18	C	0.695592	-0.000046	0.233605
C19	C	0.734643	-0.000043	0.335461
C20	C	0.840253	-0.000042	0.362340
C21	C	0.906821	-0.000039	0.287369
C22	C	0.589973	-0.000047	0.206722
C23	C	0.562466	-0.000052	0.383552
C24	C	0.668075	-0.000046	0.410432
N25	N	1.228834	-0.189745	0.196121
C26	C	1.278135	-0.228057	0.278283
C27	C	1.278140	-0.304702	0.278289
C28	C	1.228859	-0.343032	0.196120
C29	C	1.179546	-0.304711	0.113949
C30	C	1.179534	-0.228068	0.113950
N31	N	1.241058	-0.463364	0.109928
N32	N	1.241075	-0.536172	0.109932
C33	C	1.228891	-0.573954	0.196114
N34	N	1.216709	-0.536179	0.282300
N35	N	1.216698	-0.463364	0.282296
C36	C	1.228866	-0.426139	0.196110
C37	C	1.278200	-0.695373	0.278288
C38	C	1.278198	-0.772020	0.278294
C39	C	1.179611	-0.772027	0.113948
C40	C	1.179606	-0.695383	0.113949
C41	C	1.228906	-0.657060	0.196120
C42	C	1.411010	-0.000050	0.253091
C43	C	1.523415	-0.000050	0.281698
C44	C	1.184524	-0.000044	0.368997
C45	C	1.151143	-0.000040	0.472211
N46	N	1.228914	0.189655	0.196124
C47	C	1.273219	-0.000044	0.023239
C48	C	1.306600	-0.000043	-0.079975
C49	C	1.410697	-0.000051	0.907668
C50	C	1.442064	-0.000059	0.810695
C51	C	1.369336	-0.000054	0.726069
C52	C	1.265237	-0.000041	0.738426
C53	C	1.233867	-0.000039	0.835408
C54	C	1.192506	-0.000042	0.653810
C55	C	1.088406	-0.000030	0.666166
C56	C	1.057042	-0.000027	0.763140
C57	C	1.129770	-0.000032	0.847766
C58	C	1.223876	-0.000045	0.556827
C59	C	1.047045	-0.000033	0.484568
C60	C	1.015679	-0.000025	0.581541
H61	H	0.949485	-0.000034	-0.052346
H62	H	0.637108	-0.000047	0.034882
H63	H	1.139386	-0.196874	0.047043
H64	H	0.992818	-0.000036	0.309250
C65	C	1.409285	-0.609231	0.335764
C66	C	1.332461	-0.653274	0.368599
H67	H	1.442810	-0.583255	0.391517
H68	H	1.379918	-0.575421	0.286872
H69	H	1.457236	-0.639152	0.306651
H70	H	1.284505	-0.623352	0.397705
H71	H	1.361828	-0.687087	0.417509
C72	C	0.855275	-0.062603	0.549812
C73	C	0.901253	-0.000014	0.595127
H74	H	0.784633	-0.062592	0.558195
H75	H	0.886446	-0.105058	0.580557
H76	H	0.863552	-0.062597	0.479946
H77	H	0.892982	-0.000023	0.664995
H78	H	0.870072	0.042452	0.564385
H79	H	1.139480	-0.803235	0.047046
H80	H	0.558188	-0.000050	0.123789
C81	C	0.639987	-0.000036	-0.137915
C82	C	0.746744	-0.000033	-0.130150
H83	H	0.613490	-0.000035	-0.207035
H84	H	0.617040	0.042419	-0.105993
H85	H	0.617031	-0.042503	-0.105994
H86	H	0.769700	0.042437	-0.162064
H87	H	0.769699	-0.042493	-0.162086
C88	C	1.408710	-0.141560	0.336134
C89	C	1.331943	-0.185801	0.368674
H90	H	1.441818	-0.115437	0.391961
H91	H	1.379374	-0.107880	0.287048
H92	H	1.457009	-0.171364	0.307340
H93	H	1.283639	-0.155997	0.397462
H94	H	1.361279	-0.219486	0.417778
C95	C	0.677169	0.062548	0.569429
C96	C	0.711011	-0.000044	0.522391
H97	H	0.703683	0.062551	0.638545
H98	H	0.604753	0.062540	0.564158
H99	H	0.700136	0.105005	0.537493
H100	H	0.688037	-0.042501	0.554322
H101	H	0.783442	-0.000043	0.527669
H102	H	1.318340	-0.803214	0.345204
C103	C	0.388357	-0.000044	0.420865
C104	C	0.489303	-0.000049	0.465969
H105	H	0.343188	-0.000038	0.471744
H106	H	0.376698	-0.042502	0.380142
H107	H	0.376722	0.042421	0.380133
H108	H	0.500941	-0.042517	0.506696
H109	H	0.500967	0.042413	0.506710
C110	C	1.510540	-0.000061	0.626498
C111	C	1.403812	-0.000054	0.619474
H112	H	1.531825	-0.000054	0.560687
H113	H	1.536074	-0.042525	0.661769
H114	H	1.536102	0.042398	0.661787
H115	H	1.378251	-0.042516	0.584190
H116	H	1.378268	0.042414	0.584187
C117	C	1.478011	0.062535	1.058651
C118	C	1.490631	-0.000058	1.000685
H119	H	1.527368	0.062530	1.116074
H120	H	1.411532	0.062534	1.079882
H121	H	1.486593	0.104992	1.019309
H122	H	1.482041	-0.042515	1.040024
H123	H	1.557126	-0.000063	0.979455
H124	H	1.318288	-0.335901	0.345197
C125	C	1.135826	-0.577898	0.040976
C126	C	1.125429	-0.653264	0.023625
H127	H	1.102372	-0.551898	-0.014788
H128	H	1.206137	-0.565333	0.049095
H129	H	1.106003	-0.565351	0.100381
H130	H	1.155259	-0.665813	-0.035777
H131	H	1.055104	-0.665835	0.015493
H132	H	0.872044	-0.000049	0.445278
H133	H	1.308634	-0.000055	0.546778
H134	H	1.139418	-0.335923	0.047047
H135	H	1.104236	-0.000022	0.926732
H136	H	1.526821	-0.000070	0.800642
C137	C	0.896683	0.062580	0.731408
C138	C	0.942616	-0.000018	0.776724
H139	H	0.826042	0.062586	0.739799
H140	H	0.904955	0.062574	0.661550
H141	H	0.927891	0.105033	0.762156
H142	H	0.911412	-0.042472	0.745971
H143	H	0.934335	-0.000018	0.846595
H144	H	0.987824	-0.000032	0.415664
