data_functionalizedCrystal
_audit_creation_method	'MofGen! by Chris Wilmer'
_symmetry_space_group_name_H-M	'P1'
_symmetry_Int_Tables_number	1
_symmetry_cell_setting	triclinic
loop_
_symmetry_equiv_pos_as_xyz
  x,y,z
_cell_length_a	17.019365
_cell_length_b	11.792241
_cell_length_c	10.268362
_cell_angle_alpha	90.005428
_cell_angle_beta	86.119472
_cell_angle_gamma	96.207932
loop_
_atom_site_label
_atom_site_type_symbol
_atom_site_fract_x
_atom_site_fract_y
_atom_site_fract_z
O1	O	1.047294	-0.144581	-0.225637
O2	O	0.817708	-0.163023	-0.199918
O3	O	0.938072	0.011427	-0.213392
O4	O	0.926930	-0.319031	-0.212162
O5	O	0.938062	0.011434	0.003209
O6	O	0.817698	-0.163016	0.016684
O7	O	1.047283	-0.144574	-0.009035
Cu8	Cu	0.932489	-0.153794	0.023602
Cu9	Cu	0.932502	-0.153803	-0.232555
O10	O	0.926919	-0.319024	0.004439
C11	C	0.788311	-0.162321	-0.088324
C12	C	0.700732	-0.160225	-0.078513
C13	C	0.937367	0.053714	-0.105014
C14	C	0.935272	0.179706	-0.104780
C15	C	1.076680	-0.145277	-0.120632
C16	C	1.164259	-0.147372	-0.130452
C17	C	1.205405	-0.148352	-0.017001
C18	C	1.287694	-0.150330	-0.026239
C19	C	1.328836	-0.151321	-0.148929
C20	C	1.287684	-0.150345	-0.262388
C21	C	1.205396	-0.148375	-0.253149
C22	C	1.577292	-0.157278	-0.182732
C23	C	1.659586	-0.159246	-0.191963
C24	C	1.659591	-0.159233	0.044187
C25	C	1.577302	-0.157255	0.053415
C26	C	1.536156	-0.156285	-0.060044
C27	C	1.412949	-0.153340	-0.158375
C28	C	1.452044	-0.154275	-0.050597
C29	C	0.927624	-0.361311	-0.103942
C30	C	0.929719	-0.487303	-0.104184
N31	N	0.932486	-0.153788	0.203768
C32	C	0.931420	0.410377	-0.104370
C33	C	0.933560	0.282015	-0.104598
N34	N	0.932511	-0.153801	-0.412722
C35	C	0.932498	-0.153801	0.469437
C36	C	0.932489	-0.153797	0.321600
H37	H	1.171913	-0.147550	0.082906
H38	H	1.321187	-0.151159	-0.362285
C39	C	1.406786	-0.153183	0.084358
N40	N	1.372691	-0.152355	0.186007
H41	H	1.543812	-0.156424	0.153322
H42	H	1.693100	-0.160025	0.136558
H43	H	1.543801	-0.156485	-0.275119
C44	C	1.704839	-0.160353	-0.326937
N45	N	1.738923	-0.161191	-0.428594
H46	H	1.446456	-0.154144	-0.258269
H47	H	1.171895	-0.147580	-0.345532
H48	H	1.321192	-0.151125	0.066144
