data_functionalizedCrystal
_audit_creation_method	'MofGen! by Chris Wilmer'
_symmetry_space_group_name_H-M	'P1'
_symmetry_Int_Tables_number	1
_symmetry_cell_setting	triclinic
loop_
_symmetry_equiv_pos_as_xyz
  x,y,z
_cell_length_a	31.640172
_cell_length_b	17.052862
_cell_length_c	17.052862
_cell_angle_alpha	61.493325
_cell_angle_beta	90.004527
_cell_angle_gamma	70.263359
loop_
_atom_site_label
_atom_site_type_symbol
_atom_site_fract_x
_atom_site_fract_y
_atom_site_fract_z
Zr1	Zr	0.489848	0.816604	-0.200346
O2	O	0.443172	0.944506	-0.328485
O3	O	0.493880	0.665882	-0.146154
O4	O	0.516528	0.783681	-0.306961
O5	O	0.414348	0.860635	-0.057791
O6	O	0.586083	0.783670	-0.306944
O7	O	0.420524	0.826707	-0.167677
O8	O	0.545569	0.572948	-0.019289
O9	O	0.454862	1.071356	-0.345446
O10	O	0.559923	0.736319	-0.141044
O11	O	0.503407	0.761648	-0.059049
O12	O	0.530072	0.900341	-0.248379
O13	O	0.473556	0.925670	-0.166385
Zr14	Zr	0.590931	0.870697	-0.025063
Zr15	Zr	0.600780	0.816586	-0.200319
Zr16	Zr	0.479999	0.870715	-0.025090
Zr17	Zr	0.508492	1.018915	-0.227397
Zr18	Zr	0.572287	0.668386	0.001988
O19	O	0.586899	1.021419	-0.079255
O20	O	0.600903	0.944480	-0.328447
O21	O	0.429168	1.021445	-0.079293
O22	O	0.637607	0.742795	0.103076
O23	O	0.651611	0.665856	-0.146116
O24	O	0.479876	0.742821	0.103038
O25	O	0.666430	0.826666	-0.167618
O26	O	0.564251	0.903620	0.081552
O27	O	0.494696	0.903631	0.081535
O28	O	0.660255	0.860594	-0.057732
O29	O	0.543038	1.071342	-0.345425
O30	O	0.537741	0.615959	0.120016
O31	O	0.625917	0.615945	0.120037
O32	O	0.633745	0.572934	-0.019268
O33	O	0.447033	1.114367	-0.206141
O34	O	0.535209	1.114353	-0.206120
O35	O	0.550706	0.786959	0.022970
O36	O	0.607223	0.761631	-0.059024
O37	O	0.577372	0.925653	-0.166360
O38	O	0.520855	0.950981	-0.084365
C39	C	0.517068	0.590590	-0.078867
C40	C	0.509153	0.504704	-0.067383
C41	C	0.604846	0.209724	-0.206225
C42	C	0.612281	0.290421	-0.217021
C43	C	0.586500	0.343995	-0.179612
C44	C	0.553282	0.316865	-0.131406
C45	C	0.545843	0.236164	-0.120615
C46	C	0.527497	0.370436	-0.094003
C47	C	0.494278	0.343305	-0.045797
C48	C	0.486841	0.262612	-0.035007
C49	C	0.512622	0.209038	-0.072416
C50	C	0.534936	0.451137	-0.104794
C51	C	0.475933	0.477577	-0.019184
C52	C	0.468497	0.396880	-0.008388
C53	C	0.401631	0.843673	-0.112738
C54	C	0.354537	0.843681	-0.112749
C55	C	0.078105	0.758027	-0.056659
C56	C	-0.098883	0.758014	-0.056640
O57	O	-0.108518	0.685207	-0.008960
N58	N	-0.136594	0.843630	-0.112669
C59	C	-0.130058	0.929258	-0.168702
O60	O	-0.166195	1.002082	-0.216351
C61	C	0.046929	0.929272	-0.168715
C62	C	0.084640	0.843648	-0.112690
C63	C	0.115815	0.672410	-0.000636
C64	C	0.160059	0.672413	-0.000645
C65	C	0.166594	0.758034	-0.056676
C66	C	0.128884	0.843651	-0.112698
C67	C	0.053465	1.014900	-0.224743
C68	C	0.097716	1.014897	-0.224740
C69	C	0.135426	0.929273	-0.168714
C70	C	0.179663	0.929275	-0.168738
N71	N	0.217375	0.843658	-0.112709
C72	C	0.210840	0.758038	-0.056678
C73	C	-0.222977	0.929244	-0.168693
C74	C	-0.267224	0.929240	-0.168691
C75	C	-0.236046	0.757996	-0.056627
C76	C	-0.191798	0.757999	-0.056634
C77	C	-0.185265	0.843627	-0.112664
C78	C	0.303755	0.758051	-0.056702
C79	C	0.348002	0.758061	-0.056718
C80	C	0.316820	0.929305	-0.168778
C81	C	0.272577	0.929295	-0.168766
C82	C	0.266047	0.843661	-0.112720
O83	O	0.189333	1.002045	-0.216385
O84	O	0.246983	0.685229	-0.009022
C85	C	0.033861	0.758024	-0.056650
C86	C	-0.003849	0.843641	-0.112672
C87	C	0.002686	0.929262	-0.168703
C88	C	-0.048095	0.843638	-0.112670
C89	C	-0.054630	0.758017	-0.056639
C90	C	-0.016918	0.672401	-0.000610
C91	C	0.027326	0.672404	-0.000619
C92	C	-0.035026	1.014879	-0.224732
C93	C	-0.079269	1.014868	-0.224719
C94	C	-0.085803	0.929248	-0.168688
C95	C	0.679148	0.843628	-0.112671
C96	C	0.726242	0.843620	-0.112660
C97	C	0.552709	0.775966	-0.331923
C98	C	0.556890	0.752994	-0.406324
C99	C	0.563711	1.096711	-0.146542
C100	C	0.571626	1.182597	-0.158026
C101	C	0.506341	1.030721	-0.840165
C102	C	0.502410	1.052307	-0.770264
C103	C	0.516030	0.977481	-0.679276
C104	C	0.533581	0.881065	-0.658195
C105	C	0.537509	0.859476	-0.728103
C106	C	0.547198	0.806236	-0.567214
C107	C	0.564749	0.709820	-0.546133
C108	C	0.568677	0.688236	-0.616036
C109	C	0.555057	0.763062	-0.707023
C110	C	0.543270	0.827824	-0.497306
C111	C	0.574438	0.656580	-0.385244
C112	C	0.578369	0.634994	-0.455145
C113	C	0.528070	0.911335	0.106514
C114	C	0.523889	0.934307	0.180915
C115	C	0.655827	0.590567	-0.078834
C116	C	0.695005	0.504673	-0.067339
C117	C	0.504749	0.658275	0.140351
C118	C	0.492653	0.595360	0.226236
C119	C	0.643507	0.658252	0.140385
C120	C	0.678505	0.595329	0.226281
C121	C	0.437271	1.029049	-0.365794
C122	C	0.402274	1.091972	-0.451690
C123	C	0.424952	1.096734	-0.146575
C124	C	0.385773	1.182628	-0.158070
C125	C	0.576030	1.029026	-0.365760
C126	C	0.588126	1.091941	-0.451645
C127	C	0.688715	0.451122	-0.104761
C128	C	0.725525	0.370421	-0.093978
C129	C	0.768624	0.343269	-0.045766
C130	C	0.774915	0.396829	-0.008344
C131	C	0.738106	0.477532	-0.019133
C132	C	0.511662	0.579029	0.309389
C133	C	0.500295	0.519927	0.390092
C134	C	0.469921	0.477152	0.387641
C135	C	0.450910	0.493488	0.304478
C136	C	0.462275	0.552594	0.223777
C137	C	0.724446	0.552559	0.223818
C138	C	0.757335	0.493446	0.304519
C139	C	0.744282	0.477098	0.387681
C140	C	0.698337	0.519876	0.390141
C141	C	0.665449	0.578994	0.309441
C142	C	0.356334	1.134752	-0.449229
C143	C	0.323447	1.193890	-0.529932
C144	C	0.336500	1.210242	-0.613095
C145	C	0.382445	1.167459	-0.615555
C146	C	0.415332	1.108327	-0.534853
C147	C	0.392065	1.236185	-0.120657
C148	C	0.355258	1.316902	-0.131462
C149	C	0.312159	1.344056	-0.179676
C150	C	0.305868	1.290493	-0.217095
C151	C	0.342676	1.209782	-0.206295
C152	C	0.618501	1.134699	-0.449164
C153	C	0.629875	1.193805	-0.529854
C154	C	0.610872	1.210158	-0.613024
C155	C	0.580495	1.167393	-0.615502
C156	C	0.569124	1.108282	-0.534813
H157	H	0.561983	0.473219	-0.144044
C158	C	0.822324	0.366947	0.044695
H159	H	0.843340	0.311206	0.045765
H160	H	0.832741	0.418340	0.015825
H161	H	0.820139	0.352836	0.105231
C162	C	0.807868	0.446366	0.301805
H163	H	0.825589	0.408816	0.361774
H164	H	0.810464	0.405917	0.276974
H165	H	0.818726	0.495323	0.265003
H166	H	0.633978	1.121396	-0.381451
C167	C	-0.120747	1.109062	-0.286350
H168	H	-0.110514	1.160053	-0.319711
H169	H	-0.136488	1.100678	-0.327410
H170	H	-0.140825	1.124577	-0.249937
H171	H	0.544389	1.073474	-0.536846
C172	C	0.641309	0.480979	-0.157797
H173	H	0.620283	0.536708	-0.158864
H174	H	0.643495	0.495077	-0.218326
H175	H	0.630901	0.429568	-0.128911
C176	C	0.718596	0.311511	-0.135135
H177	H	0.687653	0.339234	-0.165376
H178	H	0.738219	0.312228	-0.177419
H179	H	0.725633	0.246725	-0.087989
H180	H	0.378707	0.688332	-0.011092
H181	H	0.620135	1.258292	-0.678720
H182	H	0.687715	0.506557	0.457863
C183	C	0.523968	0.933872	-0.520494
H184	H	0.523575	0.936017	-0.465834
H185	H	0.542722	0.965512	-0.554971
H186	H	0.493692	0.965513	-0.554976
C187	C	0.809109	0.254489	-0.033895
H188	H	0.799184	0.226483	-0.063082
H189	H	0.832855	0.273847	-0.060343
H190	H	0.820256	0.208353	0.029071
H191	H	0.345697	1.121442	-0.381520
H192	H	0.592556	0.409702	-0.188405
H193	H	0.452737	1.073493	-0.536866
H194	H	0.286039	1.228715	-0.527912
H195	H	-0.029711	1.084602	-0.270361
H196	H	0.536393	0.613853	0.311402
H197	H	0.743234	0.521126	0.011348
H198	H	0.309717	1.258392	-0.678801
C199	C	0.559563	1.185451	-0.706999
H200	H	0.539836	1.151537	-0.696932
H201	H	0.542584	1.252687	-0.746191
H202	H	0.583350	1.163273	-0.734320
C203	C	0.614914	0.626023	0.312162
H204	H	0.611855	0.607807	0.373252
H205	H	0.604970	0.694346	0.276484
H206	H	0.596742	0.604911	0.288448
H207	H	0.639327	0.312509	-0.256271
H208	H	0.735082	0.565858	0.156111
C209	C	0.483107	1.158355	-0.793452
H210	H	0.475562	1.199827	-0.857651
H211	H	0.456413	1.170337	-0.768516
H212	H	0.505443	1.170332	-0.768508
C213	C	0.271675	1.432836	-0.191547
H214	H	0.281598	1.460834	-0.162349
H215	H	0.260522	1.478971	-0.254507
H216	H	0.247931	1.413466	-0.165086
C217	C	0.521214	0.501959	0.481559
H218	H	0.540937	0.535888	0.471455
H219	H	0.497419	0.524166	0.508841
H220	H	0.538203	0.434731	0.520804
C221	C	0.457427	0.412131	0.476418
H222	H	0.473104	0.408528	0.526290
H223	H	0.425344	0.438581	0.472889
H224	H	0.466137	0.349158	0.484854
H225	H	0.022767	1.084626	-0.270365
C226	C	0.663283	1.240850	-0.527113
H227	H	0.672963	1.222656	-0.466024
H228	H	0.689143	1.219750	-0.550816
H229	H	0.648345	1.309176	-0.562798
C230	C	0.439470	1.206331	-0.067618
H231	H	0.437940	1.249802	-0.046895
H232	H	0.448560	1.142650	-0.016914
H233	H	0.461154	1.208147	-0.106336
C234	C	0.258457	1.320366	-0.270120
H235	H	0.237440	1.376098	-0.271179
H236	H	0.260632	1.334464	-0.330652
H237	H	0.248045	1.268962	-0.241223
H238	H	0.771066	0.428959	0.453386
C239	C	0.633199	0.150797	-0.247372
H240	H	0.624011	0.098851	-0.234037
H241	H	0.628321	0.191344	-0.311439
H242	H	0.664760	0.125826	-0.222010
H243	H	0.512828	0.995062	-0.622362
H244	H	0.241872	0.999014	-0.214397
C245	C	0.417507	0.446419	0.301795
H246	H	0.413469	0.408870	0.361773
H247	H	0.388826	0.495372	0.264998
H248	H	0.429625	0.405951	0.276975
C249	C	0.450300	0.232771	0.018009
H250	H	0.449559	0.177044	0.019071
H251	H	0.457614	0.218674	0.078540
H252	H	0.421177	0.284188	-0.010891
C253	C	0.504452	0.120253	-0.060516
H254	H	0.480980	0.111759	-0.026440
H255	H	0.495450	0.129839	-0.118583
H256	H	0.531890	0.064372	-0.029156
H257	H	0.592659	0.556491	-0.437993
H258	H	0.446795	0.565880	0.156074
C259	C	0.396797	1.185443	-0.707036
H260	H	0.370627	1.226777	-0.754739
H261	H	0.418429	1.215027	-0.717389
H262	H	0.410181	1.125610	-0.705422
H263	H	0.337546	1.166177	-0.236760
C264	C	0.431956	0.367035	0.044627
H265	H	0.431218	0.311308	0.045688
H266	H	0.439269	0.352938	0.105159
H267	H	0.402833	0.418450	0.015726
C268	C	0.447566	0.536512	0.021951
H269	H	0.456754	0.588455	0.008624
H270	H	0.416009	0.561472	-0.003416
H271	H	0.452439	0.495974	0.086025
C272	C	0.296578	0.663854	0.004941
H273	H	0.325378	0.612869	0.038294
H274	H	0.277794	0.672237	0.046009
H275	H	0.282141	0.648333	-0.031461
H276	H	0.190761	0.602688	0.044973
H277	H	0.360389	1.360502	-0.100986
H278	H	0.110501	0.602685	0.044996
H279	H	-0.241373	0.688279	-0.011009
C280	C	-0.150321	0.663817	0.005003
H281	H	-0.160555	0.612830	0.038375
H282	H	-0.130234	0.648293	-0.031388
H283	H	-0.134591	0.672219	0.046068
H284	H	-0.297925	0.998961	-0.214323
H285	H	-0.217665	0.998976	-0.214325
C286	C	0.104899	1.109100	-0.286332
H287	H	0.136650	1.096852	-0.278299
H288	H	0.093416	1.132369	-0.348093
H289	H	0.089066	1.156198	-0.270574
C290	C	0.324013	1.023484	-0.230407
H291	H	0.295219	1.074479	-0.263780
H292	H	0.338454	1.038992	-0.194004
H293	H	0.342800	1.015084	-0.271472
C294	C	-0.024113	0.578222	0.061027
H295	H	-0.055867	0.590494	0.053008
H296	H	-0.008286	0.531075	0.045329
H297	H	-0.012633	0.555008	0.122780
C298	C	0.559373	0.739315	-0.783914
H299	H	0.571774	0.671178	-0.758330
H300	H	0.529990	0.766062	-0.820421
H301	H	0.579023	0.766045	-0.820421
C302	C	0.068802	0.578218	0.061018
H303	H	0.058566	0.527235	0.094391
H304	H	0.088888	0.562692	0.024626
H305	H	0.084535	0.586618	0.102082
H306	H	0.582964	0.609727	-0.598865
C307	C	0.589421	0.574264	-0.285165
H308	H	0.600430	0.513751	-0.282622
H309	H	0.613050	0.579121	-0.255560
H310	H	0.564018	0.579132	-0.255575
H311	H	0.495251	1.091634	-0.914248
