data_functionalizedCrystal
_audit_creation_method	'MofGen! by Chris Wilmer'
_symmetry_space_group_name_H-M	'P1'
_symmetry_Int_Tables_number	1
_symmetry_cell_setting	triclinic
loop_
_symmetry_equiv_pos_as_xyz
  x,y,z
_cell_length_a	19.121112
_cell_length_b	19.121063
_cell_length_c	21.395355
_cell_angle_alpha	87.579260
_cell_angle_beta	92.462121
_cell_angle_gamma	90.126867
loop_
_atom_site_label
_atom_site_type_symbol
_atom_site_fract_x
_atom_site_fract_y
_atom_site_fract_z
Zn1	Zn	1.059885	-0.324994	0.406891
Zn2	Zn	1.559885	0.175006	0.906891
Zn3	Zn	1.054782	-0.442210	0.306376
Zn4	Zn	1.554782	0.057790	0.806376
Zn5	Zn	0.942638	-0.319984	0.297482
Zn6	Zn	1.442638	0.180016	0.797482
Zn7	Zn	0.937610	-0.437185	0.406473
Zn8	Zn	1.437610	0.062815	0.906473
O9	O	0.998729	-0.381093	0.354306
O10	O	1.498729	0.118907	0.854306
O11	O	1.157314	-0.344744	0.397455
O12	O	1.657314	0.155256	0.897455
O13	O	1.039875	-0.426003	0.217517
O14	O	1.539875	0.073997	0.717517
O15	O	0.962431	-0.222544	0.308448
O16	O	1.462431	0.277456	0.808448
O17	O	1.153565	-0.430862	0.323607
O18	O	1.653565	0.069138	0.823607
O19	O	1.048572	-0.226226	0.388830
O20	O	1.548572	0.273774	0.888830
O21	O	0.957483	-0.336204	0.210983
O22	O	1.457483	0.163796	0.710983
O23	O	0.843866	-0.331330	0.308043
O24	O	1.343866	0.168670	0.808043
O25	O	0.953862	-0.422296	0.494207
O26	O	1.453862	0.077704	0.994207
O27	O	0.840172	-0.417437	0.388118
O28	O	1.340172	0.082563	0.888118
O29	O	1.043697	-0.339870	0.494514
O30	O	1.543697	0.160130	0.994514
O31	O	1.035000	-0.539648	0.323201
O32	O	1.535000	-0.039648	0.823201
O33	O	0.948914	-0.535956	0.396742
O34	O	1.448914	-0.035956	0.896742
C35	C	0.816581	-0.373295	0.347070
C36	C	1.316581	0.126705	0.847070
C37	C	0.738657	-0.369976	0.343990
C38	C	1.238657	0.130024	0.843990
C39	C	0.298030	-0.348919	0.324482
C40	C	0.798030	0.151081	0.824482
C41	C	0.371248	-0.352041	0.327380
C42	C	0.871248	0.147959	0.827380
C43	C	0.405946	-0.398508	0.370457
C44	C	0.905946	0.101492	0.870457
C45	C	0.367423	-0.441849	0.410644
C46	C	0.867423	0.058151	0.910644
C47	C	0.294207	-0.438723	0.407749
C48	C	0.794207	0.061277	0.907749
C49	C	0.626918	-0.410191	0.381282
C50	C	1.126918	0.089809	0.881282
C51	C	0.700139	-0.413316	0.384173
C52	C	1.200139	0.086684	0.884173
C53	C	0.703958	-0.323507	0.300909
C54	C	1.203958	0.176493	0.800909
C55	C	0.630740	-0.320387	0.298016
C56	C	1.130740	0.179613	0.798016
C57	C	0.592224	-0.363726	0.338205
C58	C	1.092224	0.136274	0.838205
C59	C	0.480787	-0.401702	0.373418
C60	C	0.980787	0.098298	0.873418
C61	C	0.517385	-0.360528	0.335246
C62	C	1.017385	0.139472	0.835246
C63	C	0.990877	-0.563240	0.360906
C64	C	1.490877	-0.063240	0.860906
C65	C	0.987581	-0.641166	0.363753
C66	C	1.487581	-0.141166	0.863753
C67	C	1.030888	-0.679676	0.326837
C68	C	1.530888	-0.179676	0.826837
C69	C	1.027793	-0.752896	0.329518
C70	C	1.527793	-0.252896	0.829518
C71	C	0.981387	-0.787603	0.369113
C72	C	1.481387	-0.287603	0.869113
C73	C	0.938078	-0.749088	0.406034
C74	C	1.438078	-0.249088	0.906034
C75	C	0.941178	-0.675870	0.403355
C76	C	1.441178	-0.175870	0.903355
C77	C	0.969789	-1.008580	0.379118
C78	C	1.469789	-0.508580	0.879118
C79	C	0.966692	-1.081803	0.381793
C80	C	1.466692	-0.581803	0.881793
C81	C	1.056408	-1.085606	0.305277
C82	C	1.556408	-0.585606	0.805277
C83	C	1.059500	-1.012386	0.302599
C84	C	1.559500	-0.512386	0.802599
C85	C	1.016194	-0.973877	0.339523
C86	C	1.516194	-0.473877	0.839523
C87	C	0.978221	-0.862446	0.371854
C88	C	1.478221	-0.362446	0.871854
C89	C	1.019364	-0.899036	0.336785
C90	C	1.519364	-0.399036	0.836785
C91	C	1.181588	-0.388922	0.361569
C92	C	1.681588	0.111078	0.861569
C93	C	1.259512	-0.392258	0.364665
C94	C	1.759512	0.107742	0.864665
C95	C	0.998788	-0.381082	0.517731
C96	C	1.498788	0.118918	1.017731
C97	C	0.998813	-0.381077	0.587373
C98	C	1.498813	0.118923	1.087373
C99	C	1.006632	-0.198236	0.347694
C100	C	1.506632	0.301764	0.847694
C101	C	1.009999	-0.120314	0.344876
C102	C	1.509999	0.379686	0.844876
C103	C	0.998713	-0.381056	0.191516
C104	C	1.498713	0.118944	0.691516
C105	C	0.998832	-0.380869	0.121872
C106	C	1.498832	0.119131	0.621872
C107	C	1.045588	-0.338156	0.620247
C108	C	1.545588	0.161844	1.120247
C109	C	1.045589	-0.338125	0.685681
C110	C	1.545589	0.161875	1.185681
C111	C	0.998820	-0.381029	0.718240
C112	C	1.498820	0.118971	1.218240
C113	C	0.952036	-0.423953	0.685358
C114	C	1.452036	0.076047	1.185358
C115	C	0.952033	-0.423977	0.619924
C116	C	1.452033	0.076023	1.119924
C117	C	0.990563	-0.443917	0.823982
C118	C	1.490563	0.056083	1.323982
C119	C	0.990572	-0.443894	0.889415
C120	C	1.490572	0.056106	1.389415
C121	C	0.998828	-0.380955	0.920058
C122	C	1.498828	0.119045	1.420058
C123	C	1.007090	-0.318037	0.885261
C124	C	1.507090	0.181963	1.385261
C125	C	1.007086	-0.318061	0.819828
C126	C	1.507086	0.181939	1.319828
C127	C	0.998819	-0.381008	0.789191
C128	C	1.498819	0.118992	1.289191
C129	C	1.045606	-0.337998	1.023883
C130	C	1.545606	0.162002	1.523883
C131	C	1.045602	-0.337966	1.089318
C132	C	1.545602	0.162034	1.589318
C133	C	0.952053	-0.423800	1.088994
C134	C	1.452053	0.076200	1.588994
C135	C	0.952054	-0.423825	1.023560
C136	C	1.452054	0.076175	1.523560
C137	C	0.998834	-0.380925	0.991008
C138	C	1.498834	0.119075	1.491008
H139	H	0.735326	-0.288222	0.268191
H140	H	1.235326	0.211778	0.768191
H141	H	0.983849	-0.495126	0.917742
H142	H	1.483849	0.004874	1.417742
H143	H	0.489130	-0.322692	0.300176
H144	H	0.989130	0.177308	0.800176
H145	H	0.395681	-0.479680	0.445720
H146	H	0.895681	0.020320	0.945720
N147	N	0.888022	-0.786521	0.448736
N148	N	1.388022	-0.286521	0.948736
H149	H	0.861057	-0.751013	0.471717
H150	H	1.361057	-0.251013	0.971717
H151	H	0.915257	-0.818081	0.479995
H152	H	1.415257	-0.318081	0.979995
H153	H	1.013814	-0.266786	0.910209
H154	H	1.513814	0.233214	1.410209
H155	H	0.983653	-0.495148	0.799031
H156	H	1.483653	0.004852	1.299031
H157	H	0.940436	-0.890713	0.404091
H158	H	1.440436	-0.390713	0.904091
N159	N	1.080938	-0.642244	0.284128
N160	N	1.580938	-0.142244	0.784128
H161	H	1.107905	-0.677753	0.261150
H162	H	1.607905	-0.177753	0.761150
H163	H	1.114655	-0.613210	0.309832
H164	H	1.614655	-0.113210	0.809832
H165	H	1.083677	-0.303170	0.712452
H166	H	1.583677	0.196830	1.212452
N167	N	0.252655	-0.485467	0.451085
N168	N	0.752655	0.014533	0.951085
H169	H	0.265890	-0.475202	0.495982
H170	H	0.765890	0.024798	0.995982
H171	H	0.263247	-0.536067	0.443543
H172	H	0.763247	-0.036067	0.943543
H173	H	0.509047	-0.439537	0.408490
H174	H	1.009047	0.060463	0.908490
N175	N	1.109563	-0.974956	0.259902
N176	N	1.609563	-0.474956	0.759902
H177	H	1.098168	-0.987267	0.215162
H178	H	1.598168	-0.487267	0.715162
H179	H	1.159088	-0.989813	0.272185
H180	H	1.659088	-0.489813	0.772185
H181	H	1.091666	-1.116968	0.275218
H182	H	1.591666	-0.616968	0.775218
H183	H	0.728389	-0.451155	0.419255
H184	H	1.228389	0.048845	0.919255
N185	N	1.096040	-0.291886	0.585138
N186	N	1.596040	0.208114	1.085138
H187	H	1.125672	-0.264690	0.615896
H188	H	1.625672	0.235310	1.115896
H189	H	1.068905	-0.258228	0.555668
H190	H	1.568905	0.241772	1.055668
N191	N	0.585379	-0.456946	0.424615
N192	N	1.085379	0.043054	0.924615
H193	H	0.618473	-0.486862	0.452337
H194	H	1.118473	0.013138	0.952337
H195	H	0.553596	-0.488044	0.399025
H196	H	1.053596	0.011956	0.899025
H197	H	0.402606	-0.316753	0.294656
H198	H	0.902606	0.183247	0.794656
H199	H	1.083694	-0.303062	0.997378
H200	H	1.583694	0.196938	1.497378
H201	H	0.602493	-0.282554	0.262934
H202	H	1.102493	0.217446	0.762934
N203	N	1.015999	-0.250206	0.782296
N204	N	1.515999	0.249794	1.282296
H205	H	1.021232	-0.210328	0.811632
H206	H	1.521232	0.289672	1.311632
H207	H	0.973564	-0.241878	0.753201
H208	H	1.473564	0.258122	1.253201
H209	H	0.913940	-0.458927	0.593158
H210	H	1.413940	0.041073	1.093158
N211	N	1.096058	-0.291665	1.124769
N212	N	1.596058	0.208335	1.624769
H213	H	1.127315	-0.321535	1.154256
H214	H	1.627315	0.178465	1.654256
H215	H	1.068927	-0.257947	1.149555
H216	H	1.568927	0.242053	1.649555
H217	H	1.063058	-0.784248	0.299456
H218	H	1.563058	-0.284248	0.799456
H219	H	0.928911	-1.110060	0.414047
H220	H	1.428911	-0.610060	0.914047
H221	H	0.934526	-0.977231	0.409181
H222	H	1.434526	-0.477231	0.909181
H223	H	0.913956	-0.458883	0.711871
H224	H	1.413956	0.041117	1.211871
N225	N	0.901603	-0.470070	1.124101
N226	N	1.401603	0.029930	1.624101
H227	H	0.908701	-0.463541	1.170541
H228	H	1.408701	0.036459	1.670541
H229	H	0.910349	-0.520611	1.114923
H230	H	1.410349	-0.020611	1.614923
N231	N	0.901593	-0.470107	0.988097
N232	N	1.401593	0.029893	1.488097
H233	H	0.871960	-0.497278	1.018649
H234	H	1.371960	0.002722	1.518649
H235	H	0.928712	-0.503787	0.963262
H236	H	1.428712	-0.003787	1.463262
H237	H	0.269783	-0.311082	0.289404
H238	H	0.769783	0.188918	0.789404
H239	H	1.057151	-0.870775	0.304549
H240	H	1.557151	-0.370775	0.804549
N241	N	0.894471	-0.634330	0.443174
N242	N	1.394471	-0.134330	0.943174
H243	H	0.864601	-0.667426	0.468664
H244	H	1.364601	-0.167426	0.968664
H245	H	0.863325	-0.602605	0.415250
H246	H	1.363325	-0.102605	0.915250
