data_functionalizedCrystal
_audit_creation_method	'MofGen! by Chris Wilmer'
_symmetry_space_group_name_H-M	'P1'
_symmetry_Int_Tables_number	1
_symmetry_cell_setting	triclinic
loop_
_symmetry_equiv_pos_as_xyz
  x,y,z
_cell_length_a	15.944551
_cell_length_b	15.944551
_cell_length_c	14.421503
_cell_angle_alpha	89.996859
_cell_angle_beta	90.003340
_cell_angle_gamma	83.498738
loop_
_atom_site_label
_atom_site_type_symbol
_atom_site_fract_x
_atom_site_fract_y
_atom_site_fract_z
O1	O	0.108320	1.114529	-0.077017
O2	O	0.121677	0.869980	-0.077040
O3	O	-0.007276	0.998933	-0.077020
O4	O	0.237273	0.985576	-0.077038
O5	O	-0.007257	0.998911	0.077204
O6	O	0.121696	0.869958	0.077183
O7	O	0.108340	1.114508	0.077206
Cu8	Cu	0.115020	0.992231	0.091277
Cu9	Cu	0.114997	0.992256	-0.091110
O10	O	0.237293	0.985555	0.077186
C11	C	0.121132	0.838675	0.000069
C12	C	0.119470	0.745429	0.000060
C13	C	-0.038561	0.998367	0.000092
C14	C	-0.131807	0.996705	0.000093
C15	C	0.035565	0.530572	0.000084
C16	C	0.074518	0.469563	-0.075959
C17	C	0.116462	0.574703	0.000071
C18	C	0.074556	0.469564	0.076093
C19	C	0.113551	0.409790	0.000086
C20	C	0.155437	0.514922	-0.076035
C21	C	0.155464	0.514929	0.076086
C22	C	0.194476	0.453937	0.000024
C23	C	0.118137	0.669705	0.000062
C24	C	0.111883	0.314789	0.000089
C25	C	-0.346663	0.912801	0.000072
C26	C	-0.407671	0.951753	0.076117
C27	C	-0.302533	0.993698	0.000085
C28	C	-0.407674	0.951793	-0.075935
C29	C	-0.467445	0.990787	0.000074
C30	C	-0.362312	1.032672	0.076193
C31	C	-0.362308	1.032701	-0.075927
C32	C	-0.423298	1.071711	0.000136
C33	C	-0.207530	0.995372	0.000092
C34	C	-0.562446	0.989119	0.000073
C35	C	0.268577	0.986120	0.000072
C36	C	0.361823	0.987782	0.000066
C37	C	0.108885	1.145813	0.000096
C38	C	0.110547	1.239059	0.000098
N39	N	0.115035	0.992219	0.219558
N40	N	0.114975	0.992275	-0.219392
C41	C	0.174636	0.932581	0.469202
C42	C	0.190943	1.008481	0.531011
C43	C	0.115015	0.992240	0.408719
C44	C	0.098727	0.916359	0.531005
C45	C	0.114997	0.992253	0.591441
C46	C	0.131360	1.068178	0.469167
C47	C	0.039111	0.976007	0.469156
C48	C	0.055386	1.051961	0.530936
C49	C	0.115027	0.992231	0.303458
C50	C	0.114985	0.992270	0.696700
H51	H	0.040294	0.449461	-0.140243
N52	N	-0.337217	1.075536	0.156937
N53	N	-0.286987	1.037712	0.213560
H54	H	-0.269260	1.067981	0.270587
N55	N	0.198373	0.540167	0.156729
N56	N	0.227186	0.486126	0.214690
H57	H	0.257486	0.503950	0.271651
N58	N	0.031616	0.444356	0.156734
N59	N	-0.043878	0.472128	0.170266
H60	H	-0.074211	0.454328	0.227214
N61	N	-0.432900	0.908880	-0.156586
N62	N	-0.509145	0.901284	-0.169845
H63	H	-0.526960	0.870973	-0.226802
H64	H	-0.427771	0.917527	0.140401
H65	H	0.255126	1.022224	0.558180
N66	N	-0.337064	1.075616	-0.156563
N67	N	-0.365790	1.150731	-0.170859
H68	H	-0.347961	1.181037	-0.227815
H69	H	-0.313356	0.845652	0.000141
N70	N	-0.464889	1.156024	0.000202
N71	N	-0.453167	1.204857	0.065553
H72	H	-0.482540	1.264403	0.065604
N73	N	0.237941	0.869356	0.435205
N74	N	0.313793	0.872764	0.455057
H75	H	0.358504	0.828114	0.431047
N76	N	0.198336	0.540011	-0.156757
N77	N	0.206516	0.616160	-0.169801
H78	H	0.236818	0.633882	-0.226807
H79	H	0.004956	1.102474	0.557872
N80	N	-0.041371	0.958733	0.435021
N81	N	-0.054409	0.956590	0.349631
H82	H	-0.111249	0.944381	0.325520
H83	H	0.145205	1.132368	0.442119
N84	N	0.081466	0.835850	0.565085
N85	N	0.129820	0.771067	0.545306
H86	H	0.117638	0.714204	0.569375
H87	H	0.261683	0.420779	-0.000023
H88	H	-0.031573	0.563905	-0.000005
