data_functionalizedCrystal
_audit_creation_method	'MofGen! by Chris Wilmer'
_symmetry_space_group_name_H-M	'P1'
_symmetry_Int_Tables_number	1
_symmetry_cell_setting	triclinic
loop_
_symmetry_equiv_pos_as_xyz
  x,y,z
_cell_length_a	10.685904
_cell_length_b	10.686285
_cell_length_c	19.805399
_cell_angle_alpha	85.609337
_cell_angle_beta	85.609525
_cell_angle_gamma	89.665902
loop_
_atom_site_label
_atom_site_type_symbol
_atom_site_fract_x
_atom_site_fract_y
_atom_site_fract_z
Zn1	Zn	1.956273	-0.352462	-0.448794
Zn2	Zn	1.972291	-0.562251	-0.327658
Zn3	Zn	1.746504	-0.368575	-0.326322
Zn4	Zn	1.762584	-0.578247	-0.431516
O5	O	1.859413	-0.465384	-0.383572
O6	O	2.133950	-0.366853	-0.440515
O7	O	1.942314	-0.536609	-0.232761
O8	O	1.760897	-0.190892	-0.349239
O9	O	2.145719	-0.520984	-0.351517
O10	O	1.915013	-0.179054	-0.439219
O11	O	1.776429	-0.394316	-0.231779
O12	O	1.573084	-0.409827	-0.332486
O13	O	1.788303	-0.548247	-0.528528
O14	O	1.584898	-0.563872	-0.409772
O15	O	1.930606	-0.382364	-0.541221
O16	O	1.957906	-0.739919	-0.334764
O17	O	1.803835	-0.751671	-0.411068
C18	C	1.533472	-0.490334	-0.369109
C19	C	1.394036	-0.501038	-0.362937
C20	C	1.884388	-0.791309	-0.371202
C21	C	1.895187	-0.930733	-0.365938
C22	C	2.186626	-0.440337	-0.398093
C23	C	2.326065	-0.429663	-0.404280
C24	C	1.859461	-0.465293	-0.560121
C25	C	1.859482	-0.465254	-0.635355
C26	C	1.834375	-0.138183	-0.396007
C27	C	1.823705	0.001250	-0.401306
C28	C	1.773128	-0.391153	-0.670189
C29	C	1.773143	-0.391127	-0.740879
C30	C	1.859519	-0.465196	-0.776735
C31	C	1.945878	-0.539306	-0.741896
C32	C	1.945855	-0.539338	-0.671207
C33	C	1.945968	-0.539181	-1.026979
C34	C	1.945986	-0.539141	-1.097673
C35	C	1.773256	-0.390970	-1.096651
C36	C	1.773233	-0.391002	-1.025961
C37	C	1.859587	-0.465116	-0.991129
C38	C	1.859568	-0.465145	-0.914478
C39	C	1.859545	-0.465162	-0.853385
C40	C	1.859430	-0.465379	-0.207717
C41	C	1.859625	-0.465046	-0.132507
H42	H	1.345556	-0.570329	-0.322818
Br43	Br	2.063220	-0.639670	-1.146335
Br44	Br	1.707928	-0.918033	-0.458489
Br45	Br	1.406866	-0.314150	-0.471145
H46	H	1.964642	-0.979171	-0.331623
H47	H	1.702796	-0.330829	-0.641001
Br48	Br	2.063169	-0.639757	-0.979715
Br49	Br	2.063094	-0.639843	-0.790556
H50	H	1.702820	-0.330791	-0.769237
H51	H	1.702901	-0.330682	-0.996771
Br52	Br	1.656057	-0.290386	-1.143927
H53	H	2.016182	-0.599669	-0.642847
