data_functionalizedCrystal
_audit_creation_method	'MofGen! by Chris Wilmer'
_symmetry_space_group_name_H-M	'P1'
_symmetry_Int_Tables_number	1
_symmetry_cell_setting	triclinic
loop_
_symmetry_equiv_pos_as_xyz
  x,y,z
_cell_length_a	8.559649
_cell_length_b	14.044220
_cell_length_c	7.681481
_cell_angle_alpha	83.732834
_cell_angle_beta	94.913240
_cell_angle_gamma	81.483771
loop_
_atom_site_label
_atom_site_type_symbol
_atom_site_fract_x
_atom_site_fract_y
_atom_site_fract_z
O1	O	2.101908	-0.021858	-0.146399
O2	O	1.643608	0.026593	-0.146411
O3	O	1.865881	-0.135117	-0.146388
O4	O	1.879635	0.139853	-0.146422
O5	O	1.893233	-0.155061	0.146473
O6	O	1.670961	0.006649	0.146449
O7	O	2.129260	-0.041802	0.146461
Zn8	Zn	1.904453	-0.020743	0.192953
Zn9	Zn	1.868415	0.005534	-0.192903
O10	O	1.906988	0.119909	0.146438
C11	C	1.598278	0.020293	0.000018
C12	C	1.422455	0.031222	0.000014
C13	C	1.873534	-0.179966	0.000043
C14	C	1.855571	-0.283884	0.000045
C15	C	1.822727	-0.474153	0.000018
C16	C	1.950133	-0.541060	0.000016
C17	C	1.931858	-0.646933	0.000002
C18	C	1.840999	-0.368270	0.000033
C19	C	2.174590	-0.035501	0.000029
C20	C	2.350412	-0.046430	0.000021
C21	C	1.899334	0.164757	0.000003
C22	C	1.917296	0.268676	-0.000010
N23	N	1.929059	-0.038678	0.456290
N24	N	1.843820	0.023461	-0.456240
H25	H	2.072922	-0.518821	-0.000099
C26	C	1.726259	0.109143	0.442173
C27	C	1.588569	0.089931	0.314946
C28	C	1.471006	0.175615	0.213346
C29	C	1.491131	0.280512	0.238972
C30	C	1.628827	0.299729	0.366204
C31	C	1.746391	0.214044	0.467804
H32	H	1.573666	0.012276	0.295971
H33	H	1.369074	0.161389	0.119160
H34	H	1.404104	0.343940	0.163761
H35	H	1.643730	0.377384	0.385179
H36	H	1.848322	0.228271	0.561990
H37	H	1.349615	0.106070	-0.000005
H38	H	2.016090	-0.102101	0.531505
C39	C	1.448790	-0.147543	0.000037
C40	C	1.578440	-0.188758	0.152119
C41	C	1.676830	-0.289872	0.152135
C42	C	1.645569	-0.349771	0.000069
C43	C	1.515912	-0.308557	-0.152025
C44	C	1.417523	-0.207442	-0.152041
H45	H	1.601587	-0.144417	0.264698
H46	H	1.772810	-0.320382	0.264725
H47	H	1.718403	-0.424622	0.000080
H48	H	1.492766	-0.352898	-0.264604
H49	H	1.321542	-0.176933	-0.264631
C50	C	1.656838	-0.504178	0.000011
C51	C	1.638563	-0.611622	-0.000000
C52	C	1.472676	-0.641662	-0.000006
C53	C	1.325065	-0.564258	0.000000
C54	C	1.343336	-0.456807	0.000012
C55	C	1.509222	-0.426767	0.000017
H56	H	1.747837	-0.668928	-0.000005
H57	H	1.459152	-0.721205	-0.000014
H58	H	1.202266	-0.586495	-0.000004
H59	H	1.234061	-0.399501	0.000016
H60	H	1.522746	-0.347224	0.000025
