data_functionalizedCrystal
_audit_creation_method	'MofGen! by Chris Wilmer'
_symmetry_space_group_name_H-M	'P1'
_symmetry_Int_Tables_number	1
_symmetry_cell_setting	triclinic
loop_
_symmetry_equiv_pos_as_xyz
  x,y,z
_cell_length_a	19.377625
_cell_length_b	19.376995
_cell_length_c	19.377372
_cell_angle_alpha	62.052776
_cell_angle_beta	75.978185
_cell_angle_gamma	44.200954
loop_
_atom_site_label
_atom_site_type_symbol
_atom_site_fract_x
_atom_site_fract_y
_atom_site_fract_z
Zr1	Zr	0.519994	0.815455	-0.096463
O2	O	0.365791	0.983512	-0.149376
O3	O	0.579873	0.669958	-0.105252
O4	O	0.522569	0.862790	-0.225956
O5	O	0.453956	0.745475	0.094991
O6	O	0.631896	0.874467	-0.257914
O7	O	0.423095	0.790680	-0.028672
O8	O	0.734402	0.529525	-0.041997
O9	O	0.351450	1.090416	-0.120926
O10	O	0.671768	0.730162	-0.102634
O11	O	0.613209	0.687711	0.013504
O12	O	0.545741	0.914746	-0.128609
O13	O	0.487183	0.872296	-0.012471
Zr14	Zr	0.743578	0.761979	0.049796
Zr15	Zr	0.694358	0.834077	-0.147432
Zr16	Zr	0.569213	0.743358	0.100766
Zr17	Zr	0.497121	0.985954	-0.051088
Zr18	Zr	0.766450	0.591481	0.004422
O19	O	0.683699	0.907477	0.058586
O20	O	0.613715	1.009990	-0.221847
O21	O	0.435775	0.880999	0.131058
O22	O	0.897780	0.593922	0.102709
O23	O	0.827796	0.696436	-0.177724
O24	O	0.649856	0.567444	0.175181
O25	O	0.809615	0.831960	-0.141657
O26	O	0.741003	0.714644	0.179290
O27	O	0.631676	0.702968	0.211247
O28	O	0.840476	0.786755	-0.017994
O29	O	0.490046	1.105218	-0.161439
O30	O	0.773525	0.472217	0.114773
O31	O	0.912121	0.487019	0.074259
O32	O	0.872998	0.544327	-0.082511
O33	O	0.390573	1.033108	0.035845
O34	O	0.529169	1.047910	-0.004669
O35	O	0.717830	0.662689	0.081942
O36	O	0.776389	0.705139	-0.034196
O37	O	0.650362	0.889724	-0.060170
O38	O	0.591804	0.847273	0.055968
C39	C	0.660396	0.575449	-0.080090
C40	C	0.670106	0.503068	-0.099352
C41	C	0.714358	0.423205	-0.187120
C42	C	0.705230	0.491216	-0.169013
C43	C	0.644102	0.446903	-0.047768
C44	C	0.653229	0.378883	-0.065863
C45	C	0.688357	0.367041	-0.135541
C46	C	0.627228	0.322719	-0.014284
C47	C	0.636350	0.254709	-0.032380
C48	C	0.671473	0.242863	-0.102055
C49	C	0.697479	0.299031	-0.153637
C50	C	0.592093	0.334568	0.055391
C51	C	0.566092	0.278404	0.106970
C52	C	0.575221	0.210387	0.088878
C53	C	0.610344	0.198541	0.019202
C54	C	0.549215	0.154219	0.140459
C55	C	0.558337	0.086209	0.122363
C56	C	0.619466	0.130531	0.001106
C57	C	0.413683	0.765424	0.040422
C58	C	0.339660	0.757519	0.062059
C59	C	0.011213	0.855984	-0.207370
C60	C	-0.058330	0.848539	-0.187012
C61	C	-0.024309	0.798734	-0.050767
C62	C	0.045235	0.806180	-0.071114
C63	C	0.062991	0.834805	-0.149417
C64	C	0.097013	0.785001	-0.013161
C65	C	0.166555	0.792442	-0.033506
C66	C	0.184319	0.821062	-0.111804
C67	C	0.132532	0.842246	-0.169762
C68	C	0.079261	0.756369	0.065142
C69	C	0.131039	0.735189	0.123095
C70	C	0.200577	0.742637	0.102750
C71	C	0.218341	0.771257	0.024451
C72	C	0.252363	0.721453	0.160707
C73	C	0.321905	0.728894	0.140362
C74	C	0.287883	0.778698	0.004106
C75	C	0.849889	0.812011	-0.087088
C76	C	0.923911	0.819916	-0.108726
C77	C	0.570219	0.878901	-0.270036
C78	C	0.549324	0.909508	-0.353764
C79	C	0.603175	1.001986	0.033423
C80	C	0.593465	1.074367	0.052686
C81	C	0.809497	0.528425	-0.561340
C82	C	0.789842	0.557210	-0.640018
C83	C	0.658280	0.749902	-0.667124
C84	C	0.677927	0.721134	-0.588448
C85	C	0.753536	0.610393	-0.535561
C86	C	0.621967	0.803102	-0.562669
C87	C	0.641609	0.774334	-0.483998
C88	C	0.717212	0.663599	-0.431106
C89	C	0.773179	0.581625	-0.456890
C90	C	0.546353	0.913841	-0.615555
C91	C	0.490392	0.995809	-0.589776
C92	C	0.510039	0.967043	-0.511106
C93	C	0.585643	0.856308	-0.458214
C94	C	0.454073	1.049017	-0.485322
C95	C	0.473715	1.020249	-0.406651
C96	C	0.605285	0.827540	-0.379543
C97	C	0.693352	0.698534	0.223369
C98	C	0.714247	0.667927	0.307098
C99	C	0.878499	0.598742	-0.143844
C100	C	0.962232	0.534267	-0.184745
C101	C	0.721962	0.485266	0.166613
C102	C	0.752568	0.382277	0.231079
C103	C	0.940065	0.508559	0.102858
C104	C	1.044693	0.413476	0.145686
C105	C	0.323506	1.068876	-0.149524
C106	C	0.218878	1.163959	-0.192353
C107	C	0.385072	0.978692	0.097178
C108	C	0.301340	1.043168	0.138078
C109	C	0.541609	1.092169	-0.213279
C110	C	0.511004	1.195158	-0.277745
C111	C	0.946940	0.517053	-0.239685
C112	C	1.025603	0.456486	-0.278129
C113	C	1.119559	0.413128	-0.261628
C114	C	1.134848	0.430348	-0.206685
C115	C	1.056184	0.490920	-0.168246
C116	C	0.821553	0.320848	0.297085
C117	C	0.850307	0.224085	0.357669
C118	C	0.810080	0.188750	0.352242
C119	C	0.741086	0.250189	0.286230
C120	C	0.712328	0.346953	0.225650
C121	C	1.124401	0.390983	0.105174
C122	C	1.222713	0.301655	0.145408
C123	C	1.241315	0.234817	0.226154
C124	C	1.161598	0.257316	0.266669
C125	C	1.063287	0.346647	0.226436
C126	C	0.139169	1.186460	-0.151838
C127	C	0.040854	1.275809	-0.192067
C128	C	0.022251	1.342651	-0.272812
C129	C	0.101970	1.320147	-0.313328
C130	C	0.200282	1.230804	-0.273098
C131	C	0.316628	1.060392	0.193012
C132	C	0.237957	1.120985	0.231439
C133	C	0.144001	1.164347	0.214937
C134	C	0.128713	1.147122	0.159996
C135	C	0.207381	1.086537	0.121565
C136	C	0.551249	1.230462	-0.272297
C137	C	0.522511	1.327220	-0.332869
C138	C	0.453523	1.388678	-0.398886
C139	C	0.413277	1.353366	-0.404334
C140	C	0.442020	1.256605	-0.343765
H141	H	0.726405	0.536947	-0.211022
F142	F	0.681176	0.170485	-0.121316
H143	H	1.109273	0.445394	0.039426
H144	H	0.022638	0.750307	0.081704
H145	H	1.068650	0.504924	-0.123508
H146	H	0.079953	1.213677	0.246235
F147	F	0.306770	0.809179	-0.079236
H148	H	0.708339	0.221404	0.281821
F149	F	0.565350	1.364786	-0.327054
F150	F	0.377014	0.706348	0.202044
H151	H	0.998392	0.364947	0.259432
F152	F	0.734894	0.286400	-0.227785
H153	H	0.357103	1.403420	-0.458093
F154	F	0.416616	1.014256	0.210585
H155	H	0.648081	0.120882	-0.055628
H156	H	0.615497	0.456558	0.008962
H157	H	1.287612	0.283349	0.112407
H158	H	0.154298	1.132040	-0.086092
H159	H	0.025661	0.879305	-0.271134
F160	F	-0.043973	1.299738	-0.148934
H161	H	0.656158	0.396960	0.171905
F162	F	1.345953	0.139744	0.268965
F163	F	-0.082387	1.437735	-0.315619
H164	H	0.871070	0.438249	-0.518277
H165	H	0.237904	0.698137	0.224462
F166	F	0.082156	1.391295	-0.399265
F167	F	0.399170	1.219050	-0.349571
F168	F	0.582381	0.406958	0.074644
H169	H	0.240948	0.827114	-0.128367
F170	F	0.028711	1.193276	0.142442
H171	H	0.250425	1.134996	0.276173
H172	H	0.146981	0.865566	-0.233525
H173	H	0.742973	0.413555	-0.243855
H174	H	0.607423	1.180435	-0.218547
H175	H	0.537488	0.288059	0.163700
F176	F	-0.113432	0.871081	-0.248702
H177	H	0.906488	0.174072	0.411412
H178	H	0.428830	1.085974	-0.632846
H179	H	1.176759	0.202884	0.332417
H180	H	0.194920	1.072515	0.076839
F181	F	1.009312	0.438168	-0.336598
H182	H	0.265180	1.212489	-0.306096
F183	F	0.422938	1.491660	-0.463343
F184	F	1.234850	0.384193	-0.189129
F185	F	0.511820	0.166842	0.214608
H186	H	0.537162	0.040480	0.164364
F187	F	0.373597	1.166869	-0.541613
F188	F	0.685781	0.709679	-0.323259
F189	F	0.112138	0.704722	0.206429
H190	H	0.733199	0.640178	-0.367046
F191	F	-0.043210	0.768266	0.032566
H192	H	0.834752	0.491450	-0.413827
H193	H	0.835415	0.490453	-0.661001
F194	F	0.577809	0.867756	-0.723416
H195	H	0.530362	0.937259	-0.679613
H196	H	0.428143	1.086995	-0.385661
F197	F	1.203272	0.348662	-0.302544
H198	H	0.833506	0.109956	0.401575
F199	F	0.864382	0.358433	0.302875
F200	F	0.846951	0.563192	-0.257260
