data_functionalizedCrystal
_audit_creation_method	'MofGen! by Chris Wilmer'
_symmetry_space_group_name_H-M	'P1'
_symmetry_Int_Tables_number	1
_symmetry_cell_setting	triclinic
loop_
_symmetry_equiv_pos_as_xyz
  x,y,z
_cell_length_a	14.971486
_cell_length_b	26.210047
_cell_length_c	14.971486
_cell_angle_alpha	89.995701
_cell_angle_beta	83.614129
_cell_angle_gamma	90.004090
loop_
_atom_site_label
_atom_site_type_symbol
_atom_site_fract_x
_atom_site_fract_y
_atom_site_fract_z
O1	O	1.186952	0.042371	0.116550
O2	O	0.926552	0.042385	0.130509
O3	O	1.063731	0.042374	-0.006671
O4	O	1.049773	0.042382	0.253729
O5	O	1.063705	-0.042485	-0.006649
O6	O	0.926525	-0.042474	0.130530
O7	O	1.186925	-0.042487	0.116571
Cu8	Cu	1.056723	-0.050229	0.123553
Cu9	Cu	1.056754	0.050126	0.123527
O10	O	1.049746	-0.042477	0.253751
C11	C	0.893214	-0.000043	0.129895
C12	C	0.793917	-0.000038	0.128024
N13	N	1.056707	-0.120813	0.123570
C14	C	0.736691	-0.000036	0.208614
C15	C	0.643392	-0.000043	0.206850
C16	C	0.607320	-0.000049	0.124497
C17	C	0.664552	-0.000053	0.043902
C18	C	0.757850	-0.000049	0.045666
C19	C	0.470090	-0.000060	0.040231
C20	C	0.376786	-0.000063	0.038466
C21	C	0.355632	-0.000055	0.201415
C22	C	0.448930	-0.000051	0.203179
C23	C	0.506156	-0.000053	0.122584
C24	C	1.117491	-0.473332	0.062798
C25	C	1.117511	-0.686990	0.062786
O26	O	1.169157	-0.714616	0.011119
N27	N	1.056759	-0.713707	0.123508
C28	C	0.995994	-0.687005	0.184233
O29	O	0.944315	-0.714632	0.235875
C30	C	0.995971	-0.473347	0.184241
C31	C	1.056733	-0.446634	0.123521
C32	C	1.178247	-0.446618	0.002082
C33	C	1.178245	-0.393206	0.002089
C34	C	1.117487	-0.366509	0.062812
C35	C	1.056730	-0.393222	0.123528
C36	C	0.935202	-0.446647	0.244961
C37	C	0.935200	-0.393229	0.244956
C38	C	0.995962	-0.366515	0.184236
C39	C	0.995970	-0.313113	0.184257
N40	N	1.056721	-0.286397	0.123535
C41	C	1.117480	-0.313094	0.062813
C42	C	0.996012	-0.799178	0.184226
C43	C	0.996018	-0.852593	0.184226
C44	C	1.117534	-0.852574	0.062777
C45	C	1.117531	-0.799159	0.062782
C46	C	1.056764	-0.772462	0.123504
C47	C	1.117471	-0.200927	0.062832
C48	C	1.117466	-0.147510	0.062847
C49	C	0.995947	-0.147534	0.184293
C50	C	0.995955	-0.200945	0.184281
C51	C	1.056721	-0.227640	0.123544
O52	O	0.944344	-0.285454	0.235890
O53	O	1.169138	-0.285459	0.011166
C54	C	1.117493	-0.526743	0.062791
C55	C	1.056737	-0.553457	0.123507
C56	C	0.995979	-0.526759	0.184229
C57	C	1.056744	-0.606871	0.123506
C58	C	1.117502	-0.633569	0.062783
C59	C	1.178254	-0.606852	0.002061
C60	C	1.178252	-0.553441	0.002068
C61	C	0.935227	-0.553475	0.244951
C62	C	0.935235	-0.606887	0.244940
C63	C	0.995993	-0.633585	0.184218
C64	C	1.220263	-0.000059	0.117185
C65	C	1.319561	-0.000061	0.119056
C66	C	1.063094	-0.000055	-0.039985
C67	C	1.061223	-0.000055	-0.139282
N68	N	1.056777	0.120710	0.123503
C69	C	1.141812	-0.000059	-0.196507
C70	C	1.140049	-0.000054	-0.289807
C71	C	1.057696	-0.000048	-0.325879
C72	C	0.977101	-0.000042	-0.268646
C73	C	0.978865	-0.000043	-0.175349
C74	C	0.973430	-0.000040	-0.463109
C75	C	0.971665	-0.000039	-0.556413
C76	C	1.134614	-0.000051	-0.577567
C77	C	1.136378	-0.000052	-0.484269
C78	C	1.055782	-0.000047	-0.427043
C79	C	1.050383	-0.000047	0.287065
C80	C	1.052254	-0.000044	0.386362
H81	H	0.766054	-0.000031	0.275675
H82	H	1.200238	-0.000053	-0.624165
F83	F	0.530993	-0.000064	-0.045549
H84	H	0.635175	-0.000065	-0.023152
H85	H	0.910047	-0.000033	-0.298024
H86	H	0.904606	-0.000042	-0.585780
F87	F	0.582492	-0.000039	0.292625
H88	H	1.167008	-0.874320	0.013335
F89	F	0.818754	-0.000052	-0.040108
H90	H	0.907800	-0.000034	-0.416517
H91	H	0.347419	-0.000068	-0.028593
H92	H	0.913240	-0.000039	-0.128756
F93	F	0.487318	-0.000039	0.290829
F94	F	0.870519	-0.364820	0.309585
F95	F	1.225824	-0.000060	-0.350707
F96	F	0.294727	-0.000053	0.287192
H97	H	1.166951	-0.222656	0.013373
F98	F	1.182141	-0.119082	-0.001780
F99	F	1.242912	-0.364781	-0.062541
F100	F	1.229465	-0.000071	-0.158125
F101	F	1.242919	-0.475024	-0.062553
H102	H	0.946550	-0.874339	0.233679
F103	F	1.182201	-0.770733	-0.001845
H104	H	0.946526	-0.777445	0.233676
H105	H	0.885724	-0.468390	0.294404
F106	F	0.931294	-0.229375	0.248917
H107	H	0.946481	-0.125788	0.233735
H108	H	0.885757	-0.628634	0.294394
H109	H	0.885749	-0.531742	0.294398
F110	F	1.242923	-0.525016	-0.062559
H111	H	1.227730	-0.628598	-0.047379
H112	H	1.203437	-0.000061	-0.454903
