data_functionalizedCrystal
_audit_creation_method	'MofGen! by Chris Wilmer'
_symmetry_space_group_name_H-M	'P1'
_symmetry_Int_Tables_number	1
_symmetry_cell_setting	triclinic
loop_
_symmetry_equiv_pos_as_xyz
  x,y,z
_cell_length_a	11.792241
_cell_length_b	11.792254
_cell_length_c	10.268362
_cell_angle_alpha	89.998485
_cell_angle_beta	89.999574
_cell_angle_gamma	84.196007
loop_
_atom_site_label
_atom_site_type_symbol
_atom_site_fract_x
_atom_site_fract_y
_atom_site_fract_z
O1	O	1.506917	0.155561	-0.108174
O2	O	1.176576	0.171594	-0.108205
O3	O	1.349755	-0.001592	-0.108180
O4	O	1.333737	0.328747	-0.108200
O5	O	1.349739	-0.001586	0.108421
O6	O	1.176560	0.171600	0.108396
O7	O	1.506900	0.155567	0.108426
Cu8	Cu	1.341728	0.163584	0.128188
Cu9	Cu	1.341748	0.163577	-0.127967
O10	O	1.333721	0.328753	0.108401
C11	C	1.134277	0.170590	0.000092
C12	C	1.008263	0.167576	0.000080
C13	C	1.348738	-0.043880	0.000120
C14	C	1.345718	-0.169893	0.000119
C15	C	1.343264	-0.272229	0.000114
C16	C	1.340196	-0.400616	0.000102
C17	C	0.777551	0.162033	0.000118
C18	C	0.905936	0.165112	0.000097
C19	C	1.549199	0.156571	0.000127
C20	C	1.675213	0.159586	0.000130
C21	C	1.334738	0.371041	0.000098
C22	C	1.337758	0.497054	0.000091
N23	N	1.341723	0.163588	0.308354
N24	N	1.341762	0.163564	-0.308133
C25	C	1.341731	0.163589	0.426197
C26	C	1.341745	0.163579	0.574035
