data_functionalizedCrystal
_audit_creation_method	'MofGen! by Chris Wilmer'
_symmetry_space_group_name_H-M	'P1'
_symmetry_Int_Tables_number	1
_symmetry_cell_setting	triclinic
loop_
_symmetry_equiv_pos_as_xyz
  x,y,z
_cell_length_a	25.639239
_cell_length_b	25.639242
_cell_length_c	15.296720
_cell_angle_alpha	80.347553
_cell_angle_beta	99.638856
_cell_angle_gamma	89.966656
loop_
_atom_site_label
_atom_site_type_symbol
_atom_site_fract_x
_atom_site_fract_y
_atom_site_fract_z
Zn1	Zn	-0.259389	-0.748030	-0.510268
Zn2	Zn	-0.331701	-0.763089	-0.359416
Zn3	Zn	-0.244273	-0.675742	-0.359413
Zn4	Zn	-0.346779	-0.660560	-0.510187
O5	O	-0.295535	-0.711855	-0.434821
O6	O	-0.268997	-0.823190	-0.490293
O7	O	-0.307467	-0.764158	-0.233185
O8	O	-0.173116	-0.685383	-0.379457
O9	O	-0.322125	-0.834253	-0.379463
O10	O	-0.184222	-0.738493	-0.490290
O11	O	-0.243234	-0.699984	-0.233182
O12	O	-0.257854	-0.600566	-0.379378
O13	O	-0.347823	-0.659508	-0.636429
O14	O	-0.333165	-0.589412	-0.490150
O15	O	-0.283618	-0.723772	-0.636489
O16	O	-0.406863	-0.749436	-0.379384
O17	O	-0.417941	-0.674109	-0.490154
C18	C	-0.295506	-0.576019	-0.434755
C19	C	-0.295508	-0.517906	-0.434749
C20	C	-0.256271	-0.272497	-0.377219
C21	C	-0.256266	-0.327102	-0.377210
O22	O	-0.222871	-0.360260	-0.328258
N23	N	-0.295518	-0.348628	-0.434785
C24	C	-0.334775	-0.315546	-0.492380
O25	O	-0.368161	-0.338870	-0.541352
C26	C	-0.334778	-0.260941	-0.492392
C27	C	-0.295526	-0.239419	-0.434807
C28	C	-0.217022	-0.250973	-0.319639
C29	C	-0.217028	-0.196372	-0.319646
C30	C	-0.256283	-0.163294	-0.377234
C31	C	-0.295532	-0.184817	-0.434814
C32	C	-0.374032	-0.227859	-0.549990
C33	C	-0.374031	-0.173252	-0.549998
C34	C	-0.334780	-0.151729	-0.492413
C35	C	-0.334793	-0.097138	-0.492410
N36	N	-0.295541	-0.075611	-0.434835
C37	C	-0.256286	-0.108689	-0.377247
C38	C	-0.334765	-0.430220	-0.492350
C39	C	-0.334765	-0.484823	-0.492334
C40	C	-0.256255	-0.496376	-0.377165
C41	C	-0.256258	-0.441771	-0.377177
C42	C	-0.295513	-0.408693	-0.434775
C43	C	-0.256303	0.005978	-0.377267
C44	C	-0.256313	0.060584	-0.377277
C45	C	-0.334822	0.072132	-0.492448
C46	C	-0.334813	0.017530	-0.492435
C47	C	-0.295548	-0.015546	-0.434841
O48	O	-0.368170	-0.063947	-0.541340
O49	O	-0.222902	-0.085357	-0.328291
C50	C	-0.431374	-0.711772	-0.434780
C51	C	-0.489489	-0.711780	-0.434792
C52	C	-0.844084	-0.751156	-0.377241
C53	C	-0.898690	-0.751175	-0.377253
O54	O	-0.922018	-0.784566	-0.328276
N55	N	-0.931780	-0.711941	-0.434881
C56	C	-0.910264	-0.672689	-0.492506
O57	O	-0.943424	-0.639320	-0.541525
C58	C	-0.855660	-0.672673	-0.492498
C59	C	-0.822571	-0.711906	-0.434861
C60	C	-0.810996	-0.790386	-0.319609
C61	C	-0.756394	-0.790366	-0.319596
C62	C	-0.734880	-0.751116	-0.377215
C63	C	-0.767969	-0.711886	-0.434848
C64	C	-0.834144	-0.633423	-0.550128
C65	C	-0.779536	-0.633411	-0.550115
C66	C	-0.746447	-0.672644	-0.492477
C67	C	-0.691854	-0.672616	-0.492454
N68	N	-0.658763	-0.711850	-0.434826
C69	C	-0.680276	-0.751100	-0.377207
C70	C	-1.024936	-0.672727	-0.492520
C71	C	-1.079539	-0.672741	-0.492525
C72	C	-1.067961	-0.751227	-0.377273
C73	C	-1.013357	-0.751211	-0.377264
C74	C	-0.991845	-0.711961	-0.434893
C75	C	-0.565609	-0.751055	-0.377184
C76	C	-0.511002	-0.751030	-0.377173
C77	C	-0.522585	-0.672546	-0.492428
C78	C	-0.577187	-0.672569	-0.492436
C79	C	-0.598697	-0.711828	-0.434810
O80	O	-0.668489	-0.639243	-0.541409
O81	O	-0.647111	-0.784467	-0.328205
C82	C	-0.159168	-0.711952	-0.434882
C83	C	-0.101057	-0.711993	-0.434908
C84	C	-0.319088	-0.688266	-0.670104
C85	C	-0.329125	-0.678214	-0.770368
C86	C	-0.295563	0.151777	-0.434875
C87	C	-0.295568	0.093662	-0.434865
C88	C	-0.223709	-0.783719	-1.053120
C89	C	-0.214280	-0.793167	-0.958917
C90	C	-0.242990	-0.764429	-0.911775
C91	C	-0.281132	-0.726243	-0.958845
C92	C	-0.290565	-0.716797	-1.053057
C93	C	-0.309846	-0.697507	-0.911713
C94	C	-0.347987	-0.659321	-0.958783
C95	C	-0.357418	-0.649876	-1.052985
C96	C	-0.328708	-0.678614	-1.100127
C97	C	-0.300413	-0.706953	-0.817501
C98	C	-0.367269	-0.640031	-0.817438
C99	C	-0.376698	-0.630583	-0.911641
C100	C	-0.272036	-0.735382	-0.200453
C101	C	-0.261852	-0.745536	-0.100190
H102	H	-0.185066	-0.178854	-0.272754
Cl103	Cl	-0.384118	-0.511875	-0.564717
H104	H	-0.986418	-0.783158	-0.330332
Cl105	Cl	-0.618783	-0.623238	-0.564877
H106	H	-0.366736	-0.403290	-0.539251
H107	H	-0.405997	-0.146321	-0.596905
H108	H	-0.224328	-0.020946	-0.330372
Cl109	Cl	-0.206965	0.087637	-0.304877
Cl110	Cl	-0.167666	-0.292548	-0.247233
H111	H	-0.366784	0.099073	-0.539332
Cl112	Cl	-0.206911	-0.414720	-0.304783
H113	H	-0.583116	-0.783024	-0.330262
Cl114	Cl	-1.095016	-0.800570	-0.304835
H115	H	-1.106475	-0.640789	-0.539451
H116	H	-0.235310	-0.772124	-0.835071
Cl117	Cl	-0.423380	-0.254903	-0.622390
H118	H	-0.828505	-0.822351	-0.272688
Cl119	Cl	-0.206905	-0.537970	-0.304769
Cl120	Cl	-0.997898	-0.623375	-0.564968
H121	H	-0.366778	0.000005	-0.539319
Cl122	Cl	-0.252464	-0.754957	-0.758339
Cl123	Cl	-0.469408	-0.800356	-0.304709
Cl124	Cl	-0.752497	-0.584065	-0.622568
Cl125	Cl	-0.403367	-0.603905	-0.758181
Cl126	Cl	-0.714805	-0.839697	-0.247147
H127	H	-0.861076	-0.601474	-0.597058
H128	H	-0.505060	-0.640588	-0.539338
H129	H	-0.183226	-0.824260	-0.920600
H130	H	-0.336383	-0.670924	-1.176835
Cl131	Cl	-0.187626	-0.819846	-1.112388
H132	H	-0.388480	-0.618787	-1.091307
H133	H	-0.407753	-0.599491	-0.949978
