data_functionalizedCrystal
_audit_creation_method	'MofGen! by Chris Wilmer'
_symmetry_space_group_name_H-M	'P1'
_symmetry_Int_Tables_number	1
_symmetry_cell_setting	triclinic
loop_
_symmetry_equiv_pos_as_xyz
  x,y,z
_cell_length_a	6.817900
_cell_length_b	11.102183
_cell_length_c	10.992410
_cell_angle_alpha	91.891880
_cell_angle_beta	108.764651
_cell_angle_gamma	108.603876
loop_
_atom_site_label
_atom_site_type_symbol
_atom_site_fract_x
_atom_site_fract_y
_atom_site_fract_z
V1	V	-4.113408	-0.175839	-0.400591
O2	O	-4.072416	0.008450	-0.392968
O3	O	-4.090162	-0.348658	-0.397849
O4	O	-4.091013	-0.173134	-0.575303
O5	O	-4.071559	-0.168290	-0.214285
V6	V	-4.590407	-0.153796	-0.378307
O7	O	-4.388978	-0.224192	-0.449471
O8	O	-4.765035	-0.105442	-0.329427
O9	O	-4.390447	0.019024	-0.381049
O10	O	-4.748796	-0.338084	-0.385931
O11	O	-4.749654	-0.161344	-0.564614
O12	O	-4.389596	-0.156500	-0.203595
C13	C	-3.940440	-0.390788	-0.391529
C14	C	-4.002894	-0.532070	-0.390452
C15	C	-3.881428	-0.495793	-0.155125
C16	C	-3.850033	-0.544028	-0.036960
C17	C	-3.908721	-0.676776	-0.035955
C18	C	-3.998819	-0.761294	-0.153127
C19	C	-4.030214	-0.713059	-0.271292
C20	C	-3.971512	-0.580306	-0.272285
C21	C	-4.151693	-0.749336	-0.506616
C22	C	-4.092991	-0.616588	-0.507624
C23	C	-4.241790	-0.833854	-0.623789
C24	C	-4.273172	-0.785619	-0.741956
C25	C	-4.214475	-0.652862	-0.742956
C26	C	-4.124386	-0.568353	-0.625789
C27	C	-3.941525	-0.166887	-0.617888
C28	C	-4.004665	-0.165820	-0.760716
C29	C	-3.871834	-0.156089	-0.955840
C30	C	-3.806276	-0.157727	-0.807357
C31	C	-4.202082	-0.291130	-0.837819
C32	C	-4.266401	-0.290022	-0.986385
C33	C	-4.145326	-0.047376	-0.948357
C34	C	-4.074620	-0.046781	-0.799344
C35	C	-4.203511	0.061147	-0.387366
C36	C	-4.120298	0.202428	-0.388452
C37	C	-4.202426	-0.162751	-0.161004
C38	C	-4.118523	-0.163812	-0.018174
H39	H	-4.289587	-0.941944	-0.622962
H40	H	-3.931809	0.045918	-0.746987
H41	H	-4.155898	-0.379510	-0.812212
H42	H	-4.250418	-0.378186	-1.032655
Cl43	Cl	-4.386448	-0.891873	-0.889241
Cl44	Cl	-3.832706	-0.285257	-1.029924
H45	H	-4.240073	-0.613600	-0.839181
Cl46	Cl	-4.050584	-0.401466	-0.627036
H47	H	-4.448351	-0.300918	-1.029017
Cl48	Cl	-3.807607	-0.328906	-0.156379
H49	H	-4.352408	-0.301577	-0.809015
H50	H	-3.748691	-0.242549	-0.782541
Cl51	Cl	-3.987141	0.099542	-0.979792
H52	H	-4.216740	-0.045310	-0.766832
H53	H	-3.658251	-0.067623	-0.754017
H54	H	-3.776676	-0.475200	0.058439
Cl55	Cl	-3.869266	-0.737419	0.112595
Cl56	Cl	-4.072638	-0.928179	-0.151861
Cl57	Cl	-3.691502	-0.015894	-0.984694
Cl58	Cl	-4.421623	-0.054400	-1.011415
