data_functionalizedCrystal
_audit_creation_method	'MofGen! by Chris Wilmer'
_symmetry_space_group_name_H-M	'P1'
_symmetry_Int_Tables_number	1
_symmetry_cell_setting	triclinic
loop_
_symmetry_equiv_pos_as_xyz
  x,y,z
_cell_length_a	10.723024
_cell_length_b	10.540510
_cell_length_c	9.798715
_cell_angle_alpha	89.999330
_cell_angle_beta	89.996609
_cell_angle_gamma	84.490590
loop_
_atom_site_label
_atom_site_type_symbol
_atom_site_fract_x
_atom_site_fract_y
_atom_site_fract_z
O1	O	1.657257	0.178048	-0.113474
O2	O	1.294111	0.195091	-0.113478
O3	O	1.483989	0.001856	-0.113475
O4	O	1.467380	0.371283	-0.113477
O5	O	1.483974	0.001856	0.113507
O6	O	1.294097	0.195091	0.113504
O7	O	1.657243	0.178048	0.113508
Zn8	Zn	1.475668	0.186569	0.149544
Zn9	Zn	1.475686	0.186570	-0.149514
O10	O	1.467366	0.371282	0.113506
C11	C	1.247604	0.193851	0.000013
C12	C	1.109048	0.190140	0.000011
C13	C	0.917246	0.074875	0.000009
C14	C	1.060451	0.078708	0.000010
C15	C	1.482744	-0.045447	0.000013
C16	C	1.479041	-0.186395	0.000005
C17	C	1.610948	-0.403918	0.000526
C18	C	1.614898	-0.257324	0.000007
C19	C	1.409503	-0.231117	-0.129611
C20	C	1.406516	-0.377877	-0.129713
C21	C	1.403670	-0.377684	0.128408
C22	C	1.410114	-0.231347	0.130114
C23	C	1.703750	0.179288	0.000015
C24	C	1.842306	0.182999	0.000007
C25	C	1.468610	0.418586	0.000014
C26	C	1.472313	0.559534	0.000014
N27	N	1.475664	0.186568	0.353644
N28	N	1.475700	0.186561	-0.353614
C29	C	1.555388	0.105077	0.421422
C30	C	1.555408	0.105072	0.578585
H31	H	1.669307	-0.228009	0.092919
O32	O	1.282003	-0.404106	0.129700
C33	C	1.258320	-0.471427	0.249819
H34	H	1.329686	-0.451131	0.331249
H35	H	1.159894	-0.439598	0.288162
H36	H	1.266228	-0.577987	0.227177
O37	O	1.636678	0.021692	0.351886
C38	C	1.615030	-0.104121	0.386691
H39	H	1.515136	-0.105458	0.426102
H40	H	1.628554	-0.167603	0.292630
H41	H	1.683893	-0.141040	0.469482
H42	H	0.875386	-0.020531	0.000029
O43	O	1.674103	-0.454220	0.111309
C44	C	1.675865	-0.588119	0.108559
H45	H	1.661801	-0.621048	-0.000704
H46	H	1.769896	-0.632806	0.148379
H47	H	1.597327	-0.618779	0.175778
O48	O	1.137214	-0.031760	-0.000232
C49	C	1.113906	-0.102941	-0.117770
H50	H	1.069936	-0.036357	-0.199934
H51	H	1.205859	-0.152935	-0.157231
H52	H	1.047079	-0.177090	-0.091190
H53	H	1.663577	-0.447451	-0.091901
O54	O	0.892081	0.296904	-0.000177
C55	C	0.851955	0.366355	-0.117753
H56	H	0.761320	0.331096	-0.156946
H57	H	0.834952	0.471924	-0.091318
H58	H	0.927144	0.352206	-0.200068
O59	O	1.032421	0.300698	-0.000052
C60	C	1.105421	0.405050	-0.000014
H61	H	1.202316	0.373791	-0.042983
H62	H	1.058028	0.484785	-0.065914
H63	H	1.114951	0.440956	0.108881
H64	H	1.407446	0.256337	0.588109
O65	O	1.637011	0.021957	0.648046
C66	C	1.760839	0.043327	0.613177
H67	H	1.762654	0.144907	0.573811
H68	H	1.823246	0.029207	0.707194
H69	H	1.796747	-0.026852	0.530333
O70	O	1.394196	0.269626	0.423363
C71	C	1.316467	0.201084	0.506005
H72	H	1.365059	0.102075	0.527257
H73	H	1.297430	0.253834	0.606547
H74	H	1.224061	0.191918	0.451038
H75	H	1.669634	-0.228947	-0.093065
O76	O	1.463109	-0.425727	-0.245427
C77	C	1.398499	-0.372478	-0.360323
H78	H	1.344661	-0.277947	-0.330757
H79	H	1.468510	-0.355632	-0.444414
H80	H	1.330081	-0.440795	-0.398704
O81	O	1.285359	-0.405424	-0.136928
C82	C	1.268350	-0.477379	-0.255629
H83	H	1.362316	-0.527287	-0.289382
H84	H	1.200524	-0.551628	-0.233069
H85	H	1.228457	-0.411408	-0.340417
H86	H	1.309488	-0.183677	-0.134432
H87	H	1.446838	-0.419889	0.226658
O88	O	1.470351	-0.197393	0.244653
C89	C	1.407646	-0.238197	0.360807
H90	H	1.351328	-0.320519	0.331712
H91	H	1.479200	-0.271237	0.442505
H92	H	1.341708	-0.155832	0.402129
O93	O	1.466952	-0.194182	-0.244732
C94	C	1.381460	-0.113835	-0.322408
H95	H	1.304169	-0.068727	-0.253016
H96	H	1.432575	-0.035754	-0.371907
H97	H	1.338508	-0.172051	-0.405109
H98	H	1.310928	-0.182229	0.137940
