data_functionalizedCrystal
_audit_creation_method	'MofGen! by Chris Wilmer'
_symmetry_space_group_name_H-M	'P1'
_symmetry_Int_Tables_number	1
_symmetry_cell_setting	triclinic
loop_
_symmetry_equiv_pos_as_xyz
  x,y,z
_cell_length_a	21.395362
_cell_length_b	21.395361
_cell_length_c	21.395356
_cell_angle_alpha	90.030681
_cell_angle_beta	89.957023
_cell_angle_gamma	89.953415
loop_
_atom_site_label
_atom_site_type_symbol
_atom_site_fract_x
_atom_site_fract_y
_atom_site_fract_z
Zn1	Zn	0.957854	0.249189	-0.354573
Zn2	Zn	1.457854	0.749189	0.145427
Zn3	Zn	0.957758	0.353965	-0.249790
Zn4	Zn	1.457758	0.853965	0.250210
Zn5	Zn	0.853070	0.249235	-0.249774
Zn6	Zn	1.353070	0.749235	0.250226
Zn7	Zn	0.853038	0.353962	-0.354494
Zn8	Zn	1.353038	0.853962	0.145506
O9	O	0.905430	0.301588	-0.302158
O10	O	1.405430	0.801588	0.197842
O11	O	1.045519	0.263070	-0.340712
O12	O	1.545519	0.763070	0.159288
O13	O	0.943844	0.340094	-0.162110
O14	O	1.443844	0.840094	0.337890
O15	O	0.867024	0.161551	-0.263702
O16	O	1.367024	0.661551	0.236298
O17	O	1.045448	0.340049	-0.263729
O18	O	1.545448	0.840049	0.236271
O19	O	0.944008	0.161517	-0.340697
O20	O	1.444008	0.661517	0.159303
O21	O	0.866931	0.263148	-0.162098
O22	O	1.366931	0.763148	0.337902
O23	O	0.765388	0.263145	-0.263626
O24	O	1.265388	0.763145	0.236374
O25	O	0.866968	0.340042	-0.442183
O26	O	1.366968	0.840042	0.057817
O27	O	0.765364	0.340087	-0.340564
O28	O	1.265364	0.840087	0.159436
O29	O	0.943976	0.263066	-0.442240
O30	O	1.443976	0.763066	0.057760
O31	O	0.943813	0.441643	-0.263653
O32	O	1.443813	0.941643	0.236347
O33	O	0.866875	0.441640	-0.340579
O34	O	1.366875	0.941640	0.159421
C35	C	0.905347	0.464375	-0.302123
C36	C	1.405347	0.964375	0.197877
C37	C	0.905369	0.534017	-0.302129
C38	C	1.405369	1.034017	0.197871
C39	C	0.742642	0.301621	-0.302085
C40	C	1.242642	0.801621	0.197915
C41	C	0.673001	0.301650	-0.302069
C42	C	1.173001	0.801650	0.197931
C43	C	0.905479	0.301549	-0.465581
C44	C	1.405479	0.801549	0.034419
C45	C	0.905500	0.301532	-0.535222
C46	C	1.405500	0.801532	-0.035222
C47	C	0.640292	0.341767	-0.342070
C48	C	1.140292	0.841767	0.157930
C49	C	0.574856	0.341752	-0.342098
C50	C	1.074856	0.841752	0.157902
C51	C	0.542133	0.301626	-0.302113
C52	C	1.042133	0.801626	0.197887
C53	C	0.574850	0.261501	-0.262109
C54	C	1.074850	0.761501	0.237891
C55	C	0.640284	0.261513	-0.262087
C56	C	1.140284	0.761513	0.237913
C57	C	0.438409	0.296587	-0.245708
C58	C	0.938409	0.796587	0.254292
C59	C	0.372976	0.296580	-0.245730
C60	C	0.872976	0.796580	0.254270
C61	C	0.340312	0.301585	-0.302182
C62	C	0.840312	0.801585	0.197818
C63	C	0.373089	0.306611	-0.358616
C64	C	0.873089	0.806611	0.141384
C65	C	0.438523	0.306623	-0.358594
C66	C	0.938523	0.806623	0.141406
C67	C	0.471180	0.301608	-0.302133
C68	C	0.971180	0.801608	0.197867
C69	C	0.236650	0.341687	-0.342218
C70	C	0.736650	0.841687	0.157782
C71	C	0.171214	0.341668	-0.342247
C72	C	0.671214	0.841668	0.157753
C73	C	0.171208	0.261421	-0.262252
C74	C	0.671208	0.761421	0.237748
C75	C	0.236644	0.261437	-0.262229
C76	C	0.736644	0.761437	0.237771
C77	C	0.269361	0.301574	-0.302211
C78	C	0.769361	0.801574	0.197789
C79	C	1.068853	0.301555	-0.302231
C80	C	1.568853	0.801555	0.197769
C81	C	1.138494	0.301541	-0.302262
C82	C	1.638494	0.801541	0.197738
C83	C	0.905530	0.138164	-0.302206
C84	C	1.405530	0.638164	0.197794
C85	C	0.905573	0.068523	-0.302227
C86	C	1.405573	0.568523	0.197773
C87	C	0.945466	0.566710	-0.262114
C88	C	1.445466	1.066710	0.237886
C89	C	0.945495	0.632146	-0.262128
C90	C	1.445495	1.132146	0.237872
C91	C	0.905416	0.664885	-0.302150
C92	C	1.405416	1.164885	0.197850
C93	C	0.865317	0.632183	-0.342172
C94	C	1.365317	1.132183	0.157828
C95	C	0.865293	0.566749	-0.342162
C96	C	1.365293	1.066749	0.157838
C97	C	0.849001	0.768615	-0.307041
C98	C	1.349001	1.268615	0.192959
C99	C	0.849024	0.834048	-0.307047
C100	C	1.349024	1.334048	0.192953
C101	C	0.905489	0.866706	-0.302187
C102	C	1.405489	1.366706	0.197813
C103	C	0.961934	0.833922	-0.297307
C104	C	1.461934	1.333922	0.202693
C105	C	0.961910	0.768488	-0.297296
C106	C	1.461910	1.268488	0.202704
C107	C	0.905438	0.735837	-0.302167
C108	C	1.405438	1.235837	0.197833
C109	C	0.945621	0.970352	-0.262186
C110	C	1.445621	1.470352	0.237814
C111	C	0.945651	1.035788	-0.262204
C112	C	1.445651	1.535788	0.237796
C113	C	0.865467	1.035825	-0.342245
C114	C	1.365467	1.535825	0.157755
C115	C	0.865442	0.970389	-0.342230
C116	C	1.365442	1.470389	0.157770
C117	C	0.905519	0.937657	-0.302197
C118	C	1.405519	1.437657	0.197803
C119	C	0.865462	0.261462	-0.567919
C120	C	1.365462	0.761462	-0.067919
C121	C	0.865460	0.261451	-0.633355
C122	C	1.365460	0.761451	-0.133355
C123	C	0.905507	0.301502	-0.666091
C124	C	1.405507	0.801502	-0.166091
C125	C	0.945548	0.341580	-0.633385
C126	C	1.445548	0.841580	-0.133385
C127	C	0.945545	0.341595	-0.567951
C128	C	1.445545	0.841595	-0.067951
C129	C	0.961959	0.306413	-0.769796
C130	C	1.461959	0.806413	-0.269796
C131	C	0.961964	0.306393	-0.835229
C132	C	1.461964	0.806393	-0.335229
C133	C	0.905517	0.301460	-0.867911
C134	C	1.405517	0.801460	-0.367911
C135	C	0.849065	0.296533	-0.835153
C136	C	1.349065	0.796533	-0.335153
C137	C	0.849061	0.296548	-0.769719
C138	C	1.349061	0.796548	-0.269719
C139	C	0.905515	0.301491	-0.737043
C140	C	1.405515	0.801491	-0.237043
C141	C	0.865474	0.261376	-0.971561
C142	C	1.365474	0.761376	-0.471561
C143	C	0.865470	0.261368	-1.036998
C144	C	1.365470	0.761368	-0.536998
C145	C	0.945564	0.341494	-1.037027
C146	C	1.445564	0.841494	-0.537027
C147	C	0.945562	0.341505	-0.971592
C148	C	1.445562	0.841505	-0.471592
C149	C	0.905517	0.301442	-0.938863
C150	C	1.405517	0.801442	-0.438863
C151	C	0.905417	0.301581	-0.139370
C152	C	1.405417	0.801581	0.360630
C153	C	0.905517	0.301421	-0.069729
C154	C	1.405517	0.801421	0.430271
H155	H	0.666926	0.374449	-0.374627
H156	H	1.166926	0.874449	0.125373
H157	H	0.832857	0.228818	-0.659982
H158	H	1.332857	0.728818	-0.159982
H159	H	1.007868	0.741798	-0.293325
H160	H	1.507868	1.241798	0.206675
H161	H	0.548202	0.228829	-0.229554
H162	H	1.048202	0.728829	0.270446
Cl163	Cl	1.032927	0.312620	-0.728716
Cl164	Cl	1.532927	0.812620	-0.228716
H165	H	0.832862	0.228741	-1.063619
H166	H	1.332862	0.728741	-0.563619
H167	H	0.832789	0.943768	-0.374811
H168	H	1.332789	1.443768	0.125189
Cl169	Cl	0.995890	0.391934	-0.674538
Cl170	Cl	1.495890	0.891934	-0.174538
Cl171	Cl	0.815117	0.211101	-0.526778
Cl172	Cl	1.315117	0.711101	-0.026778
H173	H	0.803101	0.292511	-0.861762
H174	H	1.303101	0.792511	-0.361762
H175	H	0.803063	0.860735	-0.311015
H176	H	1.303063	1.360735	0.188985
H177	H	0.803017	0.742031	-0.311001
H178	H	1.303017	1.242031	0.188999
Cl179	Cl	0.814935	0.673340	-0.392489
Cl180	Cl	1.314935	1.173340	0.107511
Cl181	Cl	0.479465	0.290297	-0.174732
Cl182	Cl	0.979465	0.790297	0.325268
H183	H	0.832641	0.540129	-0.374747
H184	H	1.332641	1.040129	0.125253
H185	H	0.978255	0.943700	-0.229590
H186	H	1.478255	1.443700	0.270410
Cl187	Cl	0.332033	0.312900	-0.429591
Cl188	Cl	0.832033	0.812900	0.070409
H189	H	0.978173	0.374104	-1.063680
H190	H	1.478173	0.874104	-0.563680
Cl191	Cl	0.995903	0.391877	-0.930484
Cl192	Cl	1.495903	0.891877	-0.430484
H193	H	0.263290	0.374366	-0.374776
H194	H	0.763290	0.874366	0.125224
Cl195	Cl	0.331777	0.290261	-0.174786
Cl196	Cl	0.831777	0.790261	0.325214
Cl197	Cl	0.778096	0.290358	-0.728539
Cl198	Cl	1.278096	0.790358	-0.228539
H199	H	0.832867	0.228755	-0.944912
H200	H	1.332867	0.728755	-0.444912
H201	H	1.007931	0.310402	-0.861896
H202	H	1.507931	0.810402	-0.361896
H203	H	1.007913	0.860511	-0.293349
H204	H	1.507913	1.360511	0.206651
Cl205	Cl	0.996068	1.076890	-0.211900
Cl206	Cl	1.496068	1.576890	0.288100
Cl207	Cl	0.995884	0.391972	-0.526844
Cl208	Cl	1.495884	0.891972	-0.026844
H209	H	0.465207	0.310714	-0.404543
H210	H	0.965207	0.810714	0.095457
Cl211	Cl	0.533727	0.392189	-0.392389
Cl212	Cl	1.033727	0.892189	0.107611
Cl213	Cl	0.130093	0.392102	-0.392543
Cl214	Cl	0.630093	0.892102	0.107457
H215	H	0.144565	0.228746	-0.229699
H216	H	0.644565	0.728746	0.270301
Cl217	Cl	0.277766	0.211003	-0.211936
Cl218	Cl	0.777766	0.711003	0.288064
Cl219	Cl	0.815086	1.076976	-0.392563
Cl220	Cl	1.315086	1.576976	0.107437
H221	H	0.666915	0.228843	-0.229513
H222	H	1.166915	0.728843	0.270487
H223	H	0.978100	0.540061	-0.229519
H224	H	1.478100	1.040061	0.270481
Cl225	Cl	0.995905	0.673255	-0.211820
Cl226	Cl	1.495905	1.173255	0.288180
