data_functionalizedCrystal
_audit_creation_method	'MofGen! by Chris Wilmer'
_symmetry_space_group_name_H-M	'P1'
_symmetry_Int_Tables_number	1
_symmetry_cell_setting	triclinic
loop_
_symmetry_equiv_pos_as_xyz
  x,y,z
_cell_length_a	13.897449
_cell_length_b	12.594516
_cell_length_c	13.897441
_cell_angle_alpha	89.973623
_cell_angle_beta	89.976606
_cell_angle_gamma	90.016879
loop_
_atom_site_label
_atom_site_type_symbol
_atom_site_fract_x
_atom_site_fract_y
_atom_site_fract_z
Zn1	Zn	1.474714	-0.423685	-0.545478
Zn2	Zn	1.808047	-0.090351	-0.212145
Zn3	Zn	2.141380	0.242982	0.121189
Zn4	Zn	1.474612	-0.601695	-0.384191
Zn5	Zn	1.807946	-0.268362	-0.050858
Zn6	Zn	2.141279	0.064971	0.282475
Zn7	Zn	1.313403	-0.423734	-0.384189
Zn8	Zn	1.646736	-0.090401	-0.050856
Zn9	Zn	1.980069	0.242933	0.282478
Zn10	Zn	1.313389	-0.601624	-0.545436
Zn11	Zn	1.646722	-0.268291	-0.212103
Zn12	Zn	1.980056	0.065043	0.121230
O13	O	1.394029	-0.512685	-0.464824
O14	O	1.727363	-0.179351	-0.131490
O15	O	2.060696	0.153982	0.201843
O16	O	1.609682	-0.447307	-0.524101
O17	O	1.943015	-0.113974	-0.190768
O18	O	2.276348	0.219359	0.142565
O19	O	1.453191	-0.578139	-0.249209
O20	O	1.786524	-0.244806	0.084124
O21	O	2.119857	0.088528	0.417457
O22	O	1.334849	-0.274782	-0.405601
O23	O	1.668182	0.058552	-0.072267
O24	O	2.001516	0.391885	0.261066
O25	O	1.609607	-0.578091	-0.405605
O26	O	1.942941	-0.244758	-0.072271
O27	O	2.276274	0.088576	0.261062
O28	O	1.453364	-0.274745	-0.524099
O29	O	1.786697	0.058588	-0.190766
O30	O	2.120030	0.391921	0.142568
O31	O	1.334751	-0.447391	-0.249207
O32	O	1.668084	-0.114058	0.084126
O33	O	2.001418	0.219275	0.417459
O34	O	1.178419	-0.447322	-0.405560
O35	O	1.511753	-0.113989	-0.072227
O36	O	1.845086	0.219344	0.261106
O37	O	1.334826	-0.577970	-0.680424
O38	O	1.668159	-0.244636	-0.347090
O39	O	2.001493	0.088697	-0.013757
O40	O	1.178409	-0.578017	-0.524028
O41	O	1.511743	-0.244684	-0.190695
O42	O	1.845076	0.088649	0.142639
O43	O	1.453350	-0.447238	-0.680454
O44	O	1.786684	-0.113905	-0.347121
O45	O	2.120017	0.219428	-0.013787
O46	O	1.453178	-0.750632	-0.405564
O47	O	1.786511	-0.417298	-0.072231
O48	O	2.119844	-0.083965	0.261102
O49	O	1.334728	-0.750579	-0.524030
O50	O	1.668061	-0.417246	-0.190697
O51	O	2.001394	-0.083913	0.142636
C52	C	1.143415	-0.512668	-0.464790
C53	C	1.476748	-0.179335	-0.131457
C54	C	1.810082	0.153999	0.201877
C55	C	1.036201	-0.512687	-0.464798
C56	C	1.369535	-0.179353	-0.131465
C57	C	1.702868	0.153980	0.201868
C58	C	0.949131	-0.512690	-0.464815
C59	C	1.282465	-0.179357	-0.131481
C60	C	1.615798	0.153976	0.201852
C61	C	0.839899	-0.512698	-0.464844
C62	C	1.173232	-0.179364	-0.131511
C63	C	1.506566	0.153969	0.201823
C64	C	1.393966	-0.789226	-0.464814
C65	C	1.727300	-0.455892	-0.131481
C66	C	2.060633	-0.122559	0.201853
C67	C	1.394027	-0.907531	-0.464842
C68	C	1.727361	-0.574198	-0.131509
C69	C	2.060694	-0.240864	0.201824
C70	C	1.329596	-0.976794	-0.529231
C71	C	1.662930	-0.643461	-0.195897
C72	C	1.996263	-0.310128	0.137436
C73	C	1.306093	-1.047660	-0.441213
C74	C	1.639426	-0.714327	-0.107879
C75	C	1.972760	-0.380994	0.225454
C76	C	1.417619	-1.047464	-0.552875
C77	C	1.750952	-0.714131	-0.219542
C78	C	2.084285	-0.380797	0.113791
C79	C	1.370478	-0.976839	-0.376778
C80	C	1.703811	-0.643505	-0.043444
C81	C	2.037144	-0.310172	0.289889
C82	C	1.482044	-0.976636	-0.488500
C83	C	1.815378	-0.643303	-0.155166
C84	C	2.148711	-0.309969	0.178167
C85	C	1.458574	-1.047470	-0.400421
C86	C	1.791908	-0.714137	-0.067088
C87	C	2.125241	-0.380803	0.266246
C88	C	1.645622	-0.512702	-0.464858
C89	C	1.978956	-0.179368	-0.131525
C90	C	2.312289	0.153965	0.201809
C91	C	1.752836	-0.512709	-0.464873
C92	C	2.086170	-0.179376	-0.131539
C93	C	2.419503	0.153958	0.201794
C94	C	1.394098	-0.512590	-0.716417
C95	C	1.727431	-0.179257	-0.383083
C96	C	2.060765	0.154076	-0.049750
C97	C	1.394127	-0.512550	-0.823631
C98	C	1.727460	-0.179217	-0.490297
C99	C	2.060794	0.154116	-0.156964
C100	C	1.394119	-0.235064	-0.464854
C101	C	1.727453	0.098270	-0.131521
C102	C	2.060786	0.431603	0.201812
C103	C	1.394157	-0.116758	-0.464867
C104	C	1.727491	0.216575	-0.131534
C105	C	2.060824	0.549908	0.201799
C106	C	1.394153	-0.512478	-1.019926
C107	C	1.727487	-0.179145	-0.686593
C108	C	2.060820	0.154188	-0.353259
C109	C	1.394136	-0.512521	-0.910693
C110	C	1.727469	-0.179188	-0.577360
C111	C	2.060802	0.154145	-0.244027
C112	C	1.394017	-0.512701	-0.214209
C113	C	1.727350	-0.179368	0.119124
C114	C	2.060683	0.153965	0.452457
C115	C	1.394174	-0.512442	-0.106996
C116	C	1.727508	-0.179108	0.226337
C117	C	2.060841	0.154225	0.559671
H118	H	1.275011	-0.945760	-0.583603
H119	H	1.608345	-0.612427	-0.250269
H120	H	1.941678	-0.279094	0.083064
H121	H	1.231719	-1.078881	-0.421223
H122	H	1.565053	-0.745547	-0.087890
H123	H	1.898386	-0.412214	0.245443
C124	C	1.343471	-0.935105	-0.276187
C125	C	1.676804	-0.601771	0.057146
C126	C	2.010137	-0.268438	0.390479
N127	N	1.323125	-0.903668	-0.200425
N128	N	1.656458	-0.570335	0.132908
N129	N	1.989792	-0.237002	0.466241
C130	C	1.532256	-1.089139	-0.326791
C131	C	1.865590	-0.755806	0.006543
C132	C	2.198923	-0.422473	0.339876
N133	N	1.587749	-1.120528	-0.271329
N134	N	1.921082	-0.787195	0.062004
N135	N	2.254416	-0.453862	0.395337
C136	C	1.582489	-0.934440	-0.515570
C137	C	1.915822	-0.601107	-0.182237
C138	C	2.249156	-0.267773	0.151096
N139	N	1.658142	-0.902650	-0.535973
N140	N	1.991475	-0.569317	-0.202640
N141	N	2.324808	-0.235983	0.130693
C142	C	1.444506	-1.089375	-0.653438
C143	C	1.777839	-0.756041	-0.320105
C144	C	2.111172	-0.422708	0.013229
N145	N	1.464750	-1.120937	-0.729184
N146	N	1.798083	-0.787604	-0.395851
N147	N	2.131417	-0.454271	-0.062517
