data_functionalizedCrystal
_audit_creation_method	'MofGen! by Chris Wilmer'
_symmetry_space_group_name_H-M	'P1'
_symmetry_Int_Tables_number	1
_symmetry_cell_setting	triclinic
loop_
_symmetry_equiv_pos_as_xyz
  x,y,z
_cell_length_a	16.959455
_cell_length_b	25.639240
_cell_length_c	16.959447
_cell_angle_alpha	89.959742
_cell_angle_beta	89.985678
_cell_angle_gamma	90.029705
loop_
_atom_site_label
_atom_site_type_symbol
_atom_site_fract_x
_atom_site_fract_y
_atom_site_fract_z
Zn1	Zn	1.208314	-0.208183	-0.446854
Zn2	Zn	1.541647	0.125150	-0.113521
Zn3	Zn	1.874981	0.458484	0.219813
Zn4	Zn	1.208207	-0.295624	-0.314653
Zn5	Zn	1.541541	0.037710	0.018681
Zn6	Zn	1.874874	0.371043	0.352014
Zn7	Zn	1.076143	-0.208199	-0.314692
Zn8	Zn	1.409476	0.125134	0.018642
Zn9	Zn	1.742809	0.458467	0.351975
Zn10	Zn	1.076078	-0.295585	-0.446791
Zn11	Zn	1.409411	0.037749	-0.113458
Zn12	Zn	1.742745	0.371082	0.219875
O13	O	1.142185	-0.251898	-0.380747
O14	O	1.475519	0.081436	-0.047414
O15	O	1.808852	0.414769	0.285919
O16	O	1.318911	-0.219792	-0.429327
O17	O	1.652244	0.113542	-0.095994
O18	O	1.985577	0.446875	0.237339
O19	O	1.190671	-0.284050	-0.204047
O20	O	1.524004	0.049283	0.129287
O21	O	1.857338	0.382617	0.462620
O22	O	1.093747	-0.135032	-0.332266
O23	O	1.427080	0.198301	0.001067
O24	O	1.760414	0.531635	0.334401
O25	O	1.318832	-0.284034	-0.332199
O26	O	1.652166	0.049299	0.001134
O27	O	1.985499	0.382633	0.334467
O28	O	1.190853	-0.135020	-0.429365
O29	O	1.524186	0.198313	-0.096032
O30	O	1.857520	0.531647	0.237302
O31	O	1.093644	-0.219820	-0.204075
O32	O	1.426977	0.113514	0.129258
O33	O	1.760310	0.446847	0.462591
O34	O	0.965523	-0.219782	-0.332205
O35	O	1.298856	0.113552	0.001128
O36	O	1.632190	0.446885	0.334462
O37	O	1.093637	-0.283967	-0.557410
O38	O	1.426970	0.049366	-0.224077
O39	O	1.760304	0.382699	0.109256
O40	O	0.965476	-0.283983	-0.429258
O41	O	1.298809	0.049350	-0.095925
O42	O	1.632142	0.382683	0.237409
O43	O	1.190790	-0.219754	-0.557457
O44	O	1.524124	0.113579	-0.224123
O45	O	1.857457	0.446913	0.109210
O46	O	1.190608	-0.368784	-0.332138
O47	O	1.523942	-0.035450	0.001195
O48	O	1.857275	0.297883	0.334528
O49	O	1.093533	-0.368755	-0.429220
O50	O	1.426867	-0.035422	-0.095887
O51	O	1.760200	0.297912	0.237447
C52	C	0.936819	-0.251880	-0.380729
C53	C	1.270153	0.081453	-0.047396
C54	C	1.603486	0.414786	0.285937
C55	C	0.848963	-0.251886	-0.380740
C56	C	1.182296	0.081448	-0.047407
C57	C	1.515629	0.414781	0.285926
C58	C	0.477487	-0.218441	-0.330317
C59	C	0.810821	0.114893	0.003016
C60	C	1.144154	0.448226	0.336349
C61	C	0.477487	-0.285398	-0.431222
C62	C	0.810820	0.047935	-0.097889
C63	C	1.144153	0.381269	0.235444
C64	C	0.560033	-0.285390	-0.431218
C65	C	0.893366	0.047943	-0.097884
C66	C	1.226699	0.381276	0.235449
C67	C	0.601310	-0.251908	-0.380761
C68	C	0.934643	0.081425	-0.047428
C69	C	1.267976	0.414759	0.285906
C70	C	0.560041	-0.218433	-0.330309
C71	C	0.893374	0.114900	0.003024
C72	C	1.226708	0.448233	0.336357
C73	C	0.601308	-0.318868	-0.481663
C74	C	0.934641	0.014465	-0.148330
C75	C	1.267974	0.347798	0.185004
C76	C	0.683859	-0.318863	-0.481659
C77	C	1.017192	0.014471	-0.148326
C78	C	1.350525	0.347804	0.185007
C79	C	0.725137	-0.285377	-0.431206
C80	C	1.058470	0.047956	-0.097873
C81	C	1.391804	0.381289	0.235460
C82	C	0.683863	-0.251901	-0.380753
C83	C	1.017197	0.081433	-0.047420
C84	C	1.350530	0.414766	0.285914
C85	C	0.725140	-0.218418	-0.330297
C86	C	1.058474	0.114915	0.003037
C87	C	1.391807	0.448248	0.336370
C88	C	0.683868	-0.184939	-0.279847
C89	C	1.017201	0.148395	0.053487
C90	C	1.350535	0.481728	0.386820
C91	C	0.601319	-0.184948	-0.279856
C92	C	0.934653	0.148386	0.053477
C93	C	1.267986	0.481719	0.386811
C94	C	0.807686	-0.285368	-0.431197
C95	C	1.141019	0.047965	-0.097863
C96	C	1.474352	0.381299	0.235470
C97	C	0.807694	-0.218411	-0.330288
C98	C	1.141027	0.114922	0.003045
C99	C	1.474360	0.448256	0.336378
C100	C	1.142074	-0.387740	-0.380685
C101	C	1.475407	-0.054407	-0.047352
C102	C	1.808740	0.278926	0.285981
C103	C	1.142098	-0.445854	-0.380685
C104	C	1.475432	-0.112521	-0.047352
C105	C	1.808765	0.220812	0.285981
C106	C	1.192774	-0.806173	-0.431398
C107	C	1.526107	-0.472839	-0.098065
C108	C	1.859440	-0.139506	0.235269
C109	C	1.192797	-0.860777	-0.431414
C110	C	1.526130	-0.527444	-0.098081
C111	C	1.859464	-0.194110	0.235252
O112	O	1.235750	-0.888976	-0.474468
O113	O	1.569083	-0.555642	-0.141135
O114	O	1.902417	-0.222309	0.192198
N115	N	1.142295	-0.888137	-0.380824
N116	N	1.475628	-0.554803	-0.047490
N117	N	1.808962	-0.221470	0.285843
C118	C	1.091761	-0.860889	-0.330220
C119	C	1.425094	-0.527556	0.003114
C120	C	1.758428	-0.194223	0.336447
O121	O	1.048807	-0.889175	-0.287190
O122	O	1.382140	-0.555842	0.046143
O123	O	1.715474	-0.222508	0.379476
C124	C	1.091734	-0.806286	-0.330208
C125	C	1.425068	-0.472953	0.003125
C126	C	1.758401	-0.139619	0.336459
C127	C	1.142245	-0.778929	-0.380796
C128	C	1.475578	-0.445596	-0.047463
C129	C	1.808912	-0.112262	0.285870
C130	C	1.243280	-0.778816	-0.481983
C131	C	1.576613	-0.445482	-0.148649
C132	C	1.909946	-0.112149	0.184684
C133	C	1.243257	-0.724215	-0.481965
C134	C	1.576590	-0.390882	-0.148632
C135	C	1.909924	-0.057548	0.184701
C136	C	1.192729	-0.696972	-0.431364
C137	C	1.526062	-0.363638	-0.098030
C138	C	1.859395	-0.030305	0.235303
C139	C	1.142223	-0.724329	-0.380779
C140	C	1.475556	-0.390995	-0.047446
C141	C	1.808889	-0.057662	0.285888
C142	C	1.041197	-0.779040	-0.279609
C143	C	1.374530	-0.445707	0.053725
C144	C	1.707864	-0.112373	0.387058
C145	C	1.041174	-0.724433	-0.279602
C146	C	1.374507	-0.391100	0.053731
C147	C	1.707841	-0.057766	0.387065
C148	C	1.091685	-0.697076	-0.330190
C149	C	1.425018	-0.363742	0.003143
C150	C	1.758352	-0.030409	0.336477
C151	C	1.091672	-0.642485	-0.330160
C152	C	1.425005	-0.309151	0.003174
C153	C	1.758338	0.024182	0.336507
N154	N	1.142173	-0.615125	-0.380750
N155	N	1.475507	-0.281791	-0.047417
N156	N	1.808840	0.051542	0.285917
C157	C	1.192702	-0.642368	-0.431352
C158	C	1.526035	-0.309035	-0.098019
C159	C	1.859369	0.024298	0.235315
C160	C	1.091820	-0.975560	-0.330249
C161	C	1.425153	-0.642227	0.003085
C162	C	1.758487	-0.308893	0.336418
C163	C	1.091850	-1.030162	-0.330255
C164	C	1.425184	-0.696829	0.003078
C165	C	1.758517	-0.363496	0.336411
C166	C	1.192885	-1.030046	-0.431451
C167	C	1.526218	-0.696713	-0.098118
C168	C	1.859552	-0.363379	0.235215
C169	C	1.192858	-0.975443	-0.431440
C170	C	1.526192	-0.642109	-0.098107
C171	C	1.859525	-0.308776	0.235227
C172	C	1.142322	-0.948200	-0.380839
C173	C	1.475655	-0.614867	-0.047506
C174	C	1.808989	-0.281534	0.285828
C175	C	1.192651	-0.527703	-0.431311
C176	C	1.525985	-0.194370	-0.097978
C177	C	1.859318	0.138963	0.235355
C178	C	1.192627	-0.473098	-0.431287
C179	C	1.525960	-0.139765	-0.097954
C180	C	1.859293	0.193569	0.235379
C181	C	1.091589	-0.473219	-0.330095
C182	C	1.424923	-0.139886	0.003239
C183	C	1.758256	0.193448	0.336572
C184	C	1.091616	-0.527819	-0.330116
C185	C	1.424950	-0.194486	0.003218
C186	C	1.758283	0.138847	0.336551
C187	C	1.142150	-0.555060	-0.380730
C188	C	1.475484	-0.221727	-0.047397
C189	C	1.808817	0.111606	0.285936
O190	O	1.048738	-0.614251	-0.287130
O191	O	1.382072	-0.280918	0.046204
O192	O	1.715405	0.052415	0.379537
O193	O	1.235641	-0.614076	-0.474381
O194	O	1.568975	-0.280743	-0.141048
O195	O	1.902308	0.052591	0.192285
C196	C	1.348354	-0.251915	-0.380766
C197	C	1.681687	0.081418	-0.047433
C198	C	2.015020	0.414751	0.285901
C199	C	1.436210	-0.251923	-0.380774
C200	C	1.769544	0.081410	-0.047441
C201	C	2.102877	0.414744	0.285893
C202	C	1.142218	-0.251854	-0.586916
C203	C	1.475552	0.081479	-0.253582
C204	C	1.808885	0.414812	0.079751
C205	C	1.142232	-0.251836	-0.674772
C206	C	1.475566	0.081497	-0.341439
C207	C	1.808899	0.414831	-0.008106
C208	C	1.142319	-0.115525	-0.380827
C209	C	1.475652	0.217809	-0.047493
C210	C	1.808986	0.551142	0.285840
C211	C	1.142376	-0.057411	-0.380861
C212	C	1.475709	0.275923	-0.047527
C213	C	1.809043	0.609256	0.285806
C214	C	1.091744	-0.285214	-1.046227
C215	C	1.425077	0.048119	-0.712893
C216	C	1.758410	0.381453	-0.379560
C217	C	1.192910	-0.218348	-1.046270
C218	C	1.526244	0.114985	-0.712936
C219	C	1.859577	0.448319	-0.379603
C220	C	1.192889	-0.218359	-0.963724
C221	C	1.526222	0.114974	-0.630391
C222	C	1.859556	0.448308	-0.297057
C223	C	1.142295	-0.251799	-0.922425
C224	C	1.475629	0.081535	-0.589092
C225	C	1.808962	0.414868	-0.255759
C226	C	1.091723	-0.285227	-0.963673
C227	C	1.425056	0.048106	-0.630340
C228	C	1.758389	0.381440	-0.297006
C229	C	1.243467	-0.184935	-0.922470
C230	C	1.576800	0.148399	-0.589137
C231	C	1.910133	0.481732	-0.255803
C232	C	1.243448	-0.184945	-0.839919
C233	C	1.576782	0.148388	-0.506586
C234	C	1.910115	0.481722	-0.173252
C235	C	1.192850	-0.218382	-0.798619
C236	C	1.526183	0.114951	-0.465286
C237	C	1.859516	0.448284	-0.131953
C238	C	1.142274	-0.251812	-0.839872
C239	C	1.475608	0.081522	-0.506539
C240	C	1.808941	0.414855	-0.173205
C241	C	1.091681	-0.285251	-0.798573
C242	C	1.425014	0.048082	-0.465240
C243	C	1.758347	0.381415	-0.131907
C244	C	1.041101	-0.318679	-0.839825
C245	C	1.374434	0.014655	-0.506491
C246	C	1.707767	0.347988	-0.173158
C247	C	1.041124	-0.318665	-0.922373
C248	C	1.374458	0.014669	-0.589040
C249	C	1.707791	0.348002	-0.255706
C250	C	1.192826	-0.218396	-0.716071
C251	C	1.526160	0.114937	-0.382737
C252	C	1.859493	0.448270	-0.049404
C253	C	1.091660	-0.285265	-0.716020
C254	C	1.424993	0.048069	-0.382687
C255	C	1.758326	0.381402	-0.049353
C256	C	1.142198	-0.251903	-0.175381
C257	C	1.475532	0.081430	0.157952
C258	C	1.808865	0.414764	0.491286
C259	C	1.142337	-0.251774	-0.087525
C260	C	1.475671	0.081559	0.245808
C261	C	1.809004	0.414892	0.579142
H262	H	0.717456	-0.346123	-0.522739
H263	H	1.050789	-0.012790	-0.189406
H264	H	1.384122	0.320543	0.143927
Cl265	Cl	0.859578	-0.176313	-0.266858
Cl266	Cl	1.192912	0.157020	0.066476
Cl267	Cl	1.526245	0.490353	0.399809
Cl268	Cl	1.256412	-0.176381	-0.664216
Cl269	Cl	1.589745	0.156953	-0.330882
Cl270	Cl	1.923079	0.490286	0.002451
H271	H	0.443880	-0.191181	-0.289245
H272	H	0.777213	0.142152	0.044089
H273	H	1.110546	0.475486	0.377422
H274	H	1.234106	-0.191126	-1.079900
H275	H	1.567439	0.142208	-0.746567
H276	H	1.900772	0.475541	-0.413233
Cl277	Cl	0.425595	-0.327499	-0.494633
Cl278	Cl	0.758928	0.005835	-0.161300
Cl279	Cl	1.092261	0.339168	0.172034
Cl280	Cl	1.256183	-0.561940	-0.494940
Cl281	Cl	1.589516	-0.228607	-0.161606
Cl282	Cl	1.922850	0.104726	0.171727
Cl283	Cl	1.028048	-0.327303	-0.664109
Cl284	Cl	1.361381	0.006031	-0.330775
Cl285	Cl	1.694714	0.339364	0.002558
H286	H	1.000066	-0.801305	-0.238414
H287	H	1.333399	-0.467971	0.094919
H288	H	1.666733	-0.134638	0.428253
H289	H	0.717486	-0.157680	-0.238762
H290	H	1.050820	0.175654	0.094572
H291	H	1.384153	0.508987	0.427905
H292	H	0.567708	-0.157691	-0.238782
H293	H	0.901041	0.175642	0.094552
H294	H	1.234375	0.508976	0.427885
Cl295	Cl	0.859567	-0.327456	-0.494609
Cl296	Cl	1.192901	0.005877	-0.161276
Cl297	Cl	1.526234	0.339211	0.172058
Cl298	Cl	0.549413	-0.360974	-0.545064
Cl299	Cl	0.882747	-0.027641	-0.211731
Cl300	Cl	1.216080	0.305693	0.121602
Cl301	Cl	1.306753	-0.689832	-0.545572
Cl302	Cl	1.640087	-0.356498	-0.212239
Cl303	Cl	1.973420	-0.023165	0.121094
Cl304	Cl	1.306808	-0.813055	-0.545608
Cl305	Cl	1.640141	-0.479721	-0.212275
Cl306	Cl	1.973474	-0.146388	0.121059
H307	H	1.233988	-0.953172	-0.472633
H308	H	1.567321	-0.619839	-0.139300
H309	H	1.900655	-0.286505	0.194033
H310	H	1.233761	-0.450825	-0.472482
H311	H	1.567095	-0.117492	-0.139149
H312	H	1.900428	0.215841	0.194185
Cl313	Cl	1.028127	-0.562212	-0.266508
Cl314	Cl	1.361460	-0.228879	0.066825
Cl315	Cl	1.694793	0.104455	0.400158
Cl316	Cl	0.977638	-0.690189	-0.215985
Cl317	Cl	1.310972	-0.356855	0.117349
Cl318	Cl	1.644305	-0.023522	0.450682
H319	H	1.050560	-0.312428	-1.079817
H320	H	1.383894	0.020905	-0.746484
H321	H	1.717227	0.354239	-0.413150
Cl322	Cl	1.256406	-1.064305	-0.495067
Cl323	Cl	1.589739	-0.730972	-0.161734
Cl324	Cl	1.923073	-0.397639	0.171599
H325	H	1.284662	-0.157713	-0.956101
H326	H	1.617996	0.175620	-0.622768
H327	H	1.951329	0.508953	-0.289435
Cl328	Cl	1.028359	-1.064547	-0.266645
Cl329	Cl	1.361692	-0.731214	0.066688
Cl330	Cl	1.695026	-0.397881	0.400021
H331	H	0.999947	-0.345881	-0.955967
H332	H	1.333281	-0.012547	-0.622634
H333	H	1.666614	0.320786	-0.289300
H334	H	1.284633	-0.157726	-0.806339
H335	H	1.617966	0.175607	-0.473006
H336	H	1.951300	0.508941	-0.139673
H337	H	1.050452	-0.451029	-0.288893
H338	H	1.383785	-0.117695	0.044441
H339	H	1.717118	0.215638	0.377774
Cl340	Cl	1.028287	-0.941318	-0.266624
Cl341	Cl	1.361621	-0.607984	0.066710
Cl342	Cl	1.694954	-0.274651	0.400043
H343	H	0.999911	-0.345907	-0.806189
H344	H	1.333244	-0.012574	-0.472855
H345	H	1.666577	0.320759	-0.139522
