data_functionalizedCrystal
_audit_creation_method	'MofGen! by Chris Wilmer'
_symmetry_space_group_name_H-M	'P1'
_symmetry_Int_Tables_number	1
_symmetry_cell_setting	triclinic
loop_
_symmetry_equiv_pos_as_xyz
  x,y,z
_cell_length_a	19.288864
_cell_length_b	14.421503
_cell_length_c	19.288865
_cell_angle_alpha	90.000948
_cell_angle_beta	83.136245
_cell_angle_gamma	90.021447
loop_
_atom_site_label
_atom_site_type_symbol
_atom_site_fract_x
_atom_site_fract_y
_atom_site_fract_z
O1	O	0.921353	0.077420	0.086638
O2	O	1.171353	0.327420	0.336638
O3	O	1.421353	0.577420	0.586638
O4	O	1.671353	0.827420	0.836638
O5	O	0.719092	0.077358	0.098327
O6	O	0.969092	0.327358	0.348327
O7	O	1.219092	0.577358	0.598327
O8	O	1.469092	0.827358	0.848327
O9	O	0.826067	0.077372	-0.008648
O10	O	1.076067	0.327372	0.241352
O11	O	1.326067	0.577372	0.491352
O12	O	1.576067	0.827372	0.741352
O13	O	0.814378	0.077405	0.193613
O14	O	1.064378	0.327405	0.443613
O15	O	1.314378	0.577405	0.693613
O16	O	1.564378	0.827405	0.943613
O17	O	0.826049	-0.076851	-0.008632
O18	O	1.076049	0.173149	0.241368
O19	O	1.326049	0.423149	0.491368
O20	O	1.576049	0.673149	0.741368
O21	O	0.719074	-0.076866	0.098343
O22	O	0.969074	0.173134	0.348343
O23	O	1.219074	0.423134	0.598343
O24	O	1.469074	0.673134	0.848343
O25	O	0.921335	-0.076804	0.086654
O26	O	1.171335	0.173196	0.336654
O27	O	1.421335	0.423196	0.586654
O28	O	1.671335	0.673196	0.836654
Cu29	Cu	0.820203	-0.090917	0.092500
Cu30	Cu	1.070203	0.159083	0.342500
Cu31	Cu	1.320203	0.409083	0.592500
Cu32	Cu	1.570203	0.659083	0.842500
Cu33	Cu	0.820224	0.091470	0.092481
Cu34	Cu	1.070224	0.341470	0.342481
Cu35	Cu	1.320224	0.591470	0.592481
Cu36	Cu	1.570224	0.841470	0.842481
O37	O	0.814360	-0.076818	0.193629
O38	O	1.064360	0.173182	0.443629
O39	O	1.314360	0.423182	0.693629
O40	O	1.564360	0.673182	0.943629
C41	C	0.693207	0.000238	0.097959
C42	C	0.943207	0.250238	0.347959
C43	C	1.193207	0.500238	0.597959
C44	C	1.443207	0.750238	0.847959
C45	C	0.616103	0.000213	0.096830
C46	C	0.866103	0.250213	0.346830
C47	C	1.116103	0.500213	0.596830
C48	C	1.366103	0.750213	0.846830
N49	N	0.820193	-0.219198	0.092513
N50	N	1.070193	0.030802	0.342513
N51	N	1.320193	0.280802	0.592513
N52	N	1.570193	0.530802	0.842513
C53	C	0.571407	0.000238	0.159598
C54	C	0.821407	0.250238	0.409598
C55	C	1.071407	0.500238	0.659598
C56	C	1.321407	0.750238	0.909598
C57	C	0.498960	0.000248	0.158537
C58	C	0.748960	0.250248	0.408537
C59	C	0.998960	0.500248	0.658537
C60	C	1.248960	0.750248	0.908537
C61	C	0.471212	0.000252	0.094705
C62	C	0.721212	0.250252	0.344705
C63	C	0.971212	0.500252	0.594705
C64	C	1.221212	0.750252	0.844705
C65	C	0.515918	0.000222	0.031929
C66	C	0.765918	0.250222	0.281929
C67	C	1.015918	0.500222	0.531929
C68	C	1.265918	0.750222	0.781929
C69	C	0.588364	0.000202	0.032991
C70	C	0.838364	0.250202	0.282991
C71	C	1.088364	0.500202	0.532991
C72	C	1.338364	0.750202	0.782991
C73	C	0.362956	0.054306	0.044520
C74	C	0.612956	0.304306	0.294520
C75	C	0.862956	0.554306	0.544520
C76	C	1.112956	0.804306	0.794520
C77	C	0.290512	0.054331	0.043460
C78	C	0.540512	0.304331	0.293460
C79	C	0.790512	0.554331	0.543460
C80	C	1.040512	0.804331	0.793460
C81	C	0.247767	0.000308	0.091425
C82	C	0.497767	0.250308	0.341425
C83	C	0.747767	0.500308	0.591425
C84	C	0.997767	0.750308	0.841425
C85	C	0.277473	-0.053729	0.140462
C86	C	0.527473	0.196271	0.390462
C87	C	0.777473	0.446271	0.640462
C88	C	1.027473	0.696271	0.890462
C89	C	0.349919	-0.053749	0.141524
C90	C	0.599919	0.196251	0.391524
C91	C	0.849919	0.446251	0.641524
C92	C	1.099919	0.696251	0.891524
C93	C	0.392658	0.000272	0.093546
C94	C	0.642658	0.250272	0.343546
C95	C	0.892658	0.500272	0.593546
C96	C	1.142658	0.750272	0.843546
C97	C	0.124514	0.000342	0.153047
C98	C	0.374514	0.250342	0.403047
C99	C	0.624514	0.500342	0.653047
C100	C	0.874514	0.750342	0.903047
C101	C	0.052066	0.000346	0.151984
C102	C	0.302066	0.250346	0.401984
C103	C	0.552066	0.500346	0.651984
C104	C	0.802066	0.750346	0.901984
C105	C	0.069026	0.000329	0.025374
C106	C	0.319026	0.250329	0.275374
C107	C	0.569026	0.500329	0.525374
C108	C	0.819026	0.750329	0.775374
C109	C	0.141473	0.000316	0.026439
C110	C	0.391473	0.250316	0.276439
C111	C	0.641473	0.500316	0.526439
C112	C	0.891473	0.750316	0.776439
C113	C	0.169212	0.000326	0.090277
C114	C	0.419212	0.250326	0.340277
C115	C	0.669212	0.500326	0.590277
C116	C	0.919212	0.750326	0.840277
C117	C	0.770720	-0.468858	0.141956
C118	C	1.020720	-0.218858	0.391956
C119	C	1.270720	0.031142	0.641956
C120	C	1.520720	0.281142	0.891956
C121	C	0.833441	-0.530639	0.155241
C122	C	1.083441	-0.280639	0.405241
C123	C	1.333441	-0.030639	0.655241
C124	C	1.583441	0.219361	0.905241
C125	C	0.820210	-0.408359	0.092496
C126	C	1.070210	-0.158359	0.342496
C127	C	1.320210	0.091641	0.592496
C128	C	1.570210	0.341641	0.842496
C129	C	0.757505	-0.530673	0.079227
C130	C	1.007505	-0.280673	0.329227
C131	C	1.257505	-0.030673	0.579227
C132	C	1.507505	0.219327	0.829227
C133	C	0.820221	-0.591081	0.092481
C134	C	1.070221	-0.341081	0.342481
C135	C	1.320221	-0.091081	0.592481
C136	C	1.570221	0.158919	0.842481
C137	C	0.882963	-0.468779	0.105812
C138	C	1.132963	-0.218779	0.355812
C139	C	1.382963	0.031221	0.605812
C140	C	1.632963	0.281221	0.855812
C141	C	0.806986	-0.468808	0.029771
C142	C	1.056986	-0.218808	0.279771
C143	C	1.306986	0.031192	0.529771
C144	C	1.556986	0.281192	0.779771
C145	C	0.869753	-0.530560	0.043030
C146	C	1.119753	-0.280560	0.293030
C147	C	1.369753	-0.030560	0.543030
C148	C	1.619753	0.219440	0.793030
C149	C	0.820203	-0.303098	0.092506
C150	C	1.070203	-0.053098	0.342506
C151	C	1.320203	0.196902	0.592506
C152	C	1.570203	0.446902	0.842506
C153	C	0.820235	-0.696340	0.092471
C154	C	1.070235	-0.446340	0.342471
C155	C	1.320235	-0.196340	0.592471
C156	C	1.570235	0.053660	0.842471
C157	C	0.947220	0.000318	0.087022
C158	C	1.197220	0.250318	0.337022
C159	C	1.447220	0.500318	0.587022
C160	C	1.697220	0.750318	0.837022
C161	C	1.024324	0.000349	0.088151
C162	C	1.274324	0.250349	0.338151
C163	C	1.524324	0.500349	0.588151
C164	C	1.774324	0.750349	0.838151
C165	C	0.825682	0.000257	-0.034516
C166	C	1.075682	0.250257	0.215484
C167	C	1.325682	0.500257	0.465484
C168	C	1.575682	0.750257	0.715484
C169	C	0.824553	0.000249	-0.111620
C170	C	1.074553	0.250249	0.138380
C171	C	1.324553	0.500249	0.388380
C172	C	1.574553	0.750249	0.638380
N173	N	0.820239	0.219752	0.092463
N174	N	1.070239	0.469752	0.342463
N175	N	1.320239	0.719752	0.592463
N176	N	1.570239	0.969752	0.842463
C177	C	0.887321	0.000264	-0.156316
C178	C	1.137321	0.250264	0.093684
C179	C	1.387321	0.500264	0.343684
C180	C	1.637321	0.750264	0.593684
C181	C	0.886260	0.000278	-0.228763
C182	C	1.136260	0.250278	0.021237
C183	C	1.386260	0.500278	0.271237
C184	C	1.636260	0.750278	0.521237
C185	C	0.822428	0.000259	-0.256511
C186	C	1.072428	0.250259	-0.006511
C187	C	1.322428	0.500259	0.243489
C188	C	1.572428	0.750259	0.493489
C189	C	0.759652	0.000250	-0.211805
C190	C	1.009652	0.250250	0.038195
C191	C	1.259652	0.500250	0.288195
C192	C	1.509652	0.750250	0.538195
C193	C	0.760714	0.000244	-0.139359
C194	C	1.010714	0.250244	0.110641
C195	C	1.260714	0.500244	0.360641
C196	C	1.510714	0.750244	0.610641
C197	C	0.772242	-0.053778	-0.364793
C198	C	1.022242	0.196222	-0.114793
C199	C	1.272242	0.446222	0.135207
C200	C	1.522242	0.696222	0.385207
C201	C	0.771182	-0.053778	-0.437237
C202	C	1.021182	0.196222	-0.187237
C203	C	1.271182	0.446222	0.062763
C204	C	1.521182	0.696222	0.312763
C205	C	0.819148	0.000279	-0.479956
C206	C	1.069148	0.250279	-0.229956
C207	C	1.319148	0.500279	0.020044
C208	C	1.569148	0.750279	0.270044
C209	C	0.868186	0.054324	-0.450224
C210	C	1.118186	0.304324	-0.200224
C211	C	1.368186	0.554324	0.049776
C212	C	1.618186	0.804324	0.299776
C213	C	0.869248	0.054319	-0.377778
C214	C	1.119248	0.304319	-0.127778
C215	C	1.369248	0.554319	0.122222
C216	C	1.619248	0.804319	0.372222
C217	C	0.821269	0.000265	-0.335065
C218	C	1.071269	0.250265	-0.085065
C219	C	1.321269	0.500265	0.164935
C220	C	1.571269	0.750265	0.414935
C221	C	0.880770	0.000310	-0.603209
C222	C	1.130770	0.250310	-0.353209
C223	C	1.380770	0.500310	-0.103209
C224	C	1.630770	0.750310	0.146791
C225	C	0.879707	0.000330	-0.675657
C226	C	1.129707	0.250330	-0.425657
C227	C	1.379707	0.500330	-0.175657
C228	C	1.629707	0.750330	0.074343
C229	C	0.753097	0.000293	-0.658697
C230	C	1.003097	0.250293	-0.408697
C231	C	1.253097	0.500293	-0.158697
C232	C	1.503097	0.750293	0.091303
C233	C	0.754162	0.000282	-0.586250
C234	C	1.004162	0.250282	-0.336250
C235	C	1.254162	0.500282	-0.086250
C236	C	1.504162	0.750282	0.163750
C237	C	0.818001	0.000286	-0.558511
C238	C	1.068001	0.250286	-0.308511
C239	C	1.318001	0.500286	-0.058511
C240	C	1.568001	0.750286	0.191489
C241	C	0.814745	0.000298	0.219497
C242	C	1.064745	0.250298	0.469497
C243	C	1.314745	0.500298	0.719497
C244	C	1.564745	0.750298	0.969497
C245	C	0.815874	0.000313	0.296601
C246	C	1.065874	0.250313	0.546601
C247	C	1.315874	0.500313	0.796601
C248	C	1.565874	0.750313	1.046601
H249	H	0.462561	0.000266	0.209652
H250	H	0.712561	0.250266	0.459652
H251	H	0.962561	0.500266	0.709652
H252	H	1.212561	0.750266	0.959652
O253	O	0.792136	-0.432791	-0.040460
O254	O	1.042136	-0.182791	0.209540
O255	O	1.292136	0.067209	0.459540
O256	O	1.542136	0.317209	0.709540
H257	H	0.740026	-0.457534	-0.051349
H258	H	0.990026	-0.207534	0.198651
H259	H	1.240026	0.042466	0.448651
H260	H	1.490026	0.292466	0.698651
H261	H	0.046435	0.000390	-0.026600
H262	H	0.296435	0.250390	0.223400
H263	H	0.546435	0.500390	0.473400
H264	H	0.796435	0.750390	0.723400
O265	O	0.690805	0.000228	-0.241732
O266	O	0.940805	0.250228	0.008268
O267	O	1.190805	0.500228	0.258268
O268	O	1.440805	0.750228	0.508268
H269	H	0.647335	0.000223	-0.198477
H270	H	0.897335	0.250223	0.051523
H271	H	1.147335	0.500223	0.301523
H272	H	1.397335	0.750223	0.551523
O273	O	0.189689	0.000297	-0.041261
O274	O	0.439689	0.250297	0.208739
O275	O	0.689689	0.500297	0.458739
O276	O	0.939689	0.750297	0.708739
H277	H	0.158225	0.000307	-0.085827
H278	H	0.408225	0.250307	0.164173
H279	H	0.658225	0.500307	0.414173
H280	H	0.908225	0.750307	0.664173
O281	O	0.258473	0.112598	-0.009433
O282	O	0.508473	0.362598	0.240567
O283	O	0.758473	0.612598	0.490567
O284	O	1.008473	0.862598	0.740567
H285	H	0.300367	0.150142	-0.042620
H286	H	0.550367	0.400142	0.207380
H287	H	0.800367	0.650142	0.457380
H288	H	1.050367	0.900142	0.707380
O289	O	0.956171	0.000294	-0.126395
O290	O	1.206171	0.250294	0.123605
O291	O	1.456171	0.500294	0.373605
O292	O	1.706171	0.750294	0.623605
H293	H	0.999640	0.000321	-0.169652
H294	H	1.249640	0.250321	0.080348
H295	H	1.499640	0.500321	0.330348
H296	H	1.749640	0.750321	0.580348
O297	O	0.231379	-0.112003	0.192201
O298	O	0.481379	0.137997	0.442201
O299	O	0.731379	0.387997	0.692201
O300	O	0.981379	0.637997	0.942201
H301	H	0.246220	-0.186071	0.185246
H302	H	0.496220	0.063929	0.435246
H303	H	0.746220	0.313929	0.685246
H304	H	0.996220	0.563929	0.935246
O305	O	0.409059	0.112583	-0.007213
O306	O	0.659059	0.362583	0.242787
O307	O	0.909059	0.612583	0.492787
O308	O	1.159059	0.862583	0.742787
H309	H	0.376232	0.150173	-0.041480
H310	H	0.626232	0.400173	0.208520
H311	H	0.876232	0.650173	0.458520
H312	H	1.126232	0.900173	0.708520
H313	H	0.493322	0.000238	-0.020044
H314	H	0.743322	0.250238	0.229956
H315	H	0.993322	0.500238	0.479956
H316	H	1.243322	0.750238	0.729956
H317	H	0.147101	0.000337	0.205028
H318	H	0.397101	0.250337	0.455028
H319	H	0.647101	0.500337	0.705028
H320	H	0.897101	0.750337	0.955028
O321	O	0.636579	0.000180	-0.034711
O322	O	0.886579	0.250180	0.215289
O323	O	1.136579	0.500180	0.465289
O324	O	1.386579	0.750180	0.715289
H325	H	0.605117	0.000187	-0.079278
H326	H	0.855117	0.250187	0.170722
H327	H	1.105117	0.500187	0.420722
H328	H	1.355117	0.750187	0.670722
H329	H	0.728909	-0.441766	0.183815
H330	H	0.978909	-0.191766	0.433815
H331	H	1.228909	0.058234	0.683815
H332	H	1.478909	0.308234	0.933815
H333	H	0.374103	-0.097750	0.181449
H334	H	0.624103	0.152250	0.431449
H335	H	0.874103	0.402250	0.681449
H336	H	1.124103	0.652250	0.931449
H337	H	0.704472	-0.557862	0.068011
H338	H	0.954472	-0.307862	0.318011
H339	H	1.204472	-0.057862	0.568011
H340	H	1.454472	0.192138	0.818011
H341	H	0.844636	-0.557798	0.208279
H342	H	1.094636	-0.307798	0.458279
H343	H	1.344636	-0.057798	0.708279
H344	H	1.594636	0.192202	0.958279
O345	O	0.953228	-0.432932	0.120758
O346	O	1.203228	-0.182932	0.370758
O347	O	1.453228	0.067068	0.620758
O348	O	1.703228	0.317068	0.870758
H349	H	0.952662	-0.355972	0.120675
H350	H	1.202662	-0.105972	0.370675
H351	H	1.452662	0.144028	0.620675
H352	H	1.702662	0.394028	0.870675
O353	O	0.925251	-0.566242	-0.012383
O354	O	1.175251	-0.316242	0.237617
O355	O	1.425251	-0.066242	0.487617
O356	O	1.675251	0.183758	0.737617
H357	H	0.977222	-0.541320	-0.001205
H358	H	1.227222	-0.291320	0.248795
H359	H	1.477222	-0.041320	0.498795
H360	H	1.727222	0.208680	0.748795
H361	H	0.937375	0.000294	-0.265162
H362	H	1.187375	0.250294	-0.015162
H363	H	1.437375	0.500294	0.234838
H364	H	1.687375	0.750294	0.484838
H365	H	0.733180	-0.097802	-0.330016
H366	H	0.983180	0.152198	-0.080016
H367	H	1.233180	0.402198	0.169984
H368	H	1.483180	0.652198	0.419984
H369	H	0.909175	0.098327	-0.353573
H370	H	1.159175	0.348327	-0.103573
H371	H	1.409175	0.598327	0.146427
H372	H	1.659175	0.848327	0.396427
O373	O	0.003857	0.000371	0.219690
O374	O	0.253857	0.250371	0.469690
O375	O	0.503857	0.500371	0.719690
O376	O	0.753857	0.750371	0.969690
H377	H	-0.029575	-0.062486	0.222246
H378	H	0.220425	0.187514	0.472246
H379	H	0.470425	0.437514	0.722246
H380	H	0.720425	0.687514	0.972246
O381	O	0.601317	0.000234	0.228454
O382	O	0.851317	0.250234	0.478454
O383	O	1.101317	0.500234	0.728454
O384	O	1.351317	0.750234	0.978454
H385	H	0.633942	0.063086	0.231969
H386	H	0.883942	0.313086	0.481969
H387	H	1.133942	0.563086	0.731969
H388	H	1.383942	0.813086	0.981969
O389	O	0.693010	0.000211	-0.091148
O390	O	0.943010	0.250211	0.158852
O391	O	1.193010	0.500211	0.408852
O392	O	1.443010	0.750211	0.658852
H393	H	0.662453	0.063057	-0.100983
H394	H	0.912453	0.313057	0.149017
H395	H	1.162453	0.563057	0.399017
H396	H	1.412453	0.813057	0.649017
H397	H	0.907244	0.098343	-0.485005
H398	H	1.157244	0.348343	-0.235005
H399	H	1.407244	0.598343	0.014995
H400	H	1.657244	0.848343	0.264995
H401	H	0.932751	0.000318	-0.580622
H402	H	1.182751	0.250318	-0.330622
H403	H	1.432751	0.500318	-0.080622
H404	H	1.682751	0.750318	0.169378
O405	O	0.947409	0.000339	-0.723871
O406	O	1.197409	0.250339	-0.473871
O407	O	1.447409	0.500339	-0.223871
O408	O	1.697409	0.750339	0.026129
H409	H	0.991975	0.000329	-0.692408
H410	H	1.241975	0.250329	-0.442408
H411	H	1.491975	0.500329	-0.192408
H412	H	1.741975	0.750329	0.057592
H413	H	0.701123	0.000282	-0.681288
H414	H	0.951123	0.250282	-0.431288
H415	H	1.201123	0.500282	-0.181288
H416	H	1.451123	0.750282	0.068712
O417	O	0.686462	0.000243	-0.538034
O418	O	0.936462	0.250243	-0.288034
O419	O	1.186462	0.500243	-0.038034
O420	O	1.436462	0.750243	0.211966
H421	H	0.641896	0.000221	-0.569498
H422	H	0.891896	0.250221	-0.319498
H423	H	1.141896	0.500221	-0.069498
H424	H	1.391896	0.750221	0.180502
H425	H	0.731250	-0.097780	-0.461439
H426	H	0.981250	0.152220	-0.211439
H427	H	1.231250	0.402220	0.038561
H428	H	1.481250	0.652220	0.288561
