data_functionalizedCrystal
_audit_creation_method	'MofGen! by Chris Wilmer'
_symmetry_space_group_name_H-M	'P1'
_symmetry_Int_Tables_number	1
_symmetry_cell_setting	triclinic
loop_
_symmetry_equiv_pos_as_xyz
  x,y,z
_cell_length_a	8.559649
_cell_length_b	9.130307
_cell_length_c	8.597278
_cell_angle_alpha	82.296658
_cell_angle_beta	77.625007
_cell_angle_gamma	89.998135
loop_
_atom_site_label
_atom_site_type_symbol
_atom_site_fract_x
_atom_site_fract_y
_atom_site_fract_z
O1	O	-2.119291	0.115094	0.053144
O2	O	-1.655351	0.125304	-0.027756
O3	O	-1.896450	0.091225	0.242262
O4	O	-1.878192	0.149172	-0.216873
O5	O	-1.896442	-0.152374	0.242263
O6	O	-1.655343	-0.118296	-0.027755
O7	O	-2.119283	-0.128506	0.053146
Cu8	Cu	-1.887312	-0.145643	0.012696
Cu9	Cu	-1.887322	0.142441	0.012694
O10	O	-1.878184	-0.094427	-0.216872
C11	C	-1.595913	0.004278	-0.033886
C12	C	-1.418818	0.006581	-0.052135
N13	N	-1.887317	-0.348266	0.012699
C14	C	-2.100899	-0.378426	0.251749
C15	C	-2.207701	-0.470172	0.371271
C16	C	-2.207717	-0.623506	0.371274
C17	C	-2.100917	-0.685096	0.251745
C18	C	-1.994115	-0.593350	0.132223
C19	C	-1.994114	-0.440014	0.132231
C20	C	-1.780528	-0.563191	-0.106817
C21	C	-1.780517	-0.409856	-0.106830
C22	C	-1.673727	-0.624781	-0.226346
C23	C	-1.566931	-0.533034	-0.345878
C24	C	-1.566920	-0.379691	-0.345877
C25	C	-1.673715	-0.318110	-0.226352
C26	C	-1.178721	-0.007479	0.059276
C27	C	-1.355816	-0.009782	0.077525
C28	C	-1.894485	-0.037921	0.300498
C29	C	-1.888621	-0.059811	0.474018
N30	N	-1.887329	0.345063	0.012705
C31	C	-1.880149	0.034722	-0.275108
C32	C	-1.886013	0.056622	-0.448628
H33	H	-1.437360	-0.025546	0.202495
H34	H	-1.337265	0.022361	-0.177113
O35	O	-2.100880	-0.213044	0.251740
H36	H	-2.193076	-0.185630	0.354935
H37	H	-2.294654	-0.420013	0.468594
H38	H	-2.294678	-0.698208	0.468604
H39	H	-2.100923	-0.809951	0.251767
H40	H	-1.673738	-0.749635	-0.226333
O41	O	-1.451753	-0.599455	-0.474793
H42	H	-1.469708	-0.721490	-0.454711
O43	O	-1.885664	-0.214054	0.562123
H44	H	-1.881394	-0.207629	0.689164
H45	H	-1.888250	0.173066	0.484837
H46	H	-1.479944	-0.304998	-0.443201
H47	H	-1.673722	-0.193259	-0.226345
