data_functionalizedCrystal
_audit_creation_method	'MofGen! by Chris Wilmer'
_symmetry_space_group_name_H-M	'P1'
_symmetry_Int_Tables_number	1
_symmetry_cell_setting	triclinic
loop_
_symmetry_equiv_pos_as_xyz
  x,y,z
_cell_length_a	12.811438
_cell_length_b	15.995292
_cell_length_c	11.295483
_cell_angle_alpha	94.097347
_cell_angle_beta	91.289945
_cell_angle_gamma	83.758331
loop_
_atom_site_label
_atom_site_type_symbol
_atom_site_fract_x
_atom_site_fract_y
_atom_site_fract_z
O1	O	1.388987	0.115687	0.051004
O2	O	1.085742	0.126090	0.018250
O3	O	1.245686	-0.000922	0.035524
O4	O	1.229043	0.242700	0.033730
O5	O	1.231637	0.010216	0.232058
O6	O	1.071694	0.137229	0.214784
O7	O	1.374939	0.126826	0.247538
Cu8	Cu	1.222034	0.133044	0.249106
Cu9	Cu	1.238647	0.119872	0.016682
O10	O	1.214995	0.253838	0.230264
C11	C	1.039914	0.130734	0.112326
C12	C	0.924290	0.127967	0.099836
C13	C	0.768976	0.117996	-0.024884
C14	C	0.877616	0.120595	-0.013159
C15	C	0.862315	0.132739	0.201114
C16	C	0.753675	0.130140	0.189390
C17	C	0.707010	0.122770	0.076387
C18	C	0.598367	0.120177	0.064663
C19	C	0.583068	0.132314	0.278936
C20	C	0.691708	0.134913	0.290660
C21	C	1.237984	-0.026555	0.133715
C22	C	1.235954	-0.119528	0.133487
C23	C	1.228489	-0.457338	0.132691
C24	C	1.343900	-0.432887	0.145599
C25	C	1.346126	-0.336216	0.145389
C26	C	1.232193	-0.289747	0.133087
C27	C	1.182499	-0.325765	0.014626
C28	C	1.181116	-0.422574	0.014386
C29	C	1.162783	-0.409787	0.237627
C30	C	1.166955	-0.313169	0.239568
C31	C	1.234281	-0.195031	0.133305
C32	C	1.226398	-0.552054	0.132464
C33	C	1.420767	0.122182	0.153460
C34	C	1.536392	0.124948	0.165941
C35	C	1.222697	0.279471	0.132071
C36	C	1.224727	0.372444	0.132291
N37	N	1.210356	0.142309	0.412581
N38	N	1.250333	0.110601	-0.146792
C39	C	1.334394	0.043864	0.675267
C40	C	1.325577	0.050871	0.798978
C41	C	1.183900	0.163325	0.783717
C42	C	1.192717	0.156318	0.660006
C43	C	1.267968	0.096587	0.605785
C44	C	1.276790	0.089584	0.482072
C45	C	1.135108	0.202033	0.466813
C46	C	1.126291	0.209041	0.590524
H47	H	0.729719	0.140911	0.382664
H48	H	1.065020	0.257671	0.634684
C49	C	0.717638	0.109895	-0.149181
C50	C	0.633210	0.178991	-0.187977
C51	C	0.581874	0.170890	-0.312277
C52	C	0.614965	0.093693	-0.397781
C53	C	0.699397	0.024592	-0.358987
C54	C	0.750733	0.032693	-0.234687
H55	H	0.608710	0.236141	-0.124680
H56	H	0.519372	0.222044	-0.340995
H57	H	0.576963	0.087697	-0.489795
H58	H	0.723897	-0.032559	-0.422283
H59	H	0.813235	-0.018461	-0.205969
H60	H	1.395673	-0.004766	0.631121
C61	C	1.062034	0.260032	0.390377
C62	C	1.071735	0.252329	0.254300
C63	C	0.998668	0.310328	0.177864
C64	C	0.915900	0.376031	0.237505
C65	C	0.906195	0.383737	0.373590
C66	C	0.979262	0.325738	0.450026
H67	H	1.133009	0.203689	0.210144
H68	H	1.005853	0.304623	0.077125
H69	H	0.861811	0.418966	0.180922
H70	H	0.844922	0.432377	0.417746
H71	H	0.972077	0.331443	0.550765
C72	C	1.399437	-0.303761	0.260652
C73	C	1.440275	-0.365832	0.353535
C74	C	1.493597	-0.333383	0.468796
C75	C	1.506082	-0.238863	0.491175
C76	C	1.465243	-0.176786	0.398289
C77	C	1.411920	-0.209235	0.283028
H78	H	1.431034	-0.435806	0.336971
H79	H	1.523829	-0.379337	0.537556
H80	H	1.545555	-0.214842	0.576498
H81	H	1.474484	-0.106811	0.414853
H82	H	1.381689	-0.163281	0.214268
C83	C	0.547031	0.112066	-0.059635
C84	C	0.580124	0.034861	-0.145122
C85	C	0.528792	0.026747	-0.269423
C86	C	0.444367	0.095838	-0.308237
C87	C	0.411269	0.173049	-0.222748
C88	C	0.462601	0.181163	-0.098447
H89	H	0.642625	-0.016289	-0.116391
H90	H	0.553294	-0.030410	-0.332707
H91	H	0.406368	0.089832	-0.400251
H92	H	0.348769	0.224200	-0.251478
H93	H	0.438099	0.238320	-0.035162
C94	C	1.396260	-0.463971	0.260811
C95	C	1.496756	-0.526305	0.255024
C96	C	1.549119	-0.557395	0.370238
C97	C	1.500986	-0.526150	0.491238
C98	C	1.400485	-0.463812	0.497030
C99	C	1.348122	-0.432722	0.381816
H100	H	1.532392	-0.549438	0.165447
H101	H	1.623517	-0.603542	0.365950
H102	H	1.539749	-0.549164	0.576527
H103	H	1.364849	-0.440679	0.586606
H104	H	1.273724	-0.386575	0.386104
C105	C	1.411412	-0.477626	0.043935
C106	C	1.362200	-0.536202	-0.050629
C107	C	1.429708	-0.580940	-0.152298
C108	C	1.546428	-0.567103	-0.159402
C109	C	1.595646	-0.508525	-0.064834
C110	C	1.528138	-0.463786	0.036834
H111	H	1.275792	-0.546447	-0.045374
H112	H	1.393273	-0.624303	-0.222303
H113	H	1.596401	-0.600221	-0.234663
H114	H	1.682054	-0.498279	-0.070090
H115	H	1.564573	-0.420423	0.106839
H116	H	1.203047	-0.289493	0.327132
H117	H	1.379667	0.007939	0.855547
C118	C	1.053954	-0.269198	0.236601
C119	C	1.018778	-0.210996	0.136990
C120	C	0.905773	-0.167025	0.134014
C121	C	0.827942	-0.181256	0.230649
C122	C	0.863116	-0.239461	0.330267
C123	C	0.976121	-0.283432	0.333244
H124	H	1.076395	-0.200459	0.065448
H125	H	0.879736	-0.123937	0.060269
H126	H	0.744289	-0.148706	0.228445
H127	H	0.805500	-0.249998	0.401809
H128	H	1.002159	-0.326520	0.406988
C129	C	1.415317	-0.316920	0.043142
C130	C	1.468711	-0.389532	-0.038577
C131	C	1.537899	-0.370237	-0.140835
C132	C	1.553693	-0.278331	-0.161372
C133	C	1.500297	-0.205713	-0.079650
C134	C	1.431109	-0.225008	0.022607
H135	H	1.457021	-0.457572	-0.023376
H136	H	1.577425	-0.423994	-0.201330
H137	H	1.604910	-0.264047	-0.237069
H138	H	1.511988	-0.137673	-0.094852
H139	H	1.391583	-0.171251	0.083103
H140	H	1.122625	0.211952	0.827879
C141	C	0.945780	0.115348	-0.124558
C142	C	0.948998	0.037433	-0.213279
C143	C	1.017163	0.032184	-0.324683
C144	C	1.082110	0.104850	-0.347367
C145	C	1.078895	0.182770	-0.258643
C146	C	1.010730	0.188019	-0.147239
H147	H	0.900918	-0.016363	-0.196490
H148	H	1.019542	-0.025498	-0.390362
H149	H	1.132569	0.100964	-0.429835
H150	H	1.126975	0.236566	-0.275432
H151	H	1.008350	0.245701	-0.081560
H152	H	0.532602	0.136205	0.361398
C153	C	1.069642	-0.284124	-0.003251
C154	C	0.985346	-0.292020	0.089173
C155	C	0.872489	-0.250377	0.071301
C156	C	0.843928	-0.200838	-0.038994
C157	C	0.928226	-0.192939	-0.131425
C158	C	1.041083	-0.234582	-0.113553
H159	H	1.006487	-0.328694	0.170826
H160	H	0.810086	-0.256225	0.139725
H161	H	0.760384	-0.170011	-0.052223
H162	H	0.907085	-0.156265	-0.213079
H163	H	1.103486	-0.228735	-0.181978
H164	H	0.900331	0.138729	0.293116
H165	H	1.338065	0.040950	0.437928
C166	C	1.244709	-0.304548	-0.092363
C167	C	1.297375	-0.375962	-0.176599
C168	C	1.359592	-0.354748	-0.283584
C169	C	1.369142	-0.262120	-0.306333
C170	C	1.316475	-0.190700	-0.222094
C171	C	1.254258	-0.211914	-0.115109
H172	H	1.290307	-0.444536	-0.159761
H173	H	1.398580	-0.407618	-0.345943
H174	H	1.415199	-0.246416	-0.385529
H175	H	1.323543	-0.122126	-0.238932
H176	H	1.215270	-0.159044	-0.052751
H177	H	1.227084	-0.453759	-0.065190
C178	C	1.203421	-0.440970	0.357823
C179	C	1.296797	-0.510024	0.362222
C180	C	1.337449	-0.541210	0.482412
C181	C	1.284725	-0.503342	0.598203
C182	C	1.191343	-0.434284	0.593808
C183	C	1.150692	-0.403099	0.473619
H184	H	1.335831	-0.538060	0.276503
H185	H	1.406576	-0.592331	0.485664
H186	H	1.314818	-0.526427	0.687175
H187	H	1.152309	-0.406249	0.679528
H188	H	1.081564	-0.351978	0.470366
H189	H	1.096835	-0.438228	0.000161
H190	H	1.077754	-0.424554	0.229207
