data_functionalizedCrystal
_audit_creation_method	'MofGen! by Chris Wilmer'
_symmetry_space_group_name_H-M	'P1'
_symmetry_Int_Tables_number	1
_symmetry_cell_setting	triclinic
loop_
_symmetry_equiv_pos_as_xyz
  x,y,z
_cell_length_a	12.837943
_cell_length_b	26.210047
_cell_length_c	12.811415
_cell_angle_alpha	95.426329
_cell_angle_beta	89.411917
_cell_angle_gamma	90.008791
loop_
_atom_site_label
_atom_site_type_symbol
_atom_site_fract_x
_atom_site_fract_y
_atom_site_fract_z
O1	O	1.376643	0.055048	0.272959
O2	O	1.074779	0.054427	0.259475
O3	O	1.233304	0.047701	0.114186
O4	O	1.218119	0.061774	0.418248
O5	O	1.233273	-0.037156	0.114208
O6	O	1.074749	-0.030430	0.259497
O7	O	1.376612	-0.029809	0.272981
Cu8	Cu	1.225678	-0.037868	0.266241
Cu9	Cu	1.225714	0.062485	0.266215
O10	O	1.218088	-0.023083	0.418270
C11	C	1.036124	0.011788	0.254931
C12	C	0.920988	0.011161	0.241345
N13	N	1.225660	-0.108451	0.266260
C14	C	0.680736	0.018713	0.404673
C15	C	0.572555	0.018123	0.391912
C16	C	0.596443	0.009388	0.203065
C17	C	0.704624	0.009978	0.215825
C18	C	0.746766	0.014641	0.316632
C19	C	0.854949	0.015234	0.329392
C20	C	0.878835	0.006495	0.140545
C21	C	0.770654	0.005906	0.127785
C22	C	1.295901	-0.463945	0.201897
C23	C	1.295924	-0.677604	0.201885
O24	O	1.355606	-0.707759	0.147161
N25	N	1.225719	-0.701348	0.266193
C26	C	1.155499	-0.671674	0.330503
O27	O	1.095779	-0.696773	0.385193
C28	C	1.155472	-0.458016	0.330509
C29	C	1.225689	-0.434275	0.266205
C30	C	1.366111	-0.440203	0.137597
C31	C	1.366109	-0.386791	0.137605
C32	C	1.295896	-0.357121	0.201913
C33	C	1.225686	-0.380863	0.266213
C34	C	1.085248	-0.428343	0.394814
C35	C	1.085246	-0.374926	0.394808
C36	C	1.155462	-0.351184	0.330503
C37	C	1.155471	-0.297781	0.330529
N38	N	1.225676	-0.274037	0.266221
C39	C	1.295888	-0.303707	0.201913
C40	C	1.155520	-0.783848	0.330497
C41	C	1.155527	-0.837262	0.330497
C42	C	1.295951	-0.843188	0.201877
C43	C	1.295948	-0.789773	0.201883
C44	C	1.225725	-0.760103	0.266189
C45	C	1.295878	-0.191538	0.201935
C46	C	1.295872	-0.138121	0.201952
C47	C	1.155445	-0.132200	0.330568
C48	C	1.155454	-0.185612	0.330555
C49	C	1.225675	-0.215280	0.266231
O50	O	1.095812	-0.267594	0.385215
O51	O	1.355584	-0.278599	0.147214
C52	C	1.295904	-0.517356	0.201889
C53	C	1.225694	-0.541098	0.266189
C54	C	1.155481	-0.511428	0.330497
C55	C	1.225702	-0.594512	0.266189
C56	C	1.295914	-0.624182	0.201881
C57	C	1.366119	-0.600438	0.137573
C58	C	1.366117	-0.547027	0.137581
C59	C	1.085277	-0.535172	0.394805
C60	C	1.085286	-0.588584	0.394793
C61	C	1.155498	-0.618254	0.330485
C62	C	1.415268	0.012831	0.277526
C63	C	1.530404	0.013462	0.291112
C64	C	1.232437	0.003459	0.075009
C65	C	1.229886	-0.001942	-0.041763
N66	N	1.225740	0.133068	0.266189
C67	C	1.225109	0.080430	-0.261203
C68	C	1.222713	0.075357	-0.370920
C69	C	1.222691	-0.017159	-0.370916
C70	C	1.225087	-0.012087	-0.261199
C71	C	1.226297	0.036709	-0.206346
C72	C	1.228701	0.041782	-0.096627
C73	C	1.228671	-0.050735	-0.096625
C74	C	1.226275	-0.055807	-0.206342
C75	C	1.218955	0.021159	0.457448
C76	C	1.221505	0.026564	0.574219
H77	H	0.889259	0.019031	0.411474
H78	H	0.932609	0.003183	0.068856
H79	H	0.518796	0.021438	0.463604
H80	H	1.098288	-0.204942	0.382929
C81	C	1.373180	-0.763660	0.131140
C82	C	1.452665	-0.724666	0.180140
C83	C	1.529899	-0.698557	0.109392
C84	C	1.527648	-0.711442	-0.010356
C85	C	1.448160	-0.750438	-0.059362
C86	C	1.370926	-0.776547	0.011386
H87	H	1.454334	-0.715126	0.268790
H88	H	1.588741	-0.669689	0.145670
H89	H	1.584821	-0.692115	-0.062728
H90	H	1.446491	-0.759979	-0.148012
H91	H	1.312084	-0.805415	-0.024892
H92	H	0.736326	0.002103	0.045710
C93	C	1.229979	-0.098833	-0.036285
C94	C	1.141683	-0.107939	0.042068
C95	C	1.142997	-0.156036	0.102407
C96	C	1.232607	-0.195027	0.084392
C97	C	1.320910	-0.185921	0.006036
C98	C	1.319596	-0.137824	-0.054303
H99	H	1.075342	-0.079075	0.055407
H100	H	1.077629	-0.162776	0.160411
H101	H	1.233580	-0.230631	0.129058
H102	H	1.387251	-0.214786	-0.007303
H103	H	1.384964	-0.131084	-0.112307
H104	H	1.353055	-0.118793	0.149587
H105	H	1.221741	0.110959	-0.415581
H106	H	1.221696	-0.056887	-0.415596
H107	H	0.562111	0.005549	0.120992
C108	C	1.443337	-0.360679	0.066858
C109	C	1.441075	-0.373563	-0.052890
C110	C	1.518303	-0.347454	-0.123645
C111	C	1.597794	-0.308461	-0.074651
C112	C	1.600059	-0.295575	0.045103
C113	C	1.522831	-0.321684	0.115857
H114	H	1.382228	-0.402430	-0.089163
H115	H	1.516626	-0.356994	-0.212295
H116	H	1.654963	-0.289134	-0.127028
H117	H	1.658906	-0.266709	0.081376
H118	H	1.524508	-0.312144	0.204507
H119	H	1.353123	-0.867354	0.149516
H120	H	0.715049	0.022511	0.486754
C121	C	1.224940	-0.109479	-0.266694
C122	C	1.133342	-0.125550	-0.339200
C123	C	1.132008	-0.179221	-0.399554
C124	C	1.222273	-0.216821	-0.387403
C125	C	1.313879	-0.200751	-0.314894
C126	C	1.315212	-0.147080	-0.254540
H127	H	1.066516	-0.097715	-0.348198
H128	H	1.064195	-0.191117	-0.453230
H129	H	1.221286	-0.256552	-0.432081
H130	H	1.380704	-0.228586	-0.305896
H131	H	1.383025	-0.135184	-0.200864
H132	H	1.098362	-0.856587	0.382872
C133	C	1.008002	-0.454452	0.465543
C134	C	0.889909	-0.447743	0.451879
C135	C	0.812656	-0.473851	0.522609
C136	C	0.853496	-0.506668	0.607003
C137	C	0.971596	-0.513379	0.620670
C138	C	1.048848	-0.487270	0.549940
H139	H	0.859671	-0.423449	0.389402
H140	H	0.725231	-0.468884	0.512491
H141	H	0.796309	-0.525995	0.659361
H142	H	1.001833	-0.537673	0.683146
H143	H	1.136273	-0.492238	0.560058
C144	C	1.078210	-0.099557	0.401302
C145	C	1.078205	-0.040804	0.401297
C146	C	1.000962	-0.008161	0.472025
C147	C	0.923723	-0.034272	0.542757
C148	C	0.923725	-0.093028	0.542765
C149	C	1.000968	-0.125671	0.472037
H150	H	1.135384	-0.021473	0.348934
H151	H	1.000961	0.035334	0.472019
H152	H	0.866543	-0.010108	0.595114
H153	H	0.866546	-0.112360	0.595128
H154	H	1.000969	-0.169167	0.472043
H155	H	1.353057	-0.215688	0.149554
H156	H	1.423293	-0.624604	0.085214
H157	H	1.423287	-0.464356	0.085224
C158	C	1.443350	-0.520915	0.066838
C159	C	1.441095	-0.533799	-0.052910
C160	C	1.518332	-0.507692	-0.123659
C161	C	1.597823	-0.468701	-0.074660
C162	C	1.600081	-0.455815	0.045095
C163	C	1.522845	-0.481923	0.115843
H164	H	1.382248	-0.562664	-0.089188
H165	H	1.516659	-0.517231	-0.212309
H166	H	1.654998	-0.449375	-0.127032
H167	H	1.658929	-0.426950	0.081373
H168	H	1.524517	-0.472384	0.204494
C169	C	1.008041	-0.614697	0.465534
C170	C	0.928557	-0.653685	0.416513
C171	C	0.851308	-0.679796	0.487242
C172	C	0.853543	-0.666919	0.606992
C173	C	0.933030	-0.627928	0.656019
C174	C	1.010279	-0.601817	0.585290
H175	H	0.926899	-0.663220	0.327861
H176	H	0.792466	-0.708660	0.450948
H177	H	0.796358	-0.686248	0.659350
H178	H	0.934688	-0.618394	0.744671
H179	H	1.069121	-0.572954	0.621584
C180	C	1.230029	0.095455	-0.036285
C181	C	1.321625	0.111535	0.036218
C182	C	1.322949	0.165210	0.096557
C183	C	1.232678	0.202806	0.084393
C184	C	1.141075	0.186726	0.011886
C185	C	1.139751	0.133051	-0.048453
H186	H	1.388455	0.083704	0.045225
H187	H	1.390760	0.177113	0.150231
H188	H	1.233658	0.242539	0.129059
H189	H	1.074245	0.214557	0.002879
H190	H	1.071941	0.121149	-0.102127
H191	H	1.226104	0.120162	-0.216542
H192	H	1.098334	-0.759694	0.382866
H193	H	1.028058	-0.350771	0.447172
H194	H	1.028100	-0.511019	0.447171
