data_functionalizedCrystal
_audit_creation_method	'MofGen! by Chris Wilmer'
_symmetry_space_group_name_H-M	'P1'
_symmetry_Int_Tables_number	1
_symmetry_cell_setting	triclinic
loop_
_symmetry_equiv_pos_as_xyz
  x,y,z
_cell_length_a	15.455313
_cell_length_b	14.971486
_cell_length_c	14.971486
_cell_angle_alpha	96.385871
_cell_angle_beta	87.331922
_cell_angle_gamma	87.320467
loop_
_atom_site_label
_atom_site_type_symbol
_atom_site_fract_x
_atom_site_fract_y
_atom_site_fract_z
O1	O	0.072031	-1.190856	0.112660
O2	O	0.072055	-0.930457	0.126617
O3	O	0.072036	-1.067635	-0.010561
O4	O	0.072050	-1.053677	0.249838
O5	O	-0.072225	-1.059791	-0.002749
O6	O	-0.072206	-0.922612	0.134430
O7	O	-0.072230	-1.183011	0.120472
Cu8	Cu	-0.085390	-1.052095	0.128164
Cu9	Cu	0.085215	-1.061372	0.118925
O10	O	-0.072211	-1.045833	0.257650
C11	C	-0.000073	-0.893210	0.129899
C12	C	-0.000064	-0.793913	0.128028
N13	N	-0.205385	-1.045577	0.134662
C14	C	-0.000094	-1.063089	-0.039980
C15	C	-0.000093	-1.061218	-0.139277
C16	C	-0.250787	-1.103875	0.076405
C17	C	-0.341594	-1.098954	0.081327
C18	C	-0.386998	-1.035738	0.144511
C19	C	-0.341589	-0.977433	0.202770
C20	C	-0.250784	-0.982351	0.197843
C21	C	-0.658576	-1.014511	0.165753
C22	C	-0.749388	-1.009599	0.170678
C23	C	-0.749387	-1.131120	0.049233
C24	C	-0.658579	-1.136036	0.044315
C25	C	-0.613179	-1.077728	0.102571
N26	N	-0.479817	-1.030708	0.149545
N27	N	-0.520361	-1.082754	0.097532
N28	N	0.205210	-1.067898	0.112421
C29	C	-0.000100	-1.220258	0.117190
C30	C	-0.000104	-1.319555	0.119061
C31	C	-0.000061	-0.736688	0.208617
C32	C	-0.000074	-0.643388	0.206854
C33	C	-0.000084	-0.607315	0.124502
C34	C	-0.000089	-0.664548	0.043907
C35	C	-0.000082	-0.757846	0.045670
C36	C	-0.000101	-0.470084	0.040236
C37	C	-0.000107	-0.376780	0.038472
C38	C	-0.000093	-0.355627	0.201420
C39	C	-0.000086	-0.448925	0.203184
C40	C	-0.000090	-0.506151	0.122588
C41	C	-0.000101	-1.141807	-0.196502
C42	C	-0.000092	-1.140044	-0.289802
C43	C	-0.000082	-1.057692	-0.325875
C44	C	-0.000071	-0.977097	-0.268643
C45	C	-0.000074	-0.978861	-0.175345
C46	C	-0.000067	-0.973426	-0.463105
C47	C	-0.000066	-0.971661	-0.556409
C48	C	-0.000086	-1.134609	-0.577562
C49	C	-0.000089	-1.136373	-0.484264
C50	C	-0.000080	-1.055778	-0.427039
C51	C	-0.000079	-1.050379	0.287069
C52	C	-0.000074	-1.052250	0.386366
H53	H	-0.213825	-1.155356	0.024958
C54	C	-0.391532	-1.163066	0.017218
N55	N	-0.429145	-1.211350	-0.031081
H56	H	-0.786360	-1.178590	0.001802
H57	H	-0.621618	-0.967036	0.213189
H58	H	-0.000070	-0.478292	0.270242
C59	C	-0.000113	-1.232403	-0.156831
N60	N	-0.000118	-1.300643	-0.126954
H61	H	-0.000084	-0.804438	-0.019954
C62	C	-0.000102	-0.533032	-0.048424
N63	N	-0.000097	-0.580444	-0.115202
C64	C	-0.391536	-0.907886	0.272265
N65	N	-0.429156	-0.855501	0.324609
H66	H	-0.000067	-0.913237	-0.128752
C67	C	-0.000115	-1.228698	-0.352745
N68	N	-0.000136	-1.295476	-0.400154
C69	C	-0.799330	-0.940051	0.240185
N70	N	-0.836947	-0.887670	0.292536
H71	H	-0.213818	-0.934877	0.245281
H72	H	-0.621614	-1.187511	-0.007134
H73	H	-0.000110	-0.635169	-0.023146
C74	C	-0.000067	-0.886507	-0.308326
N75	N	-0.000070	-0.818273	-0.338213
H76	H	-0.000072	-0.904602	-0.585776
H77	H	-0.000052	-0.766051	0.275678
H78	H	-0.000070	-0.596798	0.272478
H79	H	-0.000093	-0.309028	0.267045
H80	H	-0.000116	-0.347413	-0.028587
H81	H	-0.000104	-1.203432	-0.454897
H82	H	-0.000091	-1.200233	-0.624160
H83	H	-0.000058	-0.907796	-0.416514
