data_functionalizedCrystal
_audit_creation_method	'MofGen! by Chris Wilmer'
_symmetry_space_group_name_H-M	'P1'
_symmetry_Int_Tables_number	1
_symmetry_cell_setting	triclinic
loop_
_symmetry_equiv_pos_as_xyz
  x,y,z
_cell_length_a	17.917559
_cell_length_b	14.560438
_cell_length_c	14.560438
_cell_angle_alpha	60.000905
_cell_angle_beta	90.000660
_cell_angle_gamma	57.010007
loop_
_atom_site_label
_atom_site_type_symbol
_atom_site_fract_x
_atom_site_fract_y
_atom_site_fract_z
Zr1	Zr	0.754920	0.920696	-0.078222
O2	O	0.629790	1.126318	-0.231876
O3	O	0.793279	0.724797	-0.031122
O4	O	0.793275	0.916401	-0.222722
O5	O	0.629797	0.934711	0.110866
O6	O	0.922235	0.901952	-0.215499
O7	O	0.629794	0.934714	-0.040275
O8	O	0.922241	0.559207	0.127240
O9	O	0.629791	1.277456	-0.231873
O10	O	0.905880	0.790989	-0.005640
O11	O	0.809641	0.801769	0.101764
O12	O	0.809636	1.027359	-0.123821
O13	O	0.713398	1.038139	-0.016417
Zr14	Zr	0.960601	0.897647	0.174351
Zr15	Zr	0.960596	0.897652	-0.066702
Zr16	Zr	0.754925	0.920691	0.162830
Zr17	Zr	0.754920	1.161743	-0.078218
Zr18	Zr	0.960601	0.656600	0.174346
O19	O	0.922242	1.093546	0.127250
O20	O	0.922235	1.093553	-0.215495
O21	O	0.629798	1.126312	0.110869
O22	O	1.085731	0.692025	0.328005
O23	O	1.085723	0.692031	-0.014741
O24	O	0.793286	0.724790	0.311624
O25	O	1.085724	0.883632	-0.014737
O26	O	0.922246	0.901942	0.318851
O27	O	0.793286	0.916391	0.311628
O28	O	1.085727	0.883629	0.136404
O29	O	0.793275	1.259140	-0.222716
O30	O	0.922246	0.559203	0.318845
O31	O	1.085730	0.540887	0.328002
O32	O	1.085726	0.540890	0.136397
O33	O	0.629795	1.277453	-0.040269
O34	O	0.793280	1.259136	-0.031111
O35	O	0.905885	0.790984	0.219950
O36	O	1.002123	0.780204	0.112546
O37	O	0.905880	1.016574	-0.005636
O38	O	0.809641	1.027354	0.101768
C39	C	0.857760	0.607658	0.048059
C40	C	0.857760	0.505327	0.048057
C41	C	0.907993	0.451624	-0.008007
C42	C	0.907997	0.355464	-0.007997
C43	C	0.807526	0.366724	0.104143
C44	C	0.807528	0.462874	0.104139
C45	C	0.600491	0.937996	0.033654
C46	C	0.513177	0.947779	0.028763
C47	C	0.362185	0.852711	0.076293
C48	C	0.353343	0.965626	0.019838
C49	C	0.442284	0.955693	0.024806
C50	C	0.273238	0.862642	0.071327
C51	C	1.115030	0.880347	0.062475
C52	C	1.202344	0.870564	0.067365
C53	C	0.857754	0.909177	-0.253456
C54	C	0.857752	0.909179	-0.355789
C55	C	0.857761	1.210685	0.048070
C56	C	0.857761	1.313016	0.048072
C57	C	0.807515	1.032560	-0.465554
C58	C	0.807526	1.032552	-0.561702
C59	C	0.908012	0.785773	-0.438306
C60	C	0.908006	0.785782	-0.342160
C61	C	0.857767	0.909166	0.349584
C62	C	0.857769	0.909164	0.451917
C63	C	1.115029	0.578833	0.062469
C64	C	1.202344	0.466720	0.067358
C65	C	0.857767	0.607652	0.349578
C66	C	0.857769	0.505319	0.451910
C67	C	1.115036	0.578828	0.363989
C68	C	1.202352	0.466712	0.471211
C69	C	0.600485	1.239515	-0.267860
C70	C	0.513169	1.351631	-0.375082
C71	C	0.600492	1.239510	0.033660
C72	C	0.513177	1.351623	0.028771
C73	C	0.857754	1.210691	-0.253450
C74	C	0.857752	1.313024	-0.355781
C75	C	1.193109	0.419700	0.007952
C76	C	1.275143	0.314371	0.012522
C77	C	1.366410	0.256058	0.076506
C78	C	1.375642	0.303088	0.135914
C79	C	1.293610	0.408421	0.131336
C80	C	1.293602	0.408433	0.465500
C81	C	1.375653	0.303101	0.566237
C82	C	1.366453	0.256043	0.672685
C83	C	1.275194	0.314333	0.678393
C84	C	1.193145	0.419669	0.577656
C85	C	0.421919	1.409922	-0.369371
C86	C	0.339868	1.515284	-0.470109
C87	C	0.349068	1.562347	-0.576556
C88	C	0.440327	1.504051	-0.582264
C89	C	0.522376	1.398697	-0.481528
C90	C	0.522412	1.398654	0.088167
C91	C	0.440378	1.504009	0.083570
C92	C	0.349111	1.562325	0.019583
C93	C	0.339879	1.515291	-0.039821
C94	C	0.421911	1.409944	-0.035229
C95	C	0.908007	0.451611	0.561677
C96	C	0.907998	0.355469	0.657823
C97	C	0.807511	0.366747	0.534422
C98	C	0.807515	0.462894	0.438277
H99	H	0.766621	0.506599	0.149798
H100	H	0.596673	1.351238	-0.486191
H101	H	0.766595	1.133038	-0.476658
H102	H	0.278976	1.069757	-0.032233
Cl103	Cl	0.225155	1.588544	-0.462906
Cl104	Cl	0.410328	1.350780	-0.235565
Cl105	Cl	1.490366	0.229838	0.559035
H106	H	0.282250	1.648132	-0.658573
H107	H	0.948897	0.486184	-0.053671
Cl108	Cl	0.744347	0.530426	0.300273
H109	H	1.267718	0.276003	0.765076
H110	H	0.948903	0.311739	-0.053647
H111	H	0.447806	1.542383	-0.668945
H112	H	0.596718	1.351180	0.140279
H113	H	1.433271	0.170270	0.754702
Cl114	Cl	0.410286	1.350825	-0.109899
Cl115	Cl	0.452007	1.563109	0.158260
Cl116	Cl	0.744387	0.313342	0.174649
H117	H	0.948920	0.685304	-0.252777
H118	H	0.436547	0.748589	0.128352
Cl119	Cl	0.245993	1.694759	0.013825
Cl120	Cl	0.971178	0.630655	-0.421183
Cl121	Cl	1.078435	0.492915	0.584856
H122	H	0.265558	1.562788	-0.091918
H123	H	0.948923	0.486155	0.572782
Cl124	Cl	0.744370	1.187667	-0.699693
H125	H	0.948905	0.311745	0.747197
H126	H	0.766598	0.332191	0.523337
Cl127	Cl	1.263514	0.255265	-0.062163
Cl128	Cl	1.078384	0.492992	-0.072499
H129	H	1.433198	0.170289	0.080225
H130	H	1.301142	0.446691	0.179718
Cl131	Cl	1.305193	0.467577	0.331693
Cl132	Cl	1.490385	0.229759	0.216351
