data_functionalizedCrystal
_audit_creation_method	'MofGen! by Chris Wilmer'
_symmetry_space_group_name_H-M	'P1'
_symmetry_Int_Tables_number	1
_symmetry_cell_setting	triclinic
loop_
_symmetry_equiv_pos_as_xyz
  x,y,z
_cell_length_a	13.339070
_cell_length_b	23.532407
_cell_length_c	12.376457
_cell_angle_alpha	101.199798
_cell_angle_beta	75.589755
_cell_angle_gamma	99.238986
loop_
_atom_site_label
_atom_site_type_symbol
_atom_site_fract_x
_atom_site_fract_y
_atom_site_fract_z
O1	O	1.358915	0.277209	-0.094091
O2	O	1.064762	0.239795	-0.094078
O3	O	1.220704	0.177002	-0.094064
O4	O	1.202972	0.340002	-0.094105
O5	O	1.181733	0.192673	0.093944
O6	O	1.025790	0.255466	0.093930
O7	O	1.319944	0.292880	0.093918
Zn8	Zn	1.166679	0.276661	0.123774
Zn9	Zn	1.218026	0.256014	-0.123935
O10	O	1.164001	0.355673	0.093904
C11	C	1.007650	0.241311	-0.000072
C12	C	0.895536	0.222472	-0.000066
C13	C	1.200766	0.163549	-0.000057
C14	C	1.199406	0.100114	-0.000048
C15	C	0.529282	0.368949	-0.000121
C16	C	0.634619	0.386650	-0.000130
C17	C	0.699853	0.345607	-0.000113
C18	C	0.659741	0.286860	-0.000089
C19	C	0.554396	0.269156	-0.000089
C20	C	0.724966	0.245815	-0.000082
C21	C	0.684854	0.187068	-0.000057
C22	C	0.579519	0.169367	-0.000056
C23	C	0.514285	0.210410	-0.000073
C24	C	0.830312	0.263518	-0.000082
C25	C	0.855425	0.163726	-0.000050
C26	C	0.750088	0.146025	-0.000041
C27	C	1.283186	-0.285491	-0.000114
C28	C	1.281926	-0.345096	-0.000122
O29	O	1.359588	-0.369326	-0.000168
N30	N	1.189215	-0.382667	-0.000118
C31	C	1.097761	-0.360632	-0.000116
O32	O	1.018788	-0.398062	-0.000114
C33	C	1.099024	-0.301029	-0.000115
C34	C	1.191738	-0.263460	-0.000109
C35	C	1.375893	-0.247923	-0.000109
C36	C	1.377152	-0.188322	-0.000098
C37	C	1.285704	-0.166291	-0.000093
C38	C	1.192997	-0.203859	-0.000098
C39	C	1.007572	-0.278996	-0.000122
C40	C	1.008843	-0.219388	-0.000122
C41	C	1.101558	-0.181819	-0.000115
C42	C	1.102808	-0.122227	-0.000082
N43	N	1.195519	-0.084656	-0.000087
C44	C	1.286967	-0.106688	-0.000092
C45	C	1.095117	-0.485801	-0.000119
C46	C	1.093851	-0.545402	-0.000111
C47	C	1.278017	-0.529862	-0.000120
C48	C	1.279280	-0.470259	-0.000119
C49	C	1.187828	-0.448230	-0.000124
C50	C	1.289604	0.018477	-0.000069
C51	C	1.290854	0.078082	-0.000054
C52	C	1.106690	0.062536	-0.000051
C53	C	1.105438	0.002937	-0.000060
C54	C	1.196904	-0.019091	-0.000073
O55	O	1.025189	-0.097956	-0.000042
O56	O	1.365930	-0.069253	-0.000109
C57	C	1.377056	0.291365	-0.000091
C58	C	1.489171	0.310202	-0.000104
C59	C	1.183940	0.369126	-0.000106
C60	C	1.185301	0.432561	-0.000122
N61	N	1.131644	0.290753	0.292830
N62	N	1.253069	0.241919	-0.292990
C63	C	1.334398	0.209197	0.647833
C64	C	1.358914	0.199333	0.529495
C65	C	1.302098	0.222187	0.470323
C66	C	1.220763	0.254907	0.529500
C67	C	1.196250	0.264775	0.647849
C68	C	1.163950	0.277766	0.470339
C69	C	1.082615	0.310485	0.529516
C70	C	1.058106	0.320352	0.647854
C71	C	1.114922	0.297498	0.707026
C72	C	1.188463	0.267897	0.351990
C73	C	1.050315	0.323476	0.352007
C74	C	1.025800	0.333339	0.470344
H75	H	0.862960	0.311351	-0.000097
C76	C	0.936317	0.369316	0.535442
H77	H	0.905975	0.381507	0.483260
H78	H	0.962821	0.402588	0.581608
H79	H	0.884930	0.346036	0.581606
C80	C	0.905591	-0.320313	-0.000143
H81	H	0.917919	-0.358968	-0.000140
H82	H	0.881568	-0.319188	-0.065709
H83	H	0.854367	-0.308275	0.065425
H84	H	0.428510	0.196001	-0.000065
H85	H	0.991886	0.347000	0.696036
H86	H	1.018350	-0.575985	-0.000097
C87	C	1.378614	-0.554106	-0.000147
H88	H	1.364579	-0.594985	-0.000163
H89	H	1.403080	-0.535693	0.065409
H90	H	1.430238	-0.546608	-0.065725
H91	H	0.546866	0.121531	-0.000049
H92	H	1.364085	0.000549	-0.000084
H93	H	1.020638	-0.467869	-0.000112
C94	C	0.908242	-0.195159	-0.000122
H95	H	0.852849	-0.226073	-0.000118
H96	H	0.918494	-0.177688	-0.065680
H97	H	0.891308	-0.166774	0.065454
C98	C	0.927167	0.118574	-0.000033
H99	H	0.888196	0.081050	-0.000036
H100	H	0.955192	0.128869	0.065528
H101	H	0.982375	0.117942	-0.065605
C102	C	0.457534	0.414089	-0.000152
H103	H	0.496508	0.451611	-0.000173
H104	H	0.402319	0.414724	0.065404
H105	H	0.429525	0.403786	-0.065730
H106	H	0.717415	0.098191	-0.000030
C107	C	1.392845	0.119405	-0.000053
H108	H	1.447128	0.097742	-0.000070
H109	H	1.383580	0.148438	0.065512
H110	H	1.410756	0.137519	-0.065622
H111	H	0.667273	0.434481	-0.000158
H112	H	1.452651	-0.157738	-0.000097
H113	H	1.354776	-0.439674	-0.000115
C114	C	0.815718	0.365078	-0.000110
H115	H	0.830263	0.405944	-0.000116
H116	H	0.857786	0.345190	-0.065661
H117	H	0.830583	0.356124	0.065473
C118	C	1.476493	-0.272147	-0.000105
H119	H	1.531876	-0.241228	-0.000093
H120	H	1.493436	-0.300536	-0.065663
H121	H	1.466236	-0.289610	0.065470
H122	H	1.029936	-0.027651	-0.000034
C123	C	0.987818	0.348620	0.286930
H124	H	1.014060	0.338053	0.207974
H125	H	0.994390	0.389920	0.306310
H126	H	0.916451	0.333388	0.306340
H127	H	1.032235	0.080486	-0.000042
C128	C	1.277928	0.231912	0.286903
H129	H	1.284401	0.229312	0.207948
H130	H	1.263338	0.193845	0.306310
H131	H	1.341253	0.250388	0.306286
C132	C	1.448368	0.163340	0.464408
H133	H	1.478688	0.151137	0.516595
H134	H	1.499767	0.186600	0.418224
H135	H	1.421828	0.130067	0.418262
C136	C	1.396886	0.184063	0.712922
H137	H	1.370634	0.194625	0.791877
H138	H	1.468248	0.199293	0.693509
H139	H	1.390313	0.142759	0.693548
C140	C	1.087960	0.308350	0.837199
H141	H	1.133449	0.290054	0.863959
H142	H	1.017939	0.292582	0.863992
H143	H	1.095880	0.349114	0.863955
H144	H	1.322062	0.214154	0.373967
