data_functionalizedCrystal
_audit_creation_method	'MofGen! by Chris Wilmer'
_symmetry_space_group_name_H-M	'P1'
_symmetry_Int_Tables_number	1
_symmetry_cell_setting	triclinic
loop_
_symmetry_equiv_pos_as_xyz
  x,y,z
_cell_length_a	15.021413
_cell_length_b	16.992694
_cell_length_c	16.992695
_cell_angle_alpha	89.331777
_cell_angle_beta	89.996007
_cell_angle_gamma	89.997805
loop_
_atom_site_label
_atom_site_type_symbol
_atom_site_fract_x
_atom_site_fract_y
_atom_site_fract_z
O1	O	0.073921	-1.050854	0.166906
O2	O	0.323921	-0.800854	0.416906
O3	O	0.573921	-0.550854	0.666906
O4	O	0.823921	-0.300854	0.916906
O5	O	0.073948	-0.822454	0.165075
O6	O	0.323948	-0.572454	0.415075
O7	O	0.573948	-0.322454	0.665075
O8	O	0.823948	-0.072454	0.915075
O9	O	0.073927	-0.935739	0.051791
O10	O	0.323927	-0.685739	0.301791
O11	O	0.573927	-0.435739	0.551791
O12	O	0.823927	-0.185739	0.801791
O13	O	0.073941	-0.937570	0.280191
O14	O	0.323941	-0.687570	0.530191
O15	O	0.573941	-0.437570	0.780191
O16	O	0.823941	-0.187570	1.030191
O17	O	-0.074137	-0.935721	0.051807
O18	O	0.175863	-0.685721	0.301807
O19	O	0.425863	-0.435721	0.551807
O20	O	0.675863	-0.185721	0.801807
O21	O	-0.074117	-0.822436	0.165091
O22	O	0.175883	-0.572436	0.415091
O23	O	0.425883	-0.322436	0.665091
O24	O	0.675883	-0.072436	0.915091
O25	O	-0.074143	-1.050836	0.166922
O26	O	0.175857	-0.800836	0.416922
O27	O	0.425857	-0.550836	0.666922
O28	O	0.675857	-0.300836	0.916922
Zn29	Zn	-0.097638	-0.936633	0.166009
Zn30	Zn	0.152362	-0.686633	0.416009
Zn31	Zn	0.402362	-0.436633	0.666009
Zn32	Zn	0.652362	-0.186633	0.916009
Zn33	Zn	0.097443	-0.936657	0.165988
Zn34	Zn	0.347443	-0.686657	0.415988
Zn35	Zn	0.597443	-0.436657	0.665988
Zn36	Zn	0.847443	-0.186657	0.915988
O37	O	-0.074123	-0.937552	0.280207
O38	O	0.175877	-0.687552	0.530207
O39	O	0.425877	-0.437552	0.780207
O40	O	0.675877	-0.187552	1.030207
C41	C	-0.000081	-0.793085	0.162727
C42	C	0.249919	-0.543085	0.412727
C43	C	0.499919	-0.293085	0.662727
C44	C	0.749919	-0.043085	0.912727
C45	C	-0.000071	-0.705600	0.155699
C46	C	0.249929	-0.455600	0.405699
C47	C	0.499929	-0.205600	0.655699
C48	C	0.749929	0.044400	0.905699
N49	N	-0.230776	-0.936623	0.166024
N50	N	0.019224	-0.686623	0.416024
N51	N	0.269224	-0.436623	0.666024
N52	N	0.519224	-0.186623	0.916024
C53	C	-0.000104	-0.933374	0.022439
C54	C	0.249896	-0.683374	0.272439
C55	C	0.499896	-0.433374	0.522439
C56	C	0.749896	-0.183374	0.772439
C57	C	-0.000103	-0.926345	-0.065046
C58	C	0.249897	-0.676345	0.184954
C59	C	0.499897	-0.426345	0.434954
C60	C	0.749897	-0.176345	0.684954
C61	C	-0.470450	-0.884230	0.218380
C62	C	-0.220450	-0.634230	0.468380
C63	C	0.029550	-0.384230	0.718380
C64	C	0.279550	-0.134230	0.968380
C65	C	-0.529791	-0.956318	0.238115
C66	C	-0.279791	-0.706318	0.488115
C67	C	-0.029791	-0.456318	0.738115
C68	C	0.220209	-0.206318	0.988115
C69	C	-0.412383	-0.936642	0.166005
C70	C	-0.162383	-0.686642	0.416005
C71	C	0.087617	-0.436642	0.666005
C72	C	0.337617	-0.186642	0.916005
C73	C	-0.529783	-0.864574	0.146288
C74	C	-0.279783	-0.614574	0.396288
C75	C	-0.029783	-0.364574	0.646288
C76	C	0.220217	-0.114574	0.896288
C77	C	-0.587807	-0.936654	0.165989
C78	C	-0.337807	-0.686654	0.415989
C79	C	-0.087807	-0.436654	0.665989
C80	C	0.162193	-0.186654	0.915989
C81	C	-0.470418	-1.008768	0.185779
C82	C	-0.220418	-0.758768	0.435779
C83	C	0.029582	-0.508768	0.685779
C84	C	0.279582	-0.258768	0.935779
C85	C	-0.470404	-0.916975	0.093918
C86	C	-0.220404	-0.666975	0.343918
C87	C	0.029596	-0.416975	0.593918
C88	C	0.279596	-0.166975	0.843918
C89	C	-0.529719	-0.989113	0.113627
C90	C	-0.279719	-0.739113	0.363627
C91	C	-0.029719	-0.489113	0.613627
C92	C	0.220281	-0.239113	0.863627
C93	C	-0.311325	-0.936634	0.166017
C94	C	-0.061325	-0.686634	0.416017
C95	C	0.188675	-0.436634	0.666017
C96	C	0.438675	-0.186634	0.916017
C97	C	-0.688862	-0.936670	0.165977
C98	C	-0.438862	-0.686670	0.415977
C99	C	-0.188862	-0.436670	0.665977
C100	C	0.061138	-0.186670	0.915977
N101	N	0.230580	-0.936674	0.165968
N102	N	0.480580	-0.686674	0.415968
N103	N	0.730580	-0.436674	0.665968
N104	N	0.980580	-0.186674	0.915968
C105	C	-0.000112	-1.080205	0.169270
C106	C	0.249888	-0.830205	0.419270
C107	C	0.499888	-0.580205	0.669270
C108	C	0.749888	-0.330205	0.919270
C109	C	-0.000116	-1.167690	0.176299
C110	C	0.249884	-0.917690	0.426299
C111	C	0.499884	-0.667690	0.676299
C112	C	0.749884	-0.417690	0.926299
C113	C	-0.000068	-0.659610	0.223517
C114	C	0.249932	-0.409610	0.473517
C115	C	0.499932	-0.159610	0.723517
C116	C	0.749932	0.090390	0.973517
C117	C	-0.000081	-0.577409	0.216908
C118	C	0.249919	-0.327409	0.466908
C119	C	0.499919	-0.077409	0.716908
C120	C	0.749919	0.172591	0.966908
C121	C	-0.000090	-0.541201	0.142480
C122	C	0.249910	-0.291201	0.392480
C123	C	0.499910	-0.041201	0.642480
C124	C	0.749910	0.208799	0.892480
C125	C	-0.000097	-0.587198	0.074657
C126	C	0.249903	-0.337198	0.324657
C127	C	0.499903	-0.087198	0.574657
C128	C	0.749903	0.162802	0.824657
C129	C	-0.000090	-0.669397	0.081267
C130	C	0.249910	-0.419397	0.331267
C131	C	0.499910	-0.169397	0.581267
C132	C	0.749910	0.080603	0.831267
C133	C	-0.000116	-0.295886	0.115086
C134	C	0.249884	-0.045886	0.365086
C135	C	0.499884	0.204114	0.615086
C136	C	0.749884	0.454114	0.865086
C137	C	-0.000120	-0.213681	0.108481
C138	C	0.249880	0.036319	0.358481
C139	C	0.499880	0.286319	0.608481
C140	C	0.749880	0.536319	0.858481
C141	C	-0.000105	-0.203898	0.250732
C142	C	0.249895	0.046102	0.500732
C143	C	0.499895	0.296102	0.750732
C144	C	0.749895	0.546102	1.000732
C145	C	-0.000094	-0.286099	0.257336
C146	C	0.249906	-0.036099	0.507336
C147	C	0.499906	0.213901	0.757336
C148	C	0.749906	0.463901	1.007336
C149	C	-0.000104	-0.332089	0.189512
C150	C	0.249896	-0.082089	0.439512
C151	C	0.499896	0.167911	0.689512
C152	C	0.749896	0.417911	0.939512
N153	N	-0.000101	-0.457178	0.135723
N154	N	0.249899	-0.207178	0.385723
N155	N	0.499899	0.042822	0.635723
N156	N	0.749899	0.292822	0.885723
N157	N	-0.000101	-0.416110	0.196270
N158	N	0.249899	-0.166110	0.446270
N159	N	0.499899	0.083890	0.696270
N160	N	0.749899	0.333890	0.946270
C161	C	-0.000112	-0.994163	-0.111037
C162	C	0.249888	-0.744163	0.138963
C163	C	0.499888	-0.494163	0.388963
C164	C	0.749888	-0.244163	0.638963
C165	C	-0.000103	-0.987554	-0.193238
C166	C	0.249897	-0.737554	0.056762
C167	C	0.499897	-0.487554	0.306762
C168	C	0.749897	-0.237554	0.556762
C169	C	-0.000091	-0.913127	-0.229446
C170	C	0.249909	-0.663127	0.020554
C171	C	0.499909	-0.413127	0.270554
C172	C	0.749909	-0.163127	0.520554
C173	C	-0.000080	-0.845303	-0.183449
C174	C	0.249920	-0.595303	0.066551
C175	C	0.499920	-0.345303	0.316551
C176	C	0.749920	-0.095303	0.566551
C177	C	-0.000083	-0.851913	-0.101250
C178	C	0.249917	-0.601913	0.148750
C179	C	0.499917	-0.351913	0.398750
C180	C	0.749917	-0.101913	0.648750
C181	C	-0.000076	-0.885732	-0.474760
C182	C	0.249924	-0.635732	-0.224760
C183	C	0.499924	-0.385732	0.025240
C184	C	0.749924	-0.135732	0.275240
C185	C	-0.000076	-0.879127	-0.556966
C186	C	0.249924	-0.629127	-0.306966
C187	C	0.499924	-0.379127	-0.056966
C188	C	0.749924	-0.129127	0.193034
C189	C	-0.000097	-1.021379	-0.566749
C190	C	0.249903	-0.771379	-0.316749
C191	C	0.499903	-0.521379	-0.066749
C192	C	0.749903	-0.271379	0.183251
C193	C	-0.000105	-1.027982	-0.484547
C194	C	0.249895	-0.777982	-0.234547
C195	C	0.499895	-0.527982	0.015453
C196	C	0.749895	-0.277982	0.265453
C197	C	-0.000089	-0.960159	-0.438558
C198	C	0.249911	-0.710159	-0.188558
C199	C	0.499911	-0.460159	0.061442
C200	C	0.749911	-0.210159	0.311442
N201	N	-0.000085	-0.906369	-0.313468
N202	N	0.249915	-0.656369	-0.063468
N203	N	0.499915	-0.406369	0.186532
N204	N	0.749915	-0.156369	0.436532
N205	N	-0.000089	-0.966917	-0.354537
N206	N	0.249911	-0.716917	-0.104537
N207	N	0.499911	-0.466917	0.145463
N208	N	0.749911	-0.216917	0.395463
C209	C	-0.000089	-0.939917	0.309559
C210	C	0.249911	-0.689917	0.559559
C211	C	0.499911	-0.439917	0.809559
C212	C	0.749911	-0.189917	1.059559
C213	C	-0.000084	-0.946945	0.397044
C214	C	0.249916	-0.696945	0.647044
C215	C	0.499916	-0.446945	0.897044
C216	C	0.749916	-0.196945	1.147044
H217	H	-0.444426	-0.839957	0.262712
H218	H	-0.194426	-0.589957	0.512712
H219	H	0.055574	-0.339957	0.762712
H220	H	0.305574	-0.089957	1.012712
H221	H	-0.555877	-0.972963	0.299071
H222	H	-0.305877	-0.722963	0.549071
H223	H	-0.055877	-0.472963	0.799071
H224	H	0.194123	-0.222963	1.049071
H225	H	-0.444451	-1.069737	0.202520
H226	H	-0.194451	-0.819737	0.452520
H227	H	0.055549	-0.569737	0.702520
H228	H	0.305549	-0.319737	0.952520
Br229	Br	-0.000103	-0.731814	-0.010776
Br230	Br	0.249897	-0.481814	0.239224
Br231	Br	0.499897	-0.231814	0.489224
Br232	Br	0.749897	0.018186	0.739224
H233	H	-0.000077	-0.539966	0.272133
H234	H	0.249923	-0.289966	0.522133
H235	H	0.499923	-0.039966	0.772133
H236	H	0.749923	0.210034	1.022133
Br237	Br	-0.000092	-0.141480	0.342773
Br238	Br	0.249908	0.108520	0.592773
Br239	Br	0.499908	0.358520	0.842773
Br240	Br	0.749908	0.608520	1.092773
Br241	Br	-0.000140	-1.095177	-0.061905
Br242	Br	0.249860	-0.845177	0.188095
Br243	Br	0.499860	-0.595177	0.438095
Br244	Br	0.749860	-0.345177	0.688095
H245	H	-0.555862	-0.803623	0.129620
H246	H	-0.305862	-0.553623	0.379620
H247	H	-0.055862	-0.303623	0.629620
H248	H	0.194138	-0.053623	0.879620
Br249	Br	-0.000069	-0.778112	-0.606105
Br250	Br	0.249931	-0.528112	-0.356105
Br251	Br	0.499931	-0.278112	-0.106105
Br252	Br	0.749931	-0.028112	0.143895
Br253	Br	-0.000152	-0.164541	0.007465
Br254	Br	0.249848	0.085459	0.257465
Br255	Br	0.499848	0.335459	0.507465
Br256	Br	0.749848	0.585459	0.757465
H257	H	-0.000065	-0.784703	-0.212936
H258	H	0.249935	-0.534703	0.037064
H259	H	0.499935	-0.284703	0.287064
H260	H	0.749935	-0.034703	0.537064
H261	H	-0.000075	-0.796688	-0.063804
H262	H	0.249925	-0.546688	0.186196
H263	H	0.499925	-0.296688	0.436196
H264	H	0.749925	-0.046688	0.686196
Br265	Br	-0.000070	-0.335233	0.358348
Br266	Br	0.249930	-0.085233	0.608348
Br267	Br	0.499930	0.164767	0.858348
Br268	Br	0.749930	0.414767	1.108348
H269	H	-0.555579	-1.033492	0.069329
H270	H	-0.305579	-0.783492	0.319329
H271	H	-0.055579	-0.533492	0.569329
H272	H	0.194421	-0.283492	0.819329
H273	H	-0.000117	-0.557710	0.014056
H274	H	0.249883	-0.307710	0.264056
H275	H	0.499883	-0.057710	0.514056
H276	H	0.749883	0.192290	0.764056
H277	H	-0.000112	-1.042779	-0.230680
H278	H	0.249888	-0.792779	0.019320
H279	H	0.499888	-0.542779	0.269320
H280	H	0.749888	-0.292779	0.519320
H281	H	-0.444298	-0.900309	0.032980
H282	H	-0.194298	-0.650309	0.282980
H283	H	0.055702	-0.400309	0.532980
H284	H	0.305702	-0.150309	0.782980
H285	H	-0.000115	-1.088589	-0.455073
H286	H	0.249885	-0.838589	-0.205073
H287	H	0.499885	-0.588589	0.044927
H288	H	0.749885	-0.338589	0.294927
Br289	Br	-0.000048	-0.793685	-0.412356
Br290	Br	0.249952	-0.543685	-0.162356
Br291	Br	0.499952	-0.293685	0.087644
Br292	Br	0.749952	-0.043685	0.337644
Br293	Br	-0.000046	-0.708741	0.324531
Br294	Br	0.249954	-0.458741	0.574531
Br295	Br	0.499954	-0.208741	0.824531
Br296	Br	0.749954	0.041259	1.074531
H297	H	-0.000108	-1.076596	-0.604202
H298	H	0.249892	-0.826596	-0.354202
H299	H	0.499892	-0.576596	-0.104202
H300	H	0.749892	-0.326596	0.145798
H301	H	-0.000125	-0.333322	0.059859
H302	H	0.249875	-0.083322	0.309859
H303	H	0.499875	0.166678	0.559859
H304	H	0.749875	0.416678	0.809859
