data_functionalizedCrystal
_audit_creation_method	'MofGen! by Chris Wilmer'
_symmetry_space_group_name_H-M	'P1'
_symmetry_Int_Tables_number	1
_symmetry_cell_setting	triclinic
loop_
_symmetry_equiv_pos_as_xyz
  x,y,z
_cell_length_a	16.120490
_cell_length_b	13.897447
_cell_length_c	13.897441
_cell_angle_alpha	89.970673
_cell_angle_beta	87.082329
_cell_angle_gamma	87.112011
loop_
_atom_site_label
_atom_site_type_symbol
_atom_site_fract_x
_atom_site_fract_y
_atom_site_fract_z
Zn1	Zn	1.274600	-0.458940	-0.620074
Zn2	Zn	1.774600	0.041060	-0.120074
Zn3	Zn	1.274503	-0.620256	-0.458773
Zn4	Zn	1.774503	-0.120256	0.041227
Zn5	Zn	1.135176	-0.450783	-0.450623
Zn6	Zn	1.635176	0.049217	0.049377
Zn7	Zn	1.135156	-0.611994	-0.611861
Zn8	Zn	1.635156	-0.111994	-0.111861
O9	O	1.204859	-0.535493	-0.535333
O10	O	1.704859	-0.035493	-0.035333
O11	O	1.391254	-0.487210	-0.605525
O12	O	1.891254	0.012790	-0.105525
O13	O	1.255990	-0.597819	-0.322709
O14	O	1.755990	-0.097819	0.177291
O15	O	1.153719	-0.316886	-0.473127
O16	O	1.653719	0.183114	0.026873
O17	O	1.391183	-0.605728	-0.487018
O18	O	1.891183	-0.105728	0.012982
O19	O	1.256153	-0.322879	-0.597622
O20	O	1.756153	0.177121	-0.097622
O21	O	1.153626	-0.473308	-0.316721
O22	O	1.653626	0.026692	0.183279
O23	O	1.018506	-0.465297	-0.465163
O24	O	1.518506	0.034703	0.034837
O25	O	1.153685	-0.591647	-0.747934
O26	O	1.653685	-0.091647	-0.247934
O27	O	1.018491	-0.583738	-0.583624
O28	O	1.518491	-0.083738	-0.083624
O29	O	1.256134	-0.479199	-0.753968
O30	O	1.756134	0.020801	-0.253968
O31	O	1.255970	-0.754139	-0.479055
O32	O	1.755970	-0.254139	0.020945
O33	O	1.153592	-0.748069	-0.591527
O34	O	1.653592	-0.248069	-0.091527
C35	C	0.988248	-0.522737	-0.522619
C36	C	1.488248	-0.022737	-0.022619
C37	C	0.895582	-0.517302	-0.517202
C38	C	1.395582	-0.017302	-0.017202
C39	C	1.204791	-0.786104	-0.535307
C40	C	1.704791	-0.286104	-0.035307
C41	C	1.204838	-0.893320	-0.535332
C42	C	1.704838	-0.393320	-0.035332
C43	C	1.204878	-0.980393	-0.535356
C44	C	1.704878	-0.480393	-0.035356
C45	C	1.204937	-1.089628	-0.535385
C46	C	1.704937	-0.589628	-0.035385
C47	C	0.684645	-0.563674	-0.563430
C48	C	1.184645	-0.063674	-0.063430
C49	C	0.725924	-0.507390	-0.507312
C50	C	1.225924	-0.007390	-0.007312
C51	C	0.820330	-0.512907	-0.512817
C52	C	1.320330	-0.012907	-0.012817
C53	C	0.590230	-0.558158	-0.557926
C54	C	1.090230	-0.058158	-0.057926
C55	C	1.422315	-0.548301	-0.548097
C56	C	1.922315	-0.048301	-0.048097
C57	C	1.514981	-0.553758	-0.553537
C58	C	2.014981	-0.053758	-0.053537
C59	C	1.204918	-0.535412	-0.786929
C60	C	1.704918	-0.035412	-0.286929
C61	C	1.204943	-0.535377	-0.894145
C62	C	1.704943	-0.035377	-0.394145
C63	C	1.204949	-0.283906	-0.535382
C64	C	1.704949	0.216094	-0.035382
C65	C	1.204988	-0.176694	-0.535403
C66	C	1.704988	0.323306	-0.035403
C67	C	1.204966	-0.535313	-1.090441
C68	C	1.704966	-0.035313	-0.590441
C69	C	1.204950	-0.535351	-0.981208
C70	C	1.704950	-0.035351	-0.481208
C71	C	1.204848	-0.535508	-0.284718
C72	C	1.704848	-0.035508	0.215282
C73	C	1.204984	-0.535281	-0.177512
C74	C	1.704984	-0.035281	0.322488
H75	H	0.690362	-0.455061	-0.455135
H76	H	1.190362	0.044939	0.044865
H77	H	0.720204	-0.616000	-0.615602
H78	H	1.220204	-0.116000	-0.115602
