data_functionalizedCrystal
_audit_creation_method	'MofGen! by Chris Wilmer'
_symmetry_space_group_name_H-M	'P1'
_symmetry_Int_Tables_number	1
_symmetry_cell_setting	triclinic
loop_
_symmetry_equiv_pos_as_xyz
  x,y,z
_cell_length_a	16.992694
_cell_length_b	14.044220
_cell_length_c	15.455313
_cell_angle_alpha	92.908275
_cell_angle_beta	87.142206
_cell_angle_gamma	91.928550
loop_
_atom_site_label
_atom_site_type_symbol
_atom_site_fract_x
_atom_site_fract_y
_atom_site_fract_z
O1	O	1.057683	0.198159	-0.072025
O2	O	0.829244	0.195941	-0.072050
O3	O	0.940034	0.058806	-0.072029
O4	O	0.946893	0.335294	-0.072046
O5	O	0.933696	0.066614	0.072232
O6	O	0.822906	0.203749	0.072211
O7	O	1.051345	0.205967	0.072236
Cu8	Cu	0.936547	0.205571	0.085396
Cu9	Cu	0.944042	0.196337	-0.085210
O10	O	0.940555	0.343102	0.072215
C11	C	0.796663	0.196993	0.000077
C12	C	0.709024	0.188484	0.000068
C13	C	0.933863	0.027168	0.000101
C14	C	0.924909	-0.078736	0.000101
C15	C	0.664526	0.270581	0.000063
C16	C	0.582179	0.262581	0.000076
C17	C	0.544332	0.172483	0.000086
C18	C	0.588836	0.090381	0.000093
C19	C	0.671181	0.098382	0.000087
C20	C	0.298414	0.139322	0.000112
C21	C	0.216063	0.131327	0.000115
C22	C	0.209411	0.303528	0.000100
C23	C	0.291759	0.311521	0.000088
C24	C	0.336255	0.229419	0.000099
N25	N	0.460161	0.164304	0.000096
N26	N	0.420425	0.237599	0.000096
C27	C	0.908540	-0.272638	0.000087
C28	C	0.972046	-0.325460	0.000092
C29	C	0.962938	-0.433354	0.000084
C30	C	0.917647	-0.164734	0.000095
C31	C	1.083926	0.204915	0.000107
C32	C	1.171565	0.213424	0.000111
C33	C	0.946726	0.374740	0.000083
C34	C	0.955680	0.480644	0.000077
N35	N	0.931281	0.212065	0.205390
N36	N	0.949314	0.189836	-0.205204
C37	C	0.978368	0.153829	0.250793
C38	C	0.974393	0.158750	0.341600
C39	C	0.923335	0.221911	0.387003
C40	C	0.876243	0.280149	0.341594
C41	C	0.880214	0.275223	0.250788
C42	C	0.906193	0.243148	0.658581
C43	C	0.902227	0.248072	0.749393
C44	C	1.000377	0.126671	0.749394
C45	C	1.004347	0.121754	0.658586
C46	C	0.957251	0.179989	0.613185
N47	N	0.919273	0.226945	0.479822
N48	N	0.961310	0.174950	0.520367
H49	H	0.545952	0.329433	0.000072
H50	H	0.322568	0.384887	0.000070
H51	H	1.033258	-0.289655	0.000040
O52	O	0.826687	0.341630	0.385597
C53	C	0.790884	0.505305	0.413393
C54	C	0.847049	0.435780	0.363494
H55	H	0.807337	0.581442	0.395555
H56	H	0.727651	0.487164	0.395531
H57	H	0.796117	0.498778	0.486090
H58	H	0.841885	0.442270	0.290786
H59	H	0.910259	0.453941	0.381429
H60	H	0.173174	0.370371	0.000092
O61	O	0.552198	0.002788	0.000139
C62	C	0.567496	-0.167169	0.000091
C63	C	0.609086	-0.068027	0.000065
H64	H	0.613472	-0.224451	0.000013
H65	H	0.526488	-0.172018	0.060479
H66	H	0.531734	-0.178435	-0.060267
H67	H	0.644890	-0.056696	0.060383
H68	H	0.650047	-0.063225	-0.060362
H69	H	0.860647	0.299509	0.786355
O70	O	0.835576	-0.315498	0.000121
C71	C	0.759867	-0.463693	0.000065
C72	C	0.842541	-0.415261	0.000042
H73	H	0.765471	-0.544360	-0.000018
H74	H	0.723804	-0.438087	0.060453
H75	H	0.729118	-0.444481	-0.060293
H76	H	0.873357	-0.434452	0.060359
H77	H	0.878546	-0.440870	-0.060386
O78	O	1.027984	0.092391	0.206828
C79	C	1.124946	-0.027465	0.216423
C80	C	1.068778	0.042059	0.266318
H81	H	1.157954	-0.068163	0.264499
H82	H	1.089479	-0.080040	0.173947
H83	H	1.169028	0.014395	0.173874
H84	H	1.024684	0.000279	0.308914
H85	H	1.104295	0.094634	0.308740
O86	O	0.179421	0.043730	0.000163
C87	C	0.194706	-0.126229	0.000123
C88	C	0.236303	-0.027091	0.000095
H89	H	0.240677	-0.183516	0.000049
H90	H	0.153695	-0.131071	0.060509
H91	H	0.158945	-0.137493	-0.060237
H92	H	0.272106	-0.015762	0.060414
H93	H	0.277267	-0.022297	-0.060331
O94	O	0.860421	0.299817	0.614620
C95	C	0.762620	0.420713	0.624211
C96	C	0.814427	0.356602	0.674109
H97	H	0.725409	0.466625	0.672285
H98	H	0.801800	0.468679	0.581707
H99	H	0.722256	0.374238	0.581689
H100	H	0.854799	0.403002	0.716677
H101	H	0.775201	0.308630	0.716558
H102	H	1.012735	0.111329	0.378567
H103	H	0.695334	0.343947	0.000054
O104	O	1.053959	0.060313	0.614620
C105	C	1.150924	-0.059542	0.624206
C106	C	1.094756	0.009979	0.674106
H107	H	1.183935	-0.100241	0.672279
H108	H	1.115457	-0.112116	0.581730
H109	H	1.195004	-0.017679	0.581657
H110	H	1.050664	-0.031804	0.716702
H111	H	1.130274	0.062553	0.716528
H112	H	0.334634	0.072468	0.000121
H113	H	1.038719	0.079258	0.786368
O114	O	0.714500	0.018696	-0.000028
C115	C	0.814574	-0.076283	-0.074788
C116	C	0.765583	0.014007	-0.074761
H117	H	0.855875	-0.080115	-0.135212
H118	H	0.850704	-0.073583	-0.014458
H119	H	0.773365	-0.142037	-0.074739
H120	H	0.806735	0.079808	-0.074840
H121	H	0.729445	0.011222	-0.135086
H122	H	0.841869	0.322643	0.213822
