data_functionalizedCrystal
_audit_creation_method	'MofGen! by Chris Wilmer'
_symmetry_space_group_name_H-M	'P1'
_symmetry_Int_Tables_number	1
_symmetry_cell_setting	triclinic
loop_
_symmetry_equiv_pos_as_xyz
  x,y,z
_cell_length_a	16.625548
_cell_length_b	21.295416
_cell_length_c	16.625539
_cell_angle_alpha	89.969100
_cell_angle_beta	90.020568
_cell_angle_gamma	89.968601
loop_
_atom_site_label
_atom_site_type_symbol
_atom_site_fract_x
_atom_site_fract_y
_atom_site_fract_z
Zn1	Zn	1.232636	0.250590	0.455895
Zn2	Zn	1.732636	0.750590	0.955895
Zn3	Zn	1.232521	0.355864	0.321056
Zn4	Zn	1.732521	0.855864	0.821056
Zn5	Zn	1.097798	0.250614	0.321075
Zn6	Zn	1.597798	0.750614	0.821075
Zn7	Zn	1.097750	0.355827	0.455846
Zn8	Zn	1.597750	0.855827	0.955846
O9	O	1.165176	0.303224	0.388468
O10	O	1.665176	0.803224	0.888468
O11	O	1.345453	0.264560	0.438021
O12	O	1.845453	0.764560	0.938021
O13	O	1.214622	0.341927	0.208226
O14	O	1.714622	0.841927	0.708226
O15	O	1.115753	0.162522	0.338988
O16	O	1.615753	0.662522	0.838988
O17	O	1.345369	0.341904	0.338955
O18	O	1.845369	0.841904	0.838955
O19	O	1.214818	0.162504	0.438039
O20	O	1.714818	0.662504	0.938039
O21	O	1.115641	0.264601	0.208240
O22	O	1.615641	0.764601	0.708240
O23	O	0.984959	0.264566	0.338941
O24	O	1.484959	0.764566	0.838941
O25	O	1.115671	0.341842	0.568685
O26	O	1.615671	0.841842	1.068685
O27	O	0.984924	0.341866	0.437956
O28	O	1.484924	0.841866	0.937956
O29	O	1.214772	0.264525	0.568721
O30	O	1.714772	0.764525	1.068721
O31	O	1.214575	0.443948	0.338907
O32	O	1.714575	0.943948	0.838907
O33	O	1.115559	0.443922	0.437937
O34	O	1.615559	0.943922	0.937937
C35	C	0.955686	0.303215	0.388445
C36	C	1.455686	0.803215	0.888445
C37	C	0.866065	0.303226	0.388455
C38	C	1.366065	0.803226	0.888455
C39	C	1.165071	0.466775	0.388432
C40	C	1.665071	0.966775	0.888432
C41	C	1.165100	0.536744	0.388444
C42	C	1.665100	1.036744	0.888444
C43	C	0.537889	0.303230	0.388489
C44	C	1.037889	0.803230	0.888489
C45	C	0.629197	0.303227	0.388477
C46	C	1.129197	0.803227	0.888477
C47	C	0.701974	0.303229	0.388471
C48	C	1.201974	0.803229	0.888471
C49	C	0.793288	0.303225	0.388461
C50	C	1.293288	0.803225	0.888461
C51	C	1.216704	0.569603	0.336934
C52	C	1.716704	1.069603	0.836934
C53	C	1.216742	0.635346	0.336956
C54	C	1.716742	1.135346	0.836956
C55	C	1.165162	0.668226	0.388479
C56	C	1.665162	1.168226	0.888479
C57	C	1.113555	0.635359	0.439999
C58	C	1.613555	1.135359	0.939999
C59	C	1.113524	0.569617	0.439982
C60	C	1.613524	1.069617	0.939982
N61	N	1.094627	0.771493	0.394624
N62	N	1.594627	1.271493	0.894624
N63	N	1.094659	0.833944	0.394636
N64	N	1.594659	1.333944	0.894636
C65	C	1.165253	0.866301	0.388536
C66	C	1.665253	1.366301	0.888536
N67	N	1.235816	0.833847	0.382408
N68	N	1.735816	1.333847	0.882408
N69	N	1.235783	0.771389	0.382392
N70	N	1.735783	1.271389	0.882392
C71	C	1.165190	0.739511	0.388504
C72	C	1.665190	1.239511	0.888504
C73	C	1.216902	0.970446	0.337047
C74	C	1.716902	1.470446	0.837047
C75	C	1.216941	1.036189	0.337075
C76	C	1.716941	1.536189	0.837075
C77	C	1.113748	1.036201	0.440114
C78	C	1.613748	1.536201	0.940114
C79	C	1.113715	0.970459	0.440091
C80	C	1.613715	1.470459	0.940091
C81	C	1.165291	0.937585	0.388553
C82	C	1.665291	1.437585	0.888553
C83	C	1.375485	0.303233	0.388491
C84	C	1.875485	0.803233	0.888491
C85	C	1.465106	0.303237	0.388501
C86	C	1.965106	0.803237	0.888501
C87	C	1.165229	0.303177	0.598777
C88	C	1.665229	0.803177	1.098777
C89	C	1.165251	0.303157	0.688398
C90	C	1.665251	0.803157	1.188398
C91	C	1.165305	1.139033	0.388535
C92	C	1.665305	1.639033	0.888535
C93	C	1.165362	1.069065	0.388599
C94	C	1.665362	1.569065	0.888599
C95	C	1.165171	0.303225	0.178977
C96	C	1.665171	0.803225	0.678977
C97	C	1.165305	0.303068	0.089356
C98	C	1.665305	0.803068	0.589356
C99	C	1.165288	0.303086	1.016574
C100	C	1.665288	0.803086	1.516574
C101	C	1.165276	0.303108	0.925265
C102	C	1.665276	0.803108	1.425265
C103	C	1.165270	0.303122	0.852489
C104	C	1.665270	0.803122	1.352489
C105	C	1.165257	0.303143	0.761175
C106	C	1.665257	0.803143	1.261175
H107	H	1.258702	0.542839	0.294971
H108	H	1.758702	1.042839	0.794971
H109	H	1.258968	1.062943	0.295131
H110	H	1.758968	1.562943	0.795131
O111	O	1.266894	0.667177	0.286837
O112	O	1.766894	1.167177	0.786837
C113	C	1.312425	0.624065	0.241362
C114	C	1.812425	1.124065	0.741362
H115	H	1.279383	0.577225	0.238531
H116	H	1.779383	1.077225	0.738531
H117	H	1.321060	0.643091	0.177846
H118	H	1.821060	1.143091	0.677846
H119	H	1.373647	0.617015	0.270936
H120	H	1.873647	1.117015	0.770936
O121	O	1.063338	0.667226	0.490009
O122	O	1.563338	1.167226	0.990009
C123	C	0.982977	0.651240	0.472300
C124	C	1.482977	1.151240	0.972300
H125	H	0.981300	0.603526	0.441290
H126	H	1.481300	1.103526	0.941290
H127	H	0.946791	0.648983	0.530459
H128	H	1.446791	1.148983	1.030459
H129	H	0.955857	0.688283	0.430831
H130	H	1.455857	1.188283	0.930831
O131	O	1.063671	1.068230	0.490091
O132	O	1.563671	1.568230	0.990091
C133	C	1.074781	1.133303	0.479081
C134	C	1.574781	1.633303	0.979081
H135	H	1.101224	1.142301	0.416882
H136	H	1.601224	1.642301	0.916882
H137	H	1.014395	1.158329	0.484507
H138	H	1.514395	1.658329	0.984507
H139	H	1.117705	1.151896	0.526951
H140	H	1.617705	1.651896	1.026951
H141	H	1.258901	0.943679	0.295085
H142	H	1.758901	1.443679	0.795085
O143	O	1.063431	0.537763	0.490130
O144	O	1.563431	1.037763	0.990130
C145	C	1.081029	0.553752	0.570514
C146	C	1.581029	1.053752	1.070514
H147	H	1.112048	0.601461	0.572231
H148	H	1.612048	1.101461	1.072231
H149	H	1.022819	0.556020	0.606617
H150	H	1.522819	1.056020	1.106617
H151	H	1.122451	0.516704	0.597696
H152	H	1.622451	1.016704	1.097696
O153	O	1.063503	0.938633	0.490146
O154	O	1.563503	1.438633	0.990146
C155	C	1.017998	0.981748	0.535641
C156	C	1.517998	1.481748	1.035641
H157	H	1.015249	1.028633	0.502627
H158	H	1.515249	1.528633	1.002627
H159	H	0.954455	0.962795	0.544175
H160	H	1.454455	1.462795	1.044175
H161	H	1.047491	0.988681	0.596910
H162	H	1.547491	1.488681	1.096910
