data_functionalizedCrystal
_audit_creation_method	'MofGen! by Chris Wilmer'
_symmetry_space_group_name_H-M	'P1'
_symmetry_Int_Tables_number	1
_symmetry_cell_setting	triclinic
loop_
_symmetry_equiv_pos_as_xyz
  x,y,z
_cell_length_a	19.805407
_cell_length_b	19.805405
_cell_length_c	19.805407
_cell_angle_alpha	90.013352
_cell_angle_beta	90.005535
_cell_angle_gamma	90.026410
loop_
_atom_site_label
_atom_site_type_symbol
_atom_site_fract_x
_atom_site_fract_y
_atom_site_fract_z
Zn1	Zn	1.034642	-0.269585	0.382711
Zn2	Zn	1.367975	0.063748	0.716045
Zn3	Zn	1.701309	0.397081	1.049378
Zn4	Zn	1.034584	-0.382742	0.269520
Zn5	Zn	1.367918	-0.049409	0.602853
Zn6	Zn	1.701251	0.283924	0.936186
Zn7	Zn	0.921484	-0.269573	0.269536
Zn8	Zn	1.254818	0.063761	0.602869
Zn9	Zn	1.588151	0.397094	0.936203
Zn10	Zn	0.921420	-0.382738	0.382666
Zn11	Zn	1.254753	-0.049404	0.716000
Zn12	Zn	1.588087	0.283929	1.049333
O13	O	0.978033	-0.326160	0.326108
O14	O	1.311366	0.007174	0.659442
O15	O	1.644699	0.340507	0.992775
O16	O	1.129351	-0.284603	0.367708
O17	O	1.462684	0.048730	0.701042
O18	O	1.796017	0.382063	1.034375
O19	O	1.019584	-0.367727	0.174805
O20	O	1.352918	-0.034393	0.508139
O21	O	1.686251	0.298940	0.841472
O22	O	0.936546	-0.174858	0.284575
O23	O	1.269879	0.158476	0.617908
O24	O	1.603212	0.491809	0.951241
O25	O	1.129309	-0.367739	0.284547
O26	O	1.462642	-0.034406	0.617880
O27	O	1.795975	0.298928	0.951214
O28	O	1.019682	-0.174867	0.367724
O29	O	1.353015	0.158466	0.701057
O30	O	1.686349	0.491800	1.034391
O31	O	0.936490	-0.284581	0.174817
O32	O	1.269823	0.048752	0.508151
O33	O	1.603157	0.382085	0.841484
O34	O	0.826759	-0.284577	0.284531
O35	O	1.160092	0.048756	0.617864
O36	O	1.493426	0.382090	0.951198
O37	O	0.936436	-0.367731	0.477389
O38	O	1.269770	-0.034398	0.810722
O39	O	1.603103	0.298935	1.144056
O40	O	0.826712	-0.367719	0.367647
O41	O	1.160045	-0.034386	0.700981
O42	O	1.493379	0.298948	1.034314
O43	O	1.019620	-0.284599	0.477422
O44	O	1.352953	0.048734	0.810755
O45	O	1.686287	0.382068	1.144089
O46	O	1.019522	-0.477458	0.284503
O47	O	1.352855	-0.144125	0.617837
O48	O	1.686189	0.189208	0.951170
O49	O	0.936381	-0.477455	0.367632
O50	O	1.269714	-0.144122	0.700965
O51	O	1.603047	0.189212	1.034298
C52	C	0.802177	-0.326147	0.326086
C53	C	1.135510	0.007187	0.659420
C54	C	1.468843	0.340520	0.992753
C55	C	0.726945	-0.326157	0.326093
C56	C	1.060278	0.007176	0.659427
C57	C	1.393611	0.340509	0.992760
C58	C	0.691594	-0.369515	0.369302
C59	C	1.024927	-0.036181	0.702635
C60	C	1.358260	0.297152	1.035969
C61	C	0.620905	-0.369516	0.369311
C62	C	0.954239	-0.036182	0.702645
C63	C	1.287572	0.297151	1.035978
C64	C	0.585569	-0.326163	0.326108
C65	C	0.918902	0.007171	0.659442
C66	C	1.252236	0.340504	0.992775
C67	C	0.620925	-0.282801	0.282898
C68	C	0.954258	0.050533	0.616231
C69	C	1.287592	0.383866	0.949564
C70	C	0.691612	-0.282797	0.282892
C71	C	1.024945	0.050537	0.616225
C72	C	1.358279	0.383870	0.949559
C73	C	0.335852	-0.282816	0.282920
C74	C	0.669185	0.050518	0.616253
C75	C	1.002518	0.383851	0.949587
C76	C	0.265160	-0.282825	0.282928
C77	C	0.598493	0.050509	0.616261
C78	C	0.931826	0.383842	0.949594
C79	C	0.265145	-0.369535	0.369339
C80	C	0.598478	-0.036201	0.702673
C81	C	0.931811	0.297132	1.036006
C82	C	0.335832	-0.369531	0.369334
C83	C	0.669165	-0.036197	0.702667
C84	C	1.002499	0.297136	1.036000
C85	C	0.371182	-0.326167	0.326126
C86	C	0.704515	0.007167	0.659459
C87	C	1.037848	0.340500	0.992793
C88	C	0.447830	-0.326165	0.326117
C89	C	0.781163	0.007168	0.659450
C90	C	1.114497	0.340502	0.992784
C91	C	0.508922	-0.326167	0.326113
C92	C	0.842255	0.007166	0.659447
C93	C	1.175589	0.340499	0.992780
C94	C	0.977956	-0.502016	0.326076
C95	C	1.311290	-0.168682	0.659409
C96	C	1.644623	0.164651	0.992742
C97	C	0.977986	-0.577248	0.326084
C98	C	1.311319	-0.243914	0.659418
C99	C	1.644652	0.089419	0.992751
C100	C	1.021320	-0.612571	0.282845
C101	C	1.354653	-0.279238	0.616178
C102	C	1.687986	0.054096	0.949511
C103	C	1.021348	-0.683259	0.282860
C104	C	1.354682	-0.349926	0.616193
C105	C	1.688015	-0.016593	0.949526
C106	C	0.978039	-0.718623	0.326111
C107	C	1.311373	-0.385290	0.659445
C108	C	1.644706	-0.051956	0.992778
C109	C	0.934704	-0.683295	0.369356
C110	C	1.268037	-0.349961	0.702689
C111	C	1.601370	-0.016628	1.036022
C112	C	0.934679	-0.612608	0.369344
C113	C	1.268012	-0.279274	0.702677
C114	C	1.601346	0.054059	1.036010
C115	C	0.934804	-0.968368	0.369406
C116	C	1.268137	-0.635035	0.702739
C117	C	1.601470	-0.301701	1.036072
C118	C	0.934830	-1.039060	0.369413
C119	C	1.268164	-0.705727	0.702746
C120	C	1.601497	-0.372393	1.036080
C121	C	1.021473	-1.039020	0.282922
C122	C	1.354806	-0.705686	0.616255
C123	C	1.688140	-0.372353	0.949588
C124	C	1.021448	-0.968333	0.282910
C125	C	1.354781	-0.634999	0.616243
C126	C	1.688115	-0.301666	0.949576
C127	C	0.978115	-0.933010	0.326156
C128	C	1.311449	-0.599677	0.659490
C129	C	1.644782	-0.266344	0.992823
C130	C	0.978086	-0.856362	0.326141
C131	C	1.311419	-0.523029	0.659474
C132	C	1.644752	-0.189695	0.992807
C133	C	0.978065	-0.795270	0.326124
C134	C	1.311399	-0.461937	0.659458
C135	C	1.644732	-0.128604	0.992791
C136	C	1.154575	-0.326173	0.326131
C137	C	1.487909	0.007160	0.659464
C138	C	1.821242	0.340494	0.992797
C139	C	1.229807	-0.326179	0.326140
C140	C	1.563141	0.007155	0.659474
C141	C	1.896474	0.340488	0.992807
C142	C	0.978027	-0.326166	0.502651
C143	C	1.311361	0.007167	0.835984
C144	C	1.644694	0.340501	1.169318
C145	C	0.978025	-0.326169	0.577883
C146	C	1.311358	0.007164	0.911216
C147	C	1.644692	0.340498	1.244550
C148	C	0.978128	-0.149617	0.326156
C149	C	1.311461	0.183717	0.659489
C150	C	1.644794	0.517050	0.992823
C151	C	0.978168	-0.074385	0.326176
C152	C	1.311501	0.258949	0.659510
C153	C	1.644835	0.592282	0.992843
C154	C	1.021337	-0.282877	1.039692
C155	C	1.354670	0.050456	1.373026
C156	C	1.688004	0.383790	1.706359
C157	C	1.021339	-0.282880	0.969004
C158	C	1.354672	0.050453	1.302337
C159	C	1.688006	0.383786	1.635671
C160	C	0.978030	-0.326163	0.933645
C161	C	1.311364	0.007170	1.266978
C162	C	1.644697	0.340503	1.600311
C163	C	0.934721	-0.369451	0.968978
C164	C	1.268055	-0.036118	1.302311
C165	C	1.601388	0.297215	1.635644
C166	C	0.934723	-0.369451	1.039665
C167	C	1.268056	-0.036118	1.372998
C168	C	1.601390	0.297216	1.706332
C169	C	0.934714	-0.369454	0.683904
C170	C	1.268047	-0.036120	1.017238
C171	C	1.601381	0.297213	1.350571
C172	C	0.934714	-0.369449	0.613212
C173	C	1.268047	-0.036116	0.946546
C174	C	1.601381	0.297218	1.279879
C175	C	1.021330	-0.282883	0.613243
C176	C	1.354663	0.050451	0.946577
C177	C	1.687997	0.383784	1.279910
C178	C	1.021332	-0.282882	0.683931
C179	C	1.354665	0.050451	1.017264
C180	C	1.687998	0.383784	1.350597
C181	C	0.978026	-0.326173	0.719257
C182	C	1.311359	0.007161	1.052591
C183	C	1.644692	0.340494	1.385924
C184	C	0.978025	-0.326170	0.795906
C185	C	1.311358	0.007164	1.129239
C186	C	1.644691	0.340497	1.462573
C187	C	0.978027	-0.326163	0.856998
C188	C	1.311361	0.007170	1.190331
C189	C	1.644694	0.340503	1.523664
C190	C	0.978032	-0.326167	1.150252
C191	C	1.311365	0.007166	1.483586
C192	C	1.644698	0.340500	1.816919
C193	C	0.978030	-0.326160	1.075020
C194	C	1.311363	0.007173	1.408354
C195	C	1.644697	0.340507	1.741687
H196	H	0.364599	-0.404836	0.404512
H197	H	0.697932	-0.071502	0.737845
H198	H	1.031266	0.261831	1.071179
H199	H	0.236354	-0.404841	0.404524
H200	H	0.569688	-0.071508	0.737857
H201	H	0.903021	0.261825	1.071190
H202	H	1.056759	-1.067788	0.247711
H203	H	1.390093	-0.734454	0.581044
H204	H	1.723426	-0.401121	0.914378
H205	H	0.364625	-0.247511	0.247733
H206	H	0.697958	0.085822	0.581066
H207	H	1.031292	0.419156	0.914399
H208	H	0.899519	-0.939614	0.404617
H209	H	1.232853	-0.606281	0.737951
H210	H	1.566186	-0.272948	1.071284
H211	H	0.899564	-1.067851	0.404639
H212	H	1.232897	-0.734518	0.737972
H213	H	1.566230	-0.401185	1.071306
H214	H	1.056596	-0.247634	0.712716
H215	H	1.389929	0.085699	1.046050
H216	H	1.723263	0.419032	1.379383
H217	H	1.056600	-0.247626	1.068477
H218	H	1.389933	0.085707	1.401810
H219	H	1.723267	0.419040	1.735143
H220	H	0.592149	-0.247499	0.247724
H221	H	0.925482	0.085834	0.581057
H222	H	1.258815	0.419168	0.914391
H223	H	0.899450	-0.404702	0.712659
H224	H	1.232784	-0.071369	1.045992
H225	H	1.566117	0.261964	1.379326
H226	H	1.056606	-0.247637	0.940243
H227	H	1.389939	0.085697	1.273576
H228	H	1.723273	0.419030	1.606910
H229	H	1.056712	-0.939542	0.247688
H230	H	1.390045	-0.606208	0.581021
H231	H	1.723379	-0.272875	0.914355
H232	H	0.899393	-0.583848	0.404555
H233	H	1.232726	-0.250515	0.737888
H234	H	1.566060	0.082819	1.071221
H235	H	1.056594	-0.247636	0.584472
H236	H	1.389927	0.085698	0.917805
H237	H	1.723261	0.419031	1.251138
H238	H	0.899442	-0.404695	0.584425
H239	H	1.232775	-0.071362	0.917758
H240	H	1.566109	0.261972	1.251092
H241	H	1.056584	-0.583782	0.247621
H242	H	1.389917	-0.250449	0.580955
H243	H	1.723250	0.082884	0.914288
H244	H	0.720394	-0.247487	0.247711
H245	H	1.053727	0.085846	0.581044
H246	H	1.387061	0.419180	0.914377
H247	H	0.899461	-0.404696	0.940183
H248	H	1.232795	-0.071363	1.273516
H249	H	1.566128	0.261970	1.606849
H250	H	0.899459	-0.404697	1.068428
H251	H	1.232792	-0.071364	1.401761
H252	H	1.566125	0.261969	1.735095
H253	H	1.056634	-0.712017	0.247649
H254	H	1.389968	-0.378683	0.580982
H255	H	1.723301	-0.045350	0.914316
H256	H	0.720359	-0.404820	0.404481
H257	H	1.053693	-0.071487	0.737814
H258	H	1.387026	0.261847	1.071147
H259	H	0.592126	-0.404822	0.404496
H260	H	0.925459	-0.071489	0.737829
H261	H	1.258792	0.261845	1.071162
H262	H	0.236391	-0.247517	0.247746
H263	H	0.569724	0.085816	0.581080
H264	H	0.903058	0.419150	0.914413
H265	H	0.899444	-0.712094	0.404575
H266	H	1.232777	-0.378760	0.737908
H267	H	1.566110	-0.045427	1.071242
