data_functionalizedCrystal
_audit_creation_method	'MofGen! by Chris Wilmer'
_symmetry_space_group_name_H-M	'P1'
_symmetry_Int_Tables_number	1
_symmetry_cell_setting	triclinic
loop_
_symmetry_equiv_pos_as_xyz
  x,y,z
_cell_length_a	15.995350
_cell_length_b	19.188930
_cell_length_c	14.472310
_cell_angle_alpha	89.993787
_cell_angle_beta	89.990621
_cell_angle_gamma	83.318578
loop_
_atom_site_label
_atom_site_type_symbol
_atom_site_fract_x
_atom_site_fract_y
_atom_site_fract_z
O1	O	1.110667	0.089991	-0.076773
O2	O	0.866851	0.101105	-0.076794
O3	O	0.995795	-0.006090	-0.076765
O4	O	0.981723	0.197186	-0.076802
O5	O	0.995762	-0.006083	0.076917
O6	O	0.866818	0.101111	0.076888
O7	O	1.110634	0.089998	0.076909
Cu8	Cu	0.988723	0.095555	0.090931
Cu9	Cu	0.988762	0.095547	-0.090816
O10	O	0.981690	0.197192	0.076880
C11	C	0.835641	0.100648	0.000045
C12	C	0.742696	0.099271	0.000038
C13	C	0.404967	0.094324	0.000058
C14	C	0.452680	0.017982	0.000415
C15	C	0.549365	0.019360	0.000062
C16	C	0.572518	0.096778	0.000049
C17	C	0.531312	0.134429	-0.087714
C18	C	0.434683	0.132511	-0.087781
C19	C	0.434301	0.134095	0.086984
C20	C	0.531246	0.134077	0.088137
C21	C	0.667211	0.098169	0.000040
C22	C	0.310274	0.092936	0.000060
C23	C	0.995323	-0.032099	0.000079
C24	C	0.993955	-0.109607	0.000087
C25	C	1.069615	-0.154338	0.000097
C26	C	1.068330	-0.227165	0.000082
C27	C	0.991380	-0.255258	0.000075
C28	C	0.915710	-0.210517	0.000059
C29	C	0.916997	-0.137691	0.000065
N30	N	0.932550	-0.363410	0.052371
N31	N	0.931332	-0.432592	0.052368
C32	C	0.987497	-0.474676	0.000056
N33	N	1.044938	-0.444967	-0.052240
N34	N	1.046158	-0.375779	-0.052233
C35	C	0.989976	-0.334224	0.000069
C36	C	1.061769	-0.598375	0.000050
C37	C	1.060480	-0.671204	0.000029
C38	C	0.907859	-0.654553	0.000015
C39	C	0.909149	-0.581727	0.000027
C40	C	0.986106	-0.553643	0.000048
C41	C	1.141843	0.090454	0.000068
C42	C	1.234789	0.091831	0.000069
C43	C	0.982162	0.223201	0.000034
C44	C	0.983530	0.300709	0.000020
N45	N	0.988701	0.095560	0.218762
N46	N	0.988790	0.095537	-0.218647
C47	C	0.988761	0.095545	0.592853
C48	C	0.919535	0.152710	0.553672
C49	C	0.919694	0.152918	0.446584
C50	C	0.988731	0.095552	0.407262
C51	C	1.076037	0.111464	0.446103
C52	C	1.075648	0.111870	0.553224
C53	C	0.971460	0.022298	0.553394
C54	C	0.969454	0.022787	0.446266
C55	C	0.988719	0.095555	0.302374
C56	C	0.988778	0.095543	0.697741
H57	H	0.416490	0.105049	-0.153377
N58	N	1.145920	0.058827	0.587561
H59	H	1.146216	0.058679	0.657348
H60	H	1.136971	0.010664	0.564180
H61	H	1.128770	0.070935	0.420631
H62	H	0.930402	0.206759	0.580572
N63	N	1.149939	-0.275421	0.000113
H64	H	1.137444	-0.325817	0.000111
H65	H	1.183511	-0.266328	-0.056848
H66	H	1.021946	-0.020242	0.578732
N67	N	0.832710	-0.240806	0.000053
H68	H	0.828786	-0.270647	-0.056917
H69	H	0.828809	-0.270619	0.057061
H70	H	1.090934	0.165288	0.578192
N71	N	1.152620	-0.124055	0.000114
H72	H	1.185768	-0.140366	-0.056853
H73	H	1.141895	-0.071137	0.000151
N74	N	0.835390	-0.089440	0.000053
H75	H	0.786445	-0.118284	0.000043
H76	H	0.832587	-0.058869	0.057029
N77	N	1.144767	-0.568077	0.000069
H78	H	1.192504	-0.607469	0.000066
H79	H	1.148637	-0.538215	-0.056897
H80	H	0.577889	-0.010236	0.062975
N81	N	0.567541	0.097674	0.174144
H82	H	0.555843	0.047075	0.173599
H83	H	0.630331	0.099713	0.175829
N84	N	1.142089	-0.719454	0.000037
H85	H	1.191033	-0.690608	0.000054
H86	H	1.144859	-0.750039	0.057005
H87	H	1.091696	0.164273	0.419257
N88	N	0.428283	-0.022438	0.083788
H89	H	0.386061	0.008342	0.122137
H90	H	0.402505	-0.065364	0.062787
N91	N	0.827544	-0.533475	0.000020
H92	H	0.778600	-0.562320	0.000014
H93	H	0.824742	-0.502903	0.056995
N94	N	0.824861	-0.684842	-0.000003
H95	H	0.835524	-0.737765	-0.000008
H96	H	0.791748	-0.668485	0.056966
H97	H	0.909193	0.006998	0.580460
H98	H	0.854789	0.143438	0.420324
N99	N	0.549755	0.209765	-0.092065
H100	H	0.522668	0.232942	-0.149018
H101	H	0.526335	0.235567	-0.035181
N102	N	0.884357	0.006811	0.412708
H103	H	0.858397	0.046534	0.372398
H104	H	0.891195	-0.038167	0.375818
N105	N	0.833278	0.140368	0.587824
H106	H	0.838233	0.097602	0.629029
H107	H	0.807872	0.182662	0.623924
H108	H	0.930714	0.207273	0.420941
N109	N	0.426875	-0.022271	-0.082459
H110	H	0.384414	0.008731	-0.120234
H111	H	0.478036	-0.037505	-0.121588
H112	H	0.559796	0.108273	-0.153020
N113	N	1.031936	-0.036205	0.410833
H114	H	1.029118	-0.037812	0.341158
H115	H	1.090551	-0.028036	0.430633
N116	N	0.586426	-0.020106	-0.083412
H117	H	0.616150	0.012440	-0.123409
H118	H	0.627974	-0.060738	-0.062566
N119	N	0.391687	0.206751	-0.093033
H120	H	0.435530	0.240577	-0.095303
H121	H	0.355775	0.212358	-0.150543
H122	H	0.413843	0.109140	0.153506
H123	H	0.402333	0.190382	0.087568
N124	N	0.551316	0.208861	0.095153
H125	H	0.587606	0.219672	0.041085
H126	H	0.497259	0.241797	0.094399
