data_functionalizedCrystal
_audit_creation_method	'MofGen! by Chris Wilmer'
_symmetry_space_group_name_H-M	'P1'
_symmetry_Int_Tables_number	1
_symmetry_cell_setting	triclinic
loop_
_symmetry_equiv_pos_as_xyz
  x,y,z
_cell_length_a	23.532355
_cell_length_b	9.730223
_cell_length_c	10.654550
_cell_angle_alpha	90.000193
_cell_angle_beta	83.656201
_cell_angle_gamma	89.994366
loop_
_atom_site_label
_atom_site_type_symbol
_atom_site_fract_x
_atom_site_fract_y
_atom_site_fract_z
O1	O	0.756267	0.114100	0.152123
O2	O	0.590543	0.114143	0.174247
O3	O	0.677215	0.114115	-0.019677
O4	O	0.669595	0.114127	0.346046
O5	O	0.677214	-0.114465	-0.019672
O6	O	0.590542	-0.114437	0.174252
O7	O	0.756266	-0.114480	0.152127
Zn8	Zn	0.673404	-0.150751	0.163191
Zn9	Zn	0.673405	0.150413	0.163184
O10	O	0.669594	-0.114452	0.346051
C11	C	0.569322	-0.000141	0.173697
C12	C	0.506093	-0.000125	0.172034
N13	N	0.673407	-0.356287	0.163194
C14	C	0.711795	-0.428225	0.077353
C15	C	0.711794	-0.572108	0.077338
C16	C	0.635014	-0.572102	0.249016
C17	C	0.635013	-0.428222	0.249024
C18	C	0.750189	-0.356291	-0.008477
C19	C	0.788581	-0.428229	-0.094324
C20	C	0.788580	-0.572112	-0.094339
C21	C	0.750186	-0.644057	-0.008507
C22	C	0.114011	-0.124782	0.161589
C23	C	0.054601	-0.124787	0.160007
O24	O	0.023876	-0.230752	0.159149
N25	N	0.024888	-0.000189	0.159220
C26	C	0.054588	0.124423	0.160002
O27	O	0.023860	0.230403	0.159187
C28	C	0.113997	0.124427	0.161575
C29	C	0.143707	-0.000179	0.162375
C30	C	0.143720	-0.249378	0.162388
C31	C	0.203125	-0.249372	0.163972
C32	C	0.232822	-0.124770	0.164758
C33	C	0.203112	-0.000173	0.163959
C34	C	0.143697	0.249038	0.162348
C35	C	0.203111	0.249031	0.163920
C36	C	0.232820	0.124424	0.164720
C37	C	0.292214	0.124435	0.166329
N38	N	0.321927	-0.000164	0.167116
C39	C	0.292231	-0.124766	0.166331
C40	C	-0.070175	0.124406	0.156697
C41	C	-0.129583	0.124403	0.155133
C42	C	-0.129567	-0.124808	0.155136
C43	C	-0.070157	-0.124804	0.156709
C44	C	-0.040462	-0.000193	0.157484
C45	C	0.416986	-0.124744	0.169659
C46	C	0.476397	-0.124727	0.171248
C47	C	0.476375	0.124483	0.171239
C48	C	0.416970	0.124467	0.169656
C49	C	0.387277	-0.000158	0.168862
O50	O	0.322976	0.230346	0.167184
O51	O	0.322967	-0.230728	0.167130
C52	C	0.777486	-0.000193	0.152678
C53	C	0.840716	-0.000200	0.154341
C54	C	0.676655	-0.000173	-0.066454
C55	C	0.674981	-0.000168	-0.205844
N56	N	0.673406	0.355950	0.163171
C57	C	0.726012	-0.000185	-0.286967
C58	C	0.724436	-0.000175	-0.417937
C59	C	0.620793	-0.000136	-0.386648
C60	C	0.622370	-0.000136	-0.255680
C61	C	0.778624	-0.000217	-0.237131
C62	C	0.829659	-0.000236	-0.318256
C63	C	0.828082	-0.000226	-0.449226
C64	C	0.775471	-0.000197	-0.499071
C65	C	0.670154	-0.000161	0.392829
C66	C	0.671828	-0.000157	0.532218
H67	H	0.750195	-0.239134	-0.008470
H68	H	0.872493	-0.000225	-0.277662
C69	C	0.830803	-0.651240	-0.188788
N70	N	0.862607	-0.710837	-0.259930
H71	H	0.819837	-0.369644	-0.164212
H72	H	0.580816	-0.000124	-0.189627
H73	H	0.500564	0.225931	0.171884
C74	C	0.111063	-0.386463	0.161541
N75	N	0.086468	-0.489724	0.160918
C76	C	0.592785	-0.651247	0.343425
N77	N	0.560978	-0.710858	0.414538
C78	C	0.750187	-0.802333	-0.008529
N79	N	0.750191	-0.921545	-0.008541
C80	C	0.235772	0.386117	0.164778
N81	N	0.260371	0.489370	0.165428
H82	H	0.603753	-0.369649	0.318922
H83	H	0.500583	-0.226201	0.171904
C84	C	0.884222	-0.000247	-0.538460
N85	N	0.926508	-0.000274	-0.605668
H86	H	0.392778	0.225931	0.169025
H87	H	-0.153756	-0.226266	0.154494
C88	C	0.780362	-0.000228	-0.093063
N89	N	0.781671	-0.000238	0.015450
C90	C	0.773740	-0.000178	-0.643144
N91	N	0.772437	-0.000170	-0.751659
C92	C	0.384332	-0.261838	0.168798
N93	N	0.359737	-0.365097	0.168160
H94	H	-0.046001	0.225885	0.157340
H95	H	-0.045972	-0.226270	0.157361
C96	C	-0.162257	0.261480	0.154264
N97	N	-0.186865	0.364732	0.153599
H98	H	0.227310	-0.350840	0.164615
C99	C	0.562924	-0.000126	-0.441484
N100	N	0.519336	-0.000128	-0.482786
H101	H	0.119518	0.350506	0.161696
