data_functionalizedCrystal
_audit_creation_method	'MofGen! by Chris Wilmer'
_symmetry_space_group_name_H-M	'P1'
_symmetry_Int_Tables_number	1
_symmetry_cell_setting	triclinic
loop_
_symmetry_equiv_pos_as_xyz
  x,y,z
_cell_length_a	16.625546
_cell_length_b	13.897449
_cell_length_c	13.897441
_cell_angle_alpha	90.016656
_cell_angle_beta	90.033447
_cell_angle_gamma	90.027294
loop_
_atom_site_label
_atom_site_type_symbol
_atom_site_fract_x
_atom_site_fract_y
_atom_site_fract_z
Zn1	Zn	-0.320872	1.474671	0.545257
Zn2	Zn	0.179128	1.974671	1.045257
Zn3	Zn	-0.455722	1.474551	0.383951
Zn4	Zn	0.044278	1.974551	0.883951
Zn5	Zn	-0.320919	1.313360	0.383987
Zn6	Zn	0.179081	1.813360	0.883987
Zn7	Zn	-0.455678	1.313328	0.545215
Zn8	Zn	0.044322	1.813328	1.045215
O9	O	-0.388298	1.393977	0.464602
O10	O	0.111702	1.893977	0.964602
O11	O	-0.338759	1.609636	0.523862
O12	O	0.161241	2.109636	1.023862
O13	O	-0.437879	1.453132	0.248974
O14	O	0.062121	1.953132	0.748974
O15	O	-0.208080	1.334821	0.405413
O16	O	0.291920	1.834821	0.905413
O17	O	-0.437833	1.609549	0.405351
O18	O	0.062167	2.109549	0.905351
O19	O	-0.208046	1.453336	0.523897
O20	O	0.291954	1.953336	1.023897
O21	O	-0.338839	1.334705	0.249001
O22	O	0.161161	1.834705	0.749001
O23	O	-0.338796	1.178374	0.405372
O24	O	0.161204	1.678374	0.905372
O25	O	-0.437757	1.334767	0.680202
O26	O	0.062243	1.834767	1.180202
O27	O	-0.437803	1.178351	0.523825
O28	O	0.062197	1.678351	1.023825
O29	O	-0.338716	1.453305	0.680233
O30	O	0.161284	1.953305	1.180233
O31	O	-0.568549	1.453101	0.405310
O32	O	-0.068549	1.953101	0.905310
O33	O	-0.568516	1.334651	0.523790
O34	O	-0.068516	1.834651	1.023790
C35	C	-0.597789	1.393886	0.464562
C36	C	-0.097789	1.893886	0.964562
C37	C	-0.687410	1.393935	0.464577
C38	C	-0.187410	1.893935	0.964577
C39	C	-0.388300	1.143363	0.464598
C40	C	0.111700	1.643363	0.964598
C41	C	-0.388320	1.036149	0.464619
C42	C	0.111680	1.536149	0.964619
C43	C	-0.388227	1.394046	0.716195
C44	C	0.111773	1.894046	1.216195
C45	C	-0.388196	1.394075	0.823409
C46	C	0.111804	1.894075	1.323409
C47	C	-1.015585	1.394104	0.464677
C48	C	-0.515585	1.894104	0.964677
C49	C	-0.924277	1.394054	0.464652
C50	C	-0.424277	1.894054	0.964652
C51	C	-0.851500	1.394019	0.464627
C52	C	-0.351500	1.894019	0.964627
C53	C	-0.760186	1.393970	0.464602
C54	C	-0.260186	1.893970	0.964602
C55	C	-0.177989	1.394095	0.464664
C56	C	0.322011	1.894095	0.964664
C57	C	-0.088368	1.394146	0.464690
C58	C	0.411632	1.894146	0.964690
C59	C	-0.388296	1.645570	0.464607
C60	C	0.111704	2.145570	0.964607
C61	C	-0.388295	1.752784	0.464609
C62	C	0.111705	2.252784	0.964609
C63	C	-0.388318	1.949079	0.464613
C64	C	0.111682	2.449079	0.964613
C65	C	-0.388308	1.839847	0.464608
C66	C	0.111692	2.339847	0.964608
C67	C	-0.388311	1.393965	0.213988
C68	C	0.111689	1.893965	0.713988
C69	C	-0.388114	1.394122	0.106775
C70	C	0.111886	1.894122	0.606775
C71	C	-0.388142	1.394101	1.019705
C72	C	0.111858	1.894101	1.519705
C73	C	-0.388174	1.394084	0.910472
C74	C	0.111826	1.894084	1.410472
