data_functionalizedCrystal
_audit_creation_method	'MofGen! by Chris Wilmer'
_symmetry_space_group_name_H-M	'P1'
_symmetry_Int_Tables_number	1
_symmetry_cell_setting	triclinic
loop_
_symmetry_equiv_pos_as_xyz
  x,y,z
_cell_length_a	15.944551
_cell_length_b	15.021413
_cell_length_c	15.944551
_cell_angle_alpha	90.000443
_cell_angle_beta	96.501262
_cell_angle_gamma	89.988701
loop_
_atom_site_label
_atom_site_type_symbol
_atom_site_fract_x
_atom_site_fract_y
_atom_site_fract_z
O1	O	1.114511	0.073941	-0.108326
O2	O	1.364511	0.323941	0.141674
O3	O	1.614511	0.573941	0.391674
O4	O	1.864511	0.823941	0.641674
O5	O	0.869961	0.073964	-0.121682
O6	O	1.119961	0.323964	0.128318
O7	O	1.369961	0.573964	0.378318
O8	O	1.619961	0.823964	0.628318
O9	O	0.998914	0.073944	0.007271
O10	O	1.248914	0.323944	0.257271
O11	O	1.498914	0.573944	0.507271
O12	O	1.748914	0.823944	0.757271
O13	O	0.985558	0.073961	-0.237279
O14	O	1.235558	0.323961	0.012721
O15	O	1.485558	0.573961	0.262721
O16	O	1.735558	0.823961	0.512721
O17	O	0.998929	-0.074121	0.007263
O18	O	1.248929	0.175879	0.257263
O19	O	1.498929	0.425879	0.507263
O20	O	1.748929	0.675879	0.757263
O21	O	0.869976	-0.074101	-0.121690
O22	O	1.119976	0.175899	0.128310
O23	O	1.369976	0.425899	0.378310
O24	O	1.619976	0.675899	0.628310
O25	O	1.114526	-0.074123	-0.108334
O26	O	1.364526	0.175877	0.141666
O27	O	1.614526	0.425877	0.391666
O28	O	1.864526	0.675877	0.641666
Zn29	Zn	0.992254	-0.097620	-0.115013
Zn30	Zn	1.242254	0.152380	0.134987
Zn31	Zn	1.492254	0.402380	0.384987
Zn32	Zn	1.742254	0.652380	0.634987
Zn33	Zn	0.992234	0.097461	-0.115003
Zn34	Zn	1.242234	0.347461	0.134997
Zn35	Zn	1.492234	0.597461	0.384997
Zn36	Zn	1.742234	0.847461	0.634997
O37	O	0.985573	-0.074103	-0.237287
O38	O	1.235573	0.175897	0.012713
O39	O	1.485573	0.425897	0.262713
O40	O	1.735573	0.675897	0.512713
C41	C	0.838675	-0.000066	-0.121132
C42	C	1.088675	0.249934	0.128868
C43	C	1.338675	0.499934	0.378868
C44	C	1.588675	0.749934	0.628868
C45	C	0.745429	-0.000057	-0.119470
C46	C	0.995429	0.249943	0.130530
C47	C	1.245429	0.499943	0.380530
C48	C	1.495429	0.749943	0.630530
N49	N	0.992273	-0.230758	-0.115020
N50	N	1.242273	0.019242	0.134980
N51	N	1.492273	0.269242	0.384980
N52	N	1.742273	0.519242	0.634980
C53	C	0.530572	-0.000081	-0.035565
C54	C	0.780572	0.249919	0.214435
C55	C	1.030572	0.499919	0.464435
C56	C	1.280572	0.749919	0.714435
C57	C	0.469545	0.072926	-0.074524
C58	C	0.719545	0.322926	0.175476
C59	C	0.969545	0.572926	0.425476
C60	C	1.219545	0.822926	0.675476
C61	C	0.574703	-0.000068	-0.116462
C62	C	0.824703	0.249932	0.133538
C63	C	1.074703	0.499932	0.383538
C64	C	1.324703	0.749932	0.633538
C65	C	0.469582	-0.073054	-0.074551
C66	C	0.719582	0.176946	0.175449
C67	C	0.969582	0.426946	0.425449
C68	C	1.219582	0.676946	0.675449
C69	C	0.409790	-0.000083	-0.113551
C70	C	0.659790	0.249917	0.136449
C71	C	0.909790	0.499917	0.386449
C72	C	1.159790	0.749917	0.636449
C73	C	0.514904	0.072998	-0.155443
C74	C	0.764904	0.322998	0.094557
C75	C	1.014904	0.572998	0.344557
C76	C	1.264904	0.822998	0.594557
C77	C	0.514947	-0.073047	-0.155459
C78	C	0.764947	0.176953	0.094541
C79	C	1.014947	0.426953	0.344541
C80	C	1.264947	0.676953	0.594541
C81	C	0.453937	-0.000023	-0.194476
C82	C	0.703937	0.249977	0.055524
C83	C	0.953937	0.499977	0.305524
C84	C	1.203937	0.749977	0.555524
C85	C	0.669705	-0.000059	-0.118137
C86	C	0.919705	0.249941	0.131863
C87	C	1.169705	0.499941	0.381863
C88	C	1.419705	0.749941	0.631863
C89	C	0.314789	-0.000085	-0.111883
C90	C	0.564789	0.249915	0.138117
C91	C	0.814789	0.499915	0.388117
C92	C	1.064789	0.749915	0.638117
C93	C	1.051913	-0.470426	-0.055379
C94	C	1.301913	-0.220426	0.194621
C95	C	1.551913	0.029574	0.444621
C96	C	1.801913	0.279574	0.694621
C97	C	0.976013	-0.529750	-0.039061
C98	C	1.226013	-0.279750	0.210939
C99	C	1.476013	-0.029750	0.460939
C100	C	1.726013	0.220250	0.710939
C101	C	0.992254	-0.412365	-0.115010
C102	C	1.242254	-0.162365	0.134990
C103	C	1.492254	0.087635	0.384990
C104	C	1.742254	0.337635	0.634990
C105	C	1.068135	-0.529783	-0.131277
C106	C	1.318135	-0.279783	0.118723
C107	C	1.568135	-0.029783	0.368723
C108	C	1.818135	0.220217	0.618723
C109	C	0.992242	-0.587789	-0.114997
C110	C	1.242242	-0.337789	0.135003
C111	C	1.492242	-0.087789	0.385003
C112	C	1.742242	0.162211	0.635003
C113	C	0.916316	-0.470382	-0.098655
C114	C	1.166316	-0.220382	0.151345
C115	C	1.416316	0.029618	0.401345
C116	C	1.666316	0.279618	0.651345
C117	C	1.008487	-0.470410	-0.190904
C118	C	1.258487	-0.220410	0.059096
C119	C	1.508487	0.029590	0.309096
C120	C	1.758487	0.279590	0.559096
C121	C	0.932533	-0.529706	-0.174619
C122	C	1.182533	-0.279706	0.075381
C123	C	1.432533	-0.029706	0.325381
C124	C	1.682533	0.220294	0.575381
C125	C	0.992262	-0.311307	-0.115014
C126	C	1.242262	-0.061307	0.134986
C127	C	1.492262	0.188693	0.384986
C128	C	1.742262	0.438693	0.634986
C129	C	0.992225	-0.688844	-0.114993
C130	C	1.242225	-0.438844	0.135007
C131	C	1.492225	-0.188844	0.385007
C132	C	1.742225	0.061156	0.635007
C133	C	1.145813	-0.000092	-0.108885
C134	C	1.395813	0.249908	0.141115
C135	C	1.645813	0.499908	0.391115
C136	C	1.895813	0.749908	0.641115
C137	C	1.239059	-0.000094	-0.110547
C138	C	1.489059	0.249906	0.139453
C139	C	1.739059	0.499906	0.389453
C140	C	1.989059	0.749906	0.639453
C141	C	0.998367	-0.000089	0.038561
C142	C	1.248367	0.249911	0.288561
C143	C	1.498367	0.499911	0.538561
C144	C	1.748367	0.749911	0.788561
C145	C	0.996705	-0.000089	0.131807
C146	C	1.246705	0.249911	0.381807
C147	C	1.496705	0.499911	0.631807
C148	C	1.746705	0.749911	0.881807
N149	N	0.992221	0.230598	-0.114990
N150	N	1.242221	0.480598	0.135010
N151	N	1.492221	0.730598	0.385010
N152	N	1.742221	0.980598	0.635010
C153	C	0.986120	-0.000069	-0.268577
C154	C	1.236120	0.249931	-0.018577
C155	C	1.486120	0.499931	0.231423
C156	C	1.736120	0.749931	0.481423
C157	C	0.987782	-0.000063	-0.361823
C158	C	1.237782	0.249937	-0.111823
C159	C	1.487782	0.499937	0.138177
C160	C	1.737782	0.749937	0.388177
C161	C	0.912801	-0.000069	0.346663
C162	C	1.162801	0.249931	0.596663
C163	C	1.412801	0.499931	0.846663
C164	C	1.662801	0.749931	1.096663
C165	C	0.951771	-0.073077	0.407677
C166	C	1.201771	0.176923	0.657677
C167	C	1.451771	0.426923	0.907677
C168	C	1.701771	0.676923	1.157677
C169	C	0.993698	-0.000082	0.302533
C170	C	1.243698	0.249918	0.552533
C171	C	1.493698	0.499918	0.802533
C172	C	1.743698	0.749918	1.052533
C173	C	0.951775	0.072903	0.407668
C174	C	1.201775	0.322903	0.657668
C175	C	1.451775	0.572903	0.907668
C176	C	1.701775	0.822903	1.157668
C177	C	0.990787	-0.000071	0.467445
C178	C	1.240787	0.249929	0.717445
C179	C	1.490787	0.499929	0.967445
C180	C	1.740787	0.749929	1.217445
C181	C	1.032690	-0.073150	0.362318
C182	C	1.282690	0.176850	0.612318
C183	C	1.532690	0.426850	0.862318
C184	C	1.782690	0.676850	1.112318
C185	C	1.032683	0.072895	0.362303
C186	C	1.282683	0.322895	0.612303
C187	C	1.532683	0.572895	0.862303
C188	C	1.782683	0.822895	1.112303
C189	C	1.071711	-0.000131	0.423298
C190	C	1.321711	0.249869	0.673298
C191	C	1.571711	0.499869	0.923298
C192	C	1.821711	0.749869	1.173298
C193	C	0.995372	-0.000089	0.207530
C194	C	1.245372	0.249911	0.457530
C195	C	1.495372	0.499911	0.707530
C196	C	1.745372	0.749911	0.957530
C197	C	0.989119	-0.000070	0.562446
C198	C	1.239119	0.249930	0.812446
C199	C	1.489119	0.499930	1.062446
C200	C	1.739119	0.749930	1.312446
H201	H	0.563905	0.000005	0.031573
H202	H	0.813905	0.250005	0.281573
H203	H	1.063905	0.500005	0.531573
H204	H	1.313905	0.750005	0.781573
Br205	Br	0.848348	-0.572818	-0.258669
Br206	Br	1.098348	-0.322818	-0.008669
Br207	Br	1.348348	-0.072818	0.241331
Br208	Br	1.598348	0.177182	0.491331
Br209	Br	0.398667	0.000047	-0.306490
Br210	Br	0.648667	0.250047	-0.056490
Br211	Br	0.898667	0.500047	0.193510
Br212	Br	1.148667	0.750047	0.443510
Br213	Br	0.548200	0.175984	-0.212426
Br214	Br	0.798200	0.425984	0.037574
Br215	Br	1.048200	0.675984	0.287574
Br216	Br	1.298200	0.925984	0.537574
H217	H	1.138919	-0.000178	0.456457
H218	H	1.388919	0.249822	0.706457
H219	H	1.638919	0.499822	0.956457
H220	H	1.888919	0.749822	1.206457
H221	H	1.102312	-0.444397	-0.004923
H222	H	1.352312	-0.194397	0.245077
H223	H	1.602312	0.055603	0.495077
H224	H	1.852312	0.305603	0.745077
Br225	Br	0.894711	0.175768	0.441163
Br226	Br	1.144711	0.425768	0.691163
Br227	Br	1.394711	0.675768	0.941163
Br228	Br	1.644711	0.925768	1.191163
H229	H	1.066863	0.134615	0.342176
H230	H	1.316863	0.384615	0.592176
H231	H	1.566863	0.634615	0.842176
H232	H	1.816863	0.884615	1.092176
H233	H	1.132311	-0.555876	-0.145043
H234	H	1.382311	-0.305876	0.104957
H235	H	1.632311	-0.055876	0.354957
H236	H	1.882311	0.194124	0.604957
H237	H	1.022253	-0.444325	-0.255071
H238	H	1.272253	-0.194325	-0.005071
H239	H	1.522253	0.055675	0.244929
H240	H	1.772253	0.305675	0.494929
H241	H	0.845652	-0.000136	0.313356
H242	H	1.095652	0.249864	0.563356
H243	H	1.345652	0.499864	0.813356
H244	H	1.595652	0.749864	1.063356
H245	H	0.449428	0.134642	-0.040304
H246	H	0.699428	0.384642	0.209696
H247	H	0.949428	0.634642	0.459696
H248	H	1.199428	0.884642	0.709696
Br249	Br	0.548514	-0.175918	-0.212449
Br250	Br	0.798514	0.074082	0.037551
Br251	Br	1.048514	0.324082	0.287551
Br252	Br	1.298514	0.574082	0.537551
Br253	Br	0.809325	-0.427083	-0.075589
Br254	Br	1.059325	-0.177083	0.174411
Br255	Br	1.309325	0.072917	0.424411
Br256	Br	1.559325	0.322917	0.674411
Br257	Br	0.436113	-0.175924	-0.017505
Br258	Br	0.686113	0.074076	0.232495
Br259	Br	0.936113	0.324076	0.482495
Br260	Br	1.186113	0.574076	0.732495
H261	H	0.917561	-0.134794	0.427782
H262	H	1.167561	0.115206	0.677782
H263	H	1.417561	0.365206	0.927782
H264	H	1.667561	0.615206	1.177782
H265	H	0.962271	-0.555816	0.025126
H266	H	1.212271	-0.305816	0.275126
H267	H	1.462271	-0.055816	0.525126
H268	H	1.712271	0.194184	0.775126
Br269	Br	1.089687	-0.176137	0.329001
Br270	Br	1.339687	0.073863	0.579001
Br271	Br	1.589687	0.323863	0.829001
Br272	Br	1.839687	0.573863	1.079001
