data_functionalizedCrystal
_audit_creation_method	'MofGen! by Chris Wilmer'
_symmetry_space_group_name_H-M	'P1'
_symmetry_Int_Tables_number	1
_symmetry_cell_setting	triclinic
loop_
_symmetry_equiv_pos_as_xyz
  x,y,z
_cell_length_a	15.298708
_cell_length_b	15.297327
_cell_length_c	19.076919
_cell_angle_alpha	101.510342
_cell_angle_beta	101.509970
_cell_angle_gamma	107.405650
loop_
_atom_site_label
_atom_site_type_symbol
_atom_site_fract_x
_atom_site_fract_y
_atom_site_fract_z
Zn1	Zn	1.342997	-0.138578	-0.235618
Zn2	Zn	1.842997	0.361422	0.264382
Zn3	Zn	1.321862	-0.288236	-0.140968
Zn4	Zn	1.821862	0.211764	0.359032
Zn5	Zn	1.193372	-0.159659	-0.140951
Zn6	Zn	1.693372	0.340341	0.359049
Zn7	Zn	1.157402	-0.324139	-0.285636
Zn8	Zn	1.657402	0.175861	0.214364
O9	O	1.253908	-0.227653	-0.200793
O10	O	1.753908	0.272347	0.299207
O11	O	1.471640	-0.134583	-0.202137
O12	O	1.971640	0.365417	0.297863
O13	O	1.311026	-0.264977	-0.040803
O14	O	1.811026	0.235023	0.459197
O15	O	1.237118	-0.025394	-0.132569
O16	O	1.737118	0.474606	0.367431
O17	O	1.456112	-0.244536	-0.132598
O18	O	1.956112	0.255464	0.367402
O19	O	1.347048	-0.009907	-0.202121
O20	O	1.847048	0.490093	0.297879
O21	O	1.216625	-0.170512	-0.040790
O22	O	1.716625	0.329488	0.459210
O23	O	1.057154	-0.205325	-0.181069
O24	O	1.557154	0.294675	0.318931
O25	O	1.175813	-0.305727	-0.379164
O26	O	1.675813	0.194273	0.120836
O27	O	1.030728	-0.326168	-0.287369
O28	O	1.530728	0.173832	0.212631
O29	O	1.312170	-0.169397	-0.342416
O30	O	1.812170	0.330603	0.157584
O31	O	1.276148	-0.424467	-0.181098
O32	O	1.776148	0.075533	0.318902
O33	O	1.155320	-0.450844	-0.287386
O34	O	1.655320	0.049156	0.212614
C35	C	1.009858	-0.271931	-0.239645
C36	C	1.509858	0.228069	0.260355
C37	C	0.905447	-0.290897	-0.256287
C38	C	1.405447	0.209103	0.243713
C39	C	0.666113	-0.092348	-0.082066
C40	C	1.166113	0.407652	0.417934
C41	C	0.764213	-0.074523	-0.066430
C42	C	1.264213	0.425477	0.433570
C43	C	0.799526	-0.128615	-0.113893
C44	C	1.299526	0.371385	0.386107
C45	C	0.736730	-0.200535	-0.176994
C46	C	1.236730	0.299465	0.323006
C47	C	0.638621	-0.218356	-0.192635
C48	C	1.138621	0.281644	0.307365
C49	C	0.772035	-0.254623	-0.224462
C50	C	1.272035	0.245377	0.275538
C51	C	0.709238	-0.326543	-0.287564
C52	C	1.209238	0.173457	0.212436
C53	C	0.611139	-0.344362	-0.303201
C54	C	1.111139	0.155638	0.196799
C55	C	0.575825	-0.290270	-0.255738
C56	C	1.075825	0.209730	0.244262
C57	C	0.870144	-0.236802	-0.208821
C58	C	1.370144	0.263198	0.291179
C59	C	0.842652	-0.362810	-0.319391
C60	C	1.342652	0.137190	0.180609
C61	C	0.744552	-0.380635	-0.335026
C62	C	1.244552	0.119365	0.164974
C63	C	1.209562	-0.471740	-0.239683
C64	C	1.709562	0.028260	0.260317
C65	C	1.190675	-0.576148	-0.256330
C66	C	1.690675	-0.076148	0.243670
C67	C	1.389270	-0.815365	-0.081994
C68	C	1.889270	-0.315365	0.418006
C69	C	1.407016	-0.717269	-0.066350
C70	C	1.907016	-0.217269	0.433650
C71	C	1.352932	-0.681984	-0.113844
C72	C	1.852932	-0.181984	0.386156
C73	C	1.281100	-0.744804	-0.176985
C74	C	1.781100	-0.244804	0.323015
C75	C	1.263348	-0.842911	-0.192628
C76	C	1.763348	-0.342911	0.307372
C77	C	1.227010	-0.709529	-0.224477
C78	C	1.727010	-0.209529	0.275523
C79	C	1.155177	-0.772350	-0.287618
C80	C	1.655177	-0.272350	0.212382
C81	C	1.137429	-0.870446	-0.303258
C82	C	1.637429	-0.370446	0.196742
C83	C	1.191513	-0.905732	-0.255764
C84	C	1.691513	-0.405732	0.244236
C85	C	1.244762	-0.611423	-0.208834
C86	C	1.744762	-0.111423	0.291166
C87	C	1.118839	-0.638968	-0.319467
C88	C	1.618839	-0.138968	0.180533
C89	C	1.101094	-0.737064	-0.335112
C90	C	1.601094	-0.237064	0.164888
C91	C	1.498911	-0.183203	-0.161790
C92	C	1.998911	0.316797	0.338210
C93	C	1.603317	-0.164261	-0.145169
C94	C	2.103317	0.335739	0.354831
C95	C	1.242337	-0.239215	-0.387487
C96	C	1.742337	0.260785	0.112513
C97	C	1.237406	-0.244142	-0.467045
C98	C	1.737406	0.255858	0.032955
C99	C	1.298453	0.017391	-0.161763
C100	C	1.798453	0.517391	0.338237
C101	C	1.317435	0.121814	-0.145131
C102	C	1.817435	0.621814	0.354869
C103	C	1.306079	-0.175480	-0.485291
C104	C	1.806079	0.324520	0.014709
C105	C	1.301434	-0.180109	-0.560046
C106	C	1.801434	0.319891	-0.060046
C107	C	1.228120	-0.253403	-0.616553
C108	C	1.728120	0.246597	-0.116553
C109	C	1.159441	-0.322069	-0.598304
C110	C	1.659441	0.177931	-0.098304
C111	C	1.164082	-0.317436	-0.523550
C112	C	1.664082	0.182564	-0.023550
C113	C	1.206624	-0.274866	-0.842174
C114	C	1.706624	0.225134	-0.342174
C115	C	1.201990	-0.279495	-0.916931
C116	C	1.701990	0.220505	-0.416931
C117	C	1.343983	-0.137533	-0.878668
C118	C	1.843983	0.362467	-0.378668
C119	C	1.348621	-0.132910	-0.803915
C120	C	1.848621	0.367090	-0.303915
C121	C	1.279938	-0.201573	-0.785672
C122	C	1.779938	0.298427	-0.285672
N123	N	1.223373	-0.258137	-0.692965
N124	N	1.723373	0.241863	-0.192965
N125	N	1.284682	-0.196834	-0.709262
N126	N	1.784682	0.303166	-0.209262
C127	C	1.265501	-0.216058	-0.014806
C128	C	1.765501	0.283942	0.485194
C129	C	1.270663	-0.210833	0.064823
C130	C	1.770663	0.289167	0.564823
H131	H	0.693409	-0.439192	-0.386405
H132	H	1.193409	0.060808	0.113595
H133	H	1.408323	-0.073228	-0.757910
H134	H	1.908323	0.426772	-0.257910
H135	H	1.303248	-0.560283	-0.157424
H136	H	1.803248	-0.060283	0.342576
F137	F	1.417073	-0.064461	-0.898090
F138	F	1.917073	0.435539	-0.398090
H139	H	1.108153	-0.373340	-0.508697
H140	H	1.608153	0.126660	-0.008697
H141	H	0.879405	-0.114097	-0.101158
H142	H	1.379405	0.385903	0.398842
H143	H	1.465500	-0.666124	-0.014940
H144	H	1.965500	-0.166124	0.485060
H145	H	0.560012	-0.402917	-0.354587
H146	H	1.060012	0.097083	0.145413
H147	H	1.142285	-0.339184	-0.962941
H148	H	1.642285	0.160816	-0.462941
H149	H	0.815335	-0.015968	-0.015051
H150	H	1.315335	0.484032	0.484949
H151	H	1.150709	-0.330788	-0.827331
H152	H	1.650709	0.169212	-0.327331
H153	H	1.357357	-0.124198	-0.574896
H154	H	1.857357	0.375802	-0.074896
H155	H	1.099744	-0.381744	-0.644318
H156	H	1.599744	0.118256	-0.144318
H157	H	0.495945	-0.304783	-0.268463
H158	H	0.995945	0.195217	0.231537
F159	F	1.372012	-0.577554	-0.097313
F160	F	1.872012	-0.077554	0.402687
F161	F	0.936965	-0.160262	-0.141666
F162	F	1.436965	0.339738	0.358334
F163	F	1.024647	-0.803933	-0.402309
F164	F	1.524647	-0.303933	0.097691
F165	F	0.628524	-0.034779	-0.031565
F166	F	1.128524	0.465221	0.468435
H167	H	1.074798	-0.610241	-0.358140
H168	H	1.574798	-0.110241	0.141860
H169	H	0.871403	-0.406854	-0.358041
H170	H	1.371403	0.093146	0.141959
H171	H	1.433292	-0.844106	-0.043328
H172	H	1.933292	-0.344106	0.456672
H173	H	1.177070	-0.985608	-0.268500
H174	H	1.677070	-0.485608	0.231500
H175	H	1.078928	-0.921595	-0.354665
H176	H	1.578928	-0.421595	0.145335
F177	F	1.384114	-0.097473	-0.425157
F178	F	1.884114	0.402527	0.074843
