data_functionalizedCrystal
_audit_creation_method	'MofGen! by Chris Wilmer'
_symmetry_space_group_name_H-M	'P1'
_symmetry_Int_Tables_number	1
_symmetry_cell_setting	triclinic
loop_
_symmetry_equiv_pos_as_xyz
  x,y,z
_cell_length_a	6.394984
_cell_length_b	10.723023
_cell_length_c	9.198806
_cell_angle_alpha	89.996513
_cell_angle_beta	89.998362
_cell_angle_gamma	85.481450
loop_
_atom_site_label
_atom_site_type_symbol
_atom_site_fract_x
_atom_site_fract_y
_atom_site_fract_z
O1	O	0.293015	1.660294	-0.120872
O2	O	0.793015	2.160294	0.379128
O3	O	0.321064	1.297439	-0.120878
O4	O	0.821064	1.797439	0.379122
O5	O	0.003048	1.484021	-0.120871
O6	O	0.503048	1.984021	0.379129
O7	O	0.611031	1.473713	-0.120880
O8	O	1.111031	1.973713	0.379120
O9	O	0.003047	1.484006	0.120914
O10	O	0.503047	1.984006	0.620914
O11	O	0.321063	1.297424	0.120907
O12	O	0.821063	1.797424	0.620907
O13	O	0.293014	1.660279	0.120913
O14	O	0.793014	2.160279	0.620913
Cu15	Cu	0.307039	1.478850	0.142987
Cu16	Cu	0.807039	1.978850	0.642987
Cu17	Cu	0.307040	1.478868	-0.142952
Cu18	Cu	0.807040	1.978868	0.357048
O19	O	0.611030	1.473698	0.120905
O20	O	1.111030	1.973698	0.620905
C21	C	0.319023	1.250910	0.000014
C22	C	0.819023	1.750910	0.500014
C23	C	0.312917	1.112291	0.000011
C24	C	0.812917	1.612291	0.500011
C25	C	0.310194	1.050483	0.125262
C26	C	0.810194	1.550483	0.625262
C27	C	0.303883	0.907213	0.125263
C28	C	0.803883	1.407213	0.625263
C29	C	0.925200	1.481963	0.000026
C30	C	1.425200	1.981963	0.500026
C31	C	0.688873	1.475752	0.000023
C32	C	1.188873	1.975752	0.500023
C33	C	0.295055	1.706808	0.000018
C34	C	0.795055	2.206808	0.500018
C35	C	0.301161	1.845427	0.000010
C36	C	0.801161	2.345427	0.500010
N37	N	0.307037	1.478847	0.344101
N38	N	0.807037	1.978847	0.844101
N39	N	0.307025	1.478881	-0.344066
N40	N	0.807025	1.978881	0.155934
C41	C	0.172922	1.557181	0.416301
C42	C	0.672922	2.057181	0.916301
C43	C	0.172915	1.557200	0.583713
C44	C	0.672915	2.057200	1.083713
H45	H	0.310570	1.059142	-0.107220
H46	H	0.810570	1.559142	0.392780
H47	H	0.312523	1.103634	0.232493
H48	H	0.812523	1.603634	0.732493
H49	H	0.421860	1.411817	0.593854
H50	H	0.921860	1.911817	1.093854
H51	H	0.058098	1.624228	0.354177
H52	H	0.558098	2.124228	0.854177
H53	H	0.058101	1.624270	0.645802
H54	H	0.558101	2.124270	1.145802
H55	H	0.421845	1.411791	0.406226
H56	H	0.921845	1.911791	0.906226
H57	H	0.303515	0.898572	-0.107227
H58	H	0.803515	1.398572	0.392773
H59	H	0.301553	0.854058	0.232494
H60	H	0.801553	1.354058	0.732494
