data_functionalizedCrystal
_audit_creation_method	'MofGen! by Chris Wilmer'
_symmetry_space_group_name_H-M	'P1'
_symmetry_Int_Tables_number	1
_symmetry_cell_setting	triclinic
loop_
_symmetry_equiv_pos_as_xyz
  x,y,z
_cell_length_a	13.897448
_cell_length_b	13.032831
_cell_length_c	13.032268
_cell_angle_alpha	89.113023
_cell_angle_beta	97.148041
_cell_angle_gamma	97.177601
loop_
_atom_site_label
_atom_site_type_symbol
_atom_site_fract_x
_atom_site_fract_y
_atom_site_fract_z
Zn1	Zn	-0.651422	-1.498483	-0.780818
Zn2	Zn	-0.318089	-1.165149	-0.447485
Zn3	Zn	0.015244	-0.831816	-0.114152
Zn4	Zn	-0.795137	-1.520226	-0.608835
Zn5	Zn	-0.461804	-1.186892	-0.275501
Zn6	Zn	-0.128471	-0.853559	0.057832
Zn7	Zn	-0.611127	-1.348341	-0.587060
Zn8	Zn	-0.277794	-1.015008	-0.253727
Zn9	Zn	0.055539	-0.681674	0.079606
Zn10	Zn	-0.789922	-1.326474	-0.758960
Zn11	Zn	-0.456589	-0.993141	-0.425627
Zn12	Zn	-0.123255	-0.659807	-0.092293
O13	O	-0.711902	-1.423381	-0.683918
O14	O	-0.378569	-1.090048	-0.350585
O15	O	-0.045236	-0.756714	-0.017252
O16	O	-0.689533	-1.645288	-0.776265
O17	O	-0.356199	-1.311954	-0.442931
O18	O	-0.022866	-0.978621	-0.109598
O19	O	-0.756047	-1.515676	-0.462030
O20	O	-0.422714	-1.182343	-0.128697
O21	O	-0.089380	-0.849009	0.204637
O22	O	-0.481501	-1.368309	-0.612798
O23	O	-0.148168	-1.034976	-0.279465
O24	O	0.185166	-0.701643	0.053869
O25	O	-0.795119	-1.661262	-0.649909
O26	O	-0.461786	-1.327929	-0.316576
O27	O	-0.128453	-0.994596	0.016758
O28	O	-0.511106	-1.478618	-0.755151
O29	O	-0.177772	-1.145285	-0.421818
O30	O	0.155561	-0.811951	-0.088484
O31	O	-0.620856	-1.389393	-0.446032
O32	O	-0.287522	-1.056059	-0.112699
O33	O	0.045811	-0.722726	0.220634
O34	O	-0.615798	-1.201520	-0.591603
O35	O	-0.282465	-0.868186	-0.258269
O36	O	0.050868	-0.534853	0.075064
O37	O	-0.786231	-1.331040	-0.905776
O38	O	-0.452897	-0.997707	-0.572443
O39	O	-0.119564	-0.664374	-0.239109
O40	O	-0.747158	-1.185454	-0.717897
O41	O	-0.413825	-0.852121	-0.384563
O42	O	-0.080492	-0.518787	-0.051230
O43	O	-0.684476	-1.457414	-0.921835
O44	O	-0.351142	-1.124081	-0.588502
O45	O	-0.017809	-0.790748	-0.255169
O46	O	-0.929417	-1.494472	-0.628714
O47	O	-0.596084	-1.161139	-0.295381
O48	O	-0.262750	-0.827806	0.037953
O49	O	-0.925585	-1.352124	-0.739010
O50	O	-0.592252	-1.018790	-0.405677
O51	O	-0.258919	-0.685457	-0.072344
C52	C	-0.676541	-1.156170	-0.650016
C53	C	-0.343207	-0.822836	-0.316682
C54	C	-0.009874	-0.489503	0.016651
C55	C	-0.661439	-1.041852	-0.635536
C56	C	-0.328105	-0.708519	-0.302203
C57	C	0.005228	-0.375186	0.031130
C58	C	-0.962504	-1.423310	-0.683879
C59	C	-0.629170	-1.089976	-0.350546
C60	C	-0.295837	-0.756643	-0.017212
C61	C	-1.069728	-1.423369	-0.683909
C62	C	-0.736395	-1.090035	-0.350575
C63	C	-0.403061	-0.756702	-0.017242
C64	C	-0.739266	-1.389363	-0.952165
C65	C	-0.405933	-1.056029	-0.618832
C66	C	-0.072600	-0.722696	-0.285498
C67	C	-0.750927	-1.374866	-1.066476
C68	C	-0.417594	-1.041533	-0.733142
C69	C	-0.084260	-0.708200	-0.399809
C70	C	-1.266044	-1.423469	-0.683987
C71	C	-0.932710	-1.090135	-0.350653
C72	C	-0.599377	-0.756802	-0.017320
C73	C	-1.156800	-1.423410	-0.683946
C74	C	-0.823466	-1.090076	-0.350613
C75	C	-0.490133	-0.756743	-0.017279
C76	C	-0.460328	-1.423478	-0.683984
C77	C	-0.126995	-1.090144	-0.350651
C78	C	0.206338	-0.756811	-0.017317
C79	C	-0.353122	-1.423519	-0.684012
C80	C	-0.019789	-1.090185	-0.350678
C81	C	0.313544	-0.756852	-0.017345
C82	C	-0.747403	-1.691635	-0.717954
C83	C	-0.414069	-1.358302	-0.384621
C84	C	-0.080736	-1.024969	-0.051287
C85	C	-0.762531	-1.805950	-0.732458
C86	C	-0.429197	-1.472616	-0.399125
C87	C	-0.095864	-1.139283	-0.065791
C88	C	-0.719784	-0.982977	-0.691475
C89	C	-0.386451	-0.649643	-0.358142
C90	C	-0.053118	-0.316310	-0.024809
C91	C	-0.704177	-0.864824	-0.676511
C92	C	-0.370844	-0.531490	-0.343178
C93	C	-0.037510	-0.198157	-0.009845
C94	C	-0.705779	-1.430931	-1.125385
C95	C	-0.372446	-1.097597	-0.792051
C96	C	-0.039113	-0.764264	-0.458718
C97	C	-0.717831	-1.415949	-1.243531
C98	C	-0.384497	-1.082616	-0.910197
C99	C	-0.051164	-0.749283	-0.576864
C100	C	-0.684583	-1.457326	-0.416723
C101	C	-0.351250	-1.123992	-0.083390
C102	C	-0.017916	-0.790659	0.249944
C103	C	-0.672677	-1.472021	-0.302438
C104	C	-0.339343	-1.138688	0.030895
C105	C	-0.006010	-0.805355	0.364229
H106	H	-0.781288	-1.020043	-0.750448
H107	H	-0.447954	-0.686709	-0.417115
H108	H	-0.114621	-0.353376	-0.083781
H109	H	-0.599929	-1.004785	-0.576571
H110	H	-0.266595	-0.671452	-0.243238
H111	H	0.066738	-0.338119	0.090095
H112	H	-0.658201	-1.490017	-1.088351
H113	H	-0.324868	-1.156684	-0.755018
H114	H	0.008465	-0.823350	-0.421685
H115	H	-0.798494	-1.315770	-1.103508
H116	H	-0.465161	-0.982436	-0.770174
H117	H	-0.131827	-0.649103	-0.436841
Br118	Br	-0.797122	-1.317445	-1.305237
Br119	Br	-0.463788	-0.984111	-0.971904
Br120	Br	-0.130455	-0.650778	-0.638571
H121	H	-0.642663	-0.827761	-0.617542
H122	H	-0.309329	-0.494428	-0.284209
H123	H	0.024004	-0.161094	0.049124
Br124	Br	-0.865038	-0.867707	-0.830774
Br125	Br	-0.531705	-0.534374	-0.497440
Br126	Br	-0.198372	-0.201041	-0.164107
H127	H	-0.625093	-1.531110	-1.265411
H128	H	-0.291759	-1.197777	-0.932077
H129	H	0.041574	-0.864444	-0.598744
