data_functionalizedCrystal
_audit_creation_method	'MofGen! by Chris Wilmer'
_symmetry_space_group_name_H-M	'P1'
_symmetry_Int_Tables_number	1
_symmetry_cell_setting	triclinic
loop_
_symmetry_equiv_pos_as_xyz
  x,y,z
_cell_length_a	21.395362
_cell_length_b	18.215405
_cell_length_c	21.395356
_cell_angle_alpha	89.970979
_cell_angle_beta	89.957023
_cell_angle_gamma	90.040762
loop_
_atom_site_label
_atom_site_type_symbol
_atom_site_fract_x
_atom_site_fract_y
_atom_site_fract_z
Zn1	Zn	0.957879	-0.292691	-0.354580
Zn2	Zn	0.957794	-0.415759	-0.249800
Zn3	Zn	0.853096	-0.292745	-0.249781
Zn4	Zn	0.853074	-0.415754	-0.354505
O5	O	0.905460	-0.354237	-0.302166
O6	O	1.045546	-0.308996	-0.340720
O7	O	0.943879	-0.399465	-0.162119
O8	O	0.867040	-0.189753	-0.263706
O9	O	1.045483	-0.399413	-0.263739
O10	O	0.944024	-0.189714	-0.340702
O11	O	0.866958	-0.309087	-0.162106
O12	O	0.765415	-0.309083	-0.263634
O13	O	0.867003	-0.399405	-0.442193
O14	O	0.765399	-0.399458	-0.340573
O15	O	0.944003	-0.308991	-0.442248
O16	O	0.943858	-0.518743	-0.263666
O17	O	0.866920	-0.518739	-0.340592
C18	C	0.742673	-0.354276	-0.302094
C19	C	0.673032	-0.354311	-0.302077
C20	C	0.640326	-0.401431	-0.342080
C21	C	0.574891	-0.401413	-0.342108
C22	C	0.542163	-0.354282	-0.302122
C23	C	0.574876	-0.307153	-0.262117
C24	C	0.640310	-0.307167	-0.262094
C25	C	0.438439	-0.348364	-0.245717
C26	C	0.373006	-0.348355	-0.245738
C27	C	0.340343	-0.354234	-0.302191
C28	C	0.373120	-0.360138	-0.358625
C29	C	0.438554	-0.360152	-0.358602
C30	C	0.471211	-0.354261	-0.302142
C31	C	0.236685	-0.401338	-0.342228
C32	C	0.171248	-0.401314	-0.342256
C33	C	0.171235	-0.307058	-0.262260
C34	C	0.236670	-0.307077	-0.262236
C35	C	0.269391	-0.354221	-0.302219
C36	C	0.905394	-0.545444	-0.302136
C37	C	0.905423	-0.627243	-0.302144
C38	C	0.945579	-0.815414	-0.262163
C39	C	0.945607	-0.892272	-0.262178
C40	C	0.865422	-0.892309	-0.342215
C41	C	0.865398	-0.815452	-0.342203
C42	C	0.905475	-0.777006	-0.302173
C43	C	0.905528	-0.930722	-0.302201
C44	C	0.905558	-1.014056	-0.302217
C45	C	0.905446	-0.693667	-0.302157
C46	C	1.068884	-0.354199	-0.302240
C47	C	1.138525	-0.354182	-0.302271
C48	C	0.905510	-0.354192	-0.465590
C49	C	0.905531	-0.354172	-0.535231
C50	C	0.905544	-0.162284	-0.302210
C51	C	0.905580	-0.080485	-0.302229
C52	C	0.865489	-0.307107	-0.567927
C53	C	0.865486	-0.307094	-0.633363
C54	C	0.905538	-0.354137	-0.666099
C55	C	0.945583	-0.401211	-0.633395
C56	C	0.945579	-0.401229	-0.567961
C57	C	0.961990	-0.359905	-0.769805
C58	C	0.961995	-0.359882	-0.835238
C59	C	0.905548	-0.354088	-0.867920
C60	C	0.849095	-0.348300	-0.835162
C61	C	0.849092	-0.348318	-0.769728
C62	C	0.905546	-0.354124	-0.737052
C63	C	0.865500	-0.307005	-0.971569
C64	C	0.865497	-0.306997	-1.037006
C65	C	0.945599	-0.401111	-1.037037
C66	C	0.945596	-0.401123	-0.971602
C67	C	0.905548	-0.354066	-0.938872
C68	C	0.905447	-0.354230	-0.139379
C69	C	0.905548	-0.354042	-0.069738
H70	H	0.346527	-0.364924	-0.404594
C71	C	0.821442	-0.255315	-0.669336
H72	H	0.797594	-0.227290	-0.640471
H73	H	0.794131	-0.283461	-0.694839
H74	H	0.845436	-0.223239	-0.694883
H75	H	0.144621	-0.439684	-0.374835
C76	C	0.676316	-0.453279	-0.386067
H77	H	0.647463	-0.481335	-0.409899
H78	H	0.701794	-0.485313	-0.362044
H79	H	0.701890	-0.425168	-0.413405
C80	C	0.989712	-0.934521	-0.218161
H81	H	0.983992	-0.985801	-0.223902
H82	H	0.980556	-0.921970	-0.176051
H83	H	1.031805	-0.921865	-0.227381
H84	H	0.548257	-0.439784	-0.374685
H85	H	0.832890	-0.268689	-0.944919
C86	C	0.474607	-0.366634	-0.420674
H87	H	0.445787	-0.370128	-0.454302
H88	H	0.500103	-0.409295	-0.419787
H89	H	0.500169	-0.324464	-0.426232
H90	H	1.007962	-0.364591	-0.861905
H91	H	0.978193	-0.439515	-0.660054
C92	C	0.272681	-0.453184	-0.386213
H93	H	0.243828	-0.481238	-0.410049
H94	H	0.298155	-0.485221	-0.362188
H95	H	0.298258	-0.425075	-0.413548
H96	H	0.832741	-0.784178	-0.374787
C97	C	0.989667	-0.773126	-0.218138
H98	H	1.013560	-0.807011	-0.194316
H99	H	0.965709	-0.743195	-0.190801
H100	H	1.016946	-0.743091	-0.242142
C101	C	0.821335	-0.934601	-0.386238
H102	H	0.827087	-0.985876	-0.380511
H103	H	0.830474	-0.921962	-0.428346
H104	H	0.779237	-0.922064	-0.377005
C105	C	0.272651	-0.255251	-0.218230
H106	H	0.316307	-0.262005	-0.223946
H107	H	0.261873	-0.265951	-0.176119
H108	H	0.261975	-0.205814	-0.227485
H109	H	0.803131	-0.343577	-0.861770
H110	H	0.832876	-0.268793	-0.541282
H111	H	0.144589	-0.268680	-0.229705
C112	C	0.336957	-0.341860	-0.183665
H113	H	0.365780	-0.338347	-0.150042
H114	H	0.311392	-0.384022	-0.178096
H115	H	0.311465	-0.299192	-0.184560
H116	H	0.803126	-0.343607	-0.743058
H117	H	0.978205	-0.439447	-0.944980
H118	H	0.832885	-0.268673	-1.063626
C119	C	0.989655	-0.452857	-1.073040
H120	H	0.983926	-0.446104	-1.116693
H121	H	0.980466	-0.502309	-1.062297
H122	H	1.031759	-0.442073	-1.062348
C123	C	1.024086	-0.366274	-0.733860
H124	H	1.057707	-0.369706	-0.762740
H125	H	1.023257	-0.408938	-0.708321
H126	H	1.029606	-0.324096	-0.708351
H127	H	0.978189	-0.439554	-0.541340
C128	C	0.474365	-0.341897	-0.183616
H129	H	0.518030	-0.342744	-0.191685
H130	H	0.463583	-0.381888	-0.157203
H131	H	0.463654	-0.297057	-0.163656
C132	C	0.538879	-0.255310	-0.218133
H133	H	0.495224	-0.262055	-0.223871
H134	H	0.549649	-0.205880	-0.227377
H135	H	0.549549	-0.266021	-0.176013
H136	H	0.666939	-0.268794	-0.229519
