data_functionalizedCrystal
_audit_creation_method	'MofGen! by Chris Wilmer'
_symmetry_space_group_name_H-M	'P1'
_symmetry_Int_Tables_number	1
_symmetry_cell_setting	triclinic
loop_
_symmetry_equiv_pos_as_xyz
  x,y,z
_cell_length_a	25.639242
_cell_length_b	29.839131
_cell_length_c	25.639233
_cell_angle_alpha	90.019585
_cell_angle_beta	90.022166
_cell_angle_gamma	90.036947
loop_
_atom_site_label
_atom_site_type_symbol
_atom_site_fract_x
_atom_site_fract_y
_atom_site_fract_z
Zn1	Zn	0.799215	-0.178962	0.295739
Zn2	Zn	1.299215	0.321038	0.795739
Zn3	Zn	0.799134	-0.254076	0.208302
Zn4	Zn	1.299134	0.245924	0.708302
Zn5	Zn	0.711791	-0.178955	0.208303
Zn6	Zn	1.211791	0.321045	0.708303
Zn7	Zn	0.711732	-0.254059	0.295692
Zn8	Zn	1.211732	0.245941	0.795692
O9	O	0.755468	-0.216513	0.252009
O10	O	1.255468	0.283487	0.752009
O11	O	0.872370	-0.188935	0.284160
O12	O	1.372370	0.311065	0.784160
O13	O	0.787539	-0.244115	0.135137
O14	O	1.287539	0.255885	0.635137
O15	O	0.723447	-0.116089	0.219922
O16	O	1.223447	0.383911	0.719922
O17	O	0.872310	-0.244122	0.219920
O18	O	1.372310	0.255878	0.719920
O19	O	0.787677	-0.116094	0.284161
O20	O	1.287677	0.383906	0.784161
O21	O	0.723369	-0.188924	0.135138
O22	O	1.223369	0.311076	0.635138
O23	O	0.638618	-0.188908	0.219876
O24	O	1.138618	0.311092	0.719876
O25	O	0.723346	-0.244093	0.368864
O26	O	1.223346	0.255907	0.868864
O27	O	0.638575	-0.244087	0.284081
O28	O	1.138575	0.255913	0.784081
O29	O	0.787619	-0.188919	0.368898
O30	O	1.287619	0.311081	0.868898
O31	O	0.787482	-0.316941	0.219875
O32	O	1.287482	0.183059	0.719875
O33	O	0.723268	-0.316929	0.284080
O34	O	1.223268	0.183071	0.784080
C35	C	0.619626	-0.216495	0.251974
C36	C	1.119626	0.283505	0.751974
C37	C	0.561512	-0.216499	0.251971
C38	C	1.061512	0.283501	0.751971
C39	C	0.201135	-0.245293	0.285409
C40	C	0.701135	0.254707	0.785409
C41	C	0.146531	-0.245295	0.285417
C42	C	0.646531	0.254705	0.785417
O43	O	0.118282	-0.269755	0.313817
O44	O	0.618282	0.230245	0.813817
N45	N	0.119229	-0.216525	0.252043
N46	N	0.619229	0.283475	0.752043
C47	C	0.146535	-0.187748	0.218663
C48	C	0.646535	0.312252	0.718663
O49	O	0.118299	-0.163276	0.190277
O50	O	0.618299	0.336724	0.690277
C51	C	0.201138	-0.187743	0.218658
C52	C	0.701138	0.312257	0.718658
C53	C	0.228437	-0.216518	0.252030
C54	C	0.728437	0.283482	0.752030
C55	C	0.228434	-0.274065	0.318778
C56	C	0.728434	0.225935	0.818778
C57	C	0.283034	-0.274063	0.318769
C58	C	0.783034	0.225937	0.818769
C59	C	0.310336	-0.245288	0.285390
C60	C	0.810336	0.254712	0.785390
C61	C	0.283037	-0.216516	0.252021
C62	C	0.783037	0.283484	0.752021
C63	C	0.228443	-0.158963	0.185281
C64	C	0.728443	0.341037	0.685281
C65	C	0.283050	-0.158961	0.185279
C66	C	0.783050	0.341039	0.685279
C67	C	0.310349	-0.187736	0.218651
C68	C	0.810349	0.312264	0.718651
C69	C	0.364940	-0.187739	0.218633
C70	C	0.864940	0.312261	0.718633
N71	N	0.392241	-0.216509	0.252006
N72	N	0.892241	0.283491	0.752006
C73	C	0.364939	-0.245283	0.285385
C74	C	0.864939	0.254717	0.785385
C75	C	0.031864	-0.187759	0.218677
C76	C	0.531864	0.312241	0.718677
C77	C	-0.022738	-0.187766	0.218679
C78	C	0.477262	0.312234	0.718679
C79	C	-0.022739	-0.245313	0.285434
C80	C	0.477261	0.254687	0.785434
C81	C	0.031865	-0.245308	0.285429
C82	C	0.531865	0.254692	0.785429
C83	C	0.059166	-0.216529	0.252051
C84	C	0.559166	0.283471	0.752051
C85	C	0.479604	-0.245277	0.285363
C86	C	0.979604	0.254723	0.785363
C87	C	0.534210	-0.245273	0.285350
C88	C	1.034210	0.254727	0.785350
C89	C	0.534206	-0.187724	0.218597
C90	C	1.034206	0.312276	0.718597
C91	C	0.479605	-0.187729	0.218609
C92	C	0.979605	0.312271	0.718609
C93	C	0.452306	-0.216507	0.251996
C94	C	0.952306	0.283493	0.751996
O95	O	0.393223	-0.163290	0.190249
O96	O	0.893223	0.336710	0.690249
O97	O	0.393182	-0.269746	0.313771
O98	O	0.893182	0.230254	0.813771
C99	C	0.755374	-0.333236	0.251983
C100	C	1.255374	0.166764	0.751983
C101	C	0.755381	-0.383170	0.251990
C102	C	1.255381	0.116830	0.751990
C103	C	0.788965	-0.692807	0.218627
C104	C	1.288965	-0.192807	0.718627
C105	C	0.789030	-0.880480	0.218647
C106	C	1.289030	-0.380480	0.718647
O107	O	0.817509	-0.904740	0.190260
O108	O	1.317509	-0.404740	0.690260
N109	N	0.755577	-0.903955	0.252049
N110	N	1.255577	-0.403955	0.752049
C111	C	0.722108	-0.880509	0.285450
C112	C	1.222108	-0.380509	0.785450
O113	O	0.693659	-0.904782	0.313865
O114	O	1.193659	-0.404782	0.813865
C115	C	0.722046	-0.692837	0.285432
C116	C	1.222046	-0.192837	0.785432
C117	C	0.755498	-0.669364	0.252024
C118	C	1.255498	-0.169364	0.752024
C119	C	0.822415	-0.669335	0.185222
C120	C	1.322415	-0.169335	0.685222
C121	C	0.822396	-0.622419	0.185215
C122	C	1.322396	-0.122419	0.685215
C123	C	0.788928	-0.598976	0.218613
C124	C	1.288928	-0.098976	0.718613
C125	C	0.755479	-0.622449	0.252018
C126	C	1.255479	-0.122449	0.752018
C127	C	0.688580	-0.669391	0.318836
C128	C	1.188580	-0.169391	0.818836
C129	C	0.688568	-0.622470	0.318829
C130	C	1.188568	-0.122470	0.818829
C131	C	0.722020	-0.598998	0.285422
C132	C	1.222020	-0.098998	0.785422
C133	C	0.721993	-0.552090	0.285409
C134	C	1.221993	-0.052090	0.785409
N135	N	0.755446	-0.528615	0.252007
N136	N	1.255446	-0.028615	0.752007
C137	C	0.788914	-0.552058	0.218609
C138	C	1.288914	-0.052058	0.718609
C139	C	0.722141	-0.979039	0.285457
C140	C	1.222141	-0.479039	0.785457
C141	C	0.722156	-1.025957	0.285461
C142	C	1.222156	-0.525957	0.785461
C143	C	0.789079	-1.025925	0.218658
C144	C	1.289079	-0.525925	0.718658
C145	C	0.789062	-0.979007	0.218652
C146	C	1.289062	-0.479007	0.718652
C147	C	0.755595	-0.955565	0.252055
C148	C	1.255595	-0.455565	0.752055
C149	C	0.788872	-0.453533	0.218597
C150	C	1.288872	0.046467	0.718597
C151	C	0.788849	-0.406613	0.218592
C152	C	1.288849	0.093387	0.718592
C153	C	0.721928	-0.406649	0.285396
C154	C	1.221928	0.093351	0.785396
C155	C	0.721949	-0.453564	0.285400
C156	C	1.221949	0.046436	0.785400
C157	C	0.755425	-0.477005	0.251999
C158	C	1.255425	0.022995	0.751999
O159	O	0.693533	-0.527802	0.313784
O160	O	1.193533	-0.027802	0.813784
O161	O	0.817366	-0.527777	0.190207
O162	O	1.317366	-0.027777	0.690207
C163	C	0.788984	-0.739723	0.218633
C164	C	1.288984	-0.239723	0.718633
C165	C	0.755535	-0.763195	0.252038
C166	C	1.255535	-0.263195	0.752038
C167	C	0.722067	-0.739752	0.285436
C168	C	1.222067	-0.239752	0.785436
C169	C	0.755549	-0.810113	0.252042
C170	C	1.255549	-0.310113	0.752042
C171	C	0.789017	-0.833556	0.218644
C172	C	1.289017	-0.333556	0.718644
C173	C	0.822470	-0.810081	0.185242
C174	C	1.322470	-0.310081	0.685242
C175	C	0.822451	-0.763166	0.185235
C176	C	1.322451	-0.263166	0.685235
C177	C	0.688614	-0.763227	0.318838
C178	C	1.188614	-0.263227	0.818838
C179	C	0.688635	-0.810143	0.318841
C180	C	1.188635	-0.310143	0.818841
C181	C	0.722102	-0.833585	0.285443
C182	C	1.222102	-0.333585	0.785443
C183	C	0.891841	-0.216531	0.252045
C184	C	1.391841	0.283469	0.752045
C185	C	0.949955	-0.216539	0.252060
C186	C	1.449955	0.283461	0.752060
C187	C	0.755485	-0.216505	0.388382
C188	C	1.255485	0.283495	0.888382
C189	C	0.755492	-0.216502	0.446496
C190	C	1.255492	0.283498	0.946496
C191	C	0.755577	-0.099335	0.252047
C192	C	1.255577	0.400665	0.752047
C193	C	0.755624	-0.049400	0.252063
C194	C	1.255624	0.450600	0.752063
C195	C	0.755482	-0.216488	0.116167
C196	C	1.255482	0.283512	0.616167
C197	C	0.755576	-0.216365	0.058053
C198	C	1.255576	0.283635	0.558053
C199	C	0.789002	-0.187687	0.806883
C200	C	1.289002	0.312313	1.306883
C201	C	0.789008	-0.187675	0.861488
C202	C	1.289008	0.312325	1.361488
O203	O	0.817457	-0.163229	0.889744
O204	O	1.317457	0.336771	1.389744
N205	N	0.755550	-0.216396	0.888779
N206	N	1.255550	0.283604	1.388779
C207	C	0.722079	-0.245129	0.861463
C208	C	1.222079	0.254871	1.361463
O209	O	0.693621	-0.269558	0.889691
O210	O	1.193621	0.230442	1.389691
C211	C	0.722071	-0.245139	0.806860
C212	C	1.222071	0.254861	1.306860
C213	C	0.755535	-0.216419	0.779571
C214	C	1.255535	0.283581	1.279571
C215	C	0.822463	-0.158969	0.779594
C216	C	1.322463	0.341031	1.279594
C217	C	0.822457	-0.158982	0.724994
C218	C	1.322457	0.341018	1.224994
C219	C	0.788990	-0.187714	0.697682
C220	C	1.288990	0.312286	1.197682
C221	C	0.755529	-0.216432	0.724971
C222	C	1.255529	0.283568	1.224971
C223	C	0.688598	-0.273869	0.779545
C224	C	1.188598	0.226131	1.279545
C225	C	0.688592	-0.273876	0.724938
C226	C	1.188592	0.226124	1.224938
C227	C	0.722056	-0.245156	0.697650
C228	C	1.222056	0.254844	1.197650
C229	C	0.722056	-0.245176	0.643058
C230	C	1.222056	0.254824	1.143058
N231	N	0.755514	-0.216455	0.615767
N232	N	1.255514	0.283545	1.115767
C233	C	0.788981	-0.187723	0.643079
C234	C	1.288981	0.312277	1.143079
C235	C	0.722100	-0.245106	0.976134
C236	C	1.222100	0.254894	1.476134
C237	C	0.722110	-0.245099	1.030736
C238	C	1.222110	0.254901	1.530736
C239	C	0.789039	-0.187644	1.030757
C240	C	1.289039	0.312356	1.530757
C241	C	0.789030	-0.187653	0.976153
C242	C	1.289030	0.312347	1.476153
C243	C	0.755558	-0.216384	0.948843
C244	C	1.255558	0.283616	1.448843
C245	C	0.788967	-0.187753	0.528414
C246	C	1.288967	0.312247	1.028414
C247	C	0.788959	-0.187770	0.473808
C248	C	1.288959	0.312230	0.973808
C249	C	0.722029	-0.245223	0.473793
C250	C	1.222029	0.254777	0.973793
C251	C	0.722038	-0.245208	0.528393
C252	C	1.222038	0.254792	1.028393
C253	C	0.755509	-0.216470	0.555702
C254	C	1.255509	0.283530	1.055702
O255	O	0.693620	-0.269609	0.614767
O256	O	1.193620	0.230391	1.114767
O257	O	0.817430	-0.163295	0.614845
O258	O	1.317430	0.336705	1.114845
H259	H	0.305276	-0.135522	0.158101
H260	H	0.805276	0.364478	0.658101
C261	C	0.685897	-1.051414	0.321816
C262	C	1.185897	-0.551414	0.821816
C263	C	0.697255	-1.039979	0.373557
C264	C	1.197255	-0.539979	0.873557
C265	C	0.663870	-1.063423	0.407065
C266	C	1.163870	-0.563423	0.907065
H267	H	0.650752	-1.043774	0.314195
H268	H	1.150752	-0.543774	0.814195
H269	H	0.690700	-1.082720	0.317074
H270	H	1.190700	-0.582720	0.817074
H271	H	0.692448	-1.008681	0.378296
H272	H	1.192448	-0.508681	0.878296
H273	H	0.732394	-1.047621	0.381193
H274	H	1.232394	-0.547621	0.881193
H275	H	0.668673	-1.094729	0.402324
H276	H	1.168673	-0.594729	0.902324
H277	H	0.628727	-1.055781	0.399440
H278	H	1.128727	-0.555781	0.899440
H279	H	0.671575	-1.055671	0.442175
H280	H	1.171575	-0.555671	0.942175
H281	H	0.694712	-0.472677	0.312605
H282	H	1.194712	0.027323	0.812605
C283	C	0.652201	-0.694893	0.355026
C284	C	1.152201	-0.194893	0.855026
C285	C	0.618702	-0.721861	0.325401
C286	C	1.118702	-0.221861	0.825401
C287	C	0.585178	-0.745354	0.358724
C288	C	1.085178	-0.245354	0.858724
H289	H	0.672135	-0.713205	0.377840
H290	H	1.172135	-0.213205	0.877840
H291	H	0.632241	-0.674220	0.374907
H292	H	1.132241	-0.174220	0.874907
H293	H	0.638659	-0.742531	0.305528
H294	H	1.138659	-0.242531	0.805528
H295	H	0.598757	-0.703560	0.302588
H296	H	1.098757	-0.203560	0.802588
H297	H	0.565219	-0.724682	0.378605
H298	H	1.065219	-0.224682	0.878605
H299	H	0.605116	-0.763664	0.381537
H300	H	1.105116	-0.263664	0.881537
H301	H	0.562442	-0.763651	0.338628
H302	H	1.062442	-0.263651	0.838628
C303	C	0.685795	-0.276445	0.558054
C304	C	1.185795	0.223555	1.058054
C305	C	0.715370	-0.305243	0.589404
C306	C	1.215370	0.194757	1.089404
C307	C	0.681996	-0.334024	0.616727
C308	C	1.181996	0.165976	1.116727
H309	H	0.663022	-0.259299	0.579389
H310	H	1.163022	0.240701	1.079389
H311	H	0.665871	-0.293586	0.533984
H312	H	1.165871	0.206414	1.033984
H313	H	0.735285	-0.288104	0.613471
H314	H	1.235285	0.211896	1.113471
H315	H	0.738141	-0.322398	0.568083
H316	H	1.238141	0.177602	1.068083
H317	H	0.662072	-0.351165	0.592657
H318	H	1.162072	0.148835	1.092657
H319	H	0.659225	-0.316875	0.638058
H320	H	1.159225	0.183125	1.138058
H321	H	0.702058	-0.353570	0.637997
H322	H	1.202058	0.146430	1.137997
C323	C	0.858744	-0.835522	0.148902
C324	C	1.358744	-0.335522	0.648902
C325	C	0.847394	-0.824161	0.097150
C326	C	1.347394	-0.324161	0.597150
C327	C	0.880794	-0.847599	0.063666
C328	C	1.380794	-0.347599	0.563666
H329	H	0.893885	-0.827825	0.156524
H330	H	1.393885	-0.327825	0.656524
H331	H	0.853951	-0.866829	0.153666
H332	H	1.353951	-0.366829	0.653666
H333	H	0.852191	-0.792862	0.092388
H334	H	1.352191	-0.292862	0.592388
H335	H	0.812259	-0.831860	0.089511
H336	H	1.312259	-0.331860	0.589511
H337	H	0.876001	-0.878905	0.068430
H338	H	1.376001	-0.378905	0.568430
H339	H	0.915933	-0.839899	0.071293
H340	H	1.415933	-0.339899	0.571293
H341	H	0.873095	-0.839897	0.028549
H342	H	1.373095	-0.339897	0.528549
H343	H	0.694677	-0.387554	0.312587
H344	H	1.194677	0.112446	0.812587
H345	H	0.849706	-0.135594	0.702780
H346	H	1.349706	0.364406	1.202780
H347	H	0.054089	-0.164324	0.191493
H348	H	0.554089	0.335676	0.691493
C349	C	0.563820	-0.276460	0.321674
C350	C	1.063820	0.223540	0.821674
C351	C	0.550580	-0.266734	0.373427
C352	C	1.050580	0.233266	0.873427
C353	C	0.577849	-0.295447	0.406903
C354	C	1.077849	0.204553	0.906903
H355	H	0.554867	-0.306651	0.314029
H356	H	1.054867	0.193349	0.814029
H357	H	0.600255	-0.272336	0.316926
H358	H	1.100255	0.227664	0.816926
H359	H	0.514152	-0.270861	0.378173
H360	H	1.014152	0.229139	0.878173
H361	H	0.559534	-0.236547	0.381088
H362	H	1.059534	0.263453	0.881088
H363	H	0.614285	-0.291324	0.402155
H364	H	1.114285	0.208676	0.902155
H365	H	0.568894	-0.325637	0.399254
H366	H	1.068894	0.174363	0.899254
H367	H	0.568873	-0.288850	0.442021
H368	H	1.068873	0.211150	0.942021
H369	H	0.661390	-0.829250	0.346045
H370	H	1.161390	-0.329250	0.846045
C371	C	0.858862	-0.127756	0.809147
C372	C	1.358862	0.372244	1.309147
C373	C	0.888168	-0.102620	0.773551
C374	C	1.388168	0.397380	1.273551
C375	C	0.921714	-0.073868	0.800751
C376	C	1.421714	0.426132	1.300751
H377	H	0.838948	-0.108132	0.830450
H378	H	1.338948	0.391868	1.330450
H379	H	0.881660	-0.144931	0.830437
H380	H	1.381660	0.355069	1.330437
H381	H	0.865372	-0.085447	0.752270
H382	H	1.365372	0.414553	1.252270
H383	H	0.908092	-0.122233	0.752247
H384	H	1.408092	0.377767	1.252247
H385	H	0.944513	-0.091042	0.822041
H386	H	1.444513	0.408958	1.322041
H387	H	0.901796	-0.054246	0.822053
H388	H	1.401796	0.445754	1.322053
H389	H	0.941605	-0.056812	0.776604
H390	H	1.441605	0.443188	1.276604
H391	H	0.694783	-0.268617	0.451545
H392	H	1.194783	0.231383	0.951545
H393	H	0.457384	-0.268709	0.312552
H394	H	0.957384	0.231291	0.812552
C395	C	0.825365	-0.156537	0.557964
C396	C	1.325365	0.343463	1.057964
C397	C	0.854674	-0.131401	0.522370
C398	C	1.354674	0.368599	1.022370
C399	C	0.888217	-0.102647	0.549572
C400	C	1.388217	0.397353	1.049572
H401	H	0.805449	-0.136912	0.579264
H402	H	1.305449	0.363088	1.079264
H403	H	0.848162	-0.173710	0.579257
H404	H	1.348162	0.326290	1.079257
H405	H	0.831880	-0.114229	0.501086
H406	H	1.331880	0.385771	1.001086
H407	H	0.874601	-0.151015	0.501069
H408	H	1.374601	0.348985	1.001069
H409	H	0.911014	-0.119820	0.570865
H410	H	1.411014	0.380180	1.070865
H411	H	0.868296	-0.083025	0.570870
H412	H	1.368296	0.416975	1.070870
H413	H	0.908110	-0.085592	0.525425
H414	H	1.408110	0.414408	1.025425
C415	C	-0.052293	-0.276602	0.321698
C416	C	0.447707	0.223398	0.821698
C417	C	-0.016703	-0.301808	0.350918
C418	C	0.483297	0.198192	0.850918
C419	C	-0.043911	-0.330638	0.384322
C420	C	0.456089	0.169362	0.884322
H421	H	-0.073572	-0.259494	0.344562
H422	H	0.426428	0.240506	0.844562
H423	H	-0.073607	-0.296175	0.301670
H424	H	0.426393	0.203825	0.801670
H425	H	0.004601	-0.282237	0.370945
H426	H	0.504601	0.217763	0.870945
H427	H	0.004577	-0.318925	0.328069
H428	H	0.504577	0.181075	0.828069
H429	H	-0.065225	-0.350212	0.364294
H430	H	0.434775	0.149788	0.864294
H431	H	-0.065189	-0.313527	0.407182
H432	H	0.434811	0.186473	0.907182
H433	H	-0.019768	-0.347747	0.404148
H434	H	0.480232	0.152253	0.904148
C435	C	0.198770	-0.305236	0.355085
C436	C	0.698770	0.194764	0.855085
C437	C	0.167463	-0.279852	0.388670
C438	C	0.667463	0.220148	0.888670
C439	C	0.140140	-0.308557	0.422126
C440	C	0.640140	0.191443	0.922126
H441	H	0.177406	-0.324798	0.335107
H442	H	0.677406	0.175202	0.835107
H443	H	0.222840	-0.322361	0.374986
H444	H	0.722840	0.177639	0.874986
H445	H	0.143397	-0.262736	0.368771
H446	H	0.643397	0.237264	0.868771
H447	H	0.188814	-0.260292	0.408660
H448	H	0.688814	0.239708	0.908660
H449	H	0.164209	-0.325681	0.442027
H450	H	0.664209	0.174319	0.942027
H451	H	0.118779	-0.328117	0.402144
H452	H	0.618779	0.171883	0.902144
H453	H	0.118899	-0.291338	0.444920
H454	H	0.618899	0.208662	0.944920
C455	C	0.563785	-0.156412	0.182387
C456	C	1.063785	0.343588	0.682387
C457	C	0.550531	-0.111978	0.193859
C458	C	1.050531	0.388022	0.693859
C459	C	0.577765	-0.083119	0.160509
C460	C	1.077765	0.416881	0.660509
H461	H	0.600222	-0.160471	0.187129
H462	H	1.100222	0.339529	0.687129
H463	H	0.554803	-0.162915	0.147235
H464	H	1.054803	0.337085	0.647235
H465	H	0.559517	-0.105477	0.229002
H466	H	1.059517	0.394523	0.729002
H467	H	0.514099	-0.107905	0.189113
H468	H	1.014099	0.392095	0.689113
H469	H	0.568783	-0.089622	0.125358
H470	H	1.068783	0.410378	0.625358
H471	H	0.614200	-0.087182	0.165255
H472	H	1.114200	0.412818	0.665255
H473	H	0.568772	-0.052968	0.168286
H474	H	1.068772	0.447032	0.668286
C475	C	0.825204	-0.156554	0.444118
C476	C	1.325204	0.343446	0.944118
C477	C	0.795620	-0.127770	0.412758
C478	C	1.295620	0.372230	0.912758
C479	C	0.828988	-0.099009	0.385399
C480	C	1.328988	0.400991	0.885399
H481	H	0.845144	-0.139398	0.468150
H482	H	1.345144	0.360602	0.968150
H483	H	0.847963	-0.173729	0.422790
H484	H	1.347963	0.326271	0.922790
H485	H	0.772871	-0.110597	0.434085
H486	H	1.272871	0.389403	0.934085
H487	H	0.775682	-0.144913	0.388716
H488	H	1.275682	0.355087	0.888716
H489	H	0.851747	-0.116184	0.364071
H490	H	1.351747	0.383816	0.864071
H491	H	0.848925	-0.081856	0.409435
H492	H	1.348925	0.418144	0.909435
H493	H	0.808920	-0.079478	0.364115
H494	H	1.308920	0.420522	0.864115
C495	C	0.312762	-0.305281	0.354954
C496	C	0.812762	0.194719	0.854954
C497	C	0.366427	-0.299132	0.347804
C498	C	0.866427	0.200868	0.847804
C499	C	0.393825	-0.327886	0.381128
C500	C	0.893825	0.172114	0.881128
H501	H	0.303893	-0.298775	0.390116
H502	H	0.803893	0.201225	0.890116
H503	H	0.303819	-0.335468	0.347238
H504	H	0.803819	0.164532	0.847238
H505	H	0.375367	-0.268953	0.355523
H506	H	0.875367	0.231047	0.855523
H507	H	0.375312	-0.305642	0.312648
H508	H	0.875312	0.194358	0.812648
H509	H	0.384882	-0.358072	0.373412
H510	H	0.884882	0.141928	0.873412
H511	H	0.384951	-0.321377	0.416288
H512	H	0.884951	0.178623	0.916288
H513	H	0.430239	-0.323720	0.376278
H514	H	0.930239	0.176280	0.876278
H515	H	0.816288	-0.164248	1.053004
H516	H	1.316288	0.335752	1.553004
C517	C	0.449930	-0.156561	0.182320
C518	C	0.949930	0.343439	0.682320
C519	C	0.418545	-0.181947	0.148750
C520	C	0.918545	0.318053	0.648750
C521	C	0.391208	-0.153245	0.115318
C522	C	0.891208	0.346755	0.615318
H523	H	0.428618	-0.137007	0.202316
H524	H	0.928618	0.362993	0.702316
H525	H	0.473991	-0.139428	0.162407
H526	H	0.973991	0.360572	0.662407
H527	H	0.394487	-0.199072	0.168661
H528	H	0.894487	0.300928	0.668661
H529	H	0.439844	-0.201500	0.128742
H530	H	0.939844	0.298500	0.628742
H531	H	0.415269	-0.136112	0.095405
H532	H	0.915269	0.363888	0.595405
H533	H	0.369898	-0.133692	0.135318
H534	H	0.869898	0.366308	0.635318
H535	H	0.369914	-0.170465	0.092534
H536	H	0.869914	0.329535	0.592534
C537	C	0.825518	-1.051390	0.182505
C538	C	1.325518	-0.551390	0.682505
C539	C	0.859018	-1.078260	0.212183
C540	C	1.359018	-0.578260	0.712183
C541	C	0.892612	-1.101715	0.178912
C542	C	1.392612	-0.601715	0.678912
H543	H	0.805636	-1.069766	0.159677
H544	H	1.305636	-0.569766	0.659677
H545	H	0.845473	-1.030695	0.162637
H546	H	1.345473	-0.530695	0.662637
H547	H	0.839064	-1.098952	0.232043
H548	H	1.339064	-0.598952	0.732043
H549	H	0.878911	-1.059895	0.235011
H550	H	1.378911	-0.559895	0.735011
H551	H	0.912568	-1.081019	0.159044
H552	H	1.412568	-0.581019	0.659044
H553	H	0.872726	-1.120088	0.156085
H554	H	1.372726	-0.620088	0.656085
H555	H	0.915349	-1.119945	0.199044
H556	H	1.415349	-0.619945	0.699044
C557	C	0.685886	-0.953569	0.321788
C558	C	1.185886	-0.453569	0.821788
C559	C	0.715451	-0.926607	0.355344
C560	C	1.215451	-0.426607	0.855344
C561	C	0.682068	-0.903144	0.388822
C562	C	1.182068	-0.403144	0.888822
H563	H	0.663101	-0.935255	0.301823
H564	H	1.163101	-0.435255	0.801823
H565	H	0.665976	-0.974260	0.341707
H566	H	1.165976	-0.474260	0.841707
H567	H	0.735352	-0.905918	0.335427
H568	H	1.235352	-0.405918	0.835427
H569	H	0.738235	-0.944909	0.375320
H570	H	1.238235	-0.444909	0.875320
H571	H	0.662159	-0.923835	0.408742
H572	H	1.162159	-0.423835	0.908742
H573	H	0.659285	-0.884833	0.368853
H574	H	1.159285	-0.384833	0.868853
H575	H	0.702124	-0.884851	0.411597
H576	H	1.202124	-0.384851	0.911597
C577	C	0.061528	-0.276602	0.321578
C578	C	0.561528	0.223398	0.821578
C579	C	0.092835	-0.305366	0.291914
C580	C	0.592835	0.194634	0.791914
C581	C	0.120160	-0.334204	0.325199
C582	C	0.620160	0.165796	0.825199
H583	H	0.082892	-0.259497	0.344406
H584	H	0.582892	0.240503	0.844406
H585	H	0.037459	-0.293765	0.341446
H586	H	0.537459	0.206235	0.841446
H587	H	0.116901	-0.288205	0.272055
H588	H	0.616901	0.211795	0.772055
H589	H	0.071485	-0.322481	0.269088
H590	H	0.571485	0.177519	0.769088
H591	H	0.096091	-0.351367	0.345067
H592	H	0.596091	0.148633	0.845067
H593	H	0.141520	-0.317095	0.348025
H594	H	0.641520	0.182905	0.848025
H595	H	0.141401	-0.353726	0.305077
H596	H	0.641401	0.146274	0.805077
C597	C	-0.052300	-0.156553	0.182352
C598	C	0.447700	0.343447	0.682352
C599	C	-0.039032	-0.166267	0.130604
C600	C	0.460968	0.333733	0.630604
C601	C	-0.066245	-0.137517	0.097124
C602	C	0.433755	0.362483	0.597124
H603	H	-0.088740	-0.160641	0.187058
H604	H	0.411260	0.339359	0.687058
H605	H	-0.043311	-0.126371	0.190035
H606	H	0.456689	0.373629	0.690035
H607	H	-0.048026	-0.196442	0.122924
H608	H	0.451974	0.303558	0.622924
H609	H	-0.002597	-0.162177	0.125882
H610	H	0.497403	0.337823	0.625882
H611	H	-0.057255	-0.107335	0.104807
H612	H	0.442745	0.392665	0.604807
H613	H	-0.102684	-0.141607	0.101834
H614	H	0.397316	0.358393	0.601834
H615	H	-0.057243	-0.144101	0.062009
H616	H	0.442757	0.355899	0.562009
C617	C	0.652186	-0.305000	0.695263
C618	C	1.152186	0.195000	1.195263
C619	C	0.618682	-0.279569	0.663918
C620	C	1.118682	0.220431	1.163918
C621	C	0.585135	-0.308226	0.636582
C622	C	1.085135	0.191774	1.136582
H623	H	0.672102	-0.324594	0.673925
H624	H	1.172102	0.175406	1.173925
H625	H	0.632231	-0.322092	0.719326
H626	H	1.132231	0.177908	1.219326
H627	H	0.638634	-0.262485	0.639858
H628	H	1.138634	0.237515	1.139858
H629	H	0.598753	-0.259977	0.685243
H630	H	1.098753	0.240023	1.185243
H631	H	0.565180	-0.325319	0.660644
H632	H	1.065180	0.174681	1.160644
H633	H	0.605056	-0.327819	0.615247
H634	H	1.105056	0.172181	1.115247
H635	H	0.562395	-0.290976	0.615315
H636	H	1.062395	0.209024	1.115315
C637	C	0.198894	-0.127744	0.148955
C638	C	0.698894	0.372256	0.648955
C639	C	0.212172	-0.137457	0.097208
C640	C	0.712172	0.362543	0.597208
C641	C	0.184973	-0.108700	0.063725
C642	C	0.684973	0.391300	0.563725
H643	H	0.162452	-0.131826	0.153651
H644	H	0.662452	0.368174	0.653651
H645	H	0.207888	-0.097563	0.156642
H646	H	0.707888	0.402437	0.656642
H647	H	0.203174	-0.167630	0.089523
H648	H	0.703174	0.332370	0.589523
H649	H	0.248609	-0.133372	0.092495
H650	H	0.748609	0.366628	0.592495
H651	H	0.193967	-0.078520	0.071412
H652	H	0.693967	0.421480	0.571412
H653	H	0.148533	-0.112785	0.068426
H654	H	0.648533	0.387215	0.568426
H655	H	0.193982	-0.115283	0.028611
H656	H	0.693982	0.384717	0.528611
H657	H	0.816089	-0.387503	0.191385
H658	H	1.316089	0.112497	0.691385
H659	H	0.816279	-0.164266	0.953939
H660	H	1.316279	0.335734	1.453939
C661	C	0.685847	-0.276333	0.946417
C662	C	1.185847	0.223667	1.446417
C663	C	0.715420	-0.305131	0.915063
C664	C	1.215420	0.194869	1.415063
C665	C	0.682043	-0.333899	0.887678
C666	C	1.182043	0.166101	1.387678
H667	H	0.665913	-0.293480	0.970433
H668	H	1.165913	0.206520	1.470433
H669	H	0.663084	-0.259165	0.925082
H670	H	1.163084	0.240835	1.425082
H671	H	0.738174	-0.322298	0.936396
H672	H	1.238174	0.177702	1.436396
H673	H	0.735354	-0.287997	0.891037
H674	H	1.235354	0.212003	1.391037
H675	H	0.659280	-0.316730	0.866343
H676	H	1.159280	0.183270	1.366343
H677	H	0.662110	-0.351042	0.911698
H678	H	1.162110	0.148958	1.411698
H679	H	0.702103	-0.353439	0.866398
H680	H	1.202103	0.146561	1.366398
C681	C	0.858634	-0.596916	0.148882
C682	C	1.358634	-0.096916	0.648882
C683	C	0.829052	-0.570025	0.115320
C684	C	1.329052	-0.070025	0.615320
C685	C	0.862419	-0.546534	0.081838
C686	C	1.362419	-0.046534	0.581838
H687	H	0.881407	-0.578552	0.168843
H688	H	1.381407	-0.078552	0.668843
H689	H	0.878557	-0.617590	0.128967
H690	H	1.378557	-0.117590	0.628967
H691	H	0.809138	-0.549354	0.135234
H692	H	1.309138	-0.049354	0.635234
H693	H	0.806280	-0.588378	0.095348
H694	H	1.306280	-0.088378	0.595348
H695	H	0.882343	-0.567208	0.061923
H696	H	1.382343	-0.067208	0.561923
H697	H	0.885191	-0.528173	0.101804
H698	H	1.385191	-0.028173	0.601804
H699	H	0.842353	-0.528289	0.059060
H700	H	1.342353	-0.028289	0.559060
H701	H	0.694866	-0.268490	1.052950
H702	H	1.194866	0.231510	1.552950
H703	H	0.849671	-0.688417	0.158025
H704	H	1.349671	-0.188417	0.658025
C705	C	0.825234	-0.478897	0.182273
C706	C	1.325234	0.021103	0.682273
C707	C	0.854510	-0.448291	0.153011
C708	C	1.354510	0.051709	0.653011
C709	C	0.888004	-0.471640	0.119537
C710	C	1.388004	0.028360	0.619537
H711	H	0.848059	-0.497175	0.202237
H712	H	1.348059	0.002825	0.702237
H713	H	0.805268	-0.497214	0.159444
H714	H	1.305268	0.002786	0.659444
H715	H	0.874475	-0.429981	0.175838
H716	H	1.374475	0.070019	0.675838
H717	H	0.831699	-0.430012	0.133037
H718	H	1.331699	0.069988	0.633037
H719	H	0.868038	-0.489957	0.096708
H720	H	1.368038	0.010043	0.596708
H721	H	0.910825	-0.489917	0.139505
H722	H	1.410825	0.010083	0.639505
H723	H	0.907868	-0.450877	0.099676
H724	H	1.407868	0.049123	0.599676
C725	C	0.825440	-0.953605	0.182362
C726	C	1.325440	-0.453605	0.682362
C727	C	0.854757	-0.984184	0.153125
C728	C	1.354757	-0.484184	0.653125
C729	C	0.888281	-0.960803	0.119694
C730	C	1.388281	-0.460803	0.619694
H731	H	0.805509	-0.935324	0.159512
H732	H	1.305509	-0.435324	0.659512
H733	H	0.848232	-0.935288	0.202373
H734	H	1.348232	-0.435288	0.702373
H735	H	0.831968	-1.002493	0.133116
H736	H	1.331968	-0.502493	0.633116
H737	H	0.874699	-1.002466	0.175962
H738	H	1.374699	-0.502466	0.675962
H739	H	0.911073	-0.942486	0.139704
H740	H	1.411073	-0.442486	0.639704
H741	H	0.868346	-0.942523	0.096847
H742	H	1.368346	-0.442523	0.596847
H743	H	0.908180	-0.981547	0.099856
H744	H	1.408180	-0.481547	0.599856
H745	H	0.661316	-0.603386	0.346032
H746	H	1.161316	-0.103386	0.846032
H747	H	0.849691	-0.744058	0.158032
H748	H	1.349691	-0.244058	0.658032
C749	C	0.652203	-0.305066	0.809069
C750	C	1.152203	0.194934	1.309069
C751	C	0.622884	-0.330215	0.773453
C752	C	1.122884	0.169785	1.273453
C753	C	0.589344	-0.358954	0.800630
C754	C	1.089344	0.141046	1.300630
H755	H	0.672122	-0.324683	0.830376
H756	H	1.172122	0.175317	1.330376
H757	H	0.629412	-0.287882	0.830353
H758	H	1.129412	0.212118	1.330353
H759	H	0.645673	-0.347398	0.752179
H760	H	1.145673	0.152602	1.252179
H761	H	0.602955	-0.310609	0.752145
H762	H	1.102955	0.189391	1.252145
H763	H	0.566553	-0.341770	0.821913
H764	H	1.066553	0.158230	1.321913
H765	H	0.609267	-0.378569	0.821936
H766	H	1.109267	0.121431	1.321936
H767	H	0.569444	-0.376018	0.776469
H768	H	1.069444	0.123982	1.276469
H769	H	0.661361	-0.744143	0.346035
H770	H	1.161361	-0.244143	0.846035
