data_functionalizedCrystal
_audit_creation_method	'MofGen! by Chris Wilmer'
_symmetry_space_group_name_H-M	'P1'
_symmetry_Int_Tables_number	1
_symmetry_cell_setting	triclinic
loop_
_symmetry_equiv_pos_as_xyz
  x,y,z
_cell_length_a	19.077068
_cell_length_b	18.215407
_cell_length_c	18.215399
_cell_angle_alpha	90.020595
_cell_angle_beta	92.268164
_cell_angle_gamma	87.672995
loop_
_atom_site_label
_atom_site_type_symbol
_atom_site_fract_x
_atom_site_fract_y
_atom_site_fract_z
Zn1	Zn	-0.280210	-1.113288	-0.427884
Zn2	Zn	-0.397912	-1.108246	-0.309754
Zn3	Zn	-0.280232	-0.990219	-0.304831
Zn4	Zn	-0.397872	-0.985238	-0.432776
O5	O	-0.339056	-1.049248	-0.368811
O6	O	-0.295831	-1.215603	-0.412227
O7	O	-0.382327	-1.092564	-0.206118
O8	O	-0.181738	-1.010739	-0.317046
O9	O	-0.382306	-1.211899	-0.325438
O10	O	-0.181722	-1.101157	-0.407453
O11	O	-0.295869	-1.005851	-0.202500
O12	O	-0.295830	-0.886574	-0.321789
O13	O	-0.382238	-1.002249	-0.535110
O14	O	-0.382259	-0.882915	-0.415790
O15	O	-0.295792	-1.096327	-0.531516
O16	O	-0.496398	-1.087734	-0.330182
O17	O	-0.496368	-0.997360	-0.420565
C18	C	-0.339043	-0.858042	-0.368787
C19	C	-0.339054	-0.776243	-0.368795
C20	C	-0.384127	-0.586159	-0.417682
C21	C	-0.384128	-0.509300	-0.417691
C22	C	-0.293990	-0.513088	-0.319943
C23	C	-0.293986	-0.589945	-0.319939
C24	C	-0.339058	-0.626479	-0.368808
C25	C	-0.339064	-0.472763	-0.368820
C26	C	-0.339065	-0.389429	-0.368829
C27	C	-0.339056	-0.709818	-0.368800
C28	C	-0.521920	-1.041479	-0.376454
C29	C	-0.600150	-1.038223	-0.379749
C30	C	-0.636895	-1.083783	-0.334278
C31	C	-0.710401	-1.080725	-0.337381
C32	C	-0.747160	-1.032103	-0.385952
C33	C	-0.710410	-0.986542	-0.431428
C34	C	-0.636906	-0.989604	-0.428328
C35	C	-0.966994	-1.017899	-0.400268
C36	C	-1.040504	-1.014838	-0.403362
C37	C	-1.040489	-1.109023	-0.309316
C38	C	-0.966983	-1.112078	-0.306218
C39	C	-0.930240	-1.066519	-0.351696
N40	N	-0.822294	-1.028975	-0.389123
N41	N	-0.855107	-1.069652	-0.348528
C42	C	-0.155478	-1.057066	-0.361154
C43	C	-0.077248	-1.060398	-0.357891
C44	C	-0.339008	-1.049294	-0.560762
C45	C	-0.338987	-1.049314	-0.642560
C46	C	-0.339068	-0.241200	-0.368833
C47	C	-0.339068	-0.322999	-0.368833
C48	C	-0.293933	-1.098319	-0.828882
C49	C	-0.293913	-1.098329	-0.905740
C50	C	-0.383933	-1.000366	-0.909472
C51	C	-0.383949	-1.000353	-0.832615
C52	C	-0.338950	-1.049334	-0.792322
C53	C	-0.338913	-1.049357	-0.946037
C54	C	-0.338891	-1.049367	-1.029370
C55	C	-0.338971	-1.049323	-0.708984
C56	C	-0.339054	-1.049245	-0.177605
C57	C	-0.338876	-1.049376	-0.095799
H58	H	-0.257281	-0.622775	-0.280139
O59	O	-0.931197	-1.159349	-0.259138
C60	C	-0.848162	-1.262196	-0.245834
C61	C	-0.888635	-1.208702	-0.299234
H62	H	-0.813752	-1.302120	-0.278232
H63	H	-0.813754	-1.229900	-0.205885
H64	H	-0.887061	-1.294202	-0.213848
H65	H	-0.849787	-1.176682	-0.331270
H66	H	-0.923053	-1.241039	-0.339135
H67	H	-1.070413	-1.146115	-0.272291
H68	H	-0.420827	-0.476475	-0.457490
H69	H	-0.420570	-0.960489	-0.942287
O70	O	-0.250085	-1.145883	-0.941167
C71	C	-0.130357	-1.186679	-0.959724
C72	C	-0.179916	-1.132791	-0.919543
H73	H	-0.073614	-1.176103	-0.942267
H74	H	-0.142667	-1.245506	-0.945123
H75	H	-0.138104	-1.178288	-1.021575
H76	H	-0.172196	-1.141116	-0.857683
H77	H	-0.167594	-1.073984	-0.934204
H78	H	-0.257290	-1.138201	-0.796078
H79	H	-0.420607	-0.960459	-0.802847
O80	O	-0.601299	-1.131078	-0.287075
C81	C	-0.609051	-1.224141	-0.194091
C82	C	-0.649448	-1.170624	-0.247526
H83	H	-0.647962	-1.256117	-0.162090
H84	H	-0.574604	-1.264088	-0.226424
H85	H	-0.574673	-1.191795	-0.154159
H86	H	-0.683865	-1.202909	-0.287469
H87	H	-0.683851	-1.130677	-0.215145
H88	H	-0.740315	-1.117824	-0.300353
O89	O	-1.076184	-0.967689	-0.450654
C90	C	-1.098603	-0.930945	-0.576748
C91	C	-1.058163	-0.984395	-0.523279
H92	H	-1.084037	-0.944423	-0.635475
H93	H	-1.157457	-0.936587	-0.571209
H94	H	-1.084217	-0.872212	-0.563132
H95	H	-1.072490	-1.043150	-0.536860
H96	H	-0.999318	-0.978689	-0.528828
O97	O	-0.427925	-0.621534	-0.465227
C98	C	-0.517353	-0.609661	-0.562156
C99	C	-0.467777	-0.569510	-0.508359
H100	H	-0.549597	-0.567617	-0.597031
H101	H	-0.485116	-0.647007	-0.599389
H102	H	-0.554085	-0.644091	-0.529831
H103	H	-0.431036	-0.535040	-0.540623
H104	H	-0.500059	-0.532208	-0.471125
H105	H	-0.257295	-0.483333	-0.280155
H106	H	-0.937084	-0.980802	-0.437297
H107	H	-0.740345	-0.946956	-0.470978
O108	O	-0.601319	-0.945276	-0.472529
C109	C	-0.609086	-0.851575	-0.566176
C110	C	-0.649474	-0.901719	-0.516141
H111	H	-0.648002	-0.816358	-0.601461
H112	H	-0.574741	-0.814493	-0.530947
H113	H	-0.574606	-0.886796	-0.603201
H114	H	-0.683993	-0.866556	-0.479108
H115	H	-0.683775	-0.938805	-0.551415
