data_functionalizedCrystal
_audit_creation_method	'MofGen! by Chris Wilmer'
_symmetry_space_group_name_H-M	'P1'
_symmetry_Int_Tables_number	1
_symmetry_cell_setting	triclinic
loop_
_symmetry_equiv_pos_as_xyz
  x,y,z
_cell_length_a	10.489716
_cell_length_b	10.489741
_cell_length_c	13.596369
_cell_angle_alpha	89.994306
_cell_angle_beta	89.995062
_cell_angle_gamma	84.534155
loop_
_atom_site_label
_atom_site_type_symbol
_atom_site_fract_x
_atom_site_fract_y
_atom_site_fract_z
O1	O	1.694073	0.179821	-0.081783
O2	O	2.194073	0.679821	0.418217
O3	O	1.322873	0.196747	-0.081787
O4	O	1.822873	0.696747	0.418213
O5	O	1.516920	0.002685	-0.081779
O6	O	2.016920	0.502685	0.418221
O7	O	1.500027	0.373882	-0.081791
O8	O	2.000027	0.873882	0.418209
O9	O	1.516900	0.002675	0.081804
O10	O	2.016900	0.502675	0.581804
O11	O	1.322854	0.196736	0.081796
O12	O	1.822854	0.696736	0.581796
O13	O	1.694054	0.179811	0.081800
O14	O	2.194054	0.679811	0.581800
Zn15	Zn	1.508451	0.188272	0.107770
Zn16	Zn	2.008451	0.688272	0.607770
Zn17	Zn	1.508476	0.188285	-0.107757
Zn18	Zn	2.008476	0.688285	0.392243
O19	O	1.500007	0.373872	0.081792
O20	O	2.000007	0.873872	0.581792
C21	C	1.275332	0.195470	0.000004
C22	C	1.775332	0.695470	0.500004
C23	C	1.133701	0.191665	0.000003
C24	C	1.633701	0.691665	0.500003
C25	C	1.036027	0.310669	-0.000003
C26	C	1.536027	0.810669	0.499997
C27	C	0.958671	0.247780	0.080658
C28	C	1.458671	0.747780	0.580658
C29	C	0.958697	0.247762	-0.080622
C30	C	1.458697	0.747762	0.419378
C31	C	1.058210	0.128825	0.080731
C32	C	1.558210	0.628825	0.580731
C33	C	1.058242	0.128825	-0.080621
C34	C	1.558242	0.628825	0.419379
C35	C	0.980935	0.065848	0.000060
C36	C	1.480935	0.565848	0.500060
C37	C	1.515634	-0.044852	0.000012
C38	C	2.015634	0.455148	0.500012
C39	C	1.511817	-0.186481	0.000010
C40	C	2.011817	0.313519	0.500010
C41	C	1.388351	-0.254610	0.000002
C42	C	1.888351	0.245390	0.500002
C43	C	1.446665	-0.346743	0.080657
C44	C	1.946665	0.153257	0.580657
C45	C	1.446714	-0.346707	-0.080623
C46	C	1.946714	0.153293	0.419377
C47	C	1.570182	-0.276748	0.080732
C48	C	2.070182	0.223252	0.580732
C49	C	1.570214	-0.276703	-0.080620
C50	C	2.070214	0.223297	0.419380
C51	C	1.628618	-0.368808	0.000055
C52	C	2.128618	0.131192	0.500055
C53	C	1.741596	0.181087	0.000007
C54	C	2.241596	0.681087	0.500007
C55	C	1.883227	0.184892	0.000002
C56	C	2.383227	0.684892	0.500002
C57	C	1.501293	0.421409	-0.000001
C58	C	2.001293	0.921409	0.499999
C59	C	1.505110	0.563038	-0.000005
C60	C	2.005110	1.063038	0.499995
N61	N	1.508442	0.188261	0.254862
N62	N	2.008442	0.688261	0.754862
N63	N	1.508495	0.188286	-0.254849
N64	N	2.008495	0.688286	0.245151
C65	C	1.508475	0.188287	0.656153
C66	C	2.008475	0.688287	1.156153
C67	C	1.508462	0.188284	0.544502
C68	C	2.008462	0.688284	1.044502
C69	C	1.508459	0.188275	0.455511
C70	C	2.008459	0.688275	0.955511
C71	C	1.508445	0.188270	0.343853
C72	C	2.008445	0.688270	0.843853
H73	H	1.101518	0.078613	0.148991
H74	H	1.601518	0.578613	0.648991
Br75	Br	0.886232	0.331537	-0.194263
Br76	Br	1.386232	0.831537	0.305737
Br77	Br	1.359620	-0.398340	-0.194266
Br78	Br	1.859620	0.101660	0.305734
Br79	Br	1.657173	-0.225386	0.194509
Br80	Br	2.157173	0.274614	0.694509
H81	H	1.101746	0.078631	-0.148813
H82	H	1.601746	0.578631	0.351187
H83	H	1.730222	-0.418241	0.000101
H84	H	2.230222	0.081759	0.500101
Br85	Br	1.219157	-0.171842	0.000126
Br86	Br	1.719157	0.328158	0.500126
Br87	Br	1.077159	0.483196	0.000115
Br88	Br	1.577159	0.983196	0.500115
H89	H	1.394416	-0.377754	0.148845
H90	H	1.894416	0.122246	0.648845
Br91	Br	1.657230	-0.224957	-0.194277
Br92	Br	2.157230	0.275043	0.305723
Br93	Br	0.940202	-0.106807	0.000140
Br94	Br	1.440202	0.393193	0.500140
H95	H	0.915180	0.298012	0.148847
H96	H	1.415180	0.798012	0.648847
