data_functionalizedCrystal
_audit_creation_method	'MofGen! by Chris Wilmer'
_symmetry_space_group_name_H-M	'P1'
_symmetry_Int_Tables_number	1
_symmetry_cell_setting	triclinic
loop_
_symmetry_equiv_pos_as_xyz
  x,y,z
_cell_length_a	19.121424
_cell_length_b	21.295417
_cell_length_c	21.295396
_cell_angle_alpha	89.893877
_cell_angle_beta	92.366534
_cell_angle_gamma	92.474490
loop_
_atom_site_label
_atom_site_type_symbol
_atom_site_fract_x
_atom_site_fract_y
_atom_site_fract_z
Zn1	Zn	1.073999	-0.209109	-0.314991
Zn2	Zn	1.407332	0.124225	0.018342
Zn3	Zn	1.740665	0.457558	0.351676
Zn4	Zn	1.073796	-0.314523	-0.209724
Zn5	Zn	1.407130	0.018810	0.123610
Zn6	Zn	1.740463	0.352143	0.456943
Zn7	Zn	0.956450	-0.213757	-0.214214
Zn8	Zn	1.289783	0.119576	0.119119
Zn9	Zn	1.623116	0.452910	0.452452
Zn10	Zn	0.956509	-0.318834	-0.319425
Zn11	Zn	1.289842	0.014499	0.013909
Zn12	Zn	1.623176	0.347832	0.347242
O13	O	1.015188	-0.264056	-0.264588
O14	O	1.348522	0.069277	0.068745
O15	O	1.681855	0.402611	0.402078
O16	O	1.172251	-0.219343	-0.297292
O17	O	1.505585	0.113991	0.036041
O18	O	1.838918	0.447324	0.369375
O19	O	1.058121	-0.301298	-0.122234
O20	O	1.391454	0.032036	0.211099
O21	O	1.724787	0.365369	0.544433
O22	O	0.972103	-0.125049	-0.227607
O23	O	1.305436	0.208285	0.105727
O24	O	1.638769	0.541618	0.439060
O25	O	1.172103	-0.296791	-0.219953
O26	O	1.505436	0.036543	0.113381
O27	O	1.838770	0.369876	0.446714
O28	O	1.058465	-0.121634	-0.301647
O29	O	1.391799	0.211700	0.031687
O30	O	1.725132	0.545033	0.365020
O31	O	0.971907	-0.227265	-0.125533
O32	O	1.305240	0.106068	0.207800
O33	O	1.638573	0.439402	0.541133
O34	O	0.858178	-0.231445	-0.231906
O35	O	1.191511	0.101888	0.101428
O36	O	1.524844	0.435222	0.434761
O37	O	0.972204	-0.304138	-0.406922
O38	O	1.305537	0.029196	-0.073589
O39	O	1.638870	0.362529	0.259745
O40	O	0.858221	-0.308645	-0.309203
O41	O	1.191555	0.024688	0.024130
O42	O	1.524888	0.358022	0.357463
O43	O	1.058523	-0.223523	-0.403665
O44	O	1.391856	0.109811	-0.070331
O45	O	1.725189	0.443144	0.263002
O46	O	1.058178	-0.403187	-0.224252
O47	O	1.391511	-0.069854	0.109081
O48	O	1.724845	0.263480	0.442415
O49	O	0.972007	-0.406354	-0.304849
O50	O	1.305341	-0.073021	0.028485
O51	O	1.638674	0.260312	0.361818
C52	C	0.832717	-0.271018	-0.271523
C53	C	1.166050	0.062316	0.061810
C54	C	1.499383	0.395649	0.395143
C55	C	0.754655	-0.274011	-0.274505
C56	C	1.087988	0.059322	0.058828
C57	C	1.421321	0.392655	0.392162
C58	C	0.313153	-0.292940	-0.293434
C59	C	0.646486	0.040393	0.039899
C60	C	0.979819	0.373726	0.373232
C61	C	0.386500	-0.290132	-0.290621
C62	C	0.719834	0.043201	0.042712
C63	C	1.053167	0.376534	0.376046
C64	C	0.423129	-0.248470	-0.249036
C65	C	0.756462	0.084864	0.084297
C66	C	1.089795	0.418197	0.417630
C67	C	0.386406	-0.209617	-0.210258
C68	C	0.719739	0.123716	0.123075
C69	C	1.053072	0.457050	0.456408
C70	C	0.313059	-0.212429	-0.213069
C71	C	0.646393	0.120905	0.120265
C72	C	0.979726	0.454238	0.453598
C73	C	0.644585	-0.237970	-0.238537
C74	C	0.977918	0.095363	0.094796
C75	C	1.311252	0.428697	0.428129
C76	C	0.717937	-0.235160	-0.235731
C77	C	1.051270	0.098173	0.097602
C78	C	1.384603	0.431507	0.430936
C79	C	0.718026	-0.315677	-0.316093
C80	C	1.051360	0.017657	0.017240
C81	C	1.384693	0.350990	0.350573
C82	C	0.644679	-0.318482	-0.318903
C83	C	0.978012	0.014852	0.014431
C84	C	1.311345	0.348185	0.347764
C85	C	0.607962	-0.279631	-0.280122
C86	C	0.941295	0.053702	0.053211
C87	C	1.274628	0.387035	0.386544
C88	C	0.498102	-0.245597	-0.246161
C89	C	0.831435	0.087736	0.087172
C90	C	1.164768	0.421069	0.420506
C91	C	0.532990	-0.282507	-0.282995
C92	C	0.866323	0.050826	0.050339
C93	C	1.199657	0.384159	0.383672
C94	C	1.015096	-0.427611	-0.264557
C95	C	1.348430	-0.094278	0.068776
C96	C	1.681763	0.239056	0.402110
C97	C	1.015121	-0.497578	-0.264562
C98	C	1.348454	-0.164245	0.068771
C99	C	1.681788	0.169088	0.402104
C100	C	1.060030	-0.528773	-0.222635
C101	C	1.393363	-0.195440	0.110698
C102	C	1.726697	0.137893	0.444031
C103	C	1.060063	-0.594514	-0.222648
C104	C	1.393396	-0.261181	0.110685
C105	C	1.726730	0.072152	0.444019
C106	C	1.015174	-0.629059	-0.264582
C107	C	1.348508	-0.295725	0.068751
C108	C	1.681841	0.037608	0.402085
C109	C	0.970262	-0.597856	-0.306517
C110	C	1.303596	-0.264522	0.026816
C111	C	1.636929	0.068811	0.360150
C112	C	0.970236	-0.532116	-0.306507
C113	C	1.303569	-0.198782	0.026826
C114	C	1.636902	0.134551	0.360160
N115	N	0.953741	-0.734666	-0.271716
N116	N	1.287075	-0.401333	0.061618
N117	N	1.620408	-0.067999	0.394951
N118	N	0.953769	-0.797116	-0.271721
N119	N	1.287102	-0.463783	0.061612
N120	N	1.620435	-0.130450	0.394945
C121	C	1.015253	-0.827130	-0.264615
C122	C	1.348586	-0.493797	0.068718
C123	C	1.681920	-0.160464	0.402052
N124	N	1.076711	-0.792334	-0.257491
N125	N	1.410044	-0.459001	0.075843
N126	N	1.743377	-0.125668	0.409176
N127	N	1.076682	-0.729878	-0.257482
N128	N	1.410016	-0.396545	0.075851
N129	N	1.743349	-0.063212	0.409185
C130	C	1.015199	-0.700343	-0.264598
C131	C	1.348532	-0.367010	0.068736
C132	C	1.681865	-0.033676	0.402069
C133	C	1.060202	-0.929609	-0.222700
C134	C	1.393535	-0.596276	0.110634
C135	C	1.726868	-0.262943	0.443967
C136	C	1.060236	-0.995352	-0.222717
C137	C	1.393569	-0.662018	0.110616
C138	C	1.726902	-0.328685	0.443950
C139	C	0.970429	-0.998692	-0.306583
C140	C	1.303762	-0.665359	0.026751
C141	C	1.637095	-0.332025	0.360084
C142	C	0.970401	-0.932951	-0.306568
C143	C	1.303734	-0.599617	0.026765
C144	C	1.637068	-0.266284	0.360098
C145	C	1.015286	-0.898413	-0.264624
C146	C	1.348620	-0.565080	0.068710
C147	C	1.681953	-0.231747	0.402043
C148	C	1.198373	-0.257067	-0.257627
C149	C	1.531706	0.076266	0.075706
C150	C	1.865039	0.409599	0.409040
C151	C	1.276435	-0.254089	-0.254660
C152	C	1.609768	0.079244	0.078673
C153	C	1.943101	0.412578	0.412006
C154	C	1.015392	-0.263793	-0.428771
C155	C	1.348726	0.069541	-0.095438
C156	C	1.682059	0.402874	0.237895
C157	C	1.015479	-0.263680	-0.498737
C158	C	1.348813	0.069653	-0.165403
C159	C	1.682146	0.402986	0.167930
C160	C	1.015300	-0.099861	-0.264633
C161	C	1.348633	0.233472	0.068700
C162	C	1.681967	0.566805	0.402034
C163	C	1.015348	-0.029891	-0.264652
C164	C	1.348681	0.303442	0.068681
C165	C	1.682014	0.636775	0.402015
C166	C	1.015026	-0.264271	-0.101043
C167	C	1.348359	0.069062	0.232291
C168	C	1.681692	0.402396	0.565624
C169	C	1.015075	-0.264201	-0.031073
C170	C	1.348408	0.069133	0.302261
C171	C	1.681742	0.402466	0.635594
C172	C	0.970250	-0.225470	0.466639
C173	C	1.303583	0.107864	0.799972
C174	C	1.636917	0.441197	1.133306
C175	C	0.970195	-0.225536	0.400895
C176	C	1.303528	0.107797	0.734228
C177	C	1.636862	0.441131	1.067561
C178	C	1.015382	-0.263806	0.369778
C179	C	1.348715	0.069527	0.703111
C180	C	1.682049	0.402860	1.036444
C181	C	1.060614	-0.302025	0.404410
C182	C	1.393948	0.031309	0.737743
C183	C	1.727281	0.364642	1.071077
C184	C	1.060663	-0.301962	0.470153
C185	C	1.393996	0.031372	0.803486
C186	C	1.727330	0.364705	1.136820
N187	N	1.076816	-0.265987	0.268807
N188	N	1.410150	0.067346	0.602140
N189	N	1.743483	0.400679	0.935474
N190	N	1.076768	-0.266044	0.206354
N191	N	1.410101	0.067290	0.539687
N192	N	1.743435	0.400623	0.873021
C193	C	1.015237	-0.263999	0.171698
C194	C	1.348570	0.069334	0.505031
C195	C	1.681904	0.402668	0.838364
N196	N	0.953755	-0.261884	0.201854
N197	N	1.287088	0.071449	0.535187
N198	N	1.620421	0.404782	0.868521
N199	N	0.953804	-0.261825	0.264313
N200	N	1.287137	0.071509	0.597646
N201	N	1.620470	0.404842	0.930980
C202	C	1.015334	-0.263879	0.298490
C203	C	1.348667	0.069454	0.631824
C204	C	1.682001	0.402788	0.965157
C205	C	0.969944	-0.225859	0.065786
C206	C	1.303278	0.107475	0.399119
C207	C	1.636611	0.440808	0.732452
C208	C	0.969888	-0.225929	0.000040
C209	C	1.303222	0.107404	0.333373
C210	C	1.636555	0.440737	0.666707
C211	C	1.060314	-0.302414	0.003557
C212	C	1.393647	0.030919	0.336890
C213	C	1.726981	0.364252	0.670223
C214	C	1.060364	-0.302347	0.069301
C215	C	1.393697	0.030986	0.402634
C216	C	1.727030	0.364320	0.735967
C217	C	1.015180	-0.264066	0.100411
C218	C	1.348513	0.069268	0.433745
C219	C	1.681847	0.402601	0.767078
H220	H	0.614699	-0.206338	-0.206957
H221	H	0.948032	0.126996	0.126376
H222	H	1.281366	0.460329	0.459710
H223	H	0.933052	-0.194816	-0.028151
H224	H	1.266386	0.138518	0.305183
H225	H	1.599719	0.471851	0.638516
H226	H	0.283335	-0.326863	-0.327300
H227	H	0.616669	0.006470	0.006033
H228	H	0.950002	0.339804	0.339366
H229	H	1.097107	-0.333573	-0.021778
H230	H	1.430441	-0.000240	0.311555
H231	H	1.763774	0.333093	0.644888
H232	H	1.097497	-0.333077	0.498344
H233	H	1.430830	0.000256	0.831677
H234	H	1.764164	0.333590	1.165011
H235	H	0.416234	-0.175697	-0.176396
H236	H	0.749567	0.157636	0.156937
H237	H	1.082901	0.490969	0.490270
H238	H	1.096636	-0.619918	-0.188506
H239	H	1.429969	-0.286585	0.144827
H240	H	1.763302	0.046748	0.478160
H241	H	0.933715	-0.625986	-0.340661
H242	H	1.267048	-0.292652	-0.007327
H243	H	1.600382	0.040681	0.326006
H244	H	0.283164	-0.180790	-0.181497
H245	H	0.616498	0.152543	0.151837
H246	H	0.949831	0.485877	0.485170
H247	H	0.933883	-1.026817	-0.340729
H248	H	1.267216	-0.693484	-0.007395
H249	H	1.600549	-0.360150	0.325938
H250	H	0.933153	-0.194688	0.091117
H251	H	1.266486	0.138645	0.424450
H252	H	1.599819	0.471979	0.757784
H253	H	0.503164	-0.316431	-0.316851
H254	H	0.836497	0.016902	0.016483
H255	H	1.169831	0.350236	0.349816
H256	H	0.527933	-0.211675	-0.212304
H257	H	0.861266	0.121659	0.121029
H258	H	1.194599	0.454992	0.454363
H259	H	0.933829	-0.907550	-0.340707
H260	H	1.267162	-0.574217	-0.007374
H261	H	1.600496	-0.240883	0.325960
H262	H	0.416393	-0.321771	-0.322193
H263	H	0.749726	0.011563	0.011140
H264	H	1.083060	0.344896	0.344473
H265	H	1.096810	-1.020749	-0.188576
H266	H	1.430144	-0.687416	0.144757
H267	H	1.763477	-0.354082	0.478091
H268	H	1.097196	-0.333461	0.097493
H269	H	1.430529	-0.000128	0.430826
H270	H	1.763863	0.333206	0.764159
H271	H	0.933665	-0.506716	-0.340650
H272	H	1.266998	-0.173383	-0.007317
H273	H	1.600331	0.159950	0.326017
H274	H	0.614861	-0.352409	-0.352764
H275	H	0.948194	-0.019076	-0.019431
H276	H	1.281527	0.314258	0.313903
H277	H	1.097406	-0.333185	0.379070
H278	H	1.430739	0.000149	0.712403
H279	H	1.764072	0.333482	1.045737
H280	H	1.096752	-0.901488	-0.188548
H281	H	1.430086	-0.568154	0.144786
H282	H	1.763419	-0.234821	0.478119
H283	H	1.096580	-0.500655	-0.188483
H284	H	1.429913	-0.167321	0.144850
H285	H	1.763247	0.166012	0.478184
H286	H	0.747929	-0.347307	-0.347666
H287	H	1.081262	-0.013973	-0.014332
H288	H	1.414596	0.319360	0.319001
H289	H	0.933455	-0.194300	0.491965
H290	H	1.266788	0.139033	0.825298
H291	H	1.600122	0.472366	1.158632
H292	H	0.747757	-0.201225	-0.201873
H293	H	1.081091	0.132108	0.131461
H294	H	1.414424	0.465441	0.464794
H295	H	0.933365	-0.194417	0.372698
H296	H	1.266699	0.138916	0.706031
H297	H	1.600032	0.472249	1.039365
