data_functionalizedCrystal
_audit_creation_method	'MofGen! by Chris Wilmer'
_symmetry_space_group_name_H-M	'P1'
_symmetry_Int_Tables_number	1
_symmetry_cell_setting	triclinic
loop_
_symmetry_equiv_pos_as_xyz
  x,y,z
_cell_length_a	21.395362
_cell_length_b	12.759400
_cell_length_c	21.395355
_cell_angle_alpha	90.012729
_cell_angle_beta	90.043940
_cell_angle_gamma	90.029045
loop_
_atom_site_label
_atom_site_type_symbol
_atom_site_fract_x
_atom_site_fract_y
_atom_site_fract_z
Zn1	Zn	0.957936	-0.417943	0.354611
Zn2	Zn	0.957870	-0.593607	0.249844
Zn3	Zn	0.853151	-0.417992	0.249812
Zn4	Zn	0.853152	-0.593629	0.354549
O5	O	0.905527	-0.505793	0.302204
O6	O	1.045605	-0.441215	0.340753
O7	O	0.943951	-0.570323	0.162162
O8	O	0.867078	-0.270964	0.263727
O9	O	1.045557	-0.570275	0.263781
O10	O	0.944063	-0.270928	0.340722
O11	O	0.867014	-0.441299	0.162138
O12	O	0.765473	-0.441320	0.263666
O13	O	0.867080	-0.570312	0.442235
O14	O	0.765474	-0.570360	0.340616
O15	O	0.944064	-0.441236	0.442281
O16	O	0.943952	-0.740631	0.263721
O17	O	0.867016	-0.740647	0.340647
C18	C	0.742740	-0.505848	0.302131
C19	C	0.673098	-0.505897	0.302115
C20	C	0.905494	-0.778760	0.302194
C21	C	0.905538	-0.895537	0.302211
C22	C	0.640402	-0.573177	0.342123
C23	C	0.574967	-0.573152	0.342150
C24	C	0.542230	-0.505857	0.302160
C25	C	0.574934	-0.438564	0.262149
C26	C	0.640368	-0.438584	0.262127
C27	C	0.438504	-0.497393	0.245754
C28	C	0.373071	-0.497380	0.245775
C29	C	0.340409	-0.505788	0.302229
C30	C	0.373189	-0.514231	0.358663
C31	C	0.438623	-0.514251	0.358641
C32	C	0.471278	-0.505827	0.302180
C33	C	0.236761	-0.573044	0.342270
C34	C	0.171324	-0.573011	0.342299
C35	C	0.171293	-0.438428	0.262292
C36	C	0.236728	-0.438456	0.262269
C37	C	0.269458	-0.505769	0.302257
C38	C	0.945604	-0.950300	0.342335
C39	C	0.945633	-1.060024	0.342350
C40	C	0.865528	-1.060211	0.262112
C41	C	0.865496	-0.950489	0.262100
C42	C	0.991854	-0.950193	0.388658
C43	C	0.991883	-1.059917	0.388673
C44	C	1.068951	-0.505738	0.302277
C45	C	1.138592	-0.505714	0.302308
C46	C	0.905579	-0.505771	0.465627
C47	C	0.905601	-0.505762	0.535269
C48	C	0.905577	-0.231759	0.302228
C49	C	0.905599	-0.114983	0.302238
C50	C	0.905511	-0.505738	0.139416
C51	C	0.905611	-0.505451	0.069775
C52	C	0.945685	-0.438550	0.568006
C53	C	0.945685	-0.438504	0.633442
C54	C	0.905606	-0.505691	0.666137
C55	C	0.865515	-0.572908	0.633391
C56	C	0.865512	-0.572944	0.567957
C57	C	0.900648	-0.600292	0.769806
C58	C	0.900654	-0.600258	0.835239
C59	C	0.905610	-0.505580	0.867958
C60	C	0.910572	-0.410932	0.835235
C61	C	0.910570	-0.410968	0.769801
C62	C	0.905604	-0.505659	0.737089
C63	C	0.945695	-0.438312	0.971648
C64	C	0.945690	-0.438265	1.037085
C65	C	0.865523	-0.572678	1.037033
C66	C	0.865525	-0.572716	0.971597
C67	C	0.905615	-0.505534	0.938909
H68	H	0.667047	-0.627988	0.374685
Br69	Br	0.811102	-0.876169	0.207660
Br70	Br	0.962914	-1.116643	0.465480
Br71	Br	0.281184	-0.664391	0.396541
H72	H	1.040425	-1.089624	0.375743
Br73	Br	0.917303	-0.282431	0.879630
Br74	Br	0.281105	-0.347142	0.207969
Br75	Br	0.328871	-0.525640	0.435285
Br76	Br	1.000089	-0.347371	0.523646
H77	H	0.832888	-0.627454	0.944942
Br78	Br	1.000072	-0.347255	0.677882
Br79	Br	0.893929	-0.728706	0.879642
H80	H	0.346387	-0.490512	0.199823
Br81	Br	1.000099	-0.347137	0.927282
H82	H	0.978827	-0.920406	0.437165
Br83	Br	0.482823	-0.485982	0.169131
Br84	Br	0.811122	-0.663848	1.081398
Br85	Br	0.530508	-0.347225	0.207880
Br86	Br	0.811107	-0.664167	0.523524
H87	H	0.978330	-0.383527	1.063739
Br88	Br	0.811186	-1.134796	0.207681
Br89	Br	0.917300	-0.282526	0.725393
Br90	Br	1.068676	-0.893350	0.359777
Br91	Br	0.893940	-0.728798	0.725410
H92	H	0.832881	-0.627608	0.660016
H93	H	0.548340	-0.627939	0.374732
H94	H	0.465309	-0.521123	0.404591
H95	H	0.144704	-0.627796	0.374882
Br96	Br	0.126872	-0.347088	0.208023
H97	H	0.666989	-0.383793	0.229548
