data_functionalizedCrystal
_audit_creation_method	'MofGen! by Chris Wilmer'
_symmetry_space_group_name_H-M	'P1'
_symmetry_Int_Tables_number	1
_symmetry_cell_setting	triclinic
loop_
_symmetry_equiv_pos_as_xyz
  x,y,z
_cell_length_a	14.044220
_cell_length_b	14.044190
_cell_length_c	13.596369
_cell_angle_alpha	89.989293
_cell_angle_beta	89.999747
_cell_angle_gamma	93.190328
loop_
_atom_site_label
_atom_site_type_symbol
_atom_site_fract_x
_atom_site_fract_y
_atom_site_fract_z
O1	O	1.277175	0.230170	-0.081707
O2	O	1.527175	0.480170	0.168293
O3	O	1.777175	0.730170	0.418293
O4	O	2.027175	0.980170	0.668293
O5	O	1.000503	0.221864	-0.081731
O6	O	1.250503	0.471864	0.168269
O7	O	1.500503	0.721864	0.418269
O8	O	1.750503	0.971864	0.668269
O9	O	1.134683	0.087681	-0.081700
O10	O	1.384683	0.337681	0.168300
O11	O	1.634683	0.587681	0.418300
O12	O	1.884683	0.837681	0.668300
O13	O	1.142995	0.364353	-0.081738
O14	O	1.392995	0.614353	0.168262
O15	O	1.642995	0.864353	0.418262
O16	O	1.892995	1.114353	0.668262
O17	O	1.134667	0.087672	0.081883
O18	O	1.384667	0.337672	0.331883
O19	O	1.634667	0.587672	0.581883
O20	O	1.884667	0.837672	0.831883
O21	O	1.000488	0.221855	0.081852
O22	O	1.250488	0.471855	0.331852
O23	O	1.500488	0.721855	0.581852
O24	O	1.750488	0.971855	0.831852
O25	O	1.277160	0.230161	0.081876
O26	O	1.527160	0.480161	0.331876
O27	O	1.777160	0.730161	0.581876
O28	O	2.027160	0.980161	0.831876
Zn29	Zn	1.138821	0.226007	0.107836
Zn30	Zn	1.388821	0.476007	0.357836
Zn31	Zn	1.638821	0.726007	0.607836
Zn32	Zn	1.888821	0.976007	0.857836
Zn33	Zn	1.138841	0.226019	-0.107691
Zn34	Zn	1.388841	0.476019	0.142309
Zn35	Zn	1.638841	0.726019	0.392309
Zn36	Zn	1.888841	0.976019	0.642309
O37	O	1.142980	0.364344	0.081845
O38	O	1.392980	0.614344	0.331845
O39	O	1.642980	0.864344	0.581845
O40	O	1.892980	1.114344	0.831845
C41	C	0.964874	0.218224	0.000058
C42	C	1.214874	0.468224	0.250058
C43	C	1.464874	0.718224	0.500058
C44	C	1.714874	0.968224	0.750058
C45	C	0.858731	0.207380	0.000049
C46	C	1.108731	0.457380	0.250049
C47	C	1.358731	0.707380	0.500049
C48	C	1.608731	0.957380	0.750049
C49	C	0.664392	0.187553	0.000072
C50	C	0.914392	0.437553	0.250072
C51	C	1.164392	0.687553	0.500072
C52	C	1.414392	0.937553	0.750072
C53	C	0.613264	0.264468	0.000065
C54	C	0.863264	0.514468	0.250065
C55	C	1.113264	0.764468	0.500065
C56	C	1.363264	1.014468	0.750065
C57	C	0.505128	0.253436	0.000077
C58	C	0.755128	0.503436	0.250077
C59	C	1.005128	0.753436	0.500077
C60	C	1.255128	1.003436	0.750077
C61	C	0.772539	0.198583	0.000059
C62	C	1.022539	0.448583	0.250059
C63	C	1.272539	0.698583	0.500059
C64	C	1.522539	0.948583	0.750059
C65	C	1.131039	0.052054	0.000094
C66	C	1.381039	0.302054	0.250094
C67	C	1.631039	0.552054	0.500094
C68	C	1.881039	0.802054	0.750094
C69	C	1.120191	-0.054089	0.000102
C70	C	1.370191	0.195911	0.250102
C71	C	1.620191	0.445911	0.500102
C72	C	1.870191	0.695911	0.750102
C73	C	1.177292	-0.299547	0.000068
C74	C	1.427292	-0.049547	0.250068
C75	C	1.677292	0.200453	0.500068
C76	C	1.927292	0.450453	0.750068
C77	C	1.100375	-0.248422	0.000068
C78	C	1.350375	0.001578	0.250068
C79	C	1.600375	0.251578	0.500068
C80	C	1.850375	0.501578	0.750068
C81	C	1.111404	-0.140285	0.000087
C82	C	1.361404	0.109715	0.250087
C83	C	1.611404	0.359715	0.500087
C84	C	1.861404	0.609715	0.750087
C85	C	1.166265	-0.407694	0.000050
C86	C	1.416265	-0.157694	0.250050
C87	C	1.666265	0.092306	0.500050
C88	C	1.916265	0.342306	0.750050
C89	C	1.312789	0.233801	0.000085
C90	C	1.562789	0.483801	0.250085
C91	C	1.812789	0.733801	0.500085
C92	C	2.062789	0.983801	0.750085
C93	C	1.418932	0.244646	0.000087
C94	C	1.668932	0.494646	0.250087
C95	C	1.918932	0.744646	0.500087
C96	C	2.168932	0.994646	0.750087
C97	C	1.146624	0.399971	0.000049
C98	C	1.396624	0.649971	0.250049
C99	C	1.646624	0.899971	0.500049
C100	C	1.896624	1.149971	0.750049
C101	C	1.157472	0.506114	0.000035
C102	C	1.407472	0.756114	0.250035
C103	C	1.657472	1.006114	0.500035
C104	C	1.907472	1.256114	0.750035
N105	N	1.138815	0.225999	0.254928
N106	N	1.388815	0.475999	0.504928
N107	N	1.638815	0.725999	0.754928
N108	N	1.888815	0.975999	1.004928
N109	N	1.138855	0.226020	-0.254783
N110	N	1.388855	0.476020	-0.004783
N111	N	1.638855	0.726020	0.245217
N112	N	1.888855	0.976020	0.495217
C113	C	1.138840	0.226019	0.656219
C114	C	1.388840	0.476019	0.906219
C115	C	1.638840	0.726019	1.156219
C116	C	1.888840	0.976019	1.406219
C117	C	1.138831	0.226017	0.544568
C118	C	1.388831	0.476017	0.794568
C119	C	1.638831	0.726017	1.044568
C120	C	1.888831	0.976017	1.294568
C121	C	1.138828	0.226010	0.455577
C122	C	1.388828	0.476010	0.705577
C123	C	1.638828	0.726010	0.955577
C124	C	1.888828	0.976010	1.205577
C125	C	1.138817	0.226006	0.343919
C126	C	1.388817	0.476006	0.593919
C127	C	1.638817	0.726006	0.843919
C128	C	1.888817	0.976006	1.093919
H129	H	0.650706	0.338602	0.000050
H130	H	0.900706	0.588602	0.250050
H131	H	1.150706	0.838602	0.500050
H132	H	1.400706	1.088602	0.750050
H133	H	0.626954	0.113425	0.000087
H134	H	0.876954	0.363425	0.250087
H135	H	1.126954	0.613425	0.500087
H136	H	1.376954	0.863425	0.750087
Br137	Br	0.976815	-0.310824	0.000053
Br138	Br	1.226815	-0.060824	0.250053
Br139	Br	1.476815	0.189176	0.500053
Br140	Br	1.726815	0.439176	0.750053
Br141	Br	1.300844	-0.237142	0.000093
Br142	Br	1.550844	0.012858	0.250093
Br143	Br	1.800844	0.262858	0.500093
Br144	Br	2.050844	0.512858	0.750093
