data_functionalizedCrystal
_audit_creation_method	'MofGen! by Chris Wilmer'
_symmetry_space_group_name_H-M	'P1'
_symmetry_Int_Tables_number	1
_symmetry_cell_setting	triclinic
loop_
_symmetry_equiv_pos_as_xyz
  x,y,z
_cell_length_a	14.519709
_cell_length_b	16.992694
_cell_length_c	15.455313
_cell_angle_alpha	92.857794
_cell_angle_beta	92.669068
_cell_angle_gamma	92.825816
loop_
_atom_site_label
_atom_site_type_symbol
_atom_site_fract_x
_atom_site_fract_y
_atom_site_fract_z
O1	O	0.191795	-1.044092	-0.072025
O2	O	0.691795	-0.544092	0.427975
O3	O	0.189648	-0.815805	-0.072051
O4	O	0.689648	-0.315805	0.427949
O5	O	0.056918	-0.936001	-0.072029
O6	O	0.556918	-0.436001	0.427971
O7	O	0.324525	-0.923896	-0.072046
O8	O	0.824525	-0.423896	0.427954
O9	O	0.064474	-0.929127	0.072232
O10	O	0.564474	-0.429127	0.572232
O11	O	0.197205	-0.808932	0.072210
O12	O	0.697205	-0.308932	0.572210
O13	O	0.199352	-1.037219	0.072236
O14	O	0.699352	-0.537219	0.572236
Cu15	Cu	0.198968	-0.922447	0.085395
Cu16	Cu	0.698968	-0.422447	0.585395
Cu17	Cu	0.190031	-0.930576	-0.085210
Cu18	Cu	0.690031	-0.430576	0.414790
O19	O	0.332082	-0.917023	0.072215
O20	O	0.832082	-0.417023	0.572215
C21	C	0.026296	-0.932000	0.000101
C22	C	0.526296	-0.432000	0.500101
C23	C	-0.076207	-0.930309	0.000102
C24	C	0.423793	-0.430309	0.500102
C25	C	0.190666	-0.783152	0.000077
C26	C	0.690666	-0.283152	0.500077
C27	C	0.182430	-0.696097	0.000067
C28	C	0.682430	-0.196097	0.500067
C29	C	0.198333	-1.069872	0.000107
C30	C	0.698333	-0.569872	0.500107
C31	C	0.206569	-1.156927	0.000111
C32	C	0.706569	-0.656927	0.500111
C33	C	-0.451550	-0.924087	0.000078
C34	C	0.048450	-0.424087	0.500078
C35	C	-0.347118	-0.925815	0.000085
C36	C	0.152882	-0.425815	0.500085
C37	C	-0.263882	-0.927198	0.000091
C38	C	0.236118	-0.427198	0.500091
C39	C	-0.159443	-0.928926	0.000096
C40	C	0.340557	-0.428926	0.500096
C41	C	0.362704	-0.921024	0.000082
C42	C	0.862704	-0.421024	0.500082
C43	C	0.465206	-0.922715	0.000076
C44	C	0.965206	-0.422715	0.500076
N45	N	0.205254	-0.916736	0.205390
N46	N	0.705254	-0.416736	0.705390
C47	C	0.261890	-0.645968	0.000063
C48	C	0.761890	-0.145968	0.500063
C49	C	0.254147	-0.564170	0.000075
C50	C	0.754147	-0.064170	0.500075
C51	C	0.166943	-0.532502	0.000086
C52	C	0.666943	-0.032502	0.500086
C53	C	0.087478	-0.582638	0.000093
C54	C	0.587478	-0.082638	0.500093
C55	C	0.095222	-0.664434	0.000087
C56	C	0.595222	-0.164434	0.500087
C57	C	0.134847	-0.288859	0.000111
C58	C	0.634847	0.211141	0.500111
C59	C	0.127109	-0.207056	0.000115
C60	C	0.627109	0.292944	0.500115
C61	C	0.293779	-0.188594	0.000099
C62	C	0.793779	0.311406	0.500099
C63	C	0.301515	-0.270393	0.000087
C64	C	0.801515	0.229607	0.500087
C65	C	0.222050	-0.320520	0.000099
C66	C	0.722050	0.179480	0.500099
N67	N	0.159027	-0.448892	0.000096
N68	N	0.659027	0.051108	0.500096
N69	N	0.229968	-0.404129	0.000095
N70	N	0.729968	0.095871	0.500095
N71	N	0.183739	-0.936294	-0.205204
N72	N	0.683739	-0.436294	0.294796
C73	C	0.148889	-0.967817	0.250793
C74	C	0.648889	-0.467817	0.750793
C75	C	0.153651	-0.963505	0.341600
C76	C	0.653651	-0.463505	0.841600
C77	C	0.214784	-0.908115	0.387002
C78	C	0.714784	-0.408115	0.887002
C79	C	0.271151	-0.857028	0.341593
C80	C	0.771151	-0.357028	0.841593
C81	C	0.266383	-0.861337	0.250787
C82	C	0.766383	-0.361337	0.750787
C83	C	0.235339	-0.889516	0.658581
C84	C	0.735339	-0.389516	1.158581
C85	C	0.240104	-0.885212	0.749392
C86	C	0.740104	-0.385212	1.249392
C87	C	0.122602	-0.991689	0.749393
C88	C	0.622602	-0.491689	1.249393
C89	C	0.117844	-0.995996	0.658586
C90	C	0.617844	-0.495996	1.158586
C91	C	0.174208	-0.944907	0.613185
C92	C	0.674208	-0.444907	1.113185
N93	N	0.219655	-0.903708	0.479822
N94	N	0.719655	-0.403708	0.979822
N95	N	0.169331	-0.949311	0.520367
N96	N	0.669331	-0.449311	1.020367
H97	H	0.332900	-0.671744	0.000054
H98	H	0.832900	-0.171744	0.500054
F99	F	0.050272	-0.342198	0.000123
F100	F	0.550272	0.157802	0.500123
F101	F	0.394329	-0.304089	0.000072
F102	F	0.894329	0.195911	0.500072
H103	H	0.068065	-1.041099	0.621621
H104	H	0.568065	-0.541099	1.121621
F105	F	0.062618	-1.046056	0.797718
F106	F	0.562618	-0.546056	1.297718
F107	F	0.034292	-0.173355	0.000141
F108	F	0.534292	0.326645	0.500141
F109	F	0.336210	-0.798073	0.389914
F110	F	0.836210	-0.298073	0.889914
F111	F	0.010650	-0.717785	0.000094
F112	F	0.510650	-0.217785	0.500094
F113	F	0.093660	-1.017870	0.389922
F114	F	0.593660	-0.517870	0.889922
F115	F	0.326372	-0.806967	0.202467
F116	F	0.826372	-0.306967	0.702467
H117	H	0.318852	-0.523358	0.000071
H118	H	0.818852	-0.023358	0.500071
F119	F	-0.005331	-0.548932	0.000110
F120	F	0.494669	-0.048932	0.500110
H121	H	0.099112	-1.012925	0.213832
H122	H	0.599112	-0.512925	0.713832
H123	H	0.289889	-0.840105	0.786355
H124	H	0.789889	-0.340105	1.286355
H125	H	0.281234	-0.847918	0.621622
H126	H	0.781234	-0.347918	1.121622
H127	H	0.358475	-0.147771	0.000091
H128	H	0.858475	0.352229	0.500091
