data_functionalizedCrystal
_audit_creation_method	'MofGen! by Chris Wilmer'
_symmetry_space_group_name_H-M	'P1'
_symmetry_Int_Tables_number	1
_symmetry_cell_setting	triclinic
loop_
_symmetry_equiv_pos_as_xyz
  x,y,z
_cell_length_a	14.971482
_cell_length_b	14.971506
_cell_length_c	14.048226
_cell_angle_alpha	89.995147
_cell_angle_beta	89.994098
_cell_angle_gamma	83.617498
loop_
_atom_site_label
_atom_site_type_symbol
_atom_site_fract_x
_atom_site_fract_y
_atom_site_fract_z
O1	O	1.186958	0.116548	-0.079145
O2	O	1.520291	0.449881	0.254188
O3	O	1.853624	0.783214	0.587522
O4	O	0.926558	0.130510	-0.079149
O5	O	1.259891	0.463843	0.254184
O6	O	1.593225	0.797176	0.587518
O7	O	1.063728	-0.006670	-0.079144
O8	O	1.397061	0.326663	0.254189
O9	O	1.730394	0.659996	0.587522
O10	O	1.049788	0.253728	-0.079150
O11	O	1.383121	0.587061	0.254184
O12	O	1.716454	0.920394	0.587517
O13	O	1.063711	-0.006678	0.079177
O14	O	1.397045	0.326655	0.412510
O15	O	1.730378	0.659988	0.745844
O16	O	0.926541	0.130502	0.079172
O17	O	1.259875	0.463835	0.412506
O18	O	1.593208	0.797168	0.745839
O19	O	1.186941	0.116540	0.079176
O20	O	1.520274	0.449873	0.412510
O21	O	1.853608	0.783206	0.745843
Zn22	Zn	1.056739	0.123519	0.104311
Zn23	Zn	1.390072	0.456853	0.437645
Zn24	Zn	1.723405	0.790186	0.770978
Zn25	Zn	1.056760	0.123530	-0.104284
Zn26	Zn	1.390094	0.456863	0.229049
Zn27	Zn	1.723427	0.790197	0.562383
O28	O	1.049771	0.253720	0.079172
O29	O	1.383105	0.587053	0.412505
O30	O	1.716438	0.920386	0.745838
C31	C	0.893225	0.129882	0.000011
C32	C	1.226558	0.463215	0.333344
C33	C	1.559892	0.796549	0.666678
C34	C	0.793927	0.128013	0.000009
C35	C	1.127261	0.461346	0.333343
C36	C	1.460594	0.794679	0.666676
C37	C	0.747274	0.127128	0.086311
C38	C	1.080607	0.460461	0.419645
C39	C	1.413940	0.793794	0.752978
C40	C	0.653975	0.125357	0.086312
C41	C	0.987309	0.458690	0.419646
C42	C	1.320642	0.792024	0.752979
C43	C	0.607331	0.124477	0.000010
C44	C	0.940664	0.457811	0.333344
C45	C	1.273998	0.791144	0.666677
C46	C	0.653992	0.125360	-0.086298
C47	C	0.987325	0.458693	0.247035
C48	C	1.320658	0.792026	0.580368
C49	C	0.747289	0.127124	-0.086298
C50	C	1.080623	0.460457	0.247035
C51	C	1.413956	0.793791	0.580368
C52	C	0.459530	0.121684	-0.086292
C53	C	0.792863	0.455018	0.247041
C54	C	1.126196	0.788351	0.580375
C55	C	0.366225	0.119922	-0.086292
C56	C	0.699558	0.453255	0.247041
C57	C	1.032892	0.786588	0.580374
C58	C	0.366215	0.119917	0.086319
C59	C	0.699549	0.453251	0.419652
C60	C	1.032882	0.786584	0.752985
C61	C	0.459513	0.121682	0.086319
C62	C	0.792846	0.455015	0.419652
C63	C	1.126180	0.788348	0.752985
C64	C	0.506167	0.122565	0.000010
C65	C	0.839500	0.455899	0.333343
C66	C	1.172834	0.789232	0.666676
C67	C	1.063093	-0.039999	0.000015
C68	C	1.396426	0.293335	0.333348
C69	C	1.729759	0.626668	0.666682
C70	C	1.061215	-0.139295	0.000011
C71	C	1.394548	0.194039	0.333344
C72	C	1.727882	0.527372	0.666677
C73	C	1.134633	-0.577578	0.000012
C74	C	1.467966	-0.244245	0.333346
C75	C	1.801300	0.089088	0.666679
C76	C	1.136391	-0.484278	0.000019
C77	C	1.469724	-0.150945	0.333352
C78	C	1.803057	0.182389	0.666685
C79	C	1.055798	-0.427057	0.000014
C80	C	1.389131	-0.093724	0.333347
C81	C	1.722465	0.239610	0.666681
C82	C	0.973443	-0.463140	0.000013
C83	C	1.306776	-0.129807	0.333346
C84	C	1.640109	0.203526	0.666679
C85	C	0.971686	-0.556439	0.000013
C86	C	1.305020	-0.223106	0.333347
C87	C	1.638353	0.110228	0.666680
C88	C	0.977110	-0.268677	0.000009
C89	C	1.310443	0.064656	0.333342
C90	C	1.643776	0.397989	0.666676
C91	C	0.978866	-0.175372	0.000007
C92	C	1.312199	0.157961	0.333340
C93	C	1.645533	0.491294	0.666673
C94	C	1.141814	-0.196516	0.000014
C95	C	1.475147	0.136817	0.333348
C96	C	1.808481	0.470150	0.666681
C97	C	1.140057	-0.289815	0.000015
C98	C	1.473391	0.043518	0.333348
C99	C	1.806724	0.376852	0.666682
C100	C	1.057702	-0.325892	0.000012
C101	C	1.391035	0.007441	0.333345
C102	C	1.724368	0.340775	0.666679
C103	C	1.220274	0.117167	0.000014
C104	C	1.553607	0.450501	0.333348
C105	C	1.886941	0.783834	0.666681
C106	C	1.319571	0.119037	0.000010
C107	C	1.652905	0.452370	0.333343
C108	C	1.986238	0.785703	0.666676
C109	C	1.050406	0.287048	0.000010
C110	C	1.383739	0.620381	0.333344
C111	C	1.717073	0.953715	0.666677
C112	C	1.052284	0.386344	0.000008
C113	C	1.385617	0.719677	0.333342
C114	C	1.718951	1.053011	0.666675
N115	N	1.056730	0.123512	0.246672
N116	N	1.390064	0.456845	0.580005
N117	N	1.723397	0.790178	0.913339
N118	N	1.056776	0.123531	-0.246645
N119	N	1.390109	0.456864	0.086689
N120	N	1.723442	0.790197	0.420022
C121	C	1.117488	0.062793	0.296492
C122	C	1.450821	0.396127	0.629825
C123	C	1.784155	0.729460	0.963159
C124	C	1.117494	0.062793	0.396150
C125	C	1.450828	0.396126	0.729483
C126	C	1.784161	0.729459	1.062816
C127	C	1.056746	0.123515	0.445985
C128	C	1.390079	0.456849	0.779319
C129	C	1.723413	0.790182	1.112652
C130	C	0.995982	0.184237	0.396158
C131	C	1.329315	0.517570	0.729492
C132	C	1.662648	0.850903	1.062825
C133	C	0.995972	0.184232	0.296502
C134	C	1.329305	0.517565	0.629836
C135	C	1.662639	0.850899	0.963169
C136	C	0.996007	0.184243	0.603873
C137	C	1.329341	0.517576	0.937206
C138	C	1.662674	0.850910	1.270539
C139	C	0.996018	0.184249	0.703535
C140	C	1.329351	0.517582	1.036869
C141	C	1.662685	0.850916	1.370202
C142	C	1.117530	0.062804	0.703520
C143	C	1.450863	0.396137	1.036853
C144	C	1.784196	0.729470	1.370186
C145	C	1.117520	0.062799	0.603864
C146	C	1.450853	0.396133	0.937197
C147	C	1.784187	0.729466	1.270531
C148	C	1.056757	0.123522	0.554044
C149	C	1.390090	0.456855	0.887377
C150	C	1.723423	0.790188	1.220710
H151	H	0.785244	0.127851	0.156589
H152	H	1.118577	0.461185	0.489922
H153	H	1.451910	0.794518	0.823255
Cl154	Cl	0.307588	0.118814	-0.194788
Cl155	Cl	0.640922	0.452147	0.138546
Cl156	Cl	0.974255	0.785480	0.471879
Cl157	Cl	1.241375	-0.361749	0.000014
Cl158	Cl	1.574709	-0.028416	0.333348
Cl159	Cl	1.908042	0.304917	0.666681
Cl160	Cl	0.919607	0.260571	0.458807
Cl161	Cl	1.252940	0.593904	0.792140
Cl162	Cl	1.586273	0.927238	1.125473
Cl163	Cl	0.595327	0.124261	0.194812
Cl164	Cl	0.928660	0.457594	0.528145
Cl165	Cl	1.261993	0.790927	0.861478
Cl166	Cl	0.877548	-0.103438	0.000012
Cl167	Cl	1.210881	0.229895	0.333346
Cl168	Cl	1.544215	0.563228	0.666679
H169	H	1.200261	-0.624162	0.000008
H170	H	1.533595	-0.290829	0.333342
H171	H	1.866928	0.042505	0.666675
H172	H	0.946524	0.233687	0.563312
H173	H	1.279858	0.567020	0.896646
H174	H	1.613191	0.900354	1.229979
Cl175	Cl	0.919643	0.260588	0.766178
Cl176	Cl	1.252976	0.593921	1.099512
Cl177	Cl	1.586309	0.927254	1.432845
Cl178	Cl	0.595358	0.124221	-0.194793
Cl179	Cl	0.928691	0.457554	0.138540
Cl180	Cl	1.262024	0.790888	0.471874
H181	H	0.946496	0.233674	0.255940
H182	H	1.279829	0.567007	0.589273
H183	H	1.613162	0.900341	0.922607
Cl184	Cl	0.518179	0.122793	-0.194797
Cl185	Cl	0.851512	0.456127	0.138537
Cl186	Cl	1.184846	0.789460	0.471870
H187	H	1.208871	-0.167139	-0.000071
H188	H	1.542204	0.166195	0.333262
H189	H	1.875538	0.499528	0.666596
Cl190	Cl	0.873575	-0.314030	0.000010
Cl191	Cl	1.206908	0.019304	0.333344
Cl192	Cl	1.540242	0.352637	0.666677
H193	H	0.904629	-0.585811	0.000018
H194	H	1.237963	-0.252478	0.333351
H195	H	1.571296	0.080855	0.666685
Cl196	Cl	0.518149	0.122797	0.194814
Cl197	Cl	0.851482	0.456130	0.528147
Cl198	Cl	1.184816	0.789464	0.861481
H199	H	0.328225	0.119198	0.156595
H200	H	0.661558	0.452531	0.489928
H201	H	0.994892	0.785864	0.823261
Cl202	Cl	0.872126	-0.391205	0.000011
Cl203	Cl	1.205459	-0.057872	0.333344
Cl204	Cl	1.538792	0.275461	0.666678
H205	H	0.785273	0.127846	-0.156574
H206	H	1.118607	0.461180	0.176759
H207	H	1.451940	0.794513	0.510092
Cl208	Cl	1.239920	-0.438928	-0.000001
Cl209	Cl	1.573253	-0.105594	0.333333
Cl210	Cl	1.906587	0.227739	0.666666
Cl211	Cl	1.193867	-0.013545	0.233852
Cl212	Cl	1.527200	0.319789	0.567185
Cl213	Cl	1.860533	0.653122	0.900519
Cl214	Cl	1.193876	-0.013541	0.458783
Cl215	Cl	1.527209	0.319793	0.792116
Cl216	Cl	1.860543	0.653126	1.125449
Cl217	Cl	1.193894	-0.013532	0.541211
Cl218	Cl	1.527228	0.319801	0.874545
Cl219	Cl	1.860561	0.653134	1.207878
Cl220	Cl	1.193918	-0.013530	0.766154
Cl221	Cl	1.527251	0.319803	1.099487
Cl222	Cl	1.860584	0.653137	1.432821
