data_functionalizedCrystal
_audit_creation_method	'MofGen! by Chris Wilmer'
_symmetry_space_group_name_H-M	'P1'
_symmetry_Int_Tables_number	1
_symmetry_cell_setting	triclinic
loop_
_symmetry_equiv_pos_as_xyz
  x,y,z
_cell_length_a	11.792241
_cell_length_b	7.540329
_cell_length_c	9.065218
_cell_angle_alpha	90.001345
_cell_angle_beta	84.604651
_cell_angle_gamma	89.998969
loop_
_atom_site_label
_atom_site_type_symbol
_atom_site_fract_x
_atom_site_fract_y
_atom_site_fract_z
O1	O	-1.508029	-0.147276	-0.202221
O2	O	-1.008029	0.352724	0.297779
O3	O	-1.177804	-0.147322	-0.223062
O4	O	-0.677804	0.352678	0.276938
O5	O	-1.349742	-0.147294	0.002065
O6	O	-0.849742	0.352706	0.502065
O7	O	-1.336091	-0.147304	-0.427348
O8	O	-0.836091	0.352696	0.072652
O9	O	-1.349729	0.147671	0.002066
O10	O	-0.849729	0.647671	0.502066
O11	O	-1.177791	0.147643	-0.223061
O12	O	-0.677791	0.647643	0.276939
O13	O	-1.508016	0.147689	-0.202220
O14	O	-1.008016	0.647689	0.297780
Cu15	Cu	-1.342902	0.174599	-0.212640
Cu16	Cu	-0.842902	0.674599	0.287360
Cu17	Cu	-1.342918	-0.174232	-0.212641
Cu18	Cu	-0.842918	0.325768	0.287359
O19	O	-1.336078	0.147661	-0.427347
O20	O	-0.836078	0.647661	0.072653
C21	C	-1.135499	0.000154	-0.221752
C22	C	-0.635499	0.500154	0.278248
C23	C	-1.009464	0.000136	-0.217834
C24	C	-0.509464	0.500136	0.282166
N25	N	-1.342899	0.419947	-0.212639
N26	N	-0.842899	0.919947	0.287361
C27	C	-0.778711	0.000183	-0.210629
C28	C	-0.278711	0.500183	0.289371
C29	C	-0.907119	0.000158	-0.214632
C30	C	-0.407119	0.500158	0.285368
C31	C	-0.550321	0.000204	-0.203529
C32	C	-0.050321	0.500204	0.296471
C33	C	-0.676356	0.000197	-0.207448
C34	C	-0.176356	0.500197	0.292552
C35	C	-1.348424	0.000185	0.057040
C36	C	-0.848424	0.500185	0.557040
C37	C	-1.344501	0.000176	0.220846
C38	C	-0.844501	0.500176	0.720846
N39	N	-1.342919	0.580420	-0.212638
N40	N	-0.842919	1.080420	0.287362
C41	C	-1.337396	0.000178	-0.482322
C42	C	-0.837396	0.500178	0.017678
C43	C	-1.341319	0.000175	-0.646128
C44	C	-0.841319	0.500175	-0.146128
