data_functionalizedCrystal
_audit_creation_method	'MofGen! by Chris Wilmer'
_symmetry_space_group_name_H-M	'P1'
_symmetry_Int_Tables_number	1
_symmetry_cell_setting	triclinic
loop_
_symmetry_equiv_pos_as_xyz
  x,y,z
_cell_length_a	16.625548
_cell_length_b	29.839131
_cell_length_c	16.625539
_cell_angle_alpha	89.967906
_cell_angle_beta	89.979432
_cell_angle_gamma	90.042488
loop_
_atom_site_label
_atom_site_type_symbol
_atom_site_fract_x
_atom_site_fract_y
_atom_site_fract_z
Zn1	Zn	1.232574	-0.178840	-0.455888
Zn2	Zn	1.232433	-0.253971	-0.321046
Zn3	Zn	1.097736	-0.178857	-0.321069
Zn4	Zn	1.097662	-0.253945	-0.455836
O5	O	1.165101	-0.216403	-0.388460
O6	O	1.345388	-0.188810	-0.438013
O7	O	1.214537	-0.244025	-0.208217
O8	O	1.115713	-0.115987	-0.338984
O9	O	1.345284	-0.244008	-0.338946
O10	O	1.214778	-0.115975	-0.438035
O11	O	1.115576	-0.188839	-0.208233
O12	O	0.984894	-0.188814	-0.338933
O13	O	1.115586	-0.243964	-0.568676
O14	O	0.984839	-0.243981	-0.437947
O15	O	1.214706	-0.188785	-0.568714
O16	O	1.214465	-0.316834	-0.338896
O17	O	1.115449	-0.316815	-0.437925
C18	C	0.955610	-0.216397	-0.388437
C19	C	0.865989	-0.216405	-0.388447
C20	C	0.537814	-0.216408	-0.388481
C21	C	0.629122	-0.216406	-0.388469
C22	C	0.701899	-0.216406	-0.388463
C23	C	0.793213	-0.216404	-0.388452
C24	C	1.164956	-0.333126	-0.388420
C25	C	1.164967	-0.383060	-0.388430
C26	C	1.216752	-0.692701	-0.336971
C27	C	1.216852	-0.880374	-0.337002
O28	O	1.260766	-0.904636	-0.293219
N29	N	1.165268	-0.903845	-0.388521
C30	C	1.113660	-0.880395	-0.440039
O31	O	1.069793	-0.904665	-0.483866
C32	C	1.113565	-0.692723	-0.440011
C33	C	1.165146	-0.669254	-0.388483
C34	C	1.268330	-0.669232	-0.285447
C35	C	1.268302	-0.622316	-0.285437
C36	C	1.216695	-0.598870	-0.336950
C37	C	1.165118	-0.622339	-0.388473
C38	C	1.061962	-0.669274	-0.491533
C39	C	1.061944	-0.622353	-0.491523
C40	C	1.113525	-0.598884	-0.439995
C41	C	1.113483	-0.551977	-0.439975
N42	N	1.165067	-0.528505	-0.388456
C43	C	1.216673	-0.551952	-0.336944
C44	C	1.113712	-0.978926	-0.440049
C45	C	1.113735	-1.025844	-0.440055
C46	C	1.216928	-1.025819	-0.337019
C47	C	1.216901	-0.978900	-0.337009
C48	C	1.165296	-0.955455	-0.388530
C49	C	1.216609	-0.453426	-0.336925
C50	C	1.216573	-0.406506	-0.336917
C51	C	1.113383	-0.406535	-0.439956
C52	C	1.113416	-0.453451	-0.439962
C53	C	1.165035	-0.476895	-0.388443
O54	O	1.069599	-0.527685	-0.483742
O55	O	1.260546	-0.527674	-0.293136
C56	C	1.216781	-0.739616	-0.336981
C57	C	1.165203	-0.763085	-0.388504
C58	C	1.113597	-0.739639	-0.440017
C59	C	1.165226	-0.810003	-0.388510
C60	C	1.216832	-0.833449	-0.336997
C61	C	1.268416	-0.809978	-0.285479
C62	C	1.268387	-0.763062	-0.285468
C63	C	1.062014	-0.763110	-0.491536
C64	C	1.062046	-0.810026	-0.491541
C65	C	1.113652	-0.833472	-0.440028
C66	C	1.375410	-0.216410	-0.388483
C67	C	1.465031	-0.216413	-0.388493
C68	C	1.165154	-0.216370	-0.598769
C69	C	1.165176	-0.216355	-0.688390
C70	C	1.165269	-0.099225	-0.388518
C71	C	1.165341	-0.049290	-0.388542
C72	C	1.165213	-0.216305	-1.016566
C73	C	1.165201	-0.216320	-0.925257
C74	C	1.165195	-0.216330	-0.852481
C75	C	1.165182	-0.216345	-0.761167
C76	C	1.165095	-0.216404	-0.178969
C77	C	1.165229	-0.216292	-0.089348
H78	H	1.258577	-0.387399	-0.294954
H79	H	1.019991	-0.744024	-0.533485
H80	H	1.258644	-0.472509	-0.294976
H81	H	1.310306	-0.603210	-0.243481
C82	C	1.056938	-0.953141	-0.496725
C83	C	0.965285	-0.959652	-0.490056
C84	C	0.908508	-0.933870	-0.546730
C85	C	0.943384	-0.901577	-0.610074
C86	C	1.035042	-0.895064	-0.616745
C87	C	1.091819	-0.920846	-0.560071
H88	H	0.939463	-0.983559	-0.443163
H89	H	0.840656	-0.938692	-0.541791
H90	H	0.901354	-0.882492	-0.652027
H91	H	1.060864	-0.871158	-0.663638
H92	H	1.159671	-0.916025	-0.565010
C93	C	1.005220	-0.695080	-0.548219
C94	C	0.941938	-0.727381	-0.513244
C95	C	0.885192	-0.753184	-0.569935
C96	C	0.891727	-0.746687	-0.661599
C97	C	0.955011	-0.714385	-0.696578
C98	C	1.011757	-0.688581	-0.639888
H99	H	0.937098	-0.732192	-0.445385
H100	H	0.838345	-0.777097	-0.544040
H101	H	0.849720	-0.765788	-0.703564
H102	H	0.959851	-0.709574	-0.764437
H103	H	1.058605	-0.664669	-0.665782
C104	C	1.056617	-0.380740	-0.496619
C105	C	1.063153	-0.387151	-0.588289
C106	C	1.006390	-0.361355	-0.644956
C107	C	0.943092	-0.329148	-0.609954
C108	C	0.936554	-0.322735	-0.518280
C109	C	0.993316	-0.348532	-0.461612
H110	H	1.110012	-0.410994	-0.614203
H111	H	1.011230	-0.366102	-0.712820
H112	H	0.901072	-0.310052	-0.651903
H113	H	0.889694	-0.298893	-0.492365
H114	H	0.988476	-0.343784	-0.393749
H115	H	1.310358	-0.688317	-0.243499
H116	H	1.310433	-0.829076	-0.243533
C117	C	1.273701	-1.051616	-0.280359
C118	C	1.365356	-1.045114	-0.287037
C119	C	1.422132	-1.070914	-0.230387
C120	C	1.387252	-1.103216	-0.167060
C121	C	1.295592	-1.109719	-0.160380
C122	C	1.238817	-1.083919	-0.217030
H123	H	1.391180	-1.021201	-0.333918
H124	H	1.489984	-1.066099	-0.235332
H125	H	1.429281	-1.122314	-0.125124
H126	H	1.269768	-1.133632	-0.113499
H127	H	1.170964	-1.088734	-0.212084
C128	C	1.273646	-0.953086	-0.280333
C129	C	1.267122	-0.959576	-0.188667
C130	C	1.323871	-0.933765	-0.131990
C131	C	1.387144	-0.901464	-0.166980
C132	C	1.393670	-0.894973	-0.258652
C133	C	1.336921	-0.920784	-0.315328
H134	H	1.220281	-0.983488	-0.162760
H135	H	1.319039	-0.938570	-0.064129
H136	H	1.429153	-0.882357	-0.125025
H137	H	1.440511	-0.871061	-0.284558
H138	H	1.341753	-0.915979	-0.383190
C139	C	1.056675	-0.479268	-0.496643
C140	C	1.091605	-0.511472	-0.559991
C141	C	1.034871	-0.537283	-0.616682
C142	C	0.943208	-0.530891	-0.610025
C143	C	0.908274	-0.498686	-0.546674
C144	C	0.965007	-0.472874	-0.489983
H145	H	1.159463	-0.516205	-0.564921
H146	H	1.060732	-0.561124	-0.663578
H147	H	0.901210	-0.549998	-0.651991
H148	H	0.840415	-0.493952	-0.541743
H149	H	0.939146	-0.449033	-0.443086
C150	C	1.056989	-1.051657	-0.496730
C151	C	1.000229	-1.025860	-0.553394
C152	C	0.943485	-1.051670	-0.610075
C153	C	0.943500	-1.103278	-0.610093
C154	C	1.000261	-1.129078	-0.553428
C155	C	1.057005	-1.103267	-0.496746
H156	H	1.000217	-0.987654	-0.553382
H157	H	0.901466	-1.032571	-0.652023
H158	H	0.901494	-1.122385	-0.652052
H159	H	1.000274	-1.167284	-0.553439
H160	H	1.099024	-1.122366	-0.454799
C161	C	1.325132	-0.737251	-0.228789
C162	C	1.290221	-0.705043	-0.165438
C163	C	1.346970	-0.679235	-0.108756
C164	C	1.438630	-0.685637	-0.115425
C165	C	1.473546	-0.717847	-0.178778
C166	C	1.416797	-0.743654	-0.235460
H167	H	1.222364	-0.700303	-0.160499
H168	H	1.321122	-0.655391	-0.061858
H169	H	1.480639	-0.666533	-0.073465
H170	H	1.541403	-0.722586	-0.183717
H171	H	1.442645	-0.767498	-0.282359
H172	H	1.019922	-0.603266	-0.533480
H173	H	1.020035	-0.829130	-0.533501
