data_functionalizedCrystal
_audit_creation_method	'MofGen! by Chris Wilmer'
_symmetry_space_group_name_H-M	'P1'
_symmetry_Int_Tables_number	1
_symmetry_cell_setting	triclinic
loop_
_symmetry_equiv_pos_as_xyz
  x,y,z
_cell_length_a	16.974885
_cell_length_b	15.072220
_cell_length_c	16.992695
_cell_angle_alpha	90.003194
_cell_angle_beta	92.976847
_cell_angle_gamma	86.353767
loop_
_atom_site_label
_atom_site_type_symbol
_atom_site_fract_x
_atom_site_fract_y
_atom_site_fract_z
O1	O	1.055447	-0.001932	-0.099901
O2	O	1.555447	0.498068	0.400099
O3	O	0.826048	0.014527	-0.112633
O4	O	1.326048	0.514527	0.387367
O5	O	0.939828	0.006356	0.007874
O6	O	1.439828	0.506356	0.507874
O7	O	0.941667	0.006238	-0.220409
O8	O	1.441667	0.506238	0.279591
O9	O	0.939813	-0.141208	0.007859
O10	O	1.439813	0.358792	0.507859
O11	O	0.826034	-0.133037	-0.112649
O12	O	1.326034	0.366963	0.387351
O13	O	1.055432	-0.149496	-0.099916
O14	O	1.555432	0.350504	0.400084
Zn15	Zn	0.940731	-0.164696	-0.106285
Zn16	Zn	1.440731	0.335304	0.393715
Zn17	Zn	0.940750	0.029726	-0.106265
Zn18	Zn	1.440750	0.529726	0.393735
O19	O	0.941653	-0.141326	-0.220424
O20	O	1.441653	0.358674	0.279576
C21	C	0.796552	-0.057140	-0.112157
C22	C	1.296552	0.442860	0.387843
C23	C	0.708685	-0.050836	-0.110707
C24	C	1.208685	0.449164	0.389293
C25	C	0.214090	-0.006656	-0.102516
C26	C	0.714090	0.493344	0.397484
C27	C	0.296650	-0.012591	-0.103879
C28	C	0.796650	0.487409	0.396121
C29	C	0.337914	-0.095997	-0.104574
C30	C	0.837914	0.404003	0.395426
C31	C	0.296614	-0.173472	-0.103899
C32	C	0.796614	0.326528	0.396101
C33	C	0.214055	-0.167536	-0.102530
C34	C	0.714055	0.332464	0.397470
C35	C	0.584826	-0.122375	-0.108663
C36	C	1.084826	0.377625	0.391337
C37	C	0.667391	-0.128305	-0.110034
C38	C	1.167391	0.371695	0.389966
C39	C	0.667422	0.032576	-0.110012
C40	C	1.167422	0.532576	0.389988
C41	C	0.584861	0.038505	-0.108649
C42	C	1.084861	0.538505	0.391351
C43	C	0.543568	-0.038971	-0.107969
C44	C	1.043568	0.461029	0.392031
N45	N	0.422304	-0.102065	-0.105970
N46	N	0.922304	0.397935	0.394030
N47	N	0.459180	-0.032901	-0.106568
N48	N	0.959180	0.467099	0.393432
N49	N	0.940723	-0.297384	-0.106298
N50	N	1.440723	0.202616	0.393702
C51	C	0.940737	-0.478382	-0.106280
C52	C	1.440737	0.021618	0.393720
C53	C	0.879844	-0.511679	-0.170738
C54	C	1.379844	-0.011679	0.329262
C55	C	0.879610	-0.614488	-0.170562
C56	C	1.379610	-0.114488	0.329438
C57	C	0.940750	-0.656587	-0.106264
C58	C	1.440750	-0.156587	0.393736
C59	C	0.917893	-0.617610	-0.024376
C60	C	1.417893	-0.117610	0.475624
C61	C	0.917443	-0.514720	-0.024764
C62	C	1.417443	-0.014720	0.475236
C63	C	1.024640	-0.522289	-0.122971
C64	C	1.524640	-0.022289	0.377029
C65	C	1.024209	-0.625123	-0.124820
C66	C	1.524209	-0.125123	0.375180
C67	C	0.940759	-0.757301	-0.106249
C68	C	1.440759	-0.257301	0.393751
C69	C	0.940726	-0.377668	-0.106289
C70	C	1.440726	0.122332	0.393711
C71	C	1.084928	-0.077828	-0.100392
C72	C	1.584928	0.422172	0.399608
C73	C	1.172795	-0.084126	-0.101843
C74	C	1.672795	0.415874	0.398157
C75	C	0.937455	-0.067256	0.037077
C76	C	1.437455	0.432744	0.537077
C77	C	0.930395	-0.066749	0.124113
C78	C	1.430395	0.433251	0.624113
N79	N	0.940763	0.162414	-0.106245
N80	N	1.440763	0.662414	0.393755
C81	C	0.944026	-0.067712	-0.249626
C82	C	1.444026	0.432288	0.250374
C83	C	0.951085	-0.068212	-0.336663
C84	C	1.451085	0.431788	0.163337
C85	C	0.998510	-0.071637	0.174428
C86	C	1.498510	0.428363	0.674428
C87	C	0.991872	-0.071152	0.256208
C88	C	1.491872	0.428848	0.756208
C89	C	0.917119	-0.065786	0.287670
C90	C	1.417119	0.434214	0.787670
C91	C	0.848999	-0.060895	0.237349
C92	C	1.348999	0.439105	0.737349
C93	C	0.855638	-0.061374	0.155571
C94	C	1.355638	0.438626	0.655571
C95	C	0.889604	-0.063800	0.531238
C96	C	1.389604	0.436200	1.031238
C97	C	0.882971	-0.063325	0.613022
C98	C	1.382971	0.436675	1.113022
C99	C	1.025844	-0.073580	0.631875
C100	C	1.525844	0.426420	1.131875
C101	C	1.032476	-0.074063	0.550095
C102	C	1.532476	0.425937	1.050095
C103	C	0.964357	-0.069168	0.499781
C104	C	1.464357	0.430832	0.999781
N105	N	0.910332	-0.065293	0.371262
N106	N	1.410332	0.434707	0.871262
N107	N	0.971144	-0.069654	0.416191
N108	N	1.471144	0.430346	0.916191
H109	H	0.893939	-0.640761	-0.231425
H110	H	1.393939	-0.140761	0.268575
H111	H	0.180434	-0.230620	-0.101990
H112	H	0.680434	0.269380	0.398010
C113	C	0.168707	0.085097	-0.101750
C114	C	0.668707	0.585097	0.398250
N115	N	0.134528	0.154209	-0.101168
N116	N	0.634528	0.654209	0.398832
H117	H	0.959856	-0.492845	0.024655
H118	H	1.459856	0.007155	0.524655
C119	C	0.800733	-0.057414	0.647628
C120	C	1.300733	0.442586	1.147628
N121	N	0.738795	-0.052963	0.673693
N122	N	1.238795	0.447037	1.173693
H123	H	0.857234	-0.639042	-0.009341
H124	H	1.357234	-0.139042	0.490659
C125	C	1.085937	-0.493769	-0.059476
C126	C	1.585937	0.006231	0.440524
N127	N	1.132100	-0.472281	-0.011650
N128	N	1.632100	0.027719	0.488350
H129	H	0.894004	-0.487967	-0.231808
H130	H	1.394004	0.012033	0.268192
C131	C	0.796341	-0.470809	-0.156497
C132	C	1.296341	0.029191	0.343503
N133	N	0.733447	-0.440029	-0.145765
N134	N	1.233447	0.059971	0.354235
H135	H	0.551270	0.106422	-0.108081
H136	H	1.051270	0.606422	0.391919
C137	C	0.342071	0.072632	-0.104608
C138	C	0.842071	0.572632	0.395392
N139	N	0.376283	0.136826	-0.105154
N140	N	0.876283	0.636826	0.394846
C141	C	0.814670	-0.058410	0.475902
C142	C	1.314670	0.441590	0.975902
N143	N	0.758225	-0.054347	0.434220
N144	N	1.258225	0.445653	0.934220
H145	H	0.701051	0.095652	-0.110565
H146	H	1.201051	0.595652	0.389435
H147	H	0.700985	-0.196228	-0.110606
H148	H	1.200985	0.303772	0.389394
C149	C	1.088811	-0.664431	-0.065522
C150	C	1.588811	-0.164431	0.434478
N151	N	1.137467	-0.694036	-0.020851
N152	N	1.637467	-0.194036	0.479149
C153	C	0.795638	-0.641733	-0.156116
C154	C	1.295638	-0.141733	0.343884
N155	N	0.732387	-0.662253	-0.145233
N156	N	1.232387	-0.162253	0.354767
H157	H	0.856105	-0.486346	-0.010090
H158	H	1.356105	0.013654	0.489910
C159	C	0.539413	-0.207601	-0.107940
C160	C	1.039413	0.292399	0.392060
N161	N	0.505205	-0.271798	-0.107402
N162	N	1.005205	0.228202	0.392598
C163	C	1.114710	-0.079968	0.515493
C164	C	1.614710	0.420032	1.015493
N165	N	1.176650	-0.084418	0.489431
N166	N	1.676650	0.415582	0.989431
C167	C	0.342005	-0.265219	-0.104697
C168	C	0.842005	0.234781	0.395303
N169	N	0.376191	-0.334325	-0.105313
N170	N	0.876191	0.165675	0.394687
H171	H	1.045400	-0.497841	-0.181424
H172	H	1.545400	0.002159	0.318576
H173	H	0.960868	-0.645119	0.024759
H174	H	1.460868	-0.145119	0.524759
H175	H	0.800171	-0.057393	0.114604
H176	H	1.300171	0.442607	0.614604
H177	H	1.041434	-0.650748	-0.185068
H178	H	1.541434	-0.150748	0.314932
H179	H	1.081303	-0.077564	0.672850
H180	H	1.581303	0.422436	1.172850
H181	H	1.059382	-0.076012	0.148819
H182	H	1.559382	0.423988	0.648819
H183	H	1.047338	-0.075135	0.297172
H184	H	1.547338	0.424865	0.797172
C185	C	0.766770	-0.055000	0.271960
C186	C	1.266770	0.445000	0.771960
N187	N	0.704833	-0.050566	0.298029
N188	N	1.204833	0.449434	0.798029
