data_functionalizedCrystal
_audit_creation_method	'MofGen! by Chris Wilmer'
_symmetry_space_group_name_H-M	'P1'
_symmetry_Int_Tables_number	1
_symmetry_cell_setting	triclinic
loop_
_symmetry_equiv_pos_as_xyz
  x,y,z
_cell_length_a	9.065218
_cell_length_b	16.109301
_cell_length_c	7.540329
_cell_angle_alpha	89.994987
_cell_angle_beta	89.996962
_cell_angle_gamma	84.238683
loop_
_atom_site_label
_atom_site_type_symbol
_atom_site_fract_x
_atom_site_fract_y
_atom_site_fract_z
O1	O	1.957449	0.121905	-0.147494
O2	O	1.527922	0.131904	-0.147497
O3	O	1.754485	0.005964	-0.147477
O4	O	1.730886	0.247845	-0.147513
O5	O	1.754472	0.005963	0.147488
O6	O	1.527909	0.131903	0.147468
O7	O	1.957435	0.121903	0.147471
Cu8	Cu	1.742671	0.126903	0.174402
Cu9	Cu	1.742687	0.126905	-0.174428
O10	O	1.730873	0.247843	0.147452
C11	C	1.472952	0.130943	-0.000014
C12	C	1.309179	0.128069	-0.000015
C13	C	1.753522	-0.025019	0.000006
C14	C	1.750656	-0.117336	0.000009
C15	C	1.878430	-0.338627	-0.000018
C16	C	1.875726	-0.425368	-0.000033
C17	C	1.606917	-0.407559	-0.000028
C18	C	1.609623	-0.320819	-0.000026
C19	C	1.745384	-0.286356	-0.000012
C20	C	1.739974	-0.459836	-0.000029
C21	C	1.737040	-0.553885	-0.000045
C22	C	1.748318	-0.192301	0.000000
C23	C	2.012405	0.122865	-0.000015
C24	C	2.176179	0.125739	-0.000026
C25	C	1.731835	0.278826	-0.000036
C26	C	1.734701	0.371144	-0.000050
N27	N	1.742670	0.126901	0.419751
N28	N	1.742699	0.126900	-0.419776
H29	H	1.984066	-0.467924	-0.000042
C30	C	1.457588	-0.445468	-0.000037
H31	H	1.378738	-0.401912	-0.000053
H32	H	1.450936	-0.478941	0.102820
H33	H	1.450954	-0.478928	-0.102915
C34	C	2.027756	-0.300715	-0.000017
H35	H	2.010317	-0.241569	0.000002
H36	H	2.082539	-0.318584	-0.102879
H37	H	2.082531	-0.318595	0.102855
C38	C	1.463264	-0.263317	-0.000014
H39	H	1.382023	-0.296264	0.000003
H40	H	1.458736	-0.229105	-0.102873
H41	H	1.458737	-0.229116	0.102862
