data_functionalizedCrystal
_audit_creation_method	'MofGen! by Chris Wilmer'
_symmetry_space_group_name_H-M	'P1'
_symmetry_Int_Tables_number	1
_symmetry_cell_setting	triclinic
loop_
_symmetry_equiv_pos_as_xyz
  x,y,z
_cell_length_a	10.654550
_cell_length_b	10.654550
_cell_length_c	9.130313
_cell_angle_alpha	89.998681
_cell_angle_beta	90.006312
_cell_angle_gamma	95.515069
loop_
_atom_site_label
_atom_site_type_symbol
_atom_site_fract_x
_atom_site_fract_y
_atom_site_fract_z
O1	O	0.176402	-1.667841	0.121690
O2	O	0.676402	-1.167841	0.621690
O3	O	0.193208	-1.302363	0.121716
O4	O	0.693208	-0.802363	0.621716
O5	O	0.002066	-1.493505	0.121693
O6	O	0.502066	-0.993505	0.621693
O7	O	0.367544	-1.476699	0.121713
O8	O	0.867544	-0.976699	0.621713
O9	O	0.002054	-1.493488	-0.121906
O10	O	0.502054	-0.993488	0.378094
O11	O	0.193196	-1.302346	-0.121882
O12	O	0.693196	-0.802346	0.378118
O13	O	0.176390	-1.667825	-0.121909
O14	O	0.676390	-1.167825	0.378091
Cu15	Cu	0.184792	-1.485084	-0.144138
Cu16	Cu	0.684792	-0.985084	0.355862
Cu17	Cu	0.184806	-1.485103	0.143946
Cu18	Cu	0.684806	-0.985103	0.643946
O19	O	0.367532	-1.476682	-0.121886
O20	O	0.867532	-0.976682	0.378114
C21	C	0.191968	-1.255556	-0.000080
C22	C	0.691968	-0.755556	0.499920
C23	C	0.188276	-1.116113	-0.000070
C24	C	0.688276	-0.616113	0.499930
C25	C	-0.044738	-1.492263	-0.000105
C26	C	0.455262	-0.992263	0.499895
C27	C	-0.184181	-1.488571	-0.000103
C28	C	0.315819	-0.988571	0.499897
C29	C	0.177630	-1.714631	-0.000110
C30	C	0.677630	-1.214631	0.499890
C31	C	0.181322	-1.854074	-0.000110
C32	C	0.681322	-1.354074	0.499890
C33	C	-0.263667	-1.601112	-0.000111
C34	C	0.236333	-1.101112	0.499889
C35	C	-0.394688	-1.597636	-0.000092
C36	C	0.105312	-1.097636	0.499908
C37	C	-0.366725	-1.369066	-0.000065
C38	C	0.133275	-0.869066	0.499935
C39	C	-0.235706	-1.372544	-0.000073
C40	C	0.264294	-0.872544	0.499927
C41	C	0.414336	-1.477925	-0.000084
C42	C	0.914336	-0.977925	0.499916
C43	C	0.553779	-1.481616	-0.000077
C44	C	1.053779	-0.981616	0.499923
N45	N	0.184781	-1.485080	-0.346761
N46	N	0.684781	-0.985080	0.153239
C47	C	0.300818	-1.036628	-0.000068
C48	C	0.800818	-0.536628	0.499932
C49	C	0.297341	-0.905607	-0.000093
C50	C	0.797341	-0.405607	0.499907
C51	C	0.068772	-0.933570	-0.000117
C52	C	0.568772	-0.433570	0.499883
C53	C	0.072250	-1.064588	-0.000101
C54	C	0.572250	-0.564588	0.499899
C55	C	0.107920	-1.408281	-0.576806
C56	C	0.607920	-0.908281	-0.076806
C57	C	0.107903	-1.408265	-0.423469
C58	C	0.607903	-0.908265	0.076531
C59	C	0.261671	-1.561925	-0.423398
C60	C	0.761671	-1.061925	0.076602
C61	C	0.261680	-1.561947	-0.576732
C62	C	0.761680	-1.061947	-0.076732
N63	N	0.184808	-1.485118	0.346568
N64	N	0.684808	-0.985118	0.846568
H65	H	-0.221720	-1.695588	-0.000132
H66	H	0.278280	-1.195588	0.499868
Br67	Br	0.003556	-1.303978	-0.319481
Br68	Br	0.503556	-0.803978	0.180519
H69	H	0.388984	-0.840894	-0.000095
H70	H	0.888984	-0.340894	0.499905
H71	H	-0.408693	-1.274601	-0.000043
H72	H	0.091307	-0.774601	0.499957
Br73	Br	0.458281	-1.106551	-0.000029
Br74	Br	0.958281	-0.606551	0.499971
Br75	Br	0.365996	-1.666184	-0.319296
Br76	Br	0.865996	-1.166184	0.180704
Br77	Br	-0.502558	-1.750378	-0.000094
Br78	Br	-0.002558	-1.250378	0.499906
H79	H	0.324292	-1.624523	-0.639123
H80	H	0.824292	-1.124523	-0.139123
H81	H	-0.170985	-1.280893	-0.000062
H82	H	0.329015	-0.780893	0.499938
Br83	Br	0.003590	-1.304017	-0.680894
Br84	Br	0.503590	-0.804017	-0.180894
H85	H	-0.025693	-0.891602	-0.000151
H86	H	0.474307	-0.391602	0.499849
H87	H	-0.019401	-1.129309	-0.000107
H88	H	0.480599	-0.629309	0.499893
