data_functionalizedCrystal
_audit_creation_method	'MofGen! by Chris Wilmer'
_symmetry_space_group_name_H-M	'P1'
_symmetry_Int_Tables_number	1
_symmetry_cell_setting	triclinic
loop_
_symmetry_equiv_pos_as_xyz
  x,y,z
_cell_length_a	10.654562
_cell_length_b	17.699092
_cell_length_c	9.730223
_cell_angle_alpha	90.000361
_cell_angle_beta	89.996961
_cell_angle_gamma	83.888236
loop_
_atom_site_label
_atom_site_type_symbol
_atom_site_fract_x
_atom_site_fract_y
_atom_site_fract_z
O1	O	1.665968	0.106345	-0.114375
O2	O	1.300315	0.116462	-0.114357
O3	O	1.493467	0.001281	-0.114363
O4	O	1.472817	0.221526	-0.114368
O5	O	1.493465	0.001284	0.114217
O6	O	1.300313	0.116465	0.114223
O7	O	1.665966	0.106348	0.114205
Zn8	Zn	1.483139	0.111407	0.150506
Zn9	Zn	1.483142	0.111403	-0.150658
O10	O	1.472814	0.221529	0.114212
C11	C	1.253530	0.115719	-0.000065
C12	C	1.114126	0.113490	-0.000058
C13	C	1.048612	0.112452	0.124530
C14	C	0.917626	0.110364	0.124507
C15	C	0.917679	0.110355	-0.124703
C16	C	1.048664	0.112438	-0.124679
C17	C	1.048580	0.112461	0.268410
C18	C	0.917594	0.110373	0.268387
C19	C	1.492724	-0.026920	-0.000075
C20	C	1.490499	-0.110951	-0.000081
C21	C	1.489458	-0.150427	-0.124682
C22	C	1.487359	-0.229384	-0.124683
C23	C	1.486311	-0.268863	-0.000083
C24	C	1.487348	-0.229382	0.124527
C25	C	1.489438	-0.150426	0.124527
C26	C	1.478919	-0.547801	0.124529
C27	C	1.476833	-0.626762	0.124520
C28	C	1.476840	-0.626758	-0.124681
C29	C	1.478930	-0.547802	-0.124681
C30	C	1.479960	-0.508327	-0.000072
C31	C	1.482234	-0.422714	-0.000072
C32	C	1.484046	-0.354476	-0.000082
C33	C	1.712752	0.107091	-0.000090
C34	C	1.852156	0.109320	-0.000105
C35	C	1.473557	0.249729	-0.000079
C36	C	1.475782	0.333761	-0.000082
N37	N	1.483146	0.111409	0.356043
N38	N	1.483145	0.111395	-0.356194
C39	C	1.568696	0.060424	0.427966
C40	C	1.568692	0.060415	0.571849
C41	C	1.397587	0.162382	0.571872
C42	C	1.397585	0.162387	0.427992
C43	C	1.667486	0.001556	0.427953
C44	C	1.667483	0.001547	0.571836
H45	H	1.490318	-0.118289	-0.226146
H46	H	1.327913	0.203897	0.369433
H47	H	1.479783	-0.515672	0.225994
F48	F	1.306530	0.216634	0.648457
F49	F	0.848000	0.109228	-0.257326
F50	F	1.085983	0.184607	0.326761
H51	H	1.490268	-0.118285	0.225990
H52	H	1.647059	-0.056617	0.388902
H53	H	1.095752	0.060157	0.323664
H54	H	0.870395	0.162679	0.323621
F55	F	1.475739	-0.668776	-0.257303
H56	H	1.758347	0.019992	0.383322
F57	F	1.628846	-0.070304	0.630163
H58	H	1.486517	-0.261521	-0.226146
H59	H	1.479789	-0.515662	-0.226144
F60	F	1.793333	0.018494	0.622879
F61	F	1.486218	-0.271400	0.257137
H62	H	1.102003	0.113271	-0.226131
F63	F	0.880159	0.038287	0.326975
H64	H	1.475976	-0.658904	0.225990
