data_functionalizedCrystal
_audit_creation_method	'MofGen! by Chris Wilmer'
_symmetry_space_group_name_H-M	'P1'
_symmetry_Int_Tables_number	1
_symmetry_cell_setting	triclinic
loop_
_symmetry_equiv_pos_as_xyz
  x,y,z
_cell_length_a	12.759401
_cell_length_b	12.759399
_cell_length_c	12.759393
_cell_angle_alpha	90.032031
_cell_angle_beta	90.019465
_cell_angle_gamma	90.013324
loop_
_atom_site_label
_atom_site_type_symbol
_atom_site_fract_x
_atom_site_fract_y
_atom_site_fract_z
Zn1	Zn	-1.606252	0.418254	-0.594007
Zn2	Zn	-1.606145	0.593973	-0.418326
Zn3	Zn	-1.430554	0.418303	-0.418343
Zn4	Zn	-1.430541	0.593886	-0.593964
O5	O	-1.518373	0.506104	-0.506160
O6	O	-1.753259	0.441579	-0.570713
O7	O	-1.582813	0.570727	-0.271307
O8	O	-1.453911	0.271276	-0.441670
O9	O	-1.753180	0.570679	-0.441641
O10	O	-1.582995	0.271240	-0.570730
O11	O	-1.453807	0.441663	-0.271320
O12	O	-1.283531	0.441579	-0.441629
O13	O	-1.453889	0.570531	-0.740991
O14	O	-1.283522	0.570579	-0.570657
O15	O	-1.582983	0.441495	-0.741022
O16	O	-1.582801	0.740983	-0.441599
O17	O	-1.453785	0.740919	-0.570640
C18	C	-1.245406	0.506075	-0.506141
C19	C	-1.128629	0.506088	-0.506157
C20	C	-1.073809	0.438985	-0.573468
C21	C	-0.964085	0.438992	-0.573473
C22	C	-0.964011	0.573213	-0.438854
C23	C	-1.073733	0.573201	-0.438845
C24	C	-0.814165	0.315148	-0.611240
C25	C	-0.759341	0.248054	-0.678567
C26	C	-0.794998	0.232041	-0.781107
C27	C	-0.885477	0.283137	-0.816340
C28	C	-0.940295	0.350238	-0.749018
C29	C	-0.904640	0.366232	-0.646464
C30	C	-1.223654	0.697046	-0.401088
C31	C	-1.278475	0.764154	-0.333771
C32	C	-1.242820	0.780178	-0.231230
C33	C	-1.152338	0.729101	-0.196001
C34	C	-1.097517	0.661993	-0.263318
C35	C	-1.133179	0.645967	-0.365858
C36	C	-1.518309	0.779071	-0.506136
C37	C	-1.518377	0.895848	-0.506161
C38	C	-1.518446	0.505998	-0.780193
C39	C	-1.518478	0.505953	-0.896970
C40	C	-0.792406	0.506124	-0.506176
C41	C	-0.909183	0.506107	-0.506172
C42	C	-1.518466	0.232071	-0.506207
C43	C	-1.518506	0.115294	-0.506227
C44	C	-1.585632	0.950708	-0.439046
C45	C	-1.585700	1.060432	-0.439081
C46	C	-1.451248	1.060426	-0.573349
C47	C	-1.451187	0.950704	-0.573319
C48	C	-1.709709	1.210316	-0.401693
C49	C	-1.776955	1.265180	-0.334561
C50	C	-1.793119	1.229642	-0.232051
C51	C	-1.742023	1.139242	-0.196651
C52	C	-1.674769	1.084384	-0.263777
C53	C	-1.658625	1.119920	-0.366302
C54	C	-1.327176	0.800819	-0.610696
C55	C	-1.259916	0.745958	-0.677818
C56	C	-1.243741	0.781494	-0.780330
C57	C	-1.294819	0.871897	-0.815725
C58	C	-1.362079	0.926758	-0.748604
C59	C	-1.378256	0.891215	-0.646093
C60	C	-1.451328	0.438737	-0.951838
C61	C	-1.451353	0.438704	-1.061562
C62	C	-1.585685	0.573107	-1.061540
C63	C	-1.585654	0.573143	-0.951818
C64	C	-1.327503	0.401100	-1.211513
C65	C	-1.260363	0.333868	-1.266385
C66	C	-1.244259	0.231364	-1.230796
C67	C	-1.295311	0.196071	-1.140337
C68	C	-1.362459	0.263297	-1.085471
C69	C	-1.378542	0.365816	-1.121058
C70	C	-1.709506	0.610737	-0.801865
C71	C	-1.776660	0.677959	-0.746997
C72	C	-1.792774	0.780465	-0.782584
C73	C	-1.741741	0.815754	-0.873046
C74	C	-1.674587	0.748532	-0.927915
C75	C	-1.658471	0.646027	-0.892320
C76	C	-1.518360	0.506134	-0.233192
C77	C	-1.518533	0.505883	-0.116416
H78	H	-0.685673	0.206452	-0.649871
H79	H	-1.640379	0.627810	-1.106211
O80	O	-0.910635	0.638522	-0.373628
C81	C	-0.847168	0.706439	-0.433333
H82	H	-0.880271	0.713022	-0.516064
H83	H	-0.764017	0.673970	-0.437018
C84	C	-0.804788	0.807514	-0.280204
C85	C	-0.845452	0.815606	-0.381814
H86	H	-0.803725	0.874852	-0.248424
H87	H	-0.847544	0.761755	-0.239978
H88	H	-0.735499	0.780452	-0.283289
H89	H	-0.914743	0.842654	-0.378727
H90	H	-0.802708	0.861372	-0.422038
O91	O	-1.625255	0.996568	-0.229250
C92	C	-1.653913	0.976981	-0.124362
H93	H	-1.732329	1.016149	-0.107109
H94	H	-1.591424	1.010078	-0.069696
C95	C	-1.567392	0.809857	-0.128127
C96	C	-1.663708	0.857957	-0.106939
H97	H	-1.573429	0.736438	-0.117377
H98	H	-1.548081	0.823054	-0.198791
H99	H	-1.515328	0.837449	-0.082570
H100	H	-1.715767	0.830375	-0.152504
H101	H	-1.683028	0.844753	-0.036282
H102	H	-1.023841	0.620403	-0.234626
H103	H	-0.914495	0.270102	-0.899842
H104	H	-1.754866	0.899222	-0.902026
O105	O	-1.117551	0.744769	-0.096459
C106	C	-1.015527	0.787143	-0.099273
H107	H	-1.002239	0.827499	-0.177844
H108	H	-0.955740	0.721560	-0.089004
C109	C	-1.019115	0.817942	0.086417
C110	C	-1.002798	0.867516	-0.010081
H111	H	-1.011260	0.867517	0.141438
H112	H	-1.087849	0.789391	0.088315
H113	H	-0.969291	0.763291	0.094960
H114	H	-1.052630	0.922157	-0.018628
H115	H	-0.934072	0.896079	-0.011978
H116	H	-1.847874	1.274320	-0.177392
H117	H	-1.633035	0.777273	-1.001576
O118	O	-1.757870	1.104846	-0.097049
C119	C	-1.828164	1.172664	-0.045384
H120	H	-1.877720	1.215867	-0.105868
H121	H	-1.782158	1.231880	0.003260
C122	C	-1.839292	1.055333	0.101335
C123	C	-1.900163	1.108389	0.027047
H124	H	-1.883702	1.015687	0.146018
H125	H	-1.791931	1.009643	0.066530
H126	H	-1.800957	1.104689	0.141861
H127	H	-1.938487	1.059033	-0.013486
H128	H	-1.947533	1.154069	0.061847
H129	H	-1.696362	0.527279	-0.772860
H130	H	-0.750352	0.177411	-0.835925
O131	O	-1.411665	1.014522	-0.783172
C132	C	-1.382952	1.034141	-0.888040
H133	H	-1.355239	0.958179	-0.926062
H134	H	-1.316914	1.094306	-0.890047
C135	C	-1.512270	1.170210	-0.901821
C136	C	-1.478240	1.076909	-0.948523
H137	H	-1.571045	1.196596	-0.939129
H138	H	-1.531612	1.156996	-0.831168
H139	H	-1.457229	1.220335	-0.903496
H140	H	-1.533276	1.026782	-0.946836
H141	H	-1.458909	1.090116	-1.019177
O142	O	-1.857885	0.845906	-0.729304
C143	C	-1.801299	0.934541	-0.695251
H144	H	-1.729243	0.945496	-0.746900
H145	H	-1.775642	0.922803	-0.610472
C146	C	-1.959981	1.018962	-0.639370
C147	C	-1.871485	1.032423	-0.702812
H148	H	-2.003275	1.079341	-0.644029
H149	H	-1.998104	0.959246	-0.662308
H150	H	-1.938587	1.009178	-0.568727
H151	H	-1.892880	1.042194	-0.773455
H152	H	-1.833367	1.092143	-0.679886
O153	O	-1.386009	1.113878	-0.638477
C154	C	-1.400499	1.222486	-0.624130
H155	H	-1.434961	1.237512	-0.543085
H156	H	-1.456430	1.253529	-0.686506
C157	C	-1.251895	1.260437	-0.733219
C158	C	-1.294213	1.278893	-0.633674
H159	H	-1.186335	1.295233	-0.739110
H160	H	-1.242135	1.187266	-0.742888
H161	H	-1.298514	1.286307	-0.785187
H162	H	-1.247601	1.253011	-0.581708
H163	H	-1.303964	1.352061	-0.623996
H164	H	-1.352161	0.805730	-0.362458
O165	O	-1.279032	0.906253	-0.915353
C166	C	-1.208698	0.838461	-0.966999
H167	H	-1.209874	0.758452	-0.927298
H168	H	-1.126175	0.872501	-0.962977
C169	C	-1.240311	0.924774	-1.131235
C170	C	-1.241763	0.826503	-1.082480
H171	H	-1.260703	0.917401	-1.202471
H172	H	-1.287694	0.970450	-1.096441
H173	H	-1.171540	0.953130	-1.127873
H174	H	-1.310536	0.798155	-1.085831
H175	H	-1.194392	0.780822	-1.117278
H176	H	-1.818225	0.649213	-0.673345
H177	H	-1.013965	0.391834	-0.777702
O178	O	-1.178401	0.728055	-0.845410
C179	C	-1.136751	0.640663	-0.792182
H180	H	-1.190981	0.618214	-0.724846
H181	H	-1.056015	0.661185	-0.759822
C182	C	-1.060455	0.575376	-0.951412
C183	C	-1.127066	0.547798	-0.868714
H184	H	-1.054476	0.518093	-0.998621
H185	H	-1.088512	0.634255	-0.987273
H186	H	-0.993182	0.592478	-0.924433
H187	H	-1.194340	0.530709	-0.895693
H188	H	-1.099020	0.488914	-0.832860
O189	O	-1.178972	0.166203	-1.284196
C190	C	-1.137395	0.219320	-1.371682
H191	H	-1.140806	0.307453	-1.357373
H192	H	-1.185269	0.199021	-1.444371
C193	C	-1.018509	0.077466	-1.405961
C194	C	-1.022691	0.185712	-1.388382
H195	H	-0.947756	0.056732	-1.416267
H196	H	-1.046522	0.041677	-1.347022
H197	H	-1.058410	0.060563	-1.466533
H198	H	-0.982801	0.202611	-1.327804
H199	H	-0.994668	0.221503	-1.447312
H200	H	-1.118502	0.384335	-0.628275
H201	H	-1.287445	0.834853	-0.176434
H202	H	-1.252699	0.683996	-0.484583
H203	H	-0.785132	0.328169	-0.527741
H204	H	-1.640344	0.906047	-0.384363
H205	H	-1.818558	1.338783	-0.363393
H206	H	-1.696564	1.239252	-0.485168
H207	H	-1.218332	0.672343	-0.648992
H208	H	-1.340349	0.771871	-0.527225
H209	H	-1.218796	0.362613	-1.340038
H210	H	-1.396629	0.384026	-0.907184
H211	H	-1.404029	0.234560	-1.011824
H212	H	-1.282203	0.112596	-1.111375
H213	H	-1.340596	0.484572	-1.240491
