data_functionalizedCrystal
_audit_creation_method	'MofGen! by Chris Wilmer'
_symmetry_space_group_name_H-M	'P1'
_symmetry_Int_Tables_number	1
_symmetry_cell_setting	triclinic
loop_
_symmetry_equiv_pos_as_xyz
  x,y,z
_cell_length_a	16.974800
_cell_length_b	10.654550
_cell_length_c	15.455425
_cell_angle_alpha	87.037529
_cell_angle_beta	90.650735
_cell_angle_gamma	83.936244
loop_
_atom_site_label
_atom_site_type_symbol
_atom_site_fract_x
_atom_site_fract_y
_atom_site_fract_z
O1	O	1.049956	0.159860	0.001603
O2	O	1.549956	0.659860	0.501603
O3	O	0.820558	0.181356	-0.014508
O4	O	1.320558	0.681356	0.485492
O5	O	0.940531	-0.012240	-0.006079
O6	O	1.440531	0.487760	0.493921
O7	O	0.929983	0.353455	-0.006826
O8	O	1.429983	0.853455	0.493174
O9	O	0.934306	-0.021969	0.137744
O10	O	1.434306	0.478031	0.637744
O11	O	0.814332	0.171626	0.129315
O12	O	1.314332	0.671626	0.629315
O13	O	1.043731	0.150131	0.145426
O14	O	1.543731	0.650131	0.645426
Cu15	Cu	0.928463	0.159990	0.150503
Cu16	Cu	1.428463	0.659990	0.650503
Cu17	Cu	0.935825	0.171496	-0.019585
Cu18	Cu	1.435825	0.671496	0.480415
O19	O	0.923758	0.343726	0.136997
O20	O	1.423758	0.843726	0.636997
C21	C	0.788072	0.175858	0.055341
C22	C	1.288072	0.675858	0.555341
C23	C	0.700548	0.173955	0.049194
C24	C	1.200548	0.673955	0.549194
C25	C	0.936644	-0.063886	0.065777
C26	C	1.436644	0.436114	0.565777
C27	C	0.934327	-0.203282	0.065611
C28	C	1.434327	0.296718	0.565611
C29	C	0.656040	0.167754	0.124706
C30	C	1.156040	0.667754	0.624706
C31	C	0.573803	0.165946	0.118933
C32	C	1.073803	0.665946	0.618933
C33	C	0.536075	0.170348	0.037647
C34	C	1.036075	0.670348	0.537647
C35	C	0.580589	0.176545	-0.037870
C36	C	1.080589	0.676545	0.462130
C37	C	0.662825	0.178344	-0.032096
C38	C	1.162825	0.678344	0.467904
C39	C	0.290491	0.165528	0.011972
C40	C	0.790491	0.665528	0.511972
C41	C	0.208249	0.163732	0.006204
C42	C	0.708249	0.663732	0.506204
C43	C	0.201469	0.153131	0.163009
C44	C	0.701469	0.653131	0.663009
C45	C	0.283706	0.154938	0.168775
C46	C	0.783706	0.654938	0.668775
C47	C	0.328214	0.161129	0.093258
C48	C	0.828214	0.661129	0.593258
N49	N	0.452016	0.168504	0.031744
N50	N	0.952016	0.668504	0.531744
N51	N	0.412272	0.162963	0.099161
N52	N	0.912272	0.662963	0.599161
C53	C	1.004965	-0.284212	0.070575
C54	C	1.504965	0.215788	0.570575
C55	C	1.002784	-0.415188	0.070416
C56	C	1.502784	0.084812	0.570416
C57	C	0.859318	-0.384291	0.060333
C58	C	1.359318	0.115709	0.560333
C59	C	0.861501	-0.253317	0.060486
C60	C	1.361501	0.246683	0.560486
C61	C	1.077791	-0.234177	0.075701
C62	C	1.577791	0.265823	0.575701
C63	C	1.148435	-0.315108	0.080665
C64	C	1.648435	0.184892	0.580665
C65	C	1.146254	-0.446084	0.080506
C66	C	1.646254	0.053916	0.580506
C67	C	1.073427	-0.496128	0.075382
C68	C	1.573427	0.003872	0.575382
C69	C	1.076217	0.155629	0.075575
C70	C	1.576217	0.655629	0.575575
C71	C	1.163742	0.157532	0.081716
C72	C	1.663742	0.657532	0.581716
C73	C	0.927645	0.395373	0.065139
C74	C	1.427645	0.895373	0.565139
C75	C	0.929962	0.534769	0.065299
C76	C	1.429962	1.034769	0.565299
N77	N	0.923291	0.151897	0.270133
N78	N	1.423291	0.651897	0.770133
N79	N	0.941004	0.179580	-0.139215
N80	N	1.441004	0.679580	0.360785
C81	C	0.894736	0.106770	0.812126
C82	C	1.394736	0.606770	1.312126
C83	C	0.898643	0.112939	0.721594
C84	C	1.398643	0.612939	1.221594
C85	C	0.948814	0.191926	0.679722
C86	C	1.448814	0.691926	1.179722
C87	C	0.995086	0.264739	0.728389
C88	C	1.495086	0.764739	1.228389
C89	C	0.991183	0.258562	0.818920
C90	C	1.491183	0.758562	1.318920
C91	C	0.965661	0.218532	0.409330
C92	C	1.465661	0.718532	0.909330
C93	C	0.969559	0.224707	0.318793
C94	C	1.469559	0.724707	0.818793
C95	C	0.873116	0.072905	0.312004
C96	C	1.373116	0.572905	0.812004
C97	C	0.869214	0.066740	0.402536
C98	C	1.369214	0.566740	0.902536
C99	C	0.915490	0.139548	0.451195
C100	C	1.415490	0.639548	0.951195
N101	N	0.952806	0.198237	0.587184
N102	N	1.452806	0.698237	1.087184
N103	N	0.911501	0.133229	0.543732
N104	N	1.411501	0.633229	1.043732
H105	H	0.686751	0.164180	0.190898
H106	H	1.186751	0.664180	0.690898
F107	F	0.710193	0.184939	-0.112467
F108	F	1.210193	0.684939	0.387533
F109	F	1.040430	0.336052	0.870707
F110	F	1.540430	0.836052	1.370707
F111	F	0.323853	0.150260	0.255291
F112	F	0.823853	0.650260	0.755291
H113	H	1.003341	0.277818	0.448937
H114	H	1.503341	0.777818	0.948937
H115	H	0.177533	0.167321	-0.059992
H116	H	0.677533	0.667321	0.440008
H117	H	0.549865	0.180120	-0.104055
H118	H	1.049865	0.680120	0.395945
F119	F	0.823872	-0.004580	0.260212
F120	F	1.323872	0.495420	0.760212
F121	F	1.080119	-0.094783	0.075873
F122	F	1.580119	0.405217	0.575873
F123	F	1.048485	0.348797	0.683824
F124	F	1.548485	0.848797	1.183824
H125	H	0.165223	0.148089	0.224491
H126	H	0.665223	0.648089	0.724491
H127	H	1.010412	0.289036	0.284704
H128	H	1.510412	0.789036	0.784704
F129	F	1.225938	-0.261844	0.086109
F130	F	1.725938	0.238156	0.586109
F131	F	1.221438	-0.532213	0.085781
F132	F	1.721438	-0.032213	0.585781
F133	F	0.337849	0.172118	-0.068401
F134	F	0.837849	0.672118	0.431599
H135	H	0.537570	0.160876	0.180423
H136	H	1.037570	0.660876	0.680423
H137	H	1.071657	-0.602778	0.075244
H138	H	1.571657	-0.102778	0.575244
H139	H	0.800027	-0.425048	0.056162
H140	H	1.300027	0.074952	0.556162
F141	F	0.786320	-0.167181	0.055203
F142	F	1.286320	0.332819	0.555203
H143	H	0.853878	0.042457	0.846210
H144	H	1.353878	0.542457	1.346210
F145	F	0.849380	0.035475	0.669809
F146	F	1.349380	0.535475	1.169809
F147	F	0.815813	-0.017323	0.447092
F148	F	1.315813	0.482677	0.947092
