data_functionalizedCrystal
_audit_creation_method	'MofGen! by Chris Wilmer'
_symmetry_space_group_name_H-M	'P1'
_symmetry_Int_Tables_number	1
_symmetry_cell_setting	triclinic
loop_
_symmetry_equiv_pos_as_xyz
  x,y,z
_cell_length_a	12.837943
_cell_length_b	14.519731
_cell_length_c	11.295483
_cell_angle_alpha	94.102025
_cell_angle_beta	85.461227
_cell_angle_gamma	89.258897
loop_
_atom_site_label
_atom_site_type_symbol
_atom_site_fract_x
_atom_site_fract_y
_atom_site_fract_z
O1	O	1.382889	0.234188	-0.099009
O2	O	1.882889	0.734188	0.400991
O3	O	1.081061	0.222343	-0.099016
O4	O	1.581061	0.722343	0.400984
O5	O	1.239966	0.094719	-0.099002
O6	O	1.739966	0.594719	0.400998
O7	O	1.223985	0.361811	-0.099024
O8	O	1.723985	0.861811	0.400976
O9	O	1.226009	0.105909	0.099048
O10	O	1.726009	0.605909	0.599048
O11	O	1.067104	0.233533	0.099034
O12	O	1.567104	0.733533	0.599034
O13	O	1.368933	0.245378	0.099040
O14	O	1.868933	0.745378	0.599040
Cu15	Cu	1.216744	0.240477	0.117120
Cu16	Cu	1.716744	0.740477	0.617120
Cu17	Cu	1.233250	0.227243	-0.117096
Cu18	Cu	1.733250	0.727243	0.382904
O19	O	1.210028	0.373001	0.099026
O20	O	1.710028	0.873001	0.599026
C21	C	1.035455	0.223936	0.000008
C22	C	1.535455	0.723936	0.500008
C23	C	0.920354	0.212002	0.000006
C24	C	1.420354	0.712002	0.500006
C25	C	0.679674	0.355472	0.000011
C26	C	1.179674	0.855472	0.500011
C27	C	0.571527	0.344263	0.000010
C28	C	1.071527	0.844263	0.500010
C29	C	0.595909	0.178376	0.000011
C30	C	1.095909	0.678376	0.500011
C31	C	0.704057	0.189585	0.000012
C32	C	1.204057	0.689585	0.500012
C33	C	0.745935	0.278136	0.000010
C34	C	1.245935	0.778136	0.500010
C35	C	0.854085	0.289344	0.000003
C36	C	1.354085	0.789344	0.500003
C37	C	0.878465	0.123458	0.000012
C38	C	1.378465	0.623458	0.500012
C39	C	0.770318	0.112249	0.000011
C40	C	1.270318	0.612249	0.500011
C41	C	1.232238	0.065890	0.000023
C42	C	1.732238	0.565890	0.500023
C43	C	1.229994	-0.036684	0.000024
C44	C	1.729994	0.463316	0.500024
C45	C	1.228171	-0.119986	0.000021
C46	C	1.728171	0.380014	0.500021
C47	C	1.225893	-0.224492	0.000012
C48	C	1.725893	0.275508	0.500012
C49	C	1.224086	-0.307788	0.000004
C50	C	1.724086	0.192212	0.500004
C51	C	1.221808	-0.412300	-0.000002
C52	C	1.721808	0.087700	0.499998
C53	C	1.414539	0.243784	0.000014
C54	C	1.914539	0.743784	0.500014
C55	C	1.529640	0.255718	0.000008
C56	C	2.029640	0.755718	0.500008
C57	C	1.217756	0.401830	-0.000002
C58	C	1.717756	0.901830	0.499998
C59	C	1.220000	0.504404	-0.000010
C60	C	1.720000	1.004404	0.499990
N61	N	1.205142	0.249785	0.281856
N62	N	1.705142	0.749785	0.781856
N63	N	1.244860	0.217929	-0.281831
N64	N	1.744860	0.717929	0.218169
C65	C	1.328375	0.150873	0.531156
C66	C	1.828375	0.650873	1.031156
C67	C	1.319615	0.157914	0.655819
C68	C	1.819615	0.657914	1.155819
C69	C	1.178858	0.270904	0.655847
C70	C	1.678858	0.770904	1.155847
C71	C	1.187618	0.263863	0.531184
C72	C	1.687618	0.763863	1.031184
C73	C	1.262380	0.203846	0.468843
C74	C	1.762380	0.703846	0.968843
C75	C	1.271144	0.196810	0.344178
C76	C	1.771144	0.696810	0.844178
C77	C	1.130383	0.309795	0.344207
C78	C	1.630383	0.809795	0.844207
C79	C	1.121623	0.316836	0.468870
C80	C	1.621623	0.816836	0.968870
H81	H	0.561786	0.106288	0.000110
H82	H	1.061786	0.606288	0.500110
H83	H	1.389256	0.102012	0.480398
H84	H	1.889256	0.602012	0.980398
O85	O	0.500056	0.427676	0.000018
O86	O	1.000056	0.927676	0.500018
H87	H	0.455880	0.421981	-0.080697
H88	H	0.955880	0.921981	0.419303
H89	H	0.932428	0.060485	0.000004
H90	H	1.432428	0.560485	0.500004
H91	H	0.736204	0.040154	0.000026
H92	H	1.236204	0.540154	0.500026
O93	O	1.059201	0.366935	0.276992
O94	O	1.559201	0.866935	0.776992
H95	H	1.005752	0.409855	0.341289
H96	H	1.505752	0.909855	0.841289
H97	H	1.332022	0.147944	0.293421
H98	H	1.832022	0.647944	0.793421
O99	O	0.899261	0.384847	0.000017
O100	O	1.399261	0.884847	0.500017
H101	H	0.835011	0.436741	0.000034
H102	H	1.335011	0.936741	0.500034
H103	H	1.373353	0.114777	0.706551
H104	H	1.873353	0.614777	1.206551
H105	H	0.713772	0.427574	0.000008
H106	H	1.213772	0.927574	0.500008
O107	O	1.098226	0.335632	0.723093
O108	O	1.598226	0.835632	1.223093
H109	H	1.103229	0.331629	0.820247
H110	H	1.603229	0.831629	1.320247
O111	O	1.040996	0.381572	0.536110
O112	O	1.540996	0.881572	1.036110
H113	H	1.045995	0.377576	0.633265
H114	H	1.545995	0.877576	1.133265
