data_functionalizedCrystal
_audit_creation_method	'MofGen! by Chris Wilmer'
_symmetry_space_group_name_H-M	'P1'
_symmetry_Int_Tables_number	1
_symmetry_cell_setting	triclinic
loop_
_symmetry_equiv_pos_as_xyz
  x,y,z
_cell_length_a	13.339070
_cell_length_b	10.723024
_cell_length_c	9.198806
_cell_angle_alpha	90.003648
_cell_angle_beta	89.999439
_cell_angle_gamma	79.951418
loop_
_atom_site_label
_atom_site_type_symbol
_atom_site_fract_x
_atom_site_fract_y
_atom_site_fract_z
O1	O	0.142225	-1.704931	-0.120877
O2	O	0.155839	-1.346349	-0.120882
O3	O	0.001483	-1.484486	-0.120876
O4	O	0.296581	-1.566793	-0.120883
O5	O	0.001483	-1.484471	0.120909
O6	O	0.155839	-1.346333	0.120903
O7	O	0.142225	-1.704916	0.120908
Cu8	Cu	0.149032	-1.525623	0.142982
Cu9	Cu	0.149032	-1.525641	-0.142957
O10	O	0.296581	-1.566778	0.120902
C11	C	0.154848	-1.299509	0.000010
C12	C	0.151884	-1.159959	0.000008
C13	C	-0.036303	-1.470575	0.000015
C14	C	-0.148892	-1.429133	0.000008
C15	C	0.143216	-1.751755	0.000013
C16	C	0.146180	-1.891305	0.000005
C17	C	-0.511449	-1.751368	0.000013
C18	C	-0.405666	-1.790309	0.000027
C19	C	-0.341468	-1.700018	0.000022
C20	C	-0.383062	-1.570779	0.000003
C21	C	-0.488855	-1.531834	0.000001
C22	C	-0.318874	-1.480485	0.000010
C23	C	-0.360469	-1.351246	-0.000009
C24	C	-0.466252	-1.312308	-0.000013
C25	C	-0.530450	-1.402598	-0.000007
C26	C	-0.213081	-1.519430	0.000012
C27	C	-0.190487	-1.299897	0.000000
C28	C	-0.296270	-1.260956	-0.000014
C29	C	0.334367	-1.580689	0.000008
C30	C	0.446956	-1.622132	0.000005
N31	N	0.149031	-1.525619	0.344096
C32	C	0.238253	-1.113970	0.000005
C33	C	0.235192	-0.969739	0.000003
N34	N	0.149025	-1.525652	-0.344070
C35	C	0.083935	-1.583523	0.416296
C36	C	0.083932	-1.583541	0.583708
H37	H	-0.255335	-1.731732	0.000034
O38	O	0.017445	-1.642504	0.342001
C39	C	-0.045405	-1.553651	0.253957
H40	H	-0.005553	-1.469870	0.231357
H41	H	-0.061038	-1.600182	0.146839
H42	H	-0.120444	-1.519053	0.312477
H43	H	0.028204	-1.633121	0.645797
H44	H	-0.371808	-1.895534	0.000044
H45	H	0.204763	-1.476081	0.593850
H46	H	-0.563728	-1.824868	0.000029
O47	O	-0.172562	-1.644926	-0.000174
C48	C	-0.112066	-1.674040	-0.125415
H49	H	-0.086403	-1.584579	-0.167166
H50	H	-0.042461	-1.747882	-0.097251
H51	H	-0.158413	-1.713203	-0.213099
H52	H	0.072237	-0.930908	-0.000002
H53	H	0.204755	-1.476053	0.406222
O54	O	0.060898	-1.079683	-0.000186
C55	C	0.005419	-1.101225	-0.125427
H56	H	0.033580	-1.201307	-0.167175
H57	H	-0.078910	-1.089954	-0.097264
H58	H	0.016723	-1.029837	-0.213112
H59	H	0.314464	-1.181375	0.000011
H60	H	-0.616589	-1.370899	-0.000024
O61	O	-0.506608	-1.186753	-0.000277
C62	C	-0.473860	-1.129499	-0.125483
H63	H	-0.451390	-1.204437	-0.213004
H64	H	-0.538303	-1.054103	-0.167519
H65	H	-0.405409	-1.083662	-0.097175
O66	O	-0.336634	-1.135403	-0.000282
C67	C	-0.303889	-1.078147	-0.125489
H68	H	-0.281409	-1.153085	-0.213006
H69	H	-0.368337	-1.002760	-0.167531
H70	H	-0.235445	-1.032297	-0.097178
O71	O	-0.128177	-1.212130	0.000247
C72	C	-0.147169	-1.135806	0.125448
H73	H	-0.182864	-1.189314	0.212976
H74	H	-0.072473	-1.111628	0.167477
H75	H	-0.201526	-1.044761	0.097134
O76	O	0.323311	-0.922283	0.000061
C77	C	0.300637	-0.788841	0.000019
H78	H	0.220937	-0.756375	0.045797
H79	H	0.358458	-0.749806	0.070209
H80	H	0.304181	-0.752439	-0.115980
