data_functionalizedCrystal
_audit_creation_method	'MofGen! by Chris Wilmer'
_symmetry_space_group_name_H-M	'P1'
_symmetry_Int_Tables_number	1
_symmetry_cell_setting	triclinic
loop_
_symmetry_equiv_pos_as_xyz
  x,y,z
_cell_length_a	19.077409
_cell_length_b	21.395361
_cell_length_c	21.395356
_cell_angle_alpha	90.030681
_cell_angle_beta	92.268175
_cell_angle_gamma	87.667329
loop_
_atom_site_label
_atom_site_type_symbol
_atom_site_fract_x
_atom_site_fract_y
_atom_site_fract_z
Zn1	Zn	1.075969	0.210939	-0.315905
Zn2	Zn	1.075861	0.315720	-0.211126
Zn3	Zn	0.958264	0.215169	-0.215336
Zn4	Zn	0.958228	0.319898	-0.320058
O5	O	1.017081	0.265432	-0.265606
O6	O	1.174444	0.221320	-0.298505
O7	O	1.060232	0.302403	-0.124007
O8	O	0.973939	0.126928	-0.228701
O9	O	1.174365	0.298302	-0.221525
O10	O	1.060415	0.123820	-0.302588
O11	O	0.973834	0.228530	-0.127101
O12	O	0.859770	0.232581	-0.232728
O13	O	0.973876	0.305422	-0.407184
O14	O	0.859743	0.309524	-0.309666
O15	O	1.060380	0.225371	-0.404132
O16	O	1.060197	0.403954	-0.225552
O17	O	0.973772	0.407023	-0.305584
C18	C	0.834219	0.271965	-0.272105
C19	C	0.755990	0.274775	-0.274900
C20	C	0.315645	0.294881	-0.294977
C21	C	0.389149	0.292245	-0.292339
C22	C	0.425892	0.250803	-0.251029
C23	C	0.389127	0.211998	-0.212349
C24	C	0.315624	0.214637	-0.214985
C25	C	0.645722	0.238610	-0.238856
C26	C	0.719230	0.235972	-0.236225
C27	C	0.719247	0.316221	-0.316214
C28	C	0.645743	0.318854	-0.318848
C29	C	0.608984	0.280051	-0.280167
N30	N	0.501026	0.248106	-0.248333
N31	N	0.533852	0.282751	-0.282860
C32	C	1.016988	0.428222	-0.265574
C33	C	1.017012	0.497863	-0.265580
C34	C	1.017136	0.265391	-0.429027
C35	C	1.017160	0.265373	-0.498668
C36	C	1.200656	0.258873	-0.259082
C37	C	1.278885	0.256078	-0.256302
C38	C	1.017193	0.102004	-0.265651
C39	C	1.017241	0.032361	-0.265670
C40	C	1.062054	0.528955	-0.223946
C41	C	1.062086	0.594390	-0.223959
C42	C	1.017065	0.628729	-0.265599
C43	C	0.972021	0.597629	-0.307240
C44	C	0.971994	0.532196	-0.307230
C45	C	0.953694	0.734712	-0.272767
C46	C	0.953719	0.800144	-0.272773
C47	C	1.017147	0.830547	-0.265633
C48	C	1.080552	0.795510	-0.258474
C49	C	1.080526	0.730077	-0.258465
C50	C	1.017089	0.699681	-0.265615
C51	C	1.062228	0.932591	-0.224012
C52	C	1.062262	0.998026	-0.224029
C53	C	0.972190	1.001264	-0.307306
C54	C	0.972162	0.935830	-0.307292
C55	C	1.017180	0.901497	-0.265642
C56	C	0.972184	0.226902	-0.532981
C57	C	0.972182	0.226891	-0.598417
C58	C	1.017167	0.265343	-0.629536
C59	C	1.062146	0.303822	-0.595214
C60	C	1.062142	0.303837	-0.529780
C61	C	1.080581	0.267999	-0.730962
C62	C	1.080586	0.267980	-0.796395
C63	C	1.017179	0.265300	-0.831356
C64	C	0.953765	0.262628	-0.800877
C65	C	0.953761	0.262643	-0.735443
C66	C	1.017176	0.265331	-0.700488
C67	C	0.972197	0.226815	-0.936623
C68	C	0.972194	0.226808	-1.002059
C69	C	1.062164	0.303736	-0.998855
C70	C	1.062161	0.303746	-0.933420
C71	C	1.017179	0.265282	-0.902308
C72	C	1.017066	0.265426	-0.102819
C73	C	1.017179	0.265262	-0.033174
H74	H	1.098712	0.501003	-0.190034
C75	C	1.111633	0.628599	-0.178155
N76	N	1.148951	0.654363	-0.143653
C77	C	0.922627	0.901626	-0.353105
N78	N	0.885323	0.875864	-0.387620
C79	C	0.922707	0.184565	-0.636169
N80	N	0.885444	0.152684	-0.664602
H81	H	1.132201	0.820262	-0.252661
C82	C	0.275189	0.171949	-0.172440
N83	N	0.244734	0.139795	-0.140394
H84	H	0.935553	0.195585	-0.507654
H85	H	0.419076	0.323845	-0.323831
H86	H	0.902128	0.260468	-0.710629
C87	C	0.884011	0.259686	-0.839330
N88	N	0.831475	0.257472	-0.868295
C89	C	0.922667	1.039034	-0.353112
N90	N	0.885367	1.067485	-0.387615
H91	H	0.935366	0.625592	-0.341145
H92	H	0.935316	0.506880	-0.341134
C93	C	0.922709	0.184511	-0.902397
N94	N	0.885433	0.152649	-0.876620
H95	H	0.749145	0.202217	-0.202590
H96	H	1.132151	0.701551	-0.252638
H97	H	0.935564	0.195482	-1.029997
C98	C	1.111681	0.346005	-1.033081
N99	N	1.148989	0.377833	-1.058863
C100	C	1.111635	0.346147	-0.492034
N101	N	1.148920	0.378010	-0.463602
C102	C	1.111813	1.032228	-0.178226
N103	N	1.149134	1.057989	-0.143725
C104	C	0.883912	0.701276	-0.280607
N105	N	0.831353	0.676093	-0.286506
C106	C	0.605331	0.364458	-0.364279
N107	N	0.574892	0.398811	-0.398494
C108	C	1.111663	0.346045	-0.895673
N109	N	1.148956	0.377902	-0.867242
C110	C	1.150342	0.270919	-0.829916
N111	N	1.202884	0.273135	-0.855162
C112	C	0.759688	0.358907	-0.358755
N113	N	0.790147	0.391062	-0.390796
H114	H	0.285734	0.328625	-0.328620
H115	H	0.615802	0.207016	-0.207356
C116	C	1.150337	0.270950	-0.692511
N117	N	1.202876	0.273174	-0.663550
C118	C	1.111534	0.346208	-0.629450
N119	N	1.148699	0.378169	-0.655237
H120	H	1.098886	0.904636	-0.190099
C121	C	0.883973	0.838679	-0.280646
N122	N	0.831438	0.867702	-0.286576
C123	C	0.429548	0.166406	-0.166912
N124	N	0.459991	0.132061	-0.132691
