data_functionalizedCrystal
_audit_creation_method	'MofGen! by Chris Wilmer'
_symmetry_space_group_name_H-M	'P1'
_symmetry_Int_Tables_number	1
_symmetry_cell_setting	triclinic
loop_
_symmetry_equiv_pos_as_xyz
  x,y,z
_cell_length_a	10.654556
_cell_length_b	14.971486
_cell_length_c	13.448316
_cell_angle_alpha	90.002892
_cell_angle_beta	90.003272
_cell_angle_gamma	84.050833
loop_
_atom_site_label
_atom_site_type_symbol
_atom_site_fract_x
_atom_site_fract_y
_atom_site_fract_z
O1	O	1.666490	0.125656	0.082655
O2	O	1.300884	0.137619	0.082665
O3	O	1.493486	0.001491	0.082653
O4	O	1.473888	0.261784	0.082667
O5	O	1.493467	0.001492	-0.082731
O6	O	1.300865	0.137620	-0.082719
O7	O	1.666471	0.125657	-0.082729
Cu8	Cu	1.483666	0.131639	-0.097825
Cu9	Cu	1.483689	0.131637	0.097761
O10	O	1.473869	0.261785	-0.082716
C11	C	1.254086	0.136740	-0.000026
C12	C	1.114671	0.134108	-0.000022
C13	C	0.918176	0.130402	0.090121
C14	C	1.049172	0.132869	0.090127
C15	C	1.049170	0.132871	-0.090183
C16	C	0.918178	0.130397	-0.090188
C17	C	1.492600	-0.031838	-0.000039
C18	C	1.489973	-0.131150	-0.000038
C19	C	1.603122	-0.187757	-0.000042
C20	C	1.600647	-0.281070	-0.000032
C21	C	1.485021	-0.317774	-0.000025
C22	C	1.371864	-0.261159	-0.000018
C23	C	1.374341	-0.167848	-0.000021
C24	C	1.366710	-0.455649	-0.000014
C25	C	1.364233	-0.548967	-0.000013
C26	C	1.593016	-0.568872	-0.000025
C27	C	1.595492	-0.475561	-0.000028
C28	C	1.482335	-0.418952	-0.000023
C29	C	1.713269	0.126536	-0.000036
C30	C	1.852683	0.129167	-0.000033
C31	C	1.474755	0.295114	-0.000023
C32	C	1.477381	0.394425	-0.000017
N33	N	1.483659	0.131639	-0.235389
C34	C	1.407464	0.076873	-0.712638
C35	C	1.407460	0.076870	-0.608534
C36	C	1.483691	0.131630	-0.556470
C37	C	1.559941	0.186388	-0.608515
C38	C	1.559951	0.186386	-0.712616
C39	C	1.559912	0.186392	-0.391535
C40	C	1.559901	0.186396	-0.287426
C41	C	1.407421	0.076876	-0.287453
C42	C	1.407431	0.076874	-0.391554
C43	C	1.483680	0.131634	-0.443592
N44	N	1.483705	0.131630	0.235325
H45	H	0.864852	0.129391	-0.163607
H46	H	1.102491	0.133874	0.163540
H47	H	1.270081	-0.578847	-0.000024
F48	F	1.641070	0.244670	-0.446914
F49	F	1.641078	0.244663	-0.553102
H50	H	1.689644	-0.445680	-0.000041
F51	F	1.641072	0.244650	-0.232018
H52	H	1.622035	0.230974	-0.754984
H53	H	0.864855	0.129400	0.163531
F54	F	1.118883	0.134186	-0.186127
H55	H	1.697277	-0.157881	-0.000054
F56	F	1.721075	-0.341313	-0.000038
H57	H	1.685153	-0.614968	-0.000026
F58	F	1.246274	-0.395404	-0.000007
F59	F	1.253913	-0.107601	-0.000014
F60	F	1.326321	0.018594	-0.768039
F61	F	1.248807	-0.300224	0.000000
F62	F	1.326288	0.018600	-0.446963
H63	H	1.345380	0.032279	-0.566170
F64	F	1.326270	0.018596	-0.232070
