data_functionalizedCrystal
_audit_creation_method	'MofGen! by Chris Wilmer'
_symmetry_space_group_name_H-M	'P1'
_symmetry_Int_Tables_number	1
_symmetry_cell_setting	triclinic
loop_
_symmetry_equiv_pos_as_xyz
  x,y,z
_cell_length_a	15.944551
_cell_length_b	17.038272
_cell_length_c	15.021413
_cell_angle_alpha	90.004029
_cell_angle_beta	89.997174
_cell_angle_gamma	87.305147
loop_
_atom_site_label
_atom_site_type_symbol
_atom_site_fract_x
_atom_site_fract_y
_atom_site_fract_z
O1	O	1.121728	0.100827	-0.073940
O2	O	0.878066	0.113259	-0.073962
O3	O	0.998449	-0.006773	-0.073944
O4	O	1.001345	0.220859	-0.073958
O5	O	0.998429	-0.006755	0.074120
O6	O	0.878046	0.113277	0.074102
O7	O	1.121708	0.100844	0.074125
Zn8	Zn	0.999874	0.107063	0.097622
Zn9	Zn	0.999900	0.107041	-0.097459
O10	O	1.001326	0.220876	0.074107
C11	C	0.846725	0.112752	0.000067
C12	C	0.753369	0.111205	0.000059
C13	C	0.995805	-0.035893	0.000088
C14	C	0.987945	-0.122688	0.000087
C15	C	0.532936	0.033105	0.000081
C16	C	0.474515	0.069363	-0.072924
C17	C	0.582443	0.108405	0.000070
C18	C	0.474519	0.069398	0.073055
C19	C	0.417337	0.105696	0.000084
C20	C	0.525252	0.144684	-0.072996
C21	C	0.525262	0.144709	0.073049
C22	C	0.466862	0.181022	0.000026
C23	C	0.677557	0.109964	0.000061
C24	C	0.322225	0.104143	0.000087
C25	C	1.060103	-0.172781	0.000094
C26	C	1.052713	-0.254334	0.000085
C27	C	0.973165	-0.285792	0.000075
C28	C	0.901002	-0.235693	0.000065
C29	C	0.908393	-0.154142	0.000068
C30	C	0.947056	-0.531558	0.000061
C31	C	0.939671	-0.613115	0.000060
C32	C	1.091383	-0.631751	0.000079
C33	C	1.098766	-0.550197	0.000087
C34	C	1.026603	-0.500105	0.000072
C35	C	0.965610	-0.369152	0.000069
C36	C	1.034159	-0.416747	0.000073
C37	C	1.153049	0.101352	0.000093
C38	C	1.246405	0.102899	0.000096
C39	C	1.003969	0.249997	0.000073
C40	C	1.011829	0.336792	0.000068
N41	N	0.999863	0.107078	0.230759
N42	N	0.999917	0.107019	-0.230597
C43	C	0.944187	0.162555	0.470434
C44	C	1.021171	0.177734	0.529775
C45	C	0.999883	0.107059	0.412366
C46	C	0.922921	0.091897	0.529768
C47	C	0.999896	0.107041	0.587790
C48	C	1.076908	0.122273	0.470400
C49	C	0.978606	0.036405	0.470388
C50	C	1.055643	0.051554	0.529702
C51	C	0.999875	0.107070	0.311309
C52	C	0.999913	0.107029	0.688846
H53	H	0.561807	-0.029389	-0.000005
Cl54	Cl	1.128452	-0.020919	0.569635
Cl55	Cl	1.182096	-0.694727	0.000095
H56	H	0.857830	0.079081	0.555848
Cl57	Cl	1.160111	-0.133242	0.000117
Cl58	Cl	0.817676	-0.091167	0.000055
H59	H	0.874891	-0.638725	0.000067
Cl60	Cl	1.177435	0.142168	0.430313
H61	H	1.111472	-0.295117	0.000093
H62	H	1.163543	-0.524590	0.000096
H63	H	0.888296	-0.490782	0.000049
Cl64	Cl	0.559626	0.193809	-0.168394
H65	H	0.452139	0.037507	-0.134642
H66	H	1.098927	-0.391130	0.000061
Cl67	Cl	1.048976	0.269969	0.570050
H68	H	0.836233	-0.261313	0.000051
Cl69	Cl	0.865610	-0.408707	0.000051
Cl70	Cl	0.422558	0.277604	-0.000040
H71	H	0.960575	-0.023318	0.444282
H72	H	0.547657	0.176539	0.134769
Cl73	Cl	0.439985	0.020218	0.168346
H74	H	0.897140	0.209524	0.444412
