data_functionalizedCrystal
_audit_creation_method	'MofGen! by Chris Wilmer'
_symmetry_space_group_name_H-M	'P1'
_symmetry_Int_Tables_number	1
_symmetry_cell_setting	triclinic
loop_
_symmetry_equiv_pos_as_xyz
  x,y,z
_cell_length_a	16.109301
_cell_length_b	13.448316
_cell_length_c	14.971486
_cell_angle_alpha	89.993189
_cell_angle_beta	83.537805
_cell_angle_gamma	89.995959
loop_
_atom_site_label
_atom_site_type_symbol
_atom_site_fract_x
_atom_site_fract_y
_atom_site_fract_z
O1	O	1.103278	-0.082629	0.114974
O2	O	0.861233	-0.082645	0.129281
O3	O	0.988743	-0.082630	-0.008082
O4	O	0.975768	-0.082645	0.252337
O5	O	0.988727	0.082754	-0.008090
O6	O	0.861217	0.082739	0.129273
O7	O	1.103262	0.082754	0.114965
Cu8	Cu	0.982238	0.097847	0.122118
Cu9	Cu	0.982257	-0.097738	0.122128
O10	O	0.975752	0.082739	0.252328
C11	C	0.830250	0.000045	0.128698
C12	C	0.737952	0.000039	0.126960
N13	N	0.982231	0.235412	0.122111
N14	N	0.982271	-0.235303	0.122129
C15	C	0.515777	0.000046	0.204428
C16	C	0.429054	0.000052	0.202789
C17	C	0.448725	0.000058	0.039812
C18	C	0.535446	0.000058	0.041452
C19	C	0.568969	0.000047	0.123763
C20	C	0.395526	0.000053	0.120483
C21	C	0.301498	0.000060	0.118705
C22	C	0.663003	0.000042	0.125542
C23	C	1.134245	0.000062	0.115549
C24	C	1.226543	0.000062	0.117286
C25	C	0.988155	0.000062	-0.041410
C26	C	0.986416	0.000061	-0.140705
C27	C	1.038710	0.287459	0.061311
C28	C	1.038715	0.391562	0.061310
C29	C	0.982245	0.443616	0.122114
C30	C	0.925760	0.391562	0.182917
C31	C	0.925751	0.287460	0.182912
C32	C	0.925783	0.608542	0.182923
C33	C	0.925792	0.712650	0.182928
C34	C	1.038746	0.712643	0.061321
C35	C	1.038738	0.608542	0.061316
C36	C	0.982254	0.556495	0.122120
C37	C	1.061324	0.000066	-0.198038
C38	C	1.059685	0.000056	-0.291335
C39	C	0.983137	0.000048	-0.327297
C40	C	0.908223	0.000039	-0.269956
C41	C	0.909863	0.000042	-0.176661
C42	C	0.904811	0.000035	-0.464414
C43	C	0.903171	0.000034	-0.557716
C44	C	1.054633	0.000049	-0.579088
C45	C	1.056273	0.000052	-0.485793
C46	C	0.981359	0.000046	-0.428458
C47	C	0.976340	0.000045	0.285657
C48	C	0.978079	0.000040	0.384951
H49	H	0.543068	0.000044	0.271451
O50	O	0.587158	0.000232	-0.036886
C51	C	0.637919	0.085874	-0.040808
H52	H	0.606197	0.145741	0.004931
H53	H	0.647605	0.114626	-0.112863
H54	H	0.700999	0.066510	-0.017665
O55	O	0.377502	0.000003	0.281230
C56	C	0.425691	0.000021	0.354226
H57	H	0.490392	-0.031291	0.331506
H58	H	0.393758	-0.047997	0.410747
H59	H	0.431888	0.079362	0.379452
O60	O	1.093668	0.441966	0.002226
C61	C	1.143501	0.373699	-0.051448
H62	H	1.144457	0.299483	-0.014778
H63	H	1.209887	0.403762	-0.065052
H64	H	1.116459	0.362650	-0.117914
H65	H	1.084724	0.566160	0.011810
H66	H	1.084697	0.245083	0.011801
O67	O	0.870788	0.442082	0.241890
C68	C	0.788475	0.416648	0.227330
H69	H	0.788002	0.388042	0.155715
H70	H	0.746769	0.485117	0.237603
H71	H	0.764094	0.356219	0.276898
O72	O	0.870972	0.236943	0.242099
C73	C	0.884557	0.262377	0.330650
H74	H	0.951121	0.290980	0.331114
H75	H	0.875029	0.193908	0.375534
H76	H	0.838506	0.322808	0.356909
O77	O	1.093582	0.763084	0.002130
C78	C	1.079978	0.737680	-0.086422
H79	H	1.047923	0.662104	-0.086326
H80	H	1.142432	0.734107	-0.130443
H81	H	1.038581	0.796284	-0.114104
H82	H	1.123658	0.000079	-0.168766
H83	H	0.879807	0.755028	0.232440
O84	O	1.132529	0.000113	-0.346901
C85	C	1.200443	0.000105	-0.295154
H86	H	1.179403	0.031414	-0.225520
H87	H	1.252925	0.048129	-0.329590
H88	H	1.223917	-0.079233	-0.288508
O89	O	0.832094	0.000162	-0.408629
C90	C	0.828494	0.085831	-0.354050
H91	H	0.894488	0.114390	-0.349357
H92	H	0.797596	0.066569	-0.283919
H93	H	0.790487	0.145806	-0.384740
H94	H	0.421420	0.000072	-0.027203
O95	O	1.127463	-0.000083	-0.634684
C96	C	1.173936	-0.085740	-0.618388
H97	H	1.153593	-0.114294	-0.547607
H98	H	1.243269	-0.066466	-0.624972
H99	H	1.162528	-0.145724	-0.669406
O100	O	0.870885	0.558136	0.242075
C101	C	0.821033	0.626400	0.295732
H102	H	0.855124	0.700601	0.296754
H103	H	0.808419	0.596312	0.367160
H104	H	0.759245	0.637487	0.266672
H105	H	1.118605	0.000067	-0.456516
O106	O	0.828741	-0.000034	-0.592502
C107	C	0.762971	-0.000028	-0.521895
H108	H	0.786345	-0.031326	-0.458517
H109	H	0.709549	-0.048064	-0.541374
H110	H	0.739836	0.079307	-0.508698
H111	H	0.845896	0.000026	-0.299244
O112	O	0.837042	-0.000095	-0.121054
C113	C	0.790592	-0.085767	-0.137326
H114	H	0.810937	-0.114319	-0.208102
H115	H	0.721254	-0.066512	-0.130739
H116	H	0.802023	-0.145744	-0.086295
