data_functionalizedCrystal
_audit_creation_method	'MofGen! by Chris Wilmer'
_symmetry_space_group_name_H-M	'P1'
_symmetry_Int_Tables_number	1
_symmetry_cell_setting	triclinic
loop_
_symmetry_equiv_pos_as_xyz
  x,y,z
_cell_length_a	17.640112
_cell_length_b	21.295412
_cell_length_c	17.639929
_cell_angle_alpha	78.769176
_cell_angle_beta	92.187346
_cell_angle_gamma	101.171875
loop_
_atom_site_label
_atom_site_type_symbol
_atom_site_fract_x
_atom_site_fract_y
_atom_site_fract_z
Zn1	Zn	1.221976	-0.148658	-0.067383
Zn2	Zn	1.247563	-0.018844	-0.194382
Zn3	Zn	1.094998	-0.059676	-0.093103
Zn4	Zn	1.120649	-0.140351	-0.220026
O5	O	1.171296	-0.091882	-0.143724
O6	O	1.331625	-0.117826	-0.062734
O7	O	1.227298	0.063830	-0.180979
O8	O	1.090398	-0.092045	0.016577
O9	O	1.350424	-0.022452	-0.156040
O10	O	1.183688	-0.157419	0.035473
O11	O	1.115209	0.033830	-0.106569
O12	O	0.992146	-0.083990	-0.131435
O13	O	1.134117	-0.229543	-0.199746
O14	O	1.010992	-0.143261	-0.224686
O15	O	1.208561	-0.235646	-0.087599
O16	O	1.252172	-0.014398	-0.304052
O17	O	1.158928	-0.103668	-0.322892
C18	C	0.974018	-0.117155	-0.183635
C19	C	0.889625	-0.127978	-0.200727
C20	C	0.562831	-0.009667	-0.013861
C21	C	0.483535	-0.019843	-0.029937
C22	C	0.503240	-0.081397	-0.127173
C23	C	0.582540	-0.071230	-0.111102
C24	C	0.612329	-0.035363	-0.054446
C25	C	0.632037	-0.096926	-0.151687
C26	C	0.711331	-0.086756	-0.135620
C27	C	0.741126	-0.050890	-0.078968
C28	C	0.691622	-0.025193	-0.038379
C29	C	0.602248	-0.132788	-0.208346
C30	C	0.651745	-0.158484	-0.248931
C31	C	0.731039	-0.148318	-0.232861
C32	C	0.760835	-0.112452	-0.176209
C33	C	0.780543	-0.174015	-0.273450
C34	C	0.859836	-0.163845	-0.257383
C35	C	0.840128	-0.102282	-0.160142
C36	C	1.171346	-0.256074	-0.143664
C37	C	1.171368	-0.326043	-0.143639
C38	C	1.113015	-0.374520	-0.104886
C39	C	1.113009	-0.440265	-0.104872
C40	C	1.171368	-0.457532	-0.143601
C41	C	1.229727	-0.409045	-0.182363
C42	C	1.229726	-0.343300	-0.182382
N43	N	1.239009	-0.551128	-0.135948
N44	N	1.239006	-0.613584	-0.135926
C45	C	1.171372	-0.655614	-0.143548
N46	N	1.103736	-0.632833	-0.151178
N47	N	1.103739	-0.570373	-0.151195
C48	C	1.171375	-0.528818	-0.143585
C49	C	1.113009	-0.775381	-0.104778
C50	C	1.113003	-0.841127	-0.104770
C51	C	1.229727	-0.809905	-0.182256
C52	C	1.229726	-0.744160	-0.182269
C53	C	1.171368	-0.726903	-0.143526
C54	C	1.369345	-0.066511	-0.103657
C55	C	1.453742	-0.055699	-0.086583
C56	C	1.211131	-0.053712	-0.341022
C57	C	1.228241	-0.037394	-0.425413
C58	C	1.171279	0.071666	-0.143719
C59	C	1.171362	0.141612	-0.143500
C60	C	1.300935	0.032045	-0.534517
C61	C	1.284851	0.016707	-0.455220
C62	C	1.187695	-0.076181	-0.474898
C63	C	1.203774	-0.060853	-0.554198
C64	C	1.260394	-0.006739	-0.584001
C65	C	1.163233	-0.099637	-0.603682
C66	C	1.179307	-0.084308	-0.682975
C67	C	1.235923	-0.030195	-0.712785
C68	C	1.276469	0.008591	-0.663294
C69	C	1.106609	-0.153749	-0.573878
C70	C	1.066068	-0.192532	-0.623362
C71	C	1.082146	-0.177206	-0.702656
C72	C	1.138762	-0.123093	-0.732466
C73	C	1.041601	-0.215991	-0.752147
C74	C	1.057675	-0.200662	-0.831440
C75	C	1.154836	-0.107764	-0.811759
C76	C	1.131328	-0.130213	0.054350
C77	C	1.114295	-0.146548	0.138757
H78	H	0.537681	-0.141067	-0.221426
H79	H	1.065491	-0.479743	-0.073310
N80	N	1.326261	0.056314	-0.404655
N81	N	1.290614	0.084477	-0.365854
H82	H	1.319857	0.112445	-0.330138
N83	N	0.822123	-0.040511	-0.062557
N84	N	0.854355	-0.088149	-0.039585
H85	H	0.911559	-0.080820	-0.027994
N86	N	0.910397	-0.190107	-0.298824
N87	N	0.949279	-0.229736	-0.263194
H88	H	0.984988	-0.248285	-0.292464
N89	N	0.432969	0.006394	0.011535
N90	N	0.378966	-0.030850	0.050927
H91	H	0.343253	-0.012322	0.080216
H92	H	1.065489	-0.761329	-0.073232
H93	H	0.478975	-0.110598	-0.173304
N94	N	1.053382	-0.890639	-0.065187
N95	N	1.001283	-0.875217	-0.030603
H96	H	0.959173	-0.910186	-0.002646
H97	H	1.347048	0.076106	-0.558782
H98	H	0.995495	-0.260048	-0.727872
H99	H	1.065492	-0.360474	-0.073341
N100	N	1.289353	-0.694651	-0.221844
N101	N	1.358398	-0.694015	-0.202626
H102	H	1.400514	-0.659050	-0.230578
N103	N	0.621301	-0.195114	-0.306803
N104	N	0.550503	-0.204188	-0.321144
H105	H	0.529002	-0.230060	-0.362016
N106	N	1.129858	-0.131449	-0.444440
N107	N	1.115508	-0.145128	-0.373643
H108	H	1.074660	-0.184162	-0.352132
H109	H	1.024670	-0.232249	-0.871730
N110	N	0.750098	-0.210639	-0.331326
N111	N	0.679301	-0.219708	-0.345670
H112	H	0.657799	-0.245574	-0.386547
N113	N	1.289330	-0.426689	-0.221926
N114	N	1.289323	-0.485391	-0.221904
H115	H	1.331418	-0.497852	-0.249850
H116	H	1.277248	-0.303829	-0.213938
H117	H	1.277245	-0.823962	-0.213788
N118	N	1.334300	0.063867	-0.693758
N119	N	1.348640	0.077546	-0.764557
H120	H	1.389481	0.116583	-0.786075
H121	H	1.200949	-0.063703	-0.836025
N122	N	1.090196	-0.169406	-0.492880
N123	N	1.142225	-0.181875	-0.445439
H124	H	1.130633	-0.192933	-0.388234
H125	H	1.019965	-0.236591	-0.599088
N126	N	1.252352	-0.014520	-0.793780
N127	N	1.243699	0.039420	-0.832425
H128	H	1.255303	0.050492	-0.889628
N129	N	0.870577	-0.065643	-0.102275
N130	N	0.941377	-0.056567	-0.087942
H131	H	0.962884	-0.030691	-0.047077
H132	H	0.715875	0.004001	0.007767
H133	H	0.587085	0.019527	0.032285
