data_functionalizedCrystal
_audit_creation_method	'MofGen! by Chris Wilmer'
_symmetry_space_group_name_H-M	'P1'
_symmetry_Int_Tables_number	1
_symmetry_cell_setting	triclinic
loop_
_symmetry_equiv_pos_as_xyz
  x,y,z
_cell_length_a	14.519709
_cell_length_b	10.540539
_cell_length_c	13.596369
_cell_angle_alpha	89.996161
_cell_angle_beta	90.000291
_cell_angle_gamma	84.102818
loop_
_atom_site_label
_atom_site_type_symbol
_atom_site_fract_x
_atom_site_fract_y
_atom_site_fract_z
O1	O	1.224765	0.166400	-0.081658
O2	O	1.724765	0.666400	0.418342
O3	O	0.956394	0.185995	-0.081688
O4	O	1.456394	0.685995	0.418312
O5	O	1.096702	-0.008572	-0.081671
O6	O	1.596702	0.491428	0.418329
O7	O	1.084457	0.360966	-0.081675
O8	O	1.584457	0.860966	0.418325
O9	O	1.096688	-0.008582	0.081912
O10	O	1.596688	0.491418	0.581912
O11	O	0.956380	0.185985	0.081895
O12	O	1.456380	0.685985	0.581895
O13	O	1.224751	0.166389	0.081924
O14	O	1.724751	0.666389	0.581924
Zn15	Zn	1.090563	0.176185	0.107882
Zn16	Zn	1.590563	0.676185	0.607882
Zn17	Zn	1.090582	0.176199	-0.107646
Zn18	Zn	1.590582	0.676199	0.392354
O19	O	1.084442	0.360956	0.081908
O20	O	1.584442	0.860956	0.581908
C21	C	0.922022	0.185077	0.000100
C22	C	1.422022	0.685077	0.500100
C23	C	0.819626	0.182340	0.000088
C24	C	1.319626	0.682340	0.500088
C25	C	0.444676	0.172265	0.000133
C26	C	0.944676	0.672265	0.500133
C27	C	0.548999	0.175063	0.000120
C28	C	1.048999	0.675063	0.500120
C29	C	0.632148	0.177303	0.000110
C30	C	1.132148	0.677303	0.500110
C31	C	0.736477	0.180101	0.000099
C32	C	1.236477	0.680101	0.500099
C33	C	1.095777	-0.055870	0.000118
C34	C	1.595777	0.444130	0.500118
C35	C	1.093029	-0.196790	0.000113
C36	C	1.593029	0.303210	0.500113
C37	C	0.987750	-0.379142	-0.000266
C38	C	1.487750	0.120858	0.499734
C39	C	0.990535	-0.232553	0.000102
C40	C	1.490535	0.267447	0.500102
C41	C	1.142346	-0.258957	0.093532
C42	C	1.642346	0.241043	0.593532
C43	C	1.138848	-0.405466	0.093610
C44	C	1.638848	0.094534	0.593610
C45	C	1.140949	-0.405994	-0.092414
C46	C	1.640949	0.094006	0.407586
C47	C	1.141893	-0.259022	-0.093649
C48	C	1.641893	0.240978	0.406351
C49	C	1.259123	0.167308	0.000135
C50	C	1.759123	0.667308	0.500135
C51	C	1.361519	0.170044	0.000140
C52	C	1.861519	0.670044	0.500140
C53	C	1.085368	0.408255	0.000116
C54	C	1.585368	0.908255	0.500116
C55	C	1.088115	0.549175	0.000115
C56	C	1.588115	1.049175	0.500115
N57	N	1.090557	0.176175	0.254974
N58	N	1.590557	0.676175	0.754974
N59	N	1.090595	0.176199	-0.254737
N60	N	1.590595	0.676199	0.245263
C61	C	1.090580	0.176200	0.656265
C62	C	1.590580	0.676200	1.156265
C63	C	1.090571	0.176198	0.544613
C64	C	1.590571	0.676198	1.044613
C65	C	1.090569	0.176189	0.455623
C66	C	1.590569	0.676189	0.955623
C67	C	1.090559	0.176184	0.343964
C68	C	1.590559	0.676184	0.843964
H69	H	0.947268	-0.407325	-0.067259
H70	H	1.447268	0.092675	0.432741
O71	O	1.232121	-0.233152	0.097872
O72	O	1.732121	0.266848	0.597872
C73	C	1.348468	-0.136807	0.189992
C74	C	1.848468	0.363193	0.689992
C75	C	1.246781	-0.165975	0.185215
C76	C	1.746781	0.334025	0.685215
H77	H	1.360348	-0.082468	0.260593
H78	H	1.860348	0.417532	0.760593
H79	H	1.395882	-0.229979	0.189024
H80	H	1.895882	0.270021	0.689024
H81	H	1.364438	-0.076300	0.123847
H82	H	1.864438	0.423700	0.623847
H83	H	1.230722	-0.226443	0.251347
H84	H	1.730722	0.273557	0.751347
H85	H	1.199422	-0.072754	0.186135
H86	H	1.699422	0.427246	0.686135
H87	H	0.951446	-0.190402	0.067172
H88	H	1.451446	0.309598	0.567172
H89	H	1.214980	-0.453976	-0.093034
H90	H	1.714980	0.046024	0.406966
H91	H	1.102389	-0.433298	0.163435
H92	H	1.602389	0.066702	0.663435
O93	O	0.939690	-0.414906	0.079167
O94	O	1.439690	0.085094	0.579167
C95	C	0.879300	-0.587841	0.165780
C96	C	1.379300	-0.087841	0.665780
C97	C	0.933756	-0.547515	0.075789
C98	C	1.433756	-0.047515	0.575789
H99	H	0.874468	-0.695053	0.163068
H100	H	1.374468	-0.195053	0.663068
H101	H	0.916403	-0.563007	0.236016
H102	H	1.416403	-0.063007	0.736016
H103	H	0.806651	-0.535287	0.164843
H104	H	1.306651	-0.035287	0.664843
H105	H	1.006409	-0.600047	0.076631
H106	H	1.506409	-0.100047	0.576631
H107	H	0.896581	-0.572324	0.005593
H108	H	1.396581	-0.072324	0.505593
O109	O	1.101391	-0.443003	-0.176957
O110	O	1.601391	0.056997	0.323043
C111	C	1.026185	-0.376638	-0.329152
C112	C	1.526185	0.123362	0.170848
C113	C	1.070991	-0.334553	-0.233465
C114	C	1.570991	0.165447	0.266535
H115	H	1.001577	-0.288978	-0.374856
H116	H	1.501577	0.211022	0.125144
H117	H	1.079148	-0.440999	-0.372988
H118	H	1.579148	0.059001	0.127012
H119	H	0.964597	-0.431103	-0.310412
H120	H	1.464597	0.068897	0.189588
H121	H	1.132571	-0.280037	-0.252117
H122	H	1.632571	0.219963	0.247883
H123	H	1.017969	-0.270254	-0.189656
H124	H	1.517969	0.229746	0.310344
O125	O	1.099061	-0.209707	-0.176174
O126	O	1.599061	0.290293	0.323826
C127	C	1.114219	-0.094323	-0.327339
C128	C	1.614219	0.405677	0.172661
C129	C	1.162846	-0.150151	-0.233939
C130	C	1.662846	0.349849	0.266061
H131	H	1.165762	-0.046135	-0.374058
H132	H	1.665762	0.453865	0.125942
H133	H	1.086542	-0.174214	-0.371436
H134	H	1.586542	0.325786	0.128564
H135	H	1.054326	-0.021208	-0.305628
H136	H	1.554326	0.478792	0.194372
H137	H	1.222775	-0.223249	-0.255562
H138	H	1.722775	0.276751	0.244438
H139	H	1.190458	-0.070191	-0.189865
H140	H	1.690458	0.429809	0.310135
O141	O	1.226837	-0.463396	0.098734
O142	O	1.726837	0.036604	0.598734
C143	C	1.389323	-0.435829	0.107812
C144	C	1.889323	0.064171	0.607812
C145	C	1.289725	-0.370069	0.102028
C146	C	1.789725	0.129931	0.602028
H147	H	1.440196	-0.360405	0.110455
H148	H	1.940196	0.139595	0.610455
H149	H	1.397364	-0.497154	0.176957
H150	H	1.897364	0.002846	0.676957
H151	H	1.404143	-0.498629	0.040229
H152	H	1.904143	0.001371	0.540229
H153	H	1.274838	-0.307206	0.169561
H154	H	1.774838	0.192794	0.669561
H155	H	1.281734	-0.308822	0.032840
H156	H	1.781734	0.191178	0.532840
O157	O	1.101461	-0.207955	0.176533
O158	O	1.601461	0.292045	0.676533
C159	C	1.020239	-0.247194	0.326266
C160	C	1.520239	0.252806	0.826266
C161	C	1.066537	-0.305121	0.232322
C162	C	1.566537	0.194879	0.732322
H163	H	0.991974	-0.325721	0.371387
H164	H	1.491974	0.174279	0.871387
H165	H	1.073382	-0.200299	0.371697
H166	H	1.573382	0.299701	0.871697
H167	H	0.961025	-0.172647	0.305220
H168	H	1.461025	0.327353	0.805220
H169	H	1.125745	-0.379717	0.253279
H170	H	1.625745	0.120283	0.753279
H171	H	1.013337	-0.351934	0.186915
H172	H	1.513337	0.148066	0.686915
H173	H	1.216619	-0.235563	-0.099282
H174	H	1.716619	0.264437	0.400718
H175	H	0.951729	-0.189549	-0.066865
H176	H	1.451729	0.310451	0.433135
