data_functionalizedCrystal
_audit_creation_method	'MofGen! by Chris Wilmer'
_symmetry_space_group_name_H-M	'P1'
_symmetry_Int_Tables_number	1
_symmetry_cell_setting	triclinic
loop_
_symmetry_equiv_pos_as_xyz
  x,y,z
_cell_length_a	27.732064
_cell_length_b	10.654550
_cell_length_c	9.730223
_cell_angle_alpha	89.999807
_cell_angle_beta	90.007453
_cell_angle_gamma	83.567163
loop_
_atom_site_label
_atom_site_type_symbol
_atom_site_fract_x
_atom_site_fract_y
_atom_site_fract_z
O1	O	0.641850	0.149510	-0.114042
O2	O	0.501199	0.172207	-0.114098
O3	O	0.574759	-0.022016	-0.114063
O4	O	0.568291	0.343734	-0.114076
O5	O	0.574758	-0.022011	0.114517
O6	O	0.501198	0.172212	0.114482
O7	O	0.641849	0.149515	0.114538
Zn8	Zn	0.571524	0.160865	0.150802
Zn9	Zn	0.571525	0.160858	-0.150362
O10	O	0.568290	0.343738	0.114504
C11	C	0.483189	0.171730	0.000185
C12	C	0.429526	0.170286	0.000164
C13	C	0.574283	-0.068791	0.000225
C14	C	0.572862	-0.208175	0.000220
C15	C	0.616173	-0.289475	0.000241
C16	C	0.614835	-0.420440	0.000231
C17	C	0.526872	-0.388792	0.000184
C18	C	0.528211	-0.257830	0.000184
C19	C	0.660825	-0.239820	0.000276
C20	C	0.704139	-0.321121	0.000299
C21	C	0.702801	-0.452086	0.000289
C22	C	0.658149	-0.501750	0.000256
C23	C	0.051677	0.045678	0.000246
C24	C	0.253370	0.050993	0.000210
O25	O	0.284021	-0.045699	0.000265
N26	N	0.273215	0.166164	0.000200
C27	C	0.242633	0.280014	0.000208
O28	O	0.264140	0.378096	0.000213
C29	C	0.040940	0.274697	0.000254
C30	C	0.021099	0.159519	0.000250
C31	C	0.031835	-0.069491	0.000244
C32	C	-0.018586	-0.070819	0.000246
C33	C	-0.049164	0.043022	0.000249
C34	C	-0.029322	0.158191	0.000252
C35	C	0.010359	0.388546	0.000272
C36	C	-0.040066	0.387206	0.000287
C37	C	-0.059908	0.272028	0.000283
C38	C	-0.110320	0.270705	0.000257
N39	N	-0.130165	0.155534	0.000267
C40	C	-0.099587	0.041693	0.000263
C41	C	0.348525	0.282798	0.000181
C42	C	0.398947	0.284127	0.000168
C43	C	0.409681	0.055106	0.000172
C44	C	0.359258	0.053778	0.000176
C45	C	0.328680	0.167627	0.000192
C46	C	-0.205474	0.038913	0.000265
C47	C	-0.255899	0.037596	0.000261
C48	C	-0.266628	0.266616	0.000263
C49	C	-0.216208	0.267935	0.000260
C50	C	-0.185631	0.154073	0.000266
O51	O	-0.140999	0.367345	0.000218
O52	O	-0.121103	-0.056375	0.000289
C53	C	0.102097	0.047005	0.000245
C54	C	0.121939	0.162174	0.000247
C55	C	0.091361	0.276016	0.000251
C56	C	0.172362	0.163504	0.000233
C57	C	0.202940	0.049663	0.000230
C58	C	0.183096	-0.065508	0.000240
C59	C	0.132675	-0.066836	0.000241
C60	C	0.111206	0.391186	0.000241
C61	C	0.161627	0.392505	0.000238
C62	C	0.192205	0.278663	0.000234
C63	C	0.659860	0.149992	0.000252
C64	C	0.713523	0.151437	0.000265
C65	C	0.568765	0.390514	0.000213
C66	C	0.570186	0.529898	0.000209
N67	N	0.571526	0.160868	0.356339
N68	N	0.571526	0.160845	-0.355898
C69	C	0.604107	0.074895	0.428280
C70	C	0.604106	0.074879	0.572163
C71	C	0.538942	0.246822	0.572151
C72	C	0.538941	0.246830	0.428270
C73	C	0.636692	-0.011068	0.356348
C74	C	0.669276	-0.097047	0.428290
C75	C	0.669275	-0.097063	0.572173
C76	C	0.636690	-0.011098	0.644114
H77	H	0.661919	-0.133184	0.000289
Br78	Br	-0.045506	-0.227141	0.000222
H79	H	0.116525	-0.160626	0.000238
H80	H	0.636697	-0.011061	0.239192
Br81	Br	0.494723	0.363482	0.669783
Br82	Br	0.761583	-0.562421	0.000300
H83	H	0.343106	-0.040011	0.000174
H84	H	0.695803	-0.167044	0.369707
Br85	Br	0.494721	0.363505	0.330631
H86	H	0.026505	0.482336	0.000269
Br87	Br	0.656334	-0.679490	0.000307
H88	H	0.695802	-0.167078	0.630746
Br89	Br	0.466277	-0.456194	0.000139
Br90	Br	-0.282824	-0.118728	0.000241
Br91	Br	0.764735	-0.253724	0.000320
Br92	Br	0.469431	-0.147486	0.000149
Br93	Br	-0.163984	-0.115615	0.000273
Br94	Br	0.073325	-0.224012	0.000244
Br95	Br	-0.081562	0.541725	0.000318
H96	H	0.434587	-0.037588	0.000164
Br97	Br	0.425869	0.440447	0.000138
H98	H	0.323632	0.375513	0.000192
H99	H	-0.200052	0.361722	0.000262
Br100	Br	-0.308137	0.421107	0.000258
Br101	Br	0.188548	0.548833	0.000229
H102	H	0.208002	-0.158202	0.000229
Br103	Br	0.069714	0.545702	0.000242
H104	H	0.636688	-0.011126	0.761274
