data_functionalizedCrystal
_audit_creation_method	'MofGen! by Chris Wilmer'
_symmetry_space_group_name_H-M	'P1'
_symmetry_Int_Tables_number	1
_symmetry_cell_setting	triclinic
loop_
_symmetry_equiv_pos_as_xyz
  x,y,z
_cell_length_a	14.044220
_cell_length_b	17.038272
_cell_length_c	12.503572
_cell_angle_alpha	93.777379
_cell_angle_beta	86.164750
_cell_angle_gamma	92.150217
loop_
_atom_site_label
_atom_site_type_symbol
_atom_site_fract_x
_atom_site_fract_y
_atom_site_fract_z
O1	O	1.278116	0.185401	-0.089207
O2	O	1.778116	0.685401	0.410793
O3	O	1.001597	0.178559	-0.089234
O4	O	1.501597	0.678559	0.410766
O5	O	1.138213	0.068050	-0.089212
O6	O	1.638213	0.568050	0.410788
O7	O	1.141501	0.295910	-0.089229
O8	O	1.641501	0.795910	0.410771
O9	O	1.127940	0.076376	0.089428
O10	O	1.627940	0.576376	0.589428
O11	O	0.991324	0.186885	0.089406
O12	O	1.491324	0.686885	0.589406
O13	O	1.267843	0.193727	0.089433
O14	O	1.767843	0.693727	0.589433
Cu15	Cu	1.128646	0.191066	0.105731
Cu16	Cu	1.628646	0.691066	0.605731
Cu17	Cu	1.140795	0.181220	-0.105532
Cu18	Cu	1.640795	0.681220	0.394468
O19	O	1.131228	0.304236	0.089411
O20	O	1.631228	0.804236	0.589411
C21	C	0.960905	0.179728	0.000083
C22	C	1.460905	0.679728	0.500083
C23	C	0.854959	0.170796	0.000072
C24	C	1.354959	0.670796	0.500072
C25	C	0.660980	0.154469	0.000095
C26	C	1.160980	0.654469	0.500095
C27	C	0.608455	0.217814	0.000095
C28	C	1.108455	0.717814	0.500095
C29	C	0.500518	0.208729	0.000107
C30	C	1.000518	0.708729	0.500107
C31	C	0.768927	0.163552	0.000082
C32	C	1.268927	0.663552	0.500082
C33	C	1.130087	0.042876	0.000108
C34	C	1.630087	0.542876	0.500108
C35	C	1.121168	-0.044541	0.000106
C36	C	1.621168	0.455459	0.500106
C37	C	1.203055	-0.088926	0.000115
C38	C	1.703055	0.411074	0.500115
C39	C	1.194670	-0.171064	0.000104
C40	C	1.694670	0.328936	0.500104
C41	C	1.104395	-0.208815	0.000092
C42	C	1.604395	0.291185	0.500092
C43	C	1.022502	-0.164424	0.000080
C44	C	1.522502	0.335576	0.500080
C45	C	1.030888	-0.082288	0.000083
C46	C	1.530888	0.417712	0.500083
C47	C	1.074766	-0.456646	0.000074
C48	C	1.574766	0.043354	0.500074
C49	C	1.066385	-0.538788	0.000074
C50	C	1.566385	-0.038788	0.500074
C51	C	1.238555	-0.545422	0.000097
C52	C	1.738555	-0.045422	0.500097
C53	C	1.246933	-0.463284	0.000107
C54	C	1.746933	0.036716	0.500107
C55	C	1.165040	-0.418901	0.000089
C56	C	1.665040	0.081099	0.500089
C57	C	1.095822	-0.292772	0.000084
C58	C	1.595822	0.207228	0.500084
C59	C	1.173615	-0.334945	0.000089
C60	C	1.673615	0.165055	0.500089
C61	C	1.308536	0.192558	0.000114
C62	C	1.808536	0.692558	0.500114
C63	C	1.414481	0.201490	0.000117
C64	C	1.914481	0.701490	0.500117
C65	C	1.139354	0.329410	0.000089
C66	C	1.639354	0.829410	0.500089
C67	C	1.148273	0.416827	0.000083
C68	C	1.648273	0.916827	0.500083
N69	N	1.120107	0.197992	0.254322
N70	N	1.620107	0.697992	0.754322
N71	N	1.149340	0.174289	-0.254123
N72	N	1.649340	0.674289	0.245877
C73	C	1.107548	0.208186	0.473435
C74	C	1.607548	0.708186	0.973435
C75	C	1.161896	0.164097	0.526771
C76	C	1.661896	0.664097	1.026771
C77	C	1.154908	0.169769	0.648693
C78	C	1.654908	0.669769	1.148693
C79	C	1.114535	0.202515	0.351502
C80	C	1.614535	0.702515	0.851502
H81	H	1.276566	-0.058195	0.000132
H82	H	1.776566	0.441805	0.500132
H83	H	1.022319	-0.323518	0.000076
H84	H	1.522319	0.176482	0.500076
C85	C	1.346236	-0.421765	0.000107
C86	C	1.846236	0.078235	0.500107
H87	H	1.393807	-0.459964	0.000099
H88	H	1.893807	0.040036	0.500099
H89	H	1.349508	-0.386959	0.062401
H90	H	1.849508	0.113041	0.562401
H91	H	1.356663	-0.392765	-0.062199
H92	H	1.856663	0.107235	0.437801
C93	C	1.231875	0.107376	0.464766
C94	C	1.731875	0.607376	0.964766
H95	H	1.227472	0.110970	0.389767
H96	H	1.727472	0.610970	0.889767
H97	H	1.216181	0.055023	0.483117
H98	H	1.716181	0.555023	0.983117
H99	H	1.295160	0.121166	0.483146
H100	H	1.795160	0.621166	0.983146
H101	H	0.644550	0.278868	0.000085
H102	H	1.144550	0.778868	0.500085
C103	C	0.612231	0.071993	0.000096
C104	C	1.112231	0.571993	0.500096
H105	H	0.659378	0.033440	0.000098
H106	H	1.159378	0.533440	0.500098
H107	H	0.577193	0.062928	-0.062197
H108	H	1.077193	0.562928	0.437803
H109	H	0.570047	0.068726	0.062403
H110	H	1.070047	0.568726	0.562403
H111	H	1.261352	-0.207199	0.000114
H112	H	1.761352	0.292801	0.500114
C113	C	1.328630	-0.594246	0.000101
C114	C	1.828630	-0.094246	0.500101
H115	H	1.310710	-0.648570	0.000088
H116	H	1.810710	-0.148570	0.500088
H117	H	1.361796	-0.579250	0.062398
H118	H	1.861796	-0.079250	0.562398
H119	H	1.368950	-0.585047	-0.062201
H120	H	1.868950	-0.085047	0.437799
H121	H	1.055775	0.250190	0.519334
H122	H	1.555775	0.750190	1.019334
H123	H	1.008082	-0.420519	0.000060
H124	H	1.508082	0.079481	0.500060
H125	H	0.992868	-0.569521	0.000081
H126	H	1.492868	-0.069521	0.500081
C127	C	0.923200	-0.205944	0.000058
C128	C	1.423200	0.294056	0.500058
H129	H	0.875632	-0.167745	0.000041
H130	H	1.375632	0.332255	0.500041
H131	H	0.912761	-0.234949	0.062350
H132	H	1.412761	0.265051	0.562350
H133	H	0.919939	-0.240746	-0.062250
H134	H	1.419939	0.259254	0.437750
C135	C	0.940812	-0.033464	0.000076
C136	C	1.440812	0.466536	0.500076
H137	H	0.885845	-0.067709	0.000077
H138	H	1.385845	0.432291	0.500077
H139	H	0.944089	-0.004185	-0.062220
H140	H	1.444089	0.495815	0.437780
H141	H	0.936921	0.001615	0.062380
H142	H	1.436921	0.501615	0.562380
H143	H	1.247117	-0.304206	0.000075
H144	H	1.747117	0.195794	0.500075
