data_functionalizedCrystal
_audit_creation_method	'MofGen! by Chris Wilmer'
_symmetry_space_group_name_H-M	'P1'
_symmetry_Int_Tables_number	1
_symmetry_cell_setting	triclinic
loop_
_symmetry_equiv_pos_as_xyz
  x,y,z
_cell_length_a	12.827893
_cell_length_b	29.839131
_cell_length_c	12.827885
_cell_angle_alpha	89.962989
_cell_angle_beta	89.980728
_cell_angle_gamma	90.041391
loop_
_atom_site_label
_atom_site_type_symbol
_atom_site_fract_x
_atom_site_fract_y
_atom_site_fract_z
Zn1	Zn	1.597481	-0.178831	-0.590798
Zn2	Zn	1.597295	-0.253968	-0.416036
Zn3	Zn	1.422722	-0.178853	-0.416071
Zn4	Zn	1.422628	-0.253935	-0.590736
O5	O	1.510031	-0.216397	-0.503410
O6	O	1.743692	-0.188803	-0.567626
O7	O	1.574100	-0.244028	-0.269805
O8	O	1.446021	-0.115983	-0.439289
O9	O	1.743556	-0.244006	-0.439230
O10	O	1.574415	-0.115967	-0.567660
O11	O	1.445841	-0.188841	-0.269830
O12	O	1.276473	-0.188808	-0.439230
O13	O	1.445861	-0.243949	-0.736981
O14	O	1.276404	-0.243970	-0.567556
O15	O	1.574324	-0.188770	-0.737026
O16	O	1.574008	-0.316831	-0.439170
O17	O	1.445681	-0.316806	-0.567522
C18	C	1.238522	-0.216388	-0.503390
C19	C	1.122368	-0.216395	-0.503407
C20	C	1.509843	-0.333119	-0.503359
C21	C	1.509858	-0.383054	-0.503371
C22	C	1.070577	-0.243734	-0.566808
C23	C	0.950527	-0.243742	-0.566827
C24	C	1.576973	-0.692697	-0.436675
C25	C	1.577102	-0.880371	-0.436716
O26	O	1.634016	-0.904636	-0.379969
N27	N	1.510248	-0.903839	-0.503489
C28	C	1.443362	-0.880386	-0.570262
O29	O	1.386509	-0.904654	-0.627065
C30	C	1.443239	-0.692714	-0.570226
C31	C	1.510090	-0.669248	-0.503441
C32	C	1.643819	-0.669231	-0.369897
C33	C	1.643782	-0.622316	-0.369883
C34	C	1.576899	-0.598867	-0.436648
C35	C	1.510053	-0.622333	-0.503427
C36	C	1.376359	-0.669262	-0.637003
C37	C	1.376336	-0.622341	-0.636990
C38	C	1.443187	-0.598875	-0.570205
C39	C	1.443133	-0.551968	-0.570179
N40	N	1.509987	-0.528499	-0.503406
C41	C	1.576870	-0.551949	-0.436641
C42	C	1.443430	-0.978917	-0.570274
C43	C	1.443459	-1.025835	-0.570282
C44	C	1.577201	-1.025816	-0.436738
C45	C	1.577165	-0.978897	-0.436725
C46	C	1.510284	-0.955448	-0.503501
C47	C	1.576787	-0.453423	-0.436617
C48	C	1.576741	-0.406503	-0.436606
C49	C	1.443004	-0.406526	-0.570154
C50	C	1.443045	-0.453442	-0.570161
C51	C	1.509945	-0.476889	-0.503389
O52	O	1.386257	-0.527674	-0.626905
O53	O	1.633731	-0.527673	-0.379862
C54	C	1.577010	-0.739613	-0.436689
C55	C	1.510164	-0.763079	-0.503468
C56	C	1.443281	-0.739629	-0.570233
C57	C	1.510193	-0.809997	-0.503476
C58	C	1.577076	-0.833446	-0.436710
C59	C	1.643930	-0.809978	-0.369937
C60	C	1.643893	-0.763062	-0.369924
C61	C	1.376427	-0.763098	-0.637006
C62	C	1.376468	-0.810013	-0.637013
C63	C	1.443352	-0.833463	-0.570248
C64	C	1.782602	-0.216406	-0.503431
C65	C	1.898755	-0.216410	-0.503440
C66	C	1.510103	-0.216353	-0.775981
C67	C	1.510133	-0.216335	-0.892134
C68	C	1.510249	-0.099218	-0.503485
C69	C	1.510342	-0.049284	-0.503517
C70	C	1.446720	-0.189003	-1.063976
C71	C	1.446687	-0.189021	-0.943925
C72	C	1.510021	-0.216408	-0.231900
C73	C	1.510193	-0.216300	-0.115748
H74	H	1.115113	-0.267132	-0.621079
Cl75	Cl	1.594065	-0.252402	-1.046971
H76	H	1.698386	-0.829079	-0.315572
Cl77	Cl	0.967507	-0.180273	-0.419621
Cl78	Cl	1.362777	-0.152940	-0.875191
H79	H	0.905987	-0.267149	-0.621104
H80	H	1.321917	-0.688360	-0.691381
Cl81	Cl	1.594034	-0.252422	-0.960861
H82	H	1.321874	-0.603251	-0.691370
Cl83	Cl	1.358982	-0.482943	-0.654099
Cl84	Cl	1.292417	-0.839508	-0.720980
Cl85	Cl	1.727944	-0.733569	-0.285965
Cl86	Cl	1.727913	-0.698702	-0.285952
Cl87	Cl	1.358932	-0.377038	-0.654089
H88	H	1.388964	-0.959828	-0.624653
Cl89	Cl	1.362859	-0.152896	-1.132753
H90	H	1.077832	-0.192994	-0.449144
H91	H	1.631178	-0.387399	-0.382218
Cl92	Cl	1.660889	-0.482892	-0.352671
H93	H	1.389013	-1.044937	-0.624656
Cl94	Cl	1.661211	-0.949402	-0.352766
Cl95	Cl	1.661281	-1.055304	-0.352803
Cl96	Cl	1.727844	-0.592823	-0.285936
Cl97	Cl	1.292336	-0.733626	-0.720948
