data_functionalizedCrystal
_audit_creation_method	'MofGen! by Chris Wilmer'
_symmetry_space_group_name_H-M	'P1'
_symmetry_Int_Tables_number	1
_symmetry_cell_setting	triclinic
loop_
_symmetry_equiv_pos_as_xyz
  x,y,z
_cell_length_a	13.635800
_cell_length_b	9.514088
_cell_length_c	19.452875
_cell_angle_alpha	103.638460
_cell_angle_beta	78.293687
_cell_angle_gamma	118.843545
loop_
_atom_site_label
_atom_site_type_symbol
_atom_site_fract_x
_atom_site_fract_y
_atom_site_fract_z
V1	V	2.047521	0.501685	0.098442
O2	O	2.102826	0.491178	-0.003449
O3	O	1.963226	0.499173	0.193960
O4	O	2.065502	0.720067	0.097490
O5	O	1.999842	0.268755	0.093690
V6	V	2.291656	0.473713	0.086188
O7	O	2.172943	0.563043	0.125321
O8	O	2.391332	0.412354	0.059308
O9	O	2.264348	0.476224	-0.009331
O10	O	2.295049	0.484219	0.188078
O11	O	2.398033	0.706642	0.090940
O12	O	2.162072	0.255330	0.087140
V13	V	2.547521	0.501685	0.098442
O14	O	2.602826	0.491178	-0.003449
O15	O	2.463226	0.499173	0.193960
O16	O	2.565502	0.720067	0.097490
O17	O	2.499842	0.268755	0.093690
V18	V	2.791656	0.473713	0.086188
O19	O	2.672943	0.563043	0.125321
O20	O	2.891332	0.412354	0.059308
O21	O	2.764348	0.476224	-0.009331
O22	O	2.795049	0.484219	0.188078
O23	O	2.898033	0.706642	0.090940
O24	O	2.662072	0.255330	0.087140
C25	C	1.869742	0.491497	0.217228
C26	C	1.841746	0.490899	0.295320
C27	C	2.000205	0.773266	0.094169
C28	C	2.055150	0.951801	0.094023
C29	C	2.189499	0.483896	-0.032595
C30	C	2.207116	0.484504	-0.110686
C31	C	1.786934	0.343432	0.321598
C32	C	1.760636	0.342848	0.394972
C33	C	1.789144	0.489733	0.442067
C34	C	1.843964	0.637212	0.415785
C35	C	1.870268	0.637794	0.342412
C36	C	2.059037	0.202123	0.090462
C37	C	1.993713	0.023587	0.090605
C38	C	2.302441	0.476864	-0.150958
C39	C	2.319066	0.477641	-0.224318
C40	C	2.240373	0.486093	-0.257401
C41	C	2.145032	0.493725	-0.217121
C42	C	2.128403	0.492931	-0.143763
N43	N	2.233795	0.585231	-0.363353
N44	N	2.249598	0.585989	-0.433040
C45	C	2.290467	0.488483	-0.478423
N46	N	2.314956	0.390210	-0.451486
N47	N	2.299157	0.389459	-0.381792
C48	C	2.258393	0.486954	-0.336944
C49	C	2.403823	0.481683	-0.598240
C50	C	2.420442	0.482451	-0.671602
C51	C	2.246410	0.498551	-0.664402
C52	C	2.229789	0.497766	-0.591043
C53	C	2.308502	0.489340	-0.557966
C54	C	2.369742	0.491497	0.217228
C55	C	2.341746	0.490899	0.295320
C56	C	2.500205	0.773266	0.094169
C57	C	2.555150	0.951801	0.094023
C58	C	2.689499	0.483896	-0.032595
C59	C	2.707116	0.484504	-0.110686
C60	C	2.559037	0.202123	0.090462
C61	C	2.493713	0.023587	0.090605
C62	C	2.802404	0.476730	-0.150960
C63	C	2.818962	0.477275	-0.224337
C64	C	2.740235	0.485605	-0.257438
C65	C	2.644938	0.493375	-0.217159
C66	C	2.628377	0.492818	-0.143784
H67	H	1.715996	0.222749	0.416359
O68	O	1.868360	0.924070	0.086866
H69	H	1.828919	0.864842	0.134903
H70	H	2.080959	0.500603	-0.244062
H71	H	2.399077	0.948464	0.087797
H72	H	2.649791	1.026935	0.096839
O73	O	2.488695	0.472542	-0.562560
H74	H	2.523711	0.581841	-0.521473
O75	O	2.525605	0.501231	-0.100351
H76	H	2.527299	0.499441	-0.043766
O77	O	2.560038	0.502368	-0.252869
H78	H	2.490984	0.507672	-0.212542
O79	O	2.126985	0.506042	-0.547597
H80	H	2.075061	0.512067	-0.582923
H81	H	2.498065	0.476220	-0.704391
O82	O	1.756178	0.184995	0.270810
H83	H	1.798718	0.120347	0.282591
O84	O	1.760754	0.489095	0.521204
H85	H	1.717836	0.361864	0.531558
O86	O	2.758122	0.486239	-0.336577
H87	H	2.761640	0.372879	-0.365251
H88	H	2.149791	1.026935	0.096839
H89	H	2.182335	0.505427	-0.691338
H90	H	2.366535	0.469997	-0.124031
O91	O	1.874710	0.795634	0.466582
H92	H	1.847196	0.770432	0.522015
O93	O	1.929369	0.796854	0.314071
H94	H	1.944755	0.898881	0.359149
H95	H	2.396690	0.471410	-0.257114
H96	H	2.050782	0.499164	-0.110973
H97	H	2.866520	0.469949	-0.124020
O98	O	2.921767	0.468952	-0.267770
H99	H	2.973738	0.463114	-0.232418
