data_functionalizedCrystal
_audit_creation_method	'MofGen! by Chris Wilmer'
_symmetry_space_group_name_H-M	'P1'
_symmetry_Int_Tables_number	1
_symmetry_cell_setting	triclinic
loop_
_symmetry_equiv_pos_as_xyz
  x,y,z
_cell_length_a	10.654550
_cell_length_b	17.038272
_cell_length_c	9.730223
_cell_angle_alpha	89.998176
_cell_angle_beta	89.996251
_cell_angle_gamma	87.798229
loop_
_atom_site_label
_atom_site_type_symbol
_atom_site_fract_x
_atom_site_fract_y
_atom_site_fract_z
O1	O	1.678036	0.109875	-0.114405
O2	O	1.313530	0.120343	-0.114384
O3	O	1.493617	0.001281	-0.114383
O4	O	1.497950	0.228936	-0.114406
O5	O	1.493615	0.001284	0.114196
O6	O	1.313528	0.120346	0.114196
O7	O	1.678034	0.109878	0.114175
Zn8	Zn	1.495781	0.115112	0.150477
Zn9	Zn	1.495783	0.115108	-0.150686
O10	O	1.497948	0.228939	0.114174
C11	C	1.266660	0.119576	-0.000091
C12	C	1.127003	0.117276	-0.000082
C13	C	1.054026	0.187378	-0.000109
C14	C	0.922804	0.185212	-0.000132
C15	C	0.937548	0.042837	-0.000108
C16	C	1.068767	0.045004	-0.000075
C17	C	1.045513	0.269577	-0.000129
C18	C	0.914292	0.267411	-0.000152
C19	C	1.489675	-0.027867	-0.000093
C20	C	1.477918	-0.114726	-0.000093
C21	C	1.585862	-0.164237	-0.000098
C22	C	1.574808	-0.245850	-0.000111
C23	C	1.455808	-0.277949	-0.000108
C24	C	1.347856	-0.228431	-0.000107
C25	C	1.358911	-0.146821	-0.000105
C26	C	1.416750	-0.523925	-0.000125
C27	C	1.405702	-0.605542	-0.000123
C28	C	1.632656	-0.622955	-0.000129
C29	C	1.643701	-0.541342	-0.000118
C30	C	1.535749	-0.491831	-0.000124
C31	C	1.444505	-0.361370	-0.000116
C32	C	1.547052	-0.408412	-0.000126
C33	C	1.724905	0.110645	-0.000121
C34	C	1.864562	0.112944	-0.000139
C35	C	1.501889	0.258088	-0.000119
C36	C	1.513646	0.344947	-0.000128
N37	N	1.495788	0.115115	0.356014
N38	N	1.495785	0.115100	-0.356223
C39	C	1.575554	0.062412	0.427940
C40	C	1.575550	0.062402	0.571823
C41	C	1.416010	0.167805	0.571841
C42	C	1.416009	0.167810	0.427961
C43	C	1.667667	0.001561	0.427931
C44	C	1.667663	0.001551	0.571814
H45	H	0.890116	-0.016005	-0.000123
H46	H	1.740603	-0.515213	-0.000120
H47	H	1.662708	-0.286159	-0.000112
N48	N	1.219503	-0.263048	-0.000114
H49	H	1.228877	-0.322261	-0.000111
H50	H	1.171882	-0.244980	0.084626
H51	H	1.720544	-0.663275	-0.000126
N52	N	1.088334	0.312168	0.126571
H53	H	1.012796	0.329607	0.183095
H54	H	1.144807	0.275758	0.183031
H55	H	1.351055	0.210708	0.630436
H56	H	1.308794	-0.631674	-0.000099
H57	H	1.083600	0.295749	-0.098819
H58	H	0.870926	0.292254	0.098529
N59	N	1.797142	0.019314	0.623543
H60	H	1.797191	0.019312	0.727342
H61	H	1.859765	-0.022069	0.588866
H62	H	1.631874	-0.055271	0.616437
N63	N	0.862807	0.308432	-0.126870
H64	H	0.934480	0.328295	-0.183406
H65	H	0.814052	0.270279	-0.183310
N66	N	1.300321	-0.470531	-0.000126
H67	H	1.223261	-0.503252	-0.000117
H68	H	1.299962	-0.436292	0.084612
H69	H	1.682764	-0.138109	-0.000092
H70	H	1.128180	-0.012080	-0.000033
N71	N	1.631874	-0.078083	0.376192
H72	H	1.615892	-0.113628	0.456882
H73	H	1.553286	-0.072173	0.318493
H74	H	1.760620	0.020614	0.383297
H75	H	1.271011	-0.106509	-0.000101
H76	H	1.347615	-0.387514	-0.000111
N77	N	1.675397	-0.373792	-0.000113
H78	H	1.742110	-0.417539	-0.000111
H79	H	1.684932	-0.340308	-0.084848
N80	N	1.329953	0.224639	0.350380
H81	H	1.279415	0.258017	0.417794
H82	H	1.381731	0.259512	0.290674
