data_functionalizedCrystal
_audit_creation_method	'MofGen! by Chris Wilmer'
_symmetry_space_group_name_H-M	'P1'
_symmetry_Int_Tables_number	1
_symmetry_cell_setting	triclinic
loop_
_symmetry_equiv_pos_as_xyz
  x,y,z
_cell_length_a	17.038272
_cell_length_b	7.088929
_cell_length_c	8.597304
_cell_angle_alpha	76.027438
_cell_angle_beta	88.193805
_cell_angle_gamma	96.660609
loop_
_atom_site_label
_atom_site_type_symbol
_atom_site_fract_x
_atom_site_fract_y
_atom_site_fract_z
O1	O	1.029156	-0.218346	0.361866
O2	O	0.801525	-0.217496	0.356368
O3	O	0.921718	-0.179785	0.127632
O4	O	0.908963	-0.256057	0.590603
O5	O	0.937781	0.143242	0.096989
O6	O	0.817588	0.105531	0.325726
O7	O	1.045218	0.104681	0.331224
Cu8	Cu	0.932870	0.134601	0.325677
Cu9	Cu	0.913874	-0.247416	0.361915
O10	O	0.925025	0.066970	0.559961
C11	C	0.780430	-0.055166	0.336043
C12	C	0.693645	-0.052728	0.321112
N13	N	0.946236	0.403291	0.300189
N14	N	0.900514	-0.516104	0.387392
C15	C	0.643456	-0.075314	0.458215
C16	C	0.561915	-0.072974	0.444172
C17	C	0.530562	-0.048062	0.293025
C18	C	0.580757	-0.025469	0.155911
C19	C	0.662298	-0.027795	0.169954
C20	C	0.284834	-0.039837	0.243411
C21	C	0.203286	-0.037518	0.229379
C22	C	0.184449	-0.085020	0.517641
C23	C	0.265992	-0.087356	0.531672
C24	C	0.316180	-0.064752	0.394557
C25	C	0.447214	-0.045676	0.278668
C26	C	0.399528	-0.067125	0.408915
C27	C	1.066313	-0.057653	0.351550
C28	C	1.153098	-0.060104	0.366482
C29	C	0.929274	-0.008468	0.052781
C30	C	0.927850	0.020741	-0.124601
C31	C	0.917469	-0.104351	0.634812
C32	C	0.918892	-0.133573	0.812195
H33	H	0.668976	-0.095601	0.581295
H34	H	0.912309	-0.288045	-0.106214
C35	C	0.936734	0.229434	-0.234821
H36	H	0.934581	0.222366	-0.343583
H37	H	0.894985	0.296343	-0.208454
H38	H	0.986129	0.298333	-0.220439
H39	H	0.993631	0.499845	0.209828
H40	H	0.291511	-0.107664	0.654753
H41	H	0.421680	-0.025337	0.155598
C42	C	0.506710	-0.097825	0.594986
H43	H	0.537060	-0.113018	0.687016
H44	H	0.480119	0.014742	0.584825
H45	H	0.468900	-0.210562	0.606180
C46	C	0.129243	-0.109857	0.668450
H47	H	0.076190	-0.104887	0.638444
H48	H	0.133126	-0.232637	0.740662
H49	H	0.144348	-0.007327	0.719275
C50	C	0.168801	-0.010110	0.063110
H51	H	0.210370	0.003034	-0.016542
H52	H	0.131776	-0.120866	0.062325
H53	H	0.142990	0.104439	0.040966
C54	C	0.340030	-0.014988	0.092592
H55	H	0.309676	0.000161	0.000570
H56	H	0.377838	0.097742	0.081388
H57	H	0.366622	-0.127566	0.102759
H58	H	0.555225	-0.005157	0.032841
H59	H	0.853127	0.387351	0.477758
H60	H	0.703161	-0.009404	0.058310
H61	H	0.425059	-0.087398	0.531976
