data_functionalizedCrystal
_audit_creation_method	'MofGen! by Chris Wilmer'
_symmetry_space_group_name_H-M	'P1'
_symmetry_Int_Tables_number	1
_symmetry_cell_setting	triclinic
loop_
_symmetry_equiv_pos_as_xyz
  x,y,z
_cell_length_a	11.792241
_cell_length_b	12.376457
_cell_length_c	13.262508
_cell_angle_alpha	116.815184
_cell_angle_beta	84.317960
_cell_angle_gamma	78.632725
loop_
_atom_site_label
_atom_site_type_symbol
_atom_site_fract_x
_atom_site_fract_y
_atom_site_fract_z
O1	O	1.518878	-0.053135	0.132559
O2	O	1.187390	-0.048285	0.148417
O3	O	1.373031	-0.100952	-0.022939
O4	O	1.333237	-0.000468	0.303914
O5	O	1.326640	0.100209	0.019842
O6	O	1.140999	0.152875	0.191197
O7	O	1.472487	0.148026	0.175339
Zn8	Zn	1.299378	0.182389	0.190061
Zn9	Zn	1.360500	-0.082649	0.133696
O10	O	1.286846	0.200692	0.346695
C11	C	1.121977	0.051985	0.168810
C12	C	0.996182	0.051057	0.165825
N13	N	1.257672	0.363270	0.228527
N14	N	1.402215	-0.263533	0.095220
C15	C	0.765861	0.049406	0.160348
C16	C	0.894029	0.050324	0.163391
C17	C	1.537901	0.047753	0.154946
C18	C	1.663697	0.048672	0.157929
C19	C	1.351871	-0.013238	-0.043393
C20	C	1.357923	-0.051578	-0.168078
C21	C	1.499029	0.649832	0.005904
C22	C	1.528212	0.523217	-0.021019
C23	C	1.460579	0.483224	0.041365
C24	C	1.363759	0.569858	0.130677
C25	C	1.334578	0.696487	0.157609
C26	C	1.296128	0.529879	0.193070
C27	C	1.199307	0.616514	0.282382
C28	C	1.170131	0.743130	0.309309
C29	C	1.237764	0.783123	0.246925
C30	C	1.325309	0.403250	0.166138
C31	C	1.160858	0.449906	0.317843
C32	C	1.131674	0.576521	0.344766
C33	C	1.273821	0.278975	-0.426277
C34	C	1.268126	0.314998	-0.309128
C35	C	1.290575	0.223357	-0.273859
C36	C	1.318720	0.095687	-0.355752
C37	C	1.324406	0.059660	-0.472911
C38	C	1.341160	0.004043	-0.320494
C39	C	1.369304	-0.123627	-0.402387
C40	C	1.374990	-0.159648	-0.519534
C41	C	1.352542	-0.068007	-0.554803
C42	C	1.335473	0.040069	-0.203335
C43	C	1.386058	-0.179245	-0.249969
C44	C	1.391753	-0.215268	-0.367118
C45	C	1.308007	0.112976	0.367149
C46	C	1.301957	0.151308	0.491832
H47	H	1.484345	0.380127	0.019440
H48	H	1.285935	0.252695	-0.178470
O49	O	1.402409	-0.283721	-0.598943
C50	C	1.451963	-0.497448	-0.632829
C51	C	1.420938	-0.356982	-0.542783
H52	H	1.466927	-0.556718	-0.587455
H53	H	1.535957	-0.522847	-0.698609
H54	H	1.375881	-0.516762	-0.679086
H55	H	1.496944	-0.337566	-0.496441
H56	H	1.336906	-0.331653	-0.477078
H57	H	1.404141	0.332723	0.093420
O58	O	1.564703	0.688507	-0.054871
C59	C	1.635158	0.667438	-0.241446
C60	C	1.560765	0.623501	-0.172756
H61	H	1.631979	0.614919	-0.336765
H62	H	1.730823	0.647173	-0.231608
H63	H	1.597674	0.772830	-0.206792
H64	H	1.598145	0.518108	-0.207364
H65	H	1.465109	0.643860	-0.182594
O66	O	1.209219	0.906156	0.273195
C67	C	1.077151	1.113475	0.395113
C68	C	1.109329	0.974174	0.365472
H69	H	0.996404	1.168513	0.469737
H70	H	1.056244	1.121404	0.316210
H71	H	1.155052	1.153650	0.421387
H72	H	1.031473	0.933910	0.339223
H73	H	1.130281	0.966329	0.444399
H74	H	1.052841	0.647074	0.417487
H75	H	1.255538	0.353575	-0.455004
O76	O	1.240847	0.439058	-0.229742
C77	C	1.191248	0.652785	-0.195854
C78	C	1.222143	0.512323	-0.285883
H79	H	1.176092	0.712061	-0.241206
H80	H	1.267360	0.672185	-0.149659
H81	H	1.107328	0.678097	-0.130024
H82	H	1.306030	0.486914	-0.351784
H83	H	1.145962	0.492998	-0.331989
O84	O	1.621941	0.439015	-0.108129
C85	C	1.688523	0.249461	-0.292186
C86	C	1.582397	0.344649	-0.193411
H87	H	1.656587	0.173158	-0.361173
H88	H	1.755982	0.204754	-0.256527
H89	H	1.731564	0.300065	-0.332019
H90	H	1.539260	0.294139	-0.153538
H91	H	1.515017	0.389353	-0.229134
H92	H	1.357183	-0.097331	-0.650194
O93	O	1.418917	-0.339312	-0.446554
C94	C	1.364719	-0.534014	-0.510191
C95	C	1.333852	-0.393564	-0.420133
H96	H	1.295947	-0.577913	-0.488876
H97	H	1.456061	-0.584120	-0.508464
H98	H	1.364960	-0.543963	-0.599964
H99	H	1.333544	-0.383500	-0.330318
H100	H	1.242529	-0.343524	-0.421962
O101	O	1.407642	-0.268178	-0.215590
C102	C	1.331357	-0.351125	-0.098380
C103	C	1.306807	-0.250318	-0.137192
H104	H	1.249840	-0.336736	-0.035009
H105	H	1.409927	-0.342808	-0.054399
H106	H	1.352462	-0.448529	-0.177078
H107	H	1.285650	-0.152869	-0.058556
H108	H	1.228270	-0.258746	-0.181214
O109	O	1.095238	0.411176	0.378618
C110	C	1.024641	0.432385	0.565221
C111	C	1.099004	0.476347	0.496535
H112	H	1.027640	0.485075	0.660573
H113	H	1.062118	0.327019	0.530727
H114	H	0.929033	0.452575	0.555216
H115	H	1.194626	0.456243	0.506511
H116	H	1.061430	0.581702	0.531045
H117	H	1.091302	0.813672	0.382041
O118	O	1.307971	0.164122	-0.123879
C119	C	1.163886	0.366282	-0.036013
C120	C	1.194898	0.225818	-0.126061
H121	H	1.072455	0.416199	-0.037730
H122	H	1.232482	0.410358	-0.057335
H123	H	1.163737	0.376257	0.053759
H124	H	1.195032	0.215730	-0.215865
H125	H	1.126295	0.181807	-0.104639
