data_functionalizedCrystal
_audit_creation_method	'MofGen! by Chris Wilmer'
_symmetry_space_group_name_H-M	'P1'
_symmetry_Int_Tables_number	1
_symmetry_cell_setting	triclinic
loop_
_symmetry_equiv_pos_as_xyz
  x,y,z
_cell_length_a	12.827893
_cell_length_b	12.827892
_cell_length_c	18.215399
_cell_angle_alpha	90.023838
_cell_angle_beta	90.017515
_cell_angle_gamma	90.015553
loop_
_atom_site_label
_atom_site_type_symbol
_atom_site_fract_x
_atom_site_fract_y
_atom_site_fract_z
Zn1	Zn	1.597653	-0.416039	0.416091
Zn2	Zn	1.597552	-0.590799	0.293034
Zn3	Zn	1.422900	-0.416073	0.293044
Zn4	Zn	1.422880	-0.590739	0.416064
O5	O	1.510246	-0.503412	0.354558
O6	O	1.743876	-0.439232	0.399775
O7	O	1.574350	-0.567659	0.190051
O8	O	1.446132	-0.269832	0.309382
O9	O	1.743802	-0.567627	0.309365
O10	O	1.574522	-0.269808	0.399784
O11	O	1.446034	-0.439289	0.190058
O12	O	1.276661	-0.439232	0.309355
O13	O	1.446098	-0.567526	0.519052
O14	O	1.276647	-0.567559	0.399738
O15	O	1.574504	-0.439175	0.519072
O16	O	1.574331	-0.737027	0.309338
O17	O	1.446000	-0.736983	0.399728
C18	C	1.238736	-0.503393	0.354545
C19	C	1.122583	-0.503410	0.354557
C20	C	0.950775	-0.567026	0.399223
C21	C	1.070825	-0.567010	0.399212
C22	C	1.510181	-0.774922	0.354545
C23	C	1.510249	-0.891075	0.354564
C24	C	1.573826	-0.942847	0.309886
C25	C	1.573898	-1.062897	0.309905
C26	C	1.782816	-0.503433	0.354572
C27	C	1.898970	-0.503441	0.354578
C28	C	1.510310	-0.503340	0.546511
C29	C	1.510337	-0.503310	0.628310
C30	C	1.510340	-0.230842	0.354587
C31	C	1.510381	-0.114689	0.354600
C32	C	1.510243	-0.503409	0.163352
C33	C	1.510418	-0.503145	0.081553
C34	C	1.577222	-0.436415	0.816516
C35	C	1.577234	-0.436384	0.893375
C36	C	1.443526	-0.570043	0.893342
C37	C	1.443509	-0.570068	0.816485
C38	C	1.510363	-0.503255	0.778074
C39	C	1.510392	-0.503200	0.931790
C40	C	1.510405	-0.503167	1.015124
C41	C	1.510349	-0.503286	0.694735
H42	H	0.906250	-0.621479	0.437450
H43	H	1.455875	-0.935629	0.392831
O44	O	1.124127	-0.631921	0.444745
C45	C	1.292381	-0.691012	0.486305
C46	C	1.232146	-0.617463	0.434687
H47	H	1.379725	-0.679332	0.478202
H48	H	1.271044	-0.775298	0.473295
H49	H	1.270957	-0.672802	0.545675
H50	H	1.253538	-0.635578	0.375300
H51	H	1.253488	-0.533198	0.447760
O52	O	1.378692	-0.634913	0.930770
C53	C	1.319416	-0.694070	1.049158
C54	C	1.392910	-0.620566	1.006866
H55	H	1.330870	-0.682480	1.110689
H56	H	1.337738	-0.778362	1.034092
H57	H	1.235166	-0.675730	1.033997
H58	H	1.477185	-0.638811	1.022005
H59	H	1.374499	-0.536295	1.021936
H60	H	1.628209	-0.898296	0.271624
O61	O	1.069491	-0.438317	0.309031
C62	C	1.035924	-0.260537	0.273508
C63	C	1.096111	-0.334131	0.325122
H64	H	1.057441	-0.176289	0.286489
H65	H	0.948562	-0.272037	0.281648
H66	H	1.057267	-0.278816	0.214134
H67	H	1.074855	-0.315898	0.384516
H68	H	1.183459	-0.322618	0.316918
O69	O	0.952193	-0.438627	0.308930
C70	C	1.075443	-0.424490	0.209625
C71	C	1.015255	-0.498010	0.261287
H72	H	1.126426	-0.472473	0.171082
H73	H	1.126645	-0.369967	0.243465
H74	H	1.017748	-0.376593	0.176046
H75	H	1.072874	-0.545974	0.294877
H76	H	0.964037	-0.552464	0.227405
O77	O	1.638835	-1.116164	0.264361
C78	C	1.698083	-1.284388	0.222832
C79	C	1.624483	-1.224191	0.274446
H80	H	1.686490	-1.371738	0.230957
H81	H	1.782351	-1.262960	0.235823
H82	H	1.679843	-1.263018	0.163459
H83	H	1.642629	-1.245528	0.333836
H84	H	1.540238	-1.245624	0.261392
H85	H	1.631655	-0.382008	0.785244
O86	O	1.378527	-0.635101	0.779251
C87	C	1.245866	-0.767627	0.787323
C88	C	1.319420	-0.694056	0.829582
H89	H	1.198043	-0.815296	0.827997
H90	H	1.293771	-0.822350	0.751357
H91	H	1.191278	-0.719639	0.751321
H92	H	1.374023	-0.741960	0.865623
H93	H	1.271450	-0.639331	0.865501
O94	O	1.445589	-1.061542	0.400316
C95	C	1.431488	-0.938055	0.499537
C96	C	1.504982	-0.998208	0.447822
H97	H	1.479476	-0.886819	0.537949
H98	H	1.383694	-0.995680	0.533247
H99	H	1.376868	-0.887080	0.465659
H100	H	1.559665	-1.049185	0.481643
H101	H	1.552702	-0.940527	0.414110
H102	H	1.631676	-0.381954	0.924671
