data_functionalizedCrystal
_audit_creation_method	'MofGen! by Chris Wilmer'
_symmetry_space_group_name_H-M	'P1'
_symmetry_Int_Tables_number	1
_symmetry_cell_setting	triclinic
loop_
_symmetry_equiv_pos_as_xyz
  x,y,z
_cell_length_a	30.700949
_cell_length_b	30.711328
_cell_length_c	30.700811
_cell_angle_alpha	59.996513
_cell_angle_beta	89.996803
_cell_angle_gamma	59.999829
loop_
_atom_site_label
_atom_site_type_symbol
_atom_site_fract_x
_atom_site_fract_y
_atom_site_fract_z
O1	O	0.371244	-0.384093	0.683021
O2	O	0.307905	-0.294925	0.530484
O3	O	0.307902	-0.384088	0.619676
O4	O	0.371247	-0.294930	0.593829
O5	O	0.235457	-0.311667	0.619676
O6	O	0.235460	-0.222504	0.530484
O7	O	0.298799	-0.311671	0.683021
Cu8	Cu	0.260515	-0.260475	0.606752
Cu9	Cu	0.346189	-0.346122	0.606753
O10	O	0.298802	-0.222508	0.593829
C11	C	0.371914	-0.137110	0.587946
C12	C	0.345035	-0.083372	0.591645
C13	C	0.424335	-0.163187	0.587578
C14	C	0.371915	-0.215960	0.587946
C15	C	0.345036	-0.246527	0.591645
C16	C	0.424336	-0.241917	0.587578
C17	C	0.450790	-0.215959	0.587946
C18	C	0.508246	-0.246526	0.591645
C19	C	0.345579	-0.163188	0.587578
C20	C	0.110279	-0.071081	0.102848
C21	C	0.057858	-0.018309	0.076513
C22	C	0.110280	-0.071079	0.181723
C23	C	0.057859	-0.018307	0.155268
C24	C	0.031404	0.007769	0.102848
C25	C	0.136615	-0.097037	0.155268
C26	C	0.238042	-0.213079	0.054685
C27	C	0.263043	-0.242109	0.029859
C28	C	0.236090	-0.217194	-0.022087
C29	C	0.263192	-0.248674	-0.049003
C30	C	0.184137	-0.163243	-0.049207
C31	C	0.159143	-0.134213	-0.024384
C32	C	0.186098	-0.159134	0.027565
C33	C	-0.158805	0.183635	-0.024913
C34	C	-0.212671	0.233445	-0.049914
C35	C	-0.239694	0.258432	-0.022964
C36	C	-0.298099	0.312432	-0.050063
C37	C	-0.212845	0.233608	0.028989
C38	C	-0.158979	0.183807	0.053985
C39	C	-0.131963	0.158820	0.027028
C40	C	0.238046	-0.213072	0.371931
C41	C	0.263046	-0.242104	0.425798
C42	C	0.236095	-0.217187	0.452820
C43	C	0.263197	-0.248665	0.511227
C44	C	0.184143	-0.163241	0.425974
C45	C	0.159146	-0.134213	0.372108
C46	C	0.186104	-0.159130	0.345089
C47	C	0.158989	-0.127654	0.054479
C48	C	0.137383	-0.102561	0.075933
C49	C	0.137385	-0.102557	0.240128
C50	C	0.158992	-0.127648	0.286682
C51	C	-0.027001	0.061769	0.075744
C52	C	-0.073556	0.104815	0.054138
C53	C	0.031746	-0.535519	0.645984
C54	C	0.058201	-0.588291	0.646353
C55	C	0.110622	-0.535520	0.645984
C56	C	0.136957	-0.588291	0.646353
C57	C	0.110622	-0.614369	0.645984
C58	C	0.058201	-0.509562	0.646353
C59	C	-0.158462	-0.393523	0.631704
C60	C	-0.212327	-0.364493	0.627666
C61	C	-0.239348	-0.389410	0.625639
C62	C	-0.297755	-0.357931	0.621251
C63	C	-0.212500	-0.443361	0.627655
C64	C	-0.158637	-0.472390	0.631699
C65	C	-0.131618	-0.447469	0.633724
C66	C	0.158787	-0.790237	0.631704
C67	C	0.183614	-0.840048	0.627666
C68	C	0.235558	-0.865034	0.625637
C69	C	0.262478	-0.919035	0.621252
C70	C	0.262678	-0.840209	0.627652
C71	C	0.237856	-0.790408	0.631699
C72	C	0.185905	-0.765422	0.633722
C73	C	0.158787	-0.393524	0.631704
C74	C	0.183611	-0.364490	0.627659
C75	C	0.235558	-0.389407	0.625632
C76	C	0.262476	-0.357928	0.621245
C77	C	0.262676	-0.443353	0.627645
C78	C	0.237849	-0.472382	0.631688
C79	C	0.185905	-0.447465	0.633722
C80	C	-0.073213	-0.478948	0.638105
C81	C	-0.026659	-0.504040	0.641599
C82	C	0.137537	-0.504041	0.641599
C83	C	0.158992	-0.478949	0.638105
C84	C	0.137537	-0.668370	0.641599
C85	C	0.158992	-0.711416	0.638105
O86	O	0.682986	-0.384087	0.619676
O87	O	0.530454	-0.294928	0.593829
O88	O	0.619641	-0.384091	0.683021
O89	O	0.593799	-0.294924	0.530484
O90	O	0.619639	-0.311670	0.683021
O91	O	0.530452	-0.222507	0.593829
O92	O	0.682984	-0.311665	0.619676
Cu93	Cu	0.606718	-0.260473	0.606752
Cu94	Cu	0.606720	-0.346120	0.606752
O95	O	0.593797	-0.222502	0.530484
O96	O	0.307902	0.063287	0.619676
O97	O	0.371245	-0.063355	0.593829
O98	O	0.371243	-0.063359	0.683021
O99	O	0.307904	0.063292	0.530484
O100	O	0.298798	-0.063359	0.683021
O101	O	0.298800	-0.063354	0.593829
O102	O	0.235457	0.063288	0.619676
Cu103	Cu	0.260513	-0.000033	0.606753
Cu104	Cu	0.346189	-0.000034	0.606752
O105	O	0.235459	0.063292	0.530484
O106	O	-0.469889	0.456752	-0.085662
O107	O	-0.317357	0.330111	-0.022323
O108	O	-0.406544	0.330105	-0.022313
O109	O	-0.380703	0.456757	-0.085672
O110	O	-0.406545	0.330104	-0.094757
O111	O	-0.317359	0.330110	-0.094768
O112	O	-0.469891	0.456750	-0.158107
Cu113	Cu	-0.393625	0.393430	-0.133052
Cu114	Cu	-0.393623	0.393431	-0.047378
O115	O	-0.380704	0.456756	-0.158117
O116	O	0.298795	-0.311683	-0.157766
O117	O	0.235452	-0.222519	-0.094427
O118	O	0.235455	-0.311685	-0.094416
O119	O	0.298792	-0.222517	-0.157776
O120	O	0.307900	-0.384104	-0.021972
O121	O	0.307898	-0.294939	-0.021982
O122	O	0.371241	-0.384102	-0.085321
Cu123	Cu	0.346184	-0.346133	-0.047037
Cu124	Cu	0.260509	-0.260489	-0.132711
O125	O	0.371238	-0.294936	-0.085331
C126	C	0.450784	-0.469499	0.841565
C127	C	0.508239	-0.523240	0.868444
C128	C	0.424329	-0.443423	0.867900
C129	C	0.371910	-0.390645	0.762687
C130	C	0.345033	-0.360075	0.705229
C131	C	0.345575	-0.364689	0.789142
C132	C	0.371909	-0.390649	0.841565
C133	C	0.345030	-0.360084	0.868444
C134	C	0.424330	-0.443419	0.789142
C135	C	0.625519	-0.390645	0.841564
C136	C	0.621837	-0.360087	0.868447
C137	C	0.625865	-0.443403	0.867894
C138	C	0.625512	-0.390637	0.762684
C139	C	0.621821	-0.360071	0.705228
C140	C	0.625858	-0.443396	0.789134
C141	C	0.625482	-0.469470	0.841555
C142	C	0.621759	-0.523193	0.868427
C143	C	0.625895	-0.364690	0.789144
C144	C	0.371910	-0.215973	0.841566
C145	C	0.345032	-0.246542	0.868446
C146	C	0.424330	-0.241932	0.867900
C147	C	0.371910	-0.137119	0.762687
C148	C	0.345032	-0.083378	0.705229
C149	C	0.424331	-0.163197	0.789141
C150	C	0.450785	-0.215972	0.841564
C151	C	0.508240	-0.246540	0.868442
C152	C	0.345575	-0.163199	0.789143
C153	C	0.567502	0.007469	0.102835
C154	C	0.567135	-0.018607	0.076499
C155	C	0.567501	-0.071386	0.181712
C156	C	0.567134	-0.097342	0.155256
C157	C	0.567504	-0.071380	0.102833
C158	C	0.567132	-0.018613	0.155258
C159	C	0.581779	0.183341	0.054673
C160	C	0.585817	0.233154	0.029847
C161	C	0.587845	0.258144	-0.022101
C162	C	0.592232	0.312148	-0.049018
C163	C	0.585831	0.233321	-0.049223
C164	C	0.581787	0.183518	-0.024399
C165	C	0.579761	0.158528	0.027551
C166	C	0.581790	-0.133793	-0.024937
C167	C	0.585829	-0.162646	-0.049940
C168	C	0.587859	-0.216603	-0.022991
C169	C	0.592246	-0.247895	-0.050092
C170	C	0.585842	-0.241703	0.028964
C171	C	0.581793	-0.212847	0.053963
C172	C	0.579771	-0.158889	0.027006
C173	C	0.581774	-0.133824	0.371927
C174	C	0.585817	-0.162687	0.425796
C175	C	0.587844	-0.216644	0.452817
C176	C	0.592230	-0.247943	0.511226
C177	C	0.585833	-0.241738	0.425969
C178	C	0.581792	-0.212876	0.372103
C179	C	0.579758	-0.158914	0.345084
C180	C	0.575381	0.104520	0.054466
C181	C	0.571887	0.061472	0.075920
C182	C	0.571884	-0.102681	0.240119
C183	C	0.575377	-0.127624	0.286675
C184	C	0.571891	-0.102668	0.075727
C185	C	0.575386	-0.127606	0.054119
O186	O	0.593841	-0.294958	0.978031
O187	O	0.619646	-0.384102	0.914681
O188	O	0.530474	-0.294918	0.914675
O189	O	0.683012	-0.384142	0.978037
O190	O	0.530502	-0.222513	0.842234
O191	O	0.619673	-0.311697	0.842240
O192	O	0.593868	-0.222553	0.905590
Cu193	Cu	0.606773	-0.260514	0.867301
Cu194	Cu	0.606741	-0.346141	0.952971
O195	O	0.683040	-0.311737	0.905596
C196	C	0.031766	0.464509	0.102834
C197	C	0.058222	0.490467	0.076499
C198	C	0.110639	0.385655	0.181713
C199	C	0.136975	0.411733	0.155258
C200	C	0.110642	0.464508	0.102835
C201	C	0.058218	0.411735	0.155257
C202	C	-0.158442	0.526939	0.054666
C203	C	-0.212307	0.555795	0.029838
C204	C	-0.239326	0.609753	-0.022110
C205	C	-0.297732	0.641050	-0.049029
C206	C	-0.212476	0.634850	-0.049231
C207	C	-0.158614	0.605989	-0.024405
C208	C	-0.131597	0.552031	0.027545
C209	C	0.158813	0.606507	-0.024931
C210	C	0.183641	0.635537	-0.049932
C211	C	0.235585	0.610622	-0.022981
C212	C	0.262506	0.642097	-0.050081
C213	C	0.262703	0.556669	0.028974
C214	C	0.237880	0.527635	0.053971
C215	C	0.185929	0.552563	0.027013
C216	C	0.158796	0.209777	0.371926
C217	C	0.183617	0.159968	0.425795
C218	C	0.235563	0.134980	0.452818
C219	C	0.262479	0.080976	0.511226
C220	C	0.262683	0.159805	0.425971
C221	C	0.237859	0.209614	0.372104
C222	C	0.185915	0.234593	0.345084
C223	C	-0.073193	0.520744	0.054462
C224	C	-0.026638	0.495802	0.075917
C225	C	0.137552	0.331651	0.240119
C226	C	0.159004	0.288602	0.286675
C227	C	0.137559	0.495987	0.075731
C228	C	0.159015	0.521079	0.054124
H229	H	0.036622	0.003516	0.176510
O230	O	0.294170	-0.137058	0.763775
C231	C	0.261745	-0.076117	0.749015
H232	H	0.287307	-0.058395	0.746190
H233	H	0.242032	-0.075080	0.780278
C234	C	0.187027	-0.056654	0.697950
C235	C	0.218423	-0.034886	0.694475
H236	H	0.160302	-0.031220	0.664309
H237	H	0.208871	-0.097712	0.707895
H238	H	0.170605	-0.055789	0.724005
H239	H	0.234849	-0.035758	0.668426
H240	H	0.196580	0.006173	0.684525
H241	H	0.445566	-0.141365	0.767900
O242	O	0.108690	-0.081798	0.346104
C243	C	0.090257	-0.066037	0.381505
H244	H	0.125799	-0.087696	0.415436
H245	H	0.065181	-0.083842	0.398511
C246	C	0.012334	0.031092	0.309691
C247	C	0.055986	0.004494	0.351364
H248	H	-0.008809	0.074599	0.291099
H249	H	0.024751	0.020473	0.285840
H250	H	-0.008557	0.016248	0.323869
H251	H	0.076879	0.019332	0.337184
H252	H	0.043572	0.015118	0.375211
O253	O	0.566404	-0.147987	0.180662
C254	C	0.566181	-0.165432	0.232710
H255	H	0.549806	-0.123985	0.234347
H256	H	0.608616	-0.203576	0.262054
C257	C	0.550846	-0.239856	0.245703
C258	C	0.530729	-0.188949	0.247713
H259	H	0.528980	-0.254364	0.254959
H260	H	0.550998	-0.228105	0.210638
H261	H	0.586208	-0.271636	0.270157
H262	H	0.495370	-0.157167	0.223255
H263	H	0.530570	-0.200695	0.282774
H264	H	0.445569	-0.465252	0.910973
H265	H	0.162198	-0.142960	-0.091502
H266	H	-0.234183	-0.320567	0.626024
O267	O	0.032859	0.541079	0.025091
C268	C	0.018092	0.527315	-0.007337
H269	H	0.015254	0.486872	0.018225
H270	H	0.049354	0.514722	-0.027046
C271	C	-0.032952	0.633598	-0.082059
C272	C	-0.036442	0.583928	-0.050664
H273	H	-0.066589	0.668520	-0.108787
H274	H	-0.023001	0.642871	-0.060213
H275	H	-0.006898	0.623096	-0.098478
H276	H	-0.062490	0.594428	-0.034240
H277	H	-0.046398	0.574658	-0.072508
H278	H	0.445566	-0.284396	0.910974
O279	O	0.579743	-0.081331	-0.051096
C280	C	0.531568	-0.033293	-0.055853
H281	H	0.515688	-0.053629	-0.023470
H282	H	0.501029	-0.004617	-0.096751
C283	C	0.561149	0.032891	-0.089321
C284	C	0.541648	0.007914	-0.049544
H285	H	0.567366	0.058312	-0.085432
H286	H	0.593605	0.000528	-0.086118
H287	H	0.535697	0.056783	-0.123399
H288	H	0.567103	-0.015984	-0.015468
H289	H	0.509196	0.040274	-0.052741
O290	O	0.188021	-0.147647	0.180642
C291	C	0.220441	-0.133866	0.195395
H292	H	0.194873	-0.093409	0.198212
H293	H	0.240156	-0.121286	0.164134
C294	C	0.295161	-0.240148	0.246476
C295	C	0.263760	-0.190461	0.249940
H296	H	0.321884	-0.275059	0.280120
H297	H	0.273321	-0.249433	0.236534
H298	H	0.311586	-0.229657	0.220423
H299	H	0.247331	-0.200951	0.275987
H300	H	0.285599	-0.181180	0.259887
O301	O	0.449589	-0.469446	0.763772
C302	C	0.421055	-0.487106	0.749012
H303	H	0.377764	-0.458728	0.746186
H304	H	0.439728	-0.538064	0.780274
C305	C	0.476310	-0.510748	0.697946
C306	C	0.423138	-0.475890	0.694471
H307	H	0.477596	-0.503833	0.664304
H308	H	0.495535	-0.498853	0.707892
H309	H	0.491864	-0.553210	0.724000
H310	H	0.407586	-0.433429	0.668423
H311	H	0.403910	-0.487778	0.684520
H312	H	0.036976	0.389911	0.176494
H313	H	0.259944	0.229823	0.350249
O314	O	0.294222	-0.313966	0.763793
C315	C	0.291294	-0.265361	0.761158
H316	H	0.332084	-0.273611	0.764593
H317	H	0.278569	-0.263163	0.795293
C318	C	0.200084	-0.193956	0.703310
C319	C	0.250182	-0.204087	0.707525
H320	H	0.174722	-0.156159	0.670228
H321	H	0.202055	-0.226703	0.705087
H322	H	0.189487	-0.192129	0.731759
H323	H	0.260781	-0.205922	0.679081
H324	H	0.248211	-0.171339	0.705742
O325	O	0.626489	-0.469441	0.919252
C326	C	0.580763	-0.469670	0.922155
H327	H	0.565026	-0.467157	0.886753
H328	H	0.548724	-0.428215	0.921202
C329	C	0.614682	-0.532400	1.017919
C330	C	0.595356	-0.529319	0.974440
H331	H	0.623682	-0.569193	1.050172
H332	H	0.645487	-0.532244	1.015964
H333	H	0.587979	-0.497851	1.017118
H334	H	0.622061	-0.563863	0.975238
H335	H	0.564556	-0.529483	0.976397
H336	H	0.161531	0.139760	0.447651
O337	O	0.449729	-0.292648	0.586978
C338	C	0.495707	-0.341245	0.632681
H339	H	0.490879	-0.332973	0.665205
H340	H	0.532045	-0.343454	0.622161
C341	C	0.509297	-0.412678	0.612934
C342	C	0.503365	-0.402521	0.652883
H343	H	0.514023	-0.450477	0.625395
H344	H	0.478321	-0.379938	0.582142
H345	H	0.539578	-0.414516	0.604171
H346	H	0.473080	-0.400676	0.661641
H347	H	0.534336	-0.435263	0.683677
O348	O	-0.238798	-0.467475	0.625588
C349	C	-0.282108	-0.424054	0.577421
H350	H	-0.274306	-0.390176	0.546610
H351	H	-0.320162	-0.398008	0.584720
C352	C	-0.298131	-0.499183	0.594410
C353	C	-0.288548	-0.457576	0.556565
H354	H	-0.302106	-0.519860	0.581546
H355	H	-0.268954	-0.528436	0.626862
H356	H	-0.329842	-0.477471	0.600489
H357	H	-0.256834	-0.479289	0.550492
H358	H	-0.317720	-0.428327	0.524111
H359	H	0.566532	0.003231	0.033422
O360	O	0.449599	-0.137044	0.586767
C361	C	0.421049	-0.076107	0.540553
H362	H	0.377754	-0.058387	0.525686
H363	H	0.439695	-0.075078	0.508236
C364	C	0.476336	-0.056631	0.572069
C365	C	0.423159	-0.034866	0.553811
H366	H	0.477640	-0.031192	0.580245
H367	H	0.495573	-0.097687	0.603203
H368	H	0.491868	-0.055773	0.545135
H369	H	0.407631	-0.035732	0.580747
H370	H	0.403921	0.006190	0.522681
H371	H	0.587453	-0.142249	0.447652
H372	H	-0.136449	0.483004	0.096965
H373	H	0.116500	0.230115	0.349929
H374	H	0.626396	-0.465182	0.767875
O375	O	0.108644	-0.081873	-0.050711
C376	C	0.073912	-0.093958	-0.063987
H377	H	0.092097	-0.145265	-0.035906
H378	H	0.067627	-0.079666	-0.106856
C379	C	-0.002439	0.005861	-0.093000
C380	C	0.019895	-0.057155	-0.058508
H381	H	-0.035760	0.028565	-0.089623
H382	H	0.020960	0.014004	-0.084058
H383	H	-0.007672	0.017762	-0.128721
H384	H	0.025134	-0.069056	-0.022787
H385	H	-0.003505	-0.065299	-0.067443
O386	O	0.313132	-0.467629	0.625661
C387	C	0.331746	-0.521476	0.628320
H388	H	0.296302	-0.520013	0.614447
H389	H	0.356861	-0.563531	0.671205
C390	C	0.409566	-0.527258	0.609073
C391	C	0.366032	-0.525459	0.592030
H392	H	0.430717	-0.529717	0.586689
H393	H	0.397026	-0.490982	0.607283
H394	H	0.430489	-0.562304	0.644810
H395	H	0.345106	-0.490409	0.556295
H396	H	0.378569	-0.561729	0.593812
O397	O	0.108361	0.630783	-0.051202
C398	C	0.089747	0.684630	-0.102411
H399	H	0.125192	0.683170	-0.114822
H400	H	0.064628	0.726685	-0.101598
C401	C	0.011933	0.690407	-0.127440
C402	C	0.055466	0.688611	-0.142685
H403	H	-0.009215	0.692865	-0.152283
H404	H	0.024472	0.654130	-0.092939
H405	H	-0.008994	0.725453	-0.126762
H406	H	0.076395	0.653562	-0.143356
H407	H	0.042930	0.724882	-0.177188
O408	O	0.188308	-0.614296	0.646960
C409	C	0.191215	-0.614580	0.601261
H410	H	0.150421	-0.577225	0.568730
H411	H	0.203922	-0.661416	0.611783
C412	C	0.282435	-0.647963	0.621028
C413	C	0.232333	-0.602080	0.581071
H414	H	0.307800	-0.640255	0.608575
H415	H	0.280478	-0.647774	0.651818
H416	H	0.293017	-0.686989	0.629793
H417	H	0.221749	-0.563056	0.572312
H418	H	0.234290	-0.602262	0.550279
H419	H	-0.234164	0.535358	0.051923
H420	H	-0.136756	0.626426	-0.046490
H421	H	0.580128	0.163001	0.096972
H422	H	0.304997	0.536383	0.050919
H423	H	0.304981	0.139458	0.447977
H424	H	0.116490	-0.373229	0.633355
O425	O	0.566398	0.007514	0.180513
C426	C	0.566175	0.059768	0.145913
H427	H	0.549805	0.077773	0.102814
H428	H	0.608610	0.046681	0.154727
C429	C	0.550830	0.088088	0.207367
C430	C	0.530719	0.110206	0.154432
H431	H	0.528961	0.119200	0.212622
H432	H	0.550982	0.052882	0.230679
H433	H	0.586192	0.077183	0.214705
H434	H	0.495360	0.121103	0.147096
H435	H	0.530560	0.145415	0.131119
H436	H	-0.136467	-0.373227	0.633354
H437	H	0.302507	-0.141360	0.586983
H438	H	0.626501	-0.322233	0.767909
O439	O	0.032509	0.007847	0.025095
C440	C	0.017733	0.068799	-0.007291
H441	H	0.044390	0.073823	0.012895
H442	H	-0.025645	0.101915	-0.013310
C443	C	-0.008561	0.077691	-0.086597
C444	C	0.024183	0.083859	-0.061806
H445	H	-0.004585	0.086982	-0.120226
H446	H	0.001392	0.036627	-0.064779
H447	H	-0.044706	0.105288	-0.091608
H448	H	0.060328	0.056257	-0.056790
H449	H	0.014236	0.124919	-0.083625
H450	H	0.580118	-0.089886	0.349931
H451	H	0.587457	0.253359	0.051934
H452	H	0.587479	0.253675	-0.091520
H453	H	0.259933	-0.516306	0.633326
H454	H	0.580140	0.163317	-0.046488
H455	H	-0.234479	0.678781	-0.091527
H456	H	0.587470	-0.142205	-0.092241
H457	H	-0.234527	0.253651	-0.092212
H458	H	0.161557	0.679466	-0.092232
H459	H	0.259964	0.483705	0.096270
H460	H	0.587488	-0.285634	0.050906
O461	O	0.579868	-0.237325	0.104439
C462	C	0.582512	-0.291128	0.122864
H463	H	0.602141	-0.310701	0.099634
H464	H	0.540490	-0.279510	0.116738
C465	C	0.591541	-0.315115	0.211179
C466	C	0.615654	-0.339157	0.182651
H467	H	0.611982	-0.344741	0.248058
H468	H	0.589757	-0.278866	0.198766
H469	H	0.556523	-0.305434	0.206068
H470	H	0.650668	-0.348830	0.187757
H471	H	0.617445	-0.375409	0.195067
O472	O	0.587875	-0.294200	0.452289
C473	C	0.636050	-0.342244	0.495587
H474	H	0.651930	-0.321915	0.507634
H475	H	0.666589	-0.370915	0.483371
C476	C	0.606464	-0.408423	0.528317
C477	C	0.625966	-0.383455	0.543116
H478	H	0.600245	-0.433847	0.557634
H479	H	0.574009	-0.376056	0.499145
H480	H	0.631916	-0.432312	0.518137
H481	H	0.600511	-0.359561	0.553289
H482	H	0.658417	-0.415819	0.572290
H483	H	0.580153	-0.233311	0.350246
O484	O	0.108337	-0.766068	0.633700
C485	C	0.089722	-0.798651	0.631048
H486	H	0.125166	-0.846487	0.644913
H487	H	0.064597	-0.772722	0.588166
C488	C	0.011916	-0.745897	0.650318
C489	C	0.055450	-0.804652	0.667352
H490	H	-0.009227	-0.749597	0.672710
H491	H	0.024456	-0.723943	0.652103
H492	H	-0.009015	-0.724296	0.614583
H493	H	0.076384	-0.826249	0.703083
H494	H	0.042913	-0.826610	0.665574
H495	H	-0.136781	-0.516317	0.633342
H496	H	0.305346	-0.286029	0.447654
O497	O	0.188388	0.385616	0.180582
C498	C	0.220812	0.324659	0.195379
H499	H	0.200643	0.319586	0.168757
H500	H	0.226866	0.291541	0.238773
C501	C	0.300071	0.315891	0.221585
C502	C	0.275301	0.309663	0.188884
H503	H	0.333683	0.306639	0.217581
H504	H	0.278226	0.356959	0.211618
H505	H	0.305111	0.288292	0.257743
H506	H	0.270256	0.337266	0.152726
H507	H	0.297147	0.268599	0.198844
O508	O	0.264314	-0.237350	0.105136
C509	C	0.315522	-0.291194	0.123752
H510	H	0.327931	-0.289735	0.088307
H511	H	0.314712	-0.333252	0.148878
C512	C	0.340552	-0.296960	0.201560
C513	C	0.355794	-0.295166	0.158025
H514	H	0.365393	-0.299412	0.222704
H515	H	0.306051	-0.260686	0.189020
H516	H	0.339877	-0.332009	0.222493
H517	H	0.356462	-0.260113	0.137090
H518	H	0.390296	-0.331434	0.170563
H519	H	0.260000	-0.233365	0.349935
H520	H	-0.136811	0.163296	-0.046866
O521	O	0.313538	-0.294457	0.056147
C522	C	0.347203	-0.284640	0.027300
H523	H	0.329061	-0.233262	0.000573
H524	H	0.351738	-0.302598	0.001674
C525	C	0.424640	-0.382164	0.099338
C526	C	0.402360	-0.319062	0.066514
H527	H	0.458665	-0.403399	0.123526
H528	H	0.401960	-0.388780	0.118772
H529	H	0.428415	-0.397121	0.077977
H530	H	0.398580	-0.304105	0.087875
H531	H	0.425042	-0.312445	0.047084
O532	O	0.157293	-0.864149	0.625623
C533	C	0.152435	-0.859250	0.577441
H534	H	0.184869	-0.855560	0.561560
H535	H	0.111569	-0.816423	0.546905
C536	C	0.118687	-0.921266	0.607020
C537	C	0.158525	-0.916740	0.587516
H538	H	0.122441	-0.956727	0.613233
H539	H	0.121957	-0.924565	0.639480
H540	H	0.084636	-0.885573	0.581570
H541	H	0.192575	-0.952428	0.612969
H542	H	0.155261	-0.913448	0.555060
H543	H	-0.234846	0.253959	0.050930
O544	O	-0.132987	0.159752	0.104458
C545	C	-0.168379	0.192492	0.122883
H546	H	-0.211189	0.215662	0.099659
H547	H	-0.162886	0.229012	0.116748
C548	C	-0.104052	0.119169	0.211193
C549	C	-0.156632	0.147622	0.182672
H550	H	-0.096805	0.091492	0.248074
H551	H	-0.080206	0.097112	0.198779
H552	H	-0.099481	0.149607	0.206075
H553	H	-0.161200	0.117184	0.187785
H554	H	-0.180478	0.169673	0.195088
H555	H	0.036960	-0.610115	0.646947
O556	O	0.157986	-0.139134	0.452293
C557	C	0.153227	-0.182537	0.495595
H558	H	0.185610	-0.230784	0.507642
H559	H	0.112331	-0.172184	0.483383
C560	C	0.119757	-0.119501	0.528323
C561	C	0.159532	-0.178759	0.543121
H562	H	0.123643	-0.117169	0.557639
H563	H	0.122960	-0.090258	0.499149
H564	H	0.085680	-0.110881	0.518146
H565	H	0.193607	-0.187376	0.553292
H566	H	0.156334	-0.208004	0.572299
H567	H	0.161523	-0.320559	0.626011
O568	O	0.032782	-0.458892	0.647044
C569	C	-0.019272	-0.441437	0.647245
H570	H	-0.020905	-0.482892	0.663656
H571	H	-0.048596	-0.403329	0.604796
C572	C	-0.032309	-0.366932	0.662482
C573	C	-0.034314	-0.417850	0.682642
H574	H	-0.041589	-0.352380	0.684314
H575	H	0.002760	-0.378690	0.662344
H576	H	-0.056745	-0.335182	0.627108
H577	H	-0.009873	-0.449601	0.718013
H578	H	-0.069379	-0.406096	0.682786
H579	H	0.259941	-0.770201	0.633342
O580	O	0.313102	-0.864433	0.625588
C581	C	0.312980	-0.859577	0.577421
H582	H	0.271292	-0.820977	0.546610
H583	H	0.324978	-0.904914	0.584720
C584	C	0.404157	-0.892579	0.594409
C585	C	0.352955	-0.845167	0.556565
H586	H	0.428817	-0.883693	0.581544
H587	H	0.404240	-0.895853	0.626861
H588	H	0.414147	-0.930356	0.600488
H589	H	0.342963	-0.807393	0.550491
H590	H	0.352872	-0.841886	0.524111
