data_functionalizedCrystal
_audit_creation_method	'MofGen! by Chris Wilmer'
_symmetry_space_group_name_H-M	'P1'
_symmetry_Int_Tables_number	1
_symmetry_cell_setting	triclinic
loop_
_symmetry_equiv_pos_as_xyz
  x,y,z
_cell_length_a	8.497374
_cell_length_b	10.686285
_cell_length_c	10.686220
_cell_angle_alpha	89.654569
_cell_angle_beta	94.365928
_cell_angle_gamma	94.373140
loop_
_atom_site_label
_atom_site_type_symbol
_atom_site_fract_x
_atom_site_fract_y
_atom_site_fract_z
Zn1	Zn	0.670936	-0.352260	-1.956019
Zn2	Zn	1.170936	0.147740	-1.456019
Zn3	Zn	0.385530	-0.561976	-1.972080
Zn4	Zn	0.885530	-0.061976	-1.472080
Zn5	Zn	0.425706	-0.368352	-1.746303
Zn6	Zn	0.925706	0.131648	-1.246303
Zn7	Zn	0.667804	-0.578080	-1.762345
Zn8	Zn	1.167804	-0.078080	-1.262345
O9	O	0.537494	-0.465167	-1.859187
O10	O	1.037494	0.034833	-1.359187
O11	O	0.617574	-0.366604	-2.133691
O12	O	1.117574	0.133396	-1.633691
O13	O	0.170096	-0.536286	-1.942138
O14	O	0.670096	-0.036286	-1.442138
O15	O	0.476361	-0.190679	-1.760688
O16	O	0.976361	0.309321	-1.260688
O17	O	0.407887	-0.520682	-2.145490
O18	O	0.907887	-0.020682	-1.645490
O19	O	0.656531	-0.178855	-1.914765
O20	O	1.156531	0.321145	-1.414765
O21	O	0.199614	-0.394032	-1.776261
O22	O	0.699614	0.105968	-1.276261
O23	O	0.473323	-0.409648	-1.572890
O24	O	0.973323	0.090352	-1.072890
O25	O	0.888982	-0.548130	-1.788028
O26	O	1.388982	-0.048130	-1.288028
O27	O	0.651192	-0.563734	-1.584676
O28	O	1.151192	-0.063734	-1.084676
O29	O	0.891283	-0.382220	-1.930319
O30	O	1.391283	0.117780	-1.430319
O31	O	0.404849	-0.739651	-1.957693
O32	O	0.904849	-0.239651	-1.457693
O33	O	0.612235	-0.751483	-1.803601
O34	O	1.112235	-0.251483	-1.303601
C35	C	0.566278	-0.490185	-1.533267
C36	C	1.066278	0.009815	-1.033267
C37	C	0.578626	-0.500919	-1.393839
C38	C	1.078626	-0.000919	-0.893839
C39	C	0.503874	-0.791080	-1.884165
C40	C	1.003874	-0.291080	-1.384165
C41	C	0.489534	-0.930498	-1.894965
C42	C	0.989534	-0.430498	-1.394965
C43	C	0.948975	-0.465170	-1.859177
C44	C	1.448975	0.034830	-1.359177
C45	C	1.127617	-0.465183	-1.859181
C46	C	1.627617	0.034817	-1.359181
C47	C	0.508598	-0.440052	-2.186379
C48	C	1.008598	0.059948	-1.686379
C49	C	0.496284	-0.429349	-2.325809
C50	C	0.996284	0.070651	-1.825809
C51	C	0.571276	-0.137979	-1.834145
C52	C	1.071276	0.362021	-1.334145
C53	C	0.585673	0.001449	-1.823474
C54	C	1.085673	0.501449	-1.323474
H55	H	0.678954	-0.950157	-1.754006
H56	H	1.178954	-0.450157	-1.254006
O57	O	0.400805	-0.346612	-1.383719
O58	O	0.900805	0.153388	-0.883719
C59	C	0.284757	-0.412139	-1.464948
C60	C	0.784757	0.087861	-0.964948
H61	H	0.328680	-0.505786	-1.491758
H62	H	0.828680	-0.005786	-0.991758
H63	H	0.260928	-0.354005	-1.553212
H64	H	0.760928	0.145995	-1.053212
H65	H	0.170825	-0.429611	-1.415560
H66	H	0.670825	0.070389	-0.915560
O67	O	0.673981	-0.583723	-1.335874
O68	O	1.173981	-0.083723	-0.835874
C69	C	0.665476	-0.576391	-1.204898
C70	C	1.165476	-0.076391	-0.704898
H71	H	0.625555	-0.480875	-1.179680
H72	H	1.125555	0.019125	-0.679680
H73	H	0.787096	-0.588843	-1.155693
H74	H	1.287096	-0.088843	-0.655693
H75	H	0.576902	-0.653523	-1.173411
H76	H	1.076902	-0.153523	-0.673411
H77	H	0.396237	-0.978900	-1.964429
H78	H	0.896237	-0.478900	-1.464429
