data_functionalizedCrystal
_audit_creation_method	'MofGen! by Chris Wilmer'
_symmetry_space_group_name_H-M	'P1'
_symmetry_Int_Tables_number	1
_symmetry_cell_setting	triclinic
loop_
_symmetry_equiv_pos_as_xyz
  x,y,z
_cell_length_a	29.839134
_cell_length_b	29.839131
_cell_length_c	29.839126
_cell_angle_alpha	90.021998
_cell_angle_beta	90.038073
_cell_angle_gamma	90.034165
loop_
_atom_site_label
_atom_site_type_symbol
_atom_site_fract_x
_atom_site_fract_y
_atom_site_fract_z
Zn1	Zn	0.686781	-0.178984	0.254153
Zn2	Zn	1.020114	0.154349	0.587486
Zn3	Zn	1.353447	0.487682	0.920820
Zn4	Zn	0.686695	-0.254102	0.179023
Zn5	Zn	1.020028	0.079231	0.512356
Zn6	Zn	1.353361	0.412565	0.845690
Zn7	Zn	0.611645	-0.178977	0.179019
Zn8	Zn	0.944979	0.154356	0.512353
Zn9	Zn	1.278312	0.487690	0.845686
Zn10	Zn	0.611611	-0.254078	0.254108
Zn11	Zn	0.944944	0.079255	0.587442
Zn12	Zn	1.278278	0.412588	0.920775
O13	O	0.649183	-0.216535	0.216576
O14	O	0.982516	0.116798	0.549909
O15	O	1.315850	0.450131	0.883243
O16	O	0.749636	-0.188961	0.244207
O17	O	1.082970	0.144372	0.577540
O18	O	1.416303	0.477705	0.910874
O19	O	0.676718	-0.244143	0.116155
O20	O	1.010051	0.089190	0.449489
O21	O	1.343384	0.422523	0.782822
O22	O	0.621663	-0.116111	0.189003
O23	O	0.954996	0.217222	0.522337
O24	O	1.288329	0.550556	0.855670
O25	O	0.749573	-0.244150	0.189009
O26	O	1.082907	0.089183	0.522343
O27	O	1.416240	0.422517	0.855676
O28	O	0.676864	-0.116116	0.244204
O29	O	1.010197	0.217217	0.577537
O30	O	1.343531	0.550551	0.910870
O31	O	0.621579	-0.188949	0.116153
O32	O	0.954913	0.144384	0.449486
O33	O	1.288246	0.477717	0.782819
O34	O	0.548774	-0.188927	0.188960
O35	O	0.882107	0.144407	0.522293
O36	O	1.215440	0.477740	0.855627
O37	O	0.621604	-0.244110	0.316981
O38	O	0.954938	0.089223	0.650315
O39	O	1.288271	0.422557	0.983648
O40	O	0.548749	-0.244103	0.244127
O41	O	0.882082	0.089230	0.577461
O42	O	1.215415	0.422563	0.910794
O43	O	0.676831	-0.188939	0.317014
O44	O	1.010164	0.144395	0.650348
O45	O	1.343498	0.477728	0.983681
O46	O	0.676684	-0.316966	0.188966
O47	O	1.010018	0.016367	0.522299
O48	O	1.343351	0.349701	0.855633
O49	O	0.621521	-0.316949	0.244131
O50	O	0.954854	0.016385	0.577464
O51	O	1.288188	0.349718	0.910797
C52	C	0.532460	-0.216512	0.216539
C53	C	0.865794	0.116821	0.549872
C54	C	1.199127	0.450155	0.883205
C55	C	0.482526	-0.216513	0.216534
C56	C	0.815859	0.116820	0.549867
C57	C	1.149193	0.450154	0.883200
C58	C	0.125939	-0.187763	0.187909
C59	C	0.459273	0.145571	0.521242
C60	C	0.792606	0.478904	0.854576
C61	C	0.313613	-0.187750	0.187882
C62	C	0.646946	0.145583	0.521215
C63	C	0.980279	0.478917	0.854548
O64	O	0.337878	-0.163267	0.163502
O65	O	0.671211	0.170066	0.496836
O66	O	1.004544	0.503400	0.830169
N67	N	0.337081	-0.216520	0.216556
N68	N	0.670414	0.116813	0.549889
N69	N	1.003748	0.450147	0.883223
C70	C	0.313628	-0.245294	0.245242
C71	C	0.646961	0.088040	0.578575
C72	C	0.980295	0.421373	0.911908
O73	O	0.337896	-0.269761	0.269634
O74	O	0.671229	0.063572	0.602967
O75	O	1.004562	0.396906	0.936300
C76	C	0.125956	-0.245304	0.245271
C77	C	0.459289	0.088030	0.578604
C78	C	0.792623	0.421363	0.911937
C79	C	0.102490	-0.216535	0.216591
C80	C	0.435823	0.116799	0.549925
C81	C	0.769157	0.450132	0.883258
C82	C	0.102473	-0.158996	0.159232
C83	C	0.435807	0.174338	0.492565
C84	C	0.769140	0.507671	0.825899
C85	C	0.055558	-0.159001	0.159237
C86	C	0.388891	0.174333	0.492571
C87	C	0.722225	0.507666	0.825904
C88	C	0.032109	-0.187773	0.187920
C89	C	0.365442	0.145560	0.521253
C90	C	0.698775	0.478894	0.854586
C91	C	0.055574	-0.216540	0.216597
C92	C	0.388908	0.116793	0.549930
C93	C	0.722241	0.450127	0.883263
C94	C	0.102504	-0.274075	0.273958
C95	C	0.435837	0.059259	0.607291
C96	C	0.769171	0.392592	0.940625
C97	C	0.055583	-0.274074	0.273964
C98	C	0.388916	0.059260	0.607297
C99	C	0.722250	0.392593	0.940630
C100	C	0.032117	-0.245305	0.245284
C101	C	0.365450	0.088029	0.578617
C102	C	0.698784	0.421362	0.911951
C103	C	-0.014790	-0.245317	0.245284
C104	C	0.318543	0.088016	0.578618
C105	C	0.651876	0.421349	0.911951
N106	N	-0.038259	-0.216547	0.216610
N107	N	0.295075	0.116786	0.549943
N108	N	0.628408	0.450120	0.883276
C109	C	-0.014809	-0.187775	0.187927
C110	C	0.318524	0.145559	0.521261
C111	C	0.651857	0.478892	0.854594
C112	C	0.412159	-0.245287	0.245224
C113	C	0.745492	0.088046	0.578557
C114	C	1.078825	0.421380	0.911890
C115	C	0.459077	-0.245285	0.245216
C116	C	0.792410	0.088048	0.578549
C117	C	1.125743	0.421382	0.911882
C118	C	0.459058	-0.187741	0.187856
C119	C	0.792391	0.145593	0.521190
C120	C	1.125724	0.478926	0.854523
C121	C	0.412139	-0.187745	0.187862
C122	C	0.745472	0.145588	0.521196
C123	C	1.078806	0.478922	0.854529
C124	C	0.388690	-0.216517	0.216549
C125	C	0.722024	0.116817	0.549882
C126	C	1.055357	0.450150	0.883216
C127	C	-0.113335	-0.187788	0.187941
C128	C	0.219998	0.145545	0.521274
C129	C	0.553332	0.478879	0.854607
C130	C	-0.160255	-0.187797	0.187947
C131	C	0.173079	0.145536	0.521281
C132	C	0.506412	0.478870	0.854614
C133	C	-0.160232	-0.245340	0.245308
C134	C	0.173101	0.087994	0.578641
C135	C	0.506435	0.421327	0.911975
C136	C	-0.113316	-0.245333	0.245300
C137	C	0.220017	0.088001	0.578633
C138	C	0.553350	0.421334	0.911967
C139	C	-0.089869	-0.216553	0.216615
C140	C	0.243464	0.116780	0.549948
C141	C	0.576798	0.450114	0.883281
O142	O	-0.039084	-0.269784	0.269654
O143	O	0.294249	0.063550	0.602988
O144	O	0.627582	0.396883	0.936321
O145	O	-0.039085	-0.163304	0.163546
O146	O	0.294248	0.170029	0.496879
O147	O	0.627582	0.503363	0.830213
C148	C	0.172855	-0.187757	0.187904
C149	C	0.506188	0.145576	0.521237
C150	C	0.839522	0.478909	0.854570
C151	C	0.196321	-0.216524	0.216580
C152	C	0.529654	0.116809	0.549914
C153	C	0.862988	0.450142	0.883247
C154	C	0.172871	-0.245296	0.245263
C155	C	0.506205	0.088037	0.578596
C156	C	0.839538	0.421370	0.911929
C157	C	0.243239	-0.216522	0.216573
C158	C	0.576572	0.116811	0.549906
C159	C	0.909905	0.450144	0.883239
C160	C	0.266688	-0.187750	0.187890
C161	C	0.600022	0.145583	0.521224
C162	C	0.933355	0.478916	0.854557
C163	C	0.243220	-0.158980	0.159216
C164	C	0.576553	0.174353	0.492549
C165	C	0.909887	0.507687	0.825883
C166	C	0.196304	-0.158985	0.159221
C167	C	0.529638	0.174348	0.492555
C168	C	0.862971	0.507682	0.825888
C169	C	0.196340	-0.274067	0.273937
C170	C	0.529673	0.059267	0.607271
C171	C	0.863006	0.392600	0.940604
C172	C	0.243255	-0.274060	0.273929
C173	C	0.576589	0.059274	0.607262
C174	C	0.909922	0.392607	0.940596
C175	C	0.266705	-0.245287	0.245247
C176	C	0.600038	0.088046	0.578580
C177	C	0.933371	0.421379	0.911914
C178	C	0.649102	-0.333258	0.216554
C179	C	0.982435	0.000075	0.549887
C180	C	1.315769	0.333409	0.883220
C181	C	0.649108	-0.383192	0.216559
C182	C	0.982442	-0.049859	0.549892
C183	C	1.315775	0.283474	0.883226
C184	C	0.677959	-0.692832	0.187894
C185	C	1.011292	-0.359499	0.521227
C186	C	1.344626	-0.026165	0.854560
C187	C	0.678014	-0.880505	0.187911
C188	C	1.011348	-0.547172	0.521244
C189	C	1.344681	-0.213838	0.854578
O190	O	0.702480	-0.904767	0.163521
O191	O	1.035813	-0.571434	0.496855
O192	O	1.369147	-0.238100	0.830188
N193	N	0.649276	-0.903977	0.216610
N194	N	0.982609	-0.570644	0.549943
N195	N	1.315943	-0.237311	0.883277
C196	C	0.620524	-0.880529	0.245308
C197	C	0.953857	-0.547195	0.578642
C198	C	1.287191	-0.213862	0.911975
O199	O	0.596085	-0.904799	0.269722
O200	O	0.929418	-0.571466	0.603056
O201	O	1.262752	-0.238133	0.936389
C202	C	0.620471	-0.692856	0.245293
C203	C	0.953805	-0.359523	0.578626
C204	C	1.287138	-0.026190	0.911960
C205	C	0.649208	-0.669387	0.216589
C206	C	0.982541	-0.336053	0.549922
C207	C	1.315875	-0.002720	0.883256
C208	C	0.706694	-0.669362	0.159192
C209	C	1.040027	-0.336029	0.492526
C210	C	1.373360	-0.002696	0.825859
C211	C	0.706678	-0.622447	0.159187
C212	C	1.040011	-0.289113	0.492520
C213	C	1.373345	0.044220	0.825853
C214	C	0.677927	-0.599001	0.187882
C215	C	1.011260	-0.265668	0.521215
C216	C	1.344594	0.067665	0.854549
C217	C	0.649192	-0.622471	0.216583
C218	C	0.982526	-0.289138	0.549917
C219	C	1.315859	0.044196	0.883250
C220	C	0.591722	-0.669408	0.273993
C221	C	0.925055	-0.336075	0.607327
C222	C	1.258388	-0.002742	0.940660
C223	C	0.591712	-0.622487	0.273988
C224	C	0.925045	-0.289154	0.607321
C225	C	1.258379	0.044179	0.940654
C226	C	0.620449	-0.599018	0.245284
C227	C	0.953782	-0.265684	0.578617
C228	C	1.287115	0.067649	0.911951
C229	C	0.620426	-0.552110	0.245273
C230	C	0.953759	-0.218777	0.578606
C231	C	1.287092	0.114557	0.911939
N232	N	0.649164	-0.528638	0.216574
N233	N	0.982497	-0.195304	0.549907
N234	N	1.315830	0.138029	0.883241
C235	C	0.677915	-0.552083	0.187879
C236	C	1.011248	-0.218750	0.521212
C237	C	1.344581	0.114583	0.854545
C238	C	0.620553	-0.979059	0.245314
C239	C	0.953887	-0.645726	0.578647
C240	C	1.287220	-0.312393	0.911981
C241	C	0.620566	-1.025977	0.245317
C242	C	0.953899	-0.692644	0.578651
C243	C	1.287232	-0.359310	0.911984
C244	C	0.678057	-1.025950	0.187920
C245	C	1.011390	-0.692617	0.521254
C246	C	1.344723	-0.359284	0.854587
C247	C	0.678042	-0.979032	0.187915
C248	C	1.011375	-0.645698	0.521248
C249	C	1.344708	-0.312365	0.854582
C250	C	0.649291	-0.955587	0.216615
C251	C	0.982625	-0.622254	0.549948
C252	C	1.315958	-0.288920	0.883282
C253	C	0.677879	-0.453558	0.187868
C254	C	1.011212	-0.120224	0.521202
C255	C	1.344545	0.213109	0.854535
C256	C	0.677859	-0.406638	0.187864
C257	C	1.011192	-0.073305	0.521197
C258	C	1.344526	0.260029	0.854530
C259	C	0.620370	-0.406669	0.245262
C260	C	0.953703	-0.073335	0.578595
C261	C	1.287037	0.259998	0.911929
C262	C	0.620388	-0.453584	0.245265
C263	C	0.953721	-0.120251	0.578599
C264	C	1.287054	0.213082	0.911932
C265	C	0.649146	-0.477027	0.216567
C266	C	0.982479	-0.143694	0.549900
C267	C	1.315813	0.189639	0.883233
O268	O	0.595976	-0.527819	0.269653
O269	O	0.929310	-0.194486	0.602987
O270	O	1.262643	0.138847	0.936320
O271	O	0.702357	-0.527804	0.163475
O272	O	1.035690	-0.194471	0.496809
O273	O	1.369024	0.138862	0.830142
C274	C	0.677975	-0.739748	0.187899
C275	C	1.011308	-0.406414	0.521233
C276	C	1.344641	-0.073081	0.854566
C277	C	0.649240	-0.763217	0.216601
C278	C	0.982573	-0.429884	0.549934
C279	C	1.315907	-0.096551	0.883267
C280	C	0.620489	-0.739772	0.245296
C281	C	0.953822	-0.406439	0.578629
C282	C	1.287156	-0.073105	0.911963
C283	C	0.649252	-0.810135	0.216604
C284	C	0.982586	-0.476802	0.549937
C285	C	1.315919	-0.143469	0.883271
C286	C	0.678003	-0.833581	0.187909
C287	C	1.011337	-0.500248	0.521242
C288	C	1.344670	-0.166914	0.854575
C289	C	0.706741	-0.810109	0.159210
C290	C	1.040075	-0.476775	0.492543
C291	C	1.373408	-0.143442	0.825876
C292	C	0.706726	-0.763193	0.159204
C293	C	1.040059	-0.429860	0.492537
C294	C	1.373392	-0.096526	0.825871
C295	C	0.591751	-0.763244	0.273995
C296	C	0.925084	-0.429911	0.607328
C297	C	1.258418	-0.096578	0.940662
C298	C	0.591769	-0.810160	0.273998
C299	C	0.925102	-0.476826	0.607331
C300	C	1.258435	-0.143493	0.940665
C301	C	0.620520	-0.833605	0.245303
C302	C	0.953853	-0.500272	0.578636
C303	C	1.287186	-0.166939	0.911969
C304	C	0.766361	-0.216559	0.216614
C305	C	1.099695	0.116774	0.549947
C306	C	1.433028	0.450107	0.883280
C307	C	0.816296	-0.216569	0.216630
C308	C	1.149629	0.116764	0.549963
C309	C	1.482962	0.450097	0.883296
C310	C	0.649223	-0.216523	0.333754
C311	C	0.982557	0.116811	0.667088
C312	C	1.315890	0.450144	1.000421
C313	C	0.649240	-0.216517	0.383689
C314	C	0.982574	0.116816	0.717022
C315	C	1.315907	0.450150	1.050355
C316	C	0.649277	-0.099357	0.216608
C317	C	0.982610	0.233976	0.549941
C318	C	1.315943	0.567310	0.883275
C319	C	0.649317	-0.049423	0.216622
C320	C	0.982650	0.283911	0.549955
C321	C	1.315983	0.617244	0.883289
C322	C	0.649169	-0.216516	0.099853
C323	C	0.982502	0.116818	0.433187
C324	C	1.315835	0.450151	0.766520
C325	C	0.649239	-0.216395	0.049919
C326	C	0.982572	0.116939	0.383253
C327	C	1.315905	0.450272	0.716586
C328	C	0.677945	-0.245197	0.740280
C329	C	1.011278	0.088137	1.073614
C330	C	1.344612	0.421470	1.406947
C331	C	0.677946	-0.245228	0.552607
C332	C	1.011279	0.088105	0.885941
C333	C	1.344612	0.421439	1.219274
O334	O	0.702347	-0.269683	0.528346
O335	O	1.035680	0.063651	0.861680
O336	O	1.369014	0.396984	1.195013
N337	N	0.649238	-0.216495	0.529134
N338	N	0.982572	0.116838	0.862467
N339	N	1.315905	0.450171	1.195801
C340	C	0.620527	-0.187755	0.552582
C341	C	0.953860	0.145578	0.885915
C342	C	1.287193	0.478911	1.219249
O343	O	0.596106	-0.163320	0.528310
O344	O	0.929440	0.170013	0.861643
O345	O	1.262773	0.503346	1.194977
C346	C	0.620524	-0.187727	0.740254
C347	C	0.953857	0.145607	1.073587
C348	C	1.287191	0.478940	1.406921
C349	C	0.649237	-0.216458	0.763725
C350	C	0.982570	0.116876	1.097058
C351	C	1.315903	0.450209	1.430392
C352	C	0.706655	-0.273926	0.763751
C353	C	1.039988	0.059408	1.097085
C354	C	1.373321	0.392741	1.430418
C355	C	0.706656	-0.273916	0.810667
C356	C	1.039989	0.059417	1.144000
C357	C	1.373323	0.392751	1.477333
C358	C	0.677947	-0.245177	0.834111
C359	C	1.011281	0.088156	1.167445
C360	C	1.344614	0.421490	1.500778
C361	C	0.649238	-0.216448	0.810640
C362	C	0.982571	0.116886	1.143974
C363	C	1.315904	0.450219	1.477307
C364	C	0.591811	-0.158989	0.763701
C365	C	0.925144	0.174344	1.097034
C366	C	1.258477	0.507678	1.430368
C367	C	0.591812	-0.158985	0.810622
C368	C	0.925145	0.174348	1.143955
C369	C	1.258478	0.507682	1.477289
C370	C	0.620524	-0.187716	0.834093
C371	C	0.953857	0.145617	1.167426
C372	C	1.287191	0.478950	1.500760
C373	C	0.620531	-0.187699	0.881000
C374	C	0.953864	0.145634	1.214334
C375	C	1.287197	0.478968	1.547667
N376	N	0.649238	-0.216431	0.904474
N377	N	0.982571	0.116902	1.237807
N378	N	1.315905	0.450235	1.571140
C379	C	0.677946	-0.245170	0.881029
C380	C	1.011280	0.088163	1.214363
C381	C	1.344613	0.421496	1.547696
C382	C	0.620531	-0.187772	0.454051
C383	C	0.953864	0.145562	0.787385
C384	C	1.287198	0.478895	1.120718
C385	C	0.620532	-0.187778	0.407133
C386	C	0.953865	0.145555	0.740467
C387	C	1.287199	0.478889	1.073800
C388	C	0.677950	-0.245252	0.407162
C389	C	1.011284	0.088082	0.740495
C390	C	1.344617	0.421415	1.073829
C391	C	0.677951	-0.245242	0.454081
C392	C	1.011285	0.088091	0.787414
C393	C	1.344618	0.421424	1.120747
C394	C	0.649238	-0.216504	0.477524
C395	C	0.982571	0.116829	0.810858
C396	C	1.315905	0.450163	1.144191
C397	C	0.677947	-0.245147	0.979555
C398	C	1.011280	0.088186	1.312888
C399	C	1.344614	0.421519	1.646222
C400	C	0.677947	-0.245134	1.026475
C401	C	1.011280	0.088200	1.359808
C402	C	1.344614	0.421533	1.693141
C403	C	0.620527	-0.187662	1.026442
C404	C	0.953861	0.145671	1.359775
C405	C	1.287194	0.479005	1.693109
C406	C	0.620529	-0.187674	0.979526
C407	C	0.953862	0.145659	1.312860
C408	C	1.287195	0.478993	1.646193
C409	C	0.649240	-0.216420	0.956084
C410	C	0.982573	0.116913	1.289417
C411	C	1.315907	0.450246	1.622751
O412	O	0.596139	-0.163260	0.905290
O413	O	0.929472	0.170073	1.238624
O414	O	1.262805	0.503406	1.571957
O415	O	0.702356	-0.269609	0.905309
O416	O	1.035690	0.063725	1.238642
O417	O	1.369023	0.397058	1.571976
C418	C	0.677944	-0.245206	0.693365
C419	C	1.011277	0.088127	1.026698
C420	C	1.344610	0.421460	1.360032
C421	C	0.649234	-0.216477	0.669894
C422	C	0.982567	0.116856	1.003227
C423	C	1.315901	0.450189	1.336561
C424	C	0.620526	-0.187738	0.693339
C425	C	0.953859	0.145595	1.026672
C426	C	1.287192	0.478928	1.360005
C427	C	0.649235	-0.216484	0.622976
C428	C	0.982568	0.116850	0.956310
C429	C	1.315902	0.450183	1.289643
C430	C	0.677944	-0.245223	0.599532
C431	C	1.011277	0.088111	0.932865
C432	C	1.344610	0.421444	1.266198
C433	C	0.706651	-0.273955	0.623005
C434	C	1.039984	0.059378	0.956338
C435	C	1.373318	0.392711	1.289672
C436	C	0.706652	-0.273945	0.669920
C437	C	1.039985	0.059388	1.003254
C438	C	1.373319	0.392721	1.336587
C439	C	0.591818	-0.159006	0.669865
C440	C	0.925152	0.174327	1.003199
C441	C	1.258485	0.507661	1.336532
C442	C	0.591820	-0.159018	0.622950
C443	C	0.925153	0.174316	0.956283
C444	C	1.258486	0.507649	1.289616
C445	C	0.620528	-0.187757	0.599505
C446	C	0.953861	0.145577	0.932839
C447	C	1.287195	0.478910	1.266172
H448	H	0.393036	-0.164317	0.164510
H449	H	0.726369	0.169016	0.497844
H450	H	1.059703	0.502350	0.831177
H451	H	0.730035	-0.297313	0.829773
H452	H	1.063368	0.036020	1.163106
H453	H	1.396702	0.369353	1.496439
N454	N	0.560735	-0.737963	0.304944
N455	N	0.894068	-0.404630	0.638278
N456	N	1.227401	-0.071297	0.971611
H457	H	0.539917	-0.718527	0.286660
H458	H	0.873251	-0.385194	0.619993
H459	H	1.206584	-0.051861	0.953326
H460	H	0.579002	-0.718495	0.325780
H461	H	0.912335	-0.385161	0.659113
H462	H	1.245668	-0.051828	0.992447
H463	H	0.393071	-0.268718	0.268585
H464	H	0.726404	0.064615	0.601918
H465	H	1.059738	0.397949	0.935251
N466	N	0.484350	-0.156699	0.156925
N467	N	0.817684	0.176635	0.490259
N468	N	1.151017	0.509968	0.823592
H469	H	0.476159	-0.163623	0.124812
H470	H	0.809493	0.169710	0.458146
H471	H	1.142826	0.503043	0.791479
H472	H	0.517625	-0.161076	0.161312
H473	H	0.850958	0.172258	0.494646
H474	H	1.184292	0.505591	0.827979
N475	N	0.589536	-0.953779	0.276268
N476	N	0.922870	-0.620445	0.609601
N477	N	1.256203	-0.287112	0.942934
H478	H	0.568720	-0.934340	0.257985
H479	H	0.902054	-0.601007	0.591318
H480	H	1.235387	-0.267673	0.924652
H481	H	0.607805	-0.934313	0.297105
H482	H	0.941138	-0.600979	0.630438
H483	H	1.274472	-0.267646	0.963771
N484	N	-0.185533	-0.276367	0.276243
N485	N	0.147800	0.056966	0.609577
N486	N	0.481134	0.390300	0.942910
H487	H	-0.177340	-0.269431	0.308353
H488	H	0.155993	0.063902	0.641687
H489	H	0.489326	0.397235	0.975020
H490	H	-0.177386	-0.308446	0.269175
H491	H	0.155948	0.024888	0.602508
H492	H	0.489281	0.358221	0.935841
N493	N	0.268562	-0.305095	0.304861
N494	N	0.601896	0.028239	0.638194
N495	N	0.935229	0.361572	0.971527
H496	H	0.246583	-0.323320	0.323030
H497	H	0.579917	0.010013	0.656364
H498	H	0.913250	0.343346	0.989697
H499	H	0.288053	-0.286834	0.325683
H500	H	0.621386	0.046499	0.659016
H501	H	0.954720	0.379832	0.992349
N502	N	0.127806	-0.305105	0.304891
N503	N	0.461139	0.028228	0.638224
N504	N	0.794473	0.361561	0.971557
H505	H	0.105825	-0.323328	0.323060
H506	H	0.439158	0.010005	0.656394
H507	H	0.772492	0.343339	0.989727
H508	H	0.147298	-0.286846	0.325712
H509	H	0.480631	0.046487	0.659046
H510	H	0.813965	0.379820	0.992379
N511	N	0.737681	-0.597138	0.128234
N512	N	1.071014	-0.263804	0.461567
N513	N	1.404347	0.069529	0.794901
H514	H	0.733315	-0.563857	0.132581
H515	H	1.066648	-0.230523	0.465915
H516	H	1.399981	0.102810	0.799248
H517	H	0.730709	-0.605362	0.096141
H518	H	1.064042	-0.272029	0.429475
H519	H	1.397375	0.061305	0.762808
H520	H	0.036493	-0.297502	0.297326
H521	H	0.369827	0.035831	0.630659
H522	H	0.703160	0.369165	0.963993
N523	N	0.708917	-0.276122	1.051790
N524	N	1.042251	0.057211	1.385123
N525	N	1.375584	0.390544	1.718456
H526	H	0.727102	-0.294330	1.029815
H527	H	1.060435	0.039003	1.363149
H528	H	1.393769	0.372336	1.696482
H529	H	0.690616	-0.296906	1.071241
H530	H	1.023949	0.036427	1.404574
H531	H	1.357282	0.369760	1.737907
N532	N	0.708860	-0.381326	0.156907
N533	N	1.042193	-0.047992	0.490241
N534	N	1.375527	0.285341	0.823574
H535	H	0.704489	-0.348045	0.161255
H536	H	1.037823	-0.014712	0.494589
H537	H	1.371156	0.318621	0.827922
H538	H	0.701887	-0.389550	0.124815
H539	H	1.035220	-0.056217	0.458148
H540	H	1.368554	0.277116	0.791482
H541	H	0.177252	-0.297497	0.297295
H542	H	0.510585	0.035837	0.630628
H543	H	0.843919	0.369170	0.963961
H544	H	0.730109	-0.688447	0.135825
H545	H	1.063442	-0.355113	0.469158
H546	H	1.396775	-0.021780	0.802492
N547	N	0.484384	-0.276321	0.276141
N548	N	0.817717	0.057012	0.609475
N549	N	1.151050	0.390346	0.942808
H550	H	0.462405	-0.294546	0.294312
H551	H	0.795738	0.038787	0.627645
H552	H	1.129072	0.372120	0.960978
H553	H	0.503878	-0.258065	0.296963
H554	H	0.837211	0.075269	0.630297
H555	H	1.170544	0.408602	0.963630
H556	H	0.730033	-0.297341	0.689026
H557	H	1.063366	0.035992	1.022360
H558	H	1.396699	0.369325	1.355693
H559	H	0.597155	-0.164273	0.960415
H560	H	0.930488	0.169061	1.293749
H561	H	1.263821	0.502394	1.627082
H562	H	0.701442	-0.959925	0.164542
H563	H	1.034775	-0.626592	0.497875
H564	H	1.368109	-0.293259	0.831209
H565	H	0.568439	-0.135604	0.688949
H566	H	0.901772	0.197730	1.022282
H567	H	1.235106	0.531063	1.355616
H568	H	0.177203	-0.135558	0.135868
H569	H	0.510536	0.197775	0.469201
H570	H	0.843869	0.531109	0.802534
H571	H	0.597161	-1.045082	0.268687
H572	H	0.930494	-0.711749	0.602020
H573	H	1.263828	-0.378416	0.935353
H574	H	0.701467	-1.045048	0.164556
H575	H	1.034800	-0.711714	0.497889
H576	H	1.368134	-0.378381	0.831222
N577	N	0.708896	-0.478839	0.156916
N578	N	1.042229	-0.145505	0.490250
N579	N	1.375562	0.187828	0.823583
H580	H	0.727094	-0.456846	0.138735
H581	H	1.060427	-0.123512	0.472068
H582	H	1.393761	0.209821	0.805402
H583	H	0.690626	-0.498332	0.136106
H584	H	1.023959	-0.164998	0.469439
H585	H	1.357292	0.168335	0.802773
H586	H	0.568319	-0.688510	0.297365
H587	H	0.901652	-0.355176	0.630698
H588	H	1.234986	-0.021843	0.964032
H589	H	0.568429	-0.135594	0.744599
H590	H	0.901762	0.197740	1.077932
H591	H	1.235096	0.531073	1.411266
N592	N	-0.088003	-0.276366	0.276227
N593	N	0.245330	0.056967	0.609560
N594	N	0.578663	0.390301	0.942893
H595	H	-0.109980	-0.294595	0.294396
H596	H	0.223354	0.038738	0.627729
H597	H	0.556687	0.372072	0.961062
H598	H	-0.068514	-0.258106	0.297049
H599	H	0.264820	0.075228	0.630382
H600	H	0.598153	0.408561	0.963716
H601	H	0.262321	-0.135554	0.135860
H602	H	0.595654	0.197779	0.469194
H603	H	0.928987	0.531113	0.802527
N604	N	0.737747	-0.835405	0.128258
N605	N	1.071081	-0.502072	0.461591
N606	N	1.404414	-0.168738	0.794925
H607	H	0.758561	-0.854844	0.146544
H608	H	1.091894	-0.521510	0.479877
H609	H	1.425228	-0.188177	0.813211
H610	H	0.755923	-0.813395	0.110078
H611	H	1.089256	-0.480062	0.443411
H612	H	1.422590	-0.146728	0.776744
H613	H	0.568301	-0.603401	0.297360
H614	H	0.901634	-0.270068	0.630694
H615	H	1.234967	0.063266	0.964027
H616	H	0.596989	-0.472694	0.268640
H617	H	0.930323	-0.139361	0.601973
H618	H	1.263656	0.193972	0.935306
H619	H	0.596960	-0.387572	0.268624
H620	H	0.930293	-0.054239	0.601958
H621	H	1.263627	0.279095	0.935291
H622	H	0.730126	-0.744087	0.135831
H623	H	1.063459	-0.410754	0.469164
H624	H	1.396793	-0.077421	0.802497
H625	H	0.568364	-0.829265	0.297372
H626	H	0.901697	-0.495932	0.630705
H627	H	1.235030	-0.162598	0.964038
H628	H	0.701330	-0.268552	0.960474
H629	H	1.034663	0.064781	1.293807
H630	H	1.367996	0.398114	1.627141
N631	N	0.737620	-0.304927	0.738469
N632	N	1.070954	0.028407	1.071803
N633	N	1.404287	0.361740	1.405136
H634	H	0.755804	-0.323122	0.760465
H635	H	1.089138	0.010211	1.093798
H636	H	1.422471	0.343544	1.427131
H637	H	0.758428	-0.286647	0.719023
H638	H	1.091761	0.046687	1.052356
H639	H	1.425094	0.380020	1.385690
N640	N	0.708919	-0.276231	0.479394
N641	N	1.042252	0.057103	0.812727
N642	N	1.375585	0.390436	1.146061
H643	H	0.727105	-0.294435	0.457418
H644	H	1.060438	0.038898	0.790752
H645	H	1.393771	0.372231	1.124085
H646	H	0.690617	-0.297018	0.498842
H647	H	1.023950	0.036316	0.832175
H648	H	1.357283	0.369649	1.165508
H649	H	0.701327	-0.268651	0.388065
H650	H	1.034660	0.064682	0.721399
H651	H	1.367993	0.398015	1.054732
H652	H	0.597157	-0.164377	0.388027
H653	H	0.930490	0.168956	0.721361
H654	H	1.263823	0.502289	1.054694
N655	N	0.589560	-0.156773	0.479334
N656	N	0.922893	0.176560	0.812667
N657	N	1.256227	0.509893	1.146001
H658	H	0.571378	-0.138574	0.457340
H659	H	0.904711	0.194759	0.790674
H660	H	1.238044	0.528092	1.124007
H661	H	0.607861	-0.135981	0.498818
H662	H	0.941194	0.197352	0.832151
H663	H	1.274527	0.530685	1.165484
N664	N	0.560840	-0.127990	0.835908
N665	N	0.894173	0.205344	1.169241
N666	N	1.227507	0.538677	1.502574
H667	H	0.542653	-0.109792	0.813917
H668	H	0.875987	0.223541	1.147250
H669	H	1.209320	0.556874	1.480583
H670	H	0.579141	-0.107196	0.855390
H671	H	0.912474	0.226137	1.188724
H672	H	1.245807	0.559470	1.522057
H673	H	0.597155	-0.164262	1.045539
H674	H	0.930488	0.169071	1.378872
H675	H	1.263821	0.502404	1.712206
N676	N	0.737617	-0.304950	0.597713
N677	N	1.070951	0.028383	0.931046
N678	N	1.404284	0.361716	1.264380
H679	H	0.733203	-0.300646	0.564430
H680	H	1.066536	0.032687	0.897764
H681	H	1.399869	0.366021	1.231097
H682	H	0.730651	-0.337030	0.605957
H683	H	1.063984	-0.003697	0.939290
H684	H	1.397318	0.329637	1.272623
H685	H	0.568439	-0.135617	0.603844
H686	H	0.901773	0.197716	0.937177
H687	H	1.235106	0.531050	1.270510
H688	H	-0.094250	-0.164351	0.164584
H689	H	0.239083	0.168982	0.497918
H690	H	0.572417	0.502316	0.831251
N691	N	-0.185563	-0.156768	0.157011
N692	N	0.147771	0.176566	0.490344
N693	N	0.481104	0.509899	0.823678
H694	H	-0.177377	-0.124678	0.164044
H695	H	0.155957	0.208656	0.497378
H696	H	0.489290	0.541989	0.830711
H697	H	-0.218836	-0.161174	0.161378
H698	H	0.114498	0.172159	0.494711
H699	H	0.447831	0.505492	0.828044
N700	N	0.030257	-0.127966	0.128305
N701	N	0.363591	0.205368	0.461639
N702	N	0.696924	0.538701	0.794972
H703	H	0.038451	-0.095879	0.135344
H704	H	0.371785	0.237455	0.468677
H705	H	0.705118	0.570788	0.802011
H706	H	-0.003017	-0.132364	0.132669
H707	H	0.330316	0.200969	0.466002
H708	H	0.663650	0.534303	0.799336
N709	N	0.127761	-0.127955	0.128298
N710	N	0.461094	0.205378	0.461632
N711	N	0.794428	0.538711	0.794965
H712	H	0.105769	-0.109734	0.110137
H713	H	0.439103	0.223600	0.443471
H714	H	0.772436	0.556933	0.776804
H715	H	0.147201	-0.146208	0.107468
H716	H	0.480534	0.187126	0.440802
H717	H	0.813867	0.520459	0.774135
