data_functionalizedCrystal
_audit_creation_method	'MofGen! by Chris Wilmer'
_symmetry_space_group_name_H-M	'P1'
_symmetry_Int_Tables_number	1
_symmetry_cell_setting	triclinic
loop_
_symmetry_equiv_pos_as_xyz
  x,y,z
_cell_length_a	10.654554
_cell_length_b	10.654551
_cell_length_c	7.088929
_cell_angle_alpha	83.718726
_cell_angle_beta	96.265603
_cell_angle_gamma	84.486053
loop_
_atom_site_label
_atom_site_type_symbol
_atom_site_fract_x
_atom_site_fract_y
_atom_site_fract_z
O1	O	1.655064	0.189218	-0.158916
O2	O	1.289585	0.206019	-0.158931
O3	O	1.480727	0.014879	-0.158924
O4	O	1.463923	0.380357	-0.158923
O5	O	1.506271	-0.010723	0.159052
O6	O	1.315129	0.180417	0.159045
O7	O	1.680608	0.163616	0.159061
Cu8	Cu	1.500201	0.169679	0.188086
Cu9	Cu	1.469992	0.199956	-0.187957
O10	O	1.489466	0.354755	0.159053
C11	C	1.255559	0.191984	0.000055
C12	C	1.116116	0.188290	0.000048
C13	C	1.492264	-0.044719	0.000060
C14	C	1.488571	-0.184161	0.000047
C15	C	0.905609	0.297361	0.000066
C16	C	1.036629	0.300835	0.000051
C17	C	1.064574	0.072266	0.000041
C18	C	0.933555	0.068795	0.000042
C19	C	0.826130	0.409912	0.000088
C20	C	0.877662	0.525936	0.000092
C21	C	1.008682	0.529410	0.000078
C22	C	1.088170	0.416858	0.000059
C23	C	1.472915	-0.235718	-0.173279
C24	C	1.469436	-0.366739	-0.173270
C25	C	1.497274	-0.394637	0.173405
C26	C	1.500745	-0.263617	0.173394
C27	C	1.460741	-0.156262	-0.346626
C28	C	1.445086	-0.207818	-0.519966
C29	C	1.441606	-0.338839	-0.519957
C30	C	1.453782	-0.418304	-0.346609
C31	C	1.714634	0.177651	0.000070
C32	C	1.854076	0.181346	0.000064
C33	C	1.477929	0.414354	0.000065
C34	C	1.481621	0.553797	0.000066
N35	N	1.521457	0.148382	0.452575
N36	N	1.448746	0.221243	-0.452446
H37	H	0.719446	0.407096	0.000108
H38	H	1.373390	0.296747	0.465905
H39	H	1.513466	-0.221637	0.314531
H40	H	1.507188	-0.459348	0.314537
H41	H	1.596827	0.072882	0.534234
C42	C	1.449921	-0.562420	-0.346602
H43	H	1.438848	-0.581747	-0.474657
H44	H	1.381161	-0.588248	-0.282585
H45	H	1.527387	-0.606174	-0.282583
C46	C	0.790232	0.649732	0.000107
H47	H	0.704822	0.631050	0.000133
H48	H	0.797047	0.706189	-0.110777
H49	H	0.814880	0.688324	0.111007
H50	H	1.050634	0.623883	0.000064
C51	C	1.232290	0.420674	0.000033
H52	H	1.272244	0.337030	0.000016
H53	H	1.265685	0.454742	0.110911
H54	H	1.247849	0.472593	-0.110874
H55	H	1.463576	-0.049577	-0.346653
H56	H	0.891597	-0.025674	0.000038
C57	C	1.152009	-0.051529	0.000044
H58	H	1.237421	-0.032847	0.000063
H59	H	1.127373	-0.090133	-0.110838
H60	H	1.145187	-0.107978	0.110947
H61	H	1.435161	-0.143107	-0.661099
H62	H	1.428846	-0.380810	-0.661098
