data_functionalizedCrystal
_audit_creation_method	'MofGen! by Chris Wilmer'
_symmetry_space_group_name_H-M	'P1'
_symmetry_Int_Tables_number	1
_symmetry_cell_setting	triclinic
loop_
_symmetry_equiv_pos_as_xyz
  x,y,z
_cell_length_a	19.288864
_cell_length_b	14.519709
_cell_length_c	17.766277
_cell_angle_alpha	89.992699
_cell_angle_beta	89.976791
_cell_angle_gamma	83.408195
loop_
_atom_site_label
_atom_site_type_symbol
_atom_site_fract_x
_atom_site_fract_y
_atom_site_fract_z
O1	O	0.921767	0.115045	-0.062837
O2	O	1.421767	0.615045	0.437163
O3	O	0.719562	0.130564	-0.062786
O4	O	1.219562	0.630564	0.437214
O5	O	0.826026	-0.011468	-0.062806
O6	O	1.326026	0.488532	0.437194
O7	O	0.815304	0.257077	-0.062817
O8	O	1.315304	0.757077	0.437183
O9	O	0.826007	-0.011475	0.062382
O10	O	1.326007	0.488525	0.562382
O11	O	0.719544	0.130557	0.062402
O12	O	1.219544	0.630557	0.562402
O13	O	0.921748	0.115038	0.062351
O14	O	1.421748	0.615038	0.562351
Cu15	Cu	0.820644	0.122797	0.073808
Cu16	Cu	1.320644	0.622797	0.573808
Cu17	Cu	0.820666	0.122805	-0.074242
Cu18	Cu	1.320666	0.622805	0.425758
O19	O	0.815285	0.257070	0.062371
O20	O	1.315285	0.757070	0.562371
C21	C	0.693675	0.130061	-0.000185
C22	C	1.193675	0.630061	0.499815
C23	C	0.616566	0.128562	-0.000165
C24	C	1.116566	0.628562	0.499835
C25	C	0.572169	0.211900	-0.000181
C26	C	1.072169	0.711900	0.499819
C27	C	0.499717	0.210492	-0.000189
C28	C	0.999717	0.710492	0.499811
C29	C	0.471665	0.125741	-0.000197
C30	C	0.971665	0.625741	0.499803
C31	C	0.516071	0.042392	-0.000178
C32	C	1.016071	0.542392	0.499822
C33	C	0.588521	0.043803	-0.000162
C34	C	1.088521	0.543803	0.499838
C35	C	0.363169	0.059120	-0.044079
C36	C	0.863169	0.559120	0.455921
C37	C	0.290720	0.057713	-0.044099
C38	C	0.790720	0.557713	0.455901
C39	C	0.248203	0.121387	-0.000242
C40	C	0.748203	0.621387	0.499758
C41	C	0.278144	0.186483	0.043625
C42	C	0.778144	0.686483	0.543625
C43	C	0.350594	0.187894	0.043641
C44	C	0.850594	0.687894	0.543641
C45	C	0.393105	0.124202	-0.000214
C46	C	0.893105	0.624202	0.499786
C47	C	0.125246	0.203203	-0.000265
C48	C	0.625246	0.703203	0.499735
C49	C	0.052792	0.201792	-0.000269
C50	C	0.552792	0.701792	0.499731
C51	C	0.069148	0.033689	-0.000265
C52	C	0.569148	0.533689	0.499735
C53	C	0.141599	0.035103	-0.000254
C54	C	0.641599	0.535103	0.499746
C55	C	0.169644	0.119863	-0.000258
C56	C	0.669644	0.619863	0.499742
C57	C	0.825517	-0.045828	-0.000212
C58	C	1.325517	0.454172	0.499788
C59	C	0.824019	-0.148200	-0.000211
C60	C	1.324019	0.351800	0.499789
C61	C	0.818507	-0.523061	-0.000229
C62	C	1.318507	-0.023061	0.499771
C63	C	0.820037	-0.418762	-0.000224
C64	C	1.320037	0.081238	0.499776
C65	C	0.821263	-0.335633	-0.000219
C66	C	1.321263	0.164367	0.499781
C67	C	0.822794	-0.231329	-0.000215
C68	C	1.322794	0.268671	0.499785
C69	C	0.947636	0.115541	-0.000251
C70	C	1.447636	0.615541	0.499749
C71	C	1.024745	0.117040	-0.000276
C72	C	1.524745	0.617040	0.499724
C73	C	0.815794	0.291430	-0.000225
C74	C	1.315794	0.791430	0.499775
C75	C	0.817291	0.393802	-0.000230
C76	C	1.317291	0.893802	0.499770
N77	N	0.820634	0.122790	0.177938
N78	N	1.320634	0.622790	0.677938
N79	N	0.820682	0.122805	-0.178373
N80	N	1.320682	0.622805	0.321627
C81	C	0.867791	0.059929	0.217316
C82	C	1.367791	0.559929	0.717316
C83	C	0.867795	0.059925	0.296118
C84	C	1.367795	0.559925	0.796118
C85	C	0.820648	0.122798	0.335538
C86	C	1.320648	0.622798	0.835538
C87	C	0.773482	0.185664	0.296151
C88	C	1.273482	0.685664	0.796151
C89	C	0.773475	0.185660	0.217351
C90	C	1.273475	0.685660	0.717351
C91	C	0.811652	0.206826	0.460375
C92	C	1.311652	0.706826	0.960375
C93	C	0.811664	0.206831	0.539173
C94	C	1.311664	0.706831	1.039173
C95	C	0.820667	0.122809	0.578585
C96	C	1.320667	0.622809	1.078585
C97	C	0.829672	0.038778	0.539188
C98	C	1.329672	0.538778	1.039188
C99	C	0.829665	0.038775	0.460387
C100	C	1.329665	0.538775	0.960387
C101	C	0.820651	0.122808	0.420984
C102	C	1.320651	0.622808	0.920984
C103	C	0.867831	0.059938	0.703409
C104	C	1.367831	0.559938	1.203409
C105	C	0.867830	0.059932	0.782212
C106	C	1.367830	0.559932	1.282212
C107	C	0.773521	0.185679	0.782244
C108	C	1.273521	0.685679	1.282244
C109	C	0.773518	0.185676	0.703442
C110	C	1.273518	0.685676	1.203442
C111	C	0.820677	0.122807	0.664029
C112	C	1.320677	0.622807	1.164029
H113	H	0.374969	0.240895	0.079362
H114	H	0.874969	0.740895	0.579362
H115	H	0.804309	0.275251	0.428292
H116	H	1.304309	0.775251	0.928292
H117	H	0.906229	0.008743	0.671318
H118	H	1.406229	0.508743	1.171318
N119	N	0.725323	0.249875	0.336426
N120	N	1.225323	0.749875	0.836426
N121	N	0.725336	0.249870	0.406783
N122	N	1.225336	0.749870	0.906783
H123	H	0.691319	0.295218	0.435228
H124	H	1.191319	0.795218	0.935228
H125	H	0.463563	0.278358	-0.000199
H126	H	0.963563	0.778358	0.499801
H127	H	0.177748	-0.032760	-0.000246
H128	H	0.677748	0.467240	0.499754
H129	H	0.624670	-0.024063	-0.000150
H130	H	1.124670	0.475937	0.499850
H131	H	0.266348	0.004711	-0.079822
H132	H	0.766348	0.504711	0.420178
N133	N	0.007430	0.286916	-0.000280
N134	N	0.507430	0.786916	0.499720
N135	N	-0.057257	0.285646	-0.000285
N136	N	0.442743	0.785646	0.499715
H137	H	-0.089296	0.345766	-0.000289
H138	H	0.410704	0.845766	0.499711
N139	N	0.915984	-0.004296	0.822450
N140	N	1.415984	0.495704	1.322450
N141	N	0.915971	-0.004304	0.892807
N142	N	1.415971	0.495696	1.392807
H143	H	0.949973	-0.049675	0.921227
H144	H	1.449973	0.450325	1.421227
H145	H	0.148080	0.272220	-0.000257
H146	H	0.648080	0.772220	0.499743
N147	N	0.234730	0.251560	0.088408
N148	N	0.734730	0.751560	0.588408
N149	N	0.188866	0.306919	0.057749
N150	N	0.688866	0.806919	0.557749
H151	H	0.158204	0.352888	0.089370
H152	H	0.658204	0.852888	0.589370
H153	H	0.046308	-0.035317	-0.000319
H154	H	0.546308	0.464683	0.499681
N155	N	0.406586	-0.005941	-0.088877
N156	N	0.906586	0.494059	0.411123
N157	N	0.379848	-0.064052	-0.128043
N158	N	0.879848	0.435948	0.371957
H159	H	0.410509	-0.110002	-0.159679
H160	H	0.910509	0.389998	0.340321
H161	H	0.493226	-0.026613	-0.000195
H162	H	0.993226	0.473387	0.499805
H163	H	0.906189	0.008735	0.185228
H164	H	1.406189	0.508735	0.685228
N165	N	0.915970	-0.004298	0.336341
N166	N	1.415970	0.495702	0.836341
N167	N	0.958068	-0.060428	0.301142
N168	N	1.458068	0.439572	0.801142
H169	H	0.992092	-0.105786	0.329547
H170	H	1.492092	0.394214	0.829547
H171	H	0.735130	0.236867	0.814340
H172	H	1.235130	0.736867	1.314340
N173	N	0.725296	0.249878	0.177135
N174	N	1.225296	0.749878	0.677135
N175	N	0.683198	0.306006	0.212336
N176	N	1.183198	0.806006	0.712336
H177	H	0.649171	0.351362	0.183933
H178	H	1.149171	0.851362	0.683933
H179	H	0.836996	-0.029646	0.428314
H180	H	1.336996	0.470354	0.928314
H181	H	0.837003	-0.029641	0.571275
H182	H	1.337003	0.470359	1.071275
H183	H	0.735121	0.236867	0.671378
H184	H	1.235121	0.736867	1.171378
H185	H	0.804336	0.275253	0.571244
H186	H	1.304336	0.775253	1.071244
H187	H	0.594998	0.280918	-0.000185
H188	H	1.094998	0.780918	0.499815
