data_functionalizedCrystal
_audit_creation_method	'MofGen! by Chris Wilmer'
_symmetry_space_group_name_H-M	'P1'
_symmetry_Int_Tables_number	1
_symmetry_cell_setting	triclinic
loop_
_symmetry_equiv_pos_as_xyz
  x,y,z
_cell_length_a	18.101398
_cell_length_b	18.101397
_cell_length_c	11.169409
_cell_angle_alpha	89.960119
_cell_angle_beta	89.971029
_cell_angle_gamma	90.018196
loop_
_atom_site_label
_atom_site_type_symbol
_atom_site_fract_x
_atom_site_fract_y
_atom_site_fract_z
Zn1	Zn	1.132206	-0.294814	-0.678773
Zn2	Zn	1.132116	-0.418681	-0.478063
Zn3	Zn	1.008356	-0.294853	-0.478075
Zn4	Zn	1.008339	-0.418614	-0.678676
O5	O	1.070254	-0.356740	-0.578397
O6	O	1.235827	-0.311258	-0.652184
O7	O	1.115669	-0.402299	-0.310115
O8	O	1.024830	-0.191215	-0.504743
O9	O	1.235761	-0.402262	-0.504723
O10	O	1.115822	-0.191187	-0.652195
O11	O	1.024743	-0.311323	-0.310124
O12	O	0.904721	-0.311258	-0.504650
O13	O	1.024801	-0.402147	-0.846639
O14	O	0.904708	-0.402184	-0.652030
O15	O	1.115806	-0.311192	-0.846710
O16	O	1.115652	-0.522305	-0.504629
O17	O	1.024713	-0.522255	-0.652019
C18	C	0.877844	-0.356719	-0.578332
C19	C	0.795530	-0.356727	-0.578332
C20	C	0.644821	-0.356742	-0.578386
C21	C	0.613451	-0.299452	-0.485813
C22	C	0.527833	-0.299236	-0.486116
C23	C	0.496439	-0.356757	-0.578437
C24	C	0.527581	-0.335912	-0.705066
C25	C	0.613225	-0.335488	-0.704501
C26	C	0.613231	-0.435026	-0.545447
C27	C	0.527579	-0.434614	-0.542687
C28	C	0.412579	-0.356767	-0.578474
C29	C	0.728681	-0.356731	-0.578358
C30	C	1.070191	-0.549151	-0.578339
C31	C	1.070232	-0.631465	-0.578354
C32	C	1.070326	-0.930556	-0.578463
C33	C	1.127383	-0.899231	-0.485481
C34	C	1.127580	-0.813612	-0.485722
C35	C	1.070279	-0.782173	-0.578408
C36	C	1.091441	-0.813169	-0.704918
C37	C	1.091882	-0.898814	-0.704412
C38	C	0.991956	-0.899065	-0.546030
C39	C	0.992343	-0.813416	-0.543206
C40	C	1.070252	-0.698314	-0.578384
C41	C	1.070356	-1.014415	-0.578495
C42	C	1.263416	-0.356763	-0.578463
C43	C	1.345730	-0.356772	-0.578491
C44	C	1.070311	-0.356658	-0.891439
C45	C	1.070336	-0.356623	-1.024839
C46	C	1.070338	-0.163578	-0.578481
C47	C	1.070374	-0.081264	-0.578517
C48	C	1.070240	-0.356769	-0.266572
C49	C	1.070360	-0.356595	-0.133173
H50	H	0.634989	-0.241773	-0.507401
H51	H	0.949445	-0.919322	-0.613752
H52	H	1.051155	-0.792801	-0.776061
C53	C	0.498708	-0.495339	-0.627083
N54	N	0.476962	-0.541075	-0.690660
C55	C	0.640240	-0.258193	-0.742105
N56	N	0.660584	-0.199972	-0.770424
C57	C	0.641279	-0.316761	-0.358587
N58	N	0.662267	-0.329783	-0.262765
H59	H	1.114303	-0.919883	-0.391395
H60	H	0.976387	-0.793166	-0.450104
C61	C	0.642351	-0.460735	-0.422777
N62	N	0.664283	-0.480090	-0.330377
H63	H	0.507361	-0.241233	-0.507986
H64	H	0.506773	-0.312242	-0.392238
H65	H	0.947544	-0.792022	-0.605969
C66	C	1.169275	-0.925725	-0.741510
N67	N	1.227570	-0.945990	-0.769448
C68	C	1.167968	-0.784120	-0.742656
N69	N	1.225611	-0.762243	-0.771073
C70	C	0.641269	-0.389426	-0.800916
N71	N	0.662388	-0.430045	-0.873543
C72	C	0.500112	-0.390562	-0.800833
N73	N	0.479420	-0.431725	-0.872964
C74	C	0.498622	-0.259479	-0.743353
N75	N	0.476808	-0.201910	-0.772187
H76	H	0.633516	-0.477706	-0.612873
C77	C	1.205378	-0.928247	-0.514120
N78	N	1.264123	-0.950108	-0.535688
C79	C	0.500071	-0.455861	-0.416791
N80	N	0.479347	-0.471863	-0.321966
H81	H	1.114341	-0.792660	-0.391917
C82	C	1.206008	-0.785856	-0.514706
N83	N	1.265083	-0.764951	-0.536537
C84	C	1.038187	-0.926805	-0.801209
N85	N	0.997750	-0.947885	-0.874123
H86	H	0.972705	-0.920734	-0.455377
