data_functionalizedCrystal
_audit_creation_method	'MofGen! by Chris Wilmer'
_symmetry_space_group_name_H-M	'P1'
_symmetry_Int_Tables_number	1
_symmetry_cell_setting	triclinic
loop_
_symmetry_equiv_pos_as_xyz
  x,y,z
_cell_length_a	12.594517
_cell_length_b	12.594516
_cell_length_c	12.594509
_cell_angle_alpha	90.027875
_cell_angle_beta	90.011478
_cell_angle_gamma	90.007702
loop_
_atom_site_label
_atom_site_type_symbol
_atom_site_fract_x
_atom_site_fract_y
_atom_site_fract_z
Zn1	Zn	1.627298	-0.423827	0.601583
Zn2	Zn	1.627202	-0.601837	0.423606
Zn3	Zn	1.449302	-0.423860	0.423642
Zn4	Zn	1.449297	-0.601751	0.601566
O5	O	1.538275	-0.512819	0.512599
O6	O	1.776231	-0.447463	0.577965
O7	O	1.603565	-0.578278	0.274665
O8	O	1.472956	-0.274910	0.447269
O9	O	1.776161	-0.578246	0.447206
O10	O	1.603729	-0.274886	0.578001
O11	O	1.472863	-0.447519	0.274692
O12	O	1.300356	-0.447436	0.447253
O13	O	1.472948	-0.578099	0.750514
O14	O	1.300352	-0.578131	0.577973
O15	O	1.603724	-0.447379	0.750527
O16	O	1.603561	-0.750772	0.447190
O17	O	1.472855	-0.750708	0.577937
C18	C	1.261734	-0.512779	0.512615
C19	C	1.143429	-0.512787	0.512648
C20	C	1.074204	-0.584011	0.583609
C21	C	1.003389	-0.486966	0.609786
C22	C	1.003445	-0.609913	0.486446
C23	C	1.074171	-0.415689	0.538876
C24	C	1.074234	-0.538702	0.415491
C25	C	1.003450	-0.441589	0.441632
C26	C	1.538226	-0.789360	0.512581
C27	C	1.538302	-0.907665	0.512608
C28	C	1.609475	-0.976914	0.441571
C29	C	1.635486	-1.047613	0.538716
C30	C	1.512424	-1.047766	0.415525
C31	C	1.564362	-0.976805	0.609804
C32	C	1.441256	-0.976952	0.486548
C33	C	1.467229	-1.047619	0.583760
C34	C	1.815896	-0.512860	0.512584
C35	C	1.934201	-0.512878	0.512577
C36	C	1.538346	-0.512726	0.790220
C37	C	1.538377	-0.512686	0.908526
C38	C	1.538354	-0.235198	0.512641
C39	C	1.538387	-0.116893	0.512659
C40	C	1.538265	-0.512835	0.236058
C41	C	1.538441	-0.512575	0.117753
C42	C	1.467270	-0.583744	0.977772
C43	C	1.564392	-0.609757	1.048546
C44	C	1.441330	-0.486608	1.048551
C45	C	1.635550	-0.538750	0.977741
C46	C	1.512422	-0.415556	0.977740
C47	C	1.609612	-0.441532	1.048482
H48	H	1.105109	-0.333565	0.561100
C49	C	0.961459	-0.720816	0.456554
H50	H	0.985694	-0.771297	0.507072
H51	H	0.886042	-0.719883	0.456114
H52	H	0.986757	-0.739697	0.388044
H53	H	1.586203	-0.945769	0.691998
C54	C	1.116315	-0.568309	0.304573
H55	H	1.092143	-0.637344	0.286085
H56	H	1.091036	-0.518451	0.253959
H57	H	1.191736	-0.567423	0.305253
H58	H	1.669841	-0.381393	1.079334
H59	H	1.407077	-1.078469	0.643925
H60	H	1.717593	-1.078653	0.560787
H61	H	1.669674	-0.945868	0.381551
C62	C	0.961734	-0.360186	0.360527
H63	H	0.986082	-0.291286	0.379289
H64	H	0.987064	-0.377974	0.291744
H65	H	0.886309	-0.361063	0.360534
C66	C	1.330374	-0.934976	0.456694
H67	H	1.312060	-0.959230	0.387638
H68	H	1.279665	-0.960237	0.506468
H69	H	1.330998	-0.859553	0.457530
C70	C	1.482800	-1.089865	0.304588
H71	H	1.533410	-1.065642	0.254189
H72	H	1.482405	-1.165282	0.305553
H73	H	1.414314	-1.064621	0.285570
C74	C	1.386102	-0.665042	0.935820
H75	H	1.404744	-0.733983	0.960066
H76	H	1.317315	-0.647233	0.961106
H77	H	1.386193	-0.664078	0.860397
C78	C	1.594094	-0.720651	1.090573
H79	H	1.543481	-0.771099	1.066370
H80	H	1.662568	-0.739628	1.065288
H81	H	1.594531	-0.719644	1.165995
C82	C	1.746503	-0.568563	0.935908
H83	H	1.745797	-0.568440	0.860479
H84	H	1.797040	-0.518337	0.960699
H85	H	1.765115	-0.637305	0.960725
C86	C	1.482688	-0.304690	0.935682
H87	H	1.539487	-0.277484	0.894184
H88	H	1.420620	-0.309779	0.893116
H89	H	1.469622	-0.258401	0.993806
C90	C	1.330429	-0.456865	1.090572
H91	H	1.335275	-0.394041	1.132073
H92	H	1.283834	-0.445098	1.032438
H93	H	1.303767	-0.513113	1.133146
H94	H	1.105274	-0.644128	0.643695
H95	H	0.972270	-0.465078	0.691919
