data_functionalizedCrystal
_audit_creation_method	'MofGen! by Chris Wilmer'
_symmetry_space_group_name_H-M	'P1'
_symmetry_Int_Tables_number	1
_symmetry_cell_setting	triclinic
loop_
_symmetry_equiv_pos_as_xyz
  x,y,z
_cell_length_a	8.497374
_cell_length_b	8.497374
_cell_length_c	12.594517
_cell_angle_alpha	89.999107
_cell_angle_beta	90.004279
_cell_angle_gamma	90.004389
loop_
_atom_site_label
_atom_site_type_symbol
_atom_site_fract_x
_atom_site_fract_y
_atom_site_fract_z
Zn1	Zn	0.892197	0.628325	1.627199
Zn2	Zn	0.628462	0.892074	1.627189
Zn3	Zn	0.628414	0.628301	1.449255
Zn4	Zn	0.892184	0.892056	1.449231
O5	O	0.760314	0.760189	1.538218
O6	O	0.857237	0.663329	1.776143
O7	O	0.407694	0.857082	1.603592
O8	O	0.663391	0.407542	1.472874
O9	O	0.663473	0.857105	1.776136
O10	O	0.857190	0.407559	1.603608
O11	O	0.407658	0.663289	1.472865
O12	O	0.663378	0.663271	1.300306
O13	O	1.112948	0.857073	1.472833
O14	O	0.857169	0.857050	1.300289
O15	O	1.112957	0.663311	1.603585
O16	O	0.663460	1.112834	1.603568
O17	O	0.857215	1.112820	1.472823
C18	C	0.760268	0.760157	1.261677
C19	C	0.760285	0.760182	1.143372
C20	C	1.350434	0.760214	1.538225
C21	C	1.171790	0.760207	1.538214
C22	C	0.760337	1.170069	1.538205
C23	C	0.760311	1.348713	1.538233
C24	C	0.655084	0.654641	1.074098
C25	C	0.616313	0.798530	1.003320
C26	C	0.799083	0.616364	1.003351
C27	C	0.721439	0.904146	1.074152
C28	C	0.904276	0.721883	1.074190
C29	C	0.865560	0.865871	1.003444
C30	C	0.760362	0.760222	1.815839
C31	C	0.760382	0.760236	1.934145
H32	H	0.494584	0.830957	0.972191
O33	O	1.065438	0.678876	1.115523
H34	H	1.153061	0.765318	1.086014
H35	H	0.831803	0.494733	0.972196
H36	H	0.566008	0.565477	1.105121
O37	O	0.983459	0.984256	0.962602
H38	H	1.073639	0.922905	0.914119
H39	H	0.688530	1.025829	1.105122
