data_functionalizedCrystal
_audit_creation_method	'MofGen! by Chris Wilmer'
_symmetry_space_group_name_H-M	'P1'
_symmetry_Int_Tables_number	1
_symmetry_cell_setting	triclinic
loop_
_symmetry_equiv_pos_as_xyz
  x,y,z
_cell_length_a	9.065218
_cell_length_b	10.654550
_cell_length_c	9.130313
_cell_angle_alpha	90.005476
_cell_angle_beta	90.002394
_cell_angle_gamma	84.750394
loop_
_atom_site_label
_atom_site_type_symbol
_atom_site_fract_x
_atom_site_fract_y
_atom_site_fract_z
O1	O	0.207234	1.668657	0.121914
O2	O	0.226978	1.303257	0.121889
O3	O	0.002422	1.493510	0.121899
O4	O	0.431790	1.478405	0.121904
O5	O	0.002416	1.493503	-0.121700
O6	O	0.226972	1.303250	-0.121709
O7	O	0.207228	1.668650	-0.121685
Cu8	Cu	0.217100	1.485949	-0.143940
Cu9	Cu	0.217107	1.485958	0.144144
O10	O	0.431784	1.478397	-0.121695
C11	C	0.225525	1.256450	0.000087
C12	C	0.221188	1.116989	0.000078
C13	C	0.353403	1.038027	0.000101
C14	C	0.349319	0.906990	0.000126
C15	C	0.080793	0.933890	0.000112
C16	C	0.084879	1.064925	0.000076
C17	C	0.508434	1.022496	0.000115
C18	C	0.504350	0.891459	0.000141
C19	C	-0.052559	1.492055	0.000102
C20	C	-0.216378	1.487714	0.000109
C21	C	0.486766	1.479852	0.000106
C22	C	0.650585	1.484193	0.000108
C23	C	0.208681	1.715457	0.000120
C24	C	0.213018	1.854918	0.000139
N25	N	0.217094	1.485952	-0.346563
C26	C	0.126770	1.408775	-0.423244
C27	C	0.126777	1.408778	-0.576581
C28	C	0.307435	1.563145	-0.576541
C29	C	0.307434	1.563134	-0.423207
C30	C	0.022464	1.319657	-0.423269
C31	C	0.022471	1.319660	-0.576606
N32	N	0.217101	1.485965	0.346767
H33	H	0.557801	1.058350	0.105288
C34	C	-0.069134	0.876614	0.000124
H35	H	-0.052634	0.787265	0.000157
H36	H	-0.123635	0.903593	-0.084828
H37	H	-0.123623	0.903636	0.085080
C38	C	0.406793	1.648045	-0.660854
H39	H	0.393853	1.637004	-0.763157
H40	H	0.507492	1.625853	-0.635720
H41	H	0.380308	1.733670	-0.635712
H42	H	-0.093883	1.350126	-0.618222
C43	C	0.084875	1.192072	-0.640884
H44	H	0.112683	1.135257	-0.563403
H45	H	0.169105	1.203740	-0.699503
H46	H	0.011252	1.158477	-0.699385
C47	C	-0.127713	1.372172	-0.358998
H48	H	-0.122627	1.370287	-0.255081
H49	H	-0.202799	1.321992	-0.391240
H50	H	-0.150381	1.456572	-0.391005
H51	H	-0.022783	1.129212	0.000036
C52	C	0.071468	1.186048	-0.367062
H53	H	0.071456	1.186048	-0.263009
H54	H	0.168418	1.160648	-0.401737
H55	H	0.004742	1.129025	-0.401747
C56	C	0.590335	1.062457	-0.137601
H57	H	0.593117	1.151376	-0.137609
H58	H	0.539835	1.037771	-0.222556
H59	H	0.688599	1.022888	-0.137580
C60	C	0.567638	0.829997	-0.141922
H61	H	0.598658	0.893299	-0.205201
H62	H	0.493407	0.787220	-0.189126
H63	H	0.649919	0.771563	-0.119076
H64	H	0.380997	1.625968	-0.360778
C65	C	0.583063	0.835409	0.137976
H66	H	0.618212	0.901278	0.194641
H67	H	0.664192	0.777683	0.109839
H68	H	0.515269	0.792708	0.194527
