data_functionalizedCrystal
_audit_creation_method	'MofGen! by Chris Wilmer'
_symmetry_space_group_name_H-M	'P1'
_symmetry_Int_Tables_number	1
_symmetry_cell_setting	triclinic
loop_
_symmetry_equiv_pos_as_xyz
  x,y,z
_cell_length_a	19.288864
_cell_length_b	10.268362
_cell_length_c	11.792253
_cell_angle_alpha	89.989159
_cell_angle_beta	96.332579
_cell_angle_gamma	90.018431
loop_
_atom_site_label
_atom_site_type_symbol
_atom_site_fract_x
_atom_site_fract_y
_atom_site_fract_z
O1	O	0.922157	0.108734	-0.141581
O2	O	0.720005	0.108647	-0.160680
O3	O	0.825982	0.108666	0.014114
O4	O	0.816180	0.108716	-0.316374
O5	O	0.825973	-0.107935	0.014121
O6	O	0.719996	-0.107953	-0.160673
O7	O	0.922147	-0.107867	-0.141574
Cu8	Cu	0.821071	-0.127687	-0.151122
Cu9	Cu	0.821082	0.128468	-0.151131
O10	O	0.816170	-0.107885	-0.316367
C11	C	0.694120	0.000335	-0.160062
C12	C	0.617006	0.000301	-0.158217
N13	N	0.821068	-0.307853	-0.151116
C14	C	0.572895	0.000337	-0.260778
C15	C	0.500438	0.000351	-0.259045
C16	C	0.472095	0.000355	-0.154745
C17	C	0.516216	0.000312	-0.052170
C18	C	0.588671	0.000285	-0.053906
C19	C	0.363369	0.076272	-0.072756
C20	C	0.290914	0.076307	-0.071024
C21	C	0.248619	0.000433	-0.149386
C22	C	0.278786	-0.075458	-0.229499
C23	C	0.351241	-0.075486	-0.231235
C24	C	0.393531	0.000384	-0.152851
C25	C	0.125942	0.000483	-0.250075
C26	C	0.053484	0.000489	-0.248337
C27	C	0.069263	0.000463	-0.041460
C28	C	0.141719	0.000444	-0.043200
C29	C	0.170054	0.000460	-0.147511
C30	C	0.821078	-0.573524	-0.151129
C31	C	0.821070	-0.425686	-0.151125
C32	C	0.948032	0.000448	-0.142192
C33	C	1.025146	0.000491	-0.144036
C34	C	0.825360	0.000361	0.056399
C35	C	0.823511	0.000348	0.182384
N36	N	0.821090	0.308634	-0.151128
C37	C	0.822010	0.000341	0.284697
C38	C	0.820132	0.000338	0.413056
C39	C	0.816792	0.000395	0.641348
C40	C	0.818641	0.000336	0.515363
H41	H	0.595960	0.000353	-0.345715
Cl42	Cl	-0.001972	0.000527	-0.377283
H43	H	0.244351	-0.137243	-0.293308
H44	H	0.149013	0.000477	-0.335010
Cl45	Cl	0.033639	0.000453	0.089662
H46	H	0.177636	0.000422	0.040316
Cl47	Cl	0.252997	0.171726	0.029677
Cl48	Cl	0.389164	-0.170894	-0.331938
Cl49	Cl	0.416533	0.171665	0.025766
Cl50	Cl	0.480586	0.000310	0.078950
H51	H	0.464516	0.000377	-0.342565
Cl52	Cl	0.644128	0.000241	0.075038
