data_functionalizedCrystal
_audit_creation_method	'MofGen! by Chris Wilmer'
_symmetry_space_group_name_H-M	'P1'
_symmetry_Int_Tables_number	1
_symmetry_cell_setting	triclinic
loop_
_symmetry_equiv_pos_as_xyz
  x,y,z
_cell_length_a	13.033293
_cell_length_b	25.639239
_cell_length_c	13.032268
_cell_angle_alpha	97.141717
_cell_angle_beta	89.079182
_cell_angle_gamma	97.207729
loop_
_atom_site_label
_atom_site_type_symbol
_atom_site_fract_x
_atom_site_fract_y
_atom_site_fract_z
Zn1	Zn	1.498347	-0.162669	-0.781445
Zn2	Zn	1.520037	-0.237808	-0.609454
Zn3	Zn	1.348210	-0.159908	-0.587621
Zn4	Zn	1.326273	-0.259604	-0.759489
O5	O	1.423217	-0.204997	-0.684502
O6	O	1.645149	-0.164670	-0.776955
O7	O	1.515502	-0.217197	-0.462652
O8	O	1.368229	-0.087106	-0.613383
O9	O	1.661084	-0.219874	-0.650595
O10	O	1.478535	-0.089135	-0.755785
O11	O	1.389261	-0.159964	-0.446611
O12	O	1.201375	-0.181099	-0.592094
O13	O	1.330841	-0.257023	-0.906308
O14	O	1.185258	-0.254345	-0.718365
O15	O	1.457263	-0.185805	-0.922438
O16	O	1.494231	-0.313867	-0.629305
O17	O	1.351873	-0.329881	-0.739535
C18	C	1.155999	-0.219788	-0.650478
C19	C	1.041679	-0.226130	-0.635947
C20	C	0.982814	-0.201700	-0.692086
C21	C	0.864658	-0.208255	-0.677069
C22	C	1.423050	-0.340846	-0.684433
C23	C	1.423068	-0.398960	-0.684450
C24	C	1.497500	-0.750964	-0.627239
C25	C	1.497538	-0.805568	-0.627258
O26	O	1.560650	-0.826704	-0.578541
N27	N	1.423389	-0.841231	-0.684593
C28	C	1.349203	-0.822289	-0.741922
O29	O	1.286138	-0.857638	-0.790692
C30	C	1.349170	-0.767687	-0.741908
C31	C	1.423318	-0.732026	-0.684561
C32	C	1.571642	-0.715304	-0.569898
C33	C	1.571603	-0.660704	-0.569877
C34	C	1.497421	-0.641766	-0.627199
C35	C	1.423278	-0.677427	-0.684541
C36	C	1.274990	-0.748747	-0.799242
C37	C	1.274964	-0.694140	-0.799224
C38	C	1.349112	-0.658479	-0.741876
C39	C	1.349057	-0.603889	-0.741842
N40	N	1.423206	-0.568225	-0.684507
C41	C	1.497388	-0.587164	-0.627185
C42	C	1.349279	-0.936957	-0.741947
C43	C	1.349306	-0.991558	-0.741956
C44	C	1.497642	-0.974832	-0.627294
C45	C	1.497610	-0.920230	-0.627280
C46	C	1.423428	-0.901293	-0.684612
C47	C	1.497299	-0.472502	-0.627147
C48	C	1.497250	-0.417899	-0.627128
C49	C	1.348917	-0.434629	-0.741795
C50	C	1.348962	-0.489228	-0.741809
C51	C	1.423162	-0.508162	-0.684483
O52	O	1.285980	-0.582714	-0.790538
O53	O	1.560451	-0.551810	-0.578434
C54	C	1.691478	-0.190149	-0.718660
C55	C	1.805795	-0.183821	-0.733215
C56	C	1.389186	-0.224153	-0.952729
C57	C	1.374684	-0.232316	-1.067032
C58	C	1.423410	-0.068618	-0.684598
C59	C	1.423492	-0.010501	-0.684638
C60	C	1.430769	-0.200719	-1.125973
C61	C	1.415782	-0.209155	-1.244110
C62	C	1.457175	-0.185875	-0.417326
C63	C	1.471876	-0.177553	-0.303049
H64	H	0.827585	-0.234023	-0.617882
O65	O	1.276999	-0.416200	-0.797605
C66	C	1.327071	-0.386068	-0.871481
H67	H	1.407262	-0.398458	-0.888209
H68	H	1.334657	-0.342223	-0.840121
C69	C	1.164701	-0.380425	-0.951400
C70	C	1.263191	-0.395646	-0.971952
H71	H	1.125296	-0.386331	-1.013374
H72	H	1.130966	-0.400724	-0.901627
H73	H	1.171038	-0.343889	-0.925264
H74	H	1.256854	-0.432184	-0.998075
H75	H	1.296924	-0.375354	-1.021733
H76	H	1.315564	-0.265611	-1.104030
H77	H	1.288919	-1.020590	-0.788643
O78	O	1.569314	-0.383207	-0.571570
C79	C	1.628257	-0.352092	-0.638613
H80	H	1.582031	-0.351489	-0.711885
H81	H	1.703038	-0.369684	-0.659687
C82	C	1.710846	-0.295895	-0.494405
C83	C	1.654066	-0.295151	-0.584396
H84	H	1.726771	-0.260772	-0.460962
H85	H	1.671138	-0.316859	-0.449236
H86	H	1.773157	-0.310558	-0.511980
H87	H	1.591752	-0.280495	-0.566819
H88	H	1.693764	-0.274184	-0.629561
H89	H	1.019893	-0.175931	-0.751263
H90	H	0.842868	-0.158049	-0.792395
O91	O	0.997391	-0.256942	-0.565485
C92	C	0.927788	-0.298345	-0.616066
H93	H	0.949969	-0.305634	-0.701143
H94	H	0.845965	-0.286919	-0.609397
C95	C	0.905080	-0.340208	-0.460906
C96	C	0.932329	-0.349163	-0.565398
H97	H	0.907877	-0.371554	-0.429650
H98	H	0.951970	-0.312313	-0.426827
H99	H	0.836897	-0.330685	-0.455363
H100	H	1.000515	-0.358679	-0.570939
H101	H	0.885450	-0.377061	-0.599477
O102	O	1.277104	-0.918653	-0.797654
C103	C	1.211689	-0.961843	-0.848277
H104	H	1.213541	-0.997959	-0.805707
H105	H	1.239378	-0.971117	-0.931199
C106	C	1.098051	-0.903352	-0.901349
C107	C	1.100320	-0.947709	-0.849059
H108	H	1.029354	-0.894633	-0.901837
H109	H	1.142124	-0.874253	-0.867247
H110	H	1.121130	-0.911086	-0.970446
H111	H	1.077253	-0.939972	-0.779961
H112	H	1.056240	-0.976806	-0.883150
H113	H	1.530988	-0.144251	-1.266055
O114	O	1.501178	-0.160929	-1.081873
C115	C	1.475497	-0.111916	-1.105241
H116	H	1.389610	-0.115921	-1.124381
H117	H	1.522818	-0.099611	-1.174541
C118	C	1.605028	-0.064672	-0.987789
C119	C	1.499538	-0.069589	-1.011289
H120	H	1.619861	-0.038561	-0.929838
H121	H	1.622333	-0.097692	-0.972048
H122	H	1.644450	-0.054419	-1.045547
H123	H	1.460118	-0.079847	-0.953537
H124	H	1.482227	-0.036569	-1.027019
H125	H	1.557721	-0.487911	-0.580469
O126	O	1.643741	-0.626140	-0.514162
C127	C	1.709202	-0.654574	-0.463563
H128	H	1.707390	-0.696300	-0.506152
H129	H	1.681528	-0.656917	-0.380642
C130	C	1.822766	-0.574857	-0.410468
C131	C	1.820547	-0.626104	-0.462782
H132	H	1.891448	-0.557294	-0.409981
H133	H	1.778662	-0.555699	-0.444554
H134	H	1.799699	-0.576816	-0.341372
H135	H	1.843600	-0.624144	-0.531880
H136	H	1.864657	-0.645261	-0.428708
O137	O	1.203034	-0.675721	-0.855045
C138	C	1.253085	-0.645588	-0.928931
H139	H	1.333282	-0.657969	-0.945663
H140	H	1.260654	-0.601742	-0.897579
C141	C	1.090698	-0.639970	-1.008839
C142	C	1.189195	-0.655180	-1.029396
H143	H	1.051286	-0.645884	-1.070810
H144	H	1.056977	-0.660269	-0.959058
H145	H	1.097020	-0.603433	-0.982711
H146	H	1.182872	-0.691718	-1.055511
H147	H	1.222913	-0.634887	-1.079184
O148	O	1.643853	-0.733704	-0.514410
C149	C	1.702807	-0.765743	-0.581505
H150	H	1.698715	-0.754721	-0.663301
H151	H	1.670659	-0.809161	-0.580945
C152	C	1.821186	-0.770517	-0.444593
C153	C	1.816167	-0.756976	-0.545056
H154	H	1.891110	-0.765111	-0.422108
H155	H	1.781466	-0.748933	-0.399388
H156	H	1.794390	-0.806697	-0.444140
H157	H	1.842950	-0.720795	-0.545505
H158	H	1.855894	-0.778553	-0.590260
O159	O	1.569725	-0.993325	-0.571786
C160	C	1.553865	-1.049165	-0.584127
H161	H	1.509960	-1.064146	-0.659117
H162	H	1.507001	-1.063395	-0.516080
C163	C	1.713078	-1.052306	-0.496122
C164	C	1.659161	-1.070705	-0.588231
H165	H	1.778028	-1.065594	-0.498649
H166	H	1.723762	-1.014686	-0.487804
H167	H	1.674014	-1.064165	-0.439426
H168	H	1.698219	-1.058841	-0.644924
H169	H	1.648486	-1.108325	-0.596559
O170	O	1.202920	-0.783308	-0.855047
C171	C	1.137438	-0.754871	-0.905614
H172	H	1.179092	-0.713850	-0.914543
H173	H	1.064134	-0.750742	-0.857955
C174	C	1.057501	-0.835182	-1.002202
C175	C	1.108665	-0.784801	-1.013176
H176	H	1.039748	-0.853644	-1.068549
H177	H	1.101614	-0.854341	-0.968131
H178	H	0.996421	-0.831734	-0.962482
H179	H	1.169750	-0.788249	-1.052883
H180	H	1.064561	-0.765643	-1.047256
O181	O	1.345335	-0.248873	-1.288407
C182	C	1.346043	-0.248450	-1.396498
H183	H	1.423603	-0.227962	-1.421182
H184	H	1.281234	-0.226147	-1.419237
C185	C	1.234335	-0.330956	-1.420194
C186	C	1.329598	-0.305796	-1.450512
H187	H	1.224186	-0.366330	-1.453514
H188	H	1.233854	-0.331241	-1.347371
H189	H	1.180338	-0.312365	-1.439145
H190	H	1.383594	-0.324384	-1.431550
H191	H	1.330088	-0.305516	-1.523334
H192	H	1.557987	-0.891197	-0.580584
H193	H	1.288588	-0.518265	-0.788509
