data_functionalizedCrystal
_audit_creation_method	'MofGen! by Chris Wilmer'
_symmetry_space_group_name_H-M	'P1'
_symmetry_Int_Tables_number	1
_symmetry_cell_setting	triclinic
loop_
_symmetry_equiv_pos_as_xyz
  x,y,z
_cell_length_a	18.050591
_cell_length_b	18.050590
_cell_length_c	18.050582
_cell_angle_alpha	90.023337
_cell_angle_beta	90.020922
_cell_angle_gamma	90.014558
loop_
_atom_site_label
_atom_site_type_symbol
_atom_site_fract_x
_atom_site_fract_y
_atom_site_fract_z
Zn1	Zn	1.135342	-0.295786	0.420027
Zn2	Zn	1.135274	-0.419969	0.295836
Zn3	Zn	1.011162	-0.295789	0.295839
Zn4	Zn	1.011131	-0.419930	0.419971
O5	O	1.073227	-0.357868	0.357918
O6	O	1.239258	-0.312274	0.403576
O7	O	1.118795	-0.403514	0.191912
O8	O	1.027676	-0.191864	0.312337
O9	O	1.239208	-0.403511	0.312332
O10	O	1.118911	-0.191862	0.403578
O11	O	1.027610	-0.312279	0.191914
O12	O	0.907233	-0.312241	0.312283
O13	O	1.027623	-0.403444	0.523903
O14	O	0.907210	-0.403447	0.403482
O15	O	1.118881	-0.312236	0.523945
O16	O	1.118765	-0.523888	0.312278
O17	O	1.027557	-0.523860	0.403480
C18	C	0.880275	-0.357841	0.357877
C19	C	0.797729	-0.357847	0.357877
C20	C	1.073170	-0.550820	0.357889
C21	C	1.073214	-0.633366	0.357901
C22	C	0.598269	-0.308191	0.308397
C23	C	0.548861	-0.375927	0.290120
C24	C	0.646599	-0.357869	0.357911
C25	C	0.548925	-0.290157	0.376186
C26	C	0.500614	-0.357885	0.357942
C27	C	0.598278	-0.425641	0.339598
C28	C	0.598346	-0.339825	0.425696
C29	C	0.548961	-0.407607	0.407445
C30	C	0.730697	-0.357859	0.357891
C31	C	0.416517	-0.357903	0.357962
C32	C	1.122916	-0.832806	0.308375
C33	C	1.141051	-0.882145	0.376157
C34	C	1.073256	-0.784497	0.357930
C35	C	1.055196	-0.882238	0.290179
C36	C	1.073298	-0.930482	0.357953
C37	C	1.091426	-0.832749	0.425748
C38	C	1.005539	-0.832838	0.339725
C39	C	1.023649	-0.882155	0.407554
C40	C	1.073233	-0.700398	0.357916
C41	C	1.073320	-1.014578	0.357975
C42	C	1.266933	-0.357897	0.357960
C43	C	1.349479	-0.357909	0.357978
C44	C	1.073256	-0.357835	0.551624
C45	C	1.073269	-0.357821	0.634170
C46	C	1.073305	-0.164163	0.357964
C47	C	1.073338	-0.081617	0.357984
C48	C	1.073241	-0.357848	0.164966
C49	C	1.073372	-0.357652	0.082421
C50	C	1.023681	-0.407353	0.833598
C51	C	1.091439	-0.425511	0.882996
C52	C	1.073305	-0.357765	0.785300
C53	C	1.005584	-0.339586	0.882984
C54	C	1.073335	-0.357711	0.931285
C55	C	1.141099	-0.375958	0.833611
C56	C	1.055199	-0.290002	0.833594
C57	C	1.123004	-0.308134	0.882970
C58	C	1.073287	-0.357797	0.701202
C59	C	1.073360	-0.357679	1.015382
H60	H	0.527126	-0.391201	0.232809
N61	N	1.217001	-0.396383	0.805013
H62	H	1.216516	-0.396298	0.749061
H63	H	1.230756	-0.447369	0.823474
N64	N	1.216926	-0.910848	0.396570
H65	H	1.213354	-0.941612	0.443158
H66	H	1.251449	-0.867680	0.405318
H67	H	1.039846	-0.232736	0.811878
H68	H	1.165031	-0.266177	0.904511
H69	H	0.619866	-0.482928	0.324091
N70	N	1.111755	-0.501384	0.911742
H71	H	1.074231	-0.538829	0.893787
H72	H	1.112101	-0.500612	0.967688
H73	H	0.948301	-0.324232	0.904672
H74	H	0.981754	-0.449342	0.811921
N75	N	1.111769	-0.804086	0.501681
H76	H	1.111649	-0.748135	0.501199
H77	H	1.162757	-0.822511	0.515509
H78	H	0.527446	-0.449673	0.449330
H79	H	0.527208	-0.232894	0.391604
N80	N	0.626957	-0.252603	0.252879
H81	H	0.608955	-0.266341	0.201699
H82	H	0.682903	-0.252682	0.253660
N83	N	0.627173	-0.319572	0.501586
H84	H	0.608455	-0.356562	0.539147
H85	H	0.609249	-0.268367	0.515271
N86	N	1.178555	-0.804097	0.252917
H87	H	1.229710	-0.822032	0.266779
H88	H	1.177747	-0.748151	0.252990
H89	H	0.981672	-0.903687	0.449520
H90	H	0.948271	-0.811161	0.324291
H91	H	1.039904	-0.903976	0.232873
