data_functionalizedCrystal
_audit_creation_method	'MofGen! by Chris Wilmer'
_symmetry_space_group_name_H-M	'P1'
_symmetry_Int_Tables_number	1
_symmetry_cell_setting	triclinic
loop_
_symmetry_equiv_pos_as_xyz
  x,y,z
_cell_length_a	17.077404
_cell_length_b	19.805405
_cell_length_c	17.077396
_cell_angle_alpha	89.968350
_cell_angle_beta	89.980499
_cell_angle_gamma	90.026635
loop_
_atom_site_label
_atom_site_type_symbol
_atom_site_fract_x
_atom_site_fract_y
_atom_site_fract_z
Zn1	Zn	1.200035	-0.269459	-0.443825
Zn2	Zn	1.199934	-0.382652	-0.312552
Zn3	Zn	1.068767	-0.269483	-0.312573
Zn4	Zn	1.068727	-0.382612	-0.443776
O5	O	1.134366	-0.326052	-0.378182
O6	O	1.309869	-0.284481	-0.426424
O7	O	1.182509	-0.367667	-0.202708
O8	O	1.086239	-0.174763	-0.330014
O9	O	1.309795	-0.367644	-0.329978
O10	O	1.182681	-0.174746	-0.426444
O11	O	1.086141	-0.284522	-0.202724
O12	O	0.958915	-0.284483	-0.329966
O13	O	1.086171	-0.367575	-0.553629
O14	O	0.958886	-0.367598	-0.426360
O15	O	1.182643	-0.284442	-0.553666
O16	O	1.182470	-0.477363	-0.329930
O17	O	1.086073	-0.477334	-0.426339
C18	C	0.930418	-0.326039	-0.378160
C19	C	0.843168	-0.326050	-0.378169
C20	C	0.802183	-0.369394	-0.428281
C21	C	0.720203	-0.369395	-0.428294
C22	C	0.679209	-0.326056	-0.378190
C23	C	0.720200	-0.282708	-0.328076
C24	C	0.802179	-0.282703	-0.328068
C25	C	0.549330	-0.282721	-0.328095
C26	C	0.467345	-0.282726	-0.328102
C27	C	0.467354	-0.369413	-0.428321
C28	C	0.549333	-0.369409	-0.428313
C29	C	0.590318	-0.326061	-0.378197
C30	C	1.134278	-0.501908	-0.378144
C31	C	1.134312	-0.577140	-0.378154
C32	C	1.184555	-0.612477	-0.328006
C33	C	1.184588	-0.683165	-0.328023
C34	C	1.134374	-0.718515	-0.378185
C35	C	1.084129	-0.683173	-0.428338
C36	C	1.084100	-0.612486	-0.428324
C37	C	1.084245	-0.968246	-0.428397
C38	C	1.084276	-1.038938	-0.428405
C39	C	1.184733	-1.038925	-0.328095
C40	C	1.184704	-0.968238	-0.328081
C41	C	1.134462	-0.932902	-0.378237
C42	C	1.134427	-0.856254	-0.378219
C43	C	1.134404	-0.795162	-0.378200
C44	C	1.339110	-0.326064	-0.378204
C45	C	1.426360	-0.326070	-0.378213
C46	C	1.134414	-0.326002	-0.582926
C47	C	1.134434	-0.325980	-0.670176
C48	C	1.134476	-0.149509	-0.378237
C49	C	1.134523	-0.074277	-0.378261
C50	C	1.184668	-0.282690	-0.711186
C51	C	1.184678	-0.282667	-0.793167
C52	C	1.134456	-0.325939	-0.834135
C53	C	1.084216	-0.369232	-0.793119
C54	C	1.084203	-0.369251	-0.711140
C55	C	1.084248	-0.369191	-0.963989
C56	C	1.084261	-0.369174	-1.045974
C57	C	1.184722	-0.282608	-1.046016
C58	C	1.184709	-0.282626	-0.964037
C59	C	1.134470	-0.325920	-0.923026
C60	C	1.134364	-0.326052	-0.174234
C61	C	1.134496	-0.325883	-0.086984
H62	H	0.686816	-0.247417	-0.287284
C63	C	0.847267	-0.235025	-0.272945
C64	C	0.836032	-0.158088	-0.279519
C65	C	0.881120	-0.110404	-0.224400
C66	C	0.937444	-0.139658	-0.162706
C67	C	0.948682	-0.216599	-0.156130
C68	C	0.903593	-0.264283	-0.211250
H69	H	0.794335	-0.136429	-0.325191
H70	H	0.872801	-0.053447	-0.229268
H71	H	0.970821	-0.104360	-0.121903
H72	H	0.990378	-0.238258	-0.110458
H73	H	0.911913	-0.321240	-0.206381
C74	C	1.239985	-0.234980	-1.091121
C75	C	1.301602	-0.264299	-1.147484
C76	C	1.356866	-0.216675	-1.192591
C77	C	1.350514	-0.139733	-1.181336
C78	C	1.288895	-0.110410	-1.124970
C79	C	1.233630	-0.158033	-1.079863
H80	H	1.306306	-0.321260	-1.155818
H81	H	1.402481	-0.238383	-1.234317
H82	H	1.391424	-0.104479	-1.214727
H83	H	1.284190	-0.053449	-1.116636
H84	H	1.188016	-0.136326	-1.038137
H85	H	1.043289	-0.404496	-0.677751
C86	C	0.594427	-0.417084	-0.483425
C87	C	0.650745	-0.470182	-0.449289
C88	C	0.695838	-0.517856	-0.504403
C89	C	0.684613	-0.512433	-0.593653
C90	C	0.628293	-0.459333	-0.627794
C91	C	0.583199	-0.411658	-0.572680
H92	H	0.659056	-0.474198	-0.383216
H93	H	0.737530	-0.557165	-0.479130
H94	H	0.717994	-0.547725	-0.634452
H95	H	0.619981	-0.455316	-0.693867
H96	H	0.541507	-0.372350	-0.597953
H97	H	1.043247	-0.711961	-0.469184
C98	C	1.029013	-0.416781	-1.091024
C99	C	0.967407	-0.387449	-1.147386
C100	C	0.912158	-0.435063	-1.192428
C101	C	0.918515	-0.512008	-1.181108
C102	C	0.980124	-0.541344	-1.124744
C103	C	1.035373	-0.493731	-1.079702
H104	H	0.962699	-0.330486	-1.155767
H105	H	0.866552	-0.413346	-1.234152
H106	H	0.877617	-0.547255	-1.214451
H107	H	0.984832	-0.598308	-1.116363
H108	H	1.080979	-0.515448	-1.037978
C109	C	1.239792	-0.573594	-0.272826
C110	C	1.233446	-0.583375	-0.183586
C111	C	1.288687	-0.544495	-0.128407
C112	C	1.350274	-0.495834	-0.162469
C113	C	1.356623	-0.486050	-0.251714
C114	C	1.301382	-0.524931	-0.306893
H115	H	1.187853	-0.619399	-0.158367
H116	H	1.283987	-0.551737	-0.062341
H117	H	1.391167	-0.467052	-0.121622
H118	H	1.402216	-0.450026	-0.276933
H119	H	1.306082	-0.517688	-0.372959
C120	C	1.239861	-0.722036	-0.272864
C121	C	1.295095	-0.683153	-0.217687
C122	C	1.350375	-0.722024	-0.162530
C123	C	1.350421	-0.799777	-0.162550
C124	C	1.295185	-0.838664	-0.217729
C125	C	1.239905	-0.799793	-0.272886
H126	H	1.295063	-0.625592	-0.217671
H127	H	1.391265	-0.693237	-0.121683
H128	H	1.391342	-0.828551	-0.121720
H129	H	1.295217	-0.896225	-0.217746
H130	H	1.199015	-0.828580	-0.313734
C131	C	1.028977	-0.929387	-0.483568
C132	C	0.939748	-0.939176	-0.477086
C133	C	0.884479	-0.900316	-0.532264
C134	C	0.918439	-0.851667	-0.593923
C135	C	1.007672	-0.841876	-0.600407
C136	C	1.062942	-0.880736	-0.545230
H137	H	0.914605	-0.975191	-0.431440
H138	H	0.818422	-0.907564	-0.527463
H139	H	0.877525	-0.822900	-0.634769
H140	H	1.032815	-0.805862	-0.646054
H141	H	1.128998	-0.873488	-0.550031
H142	H	1.225567	-0.247454	-0.677836
C143	C	1.028991	-0.416816	-0.918870
C144	C	0.939758	-0.411295	-0.930117
C145	C	0.884509	-0.458921	-0.884994
C146	C	0.918495	-0.512069	-0.828623
C147	C	1.007733	-0.517592	-0.817373
C148	C	1.062981	-0.469966	-0.862497
H149	H	0.914596	-0.371949	-0.971848
H150	H	0.818449	-0.454831	-0.893322
H151	H	0.877597	-0.547324	-0.795220
H152	H	1.032895	-0.556938	-0.775642
H153	H	1.129041	-0.474056	-0.854168
C154	C	0.847273	-0.417068	-0.483398
C155	C	0.903673	-0.387804	-0.545082
C156	C	0.948759	-0.435478	-0.600202
C157	C	0.937445	-0.512417	-0.593639
C158	C	0.881043	-0.541685	-0.531952
C159	C	0.835957	-0.494011	-0.476832
H160	H	0.912050	-0.330846	-0.549943
H161	H	0.990512	-0.413811	-0.645867
H162	H	0.970821	-0.547708	-0.634443
H163	H	0.872666	-0.598643	-0.527092
H164	H	0.794204	-0.515678	-0.431167
H165	H	1.043188	-0.583715	-0.469161
C166	C	0.594418	-0.235040	-0.272969
C167	C	0.650817	-0.181936	-0.307091
C168	C	0.695908	-0.134259	-0.251966
C169	C	0.684600	-0.139688	-0.162718
C170	C	0.628199	-0.192794	-0.128591
C171	C	0.583108	-0.240471	-0.183717
H172	H	0.659190	-0.177916	-0.373162
H173	H	0.737660	-0.094946	-0.277229
H174	H	0.717979	-0.104395	-0.121910
H175	H	0.619826	-0.196815	-0.062520
H176	H	0.541356	-0.279784	-0.158454
H177	H	0.686837	-0.404691	-0.469099
H178	H	1.225590	-0.939458	-0.287232
H179	H	1.043386	-1.067719	-0.469259
C180	C	0.422275	-0.417096	-0.483449
C181	C	0.332101	-0.417103	-0.483465
C182	C	0.287018	-0.464788	-0.538587
C183	C	0.332108	-0.512467	-0.593692
C184	C	0.422287	-0.512462	-0.593679
C185	C	0.467370	-0.464776	-0.538557
H186	H	0.298718	-0.381807	-0.442670
H187	H	0.220261	-0.464792	-0.538596
H188	H	0.298735	-0.547766	-0.634497
H189	H	0.455670	-0.547757	-0.634473
H190	H	0.534127	-0.464773	-0.538547
H191	H	1.043322	-0.404463	-0.826482
H192	H	1.225586	-0.247417	-0.826554
H193	H	0.433970	-0.247428	-0.287312
H194	H	1.225645	-1.067704	-0.287259
C195	C	1.239955	-0.235027	-0.918971
C196	C	1.233599	-0.158079	-0.930263
C197	C	1.288844	-0.110477	-0.885198
C198	C	1.350443	-0.139825	-0.828841
C199	C	1.356802	-0.216778	-0.817547
C200	C	1.301557	-0.264379	-0.862612
H201	H	1.187997	-0.136350	-0.971984
H202	H	1.284137	-0.053512	-0.893560
H203	H	1.391339	-0.104588	-0.795481
H204	H	1.402404	-0.238506	-0.775826
H205	H	1.306264	-0.321345	-0.854251
