data_functionalizedCrystal
_audit_creation_method	'MofGen! by Chris Wilmer'
_symmetry_space_group_name_H-M	'P1'
_symmetry_Int_Tables_number	1
_symmetry_cell_setting	triclinic
loop_
_symmetry_equiv_pos_as_xyz
  x,y,z
_cell_length_a	29.839134
_cell_length_b	29.839131
_cell_length_c	11.169409
_cell_angle_alpha	89.959881
_cell_angle_beta	89.964765
_cell_angle_gamma	90.034165
loop_
_atom_site_label
_atom_site_type_symbol
_atom_site_fract_x
_atom_site_fract_y
_atom_site_fract_z
Zn1	Zn	0.686768	-0.178904	-0.678971
Zn2	Zn	1.186768	0.321096	-0.178971
Zn3	Zn	0.686686	-0.254045	-0.478261
Zn4	Zn	1.186686	0.245955	0.021739
Zn5	Zn	0.611637	-0.178921	-0.478251
Zn6	Zn	1.111637	0.321079	0.021749
Zn7	Zn	0.611599	-0.253998	-0.678852
Zn8	Zn	1.111599	0.246002	-0.178852
O9	O	0.649172	-0.216467	-0.578584
O10	O	1.149172	0.283533	-0.078584
O11	O	0.749624	-0.188884	-0.652400
O12	O	1.249624	0.311116	-0.152400
O13	O	0.676712	-0.244107	-0.310310
O14	O	1.176712	0.255893	0.189690
O15	O	0.621653	-0.116051	-0.504924
O16	O	1.121653	0.383949	-0.004924
O17	O	0.749564	-0.244090	-0.504939
O18	O	1.249564	0.255910	-0.004939
O19	O	0.676852	-0.116039	-0.652391
O20	O	1.176852	0.383961	-0.152391
O21	O	0.621573	-0.188913	-0.310303
O22	O	1.121573	0.311087	0.189697
O23	O	0.548764	-0.188867	-0.504808
O24	O	1.048764	0.311133	-0.004808
O25	O	0.621589	-0.244010	-0.846817
O26	O	1.121589	0.255990	-0.346817
O27	O	0.548737	-0.244026	-0.652188
O28	O	1.048737	0.255974	-0.152188
O29	O	0.676815	-0.188838	-0.846905
O30	O	1.176815	0.311162	-0.346905
O31	O	0.676675	-0.316906	-0.504823
O32	O	1.176675	0.183094	-0.004823
O33	O	0.621509	-0.316871	-0.652197
O34	O	1.121509	0.183129	-0.152197
C35	C	0.532450	-0.216444	-0.578484
C36	C	1.032450	0.283556	-0.078484
C37	C	0.482515	-0.216444	-0.578470
C38	C	0.982515	0.283556	-0.078470
C39	C	0.649091	-0.333189	-0.578524
C40	C	1.149091	0.166811	-0.078524
C41	C	0.649098	-0.383124	-0.578539
C42	C	1.149098	0.116876	-0.078539
C43	C	0.125930	-0.187703	-0.502000
C44	C	0.625930	0.312297	-0.002000
C45	C	0.313603	-0.187690	-0.501927
C46	C	0.813603	0.312310	-0.001927
O47	O	0.337870	-0.163215	-0.436797
O48	O	0.837870	0.336785	0.063203
N49	N	0.337070	-0.216452	-0.578531
N50	N	0.837070	0.283548	-0.078531
C51	C	0.313616	-0.245216	-0.655164
C52	C	0.813616	0.254784	-0.155164
O53	O	0.337882	-0.269676	-0.720328
O54	O	0.837882	0.230324	-0.220328
C55	C	0.125944	-0.245226	-0.655242
C56	C	0.625944	0.254774	-0.155242
C57	C	0.102479	-0.216466	-0.578624
C58	C	0.602479	0.283534	-0.078624
C59	C	0.102466	-0.158945	-0.425389
C60	C	0.602466	0.341055	0.074611
C61	C	0.055550	-0.158950	-0.425404
C62	C	0.555550	0.341050	0.074596
C63	C	0.032099	-0.187713	-0.502028
C64	C	0.532099	0.312287	-0.002028
C65	C	0.055564	-0.216471	-0.578639
C66	C	0.555564	0.283529	-0.078639
C67	C	0.102490	-0.273988	-0.731881
C68	C	0.602490	0.226012	-0.231881
C69	C	0.055569	-0.273987	-0.731895
C70	C	0.555569	0.226013	-0.231895
C71	C	0.032105	-0.245227	-0.655278
C72	C	0.532105	0.254773	-0.155278
C73	C	-0.014803	-0.245240	-0.655278
C74	C	0.485197	0.254760	-0.155278
N75	N	-0.038269	-0.216478	-0.578674
N76	N	0.461731	0.283522	-0.078674
C77	C	-0.014819	-0.187715	-0.502049
C78	C	0.485181	0.312285	-0.002049
C79	C	0.412147	-0.245209	-0.655116
C80	C	0.912147	0.254791	-0.155116
C81	C	0.459064	-0.245207	-0.655095
C82	C	0.959064	0.254793	-0.155095
C83	C	0.459048	-0.187681	-0.501859
C84	C	0.959048	0.312319	-0.001859
C85	C	0.412130	-0.187686	-0.501875
C86	C	0.912130	0.312314	-0.001875
C87	C	0.388680	-0.216448	-0.578512
C88	C	0.888680	0.283552	-0.078512
C89	C	-0.113344	-0.187729	-0.502084
C90	C	0.386656	0.312271	-0.002084
C91	C	-0.160264	-0.187738	-0.502102
C92	C	0.339736	0.312262	-0.002102
C93	C	-0.160244	-0.245262	-0.655342
C94	C	0.339756	0.254738	-0.155342
C95	C	-0.113328	-0.245255	-0.655320
C96	C	0.386672	0.254745	-0.155320
C97	C	-0.089880	-0.216485	-0.578688
C98	C	0.410120	0.283515	-0.078688
O99	O	-0.039098	-0.269698	-0.720383
O100	O	0.460902	0.230302	-0.220383
O101	O	-0.039093	-0.163252	-0.436914
O102	O	0.460907	0.336748	0.063086
C103	C	0.172846	-0.187698	-0.501985
C104	C	0.672846	0.312302	-0.001985
C105	C	0.196310	-0.216456	-0.578596
C106	C	0.696310	0.283544	-0.078596
C107	C	0.172859	-0.245219	-0.655221
C108	C	0.672859	0.254781	-0.155221
C109	C	0.243228	-0.216454	-0.578575
C110	C	0.743228	0.283546	-0.078575
C111	C	0.266679	-0.187691	-0.501950
C112	C	0.766679	0.312309	-0.001950
C113	C	0.243212	-0.158930	-0.425346
C114	C	0.743212	0.341070	0.074654
C115	C	0.196297	-0.158935	-0.425360
C116	C	0.696297	0.341065	0.074640
C117	C	0.196326	-0.273980	-0.731825
C118	C	0.696326	0.226020	-0.231825
C119	C	0.243242	-0.273973	-0.731803
C120	C	0.743242	0.226027	-0.231803
C121	C	0.266693	-0.245210	-0.655178
C122	C	0.766693	0.254790	-0.155178
C123	C	0.677950	-0.692773	-0.501959
C124	C	1.177950	-0.192773	-0.001959
C125	C	0.678005	-0.880446	-0.502005
C126	C	1.178005	-0.380446	-0.002005
O127	O	0.702472	-0.904715	-0.436848
O128	O	1.202472	-0.404715	0.063152
N129	N	0.649265	-0.903909	-0.578674
N130	N	1.149265	-0.403909	-0.078674
C131	C	0.620512	-0.880451	-0.655343
C132	C	1.120512	-0.380451	-0.155343
O133	O	0.596072	-0.904714	-0.720564
O134	O	1.096072	-0.404714	-0.220564
C135	C	0.620459	-0.692779	-0.655301
C136	C	1.120459	-0.192779	-0.155301
C137	C	0.649197	-0.669318	-0.578619
C138	C	1.149197	-0.169318	-0.078619
C139	C	0.706686	-0.669312	-0.425283
C140	C	1.206686	-0.169312	0.074717
C141	C	0.706670	-0.622396	-0.425268
C142	C	1.206670	-0.122396	0.074732
C143	C	0.677918	-0.598942	-0.501928
C144	C	1.177918	-0.098942	-0.001928
C145	C	0.649182	-0.622403	-0.578603
C146	C	1.149182	-0.122403	-0.078603
C147	C	0.591708	-0.669322	-0.731975
C148	C	1.091708	-0.169322	-0.231975
C149	C	0.591698	-0.622401	-0.731960
C150	C	1.091698	-0.122401	-0.231960
C151	C	0.620437	-0.598940	-0.655277
C152	C	1.120437	-0.098940	-0.155277
C153	C	0.620413	-0.552033	-0.655248
C154	C	1.120413	-0.052033	-0.155248
N155	N	0.649153	-0.528569	-0.578578
N156	N	1.149153	-0.028569	-0.078578
C157	C	0.677905	-0.552024	-0.501919
C158	C	1.177905	-0.052024	-0.001919
C159	C	0.620541	-0.978982	-0.655357
C160	C	1.120541	-0.478982	-0.155357
C161	C	0.620554	-1.025899	-0.655366
C162	C	1.120554	-0.525899	-0.155366
C163	C	0.678048	-1.025891	-0.502030
C164	C	1.178048	-0.525891	-0.002030
C165	C	0.678032	-0.978972	-0.502016
C166	C	1.178032	-0.478972	-0.002016
C167	C	0.649281	-0.955518	-0.578688
C168	C	1.149281	-0.455518	-0.078688
C169	C	0.677870	-0.453498	-0.501891
C170	C	1.177870	0.046502	-0.001891
C171	C	0.677850	-0.406579	-0.501879
C172	C	1.177850	0.093421	-0.001879
C173	C	0.620358	-0.406591	-0.655219
C174	C	1.120358	0.093409	-0.155219
C175	C	0.620376	-0.453507	-0.655227
C176	C	1.120376	0.046493	-0.155227
C177	C	0.649135	-0.476959	-0.578559
C178	C	1.149135	0.023041	-0.078559
O179	O	0.595963	-0.527734	-0.720380
O180	O	1.095963	-0.027734	-0.220380
O181	O	0.702349	-0.527753	-0.436726
O182	O	1.202349	-0.027753	0.063274
C183	C	0.677966	-0.739688	-0.501974
C184	C	1.177966	-0.239688	-0.001974
C185	C	0.649229	-0.763149	-0.578650
C186	C	1.149229	-0.263149	-0.078650
C187	C	0.620477	-0.739694	-0.655309
C188	C	1.120477	-0.239694	-0.155309
C189	C	0.649242	-0.810067	-0.578659
C190	C	1.149242	-0.310067	-0.078659
C191	C	0.677994	-0.833521	-0.501999
C192	C	1.177994	-0.333521	-0.001999
C193	C	0.706734	-0.810058	-0.425330
C194	C	1.206734	-0.310058	0.074670
C195	C	0.706718	-0.763143	-0.425314
C196	C	1.206718	-0.263143	0.074686
C197	C	0.591737	-0.763158	-0.731979
C198	C	1.091737	-0.263158	-0.231979
C199	C	0.591755	-0.810073	-0.731987
C200	C	1.091755	-0.310073	-0.231987
C201	C	0.620507	-0.833528	-0.655327
C202	C	1.120507	-0.333528	-0.155327
C203	C	0.766351	-0.216491	-0.578684
C204	C	1.266351	0.283509	-0.078684
C205	C	0.816285	-0.216501	-0.578727
C206	C	1.316285	0.283499	-0.078727
C207	C	0.649207	-0.216417	-0.891626
C208	C	1.149207	0.283583	-0.391626
C209	C	0.649222	-0.216396	-1.025026
C210	C	1.149222	0.283604	-0.525026
C211	C	0.649266	-0.099289	-0.578670
C212	C	1.149266	0.400711	-0.078670
C213	C	0.649306	-0.049354	-0.578706
C214	C	1.149306	0.450646	-0.078706
C215	C	0.649164	-0.216484	-0.266759
C216	C	1.149164	0.283516	0.233241
C217	C	0.649236	-0.216379	-0.133360
C218	C	1.149236	0.283621	0.366640
H219	H	-0.179367	-0.164317	-0.439707
H220	H	0.320633	0.335683	0.060293
H221	H	0.701459	-1.044996	-0.439611
H222	H	1.201459	-0.544996	0.060389
H223	H	0.121554	-0.135520	-0.362992
H224	H	0.621554	0.364480	0.137008
H225	H	0.730119	-0.744044	-0.362872
H226	H	1.230119	-0.244044	0.137128
H227	H	0.121587	-0.297408	-0.794270
H228	H	0.621587	0.202592	-0.294270
H229	H	0.597148	-1.044997	-0.717798
H230	H	1.097148	-0.544997	-0.217798
H231	H	-0.094258	-0.164299	-0.439688
H232	H	0.405742	0.335701	0.060312
C233	C	0.029777	-0.305631	-0.816200
C234	C	0.529777	0.194369	-0.316200
N235	N	0.010352	-0.329466	-0.879694
N236	N	0.510352	0.170534	-0.379694
H237	H	0.701434	-0.959873	-0.439575
H238	H	1.201434	-0.459873	0.060425
C239	C	0.560095	-0.695118	-0.816337
C240	C	1.060095	-0.195118	-0.316337
N241	N	0.536282	-0.714547	-0.879886
N242	N	1.036282	-0.214547	-0.379886
H243	H	0.730143	-0.829163	-0.362907
H244	H	1.230143	-0.329163	0.137093
C245	C	0.709463	-0.380774	-0.417513
C246	C	1.209463	0.119226	0.082487
N247	N	0.733274	-0.361340	-0.353969
N248	N	1.233274	0.138660	0.146031
H249	H	0.036449	-0.135531	-0.363014
H250	H	0.536449	0.364469	0.136986
H251	H	0.568349	-0.829171	-0.794430
H252	H	1.068349	-0.329171	-0.294430
H253	H	0.568324	-0.744064	-0.794406
H254	H	1.068324	-0.244064	-0.294406
H255	H	0.262314	-0.135511	-0.362951
H256	H	0.762314	0.364489	0.137049
H257	H	0.597127	-0.959889	-0.717795
H258	H	1.097127	-0.459889	-0.217795
C259	C	-0.087517	-0.276893	-0.739600
C260	C	0.412483	0.223107	-0.239600
N261	N	-0.068078	-0.300720	-0.803091
N262	N	0.431922	0.199280	-0.303091
H263	H	0.568286	-0.603307	-0.794400
H264	H	1.068286	-0.103307	-0.294400
C265	C	0.170537	-0.305630	-0.816106
C266	C	0.670537	0.194370	-0.316106
N267	N	0.151114	-0.329475	-0.879582
N268	N	0.651114	0.170525	-0.379582
C269	C	0.386323	-0.156044	-0.417599
C270	C	0.886323	0.343956	0.082401
N271	N	0.366888	-0.132209	-0.354123
N272	N	0.866888	0.367791	0.145877
H273	H	0.701289	-0.472587	-0.439463
H274	H	1.201289	0.027413	0.060537
H275	H	0.478150	-0.164262	-0.439467
H276	H	0.978150	0.335738	0.060533
C277	C	0.588761	-0.479314	-0.739577
C278	C	1.088761	0.020686	-0.239577
N279	N	0.564951	-0.498749	-0.803121
N280	N	1.064951	0.001251	-0.303121
C281	C	-0.186049	-0.276899	-0.739628
C282	C	0.313951	0.223101	-0.239628
N283	N	-0.205487	-0.300725	-0.803120
N284	N	0.294513	0.199275	-0.303120
C285	C	0.738281	-0.596596	-0.340900
C286	C	1.238281	-0.096596	0.159100
N287	N	0.762091	-0.577166	-0.277347
N288	N	1.262091	-0.077166	0.222653
H289	H	0.177196	-0.135515	-0.362971
H290	H	0.677196	0.364485	0.137029
H291	H	0.262343	-0.297397	-0.794192
H292	H	0.762343	0.202603	-0.294192
C293	C	0.738316	-0.695105	-0.340937
C294	C	1.238316	-0.195105	0.159063
N295	N	0.762139	-0.714529	-0.277394
N296	N	1.262139	-0.214529	0.222606
H297	H	0.478165	-0.268631	-0.717472
H298	H	0.978165	0.231369	-0.217472
C299	C	0.386357	-0.276860	-0.739409
C300	C	0.886357	0.223140	-0.239409
N301	N	0.366935	-0.300703	-0.802889
N302	N	0.866935	0.199297	-0.302889
H303	H	0.596947	-0.387487	-0.717631
H304	H	1.096947	0.112513	-0.217631
