data_functionalizedCrystal
_audit_creation_method	'MofGen! by Chris Wilmer'
_symmetry_space_group_name_H-M	'P1'
_symmetry_Int_Tables_number	1
_symmetry_cell_setting	triclinic
loop_
_symmetry_equiv_pos_as_xyz
  x,y,z
_cell_length_a	17.699083
_cell_length_b	14.853567
_cell_length_c	16.176319
_cell_angle_alpha	89.996997
_cell_angle_beta	89.998611
_cell_angle_gamma	83.458972
loop_
_atom_site_label
_atom_site_type_symbol
_atom_site_fract_x
_atom_site_fract_y
_atom_site_fract_z
O1	O	1.004375	0.114008	-0.068624
O2	O	0.784035	0.128841	-0.068650
O3	O	0.900090	-0.009827	-0.068639
O4	O	0.888319	0.252676	-0.068635
O5	O	0.900074	-0.009836	0.068855
O6	O	0.784019	0.128832	0.068843
O7	O	1.004359	0.113999	0.068869
Cu8	Cu	0.894187	0.121415	0.081411
Cu9	Cu	0.894206	0.121425	-0.081191
O10	O	0.888303	0.252667	0.068858
C11	C	0.755828	0.128305	0.000093
C12	C	0.671806	0.126711	0.000083
C13	C	0.623396	0.208106	0.000084
C14	C	0.544449	0.206602	0.000095
C15	C	0.513913	0.123703	0.000098
C16	C	0.562329	0.042301	0.000099
C17	C	0.641275	0.043806	0.000095
C18	C	0.243950	0.036232	0.000120
C19	C	0.164999	0.034734	0.000122
C20	C	0.147125	0.199028	0.000120
C21	C	0.226070	0.200533	0.000115
C22	C	0.274479	0.119132	0.000121
C23	C	0.360083	0.120763	0.000111
C24	C	0.428311	0.122070	0.000102
C25	C	0.899549	-0.043418	0.000106
C26	C	0.897951	-0.143496	0.000098
C27	C	0.822255	-0.555751	0.000105
C28	C	0.960131	-0.577539	0.000121
C29	C	0.961634	-0.483511	0.000117
C30	C	0.893446	-0.425598	0.000107
C31	C	0.823756	-0.461714	0.000103
C32	C	1.031324	-0.447389	0.000129
C33	C	1.032829	-0.353355	0.000126
C34	C	0.964641	-0.295441	0.000111
C35	C	0.894947	-0.331561	0.000105
C36	C	0.826759	-0.273648	0.000096
C37	C	0.757065	-0.309767	0.000084
C38	C	0.755567	-0.403799	0.000088
C39	C	0.966139	-0.201409	0.000107
C40	C	0.828260	-0.179611	0.000094
C41	C	1.032565	0.114535	0.000125
C42	C	1.116587	0.116130	0.000129
C43	C	0.888844	0.286258	0.000112
C44	C	0.890443	0.386336	0.000114
N45	N	0.894179	0.121407	0.195776
N46	N	0.894220	0.121426	-0.195556
C47	C	0.945584	0.060030	0.239045
C48	C	0.945588	0.060029	0.325592
C49	C	0.894190	0.121410	0.368868
C50	C	0.842780	0.182790	0.325593
C51	C	0.842773	0.182786	0.239048
C52	C	0.842806	0.182807	0.674621
C53	C	0.842818	0.182808	0.761173
C54	C	0.945621	0.060050	0.761166
C55	C	0.945614	0.060046	0.674620
C56	C	0.894201	0.121422	0.631353
C57	C	0.894197	0.121422	0.537508
C58	C	0.894198	0.121416	0.462711
H59	H	0.283356	-0.030050	0.000125
C60	C	1.002127	-0.007496	0.191449
N61	N	1.044714	-0.058361	0.155602
C62	C	0.682061	-0.246051	0.000074
N63	N	0.625569	-0.198057	0.000065
H64	H	0.800927	0.232765	0.360834
H65	H	1.089579	-0.323956	0.000134
C66	C	0.786229	0.250313	0.191452
N67	N	0.743639	0.301177	0.155604
H68	H	0.537461	-0.025197	0.000114
H69	H	0.680690	-0.022475	0.000093
H70	H	0.772732	-0.132463	0.000082
H71	H	1.022883	-0.172005	0.000122
H72	H	0.987482	0.010071	0.796404
H73	H	1.086839	-0.494548	0.000145
H74	H	0.987445	0.010051	0.360821
H75	H	0.800961	0.232794	0.796407
C76	C	0.656978	0.299303	0.000082
N77	N	0.682269	0.367996	0.000084
H78	H	0.800945	0.232783	0.639400
H79	H	0.765511	-0.585163	0.000092
H80	H	1.015647	-0.624697	0.000135
H81	H	0.505037	0.272882	0.000095
C82	C	0.259655	0.291728	0.000117
N83	N	0.284949	0.360419	0.000123
H84	H	0.107700	0.265309	0.000120
C85	C	0.678910	-0.443537	0.000092
N86	N	0.621172	-0.473472	0.000103
C87	C	1.002154	-0.007480	0.627021
N88	N	1.044739	-0.058345	0.591171
H89	H	0.140140	-0.032777	0.000126
