data_functionalizedCrystal
_audit_creation_method	'MofGen! by Chris Wilmer'
_symmetry_space_group_name_H-M	'P1'
_symmetry_Int_Tables_number	1
_symmetry_cell_setting	triclinic
loop_
_symmetry_equiv_pos_as_xyz
  x,y,z
_cell_length_a	13.033293
_cell_length_b	13.032868
_cell_length_c	13.032268
_cell_angle_alpha	103.285901
_cell_angle_beta	90.920818
_cell_angle_gamma	74.808508
loop_
_atom_site_label
_atom_site_type_symbol
_atom_site_fract_x
_atom_site_fract_y
_atom_site_fract_z
Zn1	Zn	1.451099	0.335779	0.818067
Zn2	Zn	1.450965	0.490877	0.662992
Zn3	Zn	1.301764	0.330079	0.623621
Zn4	Zn	1.250870	0.535869	0.817934
O5	O	1.363675	0.423151	0.730654
O6	O	1.597320	0.339909	0.814028
O7	O	1.452416	0.448333	0.511550
O8	O	1.342929	0.179802	0.632994
O9	O	1.597221	0.453859	0.700095
O10	O	1.452645	0.183990	0.775852
O11	O	1.342799	0.330195	0.482624
O12	O	1.148774	0.373821	0.632865
O13	O	1.256188	0.530541	0.964172
O14	O	1.111383	0.525014	0.775626
O15	O	1.403295	0.383535	0.964269
O16	O	1.403067	0.647878	0.699967
O17	O	1.256057	0.680933	0.813802
C18	C	1.092160	0.453682	0.699960
C19	C	0.975998	0.466773	0.686856
C20	C	0.924229	0.416346	0.737495
C21	C	0.804170	0.429875	0.723953
C22	C	1.324050	0.703567	0.761169
C23	C	1.307189	0.823525	0.774269
C24	C	1.372458	0.860616	0.723839
C25	C	1.355033	0.984598	0.737378
C26	C	1.636249	0.392501	0.761468
C27	C	1.752404	0.379440	0.774600
C28	C	1.324079	0.462692	1.003194
C29	C	1.307206	0.479543	1.119334
C30	C	1.403446	1.141642	0.700030
C31	C	1.420311	1.021686	0.686942
C32	C	1.403187	0.383679	0.459172
C33	C	1.420305	0.366502	0.343022
C34	C	1.372470	0.414320	1.171161
C35	C	1.355032	0.431734	1.291198
H36	H	0.796962	0.326241	0.827977
H37	H	1.441251	0.345585	1.126664
H38	H	1.441242	0.800587	0.670646
F39	F	1.510223	0.943230	0.617408
H40	H	1.489089	0.297759	1.298531
H41	H	1.286252	1.044627	0.790583
H42	H	0.968793	0.363152	0.790870
F43	F	1.217291	0.901986	0.843809
F44	F	1.217294	0.569377	1.177486
H45	H	0.759612	0.483065	0.670568
F46	F	0.917759	0.536291	0.617078
H47	H	1.286238	0.500464	1.335688
