data_functionalizedCrystal
_audit_creation_method	'MofGen! by Chris Wilmer'
_symmetry_space_group_name_H-M	'P1'
_symmetry_Int_Tables_number	1
_symmetry_cell_setting	triclinic
loop_
_symmetry_equiv_pos_as_xyz
  x,y,z
_cell_length_a	14.853567
_cell_length_b	17.699083
_cell_length_c	16.176319
_cell_angle_alpha	90.000958
_cell_angle_beta	89.996997
_cell_angle_gamma	96.541028
loop_
_atom_site_label
_atom_site_type_symbol
_atom_site_fract_x
_atom_site_fract_y
_atom_site_fract_z
O1	O	0.114008	-1.004375	-0.068615
O2	O	0.128841	-0.784035	-0.068643
O3	O	-0.009827	-0.900090	-0.068631
O4	O	0.252676	-0.888319	-0.068628
O5	O	-0.009836	-0.900074	0.068862
O6	O	0.128832	-0.784019	0.068850
O7	O	0.113999	-1.004359	0.068878
Cu8	Cu	0.121415	-0.894187	0.081418
Cu9	Cu	0.121425	-0.894206	-0.081184
O10	O	0.252667	-0.888303	0.068865
C11	C	0.128305	-0.755828	0.000099
C12	C	0.126711	-0.671806	0.000088
C13	C	0.208106	-0.623396	0.000089
C14	C	0.206602	-0.544449	0.000099
C15	C	0.123703	-0.513913	0.000103
C16	C	0.042301	-0.562329	0.000104
C17	C	0.043806	-0.641275	0.000100
C18	C	0.036232	-0.243950	0.000122
C19	C	0.034734	-0.164999	0.000123
C20	C	0.199028	-0.147125	0.000121
C21	C	0.200533	-0.226070	0.000117
C22	C	0.119132	-0.274479	0.000123
C23	C	0.120763	-0.360083	0.000114
C24	C	0.122070	-0.428311	0.000106
C25	C	-0.043418	-0.899549	0.000113
C26	C	-0.143496	-0.897951	0.000106
C27	C	-0.555751	-0.822255	0.000112
C28	C	-0.577539	-0.960131	0.000129
C29	C	-0.483511	-0.961634	0.000124
C30	C	-0.425598	-0.893446	0.000115
C31	C	-0.461714	-0.823756	0.000109
C32	C	-0.447389	-1.031324	0.000138
C33	C	-0.353355	-1.032829	0.000134
C34	C	-0.295441	-0.964641	0.000118
C35	C	-0.331561	-0.894947	0.000112
C36	C	-0.273648	-0.826759	0.000103
C37	C	-0.309767	-0.757065	0.000091
C38	C	-0.403799	-0.755567	0.000094
C39	C	-0.201409	-0.966139	0.000115
C40	C	-0.179611	-0.828260	0.000100
C41	C	0.286258	-0.888844	0.000120
C42	C	0.386336	-0.890443	0.000121
C43	C	0.114535	-0.032565	0.000131
C44	C	0.116130	-0.116587	0.000130
N45	N	0.121407	-0.894179	0.195783
N46	N	0.121426	-0.894220	-0.195549
C47	C	0.060030	-0.945584	0.239053
C48	C	0.060029	-0.945588	0.325600
C49	C	0.121410	-0.894190	0.368876
C50	C	0.182790	-0.842780	0.325600
C51	C	0.182786	-0.842773	0.239055
C52	C	0.182807	-0.842806	0.674628
C53	C	0.182808	-0.842818	0.761180
C54	C	0.060050	-0.945621	0.761174
C55	C	0.060046	-0.945614	0.674628
C56	C	0.121422	-0.894201	0.631360
C57	C	0.121422	-0.894197	0.537516
C58	C	0.121416	-0.894198	0.462718
H59	H	-0.032777	-0.140140	0.000127
Cl60	Cl	-0.017136	-1.010207	0.184658
H61	H	0.010051	-0.987445	0.360830
Cl62	Cl	0.312329	-0.661776	0.000080
H63	H	-0.172005	-1.022883	0.000131
H64	H	0.010071	-0.987482	0.796412
Cl65	Cl	0.259978	-0.778197	0.815583
Cl66	Cl	-0.106813	-0.742532	0.000082
Cl67	Cl	-0.236952	-0.671347	0.000085
H68	H	0.010067	-0.987470	0.639396
H69	H	0.232765	-0.800927	0.360840
Cl70	Cl	-0.449212	-0.667959	0.000076
Cl71	Cl	-0.601155	-0.734644	0.000089
H72	H	0.232783	-0.800945	0.639406
Cl73	Cl	-0.520196	-1.117040	0.000168
Cl74	Cl	0.259947	-0.778144	0.184659
H75	H	0.272882	-0.505037	0.000099
H76	H	0.268038	-0.250928	0.000111
H77	H	0.265309	-0.107700	0.000121
H78	H	-0.030050	-0.283356	0.000127
Cl79	Cl	-0.061916	-0.523941	0.000113
H80	H	-0.022475	-0.680690	0.000099
Cl81	Cl	-0.307957	-1.120443	0.000135
Cl82	Cl	-0.650344	-1.045848	0.000155
