data_functionalizedCrystal
_audit_creation_method	'MofGen! by Chris Wilmer'
_symmetry_space_group_name_H-M	'P1'
_symmetry_Int_Tables_number	1
_symmetry_cell_setting	triclinic
loop_
_symmetry_equiv_pos_as_xyz
  x,y,z
_cell_length_a	18.101397
_cell_length_b	16.625547
_cell_length_c	16.625539
_cell_angle_alpha	90.027058
_cell_angle_beta	89.970842
_cell_angle_gamma	89.981048
loop_
_atom_site_label
_atom_site_type_symbol
_atom_site_fract_x
_atom_site_fract_y
_atom_site_fract_z
Zn1	Zn	-0.294844	-1.232696	-0.456044
Zn2	Zn	0.038489	-0.899362	-0.122711
Zn3	Zn	0.371822	-0.566029	0.210622
Zn4	Zn	-0.418693	-1.232605	-0.321209
Zn5	Zn	-0.085360	-0.899272	0.012124
Zn6	Zn	0.247973	-0.565939	0.345457
Zn7	Zn	-0.294868	-1.097857	-0.321209
Zn8	Zn	0.038465	-0.764524	0.012124
Zn9	Zn	0.371798	-0.431191	0.345457
Zn10	Zn	-0.418647	-1.097834	-0.455984
Zn11	Zn	-0.085313	-0.764501	-0.122651
Zn12	Zn	0.248020	-0.431168	0.210683
O13	O	-0.356763	-1.165248	-0.388612
O14	O	-0.023430	-0.831915	-0.055278
O15	O	0.309903	-0.498581	0.278055
O16	O	-0.311282	-1.345516	-0.438183
O17	O	0.022051	-1.012183	-0.104850
O18	O	0.355384	-0.678849	0.228483
O19	O	-0.402297	-1.214703	-0.208377
O20	O	-0.068964	-0.881369	0.124956
O21	O	0.264369	-0.548036	0.458290
O22	O	-0.191232	-1.115792	-0.339121
O23	O	0.142101	-0.782458	-0.005787
O24	O	0.475434	-0.449125	0.327546
O25	O	-0.402274	-1.345450	-0.339121
O26	O	-0.068941	-1.012116	-0.005787
O27	O	0.264393	-0.678783	0.327546
O28	O	-0.191215	-1.214857	-0.438183
O29	O	0.142119	-0.881523	-0.104850
O30	O	0.475452	-0.548190	0.228483
O31	O	-0.311324	-1.115704	-0.208377
O32	O	0.022010	-0.782371	0.124956
O33	O	0.355343	-0.449037	0.458290
O34	O	-0.311278	-0.985022	-0.339062
O35	O	0.022055	-0.651689	-0.005729
O36	O	0.355388	-0.318355	0.327604
O37	O	-0.402194	-1.115752	-0.568824
O38	O	-0.068861	-0.782419	-0.235491
O39	O	0.264472	-0.449085	0.097842
O40	O	-0.402218	-0.985005	-0.438081
O41	O	-0.068885	-0.651672	-0.104747
O42	O	0.264449	-0.318338	0.228586
O43	O	-0.311237	-1.214834	-0.568869
O44	O	0.022096	-0.881501	-0.235535
O45	O	0.355429	-0.548167	0.097798
O46	O	-0.522320	-1.214680	-0.339062
O47	O	-0.188987	-0.881347	-0.005729
O48	O	0.144347	-0.548013	0.327604
O49	O	-0.522286	-1.115664	-0.438081
O50	O	-0.188952	-0.782331	-0.104747
O51	O	0.144381	-0.448998	0.228586
C52	C	-0.356746	-0.955757	-0.388565
C53	C	-0.023413	-0.622424	-0.055232
C54	C	0.309920	-0.289091	0.278101
C55	C	-0.356757	-0.866136	-0.388565
C56	C	-0.023424	-0.532803	-0.055231
C57	C	0.309910	-0.199470	0.278102
C58	C	-0.356757	-0.793354	-0.388572
C59	C	-0.023424	-0.460020	-0.055239
C60	C	0.309909	-0.126687	0.278095
C61	C	-0.356760	-0.702045	-0.388589
C62	C	-0.023427	-0.368712	-0.055255
C63	C	0.309906	-0.035379	0.278078
C64	C	-0.356766	-0.629269	-0.388606
C65	C	-0.023433	-0.295936	-0.055273
C66	C	0.309900	0.037398	0.278060
C67	C	-0.356770	-0.537955	-0.388622
C68	C	-0.023437	-0.204621	-0.055289
C69	C	0.309896	0.128712	0.278045
C70	C	-0.549174	-1.165182	-0.388583
C71	C	-0.215840	-0.831848	-0.055249
C72	C	0.117493	-0.498515	0.278084
C73	C	-0.631488	-1.165227	-0.388597
C74	C	-0.298154	-0.831894	-0.055264
C75	C	0.035179	-0.498560	0.278070
C76	C	-0.782196	-1.165276	-0.388624
C77	C	-0.448863	-0.831943	-0.055291
C78	C	-0.115530	-0.498609	0.278042
C79	C	-0.813540	-1.227636	-0.326385
C80	C	-0.480207	-0.894302	0.006948
C81	C	-0.146874	-0.560969	0.340282
C82	C	-0.899159	-1.227480	-0.326156
C83	C	-0.565826	-0.894147	0.007177
C84	C	-0.232492	-0.560814	0.340510
C85	C	-0.930579	-1.165326	-0.388651
C86	C	-0.597245	-0.831992	-0.055318
C87	C	-0.263912	-0.498659	0.278015
C88	C	-0.899562	-1.080290	-0.365770
C89	C	-0.566228	-0.746957	-0.032437
C90	C	-0.232895	-0.413623	0.300897
C91	C	-0.813917	-1.080622	-0.365302
C92	C	-0.480583	-0.747289	-0.031969
C93	C	-0.147250	-0.413956	0.301364
C94	C	-0.813690	-1.187220	-0.473907
C95	C	-0.480356	-0.853886	-0.140574
C96	C	-0.147023	-0.520553	0.192760
C97	C	-0.899339	-1.189123	-0.473469
C98	C	-0.566006	-0.855790	-0.140135
C99	C	-0.232673	-0.522456	0.193198
C100	C	-1.014438	-1.165348	-0.388668
C101	C	-0.681105	-0.832015	-0.055335
C102	C	-0.347772	-0.498682	0.277999
C103	C	-0.698337	-1.165248	-0.388606
C104	C	-0.365003	-0.831914	-0.055272
C105	C	-0.031670	-0.498581	0.278061
C106	C	-0.163601	-1.165337	-0.388659
C107	C	0.169732	-0.832003	-0.055325
C108	C	0.503065	-0.498670	0.278008
C109	C	-0.081287	-1.165375	-0.388679
C110	C	0.252046	-0.832041	-0.055345
C111	C	0.585380	-0.498708	0.277988
C112	C	-0.356708	-1.165301	-0.598921
C113	C	-0.023375	-0.831967	-0.265587
C114	C	0.309959	-0.498634	0.067746
C115	C	-0.356684	-1.165323	-0.688542
C116	C	-0.023351	-0.831990	-0.355209
C117	C	0.309982	-0.498656	-0.021875
C118	C	-0.356778	-0.375557	-0.388649
C119	C	-0.023444	-0.042224	-0.055316
C120	C	0.309889	0.291110	0.278018
C121	C	-0.356776	-0.465178	-0.388640
C122	C	-0.023443	-0.131845	-0.055306
C123	C	0.309891	0.201489	0.278027
C124	C	-0.356602	-1.165360	-1.016718
C125	C	-0.023268	-0.832027	-0.683384
C126	C	0.310065	-0.498693	-0.350051
C127	C	-0.356627	-1.165348	-0.925409
C128	C	-0.023294	-0.832014	-0.592076
C129	C	0.310040	-0.498681	-0.258743
C130	C	-0.356644	-1.165342	-0.852633
C131	C	-0.023310	-0.832009	-0.519299
C132	C	0.310023	-0.498675	-0.185966
C133	C	-0.356668	-1.165328	-0.761318
C134	C	-0.023335	-0.831995	-0.427985
C135	C	0.309999	-0.498662	-0.094652
C136	C	-0.356765	-1.165242	-0.179121
C137	C	-0.023431	-0.831909	0.154212
C138	C	0.309902	-0.498576	0.487546
C139	C	-0.356580	-1.165376	-0.089500
C140	C	-0.023246	-0.832043	0.243833
C141	C	0.310087	-0.498710	0.577166
H142	H	-0.920128	-1.290529	-0.340450
H143	H	-0.586794	-0.957196	-0.007116
H144	H	-0.253461	-0.623862	0.326217
H145	H	-0.793414	-1.141806	-0.520279
H146	H	-0.460081	-0.808472	-0.186945
H147	H	-0.126748	-0.475139	0.146388
H148	H	-0.921067	-1.061414	-0.304128
H149	H	-0.587733	-0.728081	0.029205
H150	H	-0.254400	-0.394748	0.362539
H151	H	-0.792902	-1.290867	-0.340513
H152	H	-0.459568	-0.957534	-0.007180
H153	H	-0.126235	-0.624201	0.326154
Cl154	Cl	-0.930984	-1.006617	-0.433616
Cl155	Cl	-0.597651	-0.673284	-0.100282
Cl156	Cl	-0.264317	-0.339950	0.233051
H157	H	-0.792035	-1.248156	-0.494760
H158	H	-0.458702	-0.914823	-0.161427
H159	H	-0.125368	-0.581490	0.171906
H160	H	-0.919606	-1.251702	-0.490726
H161	H	-0.586273	-0.918369	-0.157392
H162	H	-0.252939	-0.585036	0.175941
H163	H	-0.920723	-1.147049	-0.522317
H164	H	-0.587390	-0.813716	-0.188984
H165	H	-0.254056	-0.480382	0.144349
H166	H	-0.793996	-1.062055	-0.302968
H167	H	-0.460662	-0.728721	0.030365
H168	H	-0.127329	-0.395388	0.363698
H169	H	-0.792067	-1.213273	-0.263555
H170	H	-0.458734	-0.879940	0.069778
H171	H	-0.125401	-0.546607	0.403112
H172	H	-0.793184	-1.032566	-0.408675
H173	H	-0.459851	-0.699233	-0.075341
H174	H	-0.126518	-0.365899	0.257992
Cl175	Cl	-0.930880	-1.205048	-0.228607
Cl176	Cl	-0.597546	-0.871714	0.104726
Cl177	Cl	-0.264213	-0.538381	0.438059
