data_functionalizedCrystal
_audit_creation_method	'MofGen! by Chris Wilmer'
_symmetry_space_group_name_H-M	'P1'
_symmetry_Int_Tables_number	1
_symmetry_cell_setting	triclinic
loop_
_symmetry_equiv_pos_as_xyz
  x,y,z
_cell_length_a	14.519709
_cell_length_b	15.455313
_cell_length_c	16.974829
_cell_angle_alpha	89.024636
_cell_angle_beta	96.461193
_cell_angle_gamma	92.679852
loop_
_atom_site_label
_atom_site_type_symbol
_atom_site_fract_x
_atom_site_fract_y
_atom_site_fract_z
O1	O	0.125710	0.145299	-1.042329
O2	O	0.625710	0.645299	-0.542329
O3	O	0.139773	0.129198	-0.812917
O4	O	0.639773	0.629198	-0.312917
O5	O	-0.001493	0.137667	-0.933706
O6	O	0.498507	0.637667	-0.433706
O7	O	0.266976	0.136829	-0.921540
O8	O	0.766976	0.636829	-0.421540
O9	O	-0.009547	-0.006111	-0.940606
O10	O	0.490453	0.493889	-0.440606
O11	O	0.131719	-0.014581	-0.819817
O12	O	0.631719	0.485419	-0.319817
O13	O	0.117656	0.001521	-1.049228
O14	O	0.617656	0.501521	-0.549228
Cu15	Cu	0.123952	-0.019658	-0.935153
Cu16	Cu	0.623952	0.480342	-0.435153
Cu17	Cu	0.133477	0.150376	-0.926993
Cu18	Cu	0.633477	0.650376	-0.426993
O19	O	0.258922	-0.006949	-0.928440
O20	O	0.758922	0.493051	-0.428440
C21	C	-0.039880	0.065738	-0.936589
C22	C	0.460120	0.565738	-0.436589
C23	C	-0.142263	0.065619	-0.934890
C24	C	0.357737	0.565619	-0.434890
C25	C	0.135060	0.055248	-0.787007
C26	C	0.635060	0.555248	-0.287007
C27	C	0.133005	0.049107	-0.699523
C28	C	0.633005	0.549107	-0.199523
N29	N	0.140169	0.269970	-0.921255
N30	N	0.640169	0.769970	-0.421255
C31	C	-0.517162	0.065202	-0.928634
C32	C	-0.017162	0.565202	-0.428634
C33	C	-0.412853	0.065318	-0.930372
C34	C	0.087147	0.565318	-0.430372
C35	C	-0.329716	0.065410	-0.931762
C36	C	0.170284	0.565410	-0.431762
C37	C	-0.225400	0.065527	-0.933499
C38	C	0.274600	0.565527	-0.433499
C39	C	0.297309	0.064982	-0.925557
C40	C	0.797309	0.564982	-0.425557
C41	C	0.399692	0.065107	-0.927255
C42	C	0.899692	0.565107	-0.427255
N43	N	0.117253	-0.139251	-0.940897
N44	N	0.617253	0.360749	-0.440897
C45	C	0.080271	0.318969	-0.972668
C46	C	0.580271	0.818969	-0.472668
C47	C	0.085330	0.409472	-0.968326
C48	C	0.585330	0.909472	-0.468326
C49	C	0.150284	0.450975	-0.912567
C50	C	0.650284	0.950975	-0.412567
C51	C	0.210188	0.401969	-0.861152
C52	C	0.710188	0.901969	-0.361152
C53	C	0.205133	0.311467	-0.865498
C54	C	0.705133	0.811467	-0.365498
C55	C	0.172102	0.721242	-0.893828
C56	C	0.672102	1.221242	-0.393828
C57	C	0.177151	0.811750	-0.889484
C58	C	0.677151	1.311750	-0.389484
C59	C	0.052293	0.819247	-0.996660
C60	C	0.552293	1.319247	-0.496660
C61	C	0.047240	0.728744	-1.000998
C62	C	0.547240	1.228744	-0.500998
C63	C	0.107147	0.679746	-0.949585
C64	C	0.607147	1.179746	-0.449585
N65	N	0.155455	0.543483	-0.908127
N66	N	0.655455	1.043483	-0.408127
N67	N	0.101980	0.587239	-0.954030
N68	N	0.601980	1.087239	-0.454030
C69	C	0.122369	0.075473	-1.075138
C70	C	0.622369	0.575473	-0.575138
C71	C	0.124424	0.081619	-1.162622
C72	C	0.624424	0.581619	-0.662622
C73	C	0.121000	0.006130	-0.207482
C74	C	0.621000	0.506130	0.292518
C75	C	0.122930	0.011901	-0.289682
C76	C	0.622930	0.511901	0.210318
C77	C	0.128279	0.093162	-0.327022
C78	C	0.628279	0.593162	0.172978
C79	C	0.131706	0.168656	-0.282156
C80	C	0.631706	0.668656	0.217844
C81	C	0.129782	0.162884	-0.199957
C82	C	0.629782	0.662884	0.300043
C83	C	0.134509	0.118829	-0.572458
C84	C	0.634509	0.618829	-0.072458
C85	C	0.136430	0.124596	-0.654664
C86	C	0.636430	0.624596	-0.154664
C87	C	0.127655	-0.032160	-0.662184
C88	C	0.627655	0.467840	-0.162184
C89	C	0.125726	-0.037925	-0.579983
C90	C	0.625726	0.462075	-0.079983
C91	C	0.129159	0.037569	-0.535124
C92	C	0.629159	0.537569	-0.035124
N93	N	0.130249	0.099063	-0.411044
N94	N	0.630249	0.599063	0.088956
N95	N	0.127195	0.031667	-0.451102
N96	N	0.627195	0.531667	0.048898
H97	H	0.027375	0.285184	-1.018069
H98	H	0.527375	0.785184	-0.518069
H99	H	0.137301	0.180302	-0.535944
H100	H	0.637301	0.680302	-0.035944
H101	H	0.220880	0.681355	-0.851964
H102	H	0.720880	1.181355	-0.351964
H103	H	0.036557	0.449368	-1.010191
H104	H	0.536557	0.949368	-0.510191
H105	H	0.121351	-0.104095	-0.549589
H106	H	0.621351	0.395905	-0.049589
C107	C	0.119158	-0.071142	-0.339024
C108	C	0.619158	0.428858	0.160976
N109	N	0.116315	-0.133695	-0.376189
N110	N	0.616315	0.366305	0.123811
C111	C	0.123918	-0.115198	-0.711531
C112	C	0.623918	0.384802	-0.211531
N113	N	0.121118	-0.177745	-0.748698
N114	N	0.621118	0.322255	-0.248698
H115	H	0.140793	0.190771	-0.685062
H116	H	0.640793	0.690771	-0.185062
C117	C	0.271024	0.257568	-0.808937
C118	C	0.771024	0.757568	-0.308937
N119	N	0.320657	0.216972	-0.766335
N120	N	0.820657	0.716972	-0.266335
C121	C	0.137588	0.258044	-0.323233
C122	C	0.637588	0.758044	0.176767
N123	N	0.142013	0.325373	-0.354172
N124	N	0.642013	0.825373	0.145828
H125	H	0.132573	0.224355	-0.163432
H126	H	0.632573	0.724355	0.336568
C127	C	-0.024242	0.683097	-1.062314
C128	C	0.475758	1.183097	-0.562314
N129	N	-0.078095	0.648715	-1.108487
N130	N	0.421905	1.148715	-0.608487
C131	C	-0.013605	0.873152	-1.053207
C132	C	0.486395	1.373152	-0.553207
N133	N	-0.063243	0.913753	-1.095799
N134	N	0.436757	1.413753	-0.595799
C135	C	0.248549	0.857396	-0.828092
C136	C	0.748549	1.357396	-0.328092
N137	N	0.302300	0.891776	-0.781834
N138	N	0.802300	1.391776	-0.281834
H139	H	0.116648	-0.060041	-0.177085
H140	H	0.616648	0.439959	0.322915
C141	C	0.281638	0.447624	-0.799816
C142	C	0.781638	0.947624	-0.299816
N143	N	0.335453	0.482011	-0.753614
N144	N	0.835453	0.982011	-0.253614
