data_functionalizedCrystal
_audit_creation_method	'MofGen! by Chris Wilmer'
_symmetry_space_group_name_H-M	'P1'
_symmetry_Int_Tables_number	1
_symmetry_cell_setting	triclinic
loop_
_symmetry_equiv_pos_as_xyz
  x,y,z
_cell_length_a	10.540535
_cell_length_b	15.944564
_cell_length_c	9.616153
_cell_angle_alpha	90.001202
_cell_angle_beta	89.999069
_cell_angle_gamma	95.986212
loop_
_atom_site_label
_atom_site_type_symbol
_atom_site_fract_x
_atom_site_fract_y
_atom_site_fract_z
O1	O	1.684286	-0.118349	-0.115574
O2	O	1.314721	-0.129506	-0.115594
O3	O	1.509587	-0.001713	-0.115570
O4	O	1.489420	-0.246141	-0.115598
O5	O	1.509573	-0.001720	0.115722
O6	O	1.314707	-0.129513	0.115698
O7	O	1.684272	-0.118356	0.115718
Zn8	Zn	1.499487	-0.123935	0.152430
Zn9	Zn	1.499506	-0.123926	-0.152306
O10	O	1.489406	-0.246148	0.115694
C11	C	1.267422	-0.128673	0.000050
C12	C	1.126508	-0.126172	0.000043
C13	C	1.508740	0.029582	0.000076
C14	C	1.506221	0.122843	0.000078
C15	C	1.091101	-0.032868	0.000059
C16	C	0.944536	-0.030237	0.000598
C17	C	0.916587	-0.168768	0.131876
C18	C	1.063325	-0.170754	0.131973
C19	C	1.063207	-0.172103	-0.131058
C20	C	0.916919	-0.167788	-0.132777
C21	C	1.379410	0.338453	0.000053
C22	C	1.438279	0.399116	0.114097
C23	C	1.501665	0.293595	0.000068
C24	C	1.438322	0.399106	-0.113938
C25	C	1.497255	0.458533	0.000052
C26	C	1.560568	0.353029	0.114206
C27	C	1.560594	0.353013	-0.113932
C28	C	1.619552	0.413658	0.000141
C29	C	1.504202	0.198578	0.000078
C30	C	1.494727	0.553548	0.000052
C31	C	1.731571	-0.119188	0.000071
C32	C	1.872485	-0.121689	0.000069
C33	C	1.490236	0.722555	0.000046
C34	C	1.492702	0.629290	0.000041
N35	N	1.499483	-0.123941	0.360405
N36	N	1.499519	-0.123913	-0.360281
C37	C	1.395198	-0.192291	0.419434
C38	C	1.394849	-0.192095	0.580601
C39	C	1.471120	-0.035996	0.581198
C40	C	1.470350	-0.036413	0.419980
C41	C	1.632492	-0.142717	0.419795
C42	C	1.631621	-0.144686	0.581024
H43	H	0.915703	0.006582	-0.093867
Br44	Br	1.678171	-0.247401	0.352035
Br45	Br	1.161867	0.026862	-0.157463
Br46	Br	1.646719	0.318952	-0.274630
Br47	Br	0.897915	0.030802	0.159042
H48	H	1.277937	0.305749	0.000161
Br49	Br	1.130995	-0.117772	0.296835
H50	H	1.653171	-0.209374	0.619251
H51	H	1.411742	-0.257830	0.380675
H52	H	0.866967	-0.234532	-0.141153
H53	H	1.296148	-0.179972	0.619192
Br54	Br	0.870084	-0.110665	-0.295310
Br55	Br	1.352110	0.433113	-0.274621
H56	H	1.612228	0.332728	0.210727
H57	H	1.721113	0.446212	0.000211
H58	H	1.710094	-0.092888	0.381610
Br59	Br	0.836143	-0.281000	0.139422
H60	H	1.297040	-0.180344	0.378945
Br61	Br	1.352090	0.433138	0.274790
Br62	Br	1.308700	-0.009130	0.357334
H63	H	0.886116	-0.136474	0.230352
Br64	Br	1.592175	0.051004	0.354882
Br65	Br	1.164314	0.025851	0.157380
H66	H	1.411687	-0.257410	0.620171
Br67	Br	1.594408	0.050915	0.645008
H68	H	1.375263	-0.019242	0.621606
H69	H	1.085429	-0.239153	0.137597
Br70	Br	1.766995	-0.067226	0.648093
H71	H	1.106066	-0.142985	-0.230999
Br72	Br	1.098565	-0.286534	-0.133154
