data_functionalizedCrystal
_audit_creation_method	'MofGen! by Chris Wilmer'
_symmetry_space_group_name_H-M	'P1'
_symmetry_Int_Tables_number	1
_symmetry_cell_setting	triclinic
loop_
_symmetry_equiv_pos_as_xyz
  x,y,z
_cell_length_a	13.262508
_cell_length_b	8.559649
_cell_length_c	7.681481
_cell_angle_alpha	85.086760
_cell_angle_beta	100.048420
_cell_angle_gamma	102.604399
loop_
_atom_site_label
_atom_site_type_symbol
_atom_site_fract_x
_atom_site_fract_y
_atom_site_fract_z
O1	O	-0.023581	-2.103702	-0.157694
O2	O	0.028689	-1.641426	-0.132669
O3	O	-0.145769	-1.876970	-0.216210
O4	O	0.150877	-1.868158	-0.074153
O5	O	-0.167285	-1.905959	0.066344
O6	O	0.007173	-1.670415	0.149885
O7	O	-0.045097	-2.132691	0.124860
Zn8	Zn	-0.022378	-1.906155	0.182234
Zn9	Zn	0.005970	-1.867961	-0.190043
O10	O	0.129361	-1.897147	0.208401
C11	C	0.021892	-1.596612	0.010504
C12	C	0.033683	-1.419893	0.016148
C13	C	-0.194152	-1.888304	-0.092955
C14	C	-0.306262	-1.878869	-0.146653
C15	C	-0.038300	-2.177504	-0.018317
C16	C	-0.050090	-2.354222	-0.023972
C17	C	-0.669209	-1.915475	0.318081
C18	C	-0.563875	-1.924327	0.368536
C19	C	-0.499467	-1.912964	0.239743
C20	C	-0.540403	-1.892746	0.060487
C21	C	-0.645746	-1.883880	0.010028
C22	C	-0.476003	-1.881369	-0.068311
C23	C	-0.516940	-1.861151	-0.247567
C24	C	-0.622273	-1.852288	-0.298018
C25	C	-0.686681	-1.863651	-0.169225
C26	C	-0.370660	-1.890235	-0.017851
C27	C	-0.347197	-1.858640	-0.325905
C28	C	-0.452532	-1.849788	-0.376360
C29	C	0.177745	-1.885812	0.085142
C30	C	0.289855	-1.895246	0.138829
N31	N	-0.041727	-1.932234	0.436303
N32	N	0.025310	-1.841895	-0.444117
H33	H	-0.337338	-1.906682	0.128102
F34	F	0.114748	-1.721357	0.500426
H35	H	-0.110150	-2.024470	0.478744
H36	H	-0.772456	-1.856452	-0.210297
F37	F	-0.387359	-1.922382	0.293447
F38	F	-0.155628	-1.457442	-0.074521
H39	H	-0.530554	-1.940806	0.514486
H40	H	-0.721657	-1.924714	0.422926
F41	F	-0.496113	-1.828274	-0.567135
F42	F	-0.665835	-1.830749	-0.488797
H43	H	-0.294754	-1.849375	-0.430779
H44	H	0.114432	-1.340910	0.054807
