data_functionalizedCrystal
_audit_creation_method	'MofGen! by Chris Wilmer'
_symmetry_space_group_name_H-M	'P1'
_symmetry_Int_Tables_number	1
_symmetry_cell_setting	triclinic
loop_
_symmetry_equiv_pos_as_xyz
  x,y,z
_cell_length_a	17.077404
_cell_length_b	19.805405
_cell_length_c	17.077396
_cell_angle_alpha	90.031650
_cell_angle_beta	90.019501
_cell_angle_gamma	90.026635
loop_
_atom_site_label
_atom_site_type_symbol
_atom_site_fract_x
_atom_site_fract_y
_atom_site_fract_z
Zn1	Zn	1.200035	-0.269459	0.443825
Zn2	Zn	1.450035	-0.019459	0.693825
Zn3	Zn	1.700035	0.230541	0.943825
Zn4	Zn	1.950035	0.480541	1.193825
Zn5	Zn	1.199934	-0.382652	0.312552
Zn6	Zn	1.449934	-0.132652	0.562552
Zn7	Zn	1.699934	0.117348	0.812552
Zn8	Zn	1.949934	0.367348	1.062552
Zn9	Zn	1.068767	-0.269483	0.312573
Zn10	Zn	1.318767	-0.019483	0.562573
Zn11	Zn	1.568767	0.230517	0.812573
Zn12	Zn	1.818767	0.480517	1.062573
Zn13	Zn	1.068727	-0.382612	0.443776
Zn14	Zn	1.318727	-0.132612	0.693776
Zn15	Zn	1.568727	0.117388	0.943776
Zn16	Zn	1.818727	0.367388	1.193776
O17	O	1.134366	-0.326052	0.378182
O18	O	1.384366	-0.076052	0.628182
O19	O	1.634366	0.173948	0.878182
O20	O	1.884366	0.423948	1.128182
O21	O	1.309869	-0.284481	0.426424
O22	O	1.559869	-0.034481	0.676424
O23	O	1.809869	0.215519	0.926424
O24	O	2.059869	0.465519	1.176424
O25	O	1.182509	-0.367667	0.202708
O26	O	1.432509	-0.117667	0.452708
O27	O	1.682509	0.132333	0.702708
O28	O	1.932509	0.382333	0.952708
O29	O	1.086239	-0.174763	0.330014
O30	O	1.336239	0.075237	0.580014
O31	O	1.586239	0.325237	0.830014
O32	O	1.836239	0.575237	1.080014
O33	O	1.309795	-0.367644	0.329978
O34	O	1.559795	-0.117644	0.579978
O35	O	1.809795	0.132356	0.829978
O36	O	2.059795	0.382356	1.079978
O37	O	1.182681	-0.174746	0.426444
O38	O	1.432681	0.075254	0.676444
O39	O	1.682681	0.325254	0.926444
O40	O	1.932681	0.575254	1.176444
O41	O	1.086141	-0.284522	0.202724
O42	O	1.336141	-0.034522	0.452724
O43	O	1.586141	0.215478	0.702724
O44	O	1.836141	0.465478	0.952724
O45	O	0.958915	-0.284483	0.329966
O46	O	1.208915	-0.034483	0.579966
O47	O	1.458915	0.215517	0.829966
O48	O	1.708915	0.465517	1.079966
O49	O	1.086171	-0.367575	0.553629
O50	O	1.336171	-0.117575	0.803629
O51	O	1.586171	0.132425	1.053629
O52	O	1.836171	0.382425	1.303629
O53	O	0.958886	-0.367598	0.426360
O54	O	1.208886	-0.117598	0.676360
O55	O	1.458886	0.132402	0.926360
O56	O	1.708886	0.382402	1.176360
O57	O	1.182643	-0.284442	0.553666
O58	O	1.432643	-0.034442	0.803666
O59	O	1.682643	0.215558	1.053666
O60	O	1.932643	0.465558	1.303666
O61	O	1.182470	-0.477363	0.329930
O62	O	1.432470	-0.227363	0.579930
O63	O	1.682470	0.022637	0.829930
O64	O	1.932470	0.272637	1.079930
O65	O	1.086073	-0.477334	0.426339
O66	O	1.336073	-0.227334	0.676339
O67	O	1.586073	0.022666	0.926339
O68	O	1.836073	0.272666	1.176339
C69	C	0.930418	-0.326039	0.378160
C70	C	1.180418	-0.076039	0.628160
C71	C	1.430418	0.173961	0.878160
C72	C	1.680418	0.423961	1.128160
C73	C	0.843168	-0.326050	0.378169
C74	C	1.093168	-0.076050	0.628169
C75	C	1.343168	0.173950	0.878169
C76	C	1.593168	0.423950	1.128169
C77	C	0.802183	-0.369394	0.428281
C78	C	1.052183	-0.119394	0.678281
C79	C	1.302183	0.130606	0.928281
C80	C	1.552183	0.380606	1.178281
C81	C	0.720203	-0.369395	0.428294
C82	C	0.970203	-0.119395	0.678294
C83	C	1.220203	0.130605	0.928294
C84	C	1.470203	0.380605	1.178294
C85	C	0.679209	-0.326056	0.378190
C86	C	0.929209	-0.076056	0.628190
C87	C	1.179209	0.173944	0.878190
C88	C	1.429209	0.423944	1.128190
C89	C	0.720200	-0.282708	0.328076
C90	C	0.970200	-0.032708	0.578076
C91	C	1.220200	0.217292	0.828076
C92	C	1.470200	0.467292	1.078076
C93	C	0.802179	-0.282703	0.328068
C94	C	1.052179	-0.032703	0.578068
C95	C	1.302179	0.217297	0.828068
C96	C	1.552179	0.467297	1.078068
C97	C	0.549330	-0.282721	0.328095
C98	C	0.799330	-0.032721	0.578095
C99	C	1.049330	0.217279	0.828095
C100	C	1.299330	0.467279	1.078095
C101	C	0.467345	-0.282726	0.328102
C102	C	0.717345	-0.032726	0.578102
C103	C	0.967345	0.217274	0.828102
C104	C	1.217345	0.467274	1.078102
C105	C	0.467354	-0.369413	0.428321
C106	C	0.717354	-0.119413	0.678321
C107	C	0.967354	0.130587	0.928321
C108	C	1.217354	0.380587	1.178321
C109	C	0.549333	-0.369409	0.428313
C110	C	0.799333	-0.119409	0.678313
C111	C	1.049333	0.130591	0.928313
C112	C	1.299333	0.380591	1.178313
C113	C	0.590318	-0.326061	0.378197
C114	C	0.840318	-0.076061	0.628197
C115	C	1.090318	0.173939	0.878197
C116	C	1.340318	0.423939	1.128197
C117	C	1.134278	-0.501908	0.378144
C118	C	1.384278	-0.251908	0.628144
C119	C	1.634278	-0.001908	0.878144
C120	C	1.884278	0.248092	1.128144
C121	C	1.134312	-0.577140	0.378154
C122	C	1.384312	-0.327140	0.628154
C123	C	1.634312	-0.077140	0.878154
C124	C	1.884312	0.172860	1.128154
C125	C	1.184555	-0.612477	0.328006
C126	C	1.434555	-0.362477	0.578006
C127	C	1.684555	-0.112477	0.828006
C128	C	1.934555	0.137523	1.078006
C129	C	1.184588	-0.683165	0.328023
C130	C	1.434588	-0.433165	0.578023
C131	C	1.684588	-0.183165	0.828023
C132	C	1.934588	0.066835	1.078023
C133	C	1.134374	-0.718515	0.378185
C134	C	1.384374	-0.468515	0.628185
C135	C	1.634374	-0.218515	0.878185
C136	C	1.884374	0.031485	1.128185
C137	C	1.084129	-0.683173	0.428338
C138	C	1.334129	-0.433173	0.678338
C139	C	1.584129	-0.183173	0.928338
C140	C	1.834129	0.066827	1.178338
C141	C	1.084100	-0.612486	0.428324
C142	C	1.334100	-0.362486	0.678324
C143	C	1.584100	-0.112486	0.928324
C144	C	1.834100	0.137514	1.178324
C145	C	1.084245	-0.968246	0.428397
C146	C	1.334245	-0.718246	0.678397
C147	C	1.584245	-0.468246	0.928397
C148	C	1.834245	-0.218246	1.178397
C149	C	1.084276	-1.038938	0.428405
C150	C	1.334276	-0.788938	0.678405
C151	C	1.584276	-0.538938	0.928405
C152	C	1.834276	-0.288938	1.178405
C153	C	1.184733	-1.038925	0.328095
C154	C	1.434733	-0.788925	0.578095
C155	C	1.684733	-0.538925	0.828095
C156	C	1.934733	-0.288925	1.078095
C157	C	1.184704	-0.968238	0.328081
C158	C	1.434704	-0.718238	0.578081
C159	C	1.684704	-0.468238	0.828081
C160	C	1.934704	-0.218238	1.078081
C161	C	1.134462	-0.932902	0.378237
C162	C	1.384462	-0.682902	0.628237
C163	C	1.634462	-0.432902	0.878237
C164	C	1.884462	-0.182902	1.128237
C165	C	1.134427	-0.856254	0.378219
C166	C	1.384427	-0.606254	0.628219
C167	C	1.634427	-0.356254	0.878219
C168	C	1.884427	-0.106254	1.128219
C169	C	1.134404	-0.795162	0.378200
C170	C	1.384404	-0.545162	0.628200
C171	C	1.634404	-0.295162	0.878200
C172	C	1.884404	-0.045162	1.128200
C173	C	1.339110	-0.326064	0.378204
C174	C	1.589110	-0.076064	0.628204
C175	C	1.839110	0.173936	0.878204
C176	C	2.089110	0.423936	1.128204
C177	C	1.426360	-0.326070	0.378213
C178	C	1.676360	-0.076070	0.628213
C179	C	1.926360	0.173930	0.878213
C180	C	2.176360	0.423930	1.128213
C181	C	1.134414	-0.326002	0.582926
C182	C	1.384414	-0.076002	0.832926
C183	C	1.634414	0.173998	1.082926
C184	C	1.884414	0.423998	1.332926
C185	C	1.134434	-0.325980	0.670176
C186	C	1.384434	-0.075980	0.920176
C187	C	1.634434	0.174020	1.170176
C188	C	1.884434	0.424020	1.420176
C189	C	1.134476	-0.149509	0.378237
C190	C	1.384476	0.100491	0.628237
C191	C	1.634476	0.350491	0.878237
C192	C	1.884476	0.600491	1.128237
C193	C	1.134523	-0.074277	0.378261
C194	C	1.384523	0.175723	0.628261
C195	C	1.634523	0.425723	0.878261
C196	C	1.884523	0.675723	1.128261
C197	C	1.134364	-0.326052	0.174234
C198	C	1.384364	-0.076052	0.424234
C199	C	1.634364	0.173948	0.674234
C200	C	1.884364	0.423948	0.924234
C201	C	1.134496	-0.325883	0.086984
C202	C	1.384496	-0.075883	0.336984
C203	C	1.634496	0.174117	0.586984
C204	C	1.884496	0.424117	0.836984
C205	C	1.184668	-0.282690	0.711186
C206	C	1.434668	-0.032690	0.961186
C207	C	1.684668	0.217310	1.211186
C208	C	1.934668	0.467310	1.461186
C209	C	1.184678	-0.282667	0.793167
C210	C	1.434678	-0.032667	1.043167
C211	C	1.684678	0.217333	1.293167
C212	C	1.934678	0.467333	1.543167
C213	C	1.134456	-0.325939	0.834135
C214	C	1.384456	-0.075939	1.084135
C215	C	1.634456	0.174061	1.334135
C216	C	1.884456	0.424061	1.584135
C217	C	1.084216	-0.369232	0.793119
C218	C	1.334216	-0.119232	1.043119
C219	C	1.584216	0.130768	1.293119
C220	C	1.834216	0.380768	1.543119
C221	C	1.084203	-0.369251	0.711140
C222	C	1.334203	-0.119251	0.961140
C223	C	1.584203	0.130749	1.211140
C224	C	1.834203	0.380749	1.461140
C225	C	1.084248	-0.369191	0.963989
C226	C	1.334248	-0.119191	1.213989
C227	C	1.584248	0.130809	1.463989
C228	C	1.834248	0.380809	1.713989
C229	C	1.084261	-0.369174	1.045974
C230	C	1.334261	-0.119174	1.295974
C231	C	1.584261	0.130826	1.545974
C232	C	1.834261	0.380826	1.795974
C233	C	1.184722	-0.282608	1.046016
C234	C	1.434722	-0.032608	1.296016
C235	C	1.684722	0.217392	1.546016
C236	C	1.934722	0.467392	1.796016
C237	C	1.184709	-0.282626	0.964037
C238	C	1.434709	-0.032626	1.214037
C239	C	1.684709	0.217374	1.464037
C240	C	1.934709	0.467374	1.714037
C241	C	1.134470	-0.325920	0.923026
C242	C	1.384470	-0.075920	1.173026
C243	C	1.634470	0.174080	1.423026
C244	C	1.884470	0.424080	1.673026
H245	H	0.686816	-0.247417	0.287284
H246	H	0.936816	0.002583	0.537284
H247	H	1.186816	0.252583	0.787284
H248	H	1.436816	0.502583	1.037284
H249	H	0.835548	-0.247405	0.287266
H250	H	1.085548	0.002595	0.537266
H251	H	1.335548	0.252595	0.787266
H252	H	1.585548	0.502595	1.037266
Br253	Br	1.252875	-0.223905	0.908437
Br254	Br	1.502875	0.026095	1.158437
Br255	Br	1.752875	0.276095	1.408437
Br256	Br	2.002875	0.526095	1.658437
H257	H	0.433970	-0.247428	0.287312
H258	H	0.683970	0.002572	0.537312
H259	H	0.933970	0.252572	0.787312
H260	H	1.183970	0.502572	1.037312
Br261	Br	1.252893	-0.223944	0.848821
Br262	Br	1.502893	0.026056	1.098821
Br263	Br	1.752893	0.276056	1.348821
Br264	Br	2.002893	0.526056	1.598821
H265	H	1.043247	-0.711961	0.469184
H266	H	1.293247	-0.461961	0.719184
H267	H	1.543247	-0.211961	0.969184
H268	H	1.793247	0.038039	1.219184
H269	H	1.043322	-0.404463	0.826482
H270	H	1.293322	-0.154463	1.076482
H271	H	1.543322	0.095537	1.326482
H272	H	1.793322	0.345537	1.576482
H273	H	1.043188	-0.583715	0.469161
H274	H	1.293188	-0.333715	0.719161
H275	H	1.543188	-0.083715	0.969161
H276	H	1.793188	0.166285	1.219161
H277	H	1.043325	-0.404435	0.930601
H278	H	1.293325	-0.154435	1.180601
H279	H	1.543325	0.095565	1.430601
H280	H	1.793325	0.345565	1.680601
H281	H	1.043289	-0.404496	0.677751
H282	H	1.293289	-0.154496	0.927751
H283	H	1.543289	0.095504	1.177751
H284	H	1.793289	0.345504	1.427751
H285	H	1.225628	-0.247355	1.079411
H286	H	1.475628	0.002645	1.329411
H287	H	1.725628	0.252645	1.579411
H288	H	1.975628	0.502645	1.829411
Br289	Br	1.252699	-0.564508	0.259918
Br290	Br	1.502699	-0.314508	0.509918
Br291	Br	1.752699	-0.064508	0.759918
Br292	Br	2.002699	0.185492	1.009918
H293	H	1.043334	-0.939481	0.469234
H294	H	1.293334	-0.689481	0.719234
H295	H	1.543334	-0.439481	0.969234
H296	H	1.793334	-0.189481	1.219234
Br297	Br	1.252836	-0.223965	0.655594
Br298	Br	1.502836	0.026035	0.905594
Br299	Br	1.752836	0.276035	1.155594
Br300	Br	2.002836	0.526035	1.405594
Br301	Br	1.016095	-0.427894	1.101574
Br302	Br	1.266095	-0.177894	1.351574
Br303	Br	1.516095	0.072106	1.601574
Br304	Br	1.766095	0.322106	1.851574
H305	H	0.686837	-0.404691	0.469099
H306	H	0.936837	-0.154691	0.719099
H307	H	1.186837	0.095309	0.969099
H308	H	1.436837	0.345309	1.219099
Br309	Br	0.857810	-0.428220	0.496277
Br310	Br	1.107810	-0.178220	0.746277
Br311	Br	1.357810	0.071780	0.996277
Br312	Br	1.607810	0.321780	1.246277
H313	H	0.582708	-0.404703	0.469107
H314	H	0.832708	-0.154703	0.719107
H315	H	1.082708	0.095297	0.969107
H316	H	1.332708	0.345297	1.219107
Br317	Br	0.604952	-0.223890	0.260082
Br318	Br	0.854952	0.026110	0.510082
Br319	Br	1.104952	0.276110	0.760082
Br320	Br	1.354952	0.526110	1.010082
Br321	Br	1.252783	-0.731120	0.259967
Br322	Br	1.502783	-0.481120	0.509967
Br323	Br	1.752783	-0.231120	0.759967
Br324	Br	2.002783	0.018880	1.009967
Br325	Br	1.016123	-1.086914	0.496486
Br326	Br	1.266123	-0.836914	0.746486
Br327	Br	1.516123	-0.586914	0.996486
Br328	Br	1.766123	-0.336914	1.246486
H329	H	0.433980	-0.404706	0.469128
H330	H	0.683980	-0.154706	0.719128
H331	H	0.933980	0.095294	0.969128
H332	H	1.183980	0.345294	1.219128
H333	H	1.225590	-0.939458	0.287232
H334	H	1.475590	-0.689458	0.537232
H335	H	1.725590	-0.439458	0.787232
H336	H	1.975590	-0.189458	1.037232
H337	H	1.225645	-1.067704	0.287259
H338	H	1.475645	-0.817704	0.537259
H339	H	1.725645	-0.567704	0.787259
H340	H	1.975645	-0.317704	1.037259
