data_functionalizedCrystal
_audit_creation_method	'MofGen! by Chris Wilmer'
_symmetry_space_group_name_H-M	'P1'
_symmetry_Int_Tables_number	1
_symmetry_cell_setting	triclinic
loop_
_symmetry_equiv_pos_as_xyz
  x,y,z
_cell_length_a	20.016444
_cell_length_b	12.970454
_cell_length_c	12.970454
_cell_angle_alpha	59.999776
_cell_angle_beta	90.001047
_cell_angle_gamma	60.002422
loop_
_atom_site_label
_atom_site_type_symbol
_atom_site_fract_x
_atom_site_fract_y
_atom_site_fract_z
Zr1	Zr	0.643581	1.128568	-0.135306
O2	O	0.536909	1.343650	-0.299931
O3	O	0.676281	0.913480	-0.084839
O4	O	0.676282	1.128569	-0.299930
O5	O	0.536908	1.128561	0.084826
O6	O	0.786222	1.128577	-0.299930
O7	O	0.536908	1.128560	-0.084840
O8	O	0.786221	0.743821	0.084828
O9	O	0.536910	1.513317	-0.299932
O10	O	0.772275	1.001957	-0.063317
O11	O	0.690227	1.001951	0.063304
O12	O	0.690228	1.255192	-0.189938
O13	O	0.608181	1.255186	-0.063318
Zr14	Zr	0.818921	1.128582	0.135292
Zr15	Zr	0.818922	1.128581	-0.135307
Zr16	Zr	0.643580	1.128569	0.135292
Zr17	Zr	0.643581	1.399168	-0.135308
Zr18	Zr	0.818921	0.857982	0.135293
O19	O	0.786221	1.343670	0.084825
O20	O	0.786222	1.343668	-0.299931
O21	O	0.536908	1.343652	0.084825
O22	O	0.925593	0.913500	0.299916
O23	O	0.925594	0.913498	-0.084840
O24	O	0.676280	0.913482	0.299917
O25	O	0.925594	1.128589	-0.084841
O26	O	0.786220	1.128581	0.299916
O27	O	0.676280	1.128572	0.299916
O28	O	0.925594	1.128590	0.084826
O29	O	0.676283	1.513327	-0.299932
O30	O	0.786220	0.743822	0.299918
O31	O	0.925593	0.743833	0.299917
O32	O	0.925594	0.743831	0.084828
O33	O	0.536909	1.513318	-0.084842
O34	O	0.676282	1.513329	-0.084842
O35	O	0.772274	1.001958	0.189924
O36	O	0.854321	1.001963	0.063303
O37	O	0.772275	1.255198	-0.063318
O38	O	0.690227	1.255193	0.063302
C39	C	0.731251	0.790096	-0.000006
C40	C	0.731251	0.675219	-0.000005
C41	C	0.511926	1.128559	-0.000007
C42	C	0.437489	1.128553	-0.000007
C43	C	0.309049	0.996384	0.066091
C44	C	0.239104	0.996390	0.066094
C45	C	0.153455	1.260776	-0.066108
C46	C	0.223399	1.260768	-0.066103
C47	C	0.301196	1.128568	-0.000006
C48	C	0.161306	1.128582	-0.000008
C49	C	0.085468	1.128589	-0.000005
C50	C	0.377039	1.128560	-0.000007
C51	C	0.950576	1.128591	-0.000008
C52	C	1.025013	1.128597	-0.000008
C53	C	0.731253	1.128573	-0.338485
C54	C	0.731253	1.128572	-0.453361
C55	C	0.731251	1.467054	-0.000009
C56	C	0.731251	1.581931	-0.000010
C57	C	0.731250	1.128577	0.338470
C58	C	0.731249	1.128577	0.453346
C59	C	0.950576	0.790112	-0.000006
C60	C	1.025013	0.675241	-0.000006
C61	C	0.731249	0.790097	0.338472
C62	C	0.731249	0.675221	0.453349
C63	C	0.950575	0.790114	0.338472
C64	C	1.025011	0.675243	0.453348
C65	C	0.511927	1.467036	-0.338486
C66	C	0.437491	1.581907	-0.453363
C67	C	0.511926	1.467038	-0.000009
C68	C	0.437489	1.581909	-0.000009
C69	C	0.731253	1.467052	-0.338486
C70	C	0.731253	1.581928	-0.453363
C71	C	1.017142	0.621292	-0.066111
C72	C	1.087077	0.513373	-0.066136
C73	C	1.164882	0.459398	-0.000047
C74	C	1.172751	0.513356	0.066060
C75	C	1.102817	0.621281	0.066077
C76	C	1.102803	0.621301	0.441201
C77	C	1.172750	0.513383	0.549129
C78	C	1.164905	0.459401	0.669204
C79	C	1.087105	0.513354	0.681349
C80	C	1.017159	0.621277	0.573421
C81	C	0.359699	1.635862	-0.441215
C82	C	0.289752	1.743813	-0.549144
C83	C	0.297597	1.797801	-0.669218
C84	C	0.375397	1.743842	-0.681363
C85	C	0.445343	1.635899	-0.573436
C86	C	0.445360	1.635869	0.066085
C87	C	0.375425	1.743817	0.066080
C88	C	0.297620	1.797797	-0.000012
C89	C	0.289751	1.743833	-0.066115
C90	C	0.359685	1.635894	-0.066116
H91	H	0.372392	0.888738	0.119925
Br92	Br	0.911559	0.694525	-0.155818
Br93	Br	0.911588	0.694464	0.589930
H94	H	0.240682	1.885688	-0.000001
H95	H	1.109238	0.665192	0.119915
H96	H	0.216999	1.368415	-0.119924
H97	H	1.109206	0.665237	0.343440
H98	H	0.381848	1.787737	0.119914
Br99	Br	0.047873	1.440182	-0.155806
Br100	Br	0.202661	1.944296	-0.815681
Br101	Br	0.550943	1.562639	0.155789
H102	H	1.080729	0.469386	0.779128
Br103	Br	0.550914	1.562681	-0.589945
H104	H	0.226393	1.787800	-0.119925
H105	H	1.080654	0.469453	-0.119968
Br106	Br	0.249766	0.816989	0.155813
H107	H	0.381775	1.787812	-0.779141
H108	H	1.221866	0.371523	0.757075
Br109	Br	1.278325	0.440182	0.532617
H110	H	1.221820	0.371517	-0.000070
H111	H	0.353265	1.591963	-0.119935
Br112	Br	0.184177	1.817018	-0.532632
Br113	Br	1.278351	0.440084	0.155751
Br114	Br	0.349029	1.562612	-0.278271
