data_functionalizedCrystal
_audit_creation_method	'MofGen! by Chris Wilmer'
_symmetry_space_group_name_H-M	'P1'
_symmetry_Int_Tables_number	1
_symmetry_cell_setting	triclinic
loop_
_symmetry_equiv_pos_as_xyz
  x,y,z
_cell_length_a	14.908618
_cell_length_b	19.121266
_cell_length_c	19.122798
_cell_angle_alpha	85.292881
_cell_angle_beta	90.804463
_cell_angle_gamma	89.274997
loop_
_atom_site_label
_atom_site_type_symbol
_atom_site_fract_x
_atom_site_fract_y
_atom_site_fract_z
Zn1	Zn	-1.334521	0.359403	-0.472299
Zn2	Zn	-0.834521	0.859403	0.027701
Zn3	Zn	-1.334298	0.472145	-0.359695
Zn4	Zn	-0.834298	0.972145	0.140305
Zn5	Zn	-1.190917	0.347770	-0.347947
Zn6	Zn	-0.690917	0.847770	0.152053
Zn7	Zn	-1.177762	0.469661	-0.469954
Zn8	Zn	-0.677762	0.969661	0.030046
O9	O	-1.259375	0.412245	-0.412474
O10	O	-0.759375	0.912245	0.087526
O11	O	-1.460102	0.380266	-0.463260
O12	O	-0.960102	0.880266	0.036740
O13	O	-1.320690	0.451818	-0.259952
O14	O	-0.820690	0.951818	0.240048
O15	O	-1.215565	0.251118	-0.360508
O16	O	-0.715565	0.751118	0.139492
O17	O	-1.459938	0.463098	-0.380530
O18	O	-0.959938	0.963098	0.119470
O19	O	-1.321071	0.259665	-0.451868
O20	O	-0.821071	0.759665	0.048132
O21	O	-1.215348	0.360440	-0.251321
O22	O	-0.715348	0.860440	0.248679
O23	O	-1.063562	0.358031	-0.358234
O24	O	-0.563562	0.858031	0.141766
O25	O	-1.193145	0.458863	-0.568450
O26	O	-0.693145	0.958863	-0.068450
O27	O	-1.053897	0.447584	-0.447871
O28	O	-0.553897	0.947584	0.052129
O29	O	-1.308315	0.377857	-0.570173
O30	O	-0.808315	0.877857	-0.070173
O31	O	-1.307935	0.570011	-0.378256
O32	O	-0.807935	1.070011	0.121744
O33	O	-1.192929	0.568185	-0.459263
O34	O	-0.692929	1.068185	0.040737
C35	C	-1.026160	0.401276	-0.401524
C36	C	-0.526160	0.901276	0.098476
C37	C	-0.926388	0.396601	-0.396857
C38	C	-0.426388	0.896601	0.103143
C39	C	-1.269810	0.229219	-0.405139
C40	C	-0.769810	0.729219	0.094861
C41	C	-1.274257	0.151224	-0.402014
C42	C	-0.774257	0.651224	0.097986
C43	C	-0.728890	0.481202	-0.481311
C44	C	-0.228890	0.981202	0.018689
C45	C	-0.635145	0.476812	-0.476928
C46	C	-0.135145	0.976812	0.023072
C47	C	-0.645152	0.383427	-0.383712
C48	C	-0.145152	0.883427	0.116288
C49	C	-0.738897	0.387818	-0.388095
C50	C	-0.238897	0.887818	0.111905
C51	C	-0.780762	0.436707	-0.436895
C52	C	-0.280762	0.936707	0.063105
C53	C	-0.874509	0.441100	-0.441274
C54	C	-0.374509	0.941100	0.058726
C55	C	-0.884514	0.347713	-0.348062
C56	C	-0.384514	0.847713	0.151938
C57	C	-0.790769	0.343323	-0.343679
C58	C	-0.290769	0.843323	0.156321
C59	C	-1.302434	-0.289849	-0.382249
C60	C	-0.802434	0.210151	0.117751
C61	C	-1.298254	-0.216565	-0.385185
C62	C	-0.798254	0.283435	0.114815
C63	C	-1.236282	-0.180873	-0.428825
C64	C	-0.736282	0.319127	0.071175
C65	C	-1.178492	-0.218468	-0.469536
C66	C	-0.678492	0.281532	0.030464
C67	C	-1.182678	-0.291751	-0.466604
C68	C	-0.682678	0.208249	0.033396
C69	C	-1.220653	0.040346	-0.439793
C70	C	-0.720653	0.540346	0.060207
C71	C	-1.216470	0.113634	-0.442721
C72	C	-0.716470	0.613634	0.057279
C73	C	-1.336233	0.115532	-0.358370
C74	C	-0.836233	0.615532	0.141630
C75	C	-1.340410	0.042248	-0.355438
C76	C	-0.840410	0.542248	0.144562
C77	C	-1.282623	0.004659	-0.396152
C78	C	-0.782623	0.504659	0.103848
C79	C	-1.232005	-0.105965	-0.431825
C80	C	-0.732005	0.394035	0.068175
C81	C	-1.286905	-0.070247	-0.393155
C82	C	-0.786905	0.429753	0.106845
C83	C	-0.493500	0.423251	-0.423462
C84	C	0.006500	0.923251	0.076538
C85	C	-0.593272	0.427927	-0.428130
C86	C	-0.093272	0.927927	0.071870
C87	C	-1.249004	0.594560	-0.419796
C88	C	-0.749004	1.094560	0.080204
C89	C	-1.244648	0.672561	-0.422956
C90	C	-0.744648	1.172561	0.077044
C91	C	-1.269477	0.405088	-0.230178
C92	C	-0.769477	0.905088	0.269822
C93	C	-1.273961	0.401858	-0.152192
C94	C	-0.773961	0.901858	0.347808
C95	C	-1.249288	0.419381	-0.595482
C96	C	-0.749288	0.919381	-0.095482
C97	C	-1.244989	0.422421	-0.673469
C98	C	-0.744989	0.922421	-0.173469
C99	C	-1.302421	0.381429	0.288826
C100	C	-0.802421	0.881429	0.788826
C101	C	-1.298185	0.384467	0.215551
C102	C	-0.798185	0.884467	0.715551
C103	C	-1.236519	0.428501	0.179981
C104	C	-0.736519	0.928501	0.679981
C105	C	-1.179081	0.469495	0.217692
C106	C	-0.679081	0.969495	0.717692
C107	C	-1.183314	0.466453	0.290966
C108	C	-0.683314	0.966453	0.790966
C109	C	-1.220755	0.439810	-0.041207
C110	C	-0.720755	0.939810	0.458793
C111	C	-1.216528	0.442850	-0.114487
C112	C	-0.716528	0.942850	0.385513
C113	C	-1.335632	0.357821	-0.116623
C114	C	-0.835632	0.857821	0.383377
C115	C	-1.339863	0.354786	-0.043347
C116	C	-0.839863	0.854786	0.456653
C117	C	-1.282421	0.395777	-0.005643
C118	C	-0.782421	0.895777	0.494357
C119	C	-1.232189	0.431609	0.105082
C120	C	-0.732189	0.931609	0.605082
C121	C	-1.286748	0.392665	0.069256
C122	C	-0.786748	0.892665	0.569256
H123	H	-0.908594	0.480910	-0.481009
H124	H	-0.408594	0.980910	0.018991
H125	H	-1.345310	-0.185962	-0.352037
H126	H	-0.845310	0.314038	0.147963
H127	H	-1.173599	0.009747	-0.472943
H128	H	-0.673599	0.509747	0.027057
Cl129	Cl	-1.380341	-0.334712	-0.327380
Cl130	Cl	-0.880341	0.165288	0.172620
Cl131	Cl	-1.417389	0.299426	0.001363
Cl132	Cl	-0.917389	0.799426	0.501363
H133	H	-1.128037	-0.189402	-0.505072
H134	H	-0.628037	0.310598	-0.005072
Cl135	Cl	-1.148543	0.491342	0.006184
Cl136	Cl	-0.648543	0.991342	0.506184
Cl137	Cl	-0.569936	0.532749	-0.532769
Cl138	Cl	-0.069936	1.032749	-0.032769
Cl139	Cl	-1.364258	0.337302	0.113973
Cl140	Cl	-0.864258	0.837302	0.613973
Cl141	Cl	-1.154673	0.486968	0.060360
Cl142	Cl	-0.654673	0.986968	0.560360
H143	H	-0.926759	0.311484	-0.311894
H144	H	-0.426759	0.811484	0.188106
H145	H	-1.383281	0.146145	-0.325224
H146	H	-0.883281	0.646145	0.174776
Cl147	Cl	-1.418333	-0.002616	-0.300585
Cl148	Cl	-0.918333	0.497384	0.199415
H149	H	-1.166015	0.142693	-0.478270
H150	H	-0.666015	0.642693	0.021730
Cl151	Cl	-1.370427	0.332964	0.168149
Cl152	Cl	-0.870427	0.832964	0.668149
Cl153	Cl	-0.781524	0.542668	-0.542651
Cl154	Cl	-0.281524	1.042668	-0.042651
Cl155	Cl	-0.592505	0.321961	-0.322379
Cl156	Cl	-0.092505	0.821961	0.177621
H157	H	-1.382396	0.324447	-0.147330
H158	H	-0.882396	0.824447	0.352670
H159	H	-1.181546	-0.076896	-0.467355
H160	H	-0.681546	0.423104	0.032645
H161	H	-1.166310	0.478710	-0.143445
H162	H	-0.666310	0.978710	0.356555
Cl163	Cl	-1.379952	0.326072	0.333534
Cl164	Cl	-0.879952	0.826072	0.833534
Cl165	Cl	-1.110031	-0.339007	-0.517783
Cl166	Cl	-0.610031	0.160993	-0.017783
Cl167	Cl	-0.738129	0.281863	-0.282337
Cl168	Cl	-0.238129	0.781863	0.217663
H169	H	-1.337366	-0.099310	-0.357627
H170	H	-0.837366	0.400690	0.142373
H171	H	-1.128868	0.505346	0.188726
H172	H	-0.628868	1.005346	0.688726
Cl173	Cl	-1.111107	0.517986	0.338368
Cl174	Cl	-0.611107	1.017986	0.838368
