data_functionalizedCrystal
_audit_creation_method	'MofGen! by Chris Wilmer'
_symmetry_space_group_name_H-M	'P1'
_symmetry_Int_Tables_number	1
_symmetry_cell_setting	triclinic
loop_
_symmetry_equiv_pos_as_xyz
  x,y,z
_cell_length_a	11.792254
_cell_length_b	11.792241
_cell_length_c	10.268362
_cell_angle_alpha	90.003482
_cell_angle_beta	90.005938
_cell_angle_gamma	95.803993
loop_
_atom_site_label
_atom_site_type_symbol
_atom_site_fract_x
_atom_site_fract_y
_atom_site_fract_z
O1	O	0.155569	-1.506909	0.108174
O2	O	0.171602	-1.176569	0.108205
O3	O	-0.001584	-1.349748	0.108180
O4	O	0.328755	-1.333730	0.108200
O5	O	-0.001594	-1.349746	-0.108421
O6	O	0.171592	-1.176567	-0.108396
O7	O	0.155559	-1.506907	-0.108426
Cu8	Cu	0.163575	-1.341737	-0.128188
Cu9	Cu	0.163587	-1.341739	0.127967
O10	O	0.328745	-1.333728	-0.108401
C11	C	0.170590	-1.134277	-0.000092
C12	C	0.167576	-1.008263	-0.000080
N13	N	0.163566	-1.341743	-0.308354
C14	C	-0.043880	-1.348738	-0.000120
C15	C	-0.169893	-1.345718	-0.000119
C16	C	-0.272229	-1.343264	-0.000114
C17	C	-0.400616	-1.340196	-0.000102
C18	C	0.371041	-1.334738	-0.000098
C19	C	0.497054	-1.337758	-0.000091
C20	C	0.156571	-1.549199	-0.000127
C21	C	0.159586	-1.675213	-0.000130
C22	C	0.162033	-0.777551	-0.000118
C23	C	0.165112	-0.905936	-0.000097
N24	N	0.163587	-1.341742	0.308133
C25	C	0.163580	-1.341739	0.573803
C26	C	0.163587	-1.341737	0.425965
