data_functionalizedCrystal
_audit_creation_method	'MofGen! by Chris Wilmer'
_symmetry_space_group_name_H-M	'P1'
_symmetry_Int_Tables_number	1
_symmetry_cell_setting	triclinic
loop_
_symmetry_equiv_pos_as_xyz
  x,y,z
_cell_length_a	12.837943
_cell_length_b	11.792241
_cell_length_c	11.892095
_cell_angle_alpha	93.915739
_cell_angle_beta	85.689438
_cell_angle_gamma	89.511178
loop_
_atom_site_label
_atom_site_type_symbol
_atom_site_fract_x
_atom_site_fract_y
_atom_site_fract_z
O1	O	1.383703	0.288690	-0.093984
O2	O	1.081816	0.274106	-0.093991
O3	O	1.240085	0.116971	-0.093980
O4	O	1.225434	0.445825	-0.093996
O5	O	1.226889	0.130050	0.094027
O6	O	1.068620	0.287185	0.094016
O7	O	1.370507	0.301770	0.094022
Zn8	Zn	1.217468	0.296554	0.123869
Zn9	Zn	1.234855	0.279322	-0.123838
O10	O	1.212238	0.458904	0.094011
C11	C	1.036570	0.275719	0.000012
C12	C	0.921410	0.261025	0.000009
C13	C	0.681444	0.437671	0.000017
C14	C	0.573241	0.423870	0.000015
C15	C	0.596797	0.219624	0.000013
C16	C	0.705001	0.233425	0.000015
C17	C	0.747320	0.342452	0.000015
C18	C	0.855526	0.356251	0.000008
C19	C	0.879080	0.152006	0.000014
C20	C	0.770877	0.138205	0.000013
C21	C	1.232566	0.081126	0.000023
C22	C	1.229812	-0.045167	0.000022
C23	C	1.224748	-0.276394	0.000003
C24	C	1.227561	-0.147723	0.000014
C25	C	1.415753	0.300157	0.000017
C26	C	1.530913	0.314850	0.000012
C27	C	1.219756	0.494749	0.000005
C28	C	1.222512	0.621042	-0.000001
N29	N	1.205610	0.308315	0.292922
N30	N	1.246721	0.267553	-0.292891
C31	C	1.329237	0.185651	0.529579
C32	C	1.320956	0.193880	0.647920
C33	C	1.180761	0.332997	0.647948
C34	C	1.189043	0.324768	0.529607
C35	C	1.263284	0.251093	0.470427
C36	C	1.271570	0.242870	0.352083
C37	C	1.131371	0.381980	0.352113
C38	C	1.123090	0.390210	0.470454
H39	H	0.715901	0.526445	0.000015
O40	O	1.401380	0.114000	0.472260
C41	C	1.539614	-0.023053	0.484716
C42	C	1.457940	0.058026	0.549769
H43	H	1.585380	-0.068311	0.547354
H44	H	1.498447	-0.088582	0.429354
H45	H	1.595533	0.027781	0.429268
H46	H	1.401999	0.007288	0.605278
H47	H	1.499178	0.123557	0.605059
H48	H	1.332023	0.182884	0.303899
O49	O	1.108549	0.404564	0.705271
C50	C	0.970385	0.541703	0.692826
C51	C	1.052110	0.460689	0.627767
H52	H	0.924747	0.587120	0.630192
H53	H	0.914356	0.490917	0.748198
H54	H	1.011611	0.607112	0.748265
H55	H	1.010974	0.395264	0.572267
H56	H	1.108134	0.511551	0.572466
O57	O	1.050835	0.461640	0.527899
C58	C	0.868328	0.511140	0.564097
C59	C	0.950043	0.430148	0.498993
H60	H	0.786820	0.485723	0.540733
H61	H	0.873645	0.505769	0.658853
H62	H	0.884037	0.601951	0.540843
H63	H	0.934387	0.339302	0.522153
H64	H	0.944706	0.435617	0.404253
H65	H	1.077670	0.435272	0.303938
O66	O	0.509401	0.516483	-0.000038
C67	C	0.497454	0.720529	0.000031
C68	C	0.569874	0.615737	0.000063
H69	H	0.546315	0.800803	0.000136
H70	H	0.451751	0.713785	-0.078669
H71	H	0.440664	0.724577	0.078692
H72	H	0.626725	0.611624	-0.078544
H73	H	0.615503	0.622523	0.078815
H74	H	0.562315	0.130865	0.000107
O75	O	0.896463	0.462238	0.000060
C76	C	0.861676	0.663361	0.000003
C77	C	0.815180	0.543395	-0.000034
H78	H	0.795984	0.729007	-0.000097
H79	H	0.906185	0.680471	0.078702
H80	H	0.917300	0.669407	-0.078659
H81	H	0.759513	0.537263	0.078575
H82	H	0.770734	0.526338	-0.078785
H83	H	0.932729	0.074471	0.000005
O84	O	0.729726	0.032312	-0.000190
C85	C	0.628011	-0.108541	-0.097564
C86	C	0.674571	0.011396	-0.097483
H87	H	0.583389	-0.125481	-0.176204
H88	H	0.693647	-0.174284	-0.097641
H89	H	0.572463	-0.114620	-0.018847
H90	H	0.730107	0.017585	-0.176186
H91	H	0.608882	0.077082	-0.097346
H92	H	1.374660	0.140589	0.696079
