data_functionalizedCrystal
_audit_creation_method	'MofGen! by Chris Wilmer'
_symmetry_space_group_name_H-M	'P1'
_symmetry_Int_Tables_number	1
_symmetry_cell_setting	triclinic
loop_
_symmetry_equiv_pos_as_xyz
  x,y,z
_cell_length_a	10.540510
_cell_length_b	15.995350
_cell_length_c	9.016244
_cell_angle_alpha	89.997620
_cell_angle_beta	90.003796
_cell_angle_gamma	84.002843
loop_
_atom_site_label
_atom_site_type_symbol
_atom_site_fract_x
_atom_site_fract_y
_atom_site_fract_z
O1	O	1.684288	0.117873	0.123341
O2	O	1.314717	0.129017	0.123342
O3	O	1.509605	0.001617	0.123340
O4	O	1.489400	0.245273	0.123343
O5	O	1.509590	0.001625	-0.123341
O6	O	1.314702	0.129025	-0.123339
O7	O	1.684273	0.117881	-0.123339
Cu8	Cu	1.499486	0.123453	-0.145863
Cu9	Cu	1.499504	0.123444	0.145865
O10	O	1.489385	0.245281	-0.123338
C11	C	1.267417	0.128190	0.000001
C12	C	1.126502	0.125706	0.000002
C13	C	0.907830	0.214210	0.000569
C14	C	1.054389	0.216860	0.000005
C15	C	1.082375	0.079048	-0.140862
C16	C	0.935641	0.077043	-0.140971
C17	C	0.935878	0.075136	0.139551
C18	C	1.082160	0.079460	0.141404
C19	C	1.508762	-0.029579	0.000003
C20	C	1.506258	-0.122544	0.000011
C21	C	1.497265	-0.460345	0.000006
C22	C	1.358469	-0.413731	0.000559
C23	C	1.360974	-0.317026	0.000003
C24	C	1.501726	-0.292758	0.000009
C25	C	1.570176	-0.333426	-0.140855
C26	C	1.566689	-0.430083	-0.140973
C27	C	1.569574	-0.430432	0.139549
C28	C	1.569541	-0.333487	0.141411
C29	C	1.504254	-0.198045	0.000006
C30	C	1.494740	-0.555057	-0.000001
C31	C	1.731573	0.118707	0.000004
C32	C	1.872489	0.121192	0.000014
C33	C	1.490228	0.276477	0.000003
C34	C	1.492732	0.369442	0.000004
N35	N	1.499483	0.123459	-0.351049
C36	C	1.395185	0.191599	-0.414019
C37	C	1.394835	0.191403	-0.585910
C38	C	1.471131	0.035795	-0.586525
C39	C	1.470362	0.036209	-0.414581
C40	C	1.632490	0.142167	-0.414386
C41	C	1.631618	0.144131	-0.586342
N42	N	1.499518	0.123432	0.351052
H43	H	0.863831	0.249521	-0.099879
H44	H	1.516762	-0.448676	-0.246275
N45	N	1.092600	0.265215	0.133762
H46	H	1.048744	0.324419	0.130103
H47	H	1.188101	0.266973	0.133581
N48	N	1.289716	-0.279792	0.133761
H49	H	1.215843	-0.238873	0.100131
H50	H	1.349272	-0.249409	0.197089
N51	N	1.091352	0.265514	-0.133967
H52	H	1.012393	0.285315	-0.192893
H53	H	1.151858	0.228046	-0.198054
H54	H	1.297028	0.179695	-0.370840
H55	H	1.545112	-0.016187	-0.627352
N56	N	1.148357	-0.008696	0.152678
H57	H	1.198448	-0.014828	0.248253
H58	H	1.208227	-0.019897	0.065825
N59	N	0.881771	0.119298	-0.280435
H60	H	0.786106	0.118423	-0.281901
H61	H	0.920304	0.088320	-0.369958
H62	H	0.913583	0.008866	-0.147371
H63	H	1.130686	0.011942	-0.146102
N64	N	0.851335	0.261220	0.134271
H65	H	0.791720	0.311131	0.100493
H66	H	0.922036	0.281320	0.196149
N67	N	0.907792	-0.015519	0.140819
H68	H	0.854277	-0.026738	0.051496
H69	H	0.859785	-0.026983	0.234334
H70	H	1.112777	0.111457	-0.245693
N71	N	1.503357	-0.297713	0.279455
H72	H	1.547401	-0.324143	0.370032
H73	H	1.411372	-0.310149	0.278423
N74	N	1.417070	0.278139	-0.359262
H75	H	1.349113	0.320915	-0.400957
H76	H	1.503838	0.292059	-0.392792
N77	N	1.119479	0.124409	0.279452
H78	H	1.164918	0.174521	0.250534
H79	H	1.178057	0.084693	0.341922
N80	N	1.660174	0.229537	-0.640367
H81	H	1.587853	0.254721	-0.705131
H82	H	1.741959	0.223501	-0.699565
N83	N	0.879148	0.113287	0.280987
H84	H	0.811771	0.160816	0.256036
H85	H	0.948515	0.135587	0.342111
H86	H	1.303000	-0.432593	0.101576
H87	H	1.673582	-0.318689	-0.146089
N88	N	1.264109	0.175386	-0.640452
H89	H	1.206487	0.168421	-0.552798
H90	H	1.271258	0.122507	-0.702425
H91	H	1.303234	-0.433648	-0.099894
N92	N	1.289215	-0.280526	-0.133981
H93	H	1.255837	-0.327268	-0.192917
H94	H	1.348455	-0.250325	-0.198052
N95	N	1.344158	0.013674	-0.643596
H96	H	1.304851	0.060291	-0.709870
H97	H	1.285467	0.006330	-0.557094
N98	N	1.341899	0.014598	-0.361489
H99	H	1.272874	0.057624	-0.400195
H100	H	1.340228	0.014638	-0.249490
N101	N	1.739206	0.082756	-0.643180
H102	H	1.724797	0.023929	-0.611462
H103	H	1.822740	0.097689	-0.601120
N104	N	1.701660	-0.472009	-0.149443
H105	H	1.763157	-0.427679	-0.153092
H106	H	1.711813	-0.507831	-0.241774
H107	H	1.543467	-0.016078	-0.372921
H108	H	1.659884	0.204776	-0.371033
H109	H	1.411663	0.256511	-0.628118
H110	H	1.710100	0.092491	-0.373651
H111	H	1.522621	-0.305322	-0.245685
H112	H	1.524201	-0.451244	0.246316
H113	H	1.672183	-0.317519	0.149921
H114	H	1.671907	-0.461589	0.140500
