data_functionalizedCrystal
_audit_creation_method	'MofGen! by Chris Wilmer'
_symmetry_space_group_name_H-M	'P1'
_symmetry_Int_Tables_number	1
_symmetry_cell_setting	triclinic
loop_
_symmetry_equiv_pos_as_xyz
  x,y,z
_cell_length_a	14.519710
_cell_length_b	14.519709
_cell_length_c	13.596369
_cell_angle_alpha	90.006934
_cell_angle_beta	89.995619
_cell_angle_gamma	96.319855
loop_
_atom_site_label
_atom_site_type_symbol
_atom_site_fract_x
_atom_site_fract_y
_atom_site_fract_z
O1	O	1.223868	-0.120893	-0.081772
O2	O	1.557202	0.212441	0.251561
O3	O	1.890535	0.545774	0.584895
O4	O	0.955392	-0.135129	-0.081779
O5	O	1.288725	0.198204	0.251554
O6	O	1.622058	0.531537	0.584888
O7	O	1.096748	0.006227	-0.081766
O8	O	1.430082	0.339561	0.251567
O9	O	1.763415	0.672894	0.584900
O10	O	1.082512	-0.262249	-0.081785
O11	O	1.415845	0.071084	0.251549
O12	O	1.749178	0.404417	0.584882
O13	O	1.096734	0.006235	0.081816
O14	O	1.430067	0.339568	0.415150
O15	O	1.763401	0.672902	0.748483
O16	O	0.955377	-0.135122	0.081804
O17	O	1.288711	0.198212	0.415137
O18	O	1.622044	0.531545	0.748471
O19	O	1.223854	-0.120885	0.081811
O20	O	1.557188	0.212448	0.415144
O21	O	1.890521	0.545781	0.748478
Zn22	Zn	1.089614	-0.128002	0.107780
Zn23	Zn	1.422947	0.205331	0.441113
Zn24	Zn	1.756280	0.538664	0.774446
Zn25	Zn	1.089632	-0.128012	-0.107748
Zn26	Zn	1.422966	0.205321	0.225585
Zn27	Zn	1.756299	0.538654	0.558919
O28	O	1.082498	-0.262242	0.081798
O29	O	1.415831	0.071091	0.415132
O30	O	1.749164	0.404425	0.748465
C31	C	1.096078	0.040591	0.000025
C32	C	1.429411	0.373924	0.333358
C33	C	1.762744	0.707258	0.666692
C34	C	1.094090	0.142972	0.000026
C35	C	1.427423	0.476306	0.333359
C36	C	1.760756	0.809639	0.666692
C37	C	0.921025	-0.134462	0.000012
C38	C	1.254358	0.198871	0.333345
C39	C	1.587691	0.532205	0.666678
C40	C	0.818643	-0.132474	0.000009
C41	C	1.151977	0.200859	0.333343
C42	C	1.485310	0.534193	0.666676
C43	C	1.258221	-0.121553	0.000018
C44	C	1.591554	0.211781	0.333351
C45	C	1.924888	0.545114	0.666685
C46	C	1.360602	-0.123541	0.000014
C47	C	1.693936	0.209793	0.333347
C48	C	2.027269	0.543126	0.666681
C49	C	1.735498	-0.130860	0.000013
C50	C	2.068832	0.202473	0.333346
C51	C	2.402165	0.535807	0.666680
C52	C	1.631190	-0.128828	0.000013
C53	C	1.964524	0.204506	0.333346
C54	C	2.297857	0.537839	0.666680
C55	C	1.548054	-0.127201	0.000013
C56	C	1.881387	0.206133	0.333346
C57	C	2.214720	0.539466	0.666679
C58	C	1.443739	-0.125168	0.000014
C59	C	1.777072	0.208166	0.333348
C60	C	2.110406	0.541499	0.666681
C61	C	1.083168	-0.296606	0.000005
C62	C	1.416501	0.036728	0.333338
C63	C	1.749835	0.370061	0.666671
C64	C	1.085156	-0.398987	-0.000002
C65	C	1.418490	-0.065653	0.333331
C66	C	1.751823	0.267680	0.666664
N67	N	1.089608	-0.127995	0.254872
N68	N	1.422941	0.205338	0.588205
N69	N	1.756274	0.538672	0.921538
C70	C	1.086770	0.517868	-0.000000
C71	C	1.420103	0.851201	0.333333
C72	C	1.753437	1.184535	0.666667
C73	C	1.088803	0.413560	0.000007
C74	C	1.422136	0.746893	0.333341
C75	C	1.755469	1.080227	0.666674
C76	C	1.090430	0.330423	0.000014
C77	C	1.423763	0.663757	0.333347
C78	C	1.757096	0.997090	0.666680
C79	C	1.092463	0.226109	0.000019
C80	C	1.425796	0.559442	0.333353
C81	C	1.759129	0.892776	0.666686
N82	N	1.089645	-0.128012	-0.254840
N83	N	1.422979	0.205321	0.078494
N84	N	1.756312	0.538654	0.411827
C85	C	1.089631	-0.128013	0.656162
C86	C	1.422964	0.205320	0.989496
C87	C	1.756298	0.538653	1.322829
C88	C	1.089622	-0.128011	0.544511
C89	C	1.422955	0.205322	0.877844
C90	C	1.756288	0.538655	1.211178
C91	C	1.089620	-0.128005	0.455521
C92	C	1.422953	0.205329	0.788854
C93	C	1.756286	0.538662	1.122187
C94	C	1.089610	-0.128001	0.343862
C95	C	1.422943	0.205332	0.677195
C96	C	1.756276	0.538665	1.010529
