data_functionalizedCrystal
_audit_creation_method	'MofGen! by Chris Wilmer'
_symmetry_space_group_name_H-M	'P1'
_symmetry_Int_Tables_number	1
_symmetry_cell_setting	triclinic
loop_
_symmetry_equiv_pos_as_xyz
  x,y,z
_cell_length_a	16.974800
_cell_length_b	23.532407
_cell_length_c	15.455313
_cell_angle_alpha	92.643560
_cell_angle_beta	90.973911
_cell_angle_gamma	83.120189
loop_
_atom_site_label
_atom_site_type_symbol
_atom_site_fract_x
_atom_site_fract_y
_atom_site_fract_z
O1	O	1.048507	0.072597	0.001490
O2	O	0.819006	0.081294	-0.014629
O3	O	0.940676	-0.005947	-0.006068
O4	O	0.926836	0.159837	-0.007072
O5	O	0.933719	-0.000979	0.137705
O6	O	0.812049	0.086262	0.129143
O7	O	1.041549	0.077565	0.145262
Cu8	Cu	0.926164	0.082367	0.150330
Cu9	Cu	0.934392	0.076491	-0.019697
O10	O	0.919879	0.164805	0.136701
C11	C	0.786171	0.083356	0.055195
C12	C	0.698699	0.082092	0.049052
C13	C	0.653817	0.084205	0.124539
C14	C	0.571630	0.083009	0.118770
C15	C	0.534325	0.079703	0.037513
C16	C	0.579214	0.077588	-0.037979
C17	C	0.661401	0.078781	-0.032209
C18	C	0.288931	0.075843	0.011851
C19	C	0.206738	0.074653	0.006087
C20	C	0.199160	0.080072	0.162836
C21	C	0.281348	0.081268	0.168599
C22	C	0.326230	0.079150	0.093107
N23	N	0.450317	0.078482	0.031614
N24	N	0.410238	0.080367	0.099007
C25	C	0.936845	-0.024681	0.065796
C26	C	0.935785	-0.087903	0.065728
C27	C	1.001143	-0.486636	0.070271
C28	C	1.000159	-0.546042	0.070195
O29	O	1.060746	-0.582443	0.074419
N30	N	0.927825	-0.569080	0.065116
C31	C	0.856472	-0.532709	0.060102
O32	O	0.794856	-0.557759	0.055774
C33	C	0.857457	-0.473304	0.060172
C34	C	0.929795	-0.450269	0.065261
C35	C	1.073475	-0.463601	0.075359
C36	C	1.074458	-0.404199	0.075436
C37	C	1.003110	-0.367832	0.070426
C38	C	0.930778	-0.390867	0.065338
C39	C	0.786105	-0.436934	0.055153
C40	C	0.787096	-0.377526	0.055222
C41	C	0.859434	-0.354491	0.060311
C42	C	0.860414	-0.295098	0.060405
N43	N	0.932747	-0.272061	0.065485
C44	C	1.004095	-0.308427	0.070495
C45	C	0.854408	-0.657463	0.059955
C46	C	0.853422	-0.716866	0.059892
C47	C	0.997109	-0.730196	0.069983
C48	C	0.998094	-0.670791	0.070053
C49	C	0.926742	-0.634425	0.065035
C50	C	1.006156	-0.183678	0.070658
C51	C	1.007133	-0.124270	0.070738
C52	C	0.863446	-0.110946	0.060643
C53	C	0.862468	-0.170349	0.060567
C54	C	0.933830	-0.206714	0.065572
O55	O	0.799859	-0.258663	0.056181
O56	O	1.065701	-0.283369	0.074812
C57	C	1.074384	0.075502	0.075436
C58	C	1.161856	0.076766	0.081573
C59	C	0.923710	0.183539	0.064835
C60	C	0.924771	0.246761	0.064897
N61	N	0.920382	0.086499	0.269919
N62	N	0.940179	0.072355	-0.139286
C63	C	0.972090	0.049450	0.318952
C64	C	0.967725	0.052580	0.409452
C65	C	0.911655	0.092763	0.450919
C66	C	0.859942	0.129813	0.401880
C67	C	0.864304	0.126680	0.311381
C68	C	0.892828	0.106272	0.721176
C69	C	0.888472	0.109404	0.811682
C70	C	0.996254	0.032170	0.819248
C71	C	1.000614	0.029042	0.728747
C72	C	0.948898	0.066091	0.679715
N73	N	0.907194	0.095964	0.543426
N74	N	0.953356	0.062886	0.587211
H75	H	0.325465	0.074117	-0.049620
F76	F	1.082107	-0.222373	0.075985
F77	F	1.073045	-0.768911	0.075311
H78	H	0.822197	0.156848	0.271459
H79	H	1.017750	0.016732	0.285196
F80	F	1.075085	-0.646282	0.075469
F81	F	0.539513	0.074053	-0.124459
H82	H	0.805357	-0.081326	0.056566
H83	H	1.009828	0.022412	0.449375
F84	F	0.800264	0.172576	0.446012
F85	F	0.523865	0.085266	0.199113
F86	F	1.060289	-0.013724	0.684616
F87	F	1.084128	-0.099759	0.076154
F88	F	0.778459	-0.618763	0.054622
H89	H	0.311716	0.083957	0.234767
F90	F	0.693511	0.087727	0.211024
H91	H	0.162609	0.081796	0.224297
F92	F	1.051288	-0.007259	0.871436
F93	F	0.167038	0.071136	-0.080402
F94	F	0.828792	0.152175	0.855808
F95	F	0.709168	0.076529	-0.112552
F96	F	0.709112	-0.461436	0.049733
F97	F	0.837791	0.145703	0.669000
H98	H	1.133363	-0.385450	0.079576
F99	F	0.711150	-0.338825	0.049880
F100	F	0.776430	-0.741374	0.054491
F101	F	1.149420	-0.502298	0.080691
H102	H	0.803564	-0.189103	0.056447
