data_functionalizedCrystal
_audit_creation_method	'MofGen! by Chris Wilmer'
_symmetry_space_group_name_H-M	'P1'
_symmetry_Int_Tables_number	1
_symmetry_cell_setting	triclinic
loop_
_symmetry_equiv_pos_as_xyz
  x,y,z
_cell_length_a	9.065218
_cell_length_b	15.944493
_cell_length_c	8.140239
_cell_angle_alpha	90.002357
_cell_angle_beta	89.997198
_cell_angle_gamma	84.245465
loop_
_atom_site_label
_atom_site_type_symbol
_atom_site_fract_x
_atom_site_fract_y
_atom_site_fract_z
O1	O	1.957474	0.123164	-0.136593
O2	O	1.527949	0.133266	-0.136593
O3	O	1.754486	0.006026	-0.136607
O4	O	1.730938	0.250404	-0.136580
O5	O	1.754473	0.006024	0.136620
O6	O	1.527937	0.133265	0.136634
O7	O	1.957462	0.123162	0.136634
Zn8	Zn	1.742697	0.128213	0.180014
Zn9	Zn	1.742714	0.128215	-0.179974
O10	O	1.730925	0.250402	0.136647
C11	C	1.472980	0.132294	0.000020
C12	C	1.309206	0.129391	0.000018
C13	C	1.753517	-0.025277	-0.000000
C14	C	1.750632	-0.118547	-0.000021
C15	C	1.883976	-0.353297	0.000010
C16	C	1.812074	-0.404409	-0.134704
C17	C	1.745285	-0.289309	-0.000001
C18	C	1.812030	-0.404387	0.134676
C19	C	1.740131	-0.454258	0.000025
C20	C	1.673421	-0.339192	-0.134827
C21	C	1.673397	-0.339167	0.134675
C22	C	1.601393	-0.390247	-0.000073
C23	C	1.748258	-0.194287	-0.000018
C24	C	1.737147	-0.549277	0.000030
C25	C	2.012431	0.124134	0.000017
C26	C	2.176205	0.127037	0.000008
C27	C	1.731894	0.281705	0.000037
C28	C	1.734780	0.374976	0.000047
N29	N	1.742697	0.128211	0.425697
N30	N	1.742726	0.128210	-0.425657
H31	H	1.870651	-0.432910	-0.248597
O32	O	1.881921	-0.438509	0.270427
C33	C	1.876976	-0.526609	0.269340
H34	H	1.860902	-0.548828	0.138032
H35	H	1.985370	-0.558739	0.320367
H36	H	1.780664	-0.543501	0.348739
H37	H	1.481836	-0.406618	-0.000146
H38	H	1.614871	-0.310650	0.248571
O39	O	2.026495	-0.333574	-0.000469
C40	C	2.099097	-0.366951	-0.142776
H41	H	2.013423	-0.376939	-0.241525
H42	H	2.178097	-0.321078	-0.189830
H43	H	2.164479	-0.429824	-0.112047
O44	O	1.603856	-0.305327	-0.270984
C45	C	1.704315	-0.262842	-0.364218
H46	H	1.822607	-0.289352	-0.333671
H47	H	1.682517	-0.272101	-0.500623
H48	H	1.689055	-0.192718	-0.333755
