data_functionalizedCrystal
_audit_creation_method	'MofGen! by Chris Wilmer'
_symmetry_space_group_name_H-M	'P1'
_symmetry_Int_Tables_number	1
_symmetry_cell_setting	triclinic
loop_
_symmetry_equiv_pos_as_xyz
  x,y,z
_cell_length_a	17.699083
_cell_length_b	17.699092
_cell_length_c	18.366186
_cell_angle_alpha	89.995439
_cell_angle_beta	89.996982
_cell_angle_gamma	83.284691
loop_
_atom_site_label
_atom_site_type_symbol
_atom_site_fract_x
_atom_site_fract_y
_atom_site_fract_z
O1	O	1.004083	0.095712	-0.060445
O2	O	0.783705	0.108164	-0.060468
O3	O	0.900117	-0.008251	-0.060454
O4	O	0.887671	0.212127	-0.060459
O5	O	0.900098	-0.008256	0.060645
O6	O	0.783686	0.108159	0.060631
O7	O	1.004064	0.095706	0.060655
Zn8	Zn	0.893872	0.101931	0.079870
Zn9	Zn	0.893898	0.101939	-0.079684
O10	O	0.887652	0.212121	0.060640
C11	C	0.755499	0.107715	0.000078
C12	C	0.671480	0.106377	0.000069
C13	C	0.899661	-0.036450	0.000094
C14	C	0.898319	-0.120468	0.000091
C15	C	0.897702	-0.159932	-0.065921
C16	C	0.896437	-0.238875	-0.065922
C17	C	0.895795	-0.278353	0.000090
C18	C	0.896410	-0.238883	0.066107
C19	C	0.897670	-0.159941	0.066107
C20	C	0.891330	-0.557248	0.066107
C21	C	0.890073	-0.636196	0.066102
C22	C	0.890097	-0.636183	-0.065922
C23	C	0.891357	-0.557240	-0.065922
C24	C	0.891968	-0.517777	0.000095
C25	C	0.893338	-0.432178	0.000095
C26	C	0.894430	-0.363952	0.000090
C27	C	0.622862	0.174710	0.000068
C28	C	0.543918	0.173448	0.000077
C29	C	0.513595	0.103851	0.000083
C30	C	0.562220	0.035513	0.000086
C31	C	0.641162	0.036776	0.000082
C32	C	0.243857	0.030418	0.000104
C33	C	0.164909	0.029160	0.000107
C34	C	0.146613	0.167089	0.000100
C35	C	0.225555	0.168352	0.000096
C36	C	0.274173	0.100014	0.000103
C37	C	0.359772	0.101384	0.000094
C38	C	0.427998	0.102481	0.000087
C39	C	1.032271	0.096155	0.000106
C40	C	1.116289	0.097494	0.000111
C41	C	0.888109	0.240321	0.000090
C42	C	0.889450	0.324339	0.000089
N43	N	0.893859	0.101926	0.188761
N44	N	0.893916	0.101939	-0.188575
C45	C	0.945423	0.050403	0.226868
C46	C	0.945428	0.050399	0.303095
C47	C	0.893876	0.101932	0.341214
C48	C	0.842302	0.153459	0.303098
C49	C	0.842294	0.153456	0.226872
C50	C	0.883835	0.170881	0.461972
C51	C	0.883849	0.170885	0.538197
C52	C	0.893898	0.101942	0.576321
C53	C	0.903949	0.032991	0.538211
C54	C	0.903940	0.032988	0.461985
C55	C	0.893879	0.101941	0.423868
C56	C	0.945470	0.050410	0.697083
C57	C	0.945469	0.050406	0.773312
C58	C	0.842347	0.153473	0.773313
C59	C	0.842344	0.153471	0.697085
C60	C	0.893909	0.101940	0.658975
H61	H	0.898229	-0.127796	-0.119676
H62	H	0.987457	0.008446	0.804339
F63	F	0.492177	0.246177	0.000073
H64	H	0.140224	-0.027517	0.000112
H65	H	0.987419	0.008441	0.334128
F66	F	0.914631	-0.040392	0.421428
H67	H	0.912131	-0.023149	0.569250
F68	F	0.873157	0.244267	0.578749
F69	F	0.295591	-0.042314	0.000112
F70	F	0.787410	0.208297	0.186314
F71	F	0.094864	0.239821	0.000095
F72	F	0.891971	-0.515257	0.136368
F73	F	0.257822	0.242426	0.000085
F74	F	0.895719	-0.280900	0.136362
H75	H	0.898162	-0.127809	0.119861
H76	H	0.537525	-0.021154	0.000101
F77	F	0.692906	-0.035954	0.000086
F78	F	1.000300	-0.004442	0.186309
F79	F	0.787434	0.208302	0.343666
F80	F	0.655126	0.248785	0.000057
H81	H	0.987455	0.008449	0.666052
F82	F	0.787477	0.208313	0.813878
H83	H	0.895937	-0.271004	-0.119676
F84	F	0.892044	-0.515230	-0.136181
H85	H	0.875639	0.227027	0.430937
F86	F	0.889444	-0.678189	-0.136184
F87	F	0.889388	-0.678210	0.136364
F88	F	0.787466	0.208312	0.656526
