data_functionalizedCrystal
_audit_creation_method	'MofGen! by Chris Wilmer'
_symmetry_space_group_name_H-M	'P1'
_symmetry_Int_Tables_number	1
_symmetry_cell_setting	triclinic
loop_
_symmetry_equiv_pos_as_xyz
  x,y,z
_cell_length_a	16.625547
_cell_length_b	16.625545
_cell_length_c	16.625539
_cell_angle_alpha	90.028107
_cell_angle_beta	90.024822
_cell_angle_gamma	90.025495
loop_
_atom_site_label
_atom_site_type_symbol
_atom_site_fract_x
_atom_site_fract_y
_atom_site_fract_z
Zn1	Zn	1.232663	-0.321001	0.456002
Zn2	Zn	1.232559	-0.455845	0.321170
Zn3	Zn	1.097825	-0.321030	0.321172
Zn4	Zn	1.097788	-0.455796	0.455949
O5	O	1.165209	-0.388418	0.388573
O6	O	1.345482	-0.338897	0.438137
O7	O	1.214658	-0.437993	0.208338
O8	O	1.115771	-0.208193	0.339081
O9	O	1.345405	-0.437966	0.339076
O10	O	1.214836	-0.208173	0.438140
O11	O	1.115670	-0.338945	0.208340
O12	O	0.984988	-0.338898	0.339030
O13	O	1.115708	-0.437883	0.568789
O14	O	0.984961	-0.437910	0.438050
O15	O	1.214800	-0.338850	0.568827
O16	O	1.214623	-0.568671	0.339025
O17	O	1.115607	-0.568635	0.438048
C18	C	0.955718	-0.388402	0.388535
C19	C	0.866097	-0.388415	0.388538
C20	C	0.793314	-0.388416	0.388548
C21	C	0.702006	-0.388421	0.388568
C22	C	0.629230	-0.388428	0.388589
C23	C	0.537915	-0.388434	0.388608
C24	C	1.165121	-0.597909	0.388548
C25	C	1.165158	-0.687530	0.388564
C26	C	1.165189	-0.760312	0.388580
C27	C	1.165236	-0.851621	0.388598
C28	C	1.165278	-0.924397	0.388608
C29	C	1.165324	-1.015711	0.388625
C30	C	1.375518	-0.388434	0.388612
C31	C	1.465139	-0.388441	0.388629
C32	C	1.165261	-0.388358	0.598882
C33	C	1.165284	-0.388332	0.688504
C34	C	1.165319	-0.178109	0.388617
C35	C	1.165366	-0.088488	0.388635
C36	C	1.165203	-0.388419	0.179083
C37	C	1.165337	-0.388218	0.089462
C38	C	1.165321	-0.388242	1.016679
C39	C	1.165308	-0.388270	0.925371
C40	C	1.165303	-0.388288	0.852594
C41	C	1.165289	-0.388314	0.761280
