data_functionalizedCrystal
_audit_creation_method	'MofGen! by Chris Wilmer'
_symmetry_space_group_name_H-M	'P1'
_symmetry_Int_Tables_number	1
_symmetry_cell_setting	triclinic
loop_
_symmetry_equiv_pos_as_xyz
  x,y,z
_cell_length_a	10.967819
_cell_length_b	6.394989
_cell_length_c	9.482900
_cell_angle_alpha	80.390180
_cell_angle_beta	68.706355
_cell_angle_gamma	94.415339
loop_
_atom_site_label
_atom_site_type_symbol
_atom_site_fract_x
_atom_site_fract_y
_atom_site_fract_z
O1	O	1.747869	-0.143175	-0.558788
O2	O	1.370184	-0.196595	-0.464167
O3	O	1.564388	0.134466	-0.512821
O4	O	1.553665	-0.474236	-0.510133
O5	O	1.524945	0.066959	-0.261147
O6	O	1.330741	-0.264102	-0.212492
O7	O	1.708426	-0.210682	-0.307114
Cu8	Cu	1.515982	-0.243556	-0.236823
Cu9	Cu	1.562628	-0.163721	-0.534457
O10	O	1.514223	-0.541743	-0.258459
C11	C	1.302040	-0.231560	-0.326198
C12	C	1.157756	-0.235146	-0.290051
C13	C	0.964747	-0.205494	-0.366979
C14	C	1.113872	-0.201775	-0.404330
C15	C	1.776571	-0.175716	-0.445085
C16	C	1.920857	-0.172127	-0.481242
C17	C	1.542547	0.178422	-0.386459
C18	C	1.536069	0.414311	-0.384837
N19	N	1.483184	-0.299706	-0.027486
N20	N	1.595437	-0.107554	-0.743797
C21	C	1.552945	-0.180272	0.027236
C22	C	1.525665	-0.227005	0.201488
H23	H	0.891920	-0.236824	-0.241503
H24	H	1.403258	-0.436548	0.054669
Cl25	Cl	1.719122	0.103318	0.129311
Cl26	Cl	1.033284	-0.123787	-0.674975
H27	H	1.632861	-0.043414	-0.054914
Cl28	Cl	1.402258	-0.438295	0.328314
Cl29	Cl	1.226295	-0.153433	-0.598071
Cl30	Cl	1.045333	-0.283520	-0.096308
