data_functionalizedCrystal
_audit_creation_method	'MofGen! by Chris Wilmer'
_symmetry_space_group_name_H-M	'P1'
_symmetry_Int_Tables_number	1
_symmetry_cell_setting	triclinic
loop_
_symmetry_equiv_pos_as_xyz
  x,y,z
_cell_length_a	16.120530
_cell_length_b	17.640280
_cell_length_c	17.640968
_cell_angle_alpha	114.317439
_cell_angle_beta	75.368885
_cell_angle_gamma	104.611321
loop_
_atom_site_label
_atom_site_type_symbol
_atom_site_fract_x
_atom_site_fract_y
_atom_site_fract_z
Zn1	Zn	1.434197	0.291308	-0.456998
Zn2	Zn	1.434128	0.456974	-0.291356
Zn3	Zn	1.268513	0.312558	-0.312580
Zn4	Zn	1.316194	0.424346	-0.424424
O5	O	1.363258	0.371297	-0.371339
O6	O	1.552883	0.318046	-0.439776
O7	O	1.392175	0.460365	-0.178043
O8	O	1.270566	0.193623	-0.354251
O9	O	1.552832	0.439760	-0.318079
O10	O	1.392293	0.178011	-0.460355
O11	O	1.270499	0.354263	-0.193635
O12	O	1.156143	0.322625	-0.322666
O13	O	1.351831	0.384151	-0.544874
O14	O	1.191173	0.404756	-0.404837
O15	O	1.438527	0.286408	-0.568806
O16	O	1.438409	0.568762	-0.286494
O17	O	1.351763	0.544790	-0.384258
C18	C	1.142882	0.362456	-0.362520
C19	C	1.048611	0.358690	-0.358763
C20	C	1.400505	0.329270	-0.587793
C21	C	1.416378	0.311360	-0.680032
C22	C	1.400279	0.586881	-0.329557
C23	C	1.416199	0.679106	-0.311713
C24	C	0.876016	0.351794	-0.351914
C25	C	0.851361	0.390848	-0.390813
C26	C	0.755324	0.387011	-0.387003
C27	C	0.972062	0.355630	-0.355724
C28	C	1.584495	0.380172	-0.380194
C29	C	1.678773	0.383954	-0.383967
C30	C	1.326119	0.154868	-0.413304
C31	C	1.310292	0.062639	-0.431187
C32	C	1.242715	0.920210	-0.507212
C33	C	1.257671	1.006875	-0.490419
C34	C	1.347981	1.031753	-0.388727
C35	C	1.333036	0.945088	-0.405515
C36	C	1.280401	0.889322	-0.464758
C37	C	1.370722	0.914200	-0.363060
C38	C	1.355774	0.827543	-0.379844
C39	C	1.303140	0.771773	-0.439082
C40	C	1.265453	0.802665	-0.481541
C41	C	1.423352	0.969967	-0.303814
C42	C	1.461038	0.939080	-0.261359
C43	C	1.446095	0.852421	-0.278146
C44	C	1.393461	0.796651	-0.337385
C45	C	1.483782	0.821529	-0.235687
C46	C	1.468834	0.734871	-0.252471
C47	C	1.378513	0.709994	-0.354168
C48	C	1.242923	0.506914	-0.921095
C49	C	1.257854	0.490075	-1.007771
C50	C	1.348123	0.388305	-1.032679
C51	C	1.333197	0.405132	-0.946004
C52	C	1.280597	0.464438	-0.890218
C53	C	1.370870	0.362655	-0.915127
C54	C	1.355948	0.379484	-0.828459
C55	C	1.303353	0.438790	-0.772668
C56	C	1.265675	0.481267	-0.803550
C57	C	1.423475	0.303354	-0.970913
C58	C	1.461149	0.260878	-0.940036
C59	C	1.446222	0.277702	-0.853368
C60	C	1.393627	0.337007	-0.797577
C61	C	1.483900	0.235225	-0.822485
C62	C	1.468978	0.252054	-0.735818
C63	C	1.378704	0.353836	-0.710909
C64	C	1.326194	0.413102	-0.155742
C65	C	1.310445	0.430784	-0.063555
H66	H	0.902379	0.427164	-0.426979
Br67	Br	1.194032	0.726974	-0.561954
H68	H	1.222818	0.529539	-0.758129
Br69	Br	0.790987	0.291267	-0.291641
H70	H	1.335659	0.664586	-0.402416
Br71	Br	1.283102	0.654133	-0.462081
Br72	Br	1.171294	0.844519	-0.587625
Br73	Br	1.206504	1.048792	-0.548030
Br74	Br	1.443733	0.280519	-1.088535
Br75	Br	1.532537	0.180398	-1.015751
H76	H	1.390834	1.077168	-0.340489
Br77	Br	1.171524	0.587392	-0.845380
Br78	Br	1.206718	0.547728	-1.049672
H79	H	1.499521	0.709724	-0.217899
H80	H	1.435523	1.040528	-0.290153
H81	H	1.503890	0.984496	-0.213121
Br82	Br	1.555202	0.897220	-0.155282
Br83	Br	1.307306	0.434314	-0.635193
Br84	Br	1.555298	0.154754	-0.898201
Br85	Br	1.520113	0.194414	-0.693907
H86	H	1.291208	0.452494	-0.702098
H87	H	1.390953	0.340020	-1.078110
