data_functionalizedCrystal
_audit_creation_method	'MofGen! by Chris Wilmer'
_symmetry_space_group_name_H-M	'P1'
_symmetry_Int_Tables_number	1
_symmetry_cell_setting	triclinic
loop_
_symmetry_equiv_pos_as_xyz
  x,y,z
_cell_length_a	14.519709
_cell_length_b	10.654541
_cell_length_c	9.730217
_cell_angle_alpha	90.002608
_cell_angle_beta	90.004067
_cell_angle_gamma	95.917963
loop_
_atom_site_label
_atom_site_type_symbol
_atom_site_fract_x
_atom_site_fract_y
_atom_site_fract_z
O1	O	1.224716	-0.164620	-0.114110
O2	O	0.956340	-0.184007	-0.114152
O3	O	1.096700	0.008485	-0.114122
O4	O	1.084356	-0.357113	-0.114141
O5	O	1.096695	0.008485	0.114458
O6	O	0.956335	-0.184007	0.114428
O7	O	1.224711	-0.164620	0.114470
Zn8	Zn	1.090522	-0.174314	0.150741
Zn9	Zn	1.090529	-0.174314	-0.150423
O10	O	1.084352	-0.357112	0.114440
C11	C	0.921973	-0.183103	0.000133
C12	C	0.819578	-0.180396	0.000117
C13	C	1.095791	0.055275	0.000167
C14	C	1.093081	0.194692	0.000164
N15	N	1.090525	-0.174313	0.356277
C16	C	0.444630	-0.170429	0.000180
C17	C	0.548952	-0.173197	0.000162
C18	C	0.632101	-0.175412	0.000147
C19	C	0.736429	-0.178181	0.000132
C20	C	1.259078	-0.165524	0.000182
C21	C	1.361474	-0.168231	0.000189
C22	C	1.085260	-0.403902	0.000147
C23	C	1.087970	-0.543319	0.000141
C24	C	1.260920	0.224277	0.000208
C25	C	1.343562	0.304566	0.000233
C26	C	1.341010	0.435559	0.000228
C27	C	1.255806	0.486265	0.000195
C28	C	1.173164	0.405976	0.000170
C29	C	1.175725	0.274981	0.000179
C30	C	1.005328	0.376392	0.000117
C31	C	1.007878	0.245398	0.000131
C32	C	0.920124	0.427098	0.000084
C33	C	0.837480	0.346809	0.000069
C34	C	0.840036	0.215808	0.000075
C35	C	0.925236	0.165109	0.000107
C36	C	1.214865	-0.003910	0.356295
C37	C	1.277041	0.081287	0.428244
C38	C	1.277050	0.081287	0.572123
C39	C	1.214874	-0.003917	0.644058
C40	C	1.152698	-0.089114	0.572109
C41	C	1.152698	-0.089107	0.428226
C42	C	1.028356	-0.259509	0.572092
C43	C	1.028349	-0.259517	0.428212
C44	C	0.966180	-0.344713	0.644026
C45	C	0.904007	-0.429918	0.572077
C46	C	0.904001	-0.429915	0.428189
C47	C	0.966173	-0.344714	0.356263
N48	N	1.090532	-0.174312	0.644040
H49	H	1.263006	0.117616	0.000231
H50	H	0.927325	0.058449	0.000120
H51	H	0.966186	-0.344704	0.761181
H52	H	1.253736	0.592928	0.000174
C53	C	0.749121	0.127499	0.000045
N54	N	0.680641	0.060989	0.000024
C55	C	0.835616	-0.523662	0.349057
N56	N	0.784114	-0.594282	0.289460
C57	C	0.743767	0.402595	0.000040
N58	N	0.673180	0.444618	0.000025
H59	H	1.412933	0.263266	0.000272
H60	H	1.408304	0.500931	0.000237
H61	H	0.966177	-0.344709	0.239109
H62	H	0.918052	0.533761	0.000071
C63	C	1.214866	-0.003910	0.198023
N64	N	1.214868	-0.003906	0.078811
H65	H	1.327662	0.150662	0.369662
H66	H	1.327675	0.150666	0.630704
C67	C	1.214871	-0.003889	0.802329
N68	N	1.214865	-0.003865	0.921542
C69	C	0.835615	-0.523622	0.651214
N70	N	0.784100	-0.594201	0.710825
