data_functionalizedCrystal
_audit_creation_method	'MofGen! by Chris Wilmer'
_symmetry_space_group_name_H-M	'P1'
_symmetry_Int_Tables_number	1
_symmetry_cell_setting	triclinic
loop_
_symmetry_equiv_pos_as_xyz
  x,y,z
_cell_length_a	27.440280
_cell_length_b	17.917603
_cell_length_c	17.917603
_cell_angle_alpha	60.138055
_cell_angle_beta	90.006544
_cell_angle_gamma	63.032973
loop_
_atom_site_label
_atom_site_type_symbol
_atom_site_fract_x
_atom_site_fract_y
_atom_site_fract_z
Zr1	Zr	0.497304	0.806776	-0.128965
O2	O	0.427375	0.951821	-0.249514
O3	O	0.515400	0.654546	-0.087310
O4	O	0.524229	0.796396	-0.242717
O5	O	0.415382	0.820664	0.023134
O6	O	0.604431	0.796383	-0.242702
O7	O	0.418545	0.809970	-0.094107
O8	O	0.588637	0.542638	0.035293
O9	O	0.431176	1.074409	-0.254861
O10	O	0.587008	0.719812	-0.075212
O11	O	0.524794	0.727803	0.012272
O12	O	0.535189	0.894814	-0.170699
O13	O	0.472975	0.902804	-0.083215
Zr14	Zr	0.620172	0.823811	0.058045
Zr15	Zr	0.625217	0.806756	-0.128941
Zr16	Zr	0.492259	0.823832	0.058021
Zr17	Zr	0.503367	1.002291	-0.137492
Zr18	Zr	0.614109	0.628297	0.066573
O19	O	0.602077	0.976042	0.016391
O20	O	0.609250	0.951791	-0.249479
O21	O	0.420201	0.976072	0.016356
O22	O	0.690102	0.678767	0.178595
O23	O	0.697275	0.654516	-0.087275
O24	O	0.508226	0.678797	0.178560
O25	O	0.702094	0.809924	-0.094053
O26	O	0.593248	0.834191	0.171797
O27	O	0.513046	0.834205	0.171782
O28	O	0.698931	0.820618	0.023188
O29	O	0.532850	1.074392	-0.254841
O30	O	0.584627	0.556195	0.183922
O31	O	0.686300	0.556179	0.183941
O32	O	0.690310	0.542622	0.035312
O33	O	0.427166	1.087966	-0.106232
O34	O	0.528840	1.087950	-0.106212
O35	O	0.582287	0.735774	0.099780
O36	O	0.644502	0.727783	0.012295
O37	O	0.592682	0.902785	-0.083192
O38	O	0.530468	0.910776	0.004292
C39	C	0.551154	0.570735	-0.024794
C40	C	0.548580	0.487735	-0.021174
C41	C	0.543878	0.335769	-0.014563
C42	C	0.573597	0.294815	-0.056354
C43	C	0.570981	0.210256	-0.052676
C44	C	0.546494	0.420335	-0.018240
C45	C	0.398739	0.815320	-0.035490
C46	C	0.344436	0.815329	-0.035501
C47	C	0.034784	0.723930	0.014408
C48	C	-0.016235	0.723925	0.014416
O49	O	-0.019619	0.646238	0.056833
N50	N	-0.068800	0.815272	-0.035428
C51	C	-0.070346	0.906632	-0.085276
O52	O	-0.119742	0.984330	-0.127671
C53	C	-0.019328	0.906637	-0.085278
C54	C	0.033237	0.815282	-0.035438
C55	C	0.087347	0.632583	0.064245
C56	C	0.138362	0.632588	0.064236
C57	C	0.136815	0.723941	0.014389
C58	C	0.084252	0.815287	-0.035448
C59	C	-0.020875	0.997996	-0.135121
C60	C	0.030149	0.997992	-0.135118
C61	C	0.082714	0.906638	-0.085278
C62	C	0.133720	0.906645	-0.085304
N63	N	0.186285	0.815297	-0.035459
C64	C	0.187833	0.723945	0.014387
C65	C	-0.177486	0.906616	-0.085266
C66	C	-0.228503	0.906612	-0.085269
C67	C	-0.174388	0.723904	0.014424
C68	C	-0.123370	0.723909	0.014422
C69	C	-0.124920	0.815268	-0.035422
C70	C	0.294967	0.723963	0.014363
C71	C	0.345984	0.723976	0.014346
C72	C	0.291864	0.906684	-0.085344
C73	C	0.240851	0.906671	-0.085331
C74	C	0.242406	0.815303	-0.035471
O75	O	0.137148	0.984292	-0.127695
O76	O	0.237231	0.646261	0.056784
C77	C	0.718738	0.815268	-0.035429
C78	C	0.773040	0.815259	-0.035419
C79	C	0.565049	0.793960	-0.269351
C80	C	0.567190	0.786719	-0.348731
C81	C	0.566322	1.059852	-0.046126
C82	C	0.568896	1.142853	-0.049746
C83	C	0.571115	0.773493	-0.494086
C84	C	0.546363	0.857090	-0.576836
C85	C	0.548547	0.849731	-0.657717
C86	C	0.568932	0.780850	-0.413196
C87	C	0.552428	0.836628	0.198431
C88	C	0.550286	0.843869	0.277812
C89	C	0.711154	0.570709	-0.024763
C90	C	0.762882	0.487700	-0.021133
C91	C	0.544844	0.592070	0.209097
C92	C	0.540128	0.516309	0.292098
C93	C	0.704843	0.592044	0.209128
C94	C	0.754430	0.516274	0.292139
C95	C	0.412633	1.038544	-0.280047
C96	C	0.363046	1.114313	-0.363058
C97	C	0.406323	1.059878	-0.046156
C98	C	0.354594	1.142888	-0.049787
C99	C	0.572633	1.038518	-0.280017
C100	C	0.577348	1.114279	-0.363017
C101	C	0.757164	0.444556	-0.065114
C102	C	0.805764	0.366569	-0.061720
C103	C	0.860082	0.331722	-0.014341
C104	C	0.865799	0.374873	0.029641
C105	C	0.817200	0.452864	0.026242
C106	C	0.567924	0.484893	0.376761
C107	C	0.563492	0.413720	0.454756
C108	C	0.531266	0.373959	0.448085
C109	C	0.503466	0.405382	0.363412
C110	C	0.507896	0.476559	0.285420
C111	C	0.810197	0.476522	0.285456
C112	C	0.856795	0.405339	0.363445
C113	C	0.847624	0.373905	0.448118
C114	C	0.791851	0.413665	0.454799
C115	C	0.745255	0.484852	0.376810
C116	C	0.307279	1.154076	-0.356375
C117	C	0.260683	1.225283	-0.434366
C118	C	0.269854	1.256721	-0.519039
C119	C	0.325627	1.216956	-0.525720
C120	C	0.372222	1.145755	-0.447730
C121	C	0.360313	1.186039	-0.005814
C122	C	0.311714	1.264046	-0.009229
C123	C	0.257396	1.298896	-0.056611
C124	C	0.251679	1.255741	-0.100589
C125	C	0.300277	1.177740	-0.097180
C126	C	0.609579	1.154018	-0.356317
C127	C	0.614021	1.225193	-0.434297
C128	C	0.586228	1.256633	-0.518977
C129	C	0.553996	1.216886	-0.525675
C130	C	0.549558	1.145707	-0.447695
H131	H	0.516471	0.307327	0.023974
F132	F	0.335379	1.250422	-0.615842
F133	F	0.431573	1.103438	-0.454856
H134	H	0.207447	1.284127	-0.139167
H135	H	-0.271300	0.981001	-0.125866
F136	F	0.526556	0.298205	0.531100
F137	F	0.515248	1.103429	-0.454840
H138	H	0.388784	0.649581	0.054935
F139	F	0.516521	0.957862	-0.590043
H140	H	0.589847	1.314592	-0.582466
F141	F	0.469171	0.363055	0.356327
F142	F	0.205678	1.381912	-0.060231
H143	H	0.593943	0.696403	-0.483985
F144	F	0.524416	1.250364	-0.615805
H145	H	0.215274	1.257648	-0.428909
H146	H	0.296241	0.649563	0.054964
F147	F	0.418118	1.148967	0.044617
H148	H	0.712940	0.472926	-0.103706
F149	F	0.799667	0.320654	-0.108532
F150	F	0.911801	0.248715	-0.010730
H151	H	0.316380	1.299171	0.026588
F152	F	0.194302	0.535356	0.117289
H153	H	0.699848	0.517210	0.382264
F154	F	0.294182	1.131818	-0.143979
F155	F	0.220257	1.332500	-0.602036
F156	F	0.923613	0.337773	0.080066
F157	F	0.916147	0.363032	0.356316
F158	F	0.609423	0.331990	-0.106730
F159	F	0.639163	1.120570	-0.266203
H160	H	0.784392	0.388061	0.523749
H161	H	0.088617	0.558189	0.104841
H162	H	0.640266	1.257548	-0.428826
H163	H	-0.080572	0.649520	0.055014
H164	H	-0.173135	0.649520	0.055009
H165	H	-0.178756	0.981016	-0.125859
H166	H	0.485262	0.502128	0.216486
H167	H	0.817675	0.502104	0.216518
H168	H	-0.063668	1.072386	-0.175705
F169	F	0.297506	1.120629	-0.266268
F170	F	0.602227	0.527195	0.383882
F171	F	0.028493	1.095232	-0.188169
H172	H	0.821864	0.487983	0.062062
H173	H	0.290614	0.981060	-0.125931
F174	F	0.184906	1.003898	-0.138392
H175	H	0.586132	0.388144	0.523692
H176	H	0.885570	0.315939	0.511614
