data_functionalizedCrystal
_audit_creation_method	'MofGen! by Chris Wilmer'
_symmetry_space_group_name_H-M	'P1'
_symmetry_Int_Tables_number	1
_symmetry_cell_setting	triclinic
loop_
_symmetry_equiv_pos_as_xyz
  x,y,z
_cell_length_a	18.101395
_cell_length_b	14.908941
_cell_length_c	14.908694
_cell_angle_alpha	90.213236
_cell_angle_beta	93.269480
_cell_angle_gamma	86.669348
loop_
_atom_site_label
_atom_site_type_symbol
_atom_site_fract_x
_atom_site_fract_y
_atom_site_fract_z
Zn1	Zn	-0.248629	-1.403885	-0.429229
Zn2	Zn	-0.365777	-1.395085	-0.278879
Zn3	Zn	-0.249483	-1.244851	-0.287547
Zn4	Zn	-0.379969	-1.253462	-0.437848
O5	O	-0.310964	-1.324321	-0.358376
O6	O	-0.257872	-1.528543	-0.402050
O7	O	-0.344768	-1.367870	-0.154206
O8	O	-0.145734	-1.266027	-0.306361
O9	O	-0.343940	-1.522078	-0.291589
O10	O	-0.145106	-1.382868	-0.410455
O11	O	-0.259327	-1.257494	-0.160574
O12	O	-0.273088	-1.120168	-0.314719
O13	O	-0.368128	-1.280702	-0.562528
O14	O	-0.368956	-1.126494	-0.425144
O15	O	-0.271633	-1.391217	-0.556195
O16	O	-0.471295	-1.376219	-0.299946
O17	O	-0.481722	-1.272169	-0.416740
C18	C	-0.322655	-1.090705	-0.371808
C19	C	-0.327676	-0.990765	-0.377576
C20	C	-0.237147	-0.796336	-0.273588
C21	C	-0.241862	-0.702433	-0.279005
C22	C	-0.341822	-0.709053	-0.393819
C23	C	-0.337108	-0.802957	-0.388403
C24	C	-0.284768	-0.846595	-0.328286
C25	C	-0.280050	-0.940500	-0.322875
C26	C	-0.380014	-0.947118	-0.437685
C27	C	-0.384728	-0.853215	-0.443101
C28	C	-0.503380	-1.324199	-0.358356
C29	C	-0.585693	-1.324231	-0.358373
C30	C	-0.884776	-1.324431	-0.358410
C31	C	-0.860042	-1.259136	-0.432057
C32	C	-0.774431	-1.258794	-0.431858
C33	C	-0.736398	-1.324332	-0.358393
C34	C	-0.764608	-1.293211	-0.265107
C35	C	-0.850294	-1.292788	-0.265550
C36	C	-0.849436	-1.420949	-0.377206
C37	C	-0.763906	-1.420510	-0.379316
C38	C	-0.652540	-1.324277	-0.358377
C39	C	-0.968634	-1.324483	-0.358420
C40	C	-0.117797	-1.324469	-0.358413
C41	C	-0.035481	-1.324532	-0.358430
C42	C	-0.321369	-1.337901	-0.592898
C43	C	-0.325802	-1.343689	-0.692838
C44	C	-0.299220	-0.558848	-0.344885
C45	C	-0.294197	-0.658788	-0.339119
C46	C	-0.245167	-1.239608	-0.887269
C47	C	-0.249331	-1.245043	-0.981171
C48	C	-0.338297	-1.359987	-0.974547
C49	C	-0.334133	-1.354553	-0.880644
C50	C	-0.287566	-1.294362	-0.837009
C51	C	-0.283399	-1.288933	-0.743104
C52	C	-0.372368	-1.403872	-0.736482
C53	C	-0.376532	-1.409307	-0.830385
C54	C	-0.300544	-1.310844	-0.124762
C55	C	-0.295893	-1.305231	-0.024813
H56	H	-0.427344	-0.817672	-0.492044
Cl57	Cl	-0.874852	-1.362559	-0.178391
H58	H	-0.418786	-0.988049	-0.482229
H59	H	-0.745684	-1.443878	-0.447942
Cl60	Cl	-0.396844	-1.435636	-1.029420
H61	H	-0.414448	-1.458309	-0.865926
H62	H	-0.756823	-1.187363	-0.419839
Cl63	Cl	-0.171345	-0.851200	-0.198023
Cl64	Cl	-0.735479	-1.185131	-0.238907
Cl65	Cl	-0.181995	-0.639254	-0.210236
Cl66	Cl	-0.873227	-1.496165	-0.294303
Cl67	Cl	-0.214251	-0.995358	-0.247303
Cl68	Cl	-0.407641	-0.654177	-0.469355
Cl69	Cl	-0.745503	-1.289828	-0.538917
Cl70	Cl	-0.895394	-1.289942	-0.539484
Cl71	Cl	-0.897714	-1.149535	-0.413795
Cl72	Cl	-0.885205	-1.183607	-0.239987
H73	H	-0.245478	-1.239926	-0.707577
Cl74	Cl	-0.725705	-1.363951	-0.178444
H75	H	-0.872842	-1.448256	-0.443782
H76	H	-0.737671	-1.472170	-0.329150
Cl77	Cl	-0.186619	-1.163952	-0.832408
Cl78	Cl	-0.196030	-1.176203	-1.044352
H79	H	-0.406890	-1.448460	-0.695550
