data_functionalizedCrystal
_audit_creation_method	'MofGen! by Chris Wilmer'
_symmetry_space_group_name_H-M	'P1'
_symmetry_Int_Tables_number	1
_symmetry_cell_setting	triclinic
loop_
_symmetry_equiv_pos_as_xyz
  x,y,z
_cell_length_a	21.295418
_cell_length_b	25.639239
_cell_length_c	21.295420
_cell_angle_alpha	90.004828
_cell_angle_beta	90.036164
_cell_angle_gamma	90.054499
loop_
_atom_site_label
_atom_site_type_symbol
_atom_site_fract_x
_atom_site_fract_y
_atom_site_fract_z
Zn1	Zn	0.962273	-0.208066	0.356243
Zn2	Zn	1.295606	0.125268	0.689576
Zn3	Zn	1.628940	0.458601	1.022909
Zn4	Zn	0.962174	-0.295463	0.250972
Zn5	Zn	1.295508	0.037870	0.584305
Zn6	Zn	1.628841	0.371203	0.917639
Zn7	Zn	0.857010	-0.208068	0.250952
Zn8	Zn	1.190343	0.125266	0.584286
Zn9	Zn	1.523677	0.458599	0.917619
Zn10	Zn	0.856950	-0.295496	0.356168
Zn11	Zn	1.190284	0.037837	0.689502
Zn12	Zn	1.523617	0.371171	1.022835
O13	O	0.909602	-0.251773	0.303584
O14	O	1.242935	0.081560	0.636917
O15	O	1.576269	0.414894	0.970251
O16	O	1.050349	-0.219644	0.342317
O17	O	1.383683	0.113689	0.675651
O18	O	1.717016	0.447022	1.008984
O19	O	0.948208	-0.283857	0.162880
O20	O	1.281541	0.049476	0.496213
O21	O	1.614874	0.382810	0.829547
O22	O	0.871040	-0.134902	0.264942
O23	O	1.204373	0.198431	0.598276
O24	O	1.537706	0.531764	0.931609
O25	O	1.050277	-0.283855	0.264976
O26	O	1.383610	0.049478	0.598309
O27	O	1.716943	0.382812	0.931642
O28	O	0.948376	-0.134901	0.342299
O29	O	1.281709	0.198433	0.675632
O30	O	1.615042	0.531766	1.008965
O31	O	0.870944	-0.219648	0.162866
O32	O	1.204277	0.113685	0.496199
O33	O	1.537611	0.447019	0.829532
O34	O	0.768913	-0.219680	0.264870
O35	O	1.102246	0.113653	0.598204
O36	O	1.435579	0.446987	0.931537
O37	O	0.870938	-0.283911	0.444268
O38	O	1.204271	0.049422	0.777601
O39	O	1.537605	0.382756	1.110934
O40	O	0.768869	-0.283913	0.342172
O41	O	1.102202	0.049420	0.675505
O42	O	1.435536	0.382754	1.008839
O43	O	0.948318	-0.219676	0.444322
O44	O	1.281651	0.113657	0.777656
O45	O	1.614985	0.446990	1.110989
O46	O	0.948150	-0.368633	0.264904
O47	O	1.281483	-0.035299	0.598237
O48	O	1.614816	0.298034	0.931570
O49	O	0.870842	-0.368657	0.342191
O50	O	1.204176	-0.035324	0.675524
O51	O	1.537509	0.298010	1.008858
C52	C	0.746050	-0.251801	0.303511
C53	C	1.079384	0.081533	0.636845
C54	C	1.412717	0.414866	0.970178
C55	C	0.676082	-0.251825	0.303495
C56	C	1.009415	0.081508	0.636829
C57	C	1.342749	0.414842	0.970162
C58	C	0.643209	-0.285315	0.343686
C59	C	0.976542	0.048018	0.677019
C60	C	1.309876	0.381351	1.010353
C61	C	0.577467	-0.285303	0.343714
C62	C	0.910800	0.048031	0.677048
C63	C	1.244133	0.381364	1.010381
C64	C	0.544600	-0.251805	0.303541
C65	C	0.877933	0.081529	0.636874
C66	C	1.211266	0.414862	0.970207
C67	C	0.577480	-0.218308	0.263347
C68	C	0.910814	0.115026	0.596680
C69	C	1.244147	0.448359	0.930014
C70	C	0.643222	-0.218318	0.263324
C71	C	0.976555	0.115015	0.596658
C72	C	1.309888	0.448349	0.929991
N73	N	0.441332	-0.247701	0.248483
N74	N	0.774665	0.085633	0.581816
N75	N	1.107998	0.418966	0.915150
N76	N	0.378880	-0.247694	0.248506
N77	N	0.712214	0.085639	0.581839
N78	N	1.045547	0.418973	0.915173
C79	C	0.346525	-0.251771	0.303607
C80	C	0.679858	0.081562	0.636941
C81	C	1.013192	0.414895	0.970274
N82	N	0.378980	-0.255866	0.358686
N83	N	0.712314	0.077468	0.692019
N84	N	1.045647	0.410801	1.025352
N85	N	0.441438	-0.255875	0.358662
N86	N	0.774771	0.077458	0.691995
N87	N	1.108104	0.410792	1.025328
C88	C	0.473314	-0.251790	0.303561
C89	C	0.806648	0.081544	0.636894
C90	C	1.139981	0.414877	0.970228
C91	C	0.242366	-0.285250	0.343832
C92	C	0.575700	0.048084	0.677166
C93	C	0.909033	0.381417	1.010499
C94	C	0.176623	-0.285233	0.343862
C95	C	0.509956	0.048100	0.677195
C96	C	0.843289	0.381434	1.010528
C97	C	0.176638	-0.218241	0.263489
C98	C	0.509971	0.115092	0.596822
C99	C	0.843305	0.448426	0.930155
C100	C	0.242380	-0.218255	0.263465
C101	C	0.575714	0.115078	0.596798
C102	C	0.909047	0.448412	0.930132
C103	C	0.275241	-0.251762	0.303636
C104	C	0.608574	0.081571	0.636969
C105	C	0.941907	0.414905	0.970302
C106	C	0.909496	-0.387616	0.303555
C107	C	1.242829	-0.054282	0.636888
C108	C	1.576163	0.279051	0.970222
C109	C	0.909508	-0.445730	0.303564
C110	C	1.242842	-0.112396	0.636897
C111	C	1.576175	0.220937	0.970230
C112	C	0.949961	-0.806068	0.263409
C113	C	1.283294	-0.472734	0.596742
C114	C	1.616628	-0.139401	0.930076
C115	C	0.949985	-0.860672	0.263417
C116	C	1.283319	-0.527339	0.596751
C117	C	1.616652	-0.194005	0.930084
O118	O	0.984270	-0.888887	0.229245
O119	O	1.317603	-0.555554	0.562578
O120	O	1.650936	-0.222221	0.895911
N121	N	0.909712	-0.888012	0.303626
N122	N	1.243046	-0.554679	0.636959
N123	N	1.576379	-0.221345	0.970292
C124	C	0.869417	-0.860745	0.343833
C125	C	1.202751	-0.527412	0.677166
C126	C	1.536084	-0.194079	1.010499
O127	O	0.835165	-0.889014	0.378034
O128	O	1.168498	-0.555681	0.711367
O129	O	1.501831	-0.222347	1.044701
C130	C	0.869396	-0.806142	0.343827
C131	C	1.202730	-0.472809	0.677160
C132	C	1.536063	-0.139475	1.010494
C133	C	0.909667	-0.778805	0.303611
C134	C	1.243001	-0.445471	0.636945
C135	C	1.576334	-0.112138	0.970278
C136	C	0.990229	-0.778730	0.223197
C137	C	1.323562	-0.445397	0.556531
C138	C	1.656896	-0.112064	0.889864
C139	C	0.990204	-0.724130	0.223188
C140	C	1.323537	-0.390796	0.556522
C141	C	1.656870	-0.057463	0.889855
C142	C	0.949910	-0.696867	0.263391
C143	C	1.283243	-0.363533	0.596724
C144	C	1.616577	-0.030200	0.930057
C145	C	0.909642	-0.724204	0.303602
C146	C	1.242975	-0.390871	0.636936
C147	C	1.576309	-0.057537	0.970269
C148	C	0.829105	-0.778876	0.384036
C149	C	1.162438	-0.445543	0.717370
C150	C	1.495771	-0.112209	1.050703
C151	C	0.829088	-0.724269	0.384028
C152	C	1.162421	-0.390936	0.717361
C153	C	1.495755	-0.057602	1.050694
C154	C	0.869359	-0.696932	0.343812
C155	C	1.202692	-0.363598	0.677146
C156	C	1.536025	-0.030265	1.010479
C157	C	0.869323	-0.642340	0.343796
C158	C	1.202656	-0.309007	0.677129
C159	C	1.535990	0.024326	1.010462
N160	N	0.909596	-0.615000	0.303588
N161	N	1.242929	-0.281667	0.636921
N162	N	1.576263	0.051667	0.970254
C163	C	0.949889	-0.642263	0.263385
C164	C	1.283223	-0.308930	0.596718
C165	C	1.616556	0.024403	0.930052
C166	C	0.869465	-0.975416	0.343842
C167	C	1.202798	-0.642082	0.677176
C168	C	1.536131	-0.308749	1.010509
C169	C	0.869482	-1.030018	0.343845
C170	C	1.202815	-0.696685	0.677179
C171	C	1.536148	-0.363351	1.010512
C172	C	0.950051	-1.029941	0.263431
C173	C	1.283384	-0.696608	0.596764
C174	C	1.616717	-0.363274	0.930097
C175	C	0.950030	-0.975338	0.263425
C176	C	1.283363	-0.642004	0.596758
C177	C	1.616697	-0.308671	0.930092
C178	C	0.909737	-0.948076	0.303634
C179	C	1.243071	-0.614742	0.636967
C180	C	1.576404	-0.281409	0.970301
C181	C	0.949833	-0.527598	0.263369
C182	C	1.283166	-0.194265	0.596702
C183	C	1.616499	0.139068	0.930035
C184	C	0.949802	-0.472993	0.263361
C185	C	1.283135	-0.139660	0.596695
C186	C	1.616468	0.193674	0.930028
C187	C	0.869235	-0.473075	0.343778
C188	C	1.202569	-0.139741	0.677111
C189	C	1.535902	0.193592	1.010444
C190	C	0.869264	-0.527675	0.343783
C191	C	1.202597	-0.194342	0.677116
C192	C	1.535930	0.138991	1.010450
C193	C	0.909567	-0.554936	0.303576
C194	C	1.242901	-0.221602	0.636910
C195	C	1.576234	0.111731	0.970243
O196	O	0.835058	-0.614090	0.377953
O197	O	1.168391	-0.280757	0.711286
O198	O	1.501725	0.052576	1.044619
O199	O	0.984142	-0.613988	0.229195
O200	O	1.317475	-0.280654	0.562529
O201	O	1.650809	0.052679	0.895862
C202	C	1.073792	-0.251746	0.303657
C203	C	1.407126	0.081587	0.636990
C204	C	1.740459	0.414921	0.970324
C205	C	1.143760	-0.251734	0.303688
C206	C	1.477094	0.081599	0.637021
C207	C	1.810427	0.414932	0.970355
C208	C	0.909632	-0.251797	0.467774
C209	C	1.242966	0.081536	0.801107
C210	C	1.576299	0.414870	1.134441
C211	C	0.909645	-0.251807	0.537742
C212	C	1.242979	0.081526	0.871076
C213	C	1.576312	0.414859	1.204409
C214	C	0.909725	-0.115400	0.303627
C215	C	1.243059	0.217933	0.636960
C216	C	1.576392	0.551267	0.970293
C217	C	0.909778	-0.057286	0.303645
C218	C	1.243111	0.276047	0.636978
C219	C	1.576445	0.609381	0.970312
C220	C	0.949931	-0.218366	0.570638
C221	C	1.283264	0.114968	0.903972
C222	C	1.616598	0.448301	1.237305
C223	C	0.949921	-0.218357	0.636381
C224	C	1.283255	0.114976	0.969714
C225	C	1.616588	0.448310	1.303047
C226	C	0.909633	-0.251799	0.669225
C227	C	1.242966	0.081534	1.002558
C228	C	1.576300	0.414867	1.335891
C229	C	0.869339	-0.285243	0.636321
C230	C	1.202673	0.048090	0.969654
C231	C	1.536006	0.381424	1.302987
C232	C	0.869346	-0.285247	0.570579
C233	C	1.202679	0.048086	0.903913
C234	C	1.536012	0.381420	1.237246
N235	N	0.904755	-0.297561	0.772440
N236	N	1.238088	0.035773	1.105774
N237	N	1.571421	0.369106	1.439107
N238	N	0.904752	-0.297555	0.834892
N239	N	1.238086	0.035778	1.168225
N240	N	1.571419	0.369111	1.501559
C241	C	0.909611	-0.251789	0.867299
C242	C	1.242944	0.081545	1.200633
C243	C	1.576277	0.414878	1.533966
N244	N	0.914484	-0.206026	0.834896
N245	N	1.247817	0.127307	1.168230
N246	N	1.581150	0.460640	1.501563
N247	N	0.914489	-0.206032	0.772439
N248	N	1.247822	0.127301	1.105772
N249	N	1.581156	0.460635	1.439106
C250	C	0.909621	-0.251798	0.740510
C251	C	1.242955	0.081535	1.073843
C252	C	1.576288	0.414868	1.407177
C253	C	0.949888	-0.218335	0.971481
C254	C	1.283221	0.114999	1.304814
C255	C	1.616555	0.448332	1.638148
C256	C	0.949874	-0.218325	1.037225
C257	C	1.283207	0.115008	1.370558
C258	C	1.616541	0.448341	1.703891
C259	C	0.869295	-0.285216	1.037163
C260	C	1.202629	0.048117	1.370497
C261	C	1.535962	0.381451	1.703830
C262	C	0.869306	-0.285221	0.971421
C263	C	1.202639	0.048112	1.304754
C264	C	1.535973	0.381446	1.638088
C265	C	0.909606	-0.251781	0.938584
C266	C	1.242939	0.081552	1.271917
C267	C	1.576272	0.414886	1.605250
C268	C	0.909574	-0.251765	1.140032
C269	C	1.242908	0.081568	1.473366
C270	C	1.576241	0.414902	1.806699
C271	C	0.909584	-0.251767	1.070064
C272	C	1.242918	0.081566	1.403397
C273	C	1.576251	0.414899	1.736731
H274	H	0.149878	-0.190964	0.230781
H275	H	0.483212	0.142369	0.564115
H276	H	0.816545	0.475703	0.897448
H277	H	0.149859	-0.312504	0.376594
H278	H	0.483192	0.020829	0.709927
H279	H	0.816525	0.354163	1.043260
H280	H	0.836648	-0.953222	0.376583
H281	H	1.169982	-0.619888	0.709917
H282	H	1.503315	-0.286555	1.043250
Br283	Br	0.532877	-0.172842	0.208830
Br284	Br	0.866211	0.160492	0.542163
Br285	Br	1.199544	0.493825	0.875497
H286	H	0.669987	-0.191044	0.230596
H287	H	1.003320	0.142289	0.563929
H288	H	1.336653	0.475622	0.897263
Br289	Br	0.774454	-0.815963	0.438625
Br290	Br	1.107788	-0.482629	0.771958
Br291	Br	1.441121	-0.149296	1.105291
Br292	Br	1.004562	-0.172944	1.081871
Br293	Br	1.337895	0.160389	1.415204
Br294	Br	1.671229	0.493723	1.748538
Br295	Br	0.687803	-0.330788	0.398205
Br296	Br	1.021136	0.002546	0.731538
Br297	Br	1.354469	0.335879	1.064872
Br298	Br	0.814657	-0.330626	0.680893
Br299	Br	1.147990	0.002708	1.014226
Br300	Br	1.481324	0.336041	1.347559
Br301	Br	0.814609	-0.330596	1.081730
Br302	Br	1.147942	0.002737	1.415063
Br303	Br	1.481275	0.336070	1.748397
Br304	Br	1.004583	-0.172956	0.681036
Br305	Br	1.337916	0.160377	1.014369
Br306	Br	1.671250	0.493711	1.347702
Br307	Br	0.814631	-0.330609	0.926773
Br308	Br	1.147964	0.002724	1.260106
Br309	Br	1.481297	0.336057	1.593440
H310	H	0.269146	-0.190986	0.230734
H311	H	0.602479	0.142348	0.564067
H312	H	0.935813	0.475681	0.897401
H313	H	0.836537	-0.312479	0.543796
H314	H	1.169871	0.020855	0.877129
H315	H	1.503204	0.354188	1.210463
H316	H	0.796277	-0.702075	0.416773
H317	H	1.129611	-0.368741	0.750106
H318	H	1.462944	-0.035408	1.083439
H319	H	0.982595	-0.450736	0.230611
H320	H	1.315928	-0.117403	0.563944
H321	H	1.649262	0.215930	0.897278
H322	H	0.550696	-0.312574	0.376445
H323	H	0.884030	0.020759	0.709778
H324	H	1.217363	0.354092	1.043112
Br325	Br	1.004577	-0.172952	0.926912
Br326	Br	1.337910	0.160382	1.260246
Br327	Br	1.671243	0.493715	1.593579
Br328	Br	1.004531	-0.564586	0.208802
Br329	Br	1.337864	-0.231253	0.542135
Br330	Br	1.671198	0.102081	0.875469
H331	H	0.836474	-0.549935	0.376532
H332	H	1.169807	-0.216601	0.709865
H333	H	1.503140	0.116732	1.043198
H334	H	0.269123	-0.312530	0.376545
H335	H	0.602456	0.020803	0.709878
H336	H	0.935789	0.354136	1.043212
H337	H	1.022997	-0.701875	0.190443
H338	H	1.356331	-0.368541	0.523777
H339	H	1.689664	-0.035208	0.857110
H340	H	1.023044	-0.800922	0.190459
H341	H	1.356378	-0.467589	0.523793
H342	H	1.689711	-0.134255	0.857126
H343	H	0.982822	-0.953083	0.230679
H344	H	1.316156	-0.619750	0.564012
H345	H	1.649489	-0.286416	0.897345
H346	H	0.836683	-1.052272	0.376587
H347	H	1.170017	-0.718938	0.709920
H348	H	1.503350	-0.385605	1.043253
Br349	Br	1.004733	-1.066952	0.208867
Br350	Br	1.338066	-0.733618	0.542200
Br351	Br	1.671400	-0.400285	0.875534
H352	H	0.836427	-0.450869	0.376508
H353	H	1.169760	-0.117535	0.709842
H354	H	1.503094	0.215798	1.043175
H355	H	0.982745	-0.191136	0.543906
H356	H	1.316079	0.142198	0.877240
H357	H	1.649412	0.475531	1.210573
