data_functionalizedCrystal
_audit_creation_method	'MofGen! by Chris Wilmer'
_symmetry_space_group_name_H-M	'P1'
_symmetry_Int_Tables_number	1
_symmetry_cell_setting	triclinic
loop_
_symmetry_equiv_pos_as_xyz
  x,y,z
_cell_length_a	17.699083
_cell_length_b	11.804365
_cell_length_c	17.699083
_cell_angle_alpha	78.194645
_cell_angle_beta	96.716985
_cell_angle_gamma	78.182581
loop_
_atom_site_label
_atom_site_type_symbol
_atom_site_fract_x
_atom_site_fract_y
_atom_site_fract_z
O1	O	-1.019367	0.098847	0.080429
O2	O	-0.519367	0.598847	0.580429
O3	O	-0.798995	0.098889	0.092875
O4	O	-0.298995	0.598889	0.592875
O5	O	-0.915405	0.098856	-0.023535
O6	O	-0.415405	0.598856	0.476465
O7	O	-0.902956	0.098880	0.196839
O8	O	-0.402956	0.598880	0.696839
O9	O	-0.884759	-0.099191	0.007080
O10	O	-0.384759	0.400809	0.507080
O11	O	-0.768348	-0.099158	0.123490
O12	O	-0.268348	0.400842	0.623490
O13	O	-0.988720	-0.099200	0.111045
O14	O	-0.488720	0.400800	0.611045
Cu15	Cu	-0.875736	-0.117263	0.120063
Cu16	Cu	-0.375736	0.382737	0.620063
Cu17	Cu	-0.911979	0.116951	0.083856
Cu18	Cu	-0.411979	0.616951	0.583856
O19	O	-0.872310	-0.099168	0.227455
O20	O	-0.372310	0.400832	0.727455
C21	C	-0.755475	-0.000129	0.107736
C22	C	-0.255475	0.499871	0.607736
C23	C	-0.671460	-0.000114	0.106395
C24	C	-0.171460	0.499886	0.606395
N25	N	-0.850250	-0.281996	0.145528
N26	N	-0.350250	0.218004	0.645528
C27	C	-0.622840	-0.000106	0.174727
C28	C	-0.122840	0.499894	0.674727
C29	C	-0.543894	-0.000121	0.173467
C30	C	-0.043894	0.499879	0.673467
C31	C	-0.513571	-0.000134	0.103873
C32	C	-0.013571	0.499866	0.603873
C33	C	-0.562197	-0.000145	0.035536
C34	C	-0.062197	0.499855	0.535536
C35	C	-0.641140	-0.000139	0.036798
C36	C	-0.141140	0.499861	0.536798
C37	C	-0.243830	-0.000172	0.030444
C38	C	0.256170	0.499828	0.530444
C39	C	-0.164881	-0.000174	0.029187
C40	C	0.335119	0.499826	0.529187
C41	C	-0.146585	-0.000153	0.167114
C42	C	0.353415	0.499847	0.667114
C43	C	-0.225527	-0.000147	0.168376
C44	C	0.274473	0.499853	0.668376
C45	C	-0.274145	-0.000164	0.100040
C46	C	0.225855	0.499836	0.600040
C47	C	-0.359746	-0.000151	0.101408
C48	C	0.140254	0.499849	0.601408
C49	C	-0.427973	-0.000139	0.102503
C50	C	0.072027	0.499861	0.602503
C51	C	-0.998671	-0.655986	-0.002781
C52	C	-0.498671	-0.155986	0.497219
C53	C	-1.017950	-0.531330	-0.022048
C54	C	-0.517950	-0.031330	0.477952
C55	C	-0.976027	-0.468990	0.019844
C56	C	-0.476027	0.031010	0.519844
C57	C	-0.914821	-0.531319	0.081008
C58	C	-0.414821	-0.031319	0.581008
C59	C	-0.895544	-0.655988	0.100281
C60	C	-0.395544	-0.155988	0.600281
C61	C	-0.872900	-0.468992	0.122906
C62	C	-0.372900	0.031008	0.622906
C63	C	-0.811694	-0.531321	0.184069
C64	C	-0.311694	-0.031321	0.684069
C65	C	-0.792420	-0.655977	0.203339
C66	C	-0.292420	-0.155977	0.703339
C67	C	-0.834344	-0.718317	0.161447
C68	C	-0.334344	-0.218317	0.661447
C69	C	-0.892177	-0.344323	0.103632
C70	C	-0.392177	0.155677	0.603632
C71	C	-0.789050	-0.344325	0.206694
C72	C	-0.289050	0.155675	0.706694
C73	C	-0.769771	-0.468981	0.225962
C74	C	-0.269771	0.031019	0.725962
C75	C	-0.032241	-0.000176	0.096183
C76	C	0.467759	0.499824	0.596183
C77	C	-0.116259	-0.000175	0.097521
C78	C	0.383741	0.499825	0.597521
C79	C	-0.899636	-0.000167	-0.036425
C80	C	-0.399636	0.499833	0.463575
C81	C	-0.898297	-0.000168	-0.120443
C82	C	-0.398297	0.499832	0.379557
N83	N	-0.937471	0.281685	0.058385
N84	N	-0.437471	0.781685	0.558385
C85	C	-0.966628	-0.000182	-0.169061
C86	C	-0.466628	0.499818	0.330939
C87	C	-0.965368	-0.000171	-0.248006
C88	C	-0.465368	0.499829	0.251994
C89	C	-0.895774	-0.000155	-0.278330
C90	C	-0.395774	0.499845	0.221670
C91	C	-0.827438	-0.000136	-0.229705
C92	C	-0.327438	0.499864	0.270295
C93	C	-0.828701	-0.000139	-0.150763
C94	C	-0.328701	0.499861	0.349237
C95	C	-0.822344	-0.000126	-0.548070
C96	C	-0.322344	0.499874	-0.048070
C97	C	-0.821086	-0.000127	-0.627018
C98	C	-0.321086	0.499873	-0.127018
C99	C	-0.959011	-0.000159	-0.645313
C100	C	-0.459011	0.499841	-0.145313
C101	C	-0.960274	-0.000161	-0.566371
C102	C	-0.460274	0.499839	-0.066371
C103	C	-0.891940	-0.000136	-0.517755
C104	C	-0.391940	0.499864	-0.017755
C105	C	-0.893308	-0.000146	-0.432154
C106	C	-0.393308	0.499854	0.067846
C107	C	-0.894404	-0.000154	-0.363928
C108	C	-0.394404	0.499846	0.136072
C109	C	-0.888080	-0.000141	0.240344
C110	C	-0.388080	0.499859	0.740344
C111	C	-0.889420	-0.000133	0.324361
C112	C	-0.389420	0.499867	0.824361
H113	H	-0.647522	-0.000094	0.231399
H114	H	-0.147522	0.499906	0.731399
Br115	Br	-0.477913	-0.000107	0.266207
Br116	Br	0.022087	0.499893	0.766207
Br117	Br	-0.266677	-0.000118	0.262827
Br118	Br	0.233323	0.499882	0.762827
H119	H	-0.106989	-0.000145	0.222757
H120	H	0.393011	0.499855	0.722757
H121	H	-0.991727	-0.367490	0.004154
H122	H	-0.491727	0.132510	0.504154
Br123	Br	-0.729606	-0.000085	-0.482102
Br124	Br	-0.229606	0.499915	0.017898
H125	H	-0.537499	-0.000173	-0.021127
H126	H	-0.037499	0.499827	0.478873
Br127	Br	-0.707124	-0.000160	-0.055941
Br128	Br	-0.207124	0.499840	0.444059
Br129	Br	-0.732991	-0.000093	-0.270861
Br130	Br	-0.232991	0.499907	0.229139
H131	H	-1.016943	-0.000180	-0.541686
H132	H	-0.516943	0.499820	-0.041686
H133	H	-1.023298	-0.000203	-0.144378
H134	H	-0.523298	0.499797	0.355622
Br135	Br	-1.051753	-0.000191	-0.711297
Br136	Br	-0.551753	0.499809	-0.211297
Br137	Br	-0.975239	-0.259750	0.020629
Br138	Br	-0.475239	0.240250	0.520629
H139	H	-0.764411	-0.000116	-0.651703
H140	H	-0.264411	0.499884	-0.151703
H141	H	-0.140196	-0.000187	-0.027488
H142	H	0.359804	0.499813	0.472512
H143	H	-0.754913	-0.293569	0.240808
H144	H	-0.254913	0.206431	0.740808
H145	H	-0.773058	-0.000126	-0.111178
H146	H	-0.273058	0.499874	0.388822
H147	H	-0.283405	-0.000187	-0.025199
H148	H	0.216595	0.499813	0.474801
Br149	Br	-1.055571	-0.740589	-0.059620
Br150	Br	-0.555571	-0.240589	0.440380
Br151	Br	-1.101012	-0.446742	-0.105049
Br152	Br	-0.601012	0.053258	0.394951
Br153	Br	-0.808172	-0.887501	0.187593
Br154	Br	-0.308172	-0.387501	0.687593
H155	H	-0.742589	-0.706725	0.253148
H156	H	-0.242589	-0.206725	0.753148
H157	H	-0.719936	-0.519745	0.275763
H158	H	-0.219936	-0.019745	0.775763
Br159	Br	-1.058107	-0.000191	-0.313987
Br160	Br	-0.558107	0.499809	0.186013
