data_functionalizedCrystal
_audit_creation_method	'MofGen! by Chris Wilmer'
_symmetry_space_group_name_H-M	'P1'
_symmetry_Int_Tables_number	1
_symmetry_cell_setting	triclinic
loop_
_symmetry_equiv_pos_as_xyz
  x,y,z
_cell_length_a	19.805407
_cell_length_b	19.805405
_cell_length_c	19.805407
_cell_angle_alpha	90.012351
_cell_angle_beta	90.010057
_cell_angle_gamma	90.028666
loop_
_atom_site_label
_atom_site_type_symbol
_atom_site_fract_x
_atom_site_fract_y
_atom_site_fract_z
Zn1	Zn	1.034665	-0.269539	0.382739
Zn2	Zn	1.284665	-0.019539	0.632739
Zn3	Zn	1.534665	0.230461	0.882739
Zn4	Zn	1.784665	0.480461	1.132739
Zn5	Zn	1.034600	-0.382699	0.269553
Zn6	Zn	1.284600	-0.132699	0.519553
Zn7	Zn	1.534600	0.117301	0.769553
Zn8	Zn	1.784600	0.367301	1.019553
Zn9	Zn	0.921500	-0.269533	0.269562
Zn10	Zn	1.171500	-0.019533	0.519562
Zn11	Zn	1.421500	0.230467	0.769562
Zn12	Zn	1.671500	0.480467	1.019562
Zn13	Zn	0.921443	-0.382695	0.382698
Zn14	Zn	1.171443	-0.132695	0.632698
Zn15	Zn	1.421443	0.117305	0.882698
Zn16	Zn	1.671443	0.367305	1.132698
O17	O	0.978052	-0.326117	0.326138
O18	O	1.228052	-0.076117	0.576138
O19	O	1.478052	0.173883	0.826138
O20	O	1.728052	0.423883	1.076138
O21	O	1.129373	-0.284554	0.367738
O22	O	1.379373	-0.034554	0.617738
O23	O	1.629373	0.215446	0.867738
O24	O	1.879373	0.465446	1.117738
O25	O	1.019594	-0.367687	0.174837
O26	O	1.269594	-0.117687	0.424837
O27	O	1.519594	0.132313	0.674837
O28	O	1.769594	0.382313	0.924837
O29	O	0.936563	-0.174818	0.284596
O30	O	1.186563	0.075182	0.534596
O31	O	1.436563	0.325182	0.784596
O32	O	1.686563	0.575182	1.034596
O33	O	1.129325	-0.367692	0.284581
O34	O	1.379325	-0.117692	0.534581
O35	O	1.629325	0.132308	0.784581
O36	O	1.879325	0.382308	1.034581
O37	O	1.019705	-0.174822	0.367747
O38	O	1.269705	0.075178	0.617747
O39	O	1.519705	0.325178	0.867747
O40	O	1.769705	0.575178	1.117747
O41	O	0.936500	-0.284544	0.174844
O42	O	1.186500	-0.034544	0.424844
O43	O	1.436500	0.215456	0.674844
O44	O	1.686500	0.465456	0.924844
O45	O	0.826776	-0.284541	0.284556
O46	O	1.076776	-0.034541	0.534556
O47	O	1.326776	0.215459	0.784556
O48	O	1.576776	0.465459	1.034556
O49	O	0.936465	-0.367686	0.477420
O50	O	1.186465	-0.117686	0.727420
O51	O	1.436465	0.132314	0.977420
O52	O	1.686465	0.382314	1.227420
O53	O	0.826734	-0.367680	0.367677
O54	O	1.076734	-0.117680	0.617677
O55	O	1.326734	0.132320	0.867677
O56	O	1.576734	0.382320	1.117677
O57	O	1.019649	-0.284550	0.477450
O58	O	1.269649	-0.034550	0.727450
O59	O	1.519649	0.215450	0.977450
O60	O	1.769649	0.465450	1.227450
O61	O	1.019538	-0.477415	0.284541
O62	O	1.269538	-0.227415	0.534541
O63	O	1.519538	0.022585	0.784541
O64	O	1.769538	0.272585	1.034541
O65	O	0.936402	-0.477412	0.367668
O66	O	1.186402	-0.227412	0.617668
O67	O	1.436402	0.022588	0.867668
O68	O	1.686402	0.272588	1.117668
C69	C	0.802196	-0.326110	0.326114
C70	C	1.052196	-0.076110	0.576114
C71	C	1.302196	0.173890	0.826114
C72	C	1.552196	0.423890	1.076114
C73	C	0.726964	-0.326123	0.326119
C74	C	0.976964	-0.076123	0.576119
C75	C	1.226964	0.173877	0.826119
C76	C	1.476964	0.423877	1.076119
C77	C	0.977975	-0.501973	0.326113
C78	C	1.227975	-0.251973	0.576113
C79	C	1.477975	-0.001973	0.826113
C80	C	1.727975	0.248027	1.076113
C81	C	0.978004	-0.577205	0.326126
C82	C	1.228004	-0.327205	0.576126
C83	C	1.478004	-0.077205	0.826126
C84	C	1.728004	0.172795	1.076126
C85	C	0.265201	-0.282908	0.369531
C86	C	0.515201	-0.032908	0.619531
C87	C	0.765201	0.217092	0.869531
C88	C	1.015201	0.467092	1.119531
C89	C	0.335890	-0.282909	0.369526
C90	C	0.585890	-0.032909	0.619526
C91	C	0.835890	0.217091	0.869526
C92	C	1.085890	0.467091	1.119526
C93	C	0.371202	-0.326127	0.326160
C94	C	0.621202	-0.076127	0.576160
C95	C	0.871202	0.173873	0.826160
C96	C	1.121202	0.423873	1.076160
C97	C	0.335822	-0.369352	0.282801
C98	C	0.585822	-0.119352	0.532801
C99	C	0.835822	0.130648	0.782801
C100	C	1.085822	0.380648	1.032801
C101	C	0.265135	-0.369353	0.282810
C102	C	0.515135	-0.119353	0.532810
C103	C	0.765135	0.130647	0.782810
C104	C	1.015135	0.380647	1.032810
C105	C	0.620896	-0.369346	0.282765
C106	C	0.870896	-0.119346	0.532765
C107	C	1.120896	0.130654	0.782765
C108	C	1.370896	0.380654	1.032765
C109	C	0.691588	-0.369340	0.282758
C110	C	0.941588	-0.119340	0.532758
C111	C	1.191588	0.130660	0.782758
C112	C	1.441588	0.380660	1.032758
C113	C	0.691650	-0.282902	0.369481
C114	C	0.941650	-0.032902	0.619481
C115	C	1.191650	0.217098	0.869481
C116	C	1.441650	0.467098	1.119481
C117	C	0.620963	-0.282904	0.369490
C118	C	0.870963	-0.032904	0.619490
C119	C	1.120963	0.217096	0.869490
C120	C	1.370963	0.467096	1.119490
C121	C	0.585589	-0.326131	0.326134
C122	C	0.835589	-0.076131	0.576134
C123	C	1.085589	0.173869	0.826134
C124	C	1.335589	0.423869	1.076134
C125	C	0.508941	-0.326130	0.326140
C126	C	0.758941	-0.076130	0.576140
C127	C	1.008941	0.173870	0.826140
C128	C	1.258941	0.423870	1.076140
C129	C	0.447849	-0.326125	0.326149
C130	C	0.697849	-0.076125	0.576149
C131	C	0.947849	0.173875	0.826149
C132	C	1.197849	0.423875	1.076149
C133	C	1.021270	-0.612493	0.369456
C134	C	1.271270	-0.362493	0.619456
C135	C	1.521270	-0.112493	0.869456
C136	C	1.771270	0.137507	1.119456
C137	C	1.021294	-0.683181	0.369469
C138	C	1.271294	-0.433181	0.619469
C139	C	1.521294	-0.183181	0.869469
C140	C	1.771294	0.066819	1.119469
C141	C	0.978055	-0.718580	0.326147
C142	C	1.228055	-0.468580	0.576147
C143	C	1.478055	-0.218580	0.826147
C144	C	1.728055	0.031420	1.076147
C145	C	0.934784	-0.683287	0.282814
C146	C	1.184784	-0.433287	0.532814
C147	C	1.434784	-0.183287	0.782814
C148	C	1.684784	0.066713	1.032814
C149	C	0.934757	-0.612600	0.282806
C150	C	1.184757	-0.362600	0.532806
C151	C	1.434757	-0.112600	0.782806
C152	C	1.684757	0.137400	1.032806
C153	C	0.934893	-0.968361	0.282849
C154	C	1.184893	-0.718361	0.532849
C155	C	1.434893	-0.468361	0.782849
C156	C	1.684893	-0.218361	1.032849
C157	C	0.934925	-1.039053	0.282860
C158	C	1.184925	-0.789053	0.532860
C159	C	1.434925	-0.539053	0.782860
C160	C	1.684925	-0.289053	1.032860
C161	C	1.021430	-1.038942	0.369512
C162	C	1.271430	-0.788942	0.619512
C163	C	1.521430	-0.538942	0.869512
C164	C	1.771430	-0.288942	1.119512
C165	C	1.021403	-0.968255	0.369503
C166	C	1.271403	-0.718255	0.619503
C167	C	1.521403	-0.468255	0.869503
C168	C	1.771403	-0.218255	1.119503
C169	C	0.978130	-0.932968	0.326174
C170	C	1.228130	-0.682968	0.576174
C171	C	1.478130	-0.432968	0.826174
C172	C	1.728130	-0.182968	1.076174
C173	C	0.978103	-0.856319	0.326162
C174	C	1.228103	-0.606319	0.576162
C175	C	1.478103	-0.356319	0.826162
C176	C	1.728103	-0.106319	1.076162
C177	C	0.978085	-0.795228	0.326155
C178	C	1.228085	-0.545228	0.576155
C179	C	1.478085	-0.295228	0.826155
C180	C	1.728085	-0.045228	1.076155
C181	C	1.154595	-0.326124	0.326163
C182	C	1.404595	-0.076124	0.576163
C183	C	1.654595	0.173876	0.826163
C184	C	1.904595	0.423876	1.076163
C185	C	1.229827	-0.326128	0.326174
C186	C	1.479827	-0.076128	0.576174
C187	C	1.729827	0.173872	0.826174
C188	C	1.979827	0.423872	1.076174
C189	C	0.978058	-0.326118	0.502681
C190	C	1.228058	-0.076118	0.752681
C191	C	1.478058	0.173882	1.002681
C192	C	1.728058	0.423882	1.252681
C193	C	0.978060	-0.326119	0.577913
C194	C	1.228060	-0.076119	0.827913
C195	C	1.478060	0.173881	1.077913
C196	C	1.728060	0.423881	1.327913
C197	C	0.978148	-0.149574	0.326177
C198	C	1.228148	0.100426	0.576177
C199	C	1.478148	0.350426	0.826177
C200	C	1.728148	0.600426	1.076177
C201	C	0.978189	-0.074342	0.326194
C202	C	1.228189	0.175658	0.576194
C203	C	1.478189	0.425658	0.826194
C204	C	1.728189	0.675658	1.076194
C205	C	1.021369	-0.282837	0.613274
C206	C	1.271369	-0.032837	0.863274
C207	C	1.521369	0.217163	1.113274
C208	C	1.771369	0.467163	1.363274
C209	C	1.021363	-0.282835	0.683962
C210	C	1.271363	-0.032835	0.933962
C211	C	1.521363	0.217165	1.183962
C212	C	1.771363	0.467165	1.433962
C213	C	0.978052	-0.326119	0.719288
C214	C	1.228052	-0.076119	0.969288
C215	C	1.478052	0.173881	1.219288
C216	C	1.728052	0.423881	1.469288
C217	C	0.934738	-0.369402	0.683922
C218	C	1.184738	-0.119402	0.933922
C219	C	1.434738	0.130598	1.183922
C220	C	1.684738	0.380598	1.433922
C221	C	0.934741	-0.369401	0.613235
C222	C	1.184741	-0.119401	0.863235
C223	C	1.434741	0.130599	1.113235
C224	C	1.684741	0.380599	1.363235
C225	C	0.934725	-0.369410	0.968996
C226	C	1.184725	-0.119410	1.218996
C227	C	1.434725	0.130590	1.468996
C228	C	1.684725	0.380590	1.718996
C229	C	0.934727	-0.369410	1.039688
C230	C	1.184727	-0.119410	1.289688
C231	C	1.434727	0.130590	1.539688
C232	C	1.684727	0.380590	1.789688
C233	C	1.021347	-0.282845	1.039723
C234	C	1.271347	-0.032845	1.289723
C235	C	1.521347	0.217155	1.539723
C236	C	1.771347	0.467155	1.789723
C237	C	1.021350	-0.282843	0.969035
C238	C	1.271350	-0.032843	1.219035
C239	C	1.521350	0.217157	1.469035
C240	C	1.771350	0.467157	1.719035
C241	C	0.978034	-0.326124	0.933676
C242	C	1.228034	-0.076124	1.183676
C243	C	1.478034	0.173876	1.433676
C244	C	1.728034	0.423876	1.683676
C245	C	0.978040	-0.326124	0.857027
C246	C	1.228040	-0.076124	1.107027
C247	C	1.478040	0.173876	1.357027
C248	C	1.728040	0.423876	1.607027
C249	C	0.978049	-0.326122	0.795935
C250	C	1.228049	-0.076122	1.045935
C251	C	1.478049	0.173878	1.295935
C252	C	1.728049	0.423878	1.545935
C253	C	0.978039	-0.326129	1.150282
C254	C	1.228039	-0.076129	1.400282
C255	C	1.478039	0.173871	1.650282
C256	C	1.728039	0.423871	1.900282
C257	C	0.978033	-0.326124	1.075050
C258	C	1.228033	-0.076124	1.325050
C259	C	1.478033	0.173876	1.575050
C260	C	1.728033	0.423876	1.825050
H261	H	0.236455	-0.247710	0.404840
H262	H	0.486455	0.002290	0.654840
H263	H	0.736455	0.252290	0.904840
H264	H	0.986455	0.502290	1.154840
H265	H	0.720337	-0.404536	0.247443
H266	H	0.970337	-0.154536	0.497443
H267	H	1.220337	0.095464	0.747443
H268	H	1.470337	0.345464	0.997443
H269	H	0.899455	-0.404659	1.068448
H270	H	1.149455	-0.154659	1.318448
H271	H	1.399455	0.095341	1.568448
H272	H	1.649455	0.345341	1.818448
C273	C	0.581994	-0.416886	0.235067
C274	C	0.831994	-0.166886	0.485067
C275	C	1.081994	0.083114	0.735067
C276	C	1.331994	0.333114	0.985067
H277	H	0.613150	-0.442617	0.209234
H278	H	0.863150	-0.192617	0.459234
H279	H	1.113150	0.057383	0.709234
H280	H	1.363150	0.307383	0.959234
H281	H	0.554411	-0.446421	0.260905
H282	H	0.804411	-0.196421	0.510905
H283	H	1.054411	0.053579	0.760905
H284	H	1.304411	0.303579	1.010905
H285	H	0.554424	-0.390943	0.205623
H286	H	0.804424	-0.140943	0.455623
H287	H	1.054424	0.109057	0.705623
H288	H	1.304424	0.359057	0.955623
C289	C	0.887104	-0.417010	0.574335
C290	C	1.137104	-0.167010	0.824335
C291	C	1.387104	0.082990	1.074335
C292	C	1.637104	0.332990	1.324335
H293	H	0.893303	-0.410805	0.527177
H294	H	1.143303	-0.160805	0.777177
H295	H	1.393303	0.089195	1.027177
H296	H	1.643303	0.339195	1.277177
H297	H	0.896981	-0.462488	0.585909
H298	H	1.146981	-0.212488	0.835909
H299	H	1.396981	0.037512	1.085909
H300	H	1.646981	0.287512	1.335909
H301	H	0.841630	-0.407095	0.585913
H302	H	1.091630	-0.157095	0.835913
H303	H	1.341630	0.092905	1.085913
H304	H	1.591630	0.342905	1.335913
H305	H	0.592215	-0.247709	0.404800
H306	H	0.842215	0.002291	0.654800
H307	H	1.092215	0.252291	0.904800
H308	H	1.342215	0.502291	1.154800
H309	H	0.364579	-0.404543	0.247494
H310	H	0.614579	-0.154543	0.497494
H311	H	0.864579	0.095457	0.747494
H312	H	1.114579	0.345457	0.997494
C313	C	0.226223	-0.416894	0.235116
C314	C	0.476223	-0.166894	0.485116
C315	C	0.726223	0.083106	0.735116
C316	C	0.976223	0.333106	0.985116
H317	H	0.257377	-0.442629	0.209283
H318	H	0.507377	-0.192629	0.459283
H319	H	0.757377	0.057371	0.709283
H320	H	1.007377	0.307371	0.959283
H321	H	0.198642	-0.446425	0.260959
H322	H	0.448642	-0.196425	0.510959
H323	H	0.698642	0.053575	0.760959
H324	H	0.948642	0.303575	1.010959
H325	H	0.198652	-0.390953	0.205671
H326	H	0.448652	-0.140953	0.455671
H327	H	0.698652	0.109047	0.705671
H328	H	0.948652	0.359047	0.955671
H329	H	0.899465	-0.404662	0.940214
H330	H	1.149465	-0.154662	1.190214
H331	H	1.399465	0.095338	1.440214
H332	H	1.649465	0.345338	1.690214
C333	C	0.887356	-1.077994	0.235210
C334	C	1.137356	-0.827994	0.485210
C335	C	1.387356	-0.577994	0.735210
C336	C	1.637356	-0.327994	0.985210
H337	H	0.893577	-1.125146	0.241418
H338	H	1.143577	-0.875146	0.491418
H339	H	1.393577	-0.625146	0.741418
H340	H	1.643577	-0.375146	0.991418
H341	H	0.841867	-1.066449	0.245075
H342	H	1.091867	-0.816449	0.495075
H343	H	1.341867	-0.566449	0.745075
H344	H	1.591867	-0.316449	0.995075
H345	H	0.897291	-1.066417	0.189737
H346	H	1.147291	-0.816417	0.439737
H347	H	1.397291	-0.566417	0.689737
H348	H	1.647291	-0.316417	0.939737
C349	C	1.069009	-0.235221	0.574421
C350	C	1.319009	0.014779	0.824421
C351	C	1.569009	0.264779	1.074421
C352	C	1.819009	0.514779	1.324421
H353	H	1.094795	-0.209438	0.605608
H354	H	1.344795	0.040562	0.855608
H355	H	1.594795	0.290562	1.105608
H356	H	1.844795	0.540562	1.355608
H357	H	1.098489	-0.261108	0.546844
H358	H	1.348489	-0.011108	0.796844
H359	H	1.598489	0.238892	1.046844
H360	H	1.848489	0.488892	1.296844
H361	H	1.043127	-0.205726	0.546851
H362	H	1.293127	0.044274	0.796851
H363	H	1.543127	0.294274	1.046851
H364	H	1.793127	0.544274	1.296851
C365	C	0.887165	-0.573780	0.235144
C366	C	1.137165	-0.323780	0.485144
C367	C	1.387165	-0.073780	0.735144
C368	C	1.637165	0.176220	0.985144
H369	H	0.893336	-0.526612	0.241348
H370	H	1.143336	-0.276612	0.491348
H371	H	1.393336	-0.026612	0.741348
H372	H	1.643336	0.223388	0.991348
H373	H	0.897107	-0.585369	0.189676
H374	H	1.147107	-0.335369	0.439676
H375	H	1.397107	-0.085369	0.689676
H376	H	1.647107	0.164631	0.939676
H377	H	0.841684	-0.585403	0.245015
H378	H	1.091684	-0.335403	0.495015
H379	H	1.341684	-0.085403	0.745015
H380	H	1.591684	0.164597	0.995015
C381	C	0.887219	-0.722221	0.235162
C382	C	1.137219	-0.472221	0.485162
C383	C	1.387219	-0.222221	0.735162
C384	C	1.637219	0.027779	0.985162
H385	H	0.861442	-0.691079	0.209360
H386	H	1.111442	-0.441079	0.459360
H387	H	1.361442	-0.191079	0.709360
H388	H	1.611442	0.058921	0.959360
H389	H	0.913142	-0.749784	0.205698
H390	H	1.163142	-0.499784	0.455698
H391	H	1.413142	-0.249784	0.705698
H392	H	1.663142	0.000216	0.955698
H393	H	0.857717	-0.749812	0.261035
H394	H	1.107717	-0.499812	0.511035
H395	H	1.357717	-0.249812	0.761035
H396	H	1.607717	0.000188	1.011035
C397	C	1.069006	-0.235228	0.722856
C398	C	1.319006	0.014772	0.972856
C399	C	1.569006	0.264772	1.222856
C400	C	1.819006	0.514772	1.472856
H401	H	1.094807	-0.209456	0.691694
H402	H	1.344807	0.040544	0.941694
H403	H	1.594807	0.290544	1.191694
H404	H	1.844807	0.540544	1.441694
H405	H	1.043133	-0.205733	0.750433
H406	H	1.293133	0.044267	1.000433
H407	H	1.543133	0.294267	1.250433
H408	H	1.793133	0.544267	1.500433
H409	H	1.098482	-0.261128	0.750431
H410	H	1.348482	-0.011128	1.000431
H411	H	1.598482	0.238872	1.250431
H412	H	1.848482	0.488872	1.500431
H413	H	1.056483	-0.583676	0.404731
H414	H	1.306483	-0.333676	0.654731
H415	H	1.556483	-0.083676	0.904731
H416	H	1.806483	0.166324	1.154731
C417	C	0.887304	-0.929554	0.235180
C418	C	1.137304	-0.679554	0.485180
C419	C	1.387304	-0.429554	0.735180
C420	C	1.637304	-0.179554	0.985180
H421	H	0.861564	-0.960762	0.209375
H422	H	1.111564	-0.710762	0.459375
H423	H	1.361564	-0.460762	0.709375
H424	H	1.611564	-0.210762	0.959375
H425	H	0.857778	-0.901994	0.261033
H426	H	1.107778	-0.651994	0.511033
H427	H	1.357778	-0.401994	0.761033
H428	H	1.607778	-0.151994	1.011033
H429	H	0.913215	-0.901968	0.205708
H430	H	1.163215	-0.651968	0.455708
H431	H	1.413215	-0.401968	0.705708
H432	H	1.663215	-0.151968	0.955708
C433	C	1.068990	-0.235228	0.930180
C434	C	1.318990	0.014772	1.180180
C435	C	1.568990	0.264772	1.430180
C436	C	1.818990	0.514772	1.680180
H437	H	1.094778	-0.209445	0.961365
H438	H	1.344778	0.040555	1.211365
H439	H	1.594778	0.290555	1.461365
H440	H	1.844778	0.540555	1.711365
H441	H	1.098468	-0.261117	0.902603
H442	H	1.348468	-0.011117	1.152603
H443	H	1.598468	0.238883	1.402603
H444	H	1.848468	0.488883	1.652603
H445	H	1.043107	-0.205734	0.902609
H446	H	1.293107	0.044266	1.152609
H447	H	1.543107	0.294266	1.402609
H448	H	1.793107	0.544266	1.652609
H449	H	0.899471	-0.404642	0.712690
H450	H	1.149471	-0.154642	0.962690
H451	H	1.399471	0.095358	1.212690
H452	H	1.649471	0.345358	1.462690
H453	H	1.056531	-0.711910	0.404747
H454	H	1.306531	-0.461910	0.654747
H455	H	1.556531	-0.211910	0.904747
H456	H	1.806531	0.038090	1.154747
C457	C	1.068989	-0.235231	1.078620
C458	C	1.318989	0.014769	1.328620
C459	C	1.568989	0.264769	1.578620
C460	C	1.818989	0.514769	1.828620
H461	H	1.062782	-0.241424	1.125778
H462	H	1.312782	0.008576	1.375778
H463	H	1.562782	0.258576	1.625778
H464	H	1.812782	0.508576	1.875778
H465	H	1.114460	-0.245141	1.067042
H466	H	1.364460	0.004859	1.317042
H467	H	1.614460	0.254859	1.567042
H468	H	1.864460	0.504859	1.817042
H469	H	1.059107	-0.189750	1.067042
H470	H	1.309107	0.060250	1.317042
H471	H	1.559107	0.310250	1.567042
H472	H	1.809107	0.560250	1.817042
H473	H	1.056663	-1.067681	0.404795
H474	H	1.306663	-0.817681	0.654795
H475	H	1.556663	-0.567681	0.904795
H476	H	1.806663	-0.317681	1.154795
C477	C	0.374799	-0.235362	0.417213
C478	C	0.624799	0.014638	0.667213
C479	C	0.874799	0.264638	0.917213
C480	C	1.124799	0.514638	1.167213
H481	H	0.343644	-0.209616	0.443034
H482	H	0.593644	0.040384	0.693034
H483	H	0.843644	0.290384	0.943034
H484	H	1.093644	0.540384	1.193034
H485	H	0.402372	-0.261292	0.446659
H486	H	0.652372	-0.011292	0.696659
H487	H	0.902372	0.238708	0.946659
H488	H	1.152372	0.488708	1.196659
H489	H	0.402379	-0.205830	0.391362
H490	H	0.652379	0.044170	0.641362
H491	H	0.902379	0.294170	0.891362
H492	H	1.152379	0.544170	1.141362
C493	C	0.730563	-0.235360	0.417180
C494	C	0.980563	0.014640	0.667180
C495	C	1.230563	0.264640	0.917180
C496	C	1.480563	0.514640	1.167180
H497	H	0.777719	-0.241552	0.410972
H498	H	1.027719	0.008448	0.660972
H499	H	1.277719	0.258448	0.910972
H500	H	1.527719	0.508448	1.160972
H501	H	0.718998	-0.189868	0.407357
H502	H	0.968998	0.060132	0.657357
H503	H	1.218998	0.310132	0.907357
H504	H	1.468998	0.560132	1.157357
H505	H	0.718983	-0.245341	0.462643
H506	H	0.968983	0.004659	0.712643
H507	H	1.218983	0.254659	0.962643
H508	H	1.468983	0.504659	1.212643
H509	H	1.056615	-0.939435	0.404778
H510	H	1.306615	-0.689435	0.654778
H511	H	1.556615	-0.439435	0.904778
H512	H	1.806615	-0.189435	1.154778
