data_functionalizedCrystal
_audit_creation_method	'MofGen! by Chris Wilmer'
_symmetry_space_group_name_H-M	'P1'
_symmetry_Int_Tables_number	1
_symmetry_cell_setting	triclinic
loop_
_symmetry_equiv_pos_as_xyz
  x,y,z
_cell_length_a	19.121241
_cell_length_b	19.121063
_cell_length_c	19.120904
_cell_angle_alpha	85.258387
_cell_angle_beta	90.124528
_cell_angle_gamma	95.003121
loop_
_atom_site_label
_atom_site_type_symbol
_atom_site_fract_x
_atom_site_fract_y
_atom_site_fract_z
Zn1	Zn	1.043557	-0.254510	0.452551
Zn2	Zn	1.376890	0.078823	0.785884
Zn3	Zn	1.710224	0.412156	1.119218
Zn4	Zn	1.043470	-0.367161	0.339898
Zn5	Zn	1.376803	-0.033828	0.673231
Zn6	Zn	1.710137	0.299506	1.006565
Zn7	Zn	0.931342	-0.254092	0.330304
Zn8	Zn	1.264675	0.079241	0.663637
Zn9	Zn	1.598009	0.412575	0.996970
Zn10	Zn	0.920835	-0.377147	0.452491
Zn11	Zn	1.254168	-0.043814	0.785824
Zn12	Zn	1.587502	0.289519	1.119158
O13	O	0.984801	-0.313228	0.393811
O14	O	1.318134	0.020106	0.727144
O15	O	1.651468	0.353439	1.060478
O16	O	1.141831	-0.265449	0.441648
O17	O	1.475164	0.067884	0.774981
O18	O	1.808498	0.401217	1.108314
O19	O	1.032957	-0.347808	0.240344
O20	O	1.366290	-0.014474	0.573677
O21	O	1.699624	0.318859	0.907010
O22	O	0.950661	-0.155504	0.342530
O23	O	1.283995	0.177830	0.675863
O24	O	1.617328	0.511163	1.009196
O25	O	1.141767	-0.348213	0.358882
O26	O	1.475100	-0.014880	0.692215
O27	O	1.808434	0.318453	1.025549
O28	O	1.033105	-0.155811	0.432344
O29	O	1.366438	0.177522	0.765677
O30	O	1.699772	0.510856	1.099011
O31	O	0.950577	-0.264736	0.233295
O32	O	1.283910	0.068597	0.566628
O33	O	1.617244	0.401930	0.899961
O34	O	0.831663	-0.274420	0.342472
O35	O	1.164996	0.058914	0.675805
O36	O	1.498330	0.392247	1.009138
O37	O	0.932754	-0.365234	0.550781
O38	O	1.266087	-0.031900	0.884114
O39	O	1.599420	0.301433	1.217447
O40	O	0.823943	-0.364828	0.432242
O41	O	1.157277	-0.031495	0.765576
O42	O	1.490610	0.301839	1.098909
O43	O	1.022917	-0.275133	0.550825
O44	O	1.356250	0.058201	0.884158
O45	O	1.689584	0.391534	1.217491
O46	O	1.022769	-0.467129	0.358824
O47	O	1.356102	-0.133796	0.692157
O48	O	1.689435	0.199537	1.025491
O49	O	0.932669	-0.474466	0.441546
O50	O	1.266003	-0.141133	0.774879
O51	O	1.599336	0.192200	1.108212
C52	C	0.802319	-0.320663	0.386310
C53	C	1.135652	0.012671	0.719643
C54	C	1.468985	0.346004	1.052976
C55	C	0.724250	-0.323861	0.383118
C56	C	1.057584	0.009472	0.716451
C57	C	1.390917	0.342806	1.049785
C58	C	0.687602	-0.282348	0.424782
C59	C	1.020935	0.050986	0.758115
C60	C	1.354268	0.384319	1.091448
C61	C	0.614249	-0.285349	0.421777
C62	C	0.947582	0.047984	0.755110
C63	C	1.280915	0.381317	1.088443
C64	C	0.577546	-0.329869	0.377111
C65	C	0.910879	0.003465	0.710444
C66	C	1.244212	0.336798	1.043778
C67	C	0.614200	-0.371384	0.335443
C68	C	0.947533	-0.038050	0.668776
C69	C	1.280866	0.295283	1.002110
C70	C	0.687552	-0.368378	0.338445
C71	C	1.020885	-0.035044	0.671778
C72	C	1.354218	0.298289	1.005111
C73	C	0.356069	-0.341093	0.365885
C74	C	0.689402	-0.007759	0.699218
C75	C	1.022736	0.325574	1.032551
C76	C	0.282712	-0.344097	0.362887
C77	C	0.616045	-0.010764	0.696221
C78	C	0.949378	0.322570	1.029554
C79	C	0.282766	-0.258061	0.449221
C80	C	0.616099	0.075272	0.782554
C81	C	0.949432	0.408605	1.115887
C82	C	0.356119	-0.255063	0.452222
C83	C	0.689452	0.078271	0.785555
C84	C	1.022785	0.411604	1.118888
C85	C	0.392767	-0.296575	0.410551
C86	C	0.726100	0.036758	0.743884
C87	C	1.059433	0.370092	1.077217
C88	C	0.502567	-0.332939	0.374040
C89	C	0.835900	0.000394	0.707373
C90	C	1.169234	0.333727	1.040707
C91	C	0.467744	-0.293500	0.413619
C92	C	0.801078	0.039833	0.746952
C93	C	1.134411	0.373167	1.080285
C94	C	0.976588	-0.496375	0.401236
C95	C	1.309921	-0.163042	0.734569
C96	C	1.643254	0.170292	1.067902
C97	C	0.973137	-0.574724	0.404438
C98	C	1.306471	-0.241391	0.737772
C99	C	1.639804	0.091942	1.071105
C100	C	1.018459	-0.607690	0.362913
C101	C	1.351793	-0.274357	0.696246
C102	C	1.685126	0.058976	1.029579
C103	C	1.015218	-0.681308	0.365929
C104	C	1.348552	-0.347975	0.699262
C105	C	1.681885	-0.014642	1.032596
C106	C	0.966651	-0.721959	0.410467
C107	C	1.299984	-0.388626	0.743801
C108	C	1.633318	-0.055293	1.077134
C109	C	0.921327	-0.688989	0.451998
C110	C	1.254660	-0.355655	0.785331
C111	C	1.587994	-0.022322	1.118664
C112	C	0.924572	-0.615372	0.448985
C113	C	1.257905	-0.282039	0.782318
C114	C	1.591239	0.051295	1.115651
C115	C	0.954507	-0.944426	0.421721
C116	C	1.287841	-0.611093	0.755054
C117	C	1.621174	-0.277760	1.088388
C118	C	0.951264	-1.018048	0.424729
C119	C	1.284598	-0.684715	0.758063
C120	C	1.617931	-0.351381	1.091396
C121	C	1.045157	-1.010363	0.338661
C122	C	1.378490	-0.677029	0.671994
C123	C	1.711824	-0.343696	1.005328
C124	C	1.048395	-0.936745	0.335649
C125	C	1.381728	-0.603412	0.668982
C126	C	1.715062	-0.270078	1.002316
C127	C	1.003073	-0.903781	0.377182
C128	C	1.336407	-0.570447	0.710515
C129	C	1.669740	-0.237114	1.043849
C130	C	0.963335	-0.797209	0.413550
C131	C	1.296669	-0.463875	0.746883
C132	C	1.630002	-0.130542	1.080217
C133	C	1.006393	-0.828532	0.374103
C134	C	1.339726	-0.495199	0.707436
C135	C	1.673060	-0.161866	1.040769
C136	C	1.167996	-0.305764	0.401342
C137	C	1.501329	0.027569	0.734675
C138	C	1.834663	0.360903	1.068008
C139	C	1.246063	-0.302584	0.404551
C140	C	1.579396	0.030750	0.737884
C141	C	1.912729	0.364083	1.071218
C142	C	0.976673	-0.321344	0.576998
C143	C	1.310006	0.011989	0.910332
C144	C	1.643340	0.345323	1.243665
C145	C	0.973209	-0.324803	0.655062
C146	C	1.306542	0.008531	0.988395
C147	C	1.639876	0.341864	1.321729
C148	C	0.993065	-0.129365	0.386373
C149	C	1.326398	0.203968	0.719707
C150	C	1.659732	0.537302	1.053040
C151	C	0.996587	-0.051014	0.383204
C152	C	1.329920	0.282320	0.716537
C153	C	1.663253	0.615653	1.049870
C154	C	0.992940	-0.305090	0.211336
C155	C	1.326274	0.028243	0.544669
C156	C	1.659607	0.361576	0.878002
C157	C	0.996549	-0.301428	0.133270
C158	C	1.329882	0.031906	0.466603
C159	C	1.663216	0.365239	0.799937
C160	C	1.018523	-0.279519	0.691760
C161	C	1.351856	0.053814	1.025094
C162	C	1.685189	0.387148	1.358427
C163	C	1.015260	-0.282766	0.765109
C164	C	1.348593	0.050567	1.098442
C165	C	1.681926	0.383900	1.431776
C166	C	0.966686	-0.331301	0.801758
C167	C	1.300019	0.002032	1.135091
C168	C	1.633353	0.335365	1.468425
C169	C	0.921368	-0.376587	0.765054
C170	C	1.254701	-0.043254	1.098388
C171	C	1.588034	0.290080	1.431721
C172	C	0.924628	-0.373336	0.691707
C173	C	1.257961	-0.040002	1.025040
C174	C	1.591294	0.293331	1.358374
C175	C	0.954491	-0.343462	1.023219
C176	C	1.287824	-0.010129	1.356552
C177	C	1.621158	0.323205	1.689885
C178	C	0.951236	-0.346711	1.096572
C179	C	1.284569	-0.013378	1.429905
C180	C	1.617902	0.319955	1.763238
C181	C	1.045127	-0.252889	1.096621
C182	C	1.378460	0.080444	1.429954
C183	C	1.711794	0.413777	1.763288
C184	C	1.048386	-0.249645	1.023272
C185	C	1.381719	0.083688	1.356606
C186	C	1.715052	0.417021	1.689939
C187	C	1.003065	-0.294928	0.986575
C188	C	1.336398	0.038405	1.319908
C189	C	1.669732	0.371738	1.653241
C190	C	0.963351	-0.334623	0.876732
C191	C	1.296684	-0.001290	1.210066
C192	C	1.630018	0.332043	1.543399
C193	C	1.006397	-0.291602	0.911602
C194	C	1.339730	0.041731	1.244935
C195	C	1.673064	0.375064	1.578268
H196	H	0.252830	-0.380353	0.326515
H197	H	0.586163	-0.047020	0.659848
H198	H	0.919497	0.286313	0.993182
H199	H	1.045939	-0.795432	0.337842
H200	H	1.379272	-0.462099	0.671175
H201	H	1.712606	-0.128766	1.004509
H202	H	0.923790	-0.830315	0.449812
H203	H	1.257124	-0.496982	0.783145
H204	H	1.590457	-0.163648	1.116479
N205	N	0.910970	-0.386968	0.916276
N206	N	1.244303	-0.053635	1.249610
N207	N	1.577636	0.279699	1.582943
H208	H	0.920178	-0.436328	0.906008
H209	H	1.253511	-0.102994	1.239342
H210	H	1.586845	0.230339	1.572675
H211	H	0.861866	-0.377441	0.900992
H212	H	1.195199	-0.044108	1.234326
H213	H	1.528532	0.289226	1.567659
N214	N	1.064101	-0.716865	0.321141
N215	N	1.397434	-0.383532	0.654474
N216	N	1.730768	-0.050199	0.987807
H217	H	1.095357	-0.679942	0.292465
H218	H	1.428690	-0.346609	0.625799
H219	H	1.762023	-0.013276	0.959132
H220	H	1.035630	-0.747173	0.288696
H221	H	1.368964	-0.413840	0.622029
H222	H	1.702297	-0.080506	0.955363
N223	N	0.727183	-0.234334	0.472963
N224	N	1.060516	0.098999	0.806297
N225	N	1.393849	0.432332	1.139630
H226	H	0.754891	-0.263229	0.507874
H227	H	1.088224	0.070104	0.841207
H228	H	1.421558	0.403437	1.174540
H229	H	0.692787	-0.208504	0.498851
H230	H	1.026120	0.124829	0.832184
H231	H	1.359453	0.458163	1.165518
N232	N	0.898878	-1.061896	0.472769
N233	N	1.232212	-0.728563	0.806102
N234	N	1.565545	-0.395229	1.139436
H235	H	0.870660	-1.029843	0.498624
H236	H	1.203994	-0.696510	0.831958
H237	H	1.537327	-0.363177	1.165291
H238	H	0.924657	-1.092680	0.507712
H239	H	1.257991	-0.759347	0.841045
H240	H	1.591324	-0.426013	1.174378
H241	H	0.881815	-0.416103	0.794900
H242	H	1.215149	-0.082769	1.128233
H243	H	1.548482	0.250564	1.461566
H244	H	0.497631	-0.257250	0.449982
H245	H	0.830965	0.076084	0.783315
H246	H	1.164298	0.409417	1.116649
N247	N	0.875747	-0.422176	0.652128
N248	N	1.209080	-0.088842	0.985461
N249	N	1.542413	0.244491	1.318795
H250	H	0.883820	-0.472664	0.667376
H251	H	1.217154	-0.139331	1.000710
H252	H	1.550487	0.194002	1.334043
H253	H	0.885200	-0.412692	0.600112
H254	H	1.218534	-0.079359	0.933446
H255	H	1.551867	0.253975	1.266779
H256	H	0.881785	-0.722093	0.488265
H257	H	1.215119	-0.388759	0.821598
H258	H	1.548452	-0.055426	1.154932
H259	H	0.385997	-0.218813	0.488596
H260	H	0.719330	0.114520	0.821929
H261	H	1.052664	0.447854	1.155262
N262	N	1.100764	-0.197272	0.983761
N263	N	1.434098	0.136062	1.317094
N264	N	1.767431	0.469395	1.650428
H265	H	1.075031	-0.164421	0.950841
H266	H	1.408364	0.168912	1.284175
H267	H	1.741697	0.502246	1.617508
H268	H	1.133377	-0.223273	0.955862
H269	H	1.466711	0.110060	1.289195
H270	H	1.800044	0.443393	1.622529
N271	N	1.070918	-0.227174	0.652235
N272	N	1.404251	0.106159	0.985568
N273	N	1.737584	0.439492	1.318901
H274	H	1.099127	-0.198980	0.686616
H275	H	1.432460	0.134353	1.019949
H276	H	1.765794	0.467687	1.353282
H277	H	1.045148	-0.194368	0.619305
H278	H	1.378481	0.138966	0.952638
H279	H	1.711815	0.472299	1.285971
N280	N	1.064120	-0.233912	0.804691
N281	N	1.397453	0.099422	1.138024
N282	N	1.730787	0.432755	1.471357
H283	H	1.095384	-0.202671	0.770344
H284	H	1.428718	0.130662	1.103677
H285	H	1.762051	0.463996	1.437010
H286	H	1.093983	-0.262618	0.837631
H287	H	1.427317	0.070715	1.170964
H288	H	1.760650	0.404048	1.504297
H289	H	1.087942	-0.903648	0.299382
H290	H	1.421276	-0.570315	0.632715
H291	H	1.754609	-0.236981	0.966049
H292	H	1.082024	-0.216022	1.126508
H293	H	1.415357	0.117312	1.459841
H294	H	1.748690	0.450645	1.793175
N295	N	1.070846	-0.563846	0.314879
N296	N	1.404180	-0.230512	0.648213
N297	N	1.737513	0.102821	0.981546
H298	H	1.045122	-0.533060	0.279887
H299	H	1.378456	-0.199727	0.613220
H300	H	1.711789	0.133606	0.946553
H301	H	1.099055	-0.595948	0.289081
H302	H	1.432388	-0.262615	0.622415
H303	H	1.765721	0.070718	0.955748
N304	N	1.058790	-0.239261	0.872075
N305	N	1.392124	0.094072	1.205409
N306	N	1.725457	0.427405	1.538742
H307	H	1.087007	-0.211066	0.906451
H308	H	1.420341	0.122267	1.239784
H309	H	1.753674	0.455601	1.573118
H310	H	1.033021	-0.206454	0.839146
H311	H	1.366355	0.126879	1.172479
H312	H	1.699688	0.460212	1.505812
N313	N	0.905622	-0.908877	0.466509
N314	N	1.238955	-0.575544	0.799842
N315	N	1.572288	-0.242211	1.133175
H316	H	0.874360	-0.945802	0.495175
H317	H	1.207693	-0.612469	0.828509
H318	H	1.541027	-0.279135	1.161842
H319	H	0.875757	-0.878431	0.435307
H320	H	1.209090	-0.545098	0.768641
H321	H	1.542424	-0.211765	1.101974
H322	H	0.584412	-0.251546	0.455705
H323	H	0.917745	0.081787	0.789038
H324	H	1.251079	0.415121	1.122372
N325	N	0.898845	-0.399064	1.136103
N326	N	1.232179	-0.065731	1.469437
N327	N	1.565512	0.267602	1.802770
H328	H	0.870629	-0.427258	1.101726
H329	H	1.203962	-0.093924	1.435060
H330	H	1.537295	0.239409	1.768393
H331	H	0.866284	-0.373042	1.164041
H332	H	1.199617	-0.039709	1.497374
H333	H	1.532951	0.293625	1.830707
N334	N	0.905590	-0.392278	0.983641
N335	N	1.238923	-0.058945	1.316975
N336	N	1.572256	0.274388	1.650308
H337	H	0.874320	-0.423511	1.017990
H338	H	1.207653	-0.090178	1.351323
H339	H	1.540986	0.243155	1.684657
H340	H	0.934039	-0.422397	0.955689
H341	H	1.267372	-0.089063	1.289023
H342	H	1.600705	0.244270	1.622356
H343	H	0.385899	-0.374896	0.331954
H344	H	0.719232	-0.041562	0.665287
H345	H	1.052566	0.291771	0.998620
N346	N	1.094034	-1.045916	0.293864
N347	N	1.427368	-0.712583	0.627197
N348	N	1.760701	-0.379249	0.960531
H349	H	1.084610	-1.098720	0.302528
H350	H	1.417944	-0.765387	0.635861
H351	H	1.751277	-0.432054	0.969195
H352	H	1.144270	-1.031442	0.306366
H353	H	1.477604	-0.698109	0.639700
H354	H	1.810937	-0.364776	0.973033
H355	H	0.887667	-0.588532	0.482800
H356	H	1.221000	-0.255199	0.816133
H357	H	1.554333	0.078134	1.149467
N358	N	0.243232	-0.213284	0.494152
N359	N	0.576566	0.120049	0.827485
N360	N	0.909899	0.453382	1.160819
H361	H	0.258732	-0.161900	0.481802
H362	H	0.592065	0.171433	0.815136
H363	H	0.925398	0.504766	1.148469
H364	H	0.253299	-0.226064	0.545270
H365	H	0.586632	0.107269	0.878603
H366	H	0.919965	0.440602	1.211936
H367	H	0.717390	-0.402182	0.304517
H368	H	1.050724	-0.068849	0.637851
H369	H	1.384057	0.264485	0.971184
N370	N	0.574618	-0.419394	0.287259
N371	N	0.907951	-0.086061	0.620593
N372	N	1.241284	0.247272	0.953926
H373	H	0.522588	-0.415000	0.291679
H374	H	0.855921	-0.081667	0.625013
H375	H	1.189255	0.251666	0.958346
H376	H	0.584707	-0.469711	0.300671
H377	H	0.918041	-0.136378	0.634004
H378	H	1.251374	0.196955	0.967338
H379	H	0.472675	-0.369187	0.337673
H380	H	0.806008	-0.035854	0.671007
H381	H	1.139342	0.297479	1.004340
