data_functionalizedCrystal
_audit_creation_method	'MofGen! by Chris Wilmer'
_symmetry_space_group_name_H-M	'P1'
_symmetry_Int_Tables_number	1
_symmetry_cell_setting	triclinic
loop_
_symmetry_equiv_pos_as_xyz
  x,y,z
_cell_length_a	19.077068
_cell_length_b	19.077300
_cell_length_c	19.077569
_cell_angle_alpha	90.109158
_cell_angle_beta	90.064237
_cell_angle_gamma	90.059760
loop_
_atom_site_label
_atom_site_type_symbol
_atom_site_fract_x
_atom_site_fract_y
_atom_site_fract_z
Zn1	Zn	-0.308738	-1.078249	-0.367027
Zn2	Zn	-0.430572	-1.068750	-0.254598
Zn3	Zn	-0.308385	-0.956044	-0.254238
Zn4	Zn	-0.421133	-0.956379	-0.376392
O5	O	-0.367207	-1.014855	-0.313064
O6	O	-0.328997	-1.175159	-0.348344
O7	O	-0.418166	-1.049684	-0.156377
O8	O	-0.210258	-0.976090	-0.265130
O9	O	-0.418508	-1.168180	-0.265744
O10	O	-0.210517	-1.065874	-0.347995
O11	O	-0.328395	-0.966879	-0.156112
O12	O	-0.319243	-0.857918	-0.274211
O13	O	-0.402422	-0.976660	-0.473324
O14	O	-0.402079	-0.858164	-0.363957
O15	O	-0.319845	-1.066198	-0.466443
O16	O	-0.527494	-1.050008	-0.274825
O17	O	-0.520559	-0.967449	-0.364306
C18	C	-0.359599	-0.832586	-0.320062
C19	C	-0.356361	-0.754611	-0.323073
C20	C	-0.333079	-0.316085	-0.344677
C21	C	-0.336135	-0.389351	-0.341844
C22	C	-0.384196	-0.422341	-0.297346
C23	C	-0.429208	-0.382061	-0.255684
C24	C	-0.426155	-0.308797	-0.258520
C25	C	-0.398320	-0.641067	-0.284246
C26	C	-0.401368	-0.714336	-0.281411
C27	C	-0.308296	-0.721621	-0.367573
C28	C	-0.305244	-0.648355	-0.370403
C29	C	-0.350259	-0.608082	-0.328743
N30	N	-0.387319	-0.497230	-0.294448
N31	N	-0.347138	-0.533194	-0.331645
C32	C	-0.549482	-1.007754	-0.320636
C33	C	-0.627462	-1.004781	-0.323896
C34	C	-0.667684	-1.046405	-0.278875
C35	C	-0.740954	-1.043613	-0.281945
C36	C	-0.774001	-0.999193	-0.330034
C37	C	-0.733773	-0.957568	-0.375059
C38	C	-0.660504	-0.960364	-0.371992
C39	C	-0.992746	-0.986221	-0.344203
C40	C	-1.066020	-0.983427	-0.347265
C41	C	-1.073196	-1.069473	-0.254152
C42	C	-0.999926	-1.072262	-0.251086
C43	C	-0.959704	-1.030640	-0.296114
N44	N	-0.848895	-0.996337	-0.333172
N45	N	-0.884812	-1.033500	-0.292979
C46	C	-0.184220	-1.022004	-0.305477
C47	C	-0.106242	-1.025051	-0.302244
C48	C	-0.360120	-1.022526	-0.496051
C49	C	-0.357100	-1.025795	-0.574029
C50	C	-0.374842	-0.197836	-0.306032
C51	C	-0.378087	-0.275811	-0.303015
C52	C	-0.398671	-0.980714	-0.614246
C53	C	-0.395833	-0.983791	-0.687515
C54	C	-0.351420	-1.031946	-0.720564
C55	C	-0.309848	-1.077032	-0.680341
C56	C	-0.312690	-1.073957	-0.607074
C57	C	-0.338315	-1.046143	-0.939304
C58	C	-0.335475	-1.049212	-1.012577
C59	C	-0.421461	-0.955972	-1.019746
C60	C	-0.424296	-0.952900	-0.946477
C61	C	-0.382726	-0.997987	-0.906260
N62	N	-0.348517	-1.035091	-0.795456
N63	N	-0.385634	-0.994845	-0.831370
C64	C	-0.374218	-1.007257	-0.130786
C65	C	-0.377046	-1.004132	-0.052795
H66	H	-0.271648	-0.754419	-0.401491
O67	O	-0.475992	-0.414075	-0.212540
C68	C	-0.544602	-0.394077	-0.231344
H69	H	-0.545224	-0.376161	-0.288313
H70	H	-0.581495	-0.440651	-0.224818
H71	H	-0.562568	-0.349248	-0.196106
H72	H	-0.462806	-0.276006	-0.224597
H73	H	-0.434828	-0.941493	-0.587343
O74	O	-0.436117	-0.939982	-0.726663
C75	C	-0.392647	-0.898001	-0.769125
H76	H	-0.340085	-0.925275	-0.776939
H77	H	-0.418836	-0.889661	-0.822195
H78	H	-0.383871	-0.845122	-0.742578
O79	O	-0.461767	-0.912083	-1.058782
C80	C	-0.444226	-0.842010	-1.042916
H81	H	-0.388813	-0.839810	-1.020587
H82	H	-0.446957	-0.809137	-1.092682
H83	H	-0.482722	-0.820421	-1.002652
H84	H	-0.278838	-1.110667	-0.574329
H85	H	-0.640783	-1.082572	-0.239714
H86	H	-0.293939	-0.289230	-0.380907
H87	H	-0.973021	-1.108432	-0.211929
H88	H	-1.105952	-1.103361	-0.217494
O89	O	-0.765984	-0.914434	-0.421710
C90	C	-0.839279	-0.920902	-0.414775
H91	H	-0.852346	-0.941271	-0.360188
H92	H	-0.864792	-0.867483	-0.422675
H93	H	-0.859966	-0.959180	-0.455854
O94	O	-0.292338	-0.428368	-0.382333
C95	C	-0.249271	-0.383540	-0.422223
H96	H	-0.245738	-0.330197	-0.395410
H97	H	-0.194596	-0.407181	-0.426677
H98	H	-0.272654	-0.376993	-0.476836
O99	O	-0.467535	-0.906181	-0.914417
C100	C	-0.537405	-0.919503	-0.934644
H101	H	-0.542524	-0.976257	-0.952764
H102	H	-0.573678	-0.910060	-0.888135
H103	H	-0.552510	-0.882966	-0.979389
O104	O	-0.292316	-1.096056	-1.044570
C105	C	-0.256221	-1.135181	-0.993364
H106	H	-0.287083	-1.134301	-0.942236
H107	H	-0.250225	-1.191633	-1.012105
H108	H	-0.202168	-1.111249	-0.984344
O109	O	-0.297872	-1.089824	-0.900182
C110	C	-0.252523	-1.049858	-0.857485
H111	H	-0.275496	-0.995279	-0.849562
H112	H	-0.246274	-1.076641	-0.804481
H113	H	-0.199131	-1.045337	-0.883884
H114	H	-0.440508	-0.741194	-0.245175
O115	O	-1.098011	-0.940265	-0.394048
C116	C	-1.046800	-0.904116	-0.433124
H117	H	-0.995648	-0.934943	-0.432286
H118	H	-1.065502	-0.898106	-0.489567
H119	H	-1.037840	-0.850069	-0.409118
H120	H	-0.434972	-0.608285	-0.250322
O121	O	-0.779921	-1.084067	-0.238138
C122	C	-0.735042	-1.123881	-0.195046
H123	H	-0.681737	-1.097035	-0.191513
H124	H	-0.758684	-1.128281	-0.140374
H125	H	-0.728415	-1.178520	-0.218402
H126	H	-0.960004	-0.952330	-0.380865
H127	H	-0.627756	-0.926471	-0.408653
O128	O	-0.266609	-1.123776	-0.712364
C129	C	-0.196741	-1.110414	-0.692159
H130	H	-0.196225	-1.081272	-0.639937
H131	H	-0.167494	-1.162168	-0.686402
H132	H	-0.170006	-1.076998	-0.733798
H133	H	-0.266110	-0.621500	-0.406641
