data_functionalizedCrystal
_audit_creation_method	'MofGen! by Chris Wilmer'
_symmetry_space_group_name_H-M	'P1'
_symmetry_Int_Tables_number	1
_symmetry_cell_setting	triclinic
loop_
_symmetry_equiv_pos_as_xyz
  x,y,z
_cell_length_a	10.908937
_cell_length_b	17.699083
_cell_length_c	16.176319
_cell_angle_alpha	89.999648
_cell_angle_beta	89.990360
_cell_angle_gamma	71.684485
loop_
_atom_site_label
_atom_site_type_symbol
_atom_site_fract_x
_atom_site_fract_y
_atom_site_fract_z
O1	O	1.704209	-0.116932	-0.068784
O2	O	1.330164	-0.057808	-0.068773
O3	O	1.527754	-0.198878	-0.068787
O4	O	1.506619	0.024138	-0.068770
O5	O	1.527727	-0.198882	0.068706
O6	O	1.330137	-0.057812	0.068720
O7	O	1.704182	-0.116936	0.068709
Cu8	Cu	1.517157	-0.087374	0.081269
Cu9	Cu	1.517189	-0.087370	-0.081333
O10	O	1.506592	0.024134	0.068723
C11	C	1.282292	-0.052284	-0.000026
C12	C	1.139689	-0.035829	-0.000022
C13	C	0.943482	-0.078872	-0.000040
C14	C	1.090869	-0.095880	-0.000031
C15	C	1.526983	-0.226982	-0.000044
C16	C	1.524711	-0.310717	-0.000056
C17	C	1.752054	-0.122460	-0.000041
C18	C	1.894657	-0.138915	-0.000049
N19	N	1.517144	-0.087379	0.195634
C20	C	1.507363	0.052238	-0.000022
C21	C	1.509635	0.135973	-0.000016
C22	C	1.393653	0.199066	-0.000013
C23	C	1.395796	0.277742	-0.000022
C24	C	1.513921	0.293323	-0.000029
C25	C	1.629911	0.230223	-0.000035
C26	C	1.627767	0.151549	-0.000031
C27	C	1.638559	0.547507	-0.000052
C28	C	1.640694	0.626189	-0.000053
C29	C	1.406588	0.673700	-0.000043
C30	C	1.404444	0.595026	-0.000039
C31	C	1.520433	0.531933	-0.000049
C32	C	1.518109	0.446623	-0.000040
C33	C	1.516247	0.378631	-0.000033
N34	N	1.517212	-0.087372	-0.195698
C35	C	1.604663	-0.149827	0.238892
C36	C	1.604670	-0.149829	0.325439
C37	C	1.517162	-0.087379	0.368726
C38	C	1.429633	-0.024927	0.325462
C39	C	1.429622	-0.024929	0.238917
C40	C	1.429677	-0.024919	0.674491
C41	C	1.429698	-0.024920	0.761042
C42	C	1.604725	-0.149818	0.761013
C43	C	1.604713	-0.149820	0.674467
C44	C	1.517181	-0.087371	0.631211
C45	C	1.517173	-0.087371	0.537366
C46	C	1.517175	-0.087376	0.462569
H47	H	1.297462	0.186388	0.000003
H48	H	1.301352	0.329111	-0.000022
C49	C	0.985575	-0.225371	-0.000055
H50	H	0.935831	-0.260836	-0.000069
H51	H	1.038474	-0.234314	0.047892
H52	H	1.038499	-0.234306	-0.048008
C53	C	1.048777	0.050633	-0.000022
H54	H	1.098524	0.086096	-0.000021
H55	H	0.995842	0.059574	0.047920
H56	H	0.995890	0.059571	-0.047980
H57	H	1.158180	-0.159881	-0.000038
C58	C	1.759849	0.247357	-0.000042
H59	H	1.828617	0.198511	-0.000050
H60	H	1.765543	0.277062	0.047904
H61	H	1.765561	0.277057	-0.047995
C62	C	1.700953	-0.218516	0.373019
H63	H	1.753080	-0.255703	0.334844
H64	H	1.654864	-0.244242	0.406793
H65	H	1.754339	-0.197978	0.406767
H66	H	1.675995	-0.200670	0.796241
H67	H	1.308254	0.582345	-0.000029
H68	H	1.722211	0.100177	-0.000038
C69	C	0.852563	0.007585	-0.000045
H70	H	0.902308	0.043050	-0.000045
H71	H	0.799624	0.016529	0.047896
H72	H	0.799680	0.016519	-0.048004
H73	H	1.358377	0.025919	0.360712
C74	C	1.278999	0.743104	-0.000045
H75	H	1.297187	0.792193	-0.000058
H76	H	1.230542	0.739977	0.047905
H77	H	1.230565	0.739964	-0.047995
H78	H	1.358434	0.025936	0.796285
H79	H	1.675974	-0.200671	0.639225
H80	H	1.358408	0.025931	0.639278
C81	C	1.770638	0.643326	-0.000069
H82	H	1.839411	0.594483	-0.000083
H83	H	1.776337	0.673031	0.047876
H84	H	1.776334	0.673029	-0.048024
C85	C	1.333356	0.043763	0.191329
H86	H	1.345873	0.034814	0.133586
H87	H	1.347141	0.092548	0.205505
H88	H	1.247651	0.046294	0.205529
C89	C	1.766142	0.478116	-0.000049
H90	H	1.836796	0.498666	-0.000043
H91	H	1.770194	0.446430	-0.047994
H92	H	1.770159	0.446444	0.047906
H93	H	1.675927	-0.200679	0.203653
