data_functionalizedCrystal
_audit_creation_method	'MofGen! by Chris Wilmer'
_symmetry_space_group_name_H-M	'P1'
_symmetry_Int_Tables_number	1
_symmetry_cell_setting	triclinic
loop_
_symmetry_equiv_pos_as_xyz
  x,y,z
_cell_length_a	19.188928
_cell_length_b	12.503552
_cell_length_c	19.188920
_cell_angle_alpha	93.497196
_cell_angle_beta	83.142693
_cell_angle_gamma	86.472133
loop_
_atom_site_label
_atom_site_type_symbol
_atom_site_fract_x
_atom_site_fract_y
_atom_site_fract_z
O1	O	-0.930207	0.089762	-0.083092
O2	O	-0.726891	0.089676	-0.094832
O3	O	-0.834417	0.089686	0.012693
O4	O	-0.822680	0.089752	-0.190616
O5	O	-0.826321	-0.088958	0.004599
O6	O	-0.718795	-0.088967	-0.102925
O7	O	-0.922111	-0.088882	-0.091185
Cu8	Cu	-0.819714	-0.105236	-0.097794
Cu9	Cu	-0.829288	0.106030	-0.088223
O10	O	-0.814584	-0.088892	-0.198710
C11	C	-0.696831	0.000343	-0.098499
C12	C	-0.619325	0.000308	-0.097361
N13	N	-0.812985	-0.253830	-0.104526
C14	C	-0.845918	-0.526260	-0.071581
C15	C	-0.803092	-0.472939	-0.114428
C16	C	-0.808598	-0.351015	-0.108917
C17	C	-0.840413	-0.648195	-0.077091
C18	C	-0.574401	0.000342	-0.160451
C19	C	-0.501578	0.000348	-0.159379
C20	C	-0.473682	0.000342	-0.095213
C21	C	-0.518616	0.000301	-0.032116
C22	C	-0.591438	0.000285	-0.033189
N23	N	-0.368460	0.061161	-0.043412
N24	N	-0.299282	0.061179	-0.042396
C25	C	-0.254276	0.000390	-0.091975
N26	N	-0.281060	-0.060405	-0.142618
N27	N	-0.350244	-0.060418	-0.143636
C28	C	-0.394721	0.000359	-0.094042
C29	C	-0.130387	0.000429	-0.153908
C30	C	-0.057562	0.000428	-0.152834
C31	C	-0.074603	0.000392	-0.025568
C32	C	-0.147426	0.000382	-0.026644
C33	C	-0.175314	0.000405	-0.090816
C34	C	0.047831	0.000435	-0.087521
C35	C	-0.029672	0.000419	-0.088668
C36	C	-0.829990	0.000357	0.034657
C37	C	-0.828850	0.000336	0.112161
N38	N	-0.836023	0.254624	-0.081485
C39	C	-0.884314	0.000225	0.673927
C40	C	-0.885391	0.000237	0.601104
C41	C	-0.822297	0.000222	0.556169
C42	C	-0.758122	0.000169	0.584060
C43	C	-0.757047	0.000146	0.656881
N44	N	-0.779376	0.061043	0.438243
N45	N	-0.780402	0.061067	0.369067
C46	C	-0.825532	0.000288	0.336762
N47	N	-0.869610	-0.060502	0.376249
N48	N	-0.868586	-0.060520	0.445432
C49	C	-0.823456	0.000246	0.477206
C50	C	-0.890871	0.000347	0.229916
C51	C	-0.891944	0.000352	0.157092
C52	C	-0.764674	0.000295	0.140049
C53	C	-0.763602	0.000279	0.212872
C54	C	-0.826703	0.000310	0.257802
C55	C	-0.819011	0.000366	0.779323
C56	C	-0.820147	0.000177	0.701811
H57	H	-0.886715	-0.480346	-0.030762
H58	H	-0.762293	-0.518859	-0.155251
C59	C	-1.011086	0.000336	0.625260
C60	C	-0.955929	0.000308	0.570445
H61	H	-1.054632	0.000391	0.606332
H62	H	-1.005210	-0.061973	0.650483
H63	H	-1.010828	0.062621	0.656133
H64	H	-0.956184	-0.061981	0.539574
H65	H	-0.961806	0.062624	0.545211
C66	C	-0.382378	0.000400	-0.214235
C67	C	-0.452184	0.000390	-0.228732
H68	H	-0.351887	0.000419	-0.257052
H69	H	-0.376791	0.062684	-0.185093
H70	H	-0.371110	-0.061910	-0.190740
H71	H	-0.463454	0.062704	-0.252222
H72	H	-0.457773	-0.061901	-0.257886
C73	C	-0.550237	0.000376	-0.286139
C74	C	-0.605053	0.000351	-0.230988
H75	H	-0.569163	0.000372	-0.329685
H76	H	-0.525033	0.062677	-0.280251
H77	H	-0.519344	-0.061917	-0.285888
H78	H	-0.635943	0.062648	-0.231236
H79	H	-0.630269	-0.061957	-0.236877
C80	C	-0.414552	0.000330	0.026038
C81	C	-0.487957	0.000300	0.038417
H82	H	-0.395627	0.000333	0.069584
H83	H	-0.396279	-0.061952	-0.002748
H84	H	-0.401968	0.062642	0.002890
H85	H	-0.500541	-0.062016	0.061560
H86	H	-0.506236	0.062589	0.067214
C87	C	-0.645820	-0.091705	0.542947
C88	C	-0.688768	0.000155	0.534669
H89	H	-0.603005	-0.091717	0.512451
H90	H	-0.635998	-0.091719	0.590302
H91	H	-0.669328	-0.153977	0.531689
H92	H	-0.665262	0.062428	0.545932
H93	H	-0.698589	0.000180	0.487303
H94	H	-0.051895	0.000453	0.026680
H95	H	-0.628016	0.000257	0.018188
H96	H	-0.153094	0.000432	-0.206161
H97	H	-0.020985	0.000450	-0.204212
H98	H	-0.184005	0.000360	0.024731
H99	H	-0.935695	0.000244	0.710505
C100	C	-0.652401	0.091928	0.668932
C101	C	-0.686510	0.000106	0.687536
H102	H	-0.608857	0.091906	0.687863
H103	H	-0.644010	0.091925	0.619138
H104	H	-0.681200	0.154226	0.687190
H105	H	-0.657713	-0.062193	0.669274
H106	H	-0.694898	0.000099	0.737341
C107	C	-1.016778	0.000397	0.239450
C108	C	-0.960228	0.000367	0.279308
H109	H	-1.059595	0.000403	0.269943
H110	H	-1.017373	0.062695	0.213513
H111	H	-1.011723	-0.061899	0.207872
H112	H	-0.965281	0.062668	0.310883
H113	H	-0.959634	-0.061937	0.305257
H114	H	-0.944198	0.000384	0.134391
C115	C	-0.696207	0.092128	0.052435
C116	C	-0.695318	0.000282	0.090666
H117	H	-0.653386	0.092118	0.021949
H118	H	-0.734571	0.092145	0.025403
H119	H	-0.701257	0.154410	0.084025
H120	H	-0.690273	-0.062000	0.059076
H121	H	-0.656943	0.000255	0.117699
H122	H	-0.711351	0.000248	0.235575
