data_functionalizedCrystal
_audit_creation_method	'MofGen! by Chris Wilmer'
_symmetry_space_group_name_H-M	'P1'
_symmetry_Int_Tables_number	1
_symmetry_cell_setting	triclinic
loop_
_symmetry_equiv_pos_as_xyz
  x,y,z
_cell_length_a	23.532355
_cell_length_b	23.532357
_cell_length_c	22.610064
_cell_angle_alpha	89.998517
_cell_angle_beta	89.997644
_cell_angle_gamma	82.827896
loop_
_atom_site_label
_atom_site_type_symbol
_atom_site_fract_x
_atom_site_fract_y
_atom_site_fract_z
O1	O	0.755270	0.068988	-0.049111
O2	O	1.255270	0.568988	0.450889
O3	O	0.589401	0.079022	-0.049131
O4	O	1.089401	0.579022	0.450869
O5	O	0.677352	-0.008929	-0.049108
O6	O	1.177352	0.491071	0.450892
O7	O	0.667319	0.156940	-0.049134
O8	O	1.167319	0.656940	0.450866
O9	O	0.677337	-0.008917	0.049261
O10	O	1.177337	0.491083	0.549261
O11	O	0.589385	0.079035	0.049238
O12	O	1.089385	0.579035	0.549238
O13	O	0.755255	0.069001	0.049258
O14	O	1.255255	0.569001	0.549258
Zn15	Zn	0.672318	0.074020	0.064866
Zn16	Zn	1.172318	0.574020	0.564866
Zn17	Zn	0.672338	0.074003	-0.064739
Zn18	Zn	1.172338	0.574003	0.435261
O19	O	0.667303	0.156953	0.049235
O20	O	1.167303	0.656953	0.549235
C21	C	0.568177	0.078778	0.000051
C22	C	1.068177	0.578778	0.500051
C23	C	0.504958	0.078024	0.000044
C24	C	1.004958	0.578024	0.500044
C25	C	0.677094	-0.030140	0.000078
C26	C	1.177094	0.469860	0.500078
C27	C	0.676339	-0.093358	0.000084
C28	C	1.176339	0.406642	0.500084
C29	C	0.112937	0.073293	0.053691
C30	C	0.612937	0.573293	0.553691
C31	C	0.053537	0.072575	0.053693
C32	C	0.553537	0.572575	0.553693
O33	O	0.022812	0.072191	0.099295
O34	O	0.522812	0.572191	0.599295
N35	N	0.023837	0.072212	0.000072
N36	N	0.523837	0.572212	0.500072
C37	C	0.053541	0.072561	-0.053554
C38	C	0.553541	0.572561	0.446446
O39	O	0.022824	0.072186	-0.099163
O40	O	0.522824	0.572186	0.400837
C41	C	0.112939	0.073275	-0.053556
C42	C	0.612939	0.573275	0.446444
C43	C	0.142636	0.073643	0.000068
C44	C	0.642636	0.573643	0.500068
C45	C	0.142633	0.073661	0.107311
C46	C	0.642633	0.573661	0.607311
C47	C	0.202028	0.074379	0.107308
C48	C	0.702028	0.574379	0.607308
C49	C	0.231727	0.074730	0.053686
C50	C	0.731727	0.574730	0.553686
C51	C	0.202031	0.074362	0.000066
C52	C	0.702031	0.574362	0.500066
C53	C	0.142642	0.073620	-0.107182
C54	C	0.642642	0.573620	0.392818
C55	C	0.202045	0.074333	-0.107179
C56	C	0.702045	0.574333	0.392821
C57	C	0.231741	0.074701	-0.053555
C58	C	0.731741	0.574701	0.446445
C59	C	0.291124	0.075431	-0.053560
C60	C	0.791124	0.575431	0.446440
N61	N	0.320824	0.075794	0.000061
N62	N	0.820824	0.575794	0.500061
C63	C	0.291126	0.075443	0.053684
C64	C	0.791126	0.575443	0.553684
C65	C	-0.071201	0.071062	-0.053546
C66	C	0.428799	0.571062	0.446454
C67	C	-0.130599	0.070353	-0.053545
C68	C	0.369401	0.570353	0.446455
C69	C	-0.130598	0.070366	0.053702
C70	C	0.369402	0.570366	0.553702
C71	C	-0.071199	0.071079	0.053701
C72	C	0.428801	0.571079	0.553701
C73	C	-0.041501	0.071425	0.000074
C74	C	0.458499	0.571425	0.500074
C75	C	0.415859	0.076952	0.053674
C76	C	0.915859	0.576952	0.553674
C77	C	0.475259	0.077673	0.053667
C78	C	0.975259	0.577673	0.553667
C79	C	0.475254	0.077657	-0.053581
C80	C	0.975254	0.577657	0.446419
C81	C	0.415858	0.076940	-0.053574
C82	C	0.915858	0.576940	0.446426
C83	C	0.386163	0.076585	0.000059
C84	C	0.886163	0.576585	0.500059
O85	O	0.321888	0.075813	-0.099138
O86	O	0.821888	0.575813	0.400862
O87	O	0.321850	0.075811	0.099285
O88	O	0.821850	0.575811	0.599285
C89	C	0.671611	-0.485375	-0.053570
C90	C	1.171611	0.014625	0.446430
C91	C	0.670893	-0.544775	-0.053573
C92	C	1.170893	-0.044775	0.446427
O93	O	0.670510	-0.575497	-0.099176
O94	O	1.170510	-0.075497	0.400824
N95	N	0.670529	-0.574479	0.000047
N96	N	1.170529	-0.074479	0.500047
C97	C	0.670877	-0.544780	0.053674
C98	C	1.170877	-0.044780	0.553674
O99	O	0.670500	-0.575500	0.099282
O100	O	1.170500	-0.075500	0.599282
C101	C	0.671590	-0.485381	0.053677
C102	C	1.171590	0.014619	0.553677
C103	C	0.671960	-0.455681	0.000053
C104	C	1.171960	0.044319	0.500053
C105	C	0.671980	-0.455675	-0.107189
C106	C	1.171980	0.044325	0.392811
C107	C	0.672698	-0.396280	-0.107186
C108	C	1.172698	0.103720	0.392814
C109	C	0.673047	-0.366585	-0.053563
C110	C	1.173047	0.133415	0.446437
C111	C	0.672678	-0.396286	0.000057
C112	C	1.172678	0.103714	0.500057
C113	C	0.671933	-0.455682	0.107303
C114	C	1.171933	0.044318	0.607303
C115	C	0.672646	-0.396280	0.107302
C116	C	1.172646	0.103720	0.607302
C117	C	0.673016	-0.366579	0.053678
C118	C	1.173016	0.133421	0.553678
C119	C	0.673745	-0.307196	0.053684
C120	C	1.173745	0.192804	0.553684
N121	N	0.674109	-0.277492	0.000063
N122	N	1.174109	0.222508	0.500063
C123	C	0.673760	-0.307186	-0.053560
C124	C	1.173760	0.192814	0.446440
C125	C	0.669378	-0.669521	0.053664
C126	C	1.169378	-0.169521	0.553664
C127	C	0.668669	-0.728919	0.053662
C128	C	1.168669	-0.228919	0.553662
C129	C	0.668685	-0.728910	-0.053586
C130	C	1.168685	-0.228910	0.446414
C131	C	0.669398	-0.669511	-0.053583
C132	C	1.169398	-0.169511	0.446417
C133	C	0.669742	-0.639817	0.000044
C134	C	1.169742	-0.139817	0.500044
C135	C	0.675269	-0.182453	-0.053548
C136	C	1.175269	0.317547	0.446452
C137	C	0.675990	-0.123053	-0.053540
C138	C	1.175990	0.376947	0.446460
C139	C	0.675971	-0.123067	0.053708
C140	C	1.175971	0.376933	0.553708
C141	C	0.675253	-0.182462	0.053700
C142	C	1.175253	0.317538	0.553700
C143	C	0.674901	-0.212153	0.000067
C144	C	1.174901	0.287847	0.500067
O145	O	0.674126	-0.276436	0.099263
O146	O	1.174126	0.223564	0.599263
O147	O	0.674129	-0.276458	-0.099160
O148	O	1.174129	0.223542	0.400840
C149	C	0.776479	0.069245	0.000074
C150	C	1.276479	0.569245	0.500074
C151	C	0.839698	0.069999	0.000078
C152	C	1.339698	0.569999	0.500078
C153	C	0.667562	0.178163	0.000048
C154	C	1.167562	0.678163	0.500048
C155	C	0.668317	0.241381	0.000038
C156	C	1.168317	0.741381	0.500038
N157	N	0.672308	0.074031	0.153319
N158	N	1.172308	0.574031	0.653319
N159	N	0.672352	0.073987	-0.153192
N160	N	1.172352	0.573987	0.346808
C161	C	0.711285	0.035064	0.561970
C162	C	1.211285	0.535064	1.061970
C163	C	0.711288	0.035060	0.623890
C164	C	1.211288	0.535060	1.123890
O165	O	0.744403	0.001937	0.655917
O166	O	1.244403	0.501937	1.155917
N167	N	0.672338	0.073991	0.654856
N168	N	1.172338	0.573991	1.154856
C169	C	0.633378	0.112926	0.623899
C170	C	1.133378	0.612926	1.123899
O171	O	0.600249	0.146039	0.655923
O172	O	1.100249	0.646039	1.155923
C173	C	0.633373	0.112927	0.561980
C174	C	1.133373	0.612927	1.061980
C175	C	0.672330	0.073996	0.531017
C176	C	1.172330	0.573996	1.031017
C177	C	0.750237	-0.003863	0.531008
C178	C	1.250237	0.496137	1.031008
C179	C	0.750235	-0.003858	0.469092
C180	C	1.250235	0.496142	0.969092
C181	C	0.711280	0.035074	0.438139
C182	C	1.211280	0.535074	0.938139
C183	C	0.672327	0.074001	0.469102
C184	C	1.172327	0.574001	0.969102
C185	C	0.594412	0.151858	0.531024
C186	C	1.094412	0.651858	1.031024
C187	C	0.594410	0.151855	0.469101
C188	C	1.094410	0.651855	0.969101
C189	C	0.633366	0.112925	0.438138
C190	C	1.133366	0.612925	0.938138
C191	C	0.633370	0.112939	0.376233
C192	C	1.133370	0.612939	0.876233
N193	N	0.672320	0.074007	0.345267
N194	N	1.172320	0.574007	0.845267
C195	C	0.711275	0.035075	0.376220
C196	C	1.211275	0.535075	0.876220
C197	C	0.633392	0.112920	0.753932
C198	C	1.133392	0.612920	1.253932
C199	C	0.633399	0.112922	0.815850
C200	C	1.133399	0.612922	1.315850
C201	C	0.711308	0.035056	0.815837
C202	C	1.211308	0.535056	1.315837
C203	C	0.711302	0.035057	0.753918
C204	C	1.211302	0.535057	1.253918
C205	C	0.672342	0.073989	0.722966
C206	C	1.172342	0.573989	1.222966
C207	C	0.711267	0.035089	0.246193
C208	C	1.211267	0.535089	0.746193
C209	C	0.711263	0.035099	0.184272
C210	C	1.211263	0.535099	0.684272
C211	C	0.633353	0.112963	0.184290
C212	C	1.133353	0.612963	0.684290
C213	C	0.633359	0.112955	0.246206
C214	C	1.133359	0.612955	0.746206
C215	C	0.672318	0.074013	0.277156
C216	C	1.172318	0.574013	0.777156
O217	O	0.600270	0.146043	0.344166
O218	O	1.100270	0.646043	0.844166
O219	O	0.744394	0.001962	0.344188
O220	O	1.244394	0.501962	0.844188
H221	H	0.499435	0.077975	0.097336
H222	H	0.999435	0.577975	0.597336
O223	O	0.669788	-0.637482	-0.111422
O224	O	1.169788	-0.137482	0.388578
H225	H	0.708937	-0.615726	-0.113990
H226	H	1.208937	-0.115726	0.386010
O227	O	0.668299	-0.760941	-0.111426
O228	O	1.168299	-0.260941	0.388574
H229	H	0.667734	-0.807233	-0.102414
H230	H	1.167734	-0.307233	0.397586
H231	H	0.742991	0.003378	0.271385
H232	H	1.242991	0.503378	0.771385
O233	O	0.673082	-0.364247	-0.165023
O234	O	1.173082	0.135753	0.334977
H235	H	0.672710	-0.394881	-0.202306
H236	H	1.172710	0.105119	0.297694
H237	H	0.601637	0.144663	0.159078
H238	H	1.101637	0.644663	0.659078
O239	O	-0.039171	0.071480	0.111537
O240	O	0.460829	0.571480	0.611537
H241	H	-0.069807	0.071116	0.148821
H242	H	0.430193	0.571116	0.648821
H243	H	0.674958	-0.206646	0.097365
H244	H	1.174958	0.293354	0.597365
H245	H	0.391677	0.076649	-0.097239
H246	H	0.891677	0.576649	0.402761
O247	O	0.110547	0.073326	0.165120
O248	O	0.610547	0.573326	0.665120
H249	H	0.127205	0.034661	0.190891
H250	H	0.627205	0.534661	0.690891
O251	O	0.792244	-0.045855	0.435699
O252	O	1.292244	0.454145	0.935699
H253	H	0.819324	-0.072929	0.467634
H254	H	1.319324	0.427071	0.967634
O255	O	0.753326	-0.006934	0.849232
O256	O	1.253326	0.493066	1.349232
H257	H	0.780418	-0.034004	0.817303
H258	H	1.280418	0.465996	1.317303
O259	O	0.507295	0.078036	-0.111413
O260	O	1.007295	0.578036	0.388587
H261	H	0.476670	0.077664	-0.148703
H262	H	0.976670	0.577664	0.351297
O263	O	0.668275	-0.760952	0.111498
O264	O	1.168275	-0.260952	0.611498
H265	H	0.668634	-0.730318	0.148783
H266	H	1.168634	-0.230318	0.648783
H267	H	0.226202	0.074676	0.150975
H268	H	0.726202	0.574676	0.650975
O269	O	0.676349	-0.091030	0.111541
O270	O	1.176349	0.408970	0.611541
H271	H	0.675976	-0.121658	0.148830
H272	H	1.175976	0.378342	0.648830
H273	H	0.669660	-0.645348	0.097336
H274	H	1.169660	-0.145348	0.597336
O275	O	-0.162652	0.070111	0.111542
O276	O	0.337348	0.570111	0.611542
H277	H	-0.208949	0.069593	0.102529
H278	H	0.291051	0.569593	0.602529
H279	H	0.226222	0.074614	-0.150849
H280	H	0.726222	0.574614	0.349151
O281	O	0.671528	-0.487708	0.165141
O282	O	1.171528	0.012292	0.665141
H283	H	0.671882	-0.457069	0.202423
H284	H	1.171882	0.042931	0.702423
H285	H	0.676292	-0.098873	-0.097208
H286	H	1.176292	0.401127	0.402792
O287	O	0.792264	-0.045850	0.564388
O288	O	1.292264	0.454150	1.064388
H289	H	0.819350	-0.072910	0.532446
H290	H	1.319350	0.427090	1.032446
H291	H	0.671694	-0.479846	-0.150858
H292	H	1.171694	0.020154	0.349142
O293	O	0.383833	0.076577	0.111518
O294	O	0.883833	0.576577	0.611518
H295	H	0.414469	0.076960	0.148798
H296	H	0.914469	0.576960	0.648798
O297	O	0.674884	-0.214473	-0.111393
O298	O	1.174884	0.285527	0.388607
H299	H	0.675263	-0.183833	-0.148672
H300	H	1.175263	0.316167	0.351328
O301	O	-0.162623	0.069965	-0.111385
O302	O	0.337377	0.569965	0.388615
H303	H	-0.208918	0.069412	-0.102382
H304	H	0.291082	0.569412	0.397618
O305	O	0.591401	0.154929	0.849244
O306	O	1.091401	0.654929	1.349244
H307	H	0.564318	0.182002	0.817311
H308	H	1.064318	0.682002	1.317311
H309	H	-0.047024	0.071349	-0.097218
H310	H	0.452976	0.571349	0.402782
H311	H	0.743024	0.003356	0.728712
H312	H	1.243024	0.503356	1.228712
O313	O	0.673024	-0.364252	0.165143
O314	O	1.173024	0.135748	0.665143
H315	H	0.672652	-0.394888	0.202426
H316	H	1.172652	0.105112	0.702426
H317	H	0.742988	0.003397	0.159064
H318	H	1.242988	0.503397	0.659064
H319	H	0.601666	0.144628	0.728734
H320	H	1.101666	0.644628	1.228734
H321	H	0.118474	0.073319	-0.150849
H322	H	0.618474	0.573319	0.349151
H323	H	0.562690	0.183558	0.556225
H324	H	1.062690	0.683558	1.056225
H325	H	0.562681	0.183558	0.443903
H326	H	1.062681	0.683558	0.943903
H327	H	0.601642	0.144661	0.271416
H328	H	1.101642	0.644661	0.771416
