data_functionalizedCrystal
_audit_creation_method	'MofGen! by Chris Wilmer'
_symmetry_space_group_name_H-M	'P1'
_symmetry_Int_Tables_number	1
_symmetry_cell_setting	triclinic
loop_
_symmetry_equiv_pos_as_xyz
  x,y,z
_cell_length_a	10.654550
_cell_length_b	14.044220
_cell_length_c	9.730223
_cell_angle_alpha	89.994583
_cell_angle_beta	89.999957
_cell_angle_gamma	88.836904
loop_
_atom_site_label
_atom_site_type_symbol
_atom_site_fract_x
_atom_site_fract_y
_atom_site_fract_z
O1	O	1.681228	0.133232	-0.114191
O2	O	1.317025	0.145925	-0.114216
O3	O	1.493659	0.001558	-0.114190
O4	O	1.504593	0.277599	-0.114217
O5	O	1.493647	0.001554	0.114390
O6	O	1.317012	0.145921	0.114364
O7	O	1.681215	0.133228	0.114389
Zn8	Zn	1.499111	0.139574	0.150668
Zn9	Zn	1.499128	0.139579	-0.150496
O10	O	1.504580	0.277595	0.114363
C11	C	1.270127	0.144991	0.000070
C12	C	1.130403	0.142202	0.000061
C13	C	1.059459	0.227204	0.000057
C14	C	0.928175	0.224578	0.000081
C15	C	0.938790	0.051942	0.000108
C16	C	1.070072	0.054569	0.000094
C17	C	1.488867	-0.033790	0.000100
C18	C	1.474592	-0.139110	0.000101
C19	C	1.448493	-0.331943	0.000079
C20	C	1.549741	-0.388910	0.000082
C21	C	1.535219	-0.496209	0.000070
C22	C	1.463013	-0.224634	0.000091
C23	C	1.728113	0.134162	0.000099
C24	C	1.867836	0.136950	0.000100
C25	C	1.509372	0.312943	0.000070
C26	C	1.523648	0.418262	0.000060
N27	N	1.499109	0.139570	0.356205
N28	N	1.499140	0.139576	-0.356032
C29	C	1.577355	0.075671	0.428142
C30	C	1.577367	0.075671	0.572025
C31	C	1.420885	0.203477	0.572021
C32	C	1.420867	0.203471	0.428140
H33	H	1.647328	-0.357098	-0.000004
H34	H	1.641062	0.023637	0.369576
C35	C	1.200960	0.330306	0.117521
C36	C	1.125783	0.323526	0.000031
H37	H	1.241908	0.389771	0.117499
H38	H	1.149974	0.325699	0.197224
H39	H	1.261998	0.280053	0.117504
H40	H	1.064739	0.373775	0.000052
H41	H	1.176773	0.328143	-0.079693
H42	H	0.870417	0.293795	0.000080
C43	C	1.252183	0.222864	0.733863
C44	C	1.334896	0.273721	0.651104
H45	H	1.199105	0.266234	0.782690
H46	H	1.202551	0.183069	0.677752
H47	H	1.298804	0.184812	0.797292
H48	H	1.288276	0.311768	0.587668
H49	H	1.384534	0.313532	0.707220
H50	H	1.127837	-0.014653	0.000101
C51	C	1.327693	-0.474406	0.000082
C52	C	1.316759	-0.374881	0.000082
H53	H	1.246366	-0.500921	0.000097
H54	H	1.372046	-0.494892	-0.079629
H55	H	1.372068	-0.494902	0.079794
H56	H	1.272392	-0.354385	-0.079636
H57	H	1.272388	-0.354387	0.079800
H58	H	1.641080	0.023638	0.630593
C59	C	1.266196	0.329815	0.442576
C60	C	1.334856	0.273717	0.349056
H61	H	1.213104	0.373181	0.393749
H62	H	1.216578	0.290016	0.498709
H63	H	1.322346	0.364307	0.498681
H64	H	1.278705	0.239220	0.292957
H65	H	1.384477	0.313522	0.292899
H66	H	0.889652	-0.019406	0.000143
