data_functionalizedCrystal
_audit_creation_method	'MofGen! by Chris Wilmer'
_symmetry_space_group_name_H-M	'P1'
_symmetry_Int_Tables_number	1
_symmetry_cell_setting	triclinic
loop_
_symmetry_equiv_pos_as_xyz
  x,y,z
_cell_length_a	16.109301
_cell_length_b	10.540539
_cell_length_c	14.586319
_cell_angle_alpha	89.998343
_cell_angle_beta	89.999213
_cell_angle_gamma	83.993486
loop_
_atom_site_label
_atom_site_type_symbol
_atom_site_fract_x
_atom_site_fract_y
_atom_site_fract_z
O1	O	1.104129	0.163159	-0.076178
O2	O	0.862191	0.183464	-0.076192
O3	O	0.988679	-0.011474	-0.076184
O4	O	0.977640	0.358096	-0.076186
O5	O	0.988670	-0.011477	0.076297
O6	O	0.862182	0.183461	0.076289
O7	O	1.104120	0.163156	0.076303
Cu8	Cu	0.983150	0.173308	0.090219
Cu9	Cu	0.983160	0.173312	-0.090108
O10	O	0.977631	0.358094	0.076294
C11	C	0.831206	0.182640	0.000047
C12	C	0.738896	0.180174	0.000041
C13	C	0.987847	-0.058767	0.000055
C14	C	0.985370	-0.199679	0.000050
C15	C	0.517296	0.290112	0.000051
C16	C	0.430561	0.287785	0.000057
C17	C	0.449021	0.056499	0.000055
C18	C	0.535754	0.058827	0.000055
C19	C	0.569889	0.175637	0.000049
C20	C	0.396421	0.170982	0.000054
C21	C	0.302380	0.168459	0.000060
C22	C	0.663936	0.178162	0.000044
C23	C	0.890460	-0.381753	-0.000298
C24	C	0.892971	-0.235171	0.000046
C25	C	1.029832	-0.261973	0.087127
C26	C	1.026678	-0.408472	0.087200
C27	C	1.028567	-0.409014	-0.086199
C28	C	1.029419	-0.262044	-0.087350
C29	C	1.135104	0.163980	0.000062
C30	C	1.227414	0.166446	0.000062
C31	C	0.978463	0.405386	0.000054
C32	C	0.980940	0.546299	0.000053
N33	N	0.983149	0.173305	0.217050
N34	N	0.983168	0.173305	-0.216939
C35	C	1.039177	0.087015	0.452060
C36	C	1.039179	0.087012	0.548042
C37	C	0.927134	0.259598	0.548044
C38	C	0.927129	0.259594	0.452064
C39	C	0.983154	0.173304	0.404075
C40	C	0.983163	0.173305	0.596036
C41	C	0.983165	0.173303	0.700103
C42	C	0.983151	0.173305	0.300001
H43	H	0.545085	0.385227	0.000052
H44	H	0.387743	0.381003	0.000060
C45	C	0.865535	0.354581	0.399277
N46	N	0.819156	0.426141	0.359518
C47	C	0.865508	0.354510	0.600841
N48	N	0.819089	0.425999	0.640606
H49	H	0.857986	-0.192068	-0.062374
H50	H	0.421218	-0.038605	0.000066
C51	C	1.120431	-0.230630	-0.094446
N52	N	1.188987	-0.206975	-0.099782
H53	H	0.853964	-0.409832	-0.062742
H54	H	0.854105	-0.411444	0.061793
C55	C	1.100800	-0.007916	0.399276
N56	N	1.147214	-0.079425	0.359521
C57	C	1.100801	-0.007923	0.600821
N58	N	1.147215	-0.079436	0.640574
C59	C	1.121496	-0.233056	0.091521
N60	N	1.190536	-0.211264	0.094833
H61	H	1.095307	-0.457191	-0.086781
H62	H	0.857734	-0.192914	0.062566
C63	C	0.593611	-0.067111	0.000053
N64	N	0.637188	-0.161964	0.000054
H65	H	1.093130	-0.457388	0.091154
C66	C	0.982267	-0.445938	0.175125
N67	N	0.948813	-0.474151	0.241350
C68	C	0.988093	-0.203840	0.174665
N69	N	0.956650	-0.160058	0.240597
C70	C	0.988169	-0.451056	-0.175361
N71	N	0.957732	-0.482720	-0.242512
H72	H	0.996887	-0.220721	-0.151767
