data_functionalizedCrystal
_audit_creation_method	'MofGen! by Chris Wilmer'
_symmetry_space_group_name_H-M	'P1'
_symmetry_Int_Tables_number	1
_symmetry_cell_setting	triclinic
loop_
_symmetry_equiv_pos_as_xyz
  x,y,z
_cell_length_a	21.295417
_cell_length_b	14.908780
_cell_length_c	14.908308
_cell_angle_alpha	90.212689
_cell_angle_beta	93.260635
_cell_angle_gamma	86.680642
loop_
_atom_site_label
_atom_site_type_symbol
_atom_site_fract_x
_atom_site_fract_y
_atom_site_fract_z
Zn1	Zn	-0.220203	-1.345259	-0.587834
Zn2	Zn	0.113131	-1.011925	-0.254500
Zn3	Zn	0.446464	-0.678592	0.078833
Zn4	Zn	-0.319080	-1.353815	-0.437460
Zn5	Zn	0.014253	-1.020482	-0.104126
Zn6	Zn	0.347587	-0.687149	0.229207
Zn7	Zn	-0.219518	-1.203572	-0.428801
Zn8	Zn	0.113815	-0.870239	-0.095468
Zn9	Zn	0.447148	-0.536906	0.237865
Zn10	Zn	-0.331131	-1.194838	-0.579075
Zn11	Zn	0.002203	-0.861505	-0.245742
Zn12	Zn	0.335536	-0.528171	0.087591
O13	O	-0.272483	-1.274371	-0.508292
O14	O	0.060850	-0.941038	-0.174959
O15	O	0.394184	-0.607705	0.158374
O16	O	-0.228562	-1.472223	-0.575175
O17	O	0.104771	-1.138889	-0.241842
O18	O	0.438104	-0.805556	0.091492
O19	O	-0.300543	-1.341122	-0.310489
O20	O	0.032790	-1.007788	0.022845
O21	O	0.366123	-0.674455	0.356178
O22	O	-0.131518	-1.222442	-0.449939
O23	O	0.201815	-0.889109	-0.116606
O24	O	0.535148	-0.555775	0.216728
O25	O	-0.301207	-1.478509	-0.464696
O26	O	0.032126	-1.145176	-0.131363
O27	O	0.365460	-0.811842	0.201971
O28	O	-0.132021	-1.326538	-0.566779
O29	O	0.201312	-0.993205	-0.233446
O30	O	0.534645	-0.659872	0.099887
O31	O	-0.227396	-1.230739	-0.304127
O32	O	0.105937	-0.897405	0.029206
O33	O	0.439271	-0.564072	0.362539
O34	O	-0.239081	-1.076585	-0.441446
O35	O	0.094253	-0.743252	-0.108113
O36	O	0.427586	-0.409918	0.225220
O37	O	-0.321745	-1.207555	-0.706059
O38	O	0.011588	-0.874222	-0.372726
O39	O	0.344921	-0.540889	-0.039393
O40	O	-0.321082	-1.070168	-0.551852
O41	O	0.012252	-0.736835	-0.218519
O42	O	0.345585	-0.403501	0.114815
O43	O	-0.240247	-1.318069	-0.712494
O44	O	0.093086	-0.984736	-0.379161
O45	O	0.426420	-0.651402	-0.045827
O46	O	-0.408769	-1.332652	-0.456203
O47	O	-0.075436	-0.999319	-0.122870
O48	O	0.257897	-0.665985	0.210463
O49	O	-0.417623	-1.215852	-0.560248
O50	O	-0.084289	-0.882519	-0.226914
O51	O	0.249044	-0.549186	0.106419
C52	C	-0.281315	-1.040751	-0.494760
C53	C	0.052018	-0.707417	-0.161427
C54	C	0.385352	-0.374084	0.171907
C55	C	-0.285110	-0.940805	-0.488992
C56	C	0.048224	-0.607472	-0.155659
C57	C	0.381557	-0.274139	0.177675
C58	C	-0.216712	-0.746440	-0.593371
C59	C	0.116621	-0.413106	-0.260038
C60	C	0.449954	-0.079773	0.073296
C61	C	-0.220276	-0.652532	-0.587955
C62	C	0.113058	-0.319199	-0.254621
C63	C	0.446391	0.014135	0.078712
C64	C	-0.295795	-0.659081	-0.472738
C65	C	0.037538	-0.325748	-0.139405
C66	C	0.370871	0.007585	0.193928
C67	C	-0.292232	-0.752989	-0.478155
C68	C	0.041101	-0.419655	-0.144822
C69	C	0.374434	-0.086322	0.188512
C70	C	-0.252690	-0.796665	-0.538474
C71	C	0.080643	-0.463331	-0.205141
C72	C	0.413977	-0.129998	0.128192
C73	C	-0.249131	-0.890574	-0.543895
C74	C	0.084203	-0.557240	-0.210561
C75	C	0.417536	-0.223907	0.122772
C76	C	-0.324647	-0.897121	-0.428675
C77	C	0.008687	-0.563788	-0.095341
C78	C	0.342020	-0.230455	0.237992
C79	C	-0.328210	-0.803214	-0.423258
C80	C	0.005123	-0.469880	-0.089925
C81	C	0.338457	-0.136547	0.243409
C82	C	-0.436037	-1.274256	-0.508236
C83	C	-0.102704	-0.940923	-0.174902
C84	C	0.230630	-0.607589	0.158431
C85	C	-0.506004	-1.274287	-0.508246
C86	C	-0.172671	-0.940954	-0.174913
C87	C	0.160662	-0.607621	0.158420
C88	C	-0.534241	-1.335153	-0.454132
C89	C	-0.200907	-1.001820	-0.120799
C90	C	0.132426	-0.668486	0.212534
C91	C	-0.599982	-1.335194	-0.454155
C92	C	-0.266649	-1.001861	-0.120822
C93	C	0.066684	-0.668527	0.212512
C94	C	-0.637485	-1.274354	-0.508281
C95	C	-0.304152	-0.941021	-0.174948
C96	C	0.029181	-0.607687	0.158385
C97	C	-0.609242	-1.213484	-0.562406
C98	C	-0.275908	-0.880151	-0.229073
C99	C	0.057425	-0.546817	0.104260
C100	C	-0.543501	-1.213451	-0.562389
C101	C	-0.210168	-0.880117	-0.229056
C102	C	0.123165	-0.546784	0.104278
N103	N	-0.744021	-1.195299	-0.510579
N104	N	-0.410687	-0.861965	-0.177246
N105	N	-0.077354	-0.528632	0.156087
N106	N	-0.806471	-1.195333	-0.510591
N107	N	-0.473138	-0.862000	-0.177258
N108	N	-0.139805	-0.528666	0.156076
C109	C	-0.835558	-1.274452	-0.508339
C110	C	-0.502225	-0.941118	-0.175005
C111	C	-0.168892	-0.607785	0.158328
N112	N	-0.799835	-1.353537	-0.506057
N113	N	-0.466502	-1.020204	-0.172724
N114	N	-0.133169	-0.686871	0.160610
N115	N	-0.737379	-1.353502	-0.506041
N116	N	-0.404046	-1.020169	-0.172708
N117	N	-0.070712	-0.686836	0.160626
C118	C	-0.708771	-1.274384	-0.508307
C119	C	-0.375437	-0.941050	-0.174973
C120	C	-0.042104	-0.607717	0.158360
C121	C	-0.935079	-1.335367	-0.454246
C122	C	-0.601746	-1.002033	-0.120913
C123	C	-0.268413	-0.668700	0.212420
C124	C	-1.000822	-1.335409	-0.454275
C125	C	-0.667489	-1.002075	-0.120942
C126	C	-0.334156	-0.668742	0.212391
C127	C	-1.010081	-1.213691	-0.562522
C128	C	-0.676747	-0.880358	-0.229188
C129	C	-0.343414	-0.547024	0.104145
C130	C	-0.944339	-1.213657	-0.562498
C131	C	-0.611005	-0.880323	-0.229164
C132	C	-0.277672	-0.546990	0.104169
C133	C	-0.906842	-1.274493	-0.508355
C134	C	-0.573508	-0.941160	-0.175022
C135	C	-0.240175	-0.607827	0.158311
C136	C	-0.108290	-1.274510	-0.508370
C137	C	0.225043	-0.941177	-0.175037
C138	C	0.558376	-0.607843	0.158296
C139	C	-0.038321	-1.274569	-0.508404
C140	C	0.295012	-0.941236	-0.175070
C141	C	0.628346	-0.607902	0.158263
C142	C	-0.282417	-1.260883	-0.742813
C143	C	0.050917	-0.927550	-0.409480
C144	C	0.384250	-0.594217	-0.076146
C145	C	-0.286650	-1.255136	-0.842752
C146	C	0.046683	-0.921802	-0.509419
C147	C	0.380017	-0.588469	-0.176085
C148	C	-0.263611	-0.508904	-0.521872
C149	C	0.069722	-0.175571	-0.188538
C150	C	0.403055	0.157762	0.144795
C151	C	-0.259816	-0.608849	-0.527641
C152	C	0.073517	-0.275516	-0.194308
C153	C	0.406850	0.057817	0.139025
C154	C	-0.209726	-1.359410	-1.037250
C155	C	0.123607	-1.026077	-0.703916
C156	C	0.456941	-0.692744	-0.370583
C157	C	-0.213701	-1.354013	-1.131151
C158	C	0.119632	-1.020679	-0.797818
C159	C	0.452966	-0.687346	-0.464484
C160	C	-0.298572	-1.238939	-1.124458
C161	C	0.034761	-0.905606	-0.791125
C162	C	0.368095	-0.572272	-0.457791
C163	C	-0.294597	-1.244337	-1.030557
C164	C	0.038736	-0.911003	-0.697223
C165	C	0.372070	-0.577670	-0.363890
C166	C	-0.250173	-1.304575	-0.986956
C167	C	0.083160	-0.971242	-0.653622
C168	C	0.416494	-0.637909	-0.320289
C169	C	-0.246201	-1.309977	-0.893053
C170	C	0.087132	-0.976644	-0.559719
C171	C	0.420465	-0.643310	-0.226386
C172	C	-0.331069	-1.194899	-0.886361
C173	C	0.002265	-0.861566	-0.553028
C174	C	0.335598	-0.528232	-0.219695
C175	C	-0.335044	-1.189502	-0.980263
C176	C	-0.001711	-0.856168	-0.646929
C177	C	0.331623	-0.522835	-0.313596
C178	C	-0.262540	-1.287858	-0.274687
C179	C	0.070793	-0.954525	0.058646
C180	C	0.404126	-0.621192	0.391980
C181	C	-0.258123	-1.293780	-0.174759
C182	C	0.075210	-0.960447	0.158575
C183	C	0.408543	-0.627113	0.491908
H184	H	-0.503712	-1.384692	-0.410049
H185	H	-0.170379	-1.051358	-0.076715
H186	H	0.162955	-0.718025	0.256618
Cl187	Cl	-0.369883	-0.960266	-0.359664
Cl188	Cl	-0.036550	-0.626933	-0.026330
Cl189	Cl	0.296784	-0.293600	0.307003
H190	H	-0.216934	-0.926133	-0.593011
H191	H	0.116399	-0.592799	-0.259677
H192	H	0.449733	-0.259466	0.073656
H193	H	-0.622977	-1.384761	-0.410089
H194	H	-0.289644	-1.051428	-0.076756
H195	H	0.043690	-0.718094	0.256577
H196	H	-0.639781	-1.163949	-0.606478
H197	H	-0.306448	-0.830616	-0.273145
H198	H	0.026886	-0.497282	0.060189
Cl199	Cl	-0.175043	-0.589395	-0.656969
Cl200	Cl	0.158290	-0.256062	-0.323636
Cl201	Cl	0.491624	0.077272	0.009698
H202	H	-0.921347	-1.164091	-0.606559
H203	H	-0.588014	-0.830757	-0.273225
H204	H	-0.254681	-0.497424	0.060108
Cl205	Cl	-1.057221	-1.137211	-0.630574
Cl206	Cl	-0.723888	-0.803878	-0.297240
Cl207	Cl	-0.390555	-0.470545	0.036093
Cl208	Cl	-0.190356	-1.385706	-0.838241
Cl209	Cl	0.142977	-1.052373	-0.504908
Cl210	Cl	0.476311	-0.719040	-0.171575
Cl211	Cl	-0.153887	-1.435146	-0.982434
Cl212	Cl	0.179446	-1.101813	-0.649101
Cl213	Cl	0.512780	-0.768480	-0.315768
Cl214	Cl	-0.167010	-0.801349	-0.669207
Cl215	Cl	0.166323	-0.468016	-0.335873
Cl216	Cl	0.499656	-0.134683	-0.002540
Cl217	Cl	-0.508002	-1.136927	-0.630423
Cl218	Cl	-0.174669	-0.803594	-0.297090
Cl219	Cl	0.158664	-0.470260	0.036244
H220	H	-0.327981	-0.623505	-0.423620
H221	H	0.005352	-0.290171	-0.090286
H222	H	0.338686	0.043162	0.243047
Cl223	Cl	-0.887937	-1.411845	-0.386183
Cl224	Cl	-0.554604	-1.078511	-0.052849
Cl225	Cl	-0.221271	-0.745178	0.280484
Cl226	Cl	-0.162850	-1.422950	-1.194375
Cl227	Cl	0.170483	-1.089617	-0.861042
Cl228	Cl	0.503816	-0.756284	-0.527708
Cl229	Cl	-0.354410	-1.163211	-1.179286
Cl230	Cl	-0.021077	-0.829877	-0.845953
Cl231	Cl	0.312257	-0.496544	-0.512619
Cl232	Cl	-1.036320	-1.411939	-0.386247
Cl233	Cl	-0.702986	-1.078605	-0.052913
Cl234	Cl	-0.369653	-0.745272	0.280420
Cl235	Cl	-0.390887	-1.113777	-1.035084
Cl236	Cl	-0.057554	-0.780443	-0.701751
Cl237	Cl	0.275779	-0.447110	-0.368417
H238	H	-0.364005	-1.150251	-0.845402
H239	H	-0.030672	-0.816917	-0.512069
H240	H	0.302661	-0.483584	-0.178735
H241	H	-0.360402	-0.767640	-0.374145
H242	H	-0.027068	-0.434307	-0.040812
H243	H	0.306265	-0.100973	0.292521
