data_functionalizedCrystal
_audit_creation_method	'MofGen! by Chris Wilmer'
_symmetry_space_group_name_H-M	'P1'
_symmetry_Int_Tables_number	1
_symmetry_cell_setting	triclinic
loop_
_symmetry_equiv_pos_as_xyz
  x,y,z
_cell_length_a	27.732025
_cell_length_b	7.681481
_cell_length_c	8.559649
_cell_angle_alpha	94.913240
_cell_angle_beta	76.206068
_cell_angle_gamma	84.320682
loop_
_atom_site_label
_atom_site_type_symbol
_atom_site_fract_x
_atom_site_fract_y
_atom_site_fract_z
O1	O	-0.011272	-0.146410	2.105303
O2	O	0.013714	-0.146397	1.639477
O3	O	-0.069680	-0.146458	1.886871
O4	O	0.072122	-0.146350	1.857909
O5	O	-0.079965	0.146392	1.917322
O6	O	0.003429	0.146453	1.669928
O7	O	-0.021557	0.146440	2.135754
Zn8	Zn	-0.010697	0.192943	1.907676
Zn9	Zn	0.002854	-0.192900	1.867556
O10	O	0.061837	0.146500	1.888360
C11	C	0.010465	0.000028	1.595125
C12	C	0.016101	0.000030	1.417605
C13	C	-0.092808	-0.000050	1.901492
C14	C	-0.146398	-0.000102	1.899672
N15	N	-0.019946	0.456270	1.935068
C16	C	-0.523511	-0.159632	1.870191
C17	C	-0.322087	-0.159689	1.876976
O18	O	-0.291284	-0.295455	1.863802
N19	N	-0.302501	-0.000061	1.894423
C20	C	-0.333276	0.159592	1.910186
O21	O	-0.311997	0.295364	1.925198
C22	C	-0.534701	0.159647	1.903412
C23	C	-0.554282	0.000009	1.885948
C24	C	-0.543093	-0.319258	1.852730
C25	C	-0.593446	-0.319242	1.851025
C26	C	-0.624216	-0.159601	1.866782
C27	C	-0.604635	0.000025	1.884243
C28	C	-0.565476	0.319299	1.919186
C29	C	-0.615835	0.319299	1.917495
C30	C	-0.635416	0.159660	1.900031
C31	C	-0.685758	0.159682	1.898295
N32	N	-0.705343	0.000054	1.880848
C33	C	-0.674573	-0.159587	1.865091
C34	C	-0.227525	0.159552	1.913738
C35	C	-0.177169	0.159539	1.915428
C36	C	-0.165983	-0.159743	1.882222
C37	C	-0.216339	-0.159728	1.880520
C38	C	-0.247110	-0.000076	1.896291
C39	C	-0.780317	-0.159542	1.861511
C40	C	-0.830674	-0.159512	1.859801
C41	C	-0.841856	0.159769	1.893016
C42	C	-0.791503	0.159740	1.894718
C43	C	-0.760734	0.000070	1.878969
O44	O	-0.716591	0.295377	1.911479
O45	O	-0.695864	-0.295339	1.850117
C46	C	-0.473159	-0.159648	1.871896
C47	C	-0.453577	-0.000023	1.889357
C48	C	-0.484348	0.159619	1.905114
C49	C	-0.403221	-0.000036	1.891048
C50	C	-0.372450	-0.159677	1.875291
C51	C	-0.392036	-0.319305	1.857844
C52	C	-0.442388	-0.319289	1.856140
C53	C	-0.464762	0.319246	1.922561
C54	C	-0.414409	0.319218	1.924263
C55	C	-0.383638	0.159576	1.908506
C56	C	0.084965	0.000089	1.873739
C57	C	0.138555	0.000129	1.875558
N58	N	0.012099	-0.456228	1.840176
C59	C	-0.018308	0.000010	2.180105
C60	C	-0.023944	-0.000003	2.357625
H61	H	-0.846613	-0.289514	1.845573
H62	H	-0.062540	-0.000041	1.442081
O63	O	-0.063271	0.555836	2.063412
H64	H	-0.098985	0.520523	2.040174
O65	O	-0.358839	-0.491488	1.840841
H66	H	-0.380909	-0.602502	1.828402
O67	O	0.067232	0.000082	1.305742
H68	H	0.063786	0.000092	1.179187
O69	O	-0.614568	-0.491414	1.832196
H70	H	-0.628883	-0.499032	1.721573
H71	H	-0.755271	-0.289560	1.848689
H72	H	-0.252575	0.289568	1.926582
O73	O	-0.509906	-0.491456	1.835709
H74	H	-0.531989	-0.602432	1.823268
H75	H	-0.140920	-0.289730	1.869381
O76	O	-0.237454	-0.331912	1.861666
H77	H	-0.233460	-0.408482	1.963069
O78	O	-0.156050	0.331718	1.934262
H79	H	-0.185913	0.442719	1.944955
O80	O	0.055417	0.444195	1.711837
H81	H	0.079333	0.360182	1.769998
H82	H	-0.775554	0.289731	1.908875
O83	O	-0.544366	0.491482	1.938058
H84	H	-0.574232	0.602474	1.948759
O85	O	-0.649024	0.491498	1.934494
H86	H	-0.626943	0.602489	1.946907
H87	H	-0.866918	0.289745	1.905838
O88	O	-0.393292	0.491412	1.943096
H89	H	-0.378973	0.499018	2.053710
O90	O	-0.463507	-0.491468	1.837305
H91	H	-0.477821	-0.499090	1.726681
O92	O	-0.497947	0.491439	1.939542
H93	H	-0.475863	0.602421	1.951946
