data_functionalizedCrystal
_audit_creation_method	'MofGen! by Chris Wilmer'
_symmetry_space_group_name_H-M	'P1'
_symmetry_Int_Tables_number	1
_symmetry_cell_setting	triclinic
loop_
_symmetry_equiv_pos_as_xyz
  x,y,z
_cell_length_a	13.032831
_cell_length_b	16.625546
_cell_length_c	13.033429
_cell_angle_alpha	82.778950
_cell_angle_beta	89.091437
_cell_angle_gamma	82.826778
loop_
_atom_site_label
_atom_site_type_symbol
_atom_site_fract_x
_atom_site_fract_y
_atom_site_fract_z
Zn1	Zn	1.498517	-0.391465	-0.780838
Zn2	Zn	1.998517	0.108535	-0.280838
Zn3	Zn	1.520229	-0.545312	-0.608832
Zn4	Zn	2.020229	-0.045312	-0.108832
Zn5	Zn	1.348357	-0.395765	-0.587067
Zn6	Zn	1.848357	0.104235	-0.087067
Zn7	Zn	1.326494	-0.511523	-0.758969
Zn8	Zn	1.826494	-0.011523	-0.258969
O9	O	1.423399	-0.461016	-0.683927
O10	O	1.923399	0.038984	-0.183927
O11	O	1.645318	-0.424215	-0.776282
O12	O	2.145318	0.075785	-0.276282
O13	O	1.515666	-0.541414	-0.462018
O14	O	2.015666	-0.041414	0.037982
O15	O	1.368339	-0.282364	-0.612815
O16	O	1.868339	0.217636	-0.112815
O17	O	1.661270	-0.537245	-0.649909
O18	O	2.161270	-0.037245	-0.149909
O19	O	1.478661	-0.279205	-0.755178
O20	O	1.978661	0.220795	-0.255178
O21	O	1.389392	-0.431542	-0.446028
O22	O	1.889392	0.068458	0.053972
O23	O	1.201535	-0.398779	-0.591610
O24	O	1.701535	0.101221	-0.091610
O25	O	1.331077	-0.479657	-0.905797
O26	O	1.831077	0.020343	-0.405797
O27	O	1.185473	-0.483826	-0.717905
O28	O	1.685473	0.016174	-0.217905
O29	O	1.457462	-0.391452	-0.921864
O30	O	1.957462	0.108548	-0.421864
O31	O	1.494467	-0.653660	-0.628704
O32	O	1.994467	-0.153660	-0.128704
O33	O	1.352130	-0.628836	-0.739009
O34	O	1.852130	-0.128836	-0.239009
C35	C	1.156187	-0.438103	-0.650024
C36	C	1.656187	0.061897	-0.150024
C37	C	1.041869	-0.428318	-0.635544
C38	C	1.541869	0.071682	-0.135544
C39	C	0.982995	-0.466124	-0.691484
C40	C	1.482995	0.033876	-0.191484
C41	C	0.864842	-0.456011	-0.676520
C42	C	1.364842	0.043989	-0.176520
C43	C	1.423307	-0.670504	-0.683871
C44	C	1.923307	-0.170504	-0.183871
C45	C	1.423358	-0.760127	-0.683894
C46	C	1.923358	-0.260127	-0.183894
C47	C	1.423523	-1.088307	-0.684024
C48	C	1.923523	-0.588307	-0.184024
C49	C	1.423474	-0.996996	-0.683990
C50	C	1.923474	-0.496996	-0.183990
C51	C	1.423440	-0.924220	-0.683958
C52	C	1.923440	-0.424220	-0.183958
C53	C	1.423392	-0.832904	-0.683926
C54	C	1.923392	-0.332904	-0.183926
C55	C	1.691655	-0.484019	-0.717963
C56	C	2.191655	0.015981	-0.217963
C57	C	1.805969	-0.493822	-0.732467
C58	C	2.305969	0.006178	-0.232467
C59	C	1.389409	-0.431306	-0.952193
C60	C	1.889409	0.068694	-0.452193
C61	C	1.374924	-0.418645	-1.066512
C62	C	1.874924	0.081355	-0.566512
C63	C	1.423516	-0.250711	-0.684008
C64	C	1.923516	0.249289	-0.184008
C65	C	1.423567	-0.161091	-0.684043
C66	C	1.923567	0.338909	-0.184043
C67	C	1.415981	-0.454290	-1.243542
C68	C	1.915981	0.045710	-0.743542
C69	C	1.430951	-0.467371	-1.125387
C70	C	1.930951	0.032629	-0.625387
C71	C	1.457316	-0.490558	-0.416712
C72	C	1.957316	0.009442	0.083288
C73	C	1.472000	-0.503009	-0.302419
C74	C	1.972000	-0.003009	0.197581
H75	H	1.356941	-0.402892	-1.280608
H76	H	1.856941	0.097108	-0.780608
O77	O	1.304465	-0.357264	-1.110551
O78	O	1.804465	0.142736	-0.610551
C79	C	1.175394	-0.245036	-1.082928
C80	C	1.675394	0.254964	-0.582928
C81	C	1.255166	-0.314504	-1.032922
C82	C	1.755166	0.185496	-0.532922
H83	H	1.135498	-0.210456	-1.020186
H84	H	1.635498	0.289544	-0.520186
H85	H	1.216262	-0.201339	-1.139202
H86	H	1.716262	0.298661	-0.639202
H87	H	1.115311	-0.271927	-1.126423
H88	H	1.615311	0.228073	-0.626423
H89	H	1.315271	-0.287685	-0.989373
H90	H	1.815271	0.212315	-0.489373
H91	H	1.214227	-0.358190	-0.976705
H92	H	1.714227	0.141810	-0.476705
O93	O	0.820610	-0.408590	-0.606037
O94	O	1.320610	0.091410	-0.106037
C95	C	0.716715	-0.402638	-0.451953
C96	C	1.216715	0.097362	0.048047
C97	C	0.766768	-0.456432	-0.531691
C98	C	1.266768	0.043568	-0.031691
H99	H	0.673154	-0.441292	-0.391836
H100	H	1.173154	0.058708	0.108164
H101	H	0.779389	-0.375771	-0.412081
H102	H	1.279389	0.124229	0.087919
H103	H	0.660485	-0.351002	-0.492961
H104	H	1.160485	0.148998	0.007039
H105	H	0.822990	-0.508108	-0.490762
H106	H	1.322990	-0.008108	0.009238
H107	H	0.704039	-0.483237	-0.571559
H108	H	1.204039	0.016763	-0.071559
H109	H	1.004801	-0.388460	-0.576578
H110	H	1.504801	0.111540	-0.076578
H111	H	1.531048	-0.554401	-1.265353
H112	H	2.031048	-0.054401	-0.765353
H113	H	1.490003	-0.518766	-1.088326
H114	H	1.990003	-0.018766	-0.588326
H115	H	1.020063	-0.505974	-0.750457
H116	H	1.520063	-0.005974	-0.250457
H117	H	0.843030	-0.533673	-0.791448
H118	H	1.343030	-0.033673	-0.291448
