data_functionalizedCrystal
_audit_creation_method	'MofGen! by Chris Wilmer'
_symmetry_space_group_name_H-M	'P1'
_symmetry_Int_Tables_number	1
_symmetry_cell_setting	triclinic
loop_
_symmetry_equiv_pos_as_xyz
  x,y,z
_cell_length_a	16.120530
_cell_length_b	12.645330
_cell_length_c	16.120297
_cell_angle_alpha	92.876762
_cell_angle_beta	90.128140
_cell_angle_gamma	87.113442
loop_
_atom_site_label
_atom_site_type_symbol
_atom_site_fract_x
_atom_site_fract_y
_atom_site_fract_z
Zn1	Zn	1.247482	-0.537081	-0.534595
Zn2	Zn	1.580815	-0.203748	-0.201262
Zn3	Zn	1.914148	0.129586	0.132071
Zn4	Zn	1.254445	-0.705843	-0.395547
Zn5	Zn	1.587779	-0.372509	-0.062214
Zn6	Zn	1.921112	-0.039176	0.271119
Zn7	Zn	1.115471	-0.519167	-0.388512
Zn8	Zn	1.448804	-0.185834	-0.055179
Zn9	Zn	1.782137	0.147500	0.278154
Zn10	Zn	1.108402	-0.704866	-0.527517
Zn11	Zn	1.441735	-0.371533	-0.194183
Zn12	Zn	1.775068	-0.038200	0.139150
O13	O	1.181450	-0.616739	-0.461543
O14	O	1.514783	-0.283406	-0.128210
O15	O	1.848116	0.049927	0.205124
O16	O	1.364772	-0.567373	-0.522057
O17	O	1.698106	-0.234040	-0.188724
O18	O	2.031439	0.099293	0.144610
O19	O	1.241883	-0.673991	-0.278248
O20	O	1.575216	-0.340658	0.055085
O21	O	1.908549	-0.007325	0.388418
O22	O	1.133026	-0.373200	-0.407909
O23	O	1.466359	-0.039867	-0.074575
O24	O	1.799693	0.293467	0.258758
O25	O	1.369888	-0.691362	-0.419899
O26	O	1.703222	-0.358028	-0.086566
O27	O	2.036555	-0.024695	0.246768
O28	O	1.230014	-0.386361	-0.515235
O29	O	1.563347	-0.053028	-0.181902
O30	O	1.896681	0.280305	0.151431
O31	O	1.139779	-0.536842	-0.273080
O32	O	1.473112	-0.203508	0.060254
O33	O	1.806445	0.129825	0.393587
O34	O	0.998166	-0.535895	-0.401045
O35	O	1.331499	-0.202562	-0.067711
O36	O	1.664833	0.130772	0.265622
O37	O	1.120978	-0.689698	-0.644821
O38	O	1.454312	-0.356364	-0.311488
O39	O	1.787645	-0.023031	0.021845
O40	O	0.992972	-0.672327	-0.503171
O41	O	1.326306	-0.338994	-0.169837
O42	O	1.659639	-0.005661	0.163496
O43	O	1.223160	-0.566427	-0.650022
O44	O	1.556493	-0.233093	-0.316689
O45	O	1.889826	0.100240	0.016645
O46	O	1.235028	-0.854056	-0.413035
O47	O	1.568362	-0.520723	-0.079702
O48	O	1.901695	-0.187390	0.253632
O49	O	1.127731	-0.853339	-0.509992
O50	O	1.461064	-0.520006	-0.176659
O51	O	1.794397	-0.186673	0.156674
C52	C	0.965397	-0.602062	-0.450577
C53	C	1.298730	-0.268729	-0.117243
C54	C	1.632063	0.064605	0.216090
C55	C	0.872967	-0.595810	-0.445905
C56	C	1.206300	-0.262477	-0.112572
C57	C	1.539634	0.070857	0.220762
C58	C	0.703737	-0.584371	-0.437383
C59	C	1.037070	-0.251037	-0.104050
C60	C	1.370403	0.082296	0.229284
C61	C	0.660000	-0.649190	-0.485763
C62	C	0.993334	-0.315856	-0.152430
C63	C	1.326667	0.017477	0.180903
C64	C	0.565835	-0.642825	-0.481022
C65	C	0.899168	-0.309492	-0.147688
C66	C	1.232501	0.023842	0.185645
C67	C	0.797911	-0.590734	-0.442124
C68	C	1.131244	-0.257401	-0.108790
C69	C	1.464577	0.075933	0.224543
C70	C	1.181390	-0.892164	-0.461528
C71	C	1.514723	-0.558831	-0.128195
C72	C	1.848056	-0.225498	0.205139
C73	C	1.181439	-1.009999	-0.461554
C74	C	1.514772	-0.676666	-0.128220
C75	C	1.848105	-0.343332	0.205113
C76	C	1.114193	-1.177186	-0.522761
C77	C	1.447526	-0.843853	-0.189428
C78	C	1.780859	-0.510519	0.143906
C79	C	1.113876	-1.054592	-0.522537
C80	C	1.447209	-0.721258	-0.189204
C81	C	1.780542	-0.387925	0.144130
C82	C	1.162161	-1.047614	-0.372717
C83	C	1.495494	-0.714281	-0.039383
C84	C	1.828828	-0.380947	0.293950
C85	C	1.161751	-1.170210	-0.373088
C86	C	1.495084	-0.836876	-0.039755
C87	C	1.828417	-0.503543	0.293578
C88	C	1.268390	-1.184441	-0.488492
C89	C	1.601723	-0.851108	-0.155159
C90	C	1.935056	-0.517774	0.178175
C91	C	1.267753	-1.061915	-0.490381
C92	C	1.601086	-0.728582	-0.157048
C93	C	1.934420	-0.395248	0.176286
C94	C	1.398347	-0.631475	-0.472552
C95	C	1.731680	-0.298141	-0.139219
C96	C	2.065013	0.035192	0.194114
C97	C	1.490775	-0.637754	-0.477244
C98	C	1.824108	-0.304421	-0.143911
C99	C	2.157442	0.028913	0.189423
C100	C	1.170504	-0.629952	-0.678438
C101	C	1.503837	-0.296618	-0.345104
C102	C	1.837170	0.036715	-0.011771
C103	C	1.165839	-0.635582	-0.770865
C104	C	1.499172	-0.302248	-0.437532
C105	C	1.832506	0.031085	-0.104199
C106	C	1.181532	-0.340242	-0.461577
C107	C	1.514865	-0.006908	-0.128244
C108	C	1.848198	0.326425	0.205090
C109	C	1.181567	-0.222415	-0.461592
C110	C	1.514900	0.110919	-0.128258
C111	C	1.848233	0.444252	0.205075
C112	C	1.157292	-0.645836	-0.940091
C113	C	1.490625	-0.312502	-0.606757
C114	C	1.823959	0.020831	-0.273424
C115	C	1.205771	-0.587337	-0.983855
C116	C	1.539105	-0.254003	-0.650522
C117	C	1.872438	0.079330	-0.317188
C118	C	1.201016	-0.593042	-1.078018
C119	C	1.534349	-0.259708	-0.744685
C120	C	1.867682	0.073625	-0.411351
C121	C	1.162047	-0.640132	-0.845919
C122	C	1.495380	-0.306798	-0.512586
C123	C	1.828713	0.026535	-0.179253
C124	C	1.192401	-0.603505	-0.245494
C125	C	1.525735	-0.270172	0.087839
C126	C	1.859068	0.063161	0.421173
C127	C	1.197227	-0.597587	-0.153075
C128	C	1.530560	-0.264254	0.180258
C129	C	1.863894	0.069079	0.513592
H130	H	1.125422	-1.029426	-0.588270
H131	H	1.458755	-0.696093	-0.254936
H132	H	1.792089	-0.362760	0.078397
F133	F	1.098381	-0.716896	-0.983549
F134	F	1.431714	-0.383563	-0.650216
F135	F	1.765047	-0.050230	-0.316882
H136	H	0.670462	-0.524103	-0.392405
H137	H	1.003795	-0.190769	-0.059072
H138	H	1.337128	0.142564	0.274262
H139	H	1.318531	-1.213794	-0.443994
H140	H	1.651864	-0.880461	-0.110661
H141	H	1.985197	-0.547127	0.222673
F142	F	0.703493	-0.727966	-0.544562
F143	F	1.036826	-0.394633	-0.211229
F144	F	1.370160	-0.061300	0.122104
F145	F	1.264703	-0.516293	-0.940397
F146	F	1.598037	-0.182960	-0.607064
F147	F	1.931370	0.150374	-0.273731
F148	F	1.129088	-1.222157	-0.608950
F149	F	1.462421	-0.888823	-0.275616
F150	F	1.795755	-0.555490	0.057717
H151	H	1.050134	-1.202791	-0.504798
H152	H	1.383467	-0.869458	-0.171465
H153	H	1.716801	-0.536125	0.161868
F154	F	1.224524	-1.009564	-0.311260
F155	F	1.557857	-0.676230	0.022073
F156	F	1.891191	-0.342897	0.355407
F157	F	1.078966	-1.200491	-0.343979
F158	F	1.412300	-0.867158	-0.010646
F159	F	1.745633	-0.533824	0.322688
F160	F	1.029625	-1.009402	-0.498787
F161	F	1.362959	-0.676069	-0.165454
F162	F	1.696292	-0.342736	0.167879
H163	H	1.099513	-1.011500	-0.350136
H164	H	1.432846	-0.678167	-0.016803
H165	H	1.766179	-0.344834	0.316530
F166	F	1.223416	-1.208962	-0.311168
F167	F	1.556749	-0.875628	0.022165
F168	F	1.890083	-0.542295	0.355499
F169	F	1.292512	-1.231705	-0.572032
F170	F	1.625845	-0.898372	-0.238698
F171	F	1.959178	-0.565038	0.094635
H172	H	1.320237	-1.032010	-0.449427
H173	H	1.653571	-0.698676	-0.116093
H174	H	1.986904	-0.365343	0.217240
F175	F	1.286863	-1.030567	-0.575865
F176	F	1.620197	-0.697233	-0.242532
F177	F	1.953530	-0.363900	0.090802
