data_functionalizedCrystal
_audit_creation_method	'MofGen! by Chris Wilmer'
_symmetry_space_group_name_H-M	'P1'
_symmetry_Int_Tables_number	1
_symmetry_cell_setting	triclinic
loop_
_symmetry_equiv_pos_as_xyz
  x,y,z
_cell_length_a	15.297475
_cell_length_b	19.121063
_cell_length_c	15.296720
_cell_angle_alpha	78.383753
_cell_angle_beta	88.382886
_cell_angle_gamma	83.156694
loop_
_atom_site_label
_atom_site_type_symbol
_atom_site_fract_x
_atom_site_fract_y
_atom_site_fract_z
Zn1	Zn	1.219315	-0.545242	0.750522
Zn2	Zn	1.238271	-0.646121	0.608463
Zn3	Zn	1.100653	-0.505885	0.577035
Zn4	Zn	1.066927	-0.639234	0.729290
O5	O	1.156291	-0.584120	0.666328
O6	O	1.343197	-0.577977	0.753716
O7	O	1.242063	-0.613929	0.481124
O8	O	1.122575	-0.413080	0.595782
O9	O	1.357124	-0.652092	0.649346
O10	O	1.209755	-0.441996	0.723241
O11	O	1.140956	-0.510898	0.458034
O12	O	0.974811	-0.504221	0.575194
O13	O	1.065095	-0.640355	0.855277
O14	O	0.950033	-0.602192	0.687055
O15	O	1.177053	-0.571299	0.870876
O16	O	1.209361	-0.743232	0.628758
O17	O	1.083475	-0.738173	0.717529
C18	C	0.930952	-0.548189	0.625411
C19	C	0.834547	-0.532837	0.607928
C20	C	0.511335	-0.693852	0.791283
C21	C	0.601913	-0.708281	0.807706
C22	C	0.660075	-0.664421	0.757763
C23	C	0.627652	-0.606129	0.691393
C24	C	0.537065	-0.591702	0.674963
C25	C	0.685806	-0.562271	0.641444
C26	C	0.653382	-0.503980	0.575074
C27	C	0.562804	-0.489555	0.558647
C28	C	0.504642	-0.533415	0.608590
C29	C	0.776392	-0.576699	0.657874
C30	C	0.802123	-0.474549	0.541555
C31	C	0.711545	-0.460120	0.525131
C32	C	1.144835	-0.766125	0.674274
C33	C	1.140009	-0.844004	0.677717
C34	C	1.203317	-0.883214	0.633171
C35	C	1.198782	-0.956391	0.636415
C36	C	1.130934	-0.990354	0.684201
C37	C	1.067622	-0.951139	0.728752
C38	C	1.072161	-0.877965	0.725513
C39	C	1.113949	-1.211161	0.696297
C40	C	1.109413	-1.284340	0.699531
C41	C	1.240575	-1.289587	0.607195
C42	C	1.245105	-1.216411	0.603955
C43	C	1.181796	-1.177203	0.648510
C44	C	1.126295	-1.065151	0.687516
C45	C	1.186440	-1.102408	0.645200
C46	C	1.382510	-0.620193	0.707405
C47	C	1.478911	-0.635564	0.724910
C48	C	1.115197	-0.609449	0.895906
C49	C	1.097685	-0.620243	0.993739
C50	C	1.167812	-0.401410	0.658374
C51	C	1.172722	-0.323550	0.654985
C52	C	1.197279	-0.558848	0.437649
C53	C	1.214971	-0.547884	0.339838
C54	C	1.281492	-0.506860	1.302001
C55	C	1.297950	-0.496721	1.210084
C56	C	1.247885	-0.527600	1.155993
C57	C	1.181359	-0.568621	1.193829
C58	C	1.164903	-0.578765	1.285757
C59	C	1.131297	-0.599506	1.139748
C60	C	1.064771	-0.640526	1.177584
C61	C	1.048318	-0.650669	1.269503
C62	C	1.098383	-0.619789	1.323594
C63	C	1.147753	-0.589361	1.047821
C64	C	1.031165	-0.661267	1.031576
C65	C	1.014706	-0.671406	1.123494
H66	H	0.430884	-0.521668	0.595223
N67	N	1.040110	-1.319048	0.748339
N68	N	0.987886	-1.347700	0.709101
H69	H	0.938943	-1.372215	0.743567
H70	H	1.062399	-1.179243	0.732574
H71	H	1.084986	-0.628042	1.398442
H72	H	1.012381	-0.978799	0.767665
N73	N	0.451938	-0.738660	0.842291
N74	N	0.459064	-0.804246	0.840972
H75	H	0.417114	-0.835897	0.876999
H76	H	1.300353	-1.188759	0.565044
N77	N	0.946754	-0.713301	1.162161
N78	N	0.932072	-0.722348	1.244235
H79	H	0.884080	-0.751936	1.271546
H80	H	1.201919	-0.555961	1.017024
N81	N	1.264696	-0.517226	1.062101
N82	N	1.257364	-0.455162	1.015412
H83	H	1.269237	-0.447829	0.949096
N84	N	0.529699	-0.430019	0.490837
N85	N	0.581634	-0.390865	0.446248
H86	H	0.558256	-0.348817	0.398355
N87	N	0.980365	-0.692578	1.308133
N88	N	0.902466	-0.674044	1.283131
H89	H	0.854475	-0.703646	1.310409
H90	H	0.990399	-0.686413	0.987536
H91	H	1.322252	-0.481727	1.346050
H92	H	1.071051	-1.092812	0.726421
N93	N	1.007481	-0.837907	0.770999
N94	N	0.960319	-0.784896	0.728148
H95	H	0.914637	-0.756605	0.760276
N96	N	0.635028	-0.767828	0.875486
N97	N	0.621914	-0.830189	0.870493
H98	H	0.645300	-0.872248	0.918366
H99	H	1.241685	-1.074754	0.606296
N100	N	1.263442	-0.996434	0.590892
N101	N	1.240482	-1.026256	0.531053
H102	H	1.286152	-1.054535	0.498899
H103	H	0.685132	-0.412659	0.471092
N104	N	1.365896	-0.454812	1.171454
N105	N	1.362383	-0.390391	1.177869
H106	H	1.410374	-0.360790	1.150588
N107	N	0.809508	-0.636244	0.725655
N108	N	0.796398	-0.698606	0.720665
H109	H	0.819785	-0.740664	0.768539
N110	N	0.752596	-0.679170	0.774547
N111	N	0.781535	-0.731216	0.833807
H112	H	0.846881	-0.741634	0.845667
H113	H	0.849480	-0.438836	0.500886
N114	N	1.272624	-0.848534	0.584345
N115	N	1.329144	-0.883556	0.544576
H116	H	1.378095	-0.859065	0.510092
H117	H	1.292119	-1.321518	0.570922
