data_functionalizedCrystal
_audit_creation_method	'MofGen! by Chris Wilmer'
_symmetry_space_group_name_H-M	'P1'
_symmetry_Int_Tables_number	1
_symmetry_cell_setting	triclinic
loop_
_symmetry_equiv_pos_as_xyz
  x,y,z
_cell_length_a	19.077399
_cell_length_b	18.050590
_cell_length_c	19.077174
_cell_angle_alpha	92.271281
_cell_angle_beta	89.887093
_cell_angle_gamma	92.318100
loop_
_atom_site_label
_atom_site_type_symbol
_atom_site_fract_x
_atom_site_fract_y
_atom_site_fract_z
Zn1	Zn	1.090205	-0.264479	-0.354249
Zn2	Zn	1.085417	-0.383894	-0.236744
Zn3	Zn	0.967985	-0.264900	-0.241466
Zn4	Zn	0.972677	-0.393811	-0.358919
O5	O	1.029071	-0.326771	-0.297844
O6	O	1.187901	-0.275993	-0.334731
O7	O	1.065873	-0.364136	-0.139039
O8	O	0.984238	-0.160919	-0.256448
O9	O	1.184384	-0.363727	-0.248400
O10	O	1.074033	-0.160609	-0.339310
O11	O	0.979596	-0.276711	-0.142508
O12	O	0.870276	-0.286327	-0.260977
O13	O	0.992234	-0.380628	-0.456630
O14	O	0.873723	-0.381037	-0.347269
O15	O	1.078582	-0.285608	-0.453199
O16	O	1.070422	-0.489135	-0.252929
O17	O	0.987592	-0.496421	-0.342690
C18	C	0.846503	-0.334804	-0.305143
C19	C	0.768401	-0.338260	-0.308282
C20	C	0.729896	-0.290504	-0.264902
C21	C	0.656510	-0.293757	-0.267852
C22	C	0.621631	-0.344763	-0.314184
C23	C	0.660141	-0.392524	-0.357565
C24	C	0.733525	-0.389274	-0.354612
C25	C	0.402350	-0.359781	-0.327823
C26	C	0.328960	-0.363026	-0.330775
C27	C	0.325334	-0.264260	-0.241060
C28	C	0.398720	-0.261011	-0.238114
C29	C	0.437224	-0.308775	-0.281492
N30	N	0.546619	-0.348087	-0.317201
N31	N	0.512234	-0.305453	-0.278471
C32	C	1.029016	-0.519724	-0.297818
C33	C	1.029058	-0.602269	-0.297828
C34	C	1.074201	-0.797729	-0.249077
C35	C	1.093938	-0.848914	-0.312522
C36	C	1.029099	-0.753398	-0.297855
C37	C	1.009434	-0.849292	-0.234436
C38	C	1.029139	-0.899383	-0.297875
C39	C	1.048870	-0.803497	-0.361332
C40	C	0.964335	-0.803870	-0.283204
C41	C	0.984049	-0.855036	-0.346694
C42	C	1.029077	-0.669301	-0.297842
C43	C	1.029161	-0.983479	-0.297894
C44	C	1.212352	-0.318707	-0.290518
C45	C	1.290455	-0.315270	-0.287396
C46	C	1.036465	-0.334177	-0.481124
C47	C	1.039616	-0.337334	-0.559227
C48	C	1.029146	-0.133064	-0.297885
C49	C	1.029178	-0.050517	-0.297902
C50	C	0.996179	-0.293300	-0.597725
C51	C	0.999137	-0.296272	-0.671111
C52	C	1.045536	-0.343274	-0.705997
C53	C	1.088975	-0.387312	-0.667493
C54	C	1.086013	-0.384344	-0.594109
C55	C	1.059208	-0.357036	-0.925280
C56	C	1.062169	-0.360000	-0.998670
C57	C	0.972329	-0.268960	-1.002282
C58	C	0.969374	-0.265992	-0.928896
C59	C	1.012810	-0.310034	-0.890399
N60	N	1.048562	-0.346311	-0.781009
N61	N	1.009780	-0.307000	-0.815388
C62	C	1.021746	-0.319338	-0.115276
C63	C	1.018731	-0.315966	-0.037168
H64	H	0.625162	-0.254873	-0.232523
H65	H	1.112357	-0.772696	-0.207868
H66	H	0.936965	-0.233105	-1.033635
C67	C	0.918330	-0.214288	-0.890527
N68	N	0.879883	-0.175342	-0.861628
C69	C	1.167951	-0.875748	-0.329279
N70	N	1.223699	-0.895958	-0.341895
H71	H	1.126751	-0.425587	-0.695904
C72	C	0.444694	-0.412322	-0.375542
N73	N	0.476591	-0.451900	-0.411485
H74	H	0.992786	-0.869468	-0.180796
C75	C	0.290595	-0.419136	-0.381749
N76	N	0.261698	-0.461393	-0.420143
H77	H	0.958399	-0.255021	-0.569326
C78	C	1.133801	-0.432781	-0.551761
N79	N	1.169796	-0.469266	-0.519865
C80	C	0.951359	-0.247823	-0.713456
N81	N	0.915373	-0.211327	-0.745350
C82	C	0.932546	-0.888673	-0.402491
N83	N	0.893756	-0.914008	-0.444519
H84	H	1.065467	-0.783417	-0.415021
H85	H	1.094570	-0.392906	-0.893944
C86	C	0.890343	-0.777007	-0.266414
N87	N	0.834612	-0.756770	-0.253759
C88	C	0.621771	-0.448631	-0.408531
N89	N	0.592872	-0.490890	-0.446922
C90	C	0.437081	-0.204902	-0.187143
N91	N	0.465975	-0.162639	-0.148752
C92	C	0.768256	-0.234393	-0.213932
N93	N	0.797146	-0.192131	-0.175538
H94	H	0.293977	-0.225374	-0.205743
C95	C	1.113211	-0.411711	-1.037043
N96	N	1.151654	-0.450658	-1.065945
C97	C	0.775880	-0.441807	-0.402334
N98	N	0.807782	-0.481379	-0.438279
