data_functionalizedCrystal
_audit_creation_method	'MofGen! by Chris Wilmer'
_symmetry_space_group_name_H-M	'P1'
_symmetry_Int_Tables_number	1
_symmetry_cell_setting	triclinic
loop_
_symmetry_equiv_pos_as_xyz
  x,y,z
_cell_length_a	10.685972
_cell_length_b	10.686551
_cell_length_c	12.645330
_cell_angle_alpha	85.596656
_cell_angle_beta	85.636602
_cell_angle_gamma	98.409768
loop_
_atom_site_label
_atom_site_type_symbol
_atom_site_fract_x
_atom_site_fract_y
_atom_site_fract_z
Zn1	Zn	-1.995876	-0.866777	-0.237655
Zn2	Zn	-1.495876	-0.366777	0.262345
Zn3	Zn	-1.979522	-0.654533	-0.429696
Zn4	Zn	-1.479522	-0.154533	0.070304
Zn5	Zn	-1.767313	-0.638239	-0.267154
Zn6	Zn	-1.267313	-0.138239	0.232846
Zn7	Zn	-1.783645	-0.850439	-0.429588
Zn8	Zn	-1.283645	-0.350439	0.070412
O9	O	-1.881589	-0.752497	-0.341023
O10	O	-1.381589	-0.252497	0.158977
O11	O	-2.171336	-0.852279	-0.250830
O12	O	-1.671336	-0.352279	0.249170
O13	O	-1.937693	-0.474741	-0.420525
O14	O	-1.437693	0.025259	0.079475
O15	O	-1.797642	-0.668573	-0.114892
O16	O	-1.297642	-0.168573	0.385108
O17	O	-2.159321	-0.696345	-0.391922
O18	O	-1.659321	-0.196345	0.108078
O19	O	-1.965566	-0.836479	-0.093219
O20	O	-1.465566	-0.336479	0.406781
O21	O	-1.781784	-0.462769	-0.301106
O22	O	-1.281784	0.037231	0.198894
O23	O	-1.591850	-0.652731	-0.301001
O24	O	-1.091850	-0.152731	0.198999
O25	O	-1.825477	-1.030237	-0.391737
O26	O	-1.325477	-0.530237	0.108263
O27	O	-1.603849	-0.808633	-0.420340
O28	O	-1.103849	-0.308633	0.079660
O29	O	-1.981403	-1.042240	-0.250725
O30	O	-1.481403	-0.542240	0.249275
O31	O	-1.953529	-0.680503	-0.578031
O32	O	-1.453529	-0.180503	-0.078031
O33	O	-1.809619	-0.824434	-0.577951
O34	O	-1.309619	-0.324434	-0.077951
C35	C	-1.551793	-0.727142	-0.363860
C36	C	-1.051793	-0.227142	0.136140
C37	C	-1.410706	-0.716325	-0.373654
C38	C	-0.910706	-0.216325	0.126346
C39	C	-1.907086	-1.083584	-0.317929
C40	C	-1.407086	-0.583584	0.182071
C41	C	-1.917951	-1.224674	-0.308087
C42	C	-1.417951	-0.724674	0.191913
C43	C	-1.881608	-0.752494	-0.616452
C44	C	-1.381608	-0.252494	-0.116452
C45	C	-1.881736	-0.752544	-0.734271
C46	C	-1.381736	-0.252544	-0.234271
C47	C	-1.212673	-0.777946	-0.318091
C48	C	-0.712673	-0.277946	0.181909
C49	C	-1.353760	-0.788775	-0.308302
C50	C	-0.853760	-0.288775	0.191698
C51	C	-1.856264	-0.422703	-0.363946
C52	C	-1.356264	0.077297	0.136054
C53	C	-1.845645	-0.281633	-0.373472
C54	C	-1.345645	0.218367	0.126528
C55	C	-1.881607	-0.752531	-0.064515
C56	C	-1.381607	-0.252531	0.435485
C57	C	-1.881614	-0.752545	0.053317
C58	C	-1.381614	-0.252545	0.553317
C59	C	-1.776371	-0.646595	0.207252
C60	C	-1.276371	-0.146595	0.707252
C61	C	-1.775937	-0.646855	0.084681
C62	C	-1.275937	-0.146855	0.584681
C63	C	-1.855612	-0.883504	0.104653
C64	C	-1.355612	-0.383504	0.604653
C65	C	-1.854928	-0.882878	0.227167
C66	C	-1.354928	-0.382878	0.727167
C67	C	-2.013411	-0.728723	0.227419
C68	C	-1.513411	-0.228723	0.727419
C69	C	-2.012405	-0.725716	0.104553
C70	C	-1.512405	-0.225716	0.604553
H71	H	-1.775432	-1.222460	-0.436983
H72	H	-1.275432	-0.722460	0.063017
F73	F	-1.431112	-0.880667	-0.225367
F74	F	-0.931112	-0.380667	0.274633
H75	H	-1.758979	-0.904271	0.251014
H76	H	-1.258979	-0.404271	0.751014
H77	H	-1.351518	-0.646011	-0.437101
H78	H	-0.851518	-0.146011	0.062899
H79	H	-1.928892	-0.963951	0.266838
H80	H	-1.428892	-0.463951	0.766838
F81	F	-2.046996	-0.606756	0.262060
F82	F	-1.546996	-0.106756	0.762060
H83	H	-1.988178	-1.283854	-0.244579
H84	H	-1.488178	-0.783854	0.255421
H85	H	-1.791021	-0.549423	0.049234
H86	H	-1.291021	-0.049423	0.549234
H87	H	-1.791196	-0.548833	0.231340
H88	H	-1.291196	-0.048833	0.731340
F89	F	-1.649290	-0.665828	0.240635
F90	F	-1.149290	-0.165828	0.740635
H91	H	-1.678133	-0.661798	0.050066
H92	H	-1.178133	-0.161798	0.550066
H93	H	-1.930395	-0.964133	0.085534
H94	H	-1.430395	-0.464133	0.585534
H95	H	-1.760744	-0.905489	0.069308
H96	H	-1.260744	-0.405489	0.569308
H97	H	-2.032200	-0.629390	0.070485
H98	H	-1.532200	-0.129390	0.570485
F99	F	-2.119379	-0.820304	0.077514
F100	F	-1.619379	-0.320304	0.577514
H101	H	-2.091787	-0.806013	0.266467
H102	H	-1.591787	-0.306013	0.766467
