data_functionalizedCrystal
_audit_creation_method	'MofGen! by Chris Wilmer'
_symmetry_space_group_name_H-M	'P1'
_symmetry_Int_Tables_number	1
_symmetry_cell_setting	triclinic
loop_
_symmetry_equiv_pos_as_xyz
  x,y,z
_cell_length_a	14.971482
_cell_length_b	10.654550
_cell_length_c	14.048226
_cell_angle_alpha	90.006871
_cell_angle_beta	90.005902
_cell_angle_gamma	84.048776
loop_
_atom_site_label
_atom_site_type_symbol
_atom_site_fract_x
_atom_site_fract_y
_atom_site_fract_z
O1	O	1.187840	0.163637	0.079149
O2	O	0.927546	0.183240	0.079154
O3	O	1.063677	-0.009365	0.079144
O4	O	1.051708	0.356242	0.079159
O5	O	1.063661	-0.009377	-0.079177
O6	O	0.927529	0.183229	-0.079167
O7	O	1.187823	0.163625	-0.079172
Zn8	Zn	1.057673	0.173425	-0.104307
Zn9	Zn	1.057695	0.173440	0.104289
O10	O	1.051691	0.356231	-0.079162
C11	C	0.894208	0.182359	-0.000006
C12	C	0.794896	0.179734	-0.000004
C13	C	1.062790	-0.056159	-0.000016
C14	C	1.060161	-0.195574	-0.000016
C15	C	0.748236	0.178491	-0.086306
C16	C	0.654924	0.176005	-0.086308
C17	C	0.608273	0.174770	-0.000006
C18	C	0.654940	0.176009	0.086303
C19	C	0.748252	0.178486	0.086303
C20	C	0.460450	0.170849	0.086297
C21	C	0.367133	0.168374	0.086297
C22	C	0.367123	0.168368	-0.086314
C23	C	0.460434	0.170845	-0.086314
C24	C	0.507094	0.172086	-0.000005
C25	C	1.056439	-0.392094	-0.086301
C26	C	1.058913	-0.261099	-0.086313
C27	C	1.058926	-0.261049	0.086298
C28	C	1.056447	-0.392041	0.086309
C29	C	1.056435	-0.392122	-0.185956
C30	C	1.058908	-0.261127	-0.185968
C31	C	1.221161	0.164507	-0.000010
C32	C	1.320472	0.167132	-0.000005
C33	C	1.052579	0.403025	0.000001
C34	C	1.055208	0.542440	0.000006
N35	N	1.057665	0.173414	-0.246667
C36	C	1.117963	0.088164	-0.296490
C37	C	1.117969	0.088163	-0.396147
C38	C	1.057681	0.173420	-0.445981
C39	C	0.997376	0.258674	-0.396151
C40	C	0.997366	0.258668	-0.296495
C41	C	0.997402	0.258683	-0.603866
C42	C	0.997412	0.258692	-0.703528
C43	C	1.118005	0.088179	-0.703517
C44	C	1.117995	0.088172	-0.603862
C45	C	1.057691	0.173429	-0.554039
N46	N	1.057711	0.173441	0.246649
H47	H	0.786211	0.179507	-0.156584
F48	F	0.317462	0.167047	-0.178171
H49	H	0.948293	0.328104	-0.563303
F50	F	0.973883	-0.423697	-0.235964
H51	H	0.498439	0.171860	0.156579
H52	H	0.616939	0.174973	-0.156583
H53	H	1.120132	-0.444530	-0.216875
H54	H	1.122063	-0.236994	-0.224233
H55	H	0.995203	-0.208740	-0.216896
F56	F	1.182185	-0.002555	-0.756546
H57	H	0.498414	0.171858	-0.156589
H58	H	0.329152	0.167369	0.156572
H59	H	1.167091	0.018756	-0.563287
F60	F	0.605292	0.174656	0.178152
H61	H	0.786241	0.179500	0.156579
F62	F	0.933243	0.349432	-0.756558
F63	F	1.055122	-0.461708	0.178168
H64	H	1.167068	0.018745	-0.436712
F65	F	0.933207	0.349406	-0.449188
F66	F	0.933185	0.349400	-0.243472
F67	F	1.060252	-0.191309	0.178142
F68	F	1.182137	-0.002574	-0.243463
