data_functionalizedCrystal
_audit_creation_method	'MofGen! by Chris Wilmer'
_symmetry_space_group_name_H-M	'P1'
_symmetry_Int_Tables_number	1
_symmetry_cell_setting	triclinic
loop_
_symmetry_equiv_pos_as_xyz
  x,y,z
_cell_length_a	6.817900
_cell_length_b	9.582880
_cell_length_c	9.582889
_cell_angle_alpha	89.899755
_cell_angle_beta	111.207298
_cell_angle_gamma	111.207034
loop_
_atom_site_label
_atom_site_type_symbol
_atom_site_fract_x
_atom_site_fract_y
_atom_site_fract_z
V1	V	4.156354	0.466328	0.206425
V2	V	4.489688	0.799661	0.539758
V3	V	4.823021	1.132995	0.873091
O4	O	4.100353	0.457733	-0.010569
O5	O	4.433686	0.791066	0.322764
O6	O	4.767019	1.124400	0.656097
O7	O	4.146464	0.462868	0.409930
O8	O	4.479797	0.796201	0.743264
O9	O	4.813130	1.129534	1.076597
O10	O	4.146462	0.669834	0.202964
O11	O	4.479796	1.003167	0.536298
O12	O	4.813129	1.336500	0.869631
O13	O	4.100354	0.249334	0.197829
O14	O	4.433687	0.582668	0.531163
O15	O	4.767021	0.916001	0.864496
V16	V	4.630003	0.440407	0.180503
V17	V	4.963336	0.773740	0.513837
V18	V	5.296669	1.107074	0.847170
O19	O	4.439274	0.523189	0.263285
O20	O	4.772607	0.856522	0.596619
O21	O	5.105940	1.189855	0.929952
O22	O	4.797280	0.383546	0.123643
O23	O	5.130614	0.716880	0.456976
O24	O	5.463947	1.050213	0.790310
O25	O	4.416687	0.443867	-0.023002
O26	O	4.750020	0.777201	0.310331
O27	O	5.083353	1.110534	0.643664
O28	O	4.803401	0.449002	0.397497
O29	O	5.136735	0.782335	0.730831
O30	O	5.470068	1.115669	1.064164
O31	O	4.803400	0.657401	0.189099
O32	O	5.136733	0.990734	0.522432
O33	O	5.470067	1.324067	0.855765
O34	O	4.416688	0.236901	0.183964
O35	O	4.750021	0.570235	0.517297
O36	O	5.083355	0.903568	0.850630
C37	C	3.999583	0.719445	0.195542
C38	C	4.332917	1.052778	0.528875
C39	C	4.666250	1.386112	0.862209
C40	C	4.073034	0.885810	0.194059
C41	C	4.406367	1.219143	0.527393
C42	C	4.739700	1.552477	0.860726
C43	C	4.226906	0.451290	-0.072614
C44	C	4.560240	0.784623	0.260720
C45	C	4.893573	1.117956	0.594053
C46	C	4.132690	0.452772	-0.238979
C47	C	4.466024	0.786106	0.094354
C48	C	4.799357	1.119439	0.427688
C49	C	3.999587	0.455441	0.459550
C50	C	4.332920	0.788774	0.792883
C51	C	4.666253	1.122108	1.126216
C52	C	4.073043	0.453968	0.625916
C53	C	4.406377	0.787302	0.959250
C54	C	4.739710	1.120635	1.292583
C55	C	4.226909	0.187282	0.191391
C56	C	4.560242	0.520616	0.524724
C57	C	4.893575	0.853949	0.858058
C58	C	4.132695	0.020916	0.192866
C59	C	4.466028	0.354249	0.526199
C60	C	4.799362	0.687582	0.859533
