data_functionalizedCrystal
_audit_creation_method	'MofGen! by Chris Wilmer'
_symmetry_space_group_name_H-M	'P1'
_symmetry_Int_Tables_number	1
_symmetry_cell_setting	triclinic
loop_
_symmetry_equiv_pos_as_xyz
  x,y,z
_cell_length_a	16.109301
_cell_length_b	16.109301
_cell_length_c	15.186229
_cell_angle_alpha	90.007249
_cell_angle_beta	90.002208
_cell_angle_gamma	96.538519
loop_
_atom_site_label
_atom_site_type_symbol
_atom_site_fract_x
_atom_site_fract_y
_atom_site_fract_z
O1	O	-1.103127	0.106869	0.073176
O2	O	-0.861065	0.120168	0.073190
O3	O	-0.988746	-0.007512	0.073174
O4	O	-0.975446	0.234550	0.073192
O5	O	-0.988745	-0.007520	-0.073284
O6	O	-0.861064	0.120161	-0.073267
O7	O	-1.103126	0.106861	-0.073282
Zn8	Zn	-0.982095	0.113510	-0.096528
Zn9	Zn	-0.982096	0.113520	0.096436
O10	O	-0.975445	0.234542	-0.073265
C11	C	-0.988206	-0.038491	-0.000056
C12	C	-0.986591	-0.130786	-0.000057
C13	C	-0.830090	0.119626	-0.000037
C14	C	-0.737794	0.118011	-0.000032
C15	C	-1.058599	-0.353059	-0.000047
C16	C	-1.057075	-0.439779	-0.000040
C17	C	-0.905586	-0.419905	-0.000034
C18	C	-0.907111	-0.333186	-0.000035
C19	C	-0.983620	-0.299766	-0.000046
C20	C	-0.980571	-0.473205	-0.000038
C21	C	-0.978918	-0.567231	-0.000030
C22	C	-0.985273	-0.205734	-0.000052
C23	C	-1.134101	0.107404	-0.000053
C24	C	-1.226397	0.109019	-0.000052
C25	C	-0.515522	0.190018	-0.000036
C26	C	-0.428801	0.188494	-0.000042
C27	C	-0.448676	0.037006	-0.000050
C28	C	-0.535394	0.038530	-0.000051
C29	C	-0.568815	0.115039	-0.000039
C30	C	-0.395376	0.111990	-0.000045
C31	C	-0.301350	0.110337	-0.000051
C32	C	-0.662847	0.116693	-0.000035
C33	C	-0.975984	0.265521	-0.000034
C34	C	-0.977600	0.357816	-0.000027
N35	N	-0.982097	0.113521	0.228129
N36	N	-0.982100	0.113502	-0.228220
C37	C	-1.038743	0.057093	0.453844
C38	C	-1.038746	0.057091	0.546034
C39	C	-0.925451	0.169936	0.546058
C40	C	-0.925453	0.169942	0.453870
C41	C	-0.982099	0.113515	0.407765
C42	C	-0.982099	0.113508	0.592143
C43	C	-0.982101	0.113506	0.692099
C44	C	-0.982098	0.113518	0.307803
H45	H	-1.120897	-0.325851	-0.000054
O46	O	-1.137944	-0.497263	-0.000052
H47	H	-1.191398	-0.459451	-0.000068
O48	O	-0.864369	0.230824	0.404173
H49	H	-0.799590	0.220097	0.421850
O50	O	-0.864353	0.230777	0.595800
H51	H	-0.874795	0.295635	0.578136
O52	O	-0.826234	-0.275700	-0.000045
H53	H	-0.789613	-0.287574	0.059644
O54	O	-1.099833	-0.003778	0.595730
H55	H	-1.090321	0.005697	0.667580
H56	H	-0.843295	-0.447127	-0.000027
H57	H	-1.084869	0.011148	0.416308
O58	O	-0.551573	0.272534	-0.000042
H59	H	-0.499942	0.324415	-0.000053
O60	O	-0.371318	0.269364	-0.000036
H61	H	-0.409130	0.322817	-0.000023
H62	H	-0.578788	-0.022530	-0.000056
O63	O	-0.412631	-0.045513	-0.000056
H64	H	-0.343376	-0.033979	-0.000047
