data_functionalizedCrystal
_audit_creation_method	'MofGen! by Chris Wilmer'
_symmetry_space_group_name_H-M	'P1'
_symmetry_Int_Tables_number	1
_symmetry_cell_setting	triclinic
loop_
_symmetry_equiv_pos_as_xyz
  x,y,z
_cell_length_a	17.000383
_cell_length_b	17.019361
_cell_length_c	13.448316
_cell_angle_alpha	86.129502
_cell_angle_beta	89.995171
_cell_angle_gamma	100.493211
loop_
_atom_site_label
_atom_site_type_symbol
_atom_site_fract_x
_atom_site_fract_y
_atom_site_fract_z
O1	O	1.056064	-0.028440	-0.080326
O2	O	1.389397	0.304893	0.253007
O3	O	1.722730	0.638227	0.586341
O4	O	0.824299	-0.057069	-0.077863
O5	O	1.157632	0.276264	0.255471
O6	O	1.490966	0.609597	0.588804
O7	O	0.946647	0.072524	-0.088954
O8	O	1.279980	0.405858	0.244379
O9	O	1.613314	0.739191	0.577712
O10	O	0.933716	-0.158034	-0.069234
O11	O	1.267049	0.175300	0.264099
O12	O	1.600382	0.508633	0.597432
O13	O	0.946644	0.072534	0.076429
O14	O	1.279978	0.405868	0.409762
O15	O	1.613311	0.739201	0.743095
O16	O	0.824296	-0.057059	0.087520
O17	O	1.157630	0.276274	0.420854
O18	O	1.490963	0.609607	0.754187
O19	O	1.056061	-0.028430	0.085057
O20	O	1.389394	0.304904	0.418390
O21	O	1.722728	0.638237	0.751724
Cu22	Cu	0.940179	-0.042744	0.101389
Cu23	Cu	1.273512	0.290590	0.434723
Cu24	Cu	1.606845	0.623923	0.768056
Cu25	Cu	0.940182	-0.042756	-0.094195
Cu26	Cu	1.273515	0.290578	0.239138
Cu27	Cu	1.606848	0.623911	0.572472
O28	O	0.933713	-0.158024	0.096149
O29	O	1.267047	0.175310	0.429482
O30	O	1.600380	0.508643	0.762815
C31	C	0.794642	-0.058602	0.004962
C32	C	1.127976	0.274731	0.338295
C33	C	1.461309	0.608065	0.671629
C34	C	0.706279	-0.063174	0.005358
C35	C	1.039612	0.270159	0.338692
C36	C	1.372945	0.603493	0.672025
C37	C	0.206028	-0.092697	0.007847
C38	C	0.539362	0.240636	0.341180
C39	C	0.872695	0.573970	0.674513
C40	C	0.289056	-0.088395	0.007479
C41	C	0.622389	0.244938	0.340813
C42	C	0.955723	0.578272	0.674146
C43	C	0.340136	-0.013720	0.001100
C44	C	0.673469	0.319613	0.334433
C45	C	1.006802	0.652947	0.667766
C46	C	0.308184	0.056657	-0.004923
C47	C	0.641517	0.389990	0.328410
C48	C	0.974851	0.723324	0.661744
C49	C	0.225157	0.052354	-0.004563
C50	C	0.558491	0.385687	0.328770
C51	C	0.891824	0.719021	0.662104
C52	C	0.591300	0.002900	-0.000304
C53	C	0.924634	0.336234	0.333029
C54	C	1.257967	0.669567	0.666362
C55	C	0.674332	0.007198	-0.000661
C56	C	1.007665	0.340531	0.332672
C57	C	1.340999	0.673865	0.666006
C58	C	0.655198	-0.137855	0.011740
C59	C	0.988532	0.195479	0.345073
C60	C	1.321865	0.528812	0.678406
C61	C	0.572171	-0.142151	0.012105
C62	C	0.905505	0.191182	0.345439
C63	C	1.238838	0.524516	0.678772
C64	C	0.540227	-0.071774	0.006077
C65	C	0.873560	0.261559	0.339410
C66	C	1.206893	0.594893	0.672744
C67	C	0.425004	-0.009321	0.000727
C68	C	0.758337	0.324013	0.334061
C69	C	1.091670	0.657346	0.667394
C70	C	0.455360	-0.076174	0.006442
C71	C	0.788693	0.257159	0.339776
C72	C	1.122027	0.590493	0.673109
C73	C	0.946155	0.101884	-0.008776
C74	C	1.279489	0.435217	0.324558
C75	C	1.612822	0.768551	0.657891
C76	C	0.944685	0.189351	-0.016263
C77	C	1.278018	0.522684	0.317070
C78	C	1.611351	0.856017	0.650404
C79	C	1.085718	-0.026897	0.002230
C80	C	1.419051	0.306436	0.335563
C81	C	1.752385	0.639769	0.668897
C82	C	1.174081	-0.022325	0.001827
C83	C	1.507415	0.311008	0.335160
C84	C	1.840748	0.644341	0.668494
N85	N	0.940184	-0.042758	-0.231759
N86	N	1.273518	0.290575	0.101574
N87	N	1.606851	0.623908	0.434908
C88	C	0.943990	0.230455	0.070365
C89	C	1.277324	0.563789	0.403699
C90	C	1.610657	0.897122	0.737032
C91	C	0.942614	0.312641	0.063322
C92	C	1.275947	0.645974	0.396655
C93	C	1.609280	0.979307	0.729988
C94	C	0.941925	0.353719	-0.030351
C95	C	1.275259	0.687052	0.302982
C96	C	1.608592	1.020385	0.636315
C97	C	0.942622	0.312609	-0.116986
C98	C	1.275955	0.645942	0.216347
C99	C	1.609289	0.979276	0.549681
C100	C	0.944005	0.230426	-0.109942
C101	C	1.277338	0.563760	0.223392
C102	C	1.610671	0.897093	0.556725
C103	C	0.937756	0.601858	-0.056132
C104	C	1.271090	0.935191	0.277202
C105	C	1.604423	1.268524	0.610535
C106	C	0.936371	0.684046	-0.063170
C107	C	1.269705	1.017379	0.270164
C108	C	1.603038	1.350712	0.603497
C109	C	0.936364	0.684072	0.117139
C110	C	1.269698	1.017405	0.450472
C111	C	1.603031	1.350739	0.783806
C112	C	0.937742	0.601887	0.124175
C113	C	1.271075	0.935220	0.457509
C114	C	1.604409	1.268553	0.790842
C115	C	0.938443	0.560785	0.037540
C116	C	1.271776	0.894118	0.370874
C117	C	1.605110	1.227452	0.704207
C118	C	0.940515	0.437725	-0.037553
C119	C	1.273849	0.771058	0.295780
C120	C	1.607182	1.104392	0.629113
C121	C	0.939859	0.476782	0.044743
C122	C	1.273192	0.810115	0.378077
C123	C	1.606525	1.143448	0.711410
C124	C	0.934205	0.812617	0.015970
C125	C	1.267539	1.145950	0.349304
C126	C	1.600872	1.479284	0.682637
C127	C	0.935677	0.725150	0.023459
C128	C	1.269010	1.058484	0.356792
C129	C	1.602344	1.391817	0.690125
C130	C	0.994461	0.014527	-0.288703
C131	C	1.327794	0.347860	0.044631
C132	C	1.661127	0.681194	0.377964
C133	C	0.994464	0.014530	-0.392806
C134	C	1.327797	0.347863	-0.059473
C135	C	1.661131	0.681196	0.273861
C136	C	0.940187	-0.042751	-0.439964
C137	C	1.273520	0.290583	-0.106631
C138	C	1.606853	0.623916	0.226702
C139	C	0.885908	-0.100042	-0.383013
C140	C	1.219241	0.233291	-0.049680
C141	C	1.552574	0.566625	0.283653
C142	C	0.885909	-0.100047	-0.278911
C143	C	1.219242	0.233286	0.054422
C144	C	1.552575	0.566619	0.387755
C145	C	0.885908	-0.100026	-0.599995
C146	C	1.219241	0.233308	-0.266661
C147	C	1.552575	0.566641	0.066672
C148	C	0.885906	-0.100020	-0.704104
C149	C	1.219239	0.233314	-0.370770
C150	C	1.552572	0.566647	-0.037437
C151	C	0.994463	0.014551	-0.713889
C152	C	1.327797	0.347885	-0.380556
C153	C	1.661130	0.681218	-0.047223
C154	C	0.994464	0.014546	-0.609787
C155	C	1.327798	0.347879	-0.276454
C156	C	1.661131	0.681213	0.056879
C157	C	0.940184	-0.042745	-0.552844
C158	C	1.273518	0.290589	-0.219510
C159	C	1.606851	0.623922	0.113823
N160	N	0.940182	-0.042734	0.238953
N161	N	1.273515	0.290599	0.572286
N162	N	1.606849	0.623932	0.905620
H163	H	0.530587	-0.202959	0.017297
H164	H	0.863920	0.130374	0.350631
H165	H	1.197253	0.463707	0.683964
H166	H	0.199148	0.109659	-0.009467
H167	H	0.532482	0.442992	0.323867
H168	H	0.865815	0.776325	0.657200
H169	H	0.315063	-0.145699	0.012372
H170	H	0.648396	0.187634	0.345705
H171	H	0.981729	0.520967	0.679038
H172	H	0.466602	0.051480	-0.004463
H173	H	0.799935	0.384813	0.328870
H174	H	1.133269	0.718146	0.662203
H175	H	0.841710	-0.146680	-0.553634
H176	H	1.175043	0.186653	-0.220300
H177	H	1.508376	0.519986	0.113033
F178	F	0.400996	-0.155646	0.013226
F179	F	0.734330	0.177687	0.346559
F180	F	1.067663	0.511021	0.679892
F181	F	0.944747	0.186681	-0.202144
F182	F	1.278080	0.520014	0.131190
F183	F	1.611413	0.853348	0.464523
F184	F	0.941873	0.356383	0.155524
F185	F	1.275207	0.689717	0.488857
F186	F	1.608540	1.023050	0.822191
F187	F	1.052232	0.075498	-0.453410
F188	F	1.385565	0.408832	-0.120076
F189	F	1.718899	0.742165	0.213257
F190	F	0.938499	0.558124	-0.148337
F191	F	1.271833	0.891457	0.184996
F192	F	1.605166	1.224791	0.518329
F193	F	0.935619	0.727821	0.209335
F194	F	1.268953	1.061155	0.542669
F195	F	1.602286	1.394488	0.876002
F196	F	1.052227	0.075513	-0.559598
F197	F	1.385560	0.408847	-0.226265
F198	F	1.718894	0.742180	0.107069
F199	F	0.689203	-0.212750	0.018149
F200	F	1.022536	0.120584	0.351483
F201	F	1.355869	0.453917	0.684816
F202	F	0.728694	0.086681	-0.007452
F203	F	1.062028	0.420014	0.325881
F204	F	1.395361	0.753347	0.659214
F205	F	0.940595	0.433063	0.144434
F206	F	1.273929	0.766396	0.477767
F207	F	1.607262	1.099729	0.811100
F208	F	0.939787	0.481451	-0.137245
F209	F	1.273120	0.814785	0.196089
F210	F	1.606454	1.148118	0.529422
H211	H	0.938320	0.568450	0.200453
H212	H	1.271653	0.901783	0.533787
H213	H	1.604986	1.235117	0.867120
F214	F	1.052231	0.075524	-0.774497
F215	F	1.385564	0.408858	-0.441164
F216	F	1.718898	0.742191	-0.107830
H217	H	0.565302	0.060206	-0.005210
H218	H	0.898635	0.393540	0.328123
H219	H	1.231968	0.726873	0.661457
H220	H	0.944537	0.197013	0.146644
H221	H	1.277871	0.530346	0.479978
H222	H	1.611204	0.863679	0.813311
H223	H	0.942067	0.346062	-0.193257
H224	H	1.275400	0.679396	0.140076
H225	H	1.608733	1.012729	0.473410
F226	F	0.362549	0.136132	-0.011716
F227	F	0.695882	0.469465	0.321617
F228	F	1.029216	0.802799	0.654950
H229	H	0.935803	0.717488	-0.139453
H230	H	1.269136	1.050821	0.193880
H231	H	1.602470	1.384154	0.527213
H232	H	1.038656	0.061174	-0.250314
H233	H	1.371990	0.394508	0.083020
H234	H	1.705323	0.727841	0.416353
F235	F	0.828137	-0.160987	-0.754286
F236	F	1.161470	0.172347	-0.420952
F237	F	1.494804	0.505680	-0.087619
H238	H	0.841717	-0.146684	-0.421415
H239	H	1.175050	0.186649	-0.088082
H240	H	1.508383	0.519982	0.245251
H241	H	0.841712	-0.146696	-0.232548
H242	H	1.175046	0.186637	0.100785
H243	H	1.508379	0.519971	0.434118
H244	H	0.164444	-0.153506	0.013049
H245	H	0.497777	0.179828	0.346382
H246	H	0.831111	0.513161	0.679716
