data_functionalizedCrystal
_audit_creation_method	'MofGen! by Chris Wilmer'
_symmetry_space_group_name_H-M	'P1'
_symmetry_Int_Tables_number	1
_symmetry_cell_setting	triclinic
loop_
_symmetry_equiv_pos_as_xyz
  x,y,z
_cell_length_a	16.109301
_cell_length_b	14.421503
_cell_length_c	16.109301
_cell_angle_alpha	90.000142
_cell_angle_beta	96.538519
_cell_angle_gamma	89.990199
loop_
_atom_site_label
_atom_site_type_symbol
_atom_site_fract_x
_atom_site_fract_y
_atom_site_fract_z
O1	O	1.103119	0.077056	-0.106861
O2	O	1.603119	0.577056	0.393139
O3	O	0.861057	0.077071	-0.120160
O4	O	1.361057	0.577071	0.379840
O5	O	0.988737	0.077054	0.007520
O6	O	1.488737	0.577054	0.507520
O7	O	0.975438	0.077073	-0.234542
O8	O	1.475438	0.577073	0.265458
O9	O	0.988753	-0.077170	0.007512
O10	O	1.488753	0.422830	0.507512
O11	O	0.861072	-0.077152	-0.120169
O12	O	1.361072	0.422848	0.379831
O13	O	1.103134	-0.077167	-0.106869
O14	O	1.603134	0.422833	0.393131
Cu15	Cu	0.982105	-0.091242	-0.113520
Cu16	Cu	1.482105	0.408758	0.386480
Cu17	Cu	0.982086	0.091145	-0.113510
Cu18	Cu	1.482086	0.591145	0.386490
O19	O	0.975453	-0.077150	-0.234550
O20	O	1.475453	0.422850	0.265450
C21	C	0.830090	-0.000039	-0.119626
C22	C	1.330090	0.499961	0.380374
C23	C	0.737794	-0.000033	-0.118011
C24	C	1.237794	0.499967	0.381989
N25	N	0.982124	-0.219523	-0.113526
N26	N	1.482124	0.280477	0.386474
C27	C	0.515522	-0.000038	-0.190018
C28	C	1.015522	0.499962	0.309982
C29	C	0.428801	-0.000044	-0.188494
C30	C	0.928801	0.499956	0.311506
C31	C	0.448676	-0.000053	-0.037006
C32	C	0.948676	0.499947	0.462994
C33	C	0.535394	-0.000053	-0.038530
C34	C	1.035394	0.499947	0.461470
C35	C	0.568815	-0.000041	-0.115039
C36	C	1.068815	0.499959	0.384961
C37	C	0.395376	-0.000047	-0.111990
C38	C	0.895376	0.499953	0.388010
C39	C	0.301350	-0.000053	-0.110337
C40	C	0.801350	0.499947	0.389663
C41	C	0.662847	-0.000037	-0.116693
C42	C	1.162847	0.499963	0.383307
C43	C	1.041176	-0.469160	-0.054474
C44	C	1.541176	0.030840	0.445526
C45	C	0.966055	-0.530954	-0.038347
C46	C	1.466055	-0.030954	0.461653
C47	C	0.982105	-0.408684	-0.113516
C48	C	1.482105	0.091316	0.386484
C49	C	1.057208	-0.530985	-0.129594
C50	C	1.557208	-0.030985	0.370406
C51	C	0.982094	-0.591406	-0.113504
C52	C	1.482094	-0.091406	0.386496
C53	C	0.906946	-0.469117	-0.097353
C54	C	1.406946	0.030883	0.402647
C55	C	0.998149	-0.469143	-0.188632
C56	C	1.498149	0.030857	0.311368
C57	C	0.922974	-0.530909	-0.172537
C58	C	1.422974	-0.030909	0.327463
C59	C	0.982113	-0.303423	-0.113521
C60	C	1.482113	0.196577	0.386479
C61	C	0.982078	-0.696665	-0.113500
C62	C	1.482078	-0.196665	0.386500
C63	C	1.134101	-0.000056	-0.107404
C64	C	1.634101	0.499944	0.392596
C65	C	1.226397	-0.000055	-0.109019
C66	C	1.726397	0.499945	0.390981
C67	C	0.988206	-0.000058	0.038491
C68	C	1.488206	0.499942	0.538491
C69	C	0.986591	-0.000060	0.130786
C70	C	1.486591	0.499940	0.630786
N71	N	0.982074	0.219427	-0.113497
N72	N	1.482074	0.719427	0.386503
C73	C	0.975984	-0.000036	-0.265521
C74	C	1.475984	0.499964	0.234479
C75	C	0.977600	-0.000029	-0.357816
C76	C	1.477600	0.499971	0.142184
C77	C	1.058599	-0.000049	0.353059
C78	C	1.558599	0.499951	0.853059
C79	C	1.057075	-0.000042	0.439779
C80	C	1.557075	0.499958	0.939779
C81	C	0.905586	-0.000036	0.419905
C82	C	1.405586	0.499964	0.919905
C83	C	0.907111	-0.000037	0.333186
C84	C	1.407111	0.499963	0.833186
C85	C	0.983620	-0.000049	0.299766
C86	C	1.483620	0.499951	0.799766
C87	C	0.980571	-0.000040	0.473205
C88	C	1.480571	0.499960	0.973205
C89	C	0.978918	-0.000031	0.567231
C90	C	1.478918	0.499969	1.067231
C91	C	0.985273	-0.000055	0.205734
C92	C	1.485273	0.499945	0.705734
H93	H	0.542730	-0.000035	-0.252317
H94	H	1.042730	0.499965	0.247683
H95	H	0.578788	-0.000059	0.022530
H96	H	1.078788	0.499941	0.522530
H97	H	0.385413	-0.000044	-0.249550
H98	H	0.885413	0.499956	0.250450
H99	H	1.120726	-0.558160	-0.143198
H100	H	1.620726	-0.058160	0.356802
H101	H	1.118130	-0.000041	0.483168
H102	H	1.618130	0.499959	0.983168
N103	N	0.948069	-0.566927	0.045800
N104	N	1.448069	-0.066927	0.545800
H105	H	0.947659	-0.636955	0.045009
H106	H	1.447659	-0.136955	0.545009
H107	H	0.891783	-0.543390	0.058362
H108	H	1.391783	-0.043390	0.558362
H109	H	0.843295	-0.000028	0.447127
H110	H	1.343295	0.499972	0.947127
N111	N	0.826241	-0.000036	0.275692
N112	N	1.326241	0.499964	0.775692
H113	H	0.792852	0.057135	0.286436
H114	H	1.292852	0.557135	0.786436
H115	H	0.792933	-0.057244	0.286462
H116	H	1.292933	0.442756	0.786462
N117	N	0.412629	-0.000070	0.045511
N118	N	0.912629	0.499930	0.545511
H119	H	0.349606	-0.000069	0.035102
H120	H	0.849606	0.499931	0.535102
H121	H	0.432118	0.057098	0.078326
H122	H	0.932118	0.557098	0.578326
H123	H	1.120897	-0.000057	0.325851
H124	H	1.620897	0.499943	0.825851
H125	H	1.091077	-0.442046	-0.004515
H126	H	1.591077	0.057954	0.495485
N127	N	0.822788	-0.433283	-0.079235
N128	N	1.322788	0.066717	0.420765
H129	H	0.823319	-0.363252	-0.079326
H130	H	1.323319	0.136748	0.420674
H131	H	0.810579	-0.456381	-0.022696
H132	H	1.310579	0.043619	0.477304
N133	N	0.856733	-0.566603	-0.238676
N134	N	1.356733	-0.066603	0.261324
H135	H	0.800055	-0.543975	-0.226417
H136	H	1.300055	-0.043975	0.273583
H137	H	0.857486	-0.636630	-0.238605
H138	H	1.357486	-0.136630	0.261395
H139	H	1.011753	-0.441972	-0.252140
H140	H	1.511753	0.058028	0.247860
