data_functionalizedCrystal
_audit_creation_method	'MofGen! by Chris Wilmer'
_symmetry_space_group_name_H-M	'P1'
_symmetry_Int_Tables_number	1
_symmetry_cell_setting	triclinic
loop_
_symmetry_equiv_pos_as_xyz
  x,y,z
_cell_length_a	10.723024
_cell_length_b	16.992695
_cell_length_c	15.455313
_cell_angle_alpha	87.142836
_cell_angle_beta	87.296187
_cell_angle_gamma	92.431954
loop_
_atom_site_label
_atom_site_type_symbol
_atom_site_fract_x
_atom_site_fract_y
_atom_site_fract_z
O1	O	1.661523	-0.113435	0.072127
O2	O	2.161523	0.386565	0.572127
O3	O	1.299277	-0.123968	0.072130
O4	O	1.799277	0.376032	0.572130
O5	O	1.478948	-0.004551	0.072121
O6	O	1.978948	0.495449	0.572121
O7	O	1.481851	-0.232852	0.072135
O8	O	1.981851	0.267148	0.572135
O9	O	1.489212	0.002257	-0.072141
O10	O	1.989212	0.502257	0.427859
O11	O	1.309541	-0.117160	-0.072133
O12	O	1.809541	0.382840	0.427867
O13	O	1.671787	-0.106627	-0.072136
O14	O	2.171787	0.393373	0.427864
Cu15	Cu	1.491601	-0.111272	-0.085307
Cu16	Cu	1.991601	0.388728	0.414693
Cu17	Cu	1.479462	-0.119323	0.085301
Cu18	Cu	1.979462	0.380677	0.585301
O19	O	1.492116	-0.226044	-0.072127
O20	O	1.992116	0.273956	0.427873
C21	C	1.257843	-0.119797	-0.000001
C22	C	1.757843	0.380203	0.499999
C23	C	1.119092	-0.117504	-0.000000
C24	C	1.619092	0.382496	0.500000
N25	N	1.470925	-0.124980	0.205296
N26	N	1.970925	0.375020	0.705296
C27	C	1.480344	0.028086	-0.000010
C28	C	1.980344	0.528086	0.499990
C29	C	1.469196	0.115190	-0.000009
C30	C	1.969196	0.615190	0.499991
C31	C	1.049862	-0.184324	0.000004
C32	C	1.549862	0.315676	0.500004
C33	C	0.906455	-0.181955	0.000005
C34	C	1.406455	0.318045	0.500005
C35	C	1.713220	-0.110798	-0.000003
C36	C	2.213220	0.389202	0.499997
C37	C	1.851972	-0.113091	0.000002
C38	C	2.351972	0.386909	0.500002
C39	C	1.490720	-0.258681	0.000006
C40	C	1.990720	0.241319	0.500006
C41	C	1.501867	-0.345785	0.000011
C42	C	2.001867	0.154215	0.500011
C43	C	1.576757	0.164852	-0.000011
C44	C	2.076757	0.664852	0.499989
C45	C	1.566274	0.246695	-0.000003
C46	C	2.066274	0.746695	0.499997
C47	C	1.448231	0.278874	0.000001
C48	C	1.948231	0.778874	0.500001
C49	C	1.340662	0.229205	0.000005
C50	C	1.840662	0.729205	0.500005
C51	C	1.351145	0.147364	0.000003
C52	C	1.851145	0.647364	0.500003
C53	C	1.404782	0.522705	0.000013
C54	C	1.904782	1.022705	0.500013
C55	C	1.394307	0.604553	0.000013
C56	C	1.894307	1.104553	0.500013
C57	C	1.619920	0.622036	0.000006
C58	C	2.119920	1.122036	0.500006
C59	C	1.630393	0.540193	-0.000001
C60	C	2.130393	1.040193	0.499999
C61	C	1.522824	0.490531	0.000008
C62	C	2.022824	0.990531	0.500008
N63	N	1.437513	0.362530	0.000007
N64	N	1.937513	0.862530	0.500007
N65	N	1.533542	0.406876	0.000008
N66	N	2.033542	0.906876	0.500008
N67	N	1.500148	-0.105608	-0.205303
N68	N	2.000148	0.394392	0.294697
C69	C	1.547420	-0.074347	0.250687
C70	C	2.047420	0.425653	0.750687
C71	C	1.540961	-0.078624	0.341495
C72	C	2.040961	0.421376	0.841495
C73	C	1.457999	-0.133530	0.386911
C74	C	1.957999	0.366470	0.886911
C75	C	1.381501	-0.184169	0.341514
C76	C	1.881501	0.315831	0.841514
C77	C	1.387967	-0.179895	0.250708
C78	C	1.887967	0.320105	0.750708
C79	C	1.430116	-0.151973	0.658494
C80	C	1.930116	0.348027	1.158494
C81	C	1.423653	-0.156241	0.749307
C82	C	1.923653	0.343759	1.249307
C83	C	1.583116	-0.050697	0.749282
C84	C	2.083116	0.449303	1.249282
C85	C	1.589569	-0.046425	0.658473
C86	C	2.089569	0.453575	1.158473
C87	C	1.513075	-0.097066	0.613084
C88	C	2.013075	0.402934	1.113084
N89	N	1.451392	-0.137902	0.479732
N90	N	1.951392	0.362098	0.979732
N91	N	1.519690	-0.092699	0.520265
N92	N	2.019690	0.407301	1.020265
H93	H	1.096761	-0.243283	0.000003
H94	H	1.596761	0.256717	0.500003
Cl95	Cl	1.192263	0.269659	0.000021
Cl96	Cl	1.692263	0.769659	0.500021
H97	H	1.726516	0.513999	-0.000005
H98	H	2.226516	1.013999	0.499995
H99	H	1.653862	0.287127	-0.000006
H100	H	2.153862	0.787127	0.499994
Cl101	Cl	0.814586	-0.270277	0.000018
Cl102	Cl	1.314586	0.229723	0.500018
Cl103	Cl	1.245898	0.645005	0.000013
Cl104	Cl	1.745898	1.145005	0.500013
Cl105	Cl	1.215920	0.084931	0.000009
Cl106	Cl	1.715920	0.584931	0.500009
H107	H	0.911471	-0.055886	0.000003
H108	H	1.411471	0.444114	0.500003
H109	H	1.317191	0.482280	0.000020
H110	H	1.817191	0.982280	0.500020
H111	H	1.614971	-0.029633	0.213715
H112	H	2.114971	0.470367	0.713715
H113	H	1.672880	0.138659	-0.000020
H114	H	2.172880	0.638659	0.499980
H115	H	1.072191	-0.058545	0.000018
H116	H	1.572191	0.441455	0.500018
Cl117	Cl	1.637130	-0.014971	0.398559
Cl118	Cl	2.137130	0.485029	0.898559
Cl119	Cl	1.693864	0.022601	0.601379
Cl120	Cl	2.193864	0.522601	1.101379
Cl121	Cl	1.679547	0.012797	0.806347
Cl122	Cl	2.179547	0.512797	1.306347
Cl123	Cl	1.319345	-0.225272	0.806395
Cl124	Cl	1.819345	0.274728	1.306395
H125	H	1.707496	0.662479	0.000000
H126	H	2.207496	1.162479	0.500000
Cl127	Cl	1.333950	-0.215632	0.601439
Cl128	Cl	1.833950	0.284368	1.101439
H129	H	1.313956	-0.228879	0.378497
H130	H	1.813956	0.271121	0.878497
H131	H	1.325678	-0.221127	0.213752
H132	H	1.825678	0.278873	0.713752
