data_functionalizedCrystal
_audit_creation_method	'MofGen! by Chris Wilmer'
_symmetry_space_group_name_H-M	'P1'
_symmetry_Int_Tables_number	1
_symmetry_cell_setting	triclinic
loop_
_symmetry_equiv_pos_as_xyz
  x,y,z
_cell_length_a	27.354012
_cell_length_b	27.353283
_cell_length_c	27.349551
_cell_angle_alpha	60.005606
_cell_angle_beta	60.011434
_cell_angle_gamma	59.993282
loop_
_atom_site_label
_atom_site_type_symbol
_atom_site_fract_x
_atom_site_fract_y
_atom_site_fract_z
O1	O	0.067635	-0.714267	0.597330
O2	O	0.025429	-0.556105	0.481282
O3	O	0.125575	-0.656186	0.481214
O4	O	-0.032512	-0.614186	0.597397
O5	O	0.158797	-0.622968	0.514367
O6	O	0.058650	-0.522887	0.514434
O7	O	0.100856	-0.681048	0.630482
Zn8	Zn	0.085028	-0.596693	0.577722
Zn9	Zn	0.041257	-0.640460	0.534042
O10	O	0.000709	-0.580967	0.630549
N11	N	0.114901	-0.566828	0.607534
N12	N	0.011389	-0.670331	0.504229
C13	C	0.179404	-0.338196	0.672015
C14	C	0.179501	-0.502386	0.836160
C15	C	0.179415	-0.502363	0.671996
C16	C	0.343611	-0.502373	0.671960
C17	C	0.197478	-0.392371	0.690061
C18	C	0.197534	-0.484321	0.781984
C19	C	0.289434	-0.484312	0.690032
C20	C	0.197486	-0.484308	0.690051
C21	C	0.156398	-0.269238	0.649045
C22	C	0.156418	-0.525342	0.649015
C23	C	0.220484	-0.461329	0.713032
C24	C	0.443889	-0.485097	0.619172
C25	C	0.506571	-0.505993	0.598266
C26	C	0.506589	-0.607412	0.636940
C27	C	0.443909	-0.586515	0.657848
C28	C	0.171510	-0.237888	0.587422
C29	C	0.150593	-0.175201	0.566543
C30	C	0.099458	-0.175218	0.668913
C31	C	0.120375	-0.237905	0.689792
C32	C	0.094789	-0.510201	0.664176
C33	C	0.073888	-0.531091	0.643278
C34	C	0.176239	-0.582263	0.592072
C35	C	0.197142	-0.561373	0.612963
C36	C	0.094933	-0.510244	0.936476
C37	C	0.074073	-0.531151	0.999161
C38	C	0.176453	-0.582335	0.999126
C39	C	0.197312	-0.561429	0.936439
C40	C	0.156551	-0.525382	0.905116
C41	C	0.412561	-0.525357	0.648961
C42	C	-0.098513	-0.688235	0.485867
C43	C	-0.006461	-0.688368	0.394066
C44	C	-0.006645	-0.780264	0.486040
C45	C	-0.006630	-0.688361	0.486097
C46	C	-0.029562	-0.711308	0.463018
N47	N	0.537030	-0.566846	0.607436
O48	O	0.741877	-0.576849	0.459995
O49	O	0.742050	-0.693241	0.618010
O50	O	0.741986	-0.692977	0.517791
O51	O	0.741941	-0.577114	0.560214
O52	O	0.642405	-0.659839	0.551046
O53	O	0.642469	-0.660104	0.651265
O54	O	0.642296	-0.543712	0.493251
Zn55	Zn	0.626572	-0.596646	0.577538
Zn56	Zn	0.757774	-0.640307	0.533723
O57	O	0.642360	-0.543976	0.593469
N58	N	0.847316	-0.670107	0.503818
N59	N	0.114877	-0.144758	0.607577
O60	O	-0.032498	0.060193	0.597441
O61	O	0.125523	0.060193	0.481067
O62	O	0.025289	0.060179	0.481345
O63	O	0.067736	0.060207	0.597163
O64	O	0.058511	-0.039410	0.514543
O65	O	0.158745	-0.039397	0.514265
O66	O	0.000724	-0.039396	0.630638
Zn67	Zn	0.085009	-0.055208	0.577722
Zn68	Zn	0.041238	0.076005	0.533983
O69	O	0.100958	-0.039382	0.630360
N70	N	0.011362	0.165555	0.504130
N71	N	0.115121	-0.566884	1.029592
O72	O	0.104990	-0.714248	1.234528
O73	O	-0.011371	-0.556177	1.234539
O74	O	-0.011103	-0.656395	1.234497
O75	O	0.104722	-0.614030	1.234569
O76	O	0.022090	-0.623190	1.134913
O77	O	0.021822	-0.522972	1.134954
O78	O	0.138182	-0.681044	1.134943
Zn79	Zn	0.085272	-0.596736	1.119137
Zn80	Zn	0.041539	-0.640484	1.250344
O81	O	0.137914	-0.580826	1.134984
N82	N	0.011689	-0.670343	1.339890
C83	C	0.038085	-0.519567	0.481870
C84	C	0.162104	-0.643505	0.481786
C85	C	0.088200	-0.717587	0.629893
C86	C	-0.035819	-0.593649	0.629977
C87	C	0.692280	-0.692701	0.654545
C88	C	0.692203	-0.692374	0.530435
C89	C	0.692063	-0.544251	0.456717
C90	C	0.692144	-0.544580	0.580825
C91	C	0.162000	0.010521	0.481600
C92	C	0.037914	0.010381	0.481984
C93	C	-0.035795	0.010399	0.630065
C94	C	0.088333	0.010415	0.629722
C95	C	-0.010799	-0.519660	1.184747
C96	C	-0.010461	-0.643761	1.184677
C97	C	0.137610	-0.717561	1.184734
C98	C	0.137280	-0.593452	1.184783
H99	H	0.023897	-0.518815	1.024687
H100	H	0.029071	-0.474132	0.445424
O101	O	0.692314	-0.736354	0.708657
C102	C	0.692362	-0.787908	0.708626
H103	H	0.673479	-0.774639	0.673180
H104	H	0.663495	-0.810337	0.754532
H105	H	0.740151	-0.820434	0.698139
H106	H	0.061737	-0.480889	0.910978
H107	H	0.209648	-0.611676	1.024626
O108	O	0.098940	-0.771833	0.673322
C109	C	0.113020	-0.816929	0.652763
H110	H	0.093732	-0.796500	0.615553
H111	H	0.092987	-0.852763	0.691348
H112	H	0.163723	-0.837990	0.634764
O113	O	0.181176	-0.771715	1.184650
C114	C	0.195097	-0.782449	1.133052
H115	H	0.155522	-0.754502	1.115846
H116	H	0.204876	-0.831964	1.144636
H117	H	0.236150	-0.769563	1.096950
O118	O	-0.054457	-0.465552	1.184828
C119	C	-0.104904	-0.473433	1.236400
H120	H	-0.104228	-0.521210	1.253583
H121	H	-0.147429	-0.440613	1.224789
H122	H	-0.103847	-0.464847	1.272528
H123	H	0.173667	-0.584388	1.184797
H124	H	-0.081227	-0.584696	0.666460
H125	H	-0.046832	-0.652809	1.184615
H126	H	0.247489	-0.573760	0.910909
O127	O	0.692194	-0.735723	0.519519
C128	C	0.692159	-0.713915	0.460662
H129	H	0.673266	-0.662911	0.444924
H130	H	0.663257	-0.732165	0.459808
H131	H	0.739923	-0.729035	0.429662
H132	H	0.061625	-0.480862	0.693528
H133	H	0.023705	-0.518748	0.655609
H134	H	0.207509	-0.652460	0.445301
H135	H	0.692134	-0.508185	0.589902
O136	O	0.027169	0.010398	0.438500
C137	C	0.078579	0.010380	0.386832
H138	H	0.107175	0.029239	0.387334
H139	H	0.064525	0.039286	0.345263
H140	H	0.105608	-0.037401	0.386119
O141	O	0.215884	-0.617241	0.557038
C142	C	0.274760	-0.626139	0.548156
H143	H	0.274650	-0.588351	0.555164
H144	H	0.304500	-0.626462	0.500610
H145	H	0.292739	-0.670800	0.581510
H146	H	0.247325	-0.573698	0.600612
H147	H	0.207290	0.010797	0.444973
O148	O	0.536976	-0.666823	0.645534
C149	C	0.521655	-0.685960	0.617374
H150	H	0.476133	-0.654169	0.612049
H151	H	0.519527	-0.733121	0.645902
H152	H	0.556916	-0.686066	0.571402
H153	H	0.418403	-0.619300	0.682106
O154	O	0.413409	-0.425679	0.610465
C155	C	0.377120	-0.403957	0.576394
H156	H	0.396000	-0.434416	0.549601
H157	H	0.376395	-0.356655	0.544417
H158	H	0.329621	-0.403233	0.607610
H159	H	-0.081177	0.010398	0.666600
H160	H	0.532080	-0.473208	0.574011
O161	O	0.691917	-0.500673	0.402584
C162	C	0.640317	-0.486783	0.391877
H163	H	0.623168	-0.526383	0.419810
H164	H	0.651874	-0.476994	0.342363
H165	H	0.604185	-0.445742	0.404797
O166	O	0.206473	-0.268230	0.547758
C167	C	0.215332	-0.227116	0.488889
H168	H	0.177533	-0.182434	0.489015
H169	H	0.215645	-0.245224	0.459131
H170	H	0.259982	-0.220445	0.470917
O171	O	0.165167	-0.144715	0.506686
C172	C	0.112482	-0.108444	0.491559
H173	H	0.074842	-0.127344	0.526904
H174	H	0.120720	-0.107723	0.446054
H175	H	0.099281	-0.060938	0.489487
O176	O	0.099232	0.010309	0.673152
C177	C	0.147739	-0.041262	0.686889
H178	H	0.152451	-0.077310	0.673734
H179	H	0.139323	-0.058578	0.736988
H180	H	0.190665	-0.029600	0.661054
O181	O	0.064454	-0.144871	0.708574
C182	C	0.055623	-0.185986	0.767443
H183	H	0.062631	-0.230670	0.767329
H184	H	0.008092	-0.167881	0.797219
H185	H	0.089003	-0.192652	0.785386
H186	H	0.108067	-0.263426	0.739970
