data_functionalizedCrystal
_audit_creation_method	'MofGen! by Chris Wilmer'
_symmetry_space_group_name_H-M	'P1'
_symmetry_Int_Tables_number	1
_symmetry_cell_setting	triclinic
loop_
_symmetry_equiv_pos_as_xyz
  x,y,z
_cell_length_a	16.992697
_cell_length_b	10.268362
_cell_length_c	16.974755
_cell_angle_alpha	93.662169
_cell_angle_beta	92.979258
_cell_angle_gamma	90.001978
loop_
_atom_site_label
_atom_site_type_symbol
_atom_site_fract_x
_atom_site_fract_y
_atom_site_fract_z
O1	O	-1.040199	0.125789	0.167654
O2	O	-0.811915	0.125639	0.165814
O3	O	-0.932429	0.113610	0.052031
O4	O	-0.919685	0.137818	0.281436
O5	O	-0.932419	-0.102991	0.052026
O6	O	-0.811905	-0.090962	0.165808
O7	O	-1.040188	-0.090812	0.167648
Cu8	Cu	-0.926046	-0.110664	0.166728
Cu9	Cu	-0.926058	0.145492	0.166734
O10	O	-0.919675	-0.078783	0.281431
C11	C	-0.782700	0.017095	0.163445
C12	C	-0.695664	0.016367	0.156385
C13	C	-0.645346	0.023555	0.224501
C14	C	-0.563567	0.022838	0.217863
C15	C	-0.532108	0.014943	0.143108
C16	C	-0.582433	0.007751	0.074987
C17	C	-0.664211	0.008458	0.081626
C18	C	-0.288542	0.012011	0.115593
C19	C	-0.206758	0.011308	0.108959
C20	C	-0.187897	0.026393	0.251836
C21	C	-0.269677	0.027107	0.258468
C22	C	-0.319995	0.019908	0.190347
N23	N	-0.448517	0.014215	0.136321
N24	N	-0.403585	0.020627	0.197135
N25	N	-0.926043	-0.290831	0.166723
C26	C	-0.926054	-0.556500	0.166733
C27	C	-0.926045	-0.408663	0.166729
C28	C	-0.069403	0.017741	0.170017
C29	C	-0.156440	0.018496	0.177075
C30	C	-0.931942	0.002201	0.022539
C31	C	-0.930496	-0.007062	-0.065330
N32	N	-0.926067	0.325657	0.166733
C33	C	-0.922285	-0.071822	-0.559940
C34	C	-0.923651	-0.063125	-0.477377
C35	C	-0.924346	0.059296	-0.436085
C36	C	-0.923667	0.173027	-0.477358
C37	C	-0.922295	0.164328	-0.559919
C38	C	-0.928445	0.097971	-0.189164
C39	C	-0.929819	0.106661	-0.106598
C40	C	-0.929802	-0.129492	-0.106623
C41	C	-0.928435	-0.138180	-0.189185
C42	C	-0.927751	-0.024449	-0.230451
N43	N	-0.925745	0.068188	-0.351693
N44	N	-0.926347	-0.033343	-0.314841
C45	C	-0.920162	0.032629	0.310923
C46	C	-0.921608	0.041900	0.398793
H47	H	-0.146920	0.032252	0.307296
F48	F	-0.924419	0.303317	-0.433411
H49	H	-0.329502	0.006147	0.060123
H50	H	-0.670953	0.029985	0.285375
F51	F	-0.930560	0.236964	-0.062653
H52	H	-0.927873	-0.237868	-0.222800
H53	H	-0.921739	0.256934	-0.593518
H54	H	-0.927895	0.190579	-0.222754
H55	H	-0.556813	0.001304	0.014119
H56	H	-0.705180	0.002605	0.026158
H57	H	-0.181148	0.004880	0.048081
F58	F	-0.921551	-0.202121	-0.603879
H59	H	-0.522600	0.028693	0.273331
H60	H	-0.295284	0.033552	0.319342
H61	H	-0.930357	-0.222085	-0.073015
F62	F	-0.924358	-0.184165	-0.433460
