data_functionalizedCrystal
_audit_creation_method	'MofGen! by Chris Wilmer'
_symmetry_space_group_name_H-M	'P1'
_symmetry_Int_Tables_number	1
_symmetry_cell_setting	triclinic
loop_
_symmetry_equiv_pos_as_xyz
  x,y,z
_cell_length_a	19.805407
_cell_length_b	25.639239
_cell_length_c	19.805399
_cell_angle_alpha	90.029281
_cell_angle_beta	90.019573
_cell_angle_gamma	90.039284
loop_
_atom_site_label
_atom_site_type_symbol
_atom_site_fract_x
_atom_site_fract_y
_atom_site_fract_z
Zn1	Zn	1.034675	-0.208163	0.382712
Zn2	Zn	1.034565	-0.295597	0.269520
Zn3	Zn	0.921490	-0.208177	0.269536
Zn4	Zn	0.921428	-0.295569	0.382667
O5	O	0.978039	-0.251877	0.326109
O6	O	1.129377	-0.219767	0.367709
O7	O	1.019545	-0.284018	0.174806
O8	O	0.936576	-0.135010	0.284575
O9	O	1.129296	-0.284004	0.284547
O10	O	1.019733	-0.135000	0.367724
O11	O	0.936469	-0.219791	0.174817
O12	O	0.826765	-0.219764	0.284531
O13	O	0.936471	-0.283957	0.477389
O14	O	0.826720	-0.283971	0.367648
O15	O	1.019673	-0.219740	0.477422
O16	O	1.019485	-0.368758	0.284504
O17	O	0.936363	-0.368738	0.367632
C18	C	0.802183	-0.251867	0.326087
C19	C	0.726951	-0.251875	0.326093
C20	C	0.691601	-0.285357	0.369302
C21	C	0.620913	-0.285358	0.369312
C22	C	0.585576	-0.251879	0.326109
C23	C	0.620931	-0.218393	0.282898
C24	C	0.691618	-0.218390	0.282892
C25	C	0.335858	-0.218404	0.282920
C26	C	0.265165	-0.218411	0.282928
C27	C	0.265152	-0.285373	0.369340
C28	C	0.335839	-0.285370	0.369334
C29	C	0.371188	-0.251882	0.326126
C30	C	0.447837	-0.251881	0.326117
C31	C	0.508929	-0.251883	0.326114
C32	C	0.977924	-0.387719	0.326076
C33	C	0.977936	-0.445833	0.326085
C34	C	0.934750	-0.697028	0.369380
C35	C	0.934725	-0.642424	0.369372
O36	O	0.897895	-0.614189	0.406161
N37	N	0.978021	-0.615107	0.326120
C38	C	1.021350	-0.642397	0.282878
O39	O	1.058175	-0.614148	0.246088
C40	C	1.021378	-0.697000	0.282890
C41	C	0.978074	-0.724315	0.326140
C42	C	0.891450	-0.724343	0.412627
C43	C	0.891474	-0.778943	0.412634
C44	C	0.934799	-0.806230	0.369393
C45	C	0.978099	-0.778915	0.326146
C46	C	1.064710	-0.724289	0.239652
C47	C	1.064735	-0.778896	0.239667
C48	C	1.021431	-0.806211	0.282917
C49	C	1.021447	-0.860802	0.282913
N50	N	0.978151	-0.888119	0.326165
C51	C	0.934827	-0.860833	0.369405
C52	C	1.021289	-0.527727	0.282857
C53	C	1.021258	-0.473124	0.282842
C54	C	0.934634	-0.473155	0.369337
C55	C	0.934661	-0.527758	0.369349
C56	C	0.977993	-0.555044	0.326109
C57	C	0.934881	-0.975498	0.369416
C58	C	0.934907	-1.030103	0.369417
C59	C	1.021534	-1.030068	0.282924
C60	C	1.021505	-0.975467	0.282921
C61	C	0.978177	-0.948184	0.326172
O62	O	1.058260	-0.889072	0.246145
O63	O	0.898014	-0.889089	0.406195
C64	C	1.154582	-0.251887	0.326131
C65	C	1.229814	-0.251891	0.326141
C66	C	0.978077	-0.251844	0.502651
C67	C	0.978093	-0.251830	0.577883
C68	C	0.978174	-0.115504	0.326156
C69	C	0.978231	-0.057389	0.326177
C70	C	0.978040	-0.251872	0.150253
C71	C	0.978155	-0.251738	0.075021
C72	C	1.021418	-0.218390	0.613246
C73	C	1.021425	-0.218375	0.683934
C74	C	0.978110	-0.251802	0.719259
C75	C	0.934781	-0.285243	0.683892
C76	C	0.934771	-0.285255	0.613205
C77	C	0.934819	-0.285194	0.968965
C78	C	0.934834	-0.285181	1.039657
C79	C	1.021473	-0.218314	1.039695
C80	C	1.021463	-0.218326	0.969008
C81	C	0.978132	-0.251765	0.933647
C82	C	0.978124	-0.251780	0.856998
C83	C	0.978121	-0.251790	0.795906
H84	H	0.364607	-0.312634	0.404512
C85	C	0.582031	-0.322202	0.416832
N86	N	0.552745	-0.349958	0.452622
H87	H	0.899403	-0.549994	0.404570
C88	C	1.069185	-1.060093	0.235360
N89	N	1.105079	-1.082710	0.199536
C90	C	0.730503	-0.181557	0.235358
N91	N	0.759790	-0.153813	0.199555
H92	H	1.056513	-0.450889	0.247616
C93	C	1.112340	-0.694256	0.192063
N94	N	1.148215	-0.671636	0.156214
H95	H	0.236396	-0.191145	0.247747
C96	C	1.069131	-0.181524	1.078599
N97	N	1.105025	-0.153814	1.107900
H98	H	0.899511	-0.312458	0.712659
H99	H	0.899559	-0.312402	1.068417
H100	H	0.899357	-0.450929	0.404546
C101	C	0.843841	-0.808982	0.460217
N102	N	0.807962	-0.831603	0.496062
C103	C	1.069086	-0.181590	0.722830
N104	N	1.104987	-0.153881	0.752125
H105	H	1.056692	-0.191171	0.584490
H106	H	0.720367	-0.312622	0.404481
H107	H	1.056736	-0.191108	0.940250
H108	H	1.100023	-0.801109	0.204458
C109	C	0.226262	-0.322207	0.416875
N110	N	0.196971	-0.349949	0.452677
C111	C	0.374732	-0.181570	0.235386
N112	N	0.404015	-0.153825	0.199580
H113	H	1.056760	-0.953227	0.247696
C114	C	0.887151	-0.321977	0.930077
N115	N	0.851244	-0.349682	0.900784
C116	C	0.887112	-0.322042	0.574306
N117	N	0.851213	-0.349750	0.545009
H118	H	0.899642	-1.052340	0.404638
C119	C	0.582058	-0.181564	0.235376
N120	N	0.552779	-0.153824	0.199579
H121	H	0.899599	-0.953290	0.404636
H122	H	1.056573	-0.549939	0.247641
C123	C	0.843799	-0.694336	0.460212
N124	N	0.807906	-0.671739	0.496058
