data_functionalizedCrystal
_audit_creation_method	'MofGen! by Chris Wilmer'
_symmetry_space_group_name_H-M	'P1'
_symmetry_Int_Tables_number	1
_symmetry_cell_setting	triclinic
loop_
_symmetry_equiv_pos_as_xyz
  x,y,z
_cell_length_a	6.817900
_cell_length_b	13.167930
_cell_length_c	16.305550
_cell_angle_alpha	99.766063
_cell_angle_beta	103.455250
_cell_angle_gamma	105.754568
loop_
_atom_site_label
_atom_site_type_symbol
_atom_site_fract_x
_atom_site_fract_y
_atom_site_fract_z
V1	V	-4.045776	-0.149843	-0.274761
O2	O	-4.013024	0.006266	-0.257534
O3	O	-4.016306	-0.296214	-0.284420
O4	O	-3.996936	-0.147948	-0.389330
O5	O	-4.032529	-0.143027	-0.151898
V6	V	-4.527009	-0.131122	-0.258664
O7	O	-4.312060	-0.190909	-0.310071
O8	O	-4.710923	-0.090056	-0.223354
O9	O	-4.333273	0.015249	-0.249005
O10	O	-4.677158	-0.287231	-0.275891
O11	O	-4.657653	-0.137938	-0.381527
O12	O	-4.352643	-0.133017	-0.144095
C13	C	-3.865926	-0.331883	-0.283063
C14	C	-3.923114	-0.451547	-0.291724
C15	C	-3.946312	-0.645128	-0.151023
C16	C	-4.000044	-0.757562	-0.159157
C17	C	-4.084323	-0.788849	-0.316125
C18	C	-4.030591	-0.676415	-0.307991
C19	C	-3.961583	-0.604559	-0.225437
C20	C	-3.907837	-0.492123	-0.217304
C21	C	-3.992131	-0.523412	-0.374272
C22	C	-4.045862	-0.635845	-0.382405
C23	C	-3.841216	-0.142754	-0.416884
C24	C	-3.882692	-0.142173	-0.510621
C25	C	-4.033486	-0.139924	-0.851190
C26	C	-3.796567	-0.133244	-0.809739
C27	C	-3.753510	-0.134294	-0.712326
C28	C	-3.958673	-0.141039	-0.682230
C29	C	-4.139563	-0.247350	-0.741178
C30	C	-4.181348	-0.246749	-0.838681
C31	C	-4.075366	-0.041142	-0.797614
C32	C	-4.027326	-0.040300	-0.699706
C33	C	-3.916406	-0.141674	-0.586741
C34	C	-4.075763	-0.139297	-0.946680
C35	C	-4.146996	0.050913	-0.250360
C36	C	-4.069046	0.170575	-0.241705
C37	C	-4.171705	-0.138214	-0.116537
C38	C	-4.109467	-0.138789	-0.022799
H39	H	-4.004556	-0.490369	-0.434865
C40	C	-4.348008	-0.259225	-0.716557
H41	H	-4.326513	-0.199312	-0.669994
H42	H	-4.457190	-0.260579	-0.765478
H43	H	-4.388896	-0.325108	-0.698991
C44	C	-3.569144	-0.031046	-0.656926
H45	H	-3.519941	0.011917	-0.693890
H46	H	-3.617932	0.009884	-0.617080
H47	H	-3.455782	-0.051246	-0.625643
C48	C	-3.639648	-0.029507	-0.818328
H49	H	-3.717205	0.010660	-0.847275
H50	H	-3.553826	0.013975	-0.762043
H51	H	-3.551121	-0.049161	-0.850987
H52	H	-3.760727	-0.204215	-0.846806
H53	H	-3.987606	-0.790588	-0.098561
C54	C	-4.121762	-0.714887	-0.473208
H55	H	-4.123169	-0.674619	-0.516362
H56	H	-4.027520	-0.755884	-0.476671
H57	H	-4.261450	-0.762912	-0.482618
C58	C	-3.676426	-0.231276	-0.697901
H59	H	-3.671355	-0.270193	-0.751624
H60	H	-3.538156	-0.205185	-0.657234
H61	H	-3.772251	-0.278301	-0.675960
C62	C	-4.077855	-0.348402	-0.726386
H63	H	-3.941994	-0.326026	-0.684340
H64	H	-4.181064	-0.393191	-0.706057
H65	H	-4.072391	-0.388320	-0.779638
C66	C	-4.145677	-0.347763	-0.887634
H67	H	-4.105824	-0.388777	-0.847862
H68	H	-4.273652	-0.391532	-0.931550
H69	H	-4.035501	-0.325295	-0.913678
C70	C	-4.160262	-0.867902	-0.406924
H71	H	-4.190073	-0.940672	-0.401106
H72	H	-4.285727	-0.859414	-0.440805
H73	H	-4.051810	-0.852400	-0.434873
H74	H	-3.890096	-0.586620	-0.083804
H75	H	-4.356400	-0.256072	-0.867402
C76	C	-3.937699	0.067677	-0.807146
H77	H	-3.853382	0.053880	-0.843892
H78	H	-4.027548	0.105331	-0.831950
H79	H	-3.847182	0.110944	-0.751468
H80	H	-3.896030	0.038333	-0.659172
H81	H	-4.247945	-0.045090	-0.824739
C82	C	-3.831963	-0.413083	-0.126501
H83	H	-3.830594	-0.453354	-0.083349
H84	H	-3.692293	-0.365048	-0.117082
H85	H	-3.926242	-0.372099	-0.123048
C86	C	-4.226042	-0.038496	-0.670714
H87	H	-4.269946	-0.099434	-0.647476
H88	H	-4.192823	0.026781	-0.627428
H89	H	-4.337979	-0.041747	-0.719362
