data_functionalizedCrystal
_audit_creation_method	'MofGen! by Chris Wilmer'
_symmetry_space_group_name_H-M	'P1'
_symmetry_Int_Tables_number	1
_symmetry_cell_setting	triclinic
loop_
_symmetry_equiv_pos_as_xyz
  x,y,z
_cell_length_a	10.489711
_cell_length_b	15.944545
_cell_length_c	8.965430
_cell_angle_alpha	89.998318
_cell_angle_beta	89.994616
_cell_angle_gamma	84.011590
loop_
_atom_site_label
_atom_site_type_symbol
_atom_site_fract_x
_atom_site_fract_y
_atom_site_fract_z
O1	O	1.692430	0.118382	-0.124101
O2	O	1.321075	0.129532	-0.124093
O3	O	1.516897	0.001742	-0.124079
O4	O	1.496607	0.246172	-0.124115
O5	O	1.516881	0.001750	0.123999
O6	O	1.321058	0.129540	0.123986
O7	O	1.692414	0.118390	0.123978
Cu8	Cu	1.506734	0.123966	0.146633
Cu9	Cu	1.506754	0.123956	-0.146749
O10	O	1.496591	0.246180	0.123964
C11	C	1.273546	0.128699	-0.000052
C12	C	1.131949	0.126195	-0.000049
C13	C	1.516048	-0.029553	-0.000039
C14	C	1.513527	-0.122814	-0.000034
C15	C	0.948495	0.203044	-0.000077
C16	C	1.041182	0.164653	-0.122385
C17	C	1.041139	0.164641	0.122202
C18	C	0.972361	0.083301	-0.122489
C19	C	0.972309	0.083300	0.122207
C20	C	1.064969	0.044850	-0.000131
C21	C	1.384614	-0.394213	-0.000062
C22	C	1.446774	-0.343262	-0.122380
C23	C	1.504537	-0.458512	-0.000077
C24	C	1.446790	-0.343281	0.122207
C25	C	1.508947	-0.293572	-0.000053
C26	C	1.566664	-0.408789	-0.122496
C27	C	1.566663	-0.408811	0.122201
C28	C	1.628910	-0.357893	-0.000147
C29	C	1.501992	-0.553529	-0.000091
C30	C	1.511501	-0.198557	-0.000049
C31	C	1.739943	0.119223	-0.000066
C32	C	1.881539	0.121726	-0.000080
C33	C	1.497440	0.277475	-0.000080
C34	C	1.499961	0.370736	-0.000094
N35	N	1.506730	0.123973	0.352983
N36	N	1.506768	0.123943	-0.353098
C37	C	1.416141	0.183051	0.450282
C38	C	1.531403	0.200039	0.549691
C39	C	1.391517	0.106992	0.549702
C40	C	1.622050	0.140999	0.450202
C41	C	1.482088	0.047918	0.450204
C42	C	1.597433	0.064874	0.549568
H43	H	1.071705	0.199059	-0.225793
H44	H	1.294067	0.092643	0.593411
H45	H	1.115357	-0.022049	-0.000183
C46	C	0.880917	0.292142	0.000063
C47	C	0.805086	0.304272	0.128331
C48	C	0.742827	0.386337	0.128513
H49	H	0.828154	0.300187	-0.085920
H50	H	0.942897	0.331541	-0.000815
H51	H	0.743114	0.264884	0.129195
H52	H	0.857819	0.296244	0.214334
H53	H	0.804807	0.425737	0.127635
H54	H	0.690070	0.394375	0.042525
H55	H	0.691378	0.394581	0.215547
H56	H	0.942037	0.048923	-0.226012
C57	C	1.634392	-0.446766	-0.260416
C58	C	1.761849	-0.428014	-0.260554
C59	C	1.824276	-0.462995	-0.387572
H60	H	1.592256	-0.423788	-0.347277
H61	H	1.632434	-0.506201	-0.259608
H62	H	1.763800	-0.368591	-0.261377
H63	H	1.804020	-0.450993	-0.173722
H64	H	1.822319	-0.522430	-0.386763
H65	H	1.782130	-0.440014	-0.474423
H66	H	1.910765	-0.450284	-0.387675
H67	H	0.941757	0.048925	0.225625
H68	H	1.396134	-0.314632	-0.225788
C69	C	1.081722	0.210394	0.260265
C70	C	1.045147	0.168447	0.388046
C71	C	1.082518	0.210569	0.515248
H72	H	1.041464	0.266592	0.260311
H73	H	1.172154	0.211209	0.259839
H74	H	0.954732	0.167641	0.388472
H75	H	1.085400	0.112251	0.388049
H76	H	1.172951	0.211384	0.514822
H77	H	1.042258	0.266766	0.515279
H78	H	1.057718	0.182110	0.601961
H79	H	1.281335	-0.410479	-0.000179
H80	H	1.732269	-0.341788	-0.000218
H81	H	1.617258	-0.437457	0.225614
H82	H	1.396116	-0.314664	0.225614
H83	H	1.552272	0.264344	0.593389
C84	C	1.699902	-0.001659	0.607266
C85	C	1.820263	0.016503	0.556606
C86	C	1.914691	-0.044758	0.609748
H87	H	1.683253	-0.055571	0.571729
H88	H	1.698974	-0.001610	0.713230
H89	H	1.821189	0.016445	0.450665
H90	H	1.836953	0.070404	0.592140
H91	H	1.913763	-0.044709	0.715711
H92	H	1.898030	-0.098666	0.574207
H93	H	1.996368	-0.032440	0.575394
C94	C	1.314246	0.249855	0.392215
C95	C	1.340683	0.329336	0.442597
C96	C	1.246864	0.390896	0.389116
H97	H	1.232490	0.238449	0.427709
H98	H	1.314444	0.249114	0.286254
H99	H	1.340472	0.330075	0.548535
H100	H	1.422422	0.340769	0.407107
H101	H	1.247062	0.390155	0.283155
H102	H	1.165114	0.379482	0.424613
H103	H	1.264795	0.444832	0.423280
C104	C	1.453953	-0.037760	0.391957
C105	C	1.333129	-0.055195	0.442252
C106	C	1.307145	-0.134108	0.388605
H107	H	1.517364	-0.079936	0.427394
H108	H	1.454855	-0.037282	0.285997
H109	H	1.332237	-0.055680	0.548190
H110	H	1.269692	-0.013040	0.406818
H111	H	1.308046	-0.133629	0.282645
H112	H	1.370563	-0.176276	0.424046
H113	H	1.225159	-0.145944	0.422710
H114	H	1.719521	0.155425	0.406680
