data_functionalizedCrystal
_audit_creation_method	'MofGen! by Chris Wilmer'
_symmetry_space_group_name_H-M	'P1'
_symmetry_Int_Tables_number	1
_symmetry_cell_setting	triclinic
loop_
_symmetry_equiv_pos_as_xyz
  x,y,z
_cell_length_a	12.645323
_cell_length_b	13.032831
_cell_length_c	13.032721
_cell_angle_alpha	90.902885
_cell_angle_beta	82.846736
_cell_angle_gamma	97.193809
loop_
_atom_site_label
_atom_site_type_symbol
_atom_site_fract_x
_atom_site_fract_y
_atom_site_fract_z
Zn1	Zn	-0.873412	-1.520297	0.609399
Zn2	Zn	-0.715465	-1.498329	0.781373
Zn3	Zn	-0.671226	-1.348302	0.587562
Zn4	Zn	-0.867753	-1.326445	0.759446
O5	O	-0.781964	-1.423343	0.684445
O6	O	-0.873343	-1.661297	0.650528
O7	O	-0.561248	-1.478382	0.755701
O8	O	-0.681901	-1.389459	0.446553
O9	O	-0.757300	-1.645158	0.776876
O10	O	-0.830447	-1.515822	0.462597
O11	O	-0.528746	-1.368158	0.613309
O12	O	-0.676413	-1.201488	0.592047
O13	O	-1.016852	-1.352206	0.739505
O14	O	-0.820800	-1.185430	0.718330
O15	O	-1.021010	-1.494628	0.629266
O16	O	-0.751812	-1.457187	0.922371
O17	O	-0.863697	-1.330904	0.906261
C18	C	-0.743193	-1.156143	0.650440
C19	C	-0.726634	-1.041831	0.635917
C20	C	-1.058472	-1.423429	0.684375
C21	C	-1.176303	-1.423466	0.684346
C22	C	-0.811968	-1.389318	0.951633
C23	C	-0.824853	-1.374856	1.065948
C24	C	-1.341173	-1.333670	0.753291
C25	C	-1.218687	-1.333829	0.753709
C26	C	-1.239838	-1.528091	0.727541
C27	C	-1.362429	-1.527591	0.727981
C28	C	-1.327256	-1.409716	0.571893
C29	C	-1.204373	-1.407216	0.572238
C30	C	-0.506533	-1.423326	0.684448
C31	C	-0.388699	-1.423526	0.684214
C32	C	-0.820888	-1.691586	0.718584
C33	C	-0.837475	-1.805895	0.733132
C34	C	-0.790606	-0.982936	0.692025
C35	C	-0.773494	-0.864788	0.677016
C36	C	-0.751870	-1.457529	0.416218
C37	C	-0.739046	-1.472097	0.301916
C38	C	-0.775295	-1.430946	1.124857
C39	C	-0.788611	-1.416000	1.243009
H40	H	-1.174867	-1.255813	0.725084
Cl41	Cl	-1.412421	-1.633268	0.654764
H42	H	-0.840906	-1.356914	1.280042
Cl43	Cl	-1.211452	-1.549440	0.853735
H44	H	-0.686761	-1.531191	1.264885
Cl45	Cl	-0.905589	-1.283635	1.123122
Cl46	Cl	-0.941618	-0.863077	0.824443
H47	H	-1.356914	-1.255393	0.724812
Cl48	Cl	-1.406773	-1.345775	0.880576
H49	H	-0.858047	-1.019983	0.751169
H50	H	-0.659200	-1.004785	0.576766
Cl51	Cl	-1.198829	-1.633304	0.653257
Cl52	Cl	-1.191508	-1.346231	0.881823
H53	H	-1.403375	-1.540908	0.810499
H54	H	-1.343891	-1.335480	0.535208
Cl55	Cl	-1.158389	-1.502588	0.486864
Cl56	Cl	-1.137761	-1.288439	0.522334
Cl57	Cl	-0.694574	-1.522179	1.067685
Cl58	Cl	-0.669371	-0.807606	0.585684
Cl59	Cl	-1.374815	-1.511018	0.492172
