data_functionalizedCrystal
_audit_creation_method	'MofGen! by Chris Wilmer'
_symmetry_space_group_name_H-M	'P1'
_symmetry_Int_Tables_number	1
_symmetry_cell_setting	triclinic
loop_
_symmetry_equiv_pos_as_xyz
  x,y,z
_cell_length_a	19.805407
_cell_length_b	19.077068
_cell_length_c	19.805407
_cell_angle_alpha	87.717799
_cell_angle_beta	90.002724
_cell_angle_gamma	92.327086
loop_
_atom_site_label
_atom_site_type_symbol
_atom_site_fract_x
_atom_site_fract_y
_atom_site_fract_z
Zn1	Zn	1.023784	-0.280314	0.393537
Zn2	Zn	1.523784	0.219686	0.893537
Zn3	Zn	1.019183	-0.397987	0.284890
Zn4	Zn	1.519183	0.102013	0.784890
Zn5	Zn	0.910633	-0.280306	0.280362
Zn6	Zn	1.410633	0.219694	0.780362
Zn7	Zn	0.906013	-0.397977	0.398037
Zn8	Zn	1.406013	0.102023	0.898037
O9	O	0.964903	-0.339146	0.339207
O10	O	1.464903	0.160854	0.839207
O11	O	1.117890	-0.295931	0.379137
O12	O	1.617890	0.204069	0.879137
O13	O	1.004791	-0.382377	0.189573
O14	O	1.504791	0.117623	0.689573
O15	O	0.929502	-0.181815	0.291596
O16	O	1.429502	0.318185	0.791596
O17	O	1.114509	-0.382385	0.299315
O18	O	1.614509	0.117615	0.799315
O19	O	1.012634	-0.181821	0.374746
O20	O	1.512634	0.318179	0.874746
O21	O	0.925040	-0.295917	0.186246
O22	O	1.425040	0.204083	0.686246
O23	O	0.815304	-0.295908	0.295959
O24	O	1.315304	0.204092	0.795959
O25	O	0.921628	-0.382368	0.492156
O26	O	1.421628	0.117632	0.992156
O27	O	0.811910	-0.382360	0.382415
O28	O	1.311910	0.117640	0.882415
O29	O	1.008154	-0.295922	0.488851
O30	O	1.508154	0.204078	0.988851
O31	O	1.000311	-0.496478	0.303678
O32	O	1.500311	0.003522	0.803678
O33	O	0.917166	-0.496470	0.386806
O34	O	1.417166	0.003530	0.886806
C35	C	0.789048	-0.339133	0.339184
C36	C	1.289048	0.160867	0.839184
C37	C	0.713815	-0.339144	0.339191
C38	C	1.213815	0.160856	0.839191
C39	C	0.957756	-0.522012	0.346236
C40	C	1.457756	-0.022012	0.846236
C41	C	0.954761	-0.600243	0.349266
C42	C	1.454761	-0.100243	0.849266
C43	C	0.676719	-0.384227	0.384141
C44	C	1.176719	0.115773	0.884141
C45	C	0.606031	-0.384228	0.384151
C46	C	1.106031	0.115772	0.884151
C47	C	0.572440	-0.339149	0.339207
C48	C	1.072440	0.160851	0.839207
C49	C	0.609541	-0.294061	0.294255
C50	C	1.109541	0.205939	0.794255
C51	C	0.680228	-0.294056	0.294249
C52	C	1.180228	0.205944	0.794249
C53	C	0.324467	-0.294076	0.294278
C54	C	0.824467	0.205924	0.794278
C55	C	0.253775	-0.294086	0.294286
C56	C	0.753775	0.205914	0.794286
C57	C	0.250269	-0.384248	0.384179
C58	C	0.750269	0.115752	0.884179
C59	C	0.320957	-0.384244	0.384174
C60	C	0.820957	0.115756	0.884174
C61	C	0.358052	-0.339153	0.339224
C62	C	0.858052	0.160847	0.839224
C63	C	0.434701	-0.339152	0.339215
C64	C	0.934701	0.160848	0.839215
C65	C	0.495792	-0.339154	0.339212
C66	C	0.995792	0.160846	0.839212
C67	C	0.996676	-0.636976	0.307445
C68	C	1.496676	-0.136976	0.807445
C69	C	0.993863	-0.710482	0.310299
C70	C	1.493863	-0.210482	0.810299
C71	C	0.949130	-0.747254	0.354971
C72	C	1.449130	-0.247254	0.854971
C73	C	0.907213	-0.710515	0.396796
C74	C	1.407213	-0.210515	0.896796
C75	C	0.910030	-0.637010	0.393946
C76	C	1.410030	-0.137010	0.893946
C77	C	0.936062	-0.967092	0.368138
C78	C	1.436062	-0.467092	0.868138
C79	C	0.933246	-1.040602	0.370984
C80	C	1.433246	-0.540602	0.870984
C81	C	1.019898	-1.040564	0.284487
C82	C	1.519898	-0.540564	0.784487
C83	C	1.022708	-0.967058	0.281637
C84	C	1.522708	-0.467058	0.781637
C85	C	0.980793	-0.930325	0.323465
C86	C	1.480793	-0.430325	0.823465
N87	N	0.946252	-0.822389	0.357888
N88	N	1.446252	-0.322389	0.857888
N89	N	0.983676	-0.855192	0.320552
N90	N	1.483676	-0.355192	0.820552
C91	C	1.141445	-0.339160	0.339229
C92	C	1.641445	0.160840	0.839229
C93	C	1.216677	-0.339166	0.339239
C94	C	1.716677	0.160834	0.839239
C95	C	0.964889	-0.339145	0.515749
C96	C	1.464889	0.160855	1.015749
C97	C	0.964883	-0.339144	0.590981
C98	C	1.464883	0.160856	1.090981
C99	C	0.972096	-0.155566	0.332164
C100	C	1.472096	0.344434	0.832164
C101	C	0.975162	-0.077335	0.329163
C102	C	1.475162	0.422665	0.829163
C103	C	1.006432	-0.384173	1.054503
C104	C	1.506432	0.115827	1.554503
C105	C	1.006426	-0.384174	0.983814
C106	C	1.506426	0.115826	1.483814
C107	C	0.964902	-0.339159	0.946743
C108	C	1.464902	0.160841	1.446743
C109	C	0.923376	-0.294145	0.980365
C110	C	1.423376	0.205855	1.480365
C111	C	0.923379	-0.294148	1.051052
C112	C	1.423379	0.205852	1.551052
C113	C	0.923363	-0.294130	0.695291
C114	C	1.423363	0.205870	1.195291
C115	C	0.923365	-0.294128	0.624599
C116	C	1.423365	0.205872	1.124599
C117	C	1.006411	-0.384156	0.628053
C118	C	1.506411	0.115844	1.128053
C119	C	1.006413	-0.384159	0.698740
C120	C	1.506413	0.115841	1.198740
C121	C	0.964885	-0.339148	0.732356
C122	C	1.464885	0.160852	1.232356
C123	C	0.964891	-0.339149	0.809004
C124	C	1.464891	0.160851	1.309004
C125	C	0.964899	-0.339154	0.870096
C126	C	1.464899	0.160846	1.370096
C127	C	0.964910	-0.339162	1.163351
C128	C	1.464910	0.160838	1.663351
C129	C	0.964911	-0.339162	1.088119
C130	C	1.464911	0.160838	1.588119
H131	H	0.704064	-0.420938	0.420738
H132	H	1.204064	0.079062	0.920738
H133	H	0.226427	-0.257372	0.257686
H134	H	0.726427	0.242628	0.757686
H135	H	0.875899	-0.607103	0.428001
H136	H	1.375899	-0.107103	0.928001
H137	H	0.710432	-0.257341	0.257650
H138	H	1.210432	0.242659	0.757650
O139	O	0.214132	-0.427979	0.427826
O140	O	0.714132	0.072021	0.927826
C141	C	0.144538	-0.418331	0.418188
C142	C	0.644538	0.081669	0.918188
H143	H	0.137001	-0.363978	0.394020
H144	H	0.637001	0.136022	0.894020
H145	H	0.122844	-0.460021	0.383682
H146	H	0.622844	0.039979	0.883682
C147	C	0.117260	-0.491654	0.516602
C148	C	0.617260	0.008346	1.016602
C149	C	0.108002	-0.424895	0.486924
C150	C	0.608002	0.075105	0.986924
H151	H	0.094722	-0.495706	0.559000
H152	H	0.594722	0.004294	1.059000
H153	H	0.164146	-0.498157	0.523094
H154	H	0.664146	0.001843	1.023094
H155	H	0.099182	-0.526388	0.487840
H156	H	0.599182	-0.026388	0.987840
H157	H	0.126088	-0.390163	0.515682
H158	H	0.626088	0.109837	1.015682
H159	H	0.061118	-0.418386	0.480438
H160	H	0.561118	0.081614	0.980438
H161	H	0.870793	-0.740460	0.433172
H162	H	1.370793	-0.240460	0.933172
H163	H	1.040250	-0.420827	1.084681
H164	H	1.540250	0.079173	1.584681
H165	H	0.582186	-0.257353	0.257663
H166	H	1.082186	0.242647	0.757663
H167	H	0.348303	-0.420955	0.420770
H168	H	0.848303	0.079045	0.920770
O169	O	1.040189	-0.601368	0.264031
O170	O	1.540189	-0.101368	0.764031
C171	C	1.076568	-0.649556	0.227720
C172	C	1.576568	-0.149556	0.727720
H173	H	1.076880	-0.701937	0.257479
H174	H	1.576880	-0.201937	0.757479
H175	H	1.051525	-0.657421	0.176597
H176	H	1.551525	-0.157421	0.676597
C177	C	1.149332	-0.556478	0.180364
C178	C	1.649332	-0.056478	0.680364
C179	C	1.149720	-0.620811	0.216917
C180	C	1.649720	-0.120811	0.716917
H181	H	1.194455	-0.538746	0.173697
H182	H	1.694455	-0.038746	0.673697
H183	H	1.124821	-0.524012	0.204825
H184	H	1.624821	-0.024012	0.704825
H185	H	1.128460	-0.563040	0.137765
H186	H	1.628460	-0.063040	0.637765
H187	H	1.170585	-0.614247	0.259518
H188	H	1.670585	-0.114247	0.759518
H189	H	1.174237	-0.653276	0.192462
H190	H	1.674237	-0.153276	0.692462
O191	O	0.883118	-0.250381	0.728019
O192	O	1.383118	0.249619	1.228019
C193	C	0.923427	-0.204914	0.767163
C194	C	1.423427	0.295086	1.267163
H195	H	0.973753	-0.229733	0.778702
H196	H	1.473753	0.270267	1.278702
H197	H	0.932897	-0.152748	0.737931
H198	H	1.432897	0.347252	1.237931
C199	C	0.824870	-0.161708	0.819648
C200	C	1.324870	0.338292	1.319648
C201	C	0.886679	-0.192194	0.833826
C202	C	1.386679	0.307806	1.333826
H203	H	0.802202	-0.153859	0.860768
H204	H	1.302202	0.346141	1.360768
H205	H	0.797713	-0.192338	0.793275
H206	H	1.297713	0.307662	1.293275
H207	H	0.832770	-0.118240	0.795287
H208	H	1.332770	0.381760	1.295287
H209	H	0.878777	-0.235665	0.858179
H210	H	1.378777	0.264335	1.358179
H211	H	0.913834	-0.161571	0.860205
H212	H	1.413834	0.338429	1.360205
H213	H	1.040229	-0.420836	0.956447
H214	H	1.540229	0.079164	1.456447
H215	H	1.054023	-1.070479	0.250434
H216	H	1.554023	-0.570479	0.750434
O217	O	0.360392	-0.250254	0.250552
O218	O	0.860392	0.249746	0.750552
C219	C	0.315583	-0.210457	0.210898
C220	C	0.815583	0.289543	0.710898
H221	H	0.264072	-0.239291	0.209618
H222	H	0.764072	0.260709	0.709618
H223	H	0.310148	-0.157047	0.233721
H224	H	0.810148	0.342953	0.733721
C225	C	0.406830	-0.164769	0.140053
C226	C	0.906830	0.335231	0.640053
C227	C	0.343564	-0.200187	0.138476
C228	C	0.843564	0.299813	0.638476
H229	H	0.424090	-0.158431	0.095381
H230	H	0.924090	0.341569	0.595381
H231	H	0.437019	-0.191579	0.166770
H232	H	0.937019	0.308421	0.666770
H233	H	0.402291	-0.120264	0.159075
H234	H	0.902291	0.379736	0.659075
H235	H	0.348105	-0.244694	0.119462
H236	H	0.848105	0.255306	0.619462
H237	H	0.313376	-0.173384	0.111755
H238	H	0.813376	0.326616	0.611755
H239	H	1.040229	-0.420813	0.728920
H240	H	1.540229	0.079187	1.228920
O241	O	1.034742	-0.746143	0.269819
O242	O	1.534742	-0.246143	0.769819
C243	C	1.076788	-0.788542	0.310118
C244	C	1.576788	-0.288542	0.810118
H245	H	1.081630	-0.766362	0.362581
H246	H	1.581630	-0.266362	0.862581
H247	H	1.053814	-0.844306	0.314546
H248	H	1.553814	-0.344306	0.814546
C249	C	1.141263	-0.816732	0.212854
C250	C	1.641263	-0.316732	0.712854
C251	C	1.147214	-0.789486	0.277288
C252	C	1.647214	-0.289486	0.777288
H253	H	1.184704	-0.817317	0.192602
H254	H	1.684704	-0.317317	0.692602
H255	H	1.112935	-0.788169	0.185703
H256	H	1.612935	-0.288169	0.685703
H257	H	1.122115	-0.863199	0.216553
H258	H	1.622115	-0.363199	0.716553
H259	H	1.166353	-0.743016	0.273588
H260	H	1.666353	-0.243016	0.773588
H261	H	1.175547	-0.818041	0.304438
H262	H	1.675547	-0.318041	0.804438
O263	O	1.066132	-0.931421	0.238156
O264	O	1.566132	-0.431421	0.738156
C265	C	1.050702	-0.949413	0.171378
C266	C	1.550702	-0.449413	0.671378
H267	H	1.022635	-1.002803	0.172021
H268	H	1.522635	-0.502803	0.672021
H269	H	1.017512	-0.908081	0.146943
H270	H	1.517512	-0.408081	0.646943
C271	C	1.151070	-0.887202	0.129787
C272	C	1.651070	-0.387202	0.629787
C273	C	1.116602	-0.952780	0.130576
C274	C	1.616602	-0.452780	0.630576
H275	H	1.191719	-0.889276	0.104616
H276	H	1.691719	-0.389276	0.604616
H277	H	1.161464	-0.875078	0.174775
H278	H	1.661464	-0.375078	0.674775
H279	H	1.123404	-0.852766	0.109425
H280	H	1.623404	-0.352766	0.609425
H281	H	1.144264	-0.987212	0.150944
H282	H	1.644264	-0.487212	0.650944
H283	H	1.106214	-0.964910	0.085589
H284	H	1.606214	-0.464910	0.585589
O285	O	0.882959	-0.250380	0.588691
O286	O	1.382959	0.249620	1.088691
C287	C	0.846315	-0.210642	0.633517
C288	C	1.346315	0.289358	1.133517
H289	H	0.842844	-0.239470	0.685011
H290	H	1.342844	0.260530	1.185011
H291	H	0.873189	-0.157186	0.638987
H292	H	1.373189	0.342814	1.138987
C293	C	0.778939	-0.165093	0.542289
C294	C	1.278939	0.334907	1.042289
C295	C	0.774671	-0.200504	0.605533
C296	C	1.274671	0.299496	1.105533
H297	H	0.734746	-0.158837	0.525027
H298	H	1.234746	0.341163	1.025027
H299	H	0.803628	-0.191863	0.512088
H300	H	1.303628	0.308137	1.012088
H301	H	0.801337	-0.120550	0.546856
H302	H	1.301337	0.379450	1.046856
H303	H	0.752281	-0.245049	0.600964
H304	H	1.252281	0.254951	1.100964
H305	H	0.749976	-0.173741	0.635733
H306	H	1.249976	0.326259	1.135733
O307	O	0.895270	-0.931525	0.408784
O308	O	1.395270	-0.431525	0.908784
C309	C	0.855192	-0.979746	0.448828
C310	C	1.355192	-0.479746	0.948828
H311	H	0.850874	-1.032157	0.423134
H312	H	1.350874	-0.532157	0.923134
H313	H	0.879626	-0.987516	0.500562
H314	H	1.379626	-0.487516	1.000562
C315	C	0.789541	-0.886750	0.488950
C316	C	1.289541	-0.386750	0.988950
C317	C	0.784234	-0.951121	0.457390
C318	C	1.284234	-0.451121	0.957390
H319	H	0.745772	-0.869092	0.494235
H320	H	1.245772	-0.369092	0.994235
H321	H	0.816544	-0.854262	0.461974
H322	H	1.316544	-0.354262	0.961974
H323	H	0.809905	-0.893234	0.532059
H324	H	1.309905	-0.393234	1.032059
H325	H	0.763878	-0.944634	0.414279
H326	H	1.263878	-0.444634	0.914279
H327	H	0.757226	-0.983607	0.484359
H328	H	1.257226	-0.483607	0.984359
O329	O	0.883027	-0.250356	1.083602
O330	O	1.383027	0.249644	1.583602
C331	C	0.846364	-0.210636	1.035727
C332	C	1.346364	0.289364	1.535727
H333	H	0.874181	-0.208195	0.985246
H334	H	1.374181	0.291805	1.485246
H335	H	0.793949	-0.236408	1.029195
H336	H	1.293949	0.263592	1.529195
C337	C	0.805374	-0.138726	1.122449
C338	C	1.305374	0.361274	1.622449
C339	C	0.839543	-0.135724	1.060449
C340	C	1.339543	0.364276	1.560449
H341	H	0.801164	-0.092518	1.137699
H342	H	1.301164	0.407482	1.637699
H343	H	0.830073	-0.165488	1.154704
H344	H	1.330073	0.334512	1.654704
H345	H	0.761699	-0.160206	1.116997
H346	H	1.261699	0.339794	1.616997
H347	H	0.883220	-0.114253	1.065903
H348	H	1.383220	0.385747	1.565903
H349	H	0.814852	-0.108956	1.028195
H350	H	1.314852	0.391044	1.528195
H351	H	0.896827	-1.070539	0.407373
H352	H	1.396827	-0.570539	0.907373
H353	H	0.889563	-0.257496	0.950176
H354	H	1.389563	0.242504	1.450176
O355	O	0.570097	-0.428097	0.427831
O356	O	1.070097	0.071903	0.927831
C357	C	0.614903	-0.467879	0.467503
C358	C	1.114903	0.032121	0.967503
H359	H	0.665196	-0.470258	0.439864
H360	H	1.165196	0.029742	0.939864
H361	H	0.623428	-0.442199	0.517968
H362	H	1.123428	0.057801	1.017968
C363	C	0.522625	-0.539886	0.513953
C364	C	1.022625	-0.039886	1.013953
C365	C	0.584393	-0.542814	0.480003
C366	C	1.084393	-0.042814	0.980003
H367	H	0.503804	-0.586109	0.521666
H368	H	1.003804	-0.086109	1.021666
H369	H	0.492437	-0.513084	0.487227
H370	H	0.992437	-0.013084	0.987227
H371	H	0.529737	-0.518483	0.556003
H372	H	1.029737	-0.018483	1.056003
H373	H	0.577279	-0.564208	0.437951
H374	H	1.077279	-0.064208	0.937951
H375	H	0.614579	-0.569622	0.506722
H376	H	1.114579	-0.069622	1.006722
H377	H	1.040223	-0.420808	0.600675
H378	H	1.540223	0.079192	1.100675
