data_functionalizedCrystal
_audit_creation_method	'MofGen! by Chris Wilmer'
_symmetry_space_group_name_H-M	'P1'
_symmetry_Int_Tables_number	1
_symmetry_cell_setting	triclinic
loop_
_symmetry_equiv_pos_as_xyz
  x,y,z
_cell_length_a	13.339070
_cell_length_b	17.666332
_cell_length_c	19.188924
_cell_angle_alpha	90.008552
_cell_angle_beta	99.385629
_cell_angle_gamma	90.009041
loop_
_atom_site_label
_atom_site_type_symbol
_atom_site_fract_x
_atom_site_fract_y
_atom_site_fract_z
O1	O	1.340730	0.062989	0.349727
O2	O	1.046407	0.062983	0.303823
O3	O	1.202066	0.062978	0.226783
O4	O	1.185071	0.062995	0.426767
O5	O	1.202038	-0.062919	0.226772
O6	O	1.046380	-0.062914	0.303812
O7	O	1.340702	-0.062907	0.349716
Cu8	Cu	1.193539	-0.074406	0.326763
Cu9	Cu	1.193571	0.074482	0.326776
O10	O	1.185044	-0.062902	0.426756
C11	C	1.008739	0.000034	0.296064
C12	C	0.896540	0.000031	0.272951
N13	N	1.193524	-0.179125	0.326755
C14	C	0.530946	0.000059	0.452664
C15	C	0.636362	0.000064	0.474382
C16	C	0.701411	0.000055	0.424026
C17	C	0.661035	0.000042	0.351949
C18	C	0.555609	0.000043	0.330229
C19	C	0.726075	0.000040	0.301591
C20	C	0.685698	0.000027	0.229513
C21	C	0.580282	0.000028	0.207797
C22	C	0.515233	0.000036	0.258153
C23	C	0.831501	0.000039	0.323311
C24	C	0.856164	0.000024	0.200875
C25	C	0.750748	0.000019	0.179158
C26	C	1.262471	-0.218737	0.292669
C27	C	1.262477	-0.297985	0.292667
C28	C	1.193545	-0.337617	0.326764
C29	C	1.124584	-0.297996	0.360851
C30	C	1.124574	-0.218750	0.360847
N31	N	1.180404	-0.462031	0.385998
N32	N	1.180420	-0.537311	0.386002
C33	C	1.193572	-0.576381	0.326779
N34	N	1.206726	-0.537327	0.267555
N35	N	1.206715	-0.462040	0.267553
C36	C	1.193548	-0.423547	0.326773
C37	C	1.262529	-0.701923	0.292688
C38	C	1.262528	-0.781172	0.292683
C39	C	1.124640	-0.781181	0.360875
C40	C	1.124637	-0.701934	0.360872
C41	C	1.193586	-0.662309	0.326781
C42	C	1.378371	0.000044	0.357475
C43	C	1.490569	0.000051	0.380588
C44	C	1.201503	0.000028	0.200659
C45	C	1.199854	0.000026	0.122831
N46	N	1.193594	0.179201	0.326780
C47	C	1.199100	0.068653	0.086288
C48	C	1.197536	0.068659	0.013159
C49	C	1.196748	0.000034	-0.023421
C50	C	1.197497	-0.068602	0.013130
C51	C	1.199050	-0.068605	0.086257
N52	N	1.251817	-0.051041	-0.132303
N53	N	1.250343	-0.051032	-0.201770
C54	C	1.192066	0.000041	-0.243747
N55	N	1.135331	0.051118	-0.213633
N56	N	1.136809	0.051112	-0.144159
C57	C	1.195063	0.000030	-0.102715
C58	C	1.189615	0.068679	-0.359586
C59	C	1.188045	0.068681	-0.432717
C60	C	1.188016	-0.068581	-0.432743
C61	C	1.189576	-0.068582	-0.359614
C62	C	1.190380	0.000050	-0.323040
C63	C	1.185607	0.000049	0.452880
C64	C	1.187255	0.000056	0.530708
H65	H	0.864364	0.000046	0.381996
H66	H	1.318671	-0.813425	0.264922
H67	H	1.190199	-0.124465	-0.329859
H68	H	1.187426	0.124568	-0.462470
H69	H	1.068457	-0.330268	0.388613
H70	H	1.318624	-0.330243	0.264909
H71	H	0.909128	0.000020	0.159871
H72	H	1.068427	-0.186497	0.388604
H73	H	0.477974	0.000072	0.493655
H74	H	1.318612	-0.186478	0.264908
H75	H	1.068497	-0.669679	0.388632
H76	H	1.187367	-0.124456	-0.462527
H77	H	0.429393	0.000032	0.240474
H78	H	1.318670	-0.669660	0.264926
H79	H	0.787245	0.000061	0.441713
H80	H	1.196852	-0.124476	-0.016658
H81	H	1.068510	-0.813449	0.388634
H82	H	1.199752	0.124538	0.116062
H83	H	0.669228	0.000080	0.533067
H84	H	1.196916	0.124544	-0.016601
H85	H	1.199660	-0.124491	0.116010
H86	H	0.547412	0.000026	0.149107
H87	H	0.717858	0.000015	0.120471
H88	H	1.190264	0.124563	-0.329806
