data_functionalizedCrystal
_audit_creation_method	'MofGen! by Chris Wilmer'
_symmetry_space_group_name_H-M	'P1'
_symmetry_Int_Tables_number	1
_symmetry_cell_setting	triclinic
loop_
_symmetry_equiv_pos_as_xyz
  x,y,z
_cell_length_a	12.827893
_cell_length_b	13.031981
_cell_length_c	12.827885
_cell_angle_alpha	82.783254
_cell_angle_beta	89.980728
_cell_angle_gamma	97.191988
loop_
_atom_site_label
_atom_site_type_symbol
_atom_site_fract_x
_atom_site_fract_y
_atom_site_fract_z
Zn1	Zn	1.544847	-0.416061	-0.537949
Zn2	Zn	1.522548	-0.590874	-0.340982
Zn3	Zn	1.370082	-0.416113	-0.363216
Zn4	Zn	1.347890	-0.590797	-0.515692
O5	O	1.446342	-0.503461	-0.439460
O6	O	1.688124	-0.439262	-0.511830
O7	O	1.502278	-0.567745	-0.197689
O8	O	1.411885	-0.269841	-0.405013
O9	O	1.671740	-0.567695	-0.367120
O10	O	1.540284	-0.269803	-0.533389
O11	O	1.390262	-0.439349	-0.214023
O12	O	1.220904	-0.439274	-0.383432
O13	O	1.374062	-0.567564	-0.664888
O14	O	1.204599	-0.567614	-0.495456
O15	O	1.518766	-0.439187	-0.681239
O16	O	1.480759	-0.737129	-0.345539
O17	O	1.352439	-0.737072	-0.473897
C18	C	1.174834	-0.503442	-0.439442
C19	C	1.058679	-0.503459	-0.439456
C20	C	1.014987	-0.440018	-0.511148
C21	C	0.894935	-0.440035	-0.511165
C22	C	1.411799	-0.775026	-0.404913
C23	C	1.397117	-0.891202	-0.390169
C24	C	1.454060	-0.942895	-0.447176
C25	C	1.438887	-1.062970	-0.431938
C26	C	1.718909	-0.503481	-0.439478
C27	C	1.835061	-0.503490	-0.439485
C28	C	1.446426	-0.503361	-0.712043
C29	C	1.446461	-0.503318	-0.828201
C30	C	1.481048	-0.230836	-0.474164
C31	C	1.495837	-0.114660	-0.488953
C32	C	1.518074	-0.439781	-0.888079
C33	C	1.518112	-0.439735	-1.008135
C34	C	1.446328	-0.503486	-0.167947
C35	C	1.446532	-0.503234	-0.051826
H36	H	1.007208	-0.557782	-0.378089
C37	C	1.600944	-0.366243	-1.077649
C38	C	1.607554	-0.247412	-1.077868
C39	C	1.690389	-0.173918	-1.147384
C40	C	1.766614	-0.219254	-1.216680
C41	C	1.760007	-0.338091	-1.216463
C42	C	1.677172	-0.411585	-1.146948
H43	H	1.551125	-0.213846	-1.026568
H44	H	1.695279	-0.085946	-1.147544
H45	H	1.827933	-0.164849	-1.268140
H46	H	1.816436	-0.371657	-1.267763
H47	H	1.672281	-0.499557	-1.146788
C48	C	1.357845	-1.123257	-0.350758
C49	C	1.240900	-1.108446	-0.361045
C50	C	1.159860	-1.168734	-0.279867
C51	C	1.195766	-1.243835	-0.188401
C52	C	1.312717	-1.258650	-0.178110
C53	C	1.393756	-1.198361	-0.259288
H54	H	1.214316	-1.052849	-0.428757
H55	H	1.073286	-1.157767	-0.287486
H56	H	1.135775	-1.288464	-0.128308
H57	H	1.339301	-1.314246	-0.110398
H58	H	1.480331	-1.209329	-0.251670
C59	C	0.885846	-0.576872	-0.356559
C60	C	0.966646	-0.531407	-0.280429
C61	C	1.017440	-0.604789	-0.197502
C62	C	0.987434	-0.723637	-0.190705
C63	C	0.906629	-0.769108	-0.266837
C64	C	0.855836	-0.695726	-0.349764
H65	H	0.988863	-0.443423	-0.285458
H66	H	1.077257	-0.571127	-0.141144
H67	H	1.025034	-0.777959	-0.129318
H68	H	0.884413	-0.857092	-0.261808
H69	H	0.796019	-0.729388	-0.406122
H70	H	1.514040	-0.898259	-0.507266
H71	H	1.066459	-0.385689	-0.572511
H72	H	1.555821	-1.070027	-0.549047
C73	C	0.844143	-0.366655	-0.594088
C74	C	0.763342	-0.412121	-0.670218
C75	C	0.712549	-0.338739	-0.753144
C76	C	0.742555	-0.219891	-0.759941
C77	C	0.823359	-0.174419	-0.683809
C78	C	0.874153	-0.247801	-0.600883
H79	H	0.741126	-0.500104	-0.665188
H80	H	0.652732	-0.372400	-0.809502
H81	H	0.704954	-0.165569	-0.821329
H82	H	0.845576	-0.086435	-0.688839
H83	H	0.933970	-0.214139	-0.544525
C84	C	1.363697	-0.576729	-0.982320
C85	C	1.245975	-0.568199	-0.998304
C86	C	1.163140	-0.641693	-0.928788
C87	C	1.198027	-0.723718	-0.843289
C88	C	1.315754	-0.732252	-0.827301
C89	C	1.398589	-0.658757	-0.896816
H90	H	1.220145	-0.507476	-1.061599
H91	H	1.075990	-0.635376	-0.940624
H92	H	1.136707	-0.778123	-0.791829
H93	H	1.341585	-0.792974	-0.764006
H94	H	1.485739	-0.665074	-0.884980
H95	H	1.337129	-0.935840	-0.330088
H96	H	1.579352	-0.385414	-0.850462
H97	H	1.385174	-0.557674	-0.865820
