data_functionalizedCrystal
_audit_creation_method	'MofGen! by Chris Wilmer'
_symmetry_space_group_name_H-M	'P1'
_symmetry_Int_Tables_number	1
_symmetry_cell_setting	triclinic
loop_
_symmetry_equiv_pos_as_xyz
  x,y,z
_cell_length_a	18.266242
_cell_length_b	19.188930
_cell_length_c	19.188930
_cell_angle_alpha	83.144779
_cell_angle_beta	89.988525
_cell_angle_gamma	89.977082
loop_
_atom_site_label
_atom_site_type_symbol
_atom_site_fract_x
_atom_site_fract_y
_atom_site_fract_z
O1	O	0.061124	-0.926149	-0.087169
O2	O	0.394458	-0.592816	0.246165
O3	O	0.727791	-0.259483	0.579498
O4	O	0.061075	-0.722838	-0.098903
O5	O	0.394409	-0.389505	0.234430
O6	O	0.727742	-0.056171	0.567764
O7	O	0.061087	-0.830361	0.008620
O8	O	0.394420	-0.497027	0.341953
O9	O	0.727754	-0.163694	0.675286
O10	O	0.061113	-0.818627	-0.194691
O11	O	0.394446	-0.485293	0.138642
O12	O	0.727779	-0.151960	0.471975
O13	O	-0.060675	-0.830343	0.008625
O14	O	0.272658	-0.497009	0.341959
O15	O	0.605992	-0.163676	0.675292
O16	O	-0.060687	-0.722820	-0.098897
O17	O	0.272647	-0.389486	0.234436
O18	O	0.605980	-0.056153	0.567769
O19	O	-0.060638	-0.926131	-0.087163
O20	O	0.272696	-0.592798	0.246170
O21	O	0.606029	-0.259464	0.579503
Zn22	Zn	-0.079994	-0.824473	-0.093029
Zn23	Zn	0.253339	-0.491139	0.240304
Zn24	Zn	0.586672	-0.157806	0.573637
Zn25	Zn	0.080432	-0.824497	-0.093037
Zn26	Zn	0.413766	-0.491163	0.240297
Zn27	Zn	0.747099	-0.157830	0.573630
O28	O	-0.060649	-0.818608	-0.194686
O29	O	0.272684	-0.485275	0.138647
O30	O	0.606017	-0.151942	0.471981
C31	C	0.000188	-0.696818	-0.098520
C32	C	0.333521	-0.363485	0.234813
C33	C	0.666855	-0.030151	0.568146
C34	C	0.000169	-0.619313	-0.097380
C35	C	0.333502	-0.285980	0.235954
C36	C	0.666835	0.047353	0.569287
C37	C	0.000204	-0.829972	0.034634
C38	C	0.333537	-0.496638	0.367967
C39	C	0.666870	-0.163305	0.701300
C40	C	0.000197	-0.828831	0.112138
C41	C	0.333531	-0.495498	0.445471
C42	C	0.666864	-0.162164	0.778805
N43	N	-0.189481	-0.824461	-0.093024
N44	N	0.143852	-0.491128	0.240309
N45	N	0.477185	-0.157795	0.573643
C46	C	-0.227785	-0.872088	-0.045436
C47	C	0.105548	-0.538755	0.287897
C48	C	0.438882	-0.205421	0.621230
C49	C	-0.304430	-0.872092	-0.045433
C50	C	0.028903	-0.538759	0.287900
C51	C	0.362237	-0.205426	0.621234
C52	C	-0.342768	-0.824477	-0.093030
C53	C	-0.009435	-0.491144	0.240304
C54	C	0.323898	-0.157810	0.573637
C55	C	-0.304455	-0.776841	-0.140621
C56	C	0.028878	-0.443508	0.192712
C57	C	0.362211	-0.110175	0.526046
C58	C	-0.227812	-0.776834	-0.140618
C59	C	0.105521	-0.443500	0.192715
C60	C	0.438855	-0.110167	0.526048
N61	N	-0.463094	-0.815401	-0.154837
N62	N	-0.129761	-0.482068	0.178496
N63	N	0.203573	-0.148735	0.511830
N64	N	-0.535902	-0.815413	-0.154838
N65	N	-0.202569	-0.482080	0.178496
N66	N	0.130764	-0.148746	0.511829
C67	C	-0.573691	-0.824496	-0.093040
C68	C	-0.240357	-0.491163	0.240294
C69	C	0.092976	-0.157830	0.573627
N70	N	-0.535920	-0.833582	-0.031239
N71	N	-0.202587	-0.500248	0.302094
N72	N	0.130746	-0.166915	0.635427
N73	N	-0.463106	-0.833574	-0.031240
N74	N	-0.129772	-0.500240	0.302094
N75	N	0.203561	-0.166907	0.635427
C76	C	-0.425875	-0.824480	-0.093038
C77	C	-0.092542	-0.491146	0.240296
C78	C	0.240791	-0.157813	0.573629
C79	C	-0.695101	-0.872131	-0.045444
C80	C	-0.361768	-0.538797	0.287889
C81	C	-0.028435	-0.205464	0.621222
C82	C	-0.771748	-0.872130	-0.045440
C83	C	-0.438414	-0.538797	0.287893
C84	C	-0.105081	-0.205463	0.621226
C85	C	-0.771772	-0.776882	-0.140634
C86	C	-0.438438	-0.443549	0.192699
C87	C	-0.105105	-0.110216	0.526032
C88	C	-0.695127	-0.776879	-0.140632
C89	C	-0.361794	-0.443546	0.192701
C90	C	-0.028460	-0.110213	0.526034
C91	C	-0.656796	-0.824507	-0.093038
C92	C	-0.323463	-0.491174	0.240295
C93	C	0.009870	-0.157841	0.573628
N94	N	0.189919	-0.824513	-0.093037
N95	N	0.523253	-0.491180	0.240297
N96	N	0.856586	-0.157847	0.573630
C97	C	0.000252	-0.952151	-0.087546
C98	C	0.333585	-0.618818	0.245787
C99	C	0.666918	-0.285485	0.579121
C100	C	0.000276	-1.029656	-0.088687
C101	C	0.333609	-0.696322	0.244647
C102	C	0.666942	-0.362989	0.577980
C103	C	0.000188	-0.574389	-0.160470
C104	C	0.333521	-0.241056	0.172863
C105	C	0.666855	0.092277	0.506196
C106	C	0.000196	-0.501566	-0.159399
C107	C	0.333529	-0.168232	0.173935
C108	C	0.666863	0.165101	0.507268
C109	C	0.000199	-0.473669	-0.095233
C110	C	0.333532	-0.140336	0.238101
C111	C	0.666866	0.192998	0.571434
C112	C	0.000175	-0.518603	-0.032133
C113	C	0.333509	-0.185270	0.301200
C114	C	0.666842	0.148064	0.634533
C115	C	0.000160	-0.591425	-0.033207
C116	C	0.333494	-0.258092	0.300126
C117	C	0.666827	0.075242	0.633460
N118	N	0.041663	-0.365695	-0.046188
N119	N	0.374997	-0.032362	0.287146
N120	N	0.708330	0.300972	0.620479
N121	N	0.041679	-0.296516	-0.045172
N122	N	0.375013	0.036817	0.288161
N123	N	0.708346	0.370150	0.621495
C124	C	0.000243	-0.254260	-0.091994
C125	C	0.333577	0.079073	0.241339
C126	C	0.666910	0.412406	0.574672
N127	N	-0.041200	-0.283795	-0.139881
N128	N	0.292133	0.049538	0.193452
N129	N	0.625467	0.382872	0.526785
N130	N	-0.041213	-0.352980	-0.140899
N131	N	0.292121	-0.019646	0.192434
N132	N	0.625454	0.313687	0.525768
C133	C	0.000215	-0.394707	-0.094062
C134	C	0.333548	-0.061373	0.239272
C135	C	0.666882	0.271960	0.572605
C136	C	0.000270	-0.130372	-0.153928
C137	C	0.333604	0.202961	0.179406
C138	C	0.666937	0.536295	0.512739
C139	C	0.000274	-0.057547	-0.152853
C140	C	0.333607	0.275786	0.180480
C141	C	0.666940	0.609119	0.513813
C142	C	0.000261	-0.074586	-0.025586
C143	C	0.333594	0.258747	0.307747
C144	C	0.666927	0.592081	0.641080
C145	C	0.000250	-0.147409	-0.026662
C146	C	0.333583	0.185924	0.306671
C147	C	0.666917	0.519257	0.640004
C148	C	0.000258	-0.175298	-0.090835
C149	C	0.333592	0.158036	0.242498
C150	C	0.666925	0.491369	0.575832
C151	C	0.000236	-0.818997	-0.220700
C152	C	0.333569	-0.485664	0.112634
C153	C	0.666902	-0.152331	0.445967
C154	C	0.000247	-0.820138	-0.298204
C155	C	0.333580	-0.486805	0.035129
C156	C	0.666914	-0.153471	0.368462
C157	C	0.000209	-0.891922	0.157062
C158	C	0.333542	-0.558589	0.490395
C159	C	0.666876	-0.225255	0.823729
C160	C	0.000220	-0.890850	0.229886
C161	C	0.333554	-0.557517	0.563219
C162	C	0.666887	-0.224184	0.896552
C163	C	0.000206	-0.826684	0.257782
C164	C	0.333539	-0.493351	0.591116
C165	C	0.666872	-0.160017	0.924449
C166	C	0.000198	-0.763585	0.212849
C167	C	0.333531	-0.430252	0.546182
C168	C	0.666865	-0.096918	0.879515
C169	C	0.000194	-0.764658	0.140026
C170	C	0.333527	-0.431325	0.473360
C171	C	0.666860	-0.097992	0.806693
N172	N	-0.041244	-0.777631	0.365789
N173	N	0.292089	-0.444297	0.699123
N174	N	0.625422	-0.110964	1.032456
N175	N	-0.041242	-0.776615	0.434968
N176	N	0.292091	-0.443282	0.768301
N177	N	0.625425	-0.109948	1.101635
C178	C	0.000220	-0.823446	0.477191
C179	C	0.333553	-0.490113	0.810524
C180	C	0.666886	-0.156779	1.143858
N181	N	0.041669	-0.871341	0.447624
N182	N	0.375003	-0.538008	0.780957
N183	N	0.708336	-0.204675	1.114290
N184	N	0.041664	-0.872359	0.378439
N185	N	0.374997	-0.539025	0.711772
N186	N	0.708330	-0.205692	1.045106
C187	C	0.000210	-0.825513	0.336745
C188	C	0.333544	-0.492180	0.670078
C189	C	0.666877	-0.158846	1.003412
C190	C	0.000245	-0.885379	0.601079
C191	C	0.333578	-0.552046	0.934413
C192	C	0.666911	-0.218712	1.267746
C193	C	0.000261	-0.884305	0.673904
C194	C	0.333594	-0.550971	1.007238
C195	C	0.666927	-0.217638	1.340571
C196	C	0.000231	-0.757038	0.656865
C197	C	0.333564	-0.423704	0.990199
C198	C	0.666897	-0.090371	1.323532
C199	C	0.000222	-0.758114	0.584042
C200	C	0.333556	-0.424781	0.917376
C201	C	0.666889	-0.091447	1.250709
C202	C	0.000226	-0.822287	0.556154
C203	C	0.333559	-0.488953	0.889487
C204	C	0.666892	-0.155620	1.222821
H205	H	-0.196579	-0.910868	-0.006681
H206	H	0.136755	-0.577534	0.326653
H207	H	0.470088	-0.244201	0.659986
Cl208	Cl	-0.352650	-0.716979	-0.200454
Cl209	Cl	-0.019317	-0.383645	0.132879
Cl210	Cl	0.314017	-0.050312	0.466212
Cl211	Cl	-0.646969	-0.717007	-0.200464
Cl212	Cl	-0.313636	-0.383673	0.132870
Cl213	Cl	0.019698	-0.050340	0.466203
Cl214	Cl	0.000234	-0.972596	0.122006
Cl215	Cl	0.333567	-0.639262	0.455339
Cl216	Cl	0.666901	-0.305929	0.788673
Cl217	Cl	-0.819904	-0.932004	0.014394
Cl218	Cl	-0.486571	-0.598671	0.347727
Cl219	Cl	-0.153237	-0.265338	0.681060
Cl220	Cl	0.000230	-0.203888	0.052657
Cl221	Cl	0.333563	0.129445	0.385990
Cl222	Cl	0.666897	0.462778	0.719323
Cl223	Cl	0.000236	-0.970170	0.286372
Cl224	Cl	0.333569	-0.636837	0.619705
Cl225	Cl	0.666903	-0.303504	0.953039
Cl226	Cl	0.000204	-0.678795	0.527563
Cl227	Cl	0.333537	-0.345462	0.860897
Cl228	Cl	0.666871	-0.012128	1.194230
Cl229	Cl	0.000295	-0.001070	-0.232175
Cl230	Cl	0.333628	0.332264	0.101158
Cl231	Cl	0.666961	0.665597	0.434491
Cl232	Cl	0.000185	-0.682919	0.247918
Cl233	Cl	0.333518	-0.349586	0.581251
Cl234	Cl	0.666852	-0.016252	0.914584
Cl235	Cl	0.000219	-0.445079	-0.238719
Cl236	Cl	0.333552	-0.111746	0.094614
Cl237	Cl	0.666885	0.221587	0.427948
Cl238	Cl	0.000179	-0.685337	0.083547
Cl239	Cl	0.333512	-0.352004	0.416881
Cl240	Cl	0.666845	-0.018671	0.750214
Cl241	Cl	0.000245	-0.966051	0.566016
Cl242	Cl	0.333578	-0.632718	0.899350
Cl243	Cl	0.666912	-0.299385	1.232683
Cl244	Cl	-0.646913	-0.932001	0.014392
Cl245	Cl	-0.313580	-0.598668	0.347725
Cl246	Cl	0.019753	-0.265335	0.681058
Cl247	Cl	0.000274	-0.165435	-0.234600
Cl248	Cl	0.333607	0.167898	0.098733
Cl249	Cl	0.666940	0.501231	0.432067
Cl250	Cl	-0.179655	-0.716956	-0.200449
Cl251	Cl	0.153678	-0.383623	0.132885
Cl252	Cl	0.487011	-0.050289	0.466218
Cl253	Cl	0.000256	-0.039523	0.055081
Cl254	Cl	0.333589	0.293810	0.388414
Cl255	Cl	0.666923	0.627144	0.721747
H256	H	-0.802986	-0.738110	-0.179386
H257	H	-0.469653	-0.404777	0.153948
H258	H	-0.136319	-0.071444	0.487281
H259	H	0.000196	-0.597091	-0.212725
H260	H	0.333530	-0.263758	0.120609
H261	H	0.666863	0.069576	0.453942
Cl262	Cl	0.000175	-0.483534	0.048533
Cl263	Cl	0.333508	-0.150201	0.381866
Cl264	Cl	0.666842	0.183133	0.715199
H265	H	0.000274	-0.935683	0.710481
H266	H	0.333608	-0.602350	1.043815
H267	H	0.666941	-0.269017	1.377148
H268	H	0.000222	-0.704792	0.679578
H269	H	0.333556	-0.371459	1.012911
H270	H	0.666889	-0.038126	1.346245
H271	H	-0.335623	-0.910877	-0.006680
H272	H	-0.002289	-0.577544	0.326654
H273	H	0.331044	-0.244210	0.659987
H274	H	0.000145	-0.628003	0.018171
H275	H	0.333478	-0.294670	0.351504
H276	H	0.666811	0.038664	0.684838
