data_functionalizedCrystal
_audit_creation_method	'MofGen! by Chris Wilmer'
_symmetry_space_group_name_H-M	'P1'
_symmetry_Int_Tables_number	1
_symmetry_cell_setting	triclinic
loop_
_symmetry_equiv_pos_as_xyz
  x,y,z
_cell_length_a	14.044220
_cell_length_b	14.044209
_cell_length_c	12.503572
_cell_angle_alpha	93.841427
_cell_angle_beta	93.835250
_cell_angle_gamma	86.811584
loop_
_atom_site_label
_atom_site_type_symbol
_atom_site_fract_x
_atom_site_fract_y
_atom_site_fract_z
O1	O	1.282199	-0.225116	0.089218
O2	O	1.615532	0.108217	0.422551
O3	O	1.948865	0.441551	0.755884
O4	O	1.005529	-0.216809	0.089244
O5	O	1.338862	0.116525	0.422578
O6	O	1.672195	0.449858	0.755911
O7	O	1.139711	-0.082627	0.089216
O8	O	1.473045	0.250706	0.422549
O9	O	1.806378	0.584039	0.755883
O10	O	1.148016	-0.359297	0.089246
O11	O	1.481350	-0.025964	0.422579
O12	O	1.814683	0.307369	0.755913
O13	O	1.129621	-0.092737	-0.089424
O14	O	1.462955	0.240597	0.243910
O15	O	1.796288	0.573930	0.577243
O16	O	0.995439	-0.226918	-0.089395
O17	O	1.328772	0.106415	0.243938
O18	O	1.662106	0.439749	0.577271
O19	O	1.272109	-0.235225	-0.089422
O20	O	1.605442	0.098108	0.243911
O21	O	1.938776	0.431441	0.577245
Cu22	Cu	1.132853	-0.231995	-0.105720
Cu23	Cu	1.466186	0.101339	0.227613
Cu24	Cu	1.799519	0.434672	0.560947
Cu25	Cu	1.144785	-0.220039	0.105542
Cu26	Cu	1.478118	0.113294	0.438876
Cu27	Cu	1.811452	0.446627	0.772209
O28	O	1.137927	-0.369407	-0.089394
O29	O	1.471260	-0.036073	0.243939
O30	O	1.804593	0.297260	0.577273
C31	C	0.964862	-0.218228	-0.000072
C32	C	1.298196	0.115106	0.333261
C33	C	1.631529	0.448439	0.666594
C34	C	0.858720	-0.207382	-0.000063
C35	C	1.192054	0.125951	0.333271
C36	C	1.525387	0.459284	0.666604
C37	C	1.131031	-0.052060	-0.000105
C38	C	1.464364	0.281273	0.333228
C39	C	1.797698	0.614606	0.666562
C40	C	1.120187	0.054082	-0.000109
C41	C	1.453520	0.387416	0.333224
C42	C	1.786854	0.720749	0.666558
C43	C	0.664381	-0.187558	-0.000086
C44	C	0.997715	0.145776	0.333247
C45	C	1.331048	0.479109	0.666581
C46	C	0.613251	-0.264472	-0.000082
C47	C	0.946584	0.068862	0.333251
C48	C	1.279918	0.402195	0.666584
C49	C	0.505114	-0.253441	-0.000095
C50	C	0.838448	0.079893	0.333238
C51	C	1.171781	0.413226	0.666571
C52	C	0.772528	-0.198587	-0.000073
C53	C	1.105861	0.134746	0.333260
C54	C	1.439195	0.468080	0.666594
C55	C	1.100363	0.248421	-0.000098
C56	C	1.433696	0.581754	0.333235
C57	C	1.767030	0.915087	0.666569
C58	C	1.177277	0.299550	-0.000104
C59	C	1.510611	0.632884	0.333229
C60	C	1.843944	0.966217	0.666563
C61	C	1.166247	0.407687	-0.000098
C62	C	1.499580	0.741020	0.333235
C63	C	1.832914	1.074354	0.666569
C64	C	1.111392	0.140274	-0.000104
C65	C	1.444725	0.473608	0.333229
C66	C	1.778058	0.806941	0.666563
C67	C	1.312776	-0.233806	-0.000103
C68	C	1.646109	0.099527	0.333230
C69	C	1.979442	0.432860	0.666564
C70	C	1.418918	-0.244651	-0.000106
C71	C	1.752251	0.088682	0.333228
C72	C	2.085585	0.422016	0.666561
N73	N	1.124467	-0.240404	-0.254311
N74	N	1.457800	0.092930	0.079023
N75	N	1.791134	0.426263	0.412356
C76	C	1.146609	0.600026	-0.000079
C77	C	1.479942	0.933359	0.333255
C78	C	1.813275	1.266693	0.666588
C79	C	1.157458	0.493883	-0.000093
C80	C	1.490791	0.827216	0.333240
C81	C	1.824124	1.160549	0.666573
C82	C	1.112132	-0.252782	-0.473423
C83	C	1.445465	0.080552	-0.140090
C84	C	1.778799	0.413885	0.193244
C85	C	1.165510	-0.199248	-0.526762
C86	C	1.498843	0.134085	-0.193428
C87	C	1.832176	0.467418	0.139905
C88	C	1.158646	-0.206135	-0.648683
C89	C	1.491980	0.127198	-0.315350
C90	C	1.825313	0.460531	0.017983
C91	C	1.118994	-0.245896	-0.351490
C92	C	1.452328	0.087438	-0.018157
C93	C	1.785661	0.420771	0.315176
N94	N	1.153178	-0.211623	0.254133
N95	N	1.486511	0.121710	0.587466
N96	N	1.819844	0.455043	0.920799
H97	H	0.650690	-0.338604	-0.000069
H98	H	0.984024	-0.005271	0.333264
H99	H	1.317357	0.328062	0.666598
C100	C	1.234222	-0.130355	-0.464753
C101	C	1.567555	0.202978	-0.131419
C102	C	1.900888	0.536311	0.201914
N103	N	1.285979	-0.078473	-0.418043
N104	N	1.619312	0.254861	-0.084709
N105	N	1.952646	0.588194	0.248624
H106	H	1.251414	0.262115	-0.000038
H107	H	1.584748	0.595448	0.333295
H108	H	1.918081	0.928781	0.666629
H109	H	1.026236	0.285858	-0.000089
H110	H	1.359569	0.619191	0.333244
H111	H	1.692903	0.952525	0.666577
H112	H	0.626944	-0.113431	-0.000100
H113	H	0.960278	0.219903	0.333233
H114	H	1.293611	0.553236	0.666567
H115	H	1.061284	-0.303783	-0.519320
H116	H	1.394617	0.029550	-0.185987
H117	H	1.727950	0.362884	0.147347
