data_functionalizedCrystal
_audit_creation_method	'MofGen! by Chris Wilmer'
_symmetry_space_group_name_H-M	'P1'
_symmetry_Int_Tables_number	1
_symmetry_cell_setting	triclinic
loop_
_symmetry_equiv_pos_as_xyz
  x,y,z
_cell_length_a	11.792241
_cell_length_b	17.038272
_cell_length_c	10.268362
_cell_angle_alpha	89.994496
_cell_angle_beta	89.999626
_cell_angle_gamma	87.652486
loop_
_atom_site_label
_atom_site_type_symbol
_atom_site_fract_x
_atom_site_fract_y
_atom_site_fract_z
O1	O	1.516303	0.107207	-0.108175
O2	O	1.186930	0.118256	-0.108205
O3	O	1.349659	-0.001093	-0.108180
O4	O	1.353574	0.226556	-0.108200
O5	O	1.349643	-0.001098	0.108421
O6	O	1.186914	0.118251	0.108396
O7	O	1.516287	0.107202	0.108426
Cu8	Cu	1.351600	0.112726	0.128188
Cu9	Cu	1.351618	0.112732	-0.127967
O10	O	1.353558	0.226551	0.108401
C11	C	1.144571	0.117559	0.000092
C12	C	1.018375	0.115482	0.000080
C13	C	0.787328	0.111662	0.000118
C14	C	0.915899	0.113785	0.000097
C15	C	1.346090	-0.030239	0.000120
C16	C	1.335466	-0.117079	0.000119
C17	C	1.433006	-0.166762	0.000129
C18	C	1.423017	-0.248357	0.000116
C19	C	1.315487	-0.280267	0.000102
C20	C	1.217940	-0.230577	0.000087
C21	C	1.227930	-0.148984	0.000091
C22	C	1.280194	-0.526181	0.000081
C23	C	1.270211	-0.607780	0.000080
C24	C	1.475289	-0.625554	0.000107
C25	C	1.485270	-0.543958	0.000118
C26	C	1.387723	-0.494276	0.000097
C27	C	1.305274	-0.363669	0.000092
C28	C	1.397937	-0.410875	0.000097
C29	C	1.558647	0.107899	0.000127
C30	C	1.684843	0.109976	0.000130
C31	C	1.357127	0.255697	0.000098
C32	C	1.367751	0.342537	0.000091
N33	N	1.351595	0.112721	0.308354
N34	N	1.351631	0.112730	-0.308133
C35	C	1.351612	0.112730	0.574025
C36	C	1.351599	0.112728	0.426187
H37	H	1.502445	-0.288806	0.000127
O38	O	1.537549	-0.135898	0.000082
C39	C	1.739901	-0.162148	0.000167
C40	C	1.621575	-0.197202	0.000198
H41	H	1.807869	-0.211696	0.000287
H42	H	1.749785	-0.124416	-0.090501
H43	H	1.749645	-0.124372	0.090793
H44	H	1.611751	-0.235015	-0.090368
H45	H	1.611746	-0.234890	0.090925
O46	O	1.589812	-0.513093	0.000079
C47	C	1.792166	-0.539336	0.000204
C48	C	1.673843	-0.574395	0.000205
H49	H	1.860137	-0.588881	0.000333
H50	H	1.802061	-0.501599	-0.090457
H51	H	1.801892	-0.501563	0.090837
H52	H	1.664036	-0.612204	-0.090367
H53	H	1.664002	-0.612086	0.090925
O54	O	1.502450	-0.379975	0.000283
C55	C	1.680743	-0.370159	0.112564
C56	C	1.562427	-0.405229	0.112497
H57	H	1.729260	-0.390550	0.203294
H58	H	1.729434	-0.390600	0.021987
H59	H	1.671092	-0.303310	0.112499
H60	H	1.571974	-0.472080	0.112608
H61	H	1.513779	-0.384726	0.203066
H62	H	1.554706	-0.666014	0.000121
O63	O	1.165727	-0.638744	-0.000176
C64	C	0.987392	-0.648489	-0.112393
C65	C	1.105683	-0.613382	-0.112282
H66	H	0.938803	-0.627984	-0.203007
H67	H	0.996951	-0.715343	-0.112472
H68	H	0.938817	-0.628084	-0.021717
H69	H	1.154323	-0.633726	-0.202942
H70	H	1.096043	-0.546532	-0.112135
H71	H	1.200764	-0.485738	0.000064
O72	O	1.133262	-0.100640	0.000258
C73	C	1.025474	0.001760	0.112493
C74	C	1.132748	-0.052930	0.112460
H75	H	1.025012	0.040336	0.203213
H76	H	1.025024	0.040462	0.021906
H77	H	0.946921	-0.035078	0.112420
H78	H	1.211359	-0.016154	0.112579
H79	H	1.133099	-0.091635	0.203039
O80	O	1.113571	-0.261701	0.000131
C81	C	1.007292	-0.379520	0.000045
C82	C	1.125560	-0.344379	0.000020
H83	H	1.016944	-0.446369	-0.000072
H84	H	0.958662	-0.359154	0.090708
H85	H	0.958705	-0.359042	-0.090586
H86	H	1.174241	-0.364840	0.090590
H87	H	1.174104	-0.364741	-0.090703
O88	O	1.200885	-0.394763	-0.000083
C89	C	1.070584	-0.476532	-0.112347
C90	C	1.188847	-0.441382	-0.112292
H91	H	1.060804	-0.514218	-0.203071
H92	H	1.060765	-0.514348	-0.021765
H93	H	1.002595	-0.426999	-0.112282
H94	H	1.256907	-0.490865	-0.112403
H95	H	1.198569	-0.403546	-0.202866
