data_functionalizedCrystal
_audit_creation_method	'MofGen! by Chris Wilmer'
_symmetry_space_group_name_H-M	'P1'
_symmetry_Int_Tables_number	1
_symmetry_cell_setting	triclinic
loop_
_symmetry_equiv_pos_as_xyz
  x,y,z
_cell_length_a	12.759401
_cell_length_b	12.759400
_cell_length_c	12.759393
_cell_angle_alpha	90.031564
_cell_angle_beta	90.018496
_cell_angle_gamma	90.014845
loop_
_atom_site_label
_atom_site_type_symbol
_atom_site_fract_x
_atom_site_fract_y
_atom_site_fract_z
Zn1	Zn	1.606255	-0.418200	0.593981
Zn2	Zn	1.606150	-0.593919	0.418301
Zn3	Zn	1.430557	-0.418255	0.418321
Zn4	Zn	1.430546	-0.593838	0.593943
O5	O	1.518377	-0.506053	0.506137
O6	O	1.753262	-0.441520	0.570685
O7	O	1.582818	-0.570673	0.271283
O8	O	1.453913	-0.271226	0.441647
O9	O	1.753185	-0.570620	0.441614
O10	O	1.582998	-0.271186	0.570704
O11	O	1.453811	-0.441614	0.271297
O12	O	1.283535	-0.441535	0.441609
O13	O	1.453894	-0.570482	0.740969
O14	O	1.283527	-0.570536	0.570638
O15	O	1.582987	-0.441442	0.740997
O16	O	1.582807	-0.740929	0.441577
O17	O	1.453791	-0.740870	0.570620
C18	C	1.245410	-0.506033	0.506122
C19	C	1.128633	-0.506050	0.506141
C20	C	1.518315	-0.779020	0.506115
C21	C	1.518384	-0.895797	0.506140
C22	C	1.073794	-0.573328	0.573215
C23	C	0.964070	-0.573342	0.573227
C24	C	0.964034	-0.438796	0.439081
C25	C	1.073756	-0.438778	0.439075
C26	C	1.128672	-0.640600	0.640281
C27	C	1.073833	-0.707885	0.707360
C28	C	0.964109	-0.707898	0.707371
C29	C	0.909224	-0.640627	0.640304
C30	C	1.585637	-0.950655	0.439022
C31	C	1.585702	-1.060379	0.439054
C32	C	1.451252	-1.060377	0.573327
C33	C	1.451193	-0.950655	0.573299
C34	C	1.652828	-0.895797	0.371864
C35	C	1.720086	-0.950655	0.304739
C36	C	1.720150	-1.060379	0.304771
C37	C	1.652957	-1.115245	0.371929
C38	C	1.792410	-0.506073	0.506152
C39	C	1.909187	-0.506082	0.506158
C40	C	1.518451	-0.505947	0.780170
C41	C	1.518482	-0.505902	0.896947
C42	C	1.518468	-0.232019	0.506182
C43	C	1.518507	-0.115243	0.506201
C44	C	1.518364	-0.506083	0.233169
C45	C	1.518537	-0.505832	0.116393
C46	C	1.585710	-0.438704	0.951825
C47	C	1.585735	-0.438666	1.061549
C48	C	1.451301	-0.573033	1.061507
C49	C	1.451272	-0.573064	0.951785
C50	C	1.652920	-0.371541	0.896987
C51	C	1.720155	-0.304339	0.951866
C52	C	1.720180	-0.304301	1.061590
C53	C	1.652970	-0.371465	1.116436
H54	H	1.218015	-0.640599	0.640277
H55	H	1.774798	-0.905977	0.250068
H56	H	1.652910	-0.371567	0.807644
C57	C	0.788530	-0.640619	0.640341
H58	H	0.763728	-0.690318	0.689898
H59	H	0.763745	-0.572839	0.658632
H60	H	0.763658	-0.658712	0.572516
H61	H	0.919462	-0.762676	0.761998
H62	H	1.774922	-1.105041	0.250123
C63	C	1.794072	-0.230454	0.891546
H64	H	1.834105	-0.190419	0.939947
H65	H	1.839826	-0.270656	0.848735
H66	H	1.753878	-0.184685	0.848754
C67	C	1.377384	-0.646915	1.121830
H68	H	1.337334	-0.686936	1.073430
H69	H	1.417570	-0.692681	1.164623
H70	H	1.331629	-0.606702	1.164640
C71	C	0.903663	-0.364812	0.365308
H72	H	0.830462	-0.374466	0.374911
H73	H	0.921655	-0.294236	0.380802
H74	H	0.921617	-0.380110	0.294686
H75	H	1.653024	-1.204589	0.371958
H76	H	1.774917	-0.249574	1.106269
C77	C	1.134083	-0.364770	0.365300
H78	H	1.085687	-0.324716	0.325351
H79	H	1.176901	-0.319039	0.405576
H80	H	1.176867	-0.404899	0.319447
H81	H	1.652984	-0.371417	1.205780
H82	H	1.396513	-0.627767	0.907102
H83	H	1.118528	-0.762647	0.761970
C84	C	1.652764	-0.775105	0.371829
H85	H	1.702416	-0.750288	0.322226
H86	H	1.584960	-0.750353	0.353604
H87	H	1.670895	-0.750215	0.439639
C88	C	1.377339	-1.120727	0.647183
H89	H	1.386999	-1.193930	0.637579
H90	H	1.392663	-1.102680	0.717784
H91	H	1.306743	-1.102812	0.631733
H92	H	1.396431	-0.905989	0.627954
