data_functionalizedCrystal
_audit_creation_method	'MofGen! by Chris Wilmer'
_symmetry_space_group_name_H-M	'P1'
_symmetry_Int_Tables_number	1
_symmetry_cell_setting	triclinic
loop_
_symmetry_equiv_pos_as_xyz
  x,y,z
_cell_length_a	14.519709
_cell_length_b	15.072220
_cell_length_c	14.519709
_cell_angle_alpha	90.002063
_cell_angle_beta	96.319855
_cell_angle_gamma	89.993636
loop_
_atom_site_label
_atom_site_type_symbol
_atom_site_fract_x
_atom_site_fract_y
_atom_site_fract_z
O1	O	-1.223879	0.073658	0.120885
O2	O	-0.723879	0.573658	0.620885
O3	O	-0.955402	0.073688	0.135122
O4	O	-0.455402	0.573688	0.635122
O5	O	-1.096759	0.073664	-0.006235
O6	O	-0.596759	0.573664	0.493765
O7	O	-1.082522	0.073682	0.262242
O8	O	-0.582522	0.573682	0.762242
O9	O	-1.096724	-0.073901	-0.006227
O10	O	-0.596724	0.426099	0.493773
O11	O	-0.955367	-0.073877	0.135129
O12	O	-0.455367	0.426123	0.635129
O13	O	-1.223844	-0.073907	0.120893
O14	O	-0.723844	0.426093	0.620893
Zn15	Zn	-1.089600	-0.097321	0.128012
Zn16	Zn	-0.589600	0.402679	0.628012
Zn17	Zn	-1.089646	0.097102	0.128002
Zn18	Zn	-0.589646	0.597102	0.628002
O19	O	-1.082487	-0.073883	0.262250
O20	O	-0.582487	0.426117	0.762250
C21	C	-0.921025	-0.000091	0.134462
C22	C	-0.421025	0.499909	0.634462
C23	C	-0.818643	-0.000080	0.132474
C24	C	-0.318643	0.499920	0.632474
C25	C	-0.443748	-0.000117	0.125154
C26	C	0.056252	0.499883	0.625154
C27	C	-0.548056	-0.000107	0.127187
C28	C	-0.048056	0.499893	0.627187
C29	C	-0.631192	-0.000098	0.128814
C30	C	-0.131192	0.499902	0.628814
C31	C	-0.735507	-0.000089	0.130847
C32	C	-0.235507	0.499911	0.630847
N33	N	-1.089575	-0.230010	0.128019
N34	N	-0.589575	0.269990	0.628019
C35	C	-1.089644	-0.589212	0.127999
C36	C	-0.589644	-0.089212	0.627999
C37	C	-1.013752	-0.551592	0.203381
C38	C	-0.513752	-0.051592	0.703381
C39	C	-1.013927	-0.448766	0.203657
C40	C	-0.513927	0.051234	0.703657
C41	C	-1.089609	-0.411008	0.128009
C42	C	-0.589609	0.088992	0.628009
C43	C	-1.185870	-0.448308	0.149184
C44	C	-0.685870	0.051692	0.649184
C45	C	-1.185445	-0.551166	0.149720
C46	C	-0.685445	-0.051166	0.649720
C47	C	-1.070133	-0.551316	0.031218
C48	C	-0.570133	-0.051316	0.531218
C49	C	-1.067926	-0.448452	0.031859
C50	C	-0.567926	0.051548	0.531859
C51	C	-1.089595	-0.310294	0.128013
C52	C	-0.589595	0.189706	0.628013
C53	C	-1.089664	-0.689925	0.127997
C54	C	-0.589664	-0.189925	0.627997
C55	C	-0.258221	-0.000124	0.121553
C56	C	0.241779	0.499876	0.621553
C57	C	-0.360602	-0.000123	0.123541
C58	C	0.139398	0.499877	0.623541
C59	C	-1.096078	-0.000118	-0.040591
C60	C	-0.596078	0.499882	0.459409
C61	C	-1.094089	-0.000119	-0.142972
C62	C	-0.594089	0.499881	0.357028
N63	N	-1.089678	0.229791	0.127988
N64	N	-0.589678	0.729791	0.627988
C65	C	-1.086770	-0.000095	-0.517868
C66	C	-0.586770	0.499905	-0.017868
C67	C	-1.088803	-0.000102	-0.413560
C68	C	-0.588803	0.499898	0.086440
C69	C	-1.090430	-0.000108	-0.330423
C70	C	-0.590430	0.499892	0.169577
C71	C	-1.092463	-0.000113	-0.226109
C72	C	-0.592463	0.499887	0.273891
C73	C	-1.083168	-0.000099	0.296606
C74	C	-0.583168	0.499901	0.796606
C75	C	-1.085156	-0.000093	0.398987
C76	C	-0.585156	0.499907	0.898987
H77	H	-0.942380	-0.423548	0.191017
H78	H	-0.442380	0.076452	0.691017
H79	H	-1.026402	-0.424149	0.275473
H80	H	-0.526402	0.075851	0.775473
N81	N	-1.143435	-0.583536	-0.043097
N82	N	-0.643435	-0.083536	0.456903
H83	H	-1.189067	-0.622489	-0.014267
H84	H	-0.689067	-0.122489	0.485733
H85	H	-1.113169	-0.618705	-0.090764
H86	H	-0.613169	-0.118705	0.409236
N87	N	-0.918671	-0.584383	0.186919
N88	N	-0.418671	-0.084383	0.686919
H89	H	-0.871007	-0.559470	0.236045
H90	H	-0.371007	-0.059470	0.736045
H91	H	-0.904061	-0.564317	0.123771
H92	H	-0.404061	-0.064317	0.623771
H93	H	-1.203445	-0.422536	0.218967
H94	H	-0.703445	0.077464	0.718967
H95	H	-1.026057	-0.577427	0.274793
H96	H	-0.526057	-0.077427	0.774793
H97	H	-1.202614	-0.575145	0.220307
H98	H	-0.702614	-0.075145	0.720307
H99	H	-1.243690	-0.576050	0.096989
H100	H	-0.743690	-0.076050	0.596989
N101	N	-1.262478	-0.415920	0.078402
N102	N	-0.762478	0.084080	0.578402
H103	H	-1.235456	-0.376660	0.031818
H104	H	-0.735456	0.123340	0.531818
H105	H	-1.308958	-0.381033	0.110609
H106	H	-0.808958	0.118967	0.610609
N107	N	-0.979148	-0.585704	0.004306
N108	N	-0.479148	-0.085704	0.504306
H109	H	-0.949654	-0.626204	0.054584
H110	H	-0.449654	-0.126204	0.554584
H111	H	-0.936419	-0.534126	-0.003931
H112	H	-0.436419	-0.034126	0.496069
N113	N	-0.974097	-0.416223	0.010603
N114	N	-0.474097	0.083777	0.510603
H115	H	-0.945751	-0.377521	0.063025
H116	H	-0.445751	0.122479	0.563025
H117	H	-0.981349	-0.380798	-0.048795
H118	H	-0.481349	0.119202	0.451205
N119	N	-1.136376	-0.414426	-0.045950
N120	N	-0.636376	0.085574	0.454050
H121	H	-1.182620	-0.374077	-0.019859
H122	H	-0.682620	0.125923	0.480141
H123	H	-1.170003	-0.466181	-0.078541
H124	H	-0.670003	0.033819	0.421459
