data_functionalizedCrystal
_audit_creation_method	'MofGen! by Chris Wilmer'
_symmetry_space_group_name_H-M	'P1'
_symmetry_Int_Tables_number	1
_symmetry_cell_setting	triclinic
loop_
_symmetry_equiv_pos_as_xyz
  x,y,z
_cell_length_a	23.532361
_cell_length_b	23.532357
_cell_length_c	12.996460
_cell_angle_alpha	89.988323
_cell_angle_beta	89.998689
_cell_angle_gamma	82.828980
loop_
_atom_site_label
_atom_site_type_symbol
_atom_site_fract_x
_atom_site_fract_y
_atom_site_fract_z
O1	O	0.755265	0.069011	-0.085476
O2	O	1.255265	0.569011	0.414524
O3	O	0.589396	0.079042	-0.085502
O4	O	1.089396	0.579042	0.414498
O5	O	0.677347	-0.008908	-0.085467
O6	O	1.177347	0.491092	0.414533
O7	O	0.667314	0.156961	-0.085511
O8	O	1.167314	0.656961	0.414489
O9	O	0.677338	-0.008912	0.085667
O10	O	1.177338	0.491088	0.585667
O11	O	0.589387	0.079038	0.085631
O12	O	1.089387	0.579038	0.585631
O13	O	0.755256	0.069006	0.085658
O14	O	1.255256	0.569006	0.585658
Cu15	Cu	0.672321	0.074022	0.101271
Cu16	Cu	1.172321	0.574022	0.601271
Cu17	Cu	0.672331	0.074027	-0.101115
Cu18	Cu	1.172331	0.574027	0.398885
O19	O	0.667305	0.156957	0.085623
O20	O	1.167305	0.656957	0.585623
C21	C	0.568175	0.078789	0.000061
C22	C	1.068175	0.578789	0.500061
C23	C	0.504957	0.078034	0.000052
C24	C	1.004957	0.578034	0.500052
C25	C	0.231719	0.074733	-0.093226
C26	C	0.731719	0.574733	0.406774
C27	C	0.291118	0.075448	-0.093228
C28	C	0.791118	0.575448	0.406772
O29	O	0.321848	0.075800	-0.172562
O30	O	0.821848	0.575800	0.327438
N31	N	0.320819	0.075806	0.000057
N32	N	0.820819	0.575806	0.500057
C33	C	0.291118	0.075444	0.093351
C34	C	0.791118	0.575444	0.593351
O35	O	0.321835	0.075814	0.172697
O36	O	0.821835	0.575814	0.672697
C37	C	0.231720	0.074725	0.093353
C38	C	0.731720	0.574725	0.593353
C39	C	0.202021	0.074372	0.000061
C40	C	0.702021	0.574372	0.500061
C41	C	0.202020	0.074379	-0.186509
C42	C	0.702020	0.574379	0.313491
C43	C	0.142625	0.073665	-0.186506
C44	C	0.642625	0.573665	0.313494
C45	C	0.112927	0.073305	-0.093219
C46	C	0.612927	0.573305	0.406781
C47	C	0.142626	0.073658	0.000064
C48	C	0.642626	0.573658	0.500064
C49	C	0.202020	0.074359	0.186646
C50	C	0.702020	0.574359	0.686646
C51	C	0.142618	0.073639	0.186639
C52	C	0.642618	0.573639	0.686639
C53	C	0.112920	0.073286	0.093348
C54	C	0.612920	0.573286	0.593348
C55	C	0.053533	0.072584	0.093354
C56	C	0.553533	0.572584	0.593354
N57	N	0.023832	0.072225	0.000069
N58	N	0.523832	0.572225	0.500069
C59	C	0.053529	0.072586	-0.093218
C60	C	0.553529	0.572586	0.406782
C61	C	0.415858	0.076953	0.093341
C62	C	0.915858	0.576953	0.593341
C63	C	0.475254	0.077676	0.093340
C64	C	0.975254	0.577676	0.593340
C65	C	0.475251	0.077679	-0.093240
C66	C	0.975251	0.577679	0.406760
C67	C	0.415853	0.076960	-0.093238
C68	C	0.915853	0.576960	0.406762
C69	C	0.386157	0.076594	0.000055
C70	C	0.886157	0.576594	0.500055
C71	C	-0.071206	0.071087	-0.093204
C72	C	0.428794	0.571087	0.406796
C73	C	-0.130607	0.070376	-0.093193
C74	C	0.369393	0.570376	0.406807
C75	C	-0.130598	0.070370	0.093386
C76	C	0.369402	0.570370	0.593386
C77	C	-0.071203	0.071085	0.093376
C78	C	0.428797	0.571085	0.593376
C79	C	-0.041508	0.071441	0.000072
C80	C	0.458492	0.571441	0.500072
O81	O	0.022765	0.072229	0.172648
O82	O	0.522765	0.572229	0.672648
O83	O	0.022806	0.072208	-0.172551
O84	O	0.522806	0.572208	0.327449
C85	C	0.677092	-0.030127	0.000103
C86	C	1.177092	0.469873	0.500103
C87	C	0.676337	-0.093345	0.000112
C88	C	1.176337	0.406655	0.500112
C89	C	0.671605	-0.485353	-0.093229
C90	C	1.171605	0.014647	0.406771
C91	C	0.670888	-0.544752	-0.093235
C92	C	1.170888	-0.044752	0.406765
O93	O	0.670502	-0.575466	-0.172570
O94	O	1.170502	-0.075466	0.327430
N95	N	0.670527	-0.574466	0.000049
N96	N	1.170527	-0.074466	0.500049
C97	C	0.670878	-0.544777	0.093345
C98	C	1.170878	-0.044777	0.593345
O99	O	0.670505	-0.575505	0.172689
O100	O	1.170505	-0.075505	0.672689
C101	C	0.671591	-0.485378	0.093349
C102	C	1.171591	0.014622	0.593349
C103	C	0.671958	-0.455668	0.000060
C104	C	1.171958	0.044332	0.500060
C105	C	0.671971	-0.455643	-0.186511
C106	C	1.171971	0.044357	0.313489
C107	C	0.672689	-0.396248	-0.186505
C108	C	1.172689	0.103752	0.313495
C109	C	0.673042	-0.366563	-0.093216
C110	C	1.173042	0.133437	0.406784
C111	C	0.672676	-0.396273	0.000066
C112	C	1.172676	0.103727	0.500066
C113	C	0.671938	-0.455689	0.186644
C114	C	1.171938	0.044311	0.686644
C115	C	0.672651	-0.396286	0.186641
C116	C	1.172651	0.103714	0.686641
C117	C	0.673017	-0.366576	0.093351
C118	C	1.173017	0.133424	0.593351
C119	C	0.673747	-0.307193	0.093361
C120	C	1.173747	0.192807	0.593361
N121	N	0.674108	-0.277479	0.000077
N122	N	1.174108	0.222521	0.500077
C123	C	0.673755	-0.307164	-0.093211
C124	C	1.173755	0.192836	0.406789
C125	C	0.669380	-0.669518	0.093327
C126	C	1.169380	-0.169518	0.593327
C127	C	0.668671	-0.728916	0.093323
C128	C	1.168671	-0.228916	0.593323
C129	C	0.668679	-0.728888	-0.093257
C130	C	1.168679	-0.228888	0.406743
C131	C	0.669392	-0.669489	-0.093252
C132	C	1.169392	-0.169489	0.406748
C133	C	0.669740	-0.639804	0.000043
C134	C	1.169740	-0.139804	0.500043
C135	C	0.675264	-0.182430	-0.093191
C136	C	1.175264	0.317570	0.406809
C137	C	0.675985	-0.123030	-0.093176
C138	C	1.175985	0.376970	0.406824
C139	C	0.675973	-0.123063	0.093403
C140	C	1.175973	0.376937	0.593403
C141	C	0.675255	-0.182459	0.093389
C142	C	1.175255	0.317541	0.593389
C143	C	0.674899	-0.212140	0.000084
C144	C	1.174899	0.287860	0.500084
O145	O	0.674131	-0.276441	0.172656
O146	O	1.174131	0.223559	0.672656
O147	O	0.674121	-0.276428	-0.172542
O148	O	1.174121	0.223572	0.327458
C149	C	0.776477	0.069260	0.000092
C150	C	1.276477	0.569260	0.500092
C151	C	0.839695	0.070015	0.000094
C152	C	1.339695	0.570015	0.500094
C153	C	0.667560	0.178176	0.000050
C154	C	1.167560	0.678176	0.500050
C155	C	0.668315	0.241394	0.000034
C156	C	1.168315	0.741394	0.500034
N157	N	0.672317	0.074017	0.243618
N158	N	1.172317	0.574017	0.743618
N159	N	0.672339	0.074027	-0.243462
N160	N	1.172339	0.574027	0.256538
C161	C	0.672331	0.074028	0.663432
C162	C	1.172331	0.574028	1.163432
C163	C	0.672325	0.074027	0.546627
C164	C	1.172325	0.574027	1.046627
C165	C	0.672324	0.074023	0.453528
C166	C	1.172324	0.574023	0.953528
C167	C	0.672318	0.074021	0.336716
C168	C	1.172318	0.574021	0.836716
H169	H	0.391682	0.076663	0.169316
H170	H	0.891682	0.576663	0.669316
F171	F	0.668300	-0.760491	-0.192543
F172	F	1.168300	-0.260491	0.307457
H173	H	0.499428	0.077973	0.169307
H174	H	0.999428	0.577973	0.669307
F175	F	0.671595	-0.487227	-0.285811
F176	F	1.171595	0.012773	0.214189
H177	H	0.674971	-0.206589	-0.169169
H178	H	1.174971	0.293411	0.330831
H179	H	0.118450	0.073376	-0.262474
H180	H	0.618450	0.573376	0.237526
F181	F	0.668291	-0.760531	0.192615
F182	F	1.168291	-0.260531	0.692615
F183	F	0.674876	-0.214081	0.192678
F184	F	1.174876	0.285919	0.692678
F185	F	0.233614	0.074734	0.285941
F186	F	0.733614	0.574734	0.785941
F187	F	0.673075	-0.364635	-0.285798
F188	F	1.173075	0.135365	0.214202
H189	H	0.669690	-0.645303	-0.169217
H190	H	1.169690	-0.145303	0.330783
F191	F	0.669754	-0.637931	0.192631
F192	F	1.169754	-0.137931	0.692631
H193	H	0.672926	-0.372119	0.262615
H194	H	1.172926	0.127881	0.762615
H195	H	-0.154789	0.070079	0.169338
H196	H	0.345211	0.570079	0.669338
F197	F	0.676349	-0.091460	0.192682
F198	F	1.176349	0.408540	0.692682
F199	F	-0.162211	0.070002	-0.192491
F200	F	0.337789	0.570002	0.307509
F201	F	-0.039611	0.071467	-0.192508
F202	F	0.460389	0.571467	0.307492
H203	H	-0.047023	0.071383	0.169341
H204	H	0.452977	0.571383	0.669341
F205	F	0.233618	0.074761	-0.285807
F206	F	0.733618	0.574761	0.214193
F207	F	0.384251	0.076583	-0.192531
F208	F	0.884251	0.576583	0.307469
H209	H	0.499441	0.077972	-0.169199
H210	H	0.999441	0.577972	0.330801
F211	F	0.676376	-0.091414	-0.192472
F212	F	1.176376	0.408586	0.307528
F213	F	0.671546	-0.487295	0.285938
F214	F	1.171546	0.012705	0.785938
H215	H	0.118442	0.073347	0.262612
H216	H	0.618442	0.573347	0.762612
