data_functionalizedCrystal
_audit_creation_method	'MofGen! by Chris Wilmer'
_symmetry_space_group_name_H-M	'P1'
_symmetry_Int_Tables_number	1
_symmetry_cell_setting	triclinic
loop_
_symmetry_equiv_pos_as_xyz
  x,y,z
_cell_length_a	13.897449
_cell_length_b	13.897448
_cell_length_c	18.215399
_cell_angle_alpha	89.971263
_cell_angle_beta	89.984477
_cell_angle_gamma	90.018972
loop_
_atom_site_label
_atom_site_type_symbol
_atom_site_fract_x
_atom_site_fract_y
_atom_site_fract_z
Zn1	Zn	1.474653	-0.383969	-0.416099
Zn2	Zn	1.474562	-0.545285	-0.293036
Zn3	Zn	1.313357	-0.384010	-0.293049
Zn4	Zn	1.313324	-0.545227	-0.416064
O5	O	1.393974	-0.464623	-0.354562
O6	O	1.609622	-0.405375	-0.399783
O7	O	1.453153	-0.523933	-0.190053
O8	O	1.334805	-0.249023	-0.309392
O9	O	1.609555	-0.523894	-0.309370
O10	O	1.453309	-0.248993	-0.399796
O11	O	1.334717	-0.405445	-0.190063
O12	O	1.178371	-0.405388	-0.309358
O13	O	1.334749	-0.523795	-0.519053
O14	O	1.178347	-0.523834	-0.399736
O15	O	1.453277	-0.405319	-0.519078
O16	O	1.453121	-0.680259	-0.309336
O17	O	1.334660	-0.680217	-0.399724
C18	C	1.393903	-0.715237	-0.354540
C19	C	1.393962	-0.822451	-0.354556
C20	C	1.143360	-0.464610	-0.354545
C21	C	1.036146	-0.464628	-0.354555
C22	C	0.839850	-0.464631	-0.354574
C23	C	0.949083	-0.464626	-0.354562
C24	C	1.394063	-1.018746	-0.354602
C25	C	1.394004	-0.909514	-0.354579
C26	C	1.645567	-0.464636	-0.354579
C27	C	1.752781	-0.464642	-0.354586
C28	C	1.394019	-0.464546	-0.546515
C29	C	1.394039	-0.464513	-0.628314
C30	C	1.394071	-0.213030	-0.354599
C31	C	1.394112	-0.105816	-0.354615
C32	C	1.332421	-0.402774	-0.816514
C33	C	1.332438	-0.402755	-0.893372
C34	C	1.455772	-0.526137	-0.893352
C35	C	1.455750	-0.526160	-0.816494
C36	C	1.394076	-0.464473	-0.778077
C37	C	1.394115	-0.464430	-0.931793
C38	C	1.394133	-0.464410	-1.015127
C39	C	1.394055	-0.464495	-0.694738
C40	C	1.393984	-0.464630	-0.163355
C41	C	1.394151	-0.464391	-0.081557
H42	H	1.282232	-0.352514	-0.924664
H43	H	1.505985	-0.576359	-0.924640
O44	O	1.515598	-0.586232	-0.779233
C45	C	1.494473	-0.682364	-0.797979
H46	H	1.457413	-0.684347	-0.853782
H47	H	1.444853	-0.714863	-0.754716
C48	C	1.634006	-0.738360	-0.732978
C49	C	1.588495	-0.740796	-0.801519
H50	H	1.692002	-0.774406	-0.735158
H51	H	1.648237	-0.673595	-0.720346
H52	H	1.592647	-0.765441	-0.696932
H53	H	1.629850	-0.713705	-0.837561
H54	H	1.574274	-0.805559	-0.814157
O55	O	1.272415	-0.342832	-0.779308
C56	C	1.218016	-0.288357	-0.829719
H57	H	1.214684	-0.327849	-0.884497
H58	H	1.253361	-0.215093	-0.837908
C59	C	1.119442	-0.225964	-0.732444
C60	C	1.115342	-0.274473	-0.799723
H61	H	1.056109	-0.217395	-0.713941
H62	H	1.156093	-0.262662	-0.698481
H63	H	1.148900	-0.164916	-0.739278
H64	H	1.085895	-0.335524	-0.792886
H65	H	1.078683	-0.237785	-0.833684
