data_functionalizedCrystal
_audit_creation_method	'MofGen! by Chris Wilmer'
_symmetry_space_group_name_H-M	'P1'
_symmetry_Int_Tables_number	1
_symmetry_cell_setting	triclinic
loop_
_symmetry_equiv_pos_as_xyz
  x,y,z
_cell_length_a	19.805407
_cell_length_b	19.077068
_cell_length_c	19.805399
_cell_angle_alpha	92.269429
_cell_angle_beta	89.980427
_cell_angle_gamma	92.327086
loop_
_atom_site_label
_atom_site_type_symbol
_atom_site_fract_x
_atom_site_fract_y
_atom_site_fract_z
Zn1	Zn	1.023904	-0.280218	-0.393534
Zn2	Zn	1.523904	0.219782	0.106466
Zn3	Zn	1.019269	-0.397917	-0.284888
Zn4	Zn	1.519269	0.102083	0.215112
Zn5	Zn	0.910718	-0.280237	-0.280359
Zn6	Zn	1.410718	0.219763	0.219641
Zn7	Zn	0.906134	-0.397880	-0.398033
Zn8	Zn	1.406134	0.102120	0.101967
O9	O	0.965006	-0.339063	-0.339204
O10	O	1.465006	0.160937	0.160796
O11	O	1.118005	-0.295839	-0.379134
O12	O	1.618005	0.204161	0.120866
O13	O	1.004848	-0.382330	-0.189571
O14	O	1.504848	0.117670	0.310429
O15	O	0.929590	-0.181744	-0.291594
O16	O	1.429590	0.318256	0.208406
O17	O	1.114600	-0.382312	-0.299312
O18	O	1.614600	0.117688	0.200688
O19	O	1.012748	-0.181729	-0.374743
O20	O	1.512748	0.318271	0.125257
O21	O	0.925096	-0.295872	-0.186244
O22	O	1.425096	0.204128	0.313756
O23	O	0.815394	-0.295835	-0.295957
O24	O	1.315394	0.204165	0.204043
O25	O	0.921778	-0.382248	-0.492152
O26	O	1.421778	0.117752	0.007848
O27	O	0.812026	-0.382267	-0.382411
O28	O	1.312026	0.117733	0.117589
O29	O	1.008303	-0.295802	-0.488846
O30	O	1.508303	0.204198	0.011154
O31	O	1.000404	-0.496403	-0.303675
O32	O	1.500404	0.003597	0.196325
O33	O	0.917284	-0.496376	-0.386802
O34	O	1.417284	0.003624	0.113198
C35	C	0.789151	-0.339050	-0.339181
C36	C	1.289151	0.160950	0.160819
C37	C	0.713918	-0.339061	-0.339188
C38	C	1.213918	0.160939	0.160812
C39	C	0.676836	-0.384133	-0.384138
C40	C	1.176836	0.115867	0.115862
C41	C	0.606147	-0.384135	-0.384147
C42	C	1.106147	0.115865	0.115853
C43	C	0.572543	-0.339066	-0.339204
C44	C	1.072543	0.160934	0.160796
C45	C	0.609630	-0.293989	-0.294252
C46	C	1.109630	0.206011	0.205748
C47	C	0.680318	-0.293985	-0.294246
C48	C	1.180318	0.206015	0.205754
C49	C	0.324556	-0.294004	-0.294275
C50	C	0.824556	0.205996	0.205725
C51	C	0.253864	-0.294014	-0.294283
C52	C	0.753864	0.205986	0.205717
C53	C	0.250386	-0.384154	-0.384176
C54	C	0.750386	0.115846	0.115824
C55	C	0.321073	-0.384150	-0.384170
C56	C	0.821073	0.115850	0.115830
C57	C	0.358155	-0.339070	-0.339221
C58	C	0.858155	0.160930	0.160779
C59	C	0.434804	-0.339069	-0.339212
C60	C	0.934804	0.160931	0.160788
C61	C	0.495895	-0.339071	-0.339209
C62	C	0.995895	0.160929	0.160791
C63	C	0.957862	-0.521927	-0.346233
C64	C	1.457862	-0.021927	0.153767
C65	C	0.954867	-0.600157	-0.349263
C66	C	1.454867	-0.100157	0.150737
C67	C	0.996770	-0.636901	-0.307443
C68	C	1.496770	-0.136901	0.192557
C69	C	0.993957	-0.710406	-0.310296
C70	C	1.493957	-0.210406	0.189704
C71	C	0.949238	-0.747167	-0.354968
C72	C	1.449238	-0.247167	0.145032
C73	C	0.907333	-0.710418	-0.396793
C74	C	1.407333	-0.210418	0.103207
C75	C	0.910150	-0.636914	-0.393942
C76	C	1.410150	-0.136914	0.106058
C77	C	0.936174	-0.967002	-0.368135
C78	C	1.436174	-0.467002	0.131865
C79	C	0.933359	-1.040511	-0.370981
C80	C	1.433359	-0.540511	0.129019
C81	C	1.019984	-1.040494	-0.284485
C82	C	1.519984	-0.540494	0.215515
C83	C	1.022794	-0.966989	-0.281635
C84	C	1.522794	-0.466989	0.218365
C85	C	0.980892	-0.930246	-0.323463
C86	C	1.480892	-0.430246	0.176537
N87	N	0.946361	-0.822301	-0.357884
N88	N	1.446361	-0.322301	0.142116
N89	N	0.983773	-0.855113	-0.320549
N90	N	1.483773	-0.355113	0.179451
C91	C	1.141548	-0.339077	-0.339226
C92	C	1.641548	0.160923	0.160774
C93	C	1.216780	-0.339083	-0.339236
C94	C	1.716780	0.160917	0.160764
C95	C	0.965046	-0.339019	-0.515745
C96	C	1.465046	0.160981	-0.015745
C97	C	0.965063	-0.339000	-0.590976
C98	C	1.465063	0.161000	-0.090976
C99	C	0.972197	-0.155485	-0.332161
C100	C	1.472197	0.344515	0.167839
C101	C	0.975262	-0.077255	-0.329160
C102	C	1.475262	0.422745	0.170840
C103	C	1.010118	-0.293985	-0.624600
C104	C	1.510118	0.206015	-0.124600
C105	C	1.010125	-0.293965	-0.695288
C106	C	1.510125	0.206035	-0.195288
C107	C	0.965081	-0.338963	-0.732350
C108	C	1.465081	0.161037	-0.232350
C109	C	0.920022	-0.383980	-0.698721
C110	C	1.420022	0.116020	-0.198721
C111	C	0.920011	-0.383996	-0.628035
C112	C	1.420011	0.116004	-0.128035
C113	C	0.920062	-0.383914	-0.983792
C114	C	1.420062	0.116086	-0.483792
C115	C	0.920078	-0.383896	-1.054484
C116	C	1.420078	0.116104	-0.554484
C117	C	1.010177	-0.293883	-1.051045
C118	C	1.510177	0.206117	-0.551045
C119	C	1.010166	-0.293899	-0.980358
C120	C	1.510166	0.206101	-0.480358
C121	C	0.965104	-0.338913	-0.946736
C122	C	1.465104	0.161087	-0.446736
C123	C	0.965096	-0.338934	-0.870088
C124	C	1.465096	0.161066	-0.370088
C125	C	0.965093	-0.338947	-0.808997
C126	C	1.465093	0.161053	-0.308997
C127	C	0.965008	-0.339056	-0.163347
C128	C	1.465008	0.160944	0.336653
C129	C	0.965130	-0.338877	-0.088109
C130	C	1.465130	0.161123	0.411891
H131	H	0.220186	-0.420858	-0.420778
H132	H	0.720186	0.079142	0.079222
H133	H	0.896951	-1.070439	-0.407369
H134	H	1.396951	-0.570439	0.092631
C135	C	1.059741	-0.244360	-1.088032
C136	C	1.559741	0.255640	-0.588032
C137	C	1.111691	-0.274850	-1.137810
C138	C	1.611691	0.225150	-0.637810
C139	C	1.161255	-0.225331	-1.174794
C140	C	1.661255	0.274669	-0.674794
C141	C	1.158869	-0.145321	-1.162001
C142	C	1.658869	0.354679	-0.662001
C143	C	1.106917	-0.114827	-1.112220
C144	C	1.606917	0.385173	-0.612220
C145	C	1.057353	-0.164346	-1.075236
C146	C	1.557353	0.335654	-0.575236
H147	H	1.113459	-0.334082	-1.147282
H148	H	1.613459	0.165918	-0.647282
H149	H	1.199713	-0.247905	-1.211645
H150	H	1.699713	0.252095	-0.711645
H151	H	1.195560	-0.108664	-1.189379
H152	H	1.695560	0.391336	-0.689379
H153	H	1.105149	-0.055596	-1.102748
H154	H	1.605149	0.444404	-0.602748
H155	H	1.018895	-0.141772	-1.038385
H156	H	1.518895	0.358228	-0.538385
C157	C	0.565359	-0.433722	-0.433589
C158	C	1.065359	0.066278	0.066411
C159	C	0.514595	-0.488940	-0.406297
C160	C	1.014595	0.011060	0.093703
C161	C	0.473809	-0.538530	-0.455741
C162	C	0.973809	-0.038530	0.044259
C163	C	0.483786	-0.532902	-0.532478
C164	C	0.983786	-0.032902	-0.032478
C165	C	0.534552	-0.477682	-0.559775
C166	C	1.034552	0.022318	-0.059775
C167	C	0.575339	-0.428091	-0.510330
C168	C	1.075339	0.071909	-0.010330
H169	H	0.507207	-0.493108	-0.349488
H170	H	1.007207	0.006892	0.150512
H171	H	0.436228	-0.579408	-0.435534
H172	H	0.936228	-0.079408	0.064466
H173	H	0.453593	-0.569612	-0.569080
H174	H	0.953593	-0.069612	-0.069080
H175	H	0.541940	-0.473514	-0.616584
H176	H	1.041940	0.026486	-0.116584
H177	H	0.612919	-0.387214	-0.530537
H178	H	1.112919	0.112786	-0.030537
H179	H	1.046848	-0.257260	-0.950185
H180	H	1.546848	0.242740	-0.450185
H181	H	1.046800	-0.257345	-0.594428
H182	H	1.546800	0.242655	-0.094428
H183	H	0.710510	-0.257278	-0.257647
H184	H	1.210510	0.242722	0.242353
H185	H	0.883316	-0.420644	-0.600659
H186	H	1.383316	0.079356	-0.100659
H187	H	0.582264	-0.257290	-0.257661
H188	H	1.082264	0.242710	0.242339
C189	C	1.045963	-0.596468	-0.258303
C190	C	1.545963	-0.096468	0.241697
C191	C	1.101024	-0.545870	-0.285720
C192	C	1.601024	-0.045870	0.214280
C193	C	1.150221	-0.505440	-0.236581
C194	C	1.650221	-0.005440	0.263419
C195	C	1.144358	-0.515608	-0.160025
C196	C	1.644358	-0.015608	0.339975
C197	C	1.089295	-0.566209	-0.132604
C198	C	1.589295	-0.066209	0.367396
C199	C	1.040098	-0.606639	-0.181743
C200	C	1.540098	-0.106639	0.318257
H201	H	1.105366	-0.538341	-0.342395
H202	H	1.605366	-0.038341	0.157605
H203	H	1.190982	-0.467982	-0.256880
H204	H	1.690982	0.032018	0.243120
H205	H	1.180776	-0.485679	-0.123650
H206	H	1.680776	0.014321	0.376350
H207	H	1.084953	-0.573738	-0.075929
H208	H	1.584953	-0.073738	0.424071
H209	H	0.999337	-0.644097	-0.161444
H210	H	1.499337	-0.144097	0.338556
H211	H	0.704191	-0.420836	-0.420734
H212	H	1.204191	0.079164	0.079266
H213	H	1.028079	-0.740320	-0.276241
H214	H	1.528079	-0.240320	0.223759
H215	H	1.059207	-0.937060	-0.245260
H216	H	1.559207	-0.437060	0.254740
H217	H	0.883394	-0.420540	-1.084658
H218	H	1.383394	0.079460	-0.584658
C219	C	0.890080	-0.926596	-0.414146
C220	C	1.390080	-0.426596	0.085854
C221	C	0.812748	-0.936774	-0.408948
C222	C	1.312748	-0.436774	0.091052
C223	C	0.766653	-0.896367	-0.454964
C224	C	1.266653	-0.396367	0.045036
C225	C	0.797889	-0.845782	-0.506177
C226	C	1.297889	-0.345782	-0.006177
C227	C	0.875225	-0.835602	-0.511377
C228	C	1.375225	-0.335602	-0.011377
C229	C	0.921320	-0.876009	-0.465361
C230	C	1.421320	-0.376009	0.034639
H231	H	0.789621	-0.974222	-0.371035
H232	H	1.289621	-0.474222	0.128965
H233	H	0.709403	-0.903904	-0.451115
H234	H	1.209403	-0.403904	0.048885
H235	H	0.763766	-0.815870	-0.540241
H236	H	1.263766	-0.315870	-0.040241
H237	H	0.898352	-0.798154	-0.549290
H238	H	1.398352	-0.298154	-0.049290
H239	H	0.978570	-0.868472	-0.469210
H240	H	1.478570	-0.368472	0.030790
C241	C	0.864054	-0.596492	-0.439943
C242	C	1.364054	-0.096492	0.060057
C243	C	0.786722	-0.606664	-0.434741
C244	C	1.286722	-0.106664	0.065259
C245	C	0.740627	-0.566243	-0.480745
C246	C	1.240627	-0.066243	0.019255
C247	C	0.771864	-0.515650	-0.531951
C248	C	1.271864	-0.015650	-0.031951
C249	C	0.849201	-0.505476	-0.537154
C250	C	1.349201	-0.005476	-0.037154
C251	C	0.895296	-0.545897	-0.491150
C252	C	1.395296	-0.045897	0.008850
H253	H	0.763595	-0.644118	-0.396834
H254	H	1.263595	-0.144118	0.103166
H255	H	0.683378	-0.573774	-0.476893
H256	H	1.183378	-0.073774	0.023107
H257	H	0.737742	-0.485727	-0.566006
H258	H	1.237742	0.014273	-0.066006
H259	H	0.872328	-0.468021	-0.575062
H260	H	1.372328	0.031979	-0.075062
H261	H	0.952545	-0.538365	-0.495003
H262	H	1.452545	-0.038365	0.004997
H263	H	0.226505	-0.257309	-0.257684
H264	H	0.726505	0.242691	0.242316
C265	C	0.870488	-0.433406	-0.946798
C266	C	1.370488	0.066594	-0.446798
C267	C	0.897620	-0.488670	-0.900304
C268	C	1.397620	0.011330	-0.400304
C269	C	0.848037	-0.538152	-0.863299
C270	C	1.348037	-0.038152	-0.363299
C271	C	0.771323	-0.532370	-0.872787
C272	C	1.271323	-0.032370	-0.372787
C273	C	0.744187	-0.477104	-0.919282
C274	C	1.244187	0.022896	-0.419282
C275	C	0.793769	-0.427622	-0.956287
C276	C	1.293769	0.072378	-0.456287
H277	H	0.954412	-0.492952	-0.893279
H278	H	1.454412	0.007048	-0.393279
H279	H	0.868126	-0.579064	-0.828880
H280	H	1.368126	-0.079064	-0.328880
H281	H	0.734619	-0.569000	-0.845393
H282	H	1.234619	-0.069000	-0.345393
H283	H	0.687394	-0.472822	-0.926307
H284	H	1.187394	0.027178	-0.426307
H285	H	0.773681	-0.386710	-0.990706
H286	H	1.273681	0.113290	-0.490706
H287	H	0.348430	-0.420852	-0.420766
H288	H	0.848430	0.079148	0.079234
H289	H	0.354740	-0.257303	-0.257670
H290	H	0.854740	0.242697	0.242330
H291	H	1.046815	-0.257311	-0.722661
H292	H	1.546815	0.242689	-0.222661
H293	H	1.054099	-1.070418	-0.250432
H294	H	1.554099	-0.570418	0.249568
H295	H	0.870925	-0.740354	-0.433168
H296	H	1.370925	-0.240354	0.066832
H297	H	0.883343	-0.420615	-0.728903
H298	H	1.383343	0.079385	-0.228903
