data_functionalizedCrystal
_audit_creation_method	'MofGen! by Chris Wilmer'
_symmetry_space_group_name_H-M	'P1'
_symmetry_Int_Tables_number	1
_symmetry_cell_setting	triclinic
loop_
_symmetry_equiv_pos_as_xyz
  x,y,z
_cell_length_a	34.408637
_cell_length_b	34.407814
_cell_length_c	34.404193
_cell_angle_alpha	60.004510
_cell_angle_beta	60.009006
_cell_angle_gamma	59.994604
loop_
_atom_site_label
_atom_site_type_symbol
_atom_site_fract_x
_atom_site_fract_y
_atom_site_fract_z
O1	O	0.053973	-0.567860	0.474801
O2	O	0.020377	-0.442124	0.382567
O3	O	0.100004	-0.521670	0.382483
O4	O	-0.025653	-0.488314	0.474886
O5	O	0.126426	-0.495253	0.408816
O6	O	0.046800	-0.415707	0.408900
O7	O	0.080396	-0.541443	0.501134
Zn8	Zn	0.067793	-0.474381	0.459198
Zn9	Zn	0.032980	-0.509186	0.424503
O10	O	0.000769	-0.461897	0.501219
N11	N	0.091552	-0.450631	0.482879
N12	N	0.009225	-0.532940	0.400823
C13	C	0.142848	-0.268847	0.534081
C14	C	0.142979	-0.399386	0.664559
C15	C	0.142862	-0.399365	0.534081
C16	C	0.273409	-0.399338	0.533986
C17	C	0.157225	-0.311914	0.548422
C18	C	0.157300	-0.385019	0.621491
C19	C	0.230339	-0.384991	0.548370
C20	C	0.157235	-0.385007	0.548422
C21	C	0.124548	-0.214028	0.515827
C22	C	0.124571	-0.417639	0.515827
C23	C	0.175526	-0.366733	0.566676
C24	C	0.353121	-0.385580	0.491988
C25	C	0.402952	-0.402180	0.475348
C26	C	0.402981	-0.482812	0.506096
C27	C	0.353151	-0.466211	0.522737
C28	C	0.136544	-0.189099	0.466839
C29	C	0.119905	-0.139265	0.450247
C30	C	0.079280	-0.139291	0.531632
C31	C	0.095918	-0.189125	0.548224
C32	C	0.075577	-0.405615	0.527900
C33	C	0.058953	-0.422228	0.511301
C34	C	0.140315	-0.462889	0.470566
C35	C	0.156941	-0.446276	0.487159
C36	C	0.075772	-0.405653	0.744326
C37	C	0.059206	-0.422280	0.794159
C38	C	0.140607	-0.462951	0.794094
C39	C	0.157172	-0.446325	0.744260
C40	C	0.124753	-0.417674	0.719377
C41	C	0.328223	-0.417595	0.515681
C42	C	-0.172390	-0.583988	0.349141
C43	C	-0.041751	-0.584138	0.218783
C44	C	-0.041941	-0.584130	0.349402
C45	C	-0.041957	-0.714607	0.349338
C46	C	-0.129326	-0.598388	0.334853
C47	C	-0.056165	-0.598473	0.261852
C48	C	-0.056282	-0.671535	0.334962
C49	C	-0.056272	-0.598469	0.334999
C50	C	-0.227205	-0.565659	0.367327
C51	C	-0.023703	-0.565882	0.367734
C52	C	-0.074511	-0.616717	0.316667
C53	C	-0.055754	-0.794298	0.391257
C54	C	-0.039181	-0.844132	0.407888
C55	C	0.041447	-0.844215	0.377269
C56	C	0.024873	-0.794381	0.360637
C57	C	-0.252183	-0.577666	0.416302
C58	C	-0.302014	-0.561001	0.432833
C59	C	-0.301886	-0.520329	0.351410
C60	C	-0.252055	-0.536994	0.334880
C61	C	-0.035709	-0.516892	0.355682
C62	C	-0.019129	-0.500308	0.372353
C63	C	0.021465	-0.581700	0.413115
C64	C	0.004884	-0.598286	0.396450
C65	C	-0.035389	-0.516907	0.139026
C66	C	-0.018707	-0.500324	0.089193
C67	C	0.021949	-0.581721	0.089240
C68	C	0.005268	-0.598303	0.139074
C69	C	-0.023402	-0.565894	0.163965
C70	C	-0.023728	-0.769425	0.367633
N71	N	0.427173	-0.450553	0.482630
O72	O	0.589997	-0.458460	0.365361
O73	O	0.590185	-0.550997	0.490963
O74	O	0.590104	-0.550786	0.411309
O75	O	0.590077	-0.458671	0.445016
O76	O	0.510940	-0.524462	0.437777
O77	O	0.511020	-0.524674	0.517432
O78	O	0.510832	-0.432136	0.391830
Zn79	Zn	0.498357	-0.474225	0.458833
Zn80	Zn	0.602660	-0.508908	0.423960
O81	O	0.510913	-0.432348	0.471484
N82	N	0.673844	-0.532580	0.400158
N83	N	0.091520	-0.115070	0.482873
O84	O	-0.025663	0.047841	0.474857
O85	O	0.099940	0.047877	0.382299
O86	O	0.020247	0.047844	0.382560
O87	O	0.054030	0.047874	0.474596
O88	O	0.046674	-0.031326	0.408942
O89	O	0.126367	-0.031293	0.408680
O90	O	0.000764	-0.031329	0.501238
Zn91	Zn	0.067761	-0.043881	0.459148
Zn92	Zn	0.032943	0.060429	0.424389
O93	O	0.080457	-0.031296	0.500977
N94	N	0.009178	0.131618	0.400665
N95	N	0.091852	-0.450680	0.818332
O96	O	0.083862	-0.567845	0.981235
O97	O	-0.008657	-0.442198	0.981276
O98	O	-0.008441	-0.521875	0.981252
O99	O	0.083646	-0.488168	0.981258
O100	O	0.017919	-0.495468	0.902085
O101	O	0.017703	-0.415791	0.902109
O102	O	0.110222	-0.541438	0.902067
Zn103	Zn	0.068148	-0.474422	0.889518
Zn104	Zn	0.033417	-0.509214	0.993825
O105	O	0.110006	-0.461761	0.902091
N106	N	0.009712	-0.532961	1.065011
C107	C	0.030439	-0.413071	0.383027
C108	C	0.129046	-0.511580	0.382922
C109	C	0.070334	-0.570496	0.500675
C110	C	-0.028274	-0.471987	0.500780
C111	C	0.550625	-0.550579	0.520021
C112	C	0.550527	-0.550317	0.421379
C113	C	0.550389	-0.432554	0.362773
C114	C	0.550491	-0.432816	0.461414
C115	C	0.128944	0.008394	0.382712
C116	C	0.030287	0.008256	0.383068
C117	C	-0.028273	0.008252	0.500793
C118	C	0.070417	0.008292	0.500470
C119	C	-0.008218	-0.413165	0.941698
C120	C	-0.007945	-0.511830	0.941653
C121	C	0.109783	-0.570471	0.941646
C122	C	0.109516	-0.471800	0.941673
H123	H	0.049370	-0.382321	0.724071
H124	H	0.138832	-0.606554	0.941627
H125	H	-0.064365	-0.464880	0.529794
O126	O	0.550753	-0.585297	0.563015
C127	C	0.591784	-0.625378	0.556702
H128	H	0.605417	-0.624831	0.518717
H129	H	0.620503	-0.624509	0.563500
C130	C	0.562649	-0.671747	0.638587
C131	C	0.579391	-0.671077	0.591935
H132	H	0.555006	-0.699936	0.660321
H133	H	0.535006	-0.644743	0.642841
H134	H	0.586584	-0.671021	0.644245
H135	H	0.555454	-0.671797	0.586275
H136	H	0.607030	-0.698082	0.587681
O137	O	0.078965	-0.613619	0.535177
C138	C	0.125749	-0.643134	0.517900
H139	H	0.138296	-0.630159	0.477355
H140	H	0.150381	-0.641819	0.529934
C141	C	0.111220	-0.710615	0.587340
C142	C	0.126629	-0.694682	0.537542
H143	H	0.111765	-0.742413	0.599458
H144	H	0.079702	-0.690730	0.598981
H145	H	0.131749	-0.709515	0.597362
H146	H	0.106097	-0.695776	0.527521
H147	H	0.158145	-0.714569	0.525900
H148	H	0.550540	-0.579254	0.414165
H149	H	0.550329	-0.403500	0.326702
O150	O	0.143987	-0.463112	0.941647
C151	C	0.126643	-0.416323	0.941672
H152	H	0.096077	-0.393800	0.926695
H153	H	0.113380	-0.417029	0.979655
C154	C	0.204445	-0.422348	0.929017
C155	C	0.166906	-0.394684	0.910618
H156	H	0.229281	-0.409000	0.909863
H157	H	0.216130	-0.453871	0.929001
H158	H	0.193386	-0.422933	0.960669
H159	H	0.177963	-0.394103	0.878969
H160	H	0.155223	-0.363160	0.910627
O161	O	0.550458	-0.398338	0.470100
C162	C	0.550531	-0.415686	0.516873
H163	H	0.535584	-0.446264	0.539401
H164	H	0.588524	-0.428937	0.516133
C165	C	0.537839	-0.337873	0.510865
C166	C	0.519476	-0.375427	0.538535
H167	H	0.518685	-0.313040	0.524227
H168	H	0.537791	-0.326186	0.479353
H169	H	0.569499	-0.348922	0.510251
H170	H	0.487819	-0.364380	0.539145
H171	H	0.519517	-0.387112	0.570049
H172	H	0.019320	-0.412483	0.814467
H173	H	0.164941	0.008624	0.353583
H174	H	-0.037264	-0.377079	0.941710
H175	H	0.167007	-0.486271	0.814352
O176	O	0.021674	0.008152	0.348613
C177	C	0.010476	-0.032860	0.365035
H178	H	0.025858	-0.061503	0.394589
H179	H	-0.029833	-0.023604	0.379406
C180	C	0.013026	-0.016289	0.287343
C181	C	0.031922	-0.051471	0.323638
H182	H	0.026253	-0.027768	0.261807
H183	H	0.020569	0.011343	0.276279
H184	H	-0.020564	-0.008579	0.299325
H185	H	0.065510	-0.059176	0.311658
H186	H	0.024385	-0.079104	0.334699
O187	O	0.204771	-0.458029	0.720100
C188	C	0.229829	-0.486887	0.752750
H189	H	0.206086	-0.480540	0.788282
H190	H	0.240587	-0.525921	0.758039
C191	C	0.303904	-0.482054	0.689633
C192	C	0.274743	-0.474254	0.733272
H193	H	0.331610	-0.474263	0.677617
H194	H	0.287022	-0.462613	0.667635
H195	H	0.312864	-0.514582	0.694046
H196	H	0.265779	-0.441725	0.728857
H197	H	0.291624	-0.493689	0.755268
O198	O	-0.071340	0.008270	0.535398
C199	C	-0.100980	0.008247	0.518290
H200	H	-0.088110	0.023228	0.477743
H201	H	-0.099690	-0.029738	0.530403
C202	C	-0.168291	0.020894	0.587813
C203	C	-0.152486	0.039299	0.538012
H204	H	-0.200063	0.040047	0.599980
H205	H	-0.148323	0.020909	0.599340
H206	H	-0.167212	-0.010759	0.597901
H207	H	-0.153560	0.070949	0.527926
H208	H	-0.172456	0.039290	0.526484
O209	O	0.079134	0.008271	0.534925
C210	C	0.125920	0.008296	0.517561
H211	H	0.148422	-0.006684	0.486998
H212	H	0.125208	0.046281	0.504285
C213	C	0.119955	-0.004356	0.595348
C214	C	0.147593	-0.022758	0.557814
H215	H	0.133324	-0.023510	0.620178
H216	H	0.088434	-0.004371	0.607047
H217	H	0.119364	0.027297	0.584279
H218	H	0.148179	-0.054408	0.568882
H219	H	0.179116	-0.022749	0.546118
H220	H	-0.036863	-0.519031	0.941619
H221	H	0.049217	-0.382297	0.551240
H222	H	0.019058	-0.412426	0.521121
H223	H	0.166679	-0.486211	0.447227
H224	H	0.196836	-0.456064	0.477324
H225	H	0.165136	-0.518689	0.353905
O226	O	0.329040	-0.497374	0.545725
C227	C	0.361733	-0.543843	0.548390
H228	H	0.397237	-0.541936	0.518941
H229	H	0.367067	-0.562867	0.584492
C230	C	0.298671	-0.573823	0.578485
C231	C	0.342277	-0.571481	0.542312
H232	H	0.286670	-0.590873	0.574738
H233	H	0.276645	-0.542517	0.576691
H234	H	0.303122	-0.589676	0.608566
H235	H	0.337825	-0.555624	0.512232
H236	H	0.364302	-0.602786	0.544100
H237	H	0.423275	-0.522397	0.511838
H238	H	0.423225	-0.376108	0.456057
O239	O	0.021913	-0.370023	0.348405
C240	C	0.027189	-0.376235	0.308301
H241	H	0.051037	-0.414182	0.308734
H242	H	-0.009215	-0.369475	0.309246
C243	C	0.020625	-0.294283	0.262101
C244	C	0.049919	-0.340890	0.262631
H245	H	0.034644	-0.272479	0.233929
H246	H	0.017069	-0.290098	0.289120
H247	H	-0.009710	-0.288656	0.262890
H248	H	0.080251	-0.346517	0.261847
H249	H	0.053481	-0.345075	0.235610
O250	O	0.328978	-0.338341	0.485114
C251	C	0.361643	-0.313644	0.460624
H252	H	0.397178	-0.339216	0.466351
H253	H	0.366912	-0.298153	0.420981
C254	C	0.298560	-0.241641	0.472650
C255	C	0.342204	-0.273049	0.479688
H256	H	0.286568	-0.216599	0.484408
H257	H	0.276552	-0.258279	0.489148
H258	H	0.302956	-0.228737	0.439614
H259	H	0.337806	-0.285957	0.512724
H260	H	0.364210	-0.256412	0.463196
H261	H	0.159856	-0.209371	0.440456
H262	H	0.129672	-0.118967	0.410356
H263	H	0.055974	-0.119015	0.558014
H264	H	-0.028474	-0.460433	0.068892
O265	O	0.084238	-0.213265	0.595826
C266	C	0.055389	-0.180597	0.620860
H267	H	0.061726	-0.145067	0.597094
H268	H	0.016357	-0.175310	0.631628
C269	C	0.060260	-0.243690	0.694956
C270	C	0.068046	-0.200052	0.665767
H271	H	0.068066	-0.255690	0.722657
H272	H	0.079695	-0.265699	0.678090
H273	H	0.027734	-0.239278	0.703924
H274	H	0.100573	-0.204465	0.656794
H275	H	0.048617	-0.178043	0.682632
O276	O	-0.063475	-0.485480	0.327778
C277	C	-0.075548	-0.510623	0.315661
H278	H	-0.048113	-0.547874	0.318666
H279	H	-0.112253	-0.513375	0.340949
C280	C	-0.109911	-0.438299	0.260518
C281	C	-0.076212	-0.484049	0.264205
H282	H	-0.110323	-0.421906	0.228778
H283	H	-0.101779	-0.421358	0.268682
H284	H	-0.140495	-0.440599	0.281594
H285	H	-0.045629	-0.481749	0.243134
H286	H	-0.084339	-0.500988	0.256036
H287	H	-0.058738	-0.490513	0.159288
H288	H	0.045284	-0.608113	0.068976
H289	H	0.015032	-0.638195	0.159378
H290	H	-0.028907	-0.460416	0.362542
H291	H	0.014660	-0.638178	0.406265
O292	O	0.049308	-0.613161	0.440939
C293	C	0.093620	-0.606030	0.418367
H294	H	0.100526	-0.587960	0.378408
H295	H	0.093156	-0.582517	0.433084
C296	C	0.124839	-0.676606	0.476888
C297	C	0.133323	-0.654416	0.427808
H298	H	0.149329	-0.706452	0.482713
H299	H	0.094984	-0.681410	0.492097
H300	H	0.124451	-0.657008	0.489146
H301	H	0.133704	-0.674012	0.415552
H302	H	0.163178	-0.649617	0.412598
O303	O	0.056040	-0.770275	0.337640
C304	C	0.089902	-0.782477	0.296577
H305	H	0.092234	-0.818649	0.301067
H306	H	0.078695	-0.754428	0.264262
C307	C	0.136016	-0.740409	0.283792
C308	C	0.138883	-0.784838	0.289309
H309	H	0.166229	-0.741863	0.279308
H310	H	0.113202	-0.732186	0.311457
H311	H	0.126675	-0.717039	0.256864
H312	H	0.148218	-0.808205	0.316240
H313	H	0.161700	-0.793065	0.261649
O314	O	-0.070328	-0.868246	0.430776
C315	C	-0.093604	-0.856064	0.400217
H316	H	-0.092415	-0.819894	0.371849
H317	H	-0.074980	-0.884122	0.382380
C318	C	-0.147255	-0.898137	0.464091
C319	C	-0.145798	-0.853711	0.429251
H320	H	-0.179450	-0.896688	0.482000
H321	H	-0.131573	-0.906347	0.484679
H322	H	-0.131732	-0.921514	0.449221
H323	H	-0.161316	-0.830336	0.444121
H324	H	-0.161484	-0.845498	0.408666
O325	O	-0.102946	-0.769995	0.397961
C326	C	-0.109644	-0.741183	0.353443
H327	H	-0.075356	-0.733763	0.325726
H328	H	-0.119445	-0.760370	0.342330
C329	C	-0.192152	-0.702929	0.391310
C330	C	-0.150040	-0.693812	0.357268
H331	H	-0.217072	-0.673709	0.393670
H332	H	-0.187641	-0.722342	0.421303
H333	H	-0.200313	-0.718919	0.382045
H334	H	-0.141877	-0.677828	0.366537
H335	H	-0.154551	-0.674395	0.327277
O336	O	-0.228120	-0.605488	0.447887
C337	C	-0.260853	-0.612516	0.494660
H338	H	-0.296352	-0.582443	0.494514
H339	H	-0.266179	-0.647998	0.508924
C340	C	-0.197858	-0.649825	0.526860
C341	C	-0.241458	-0.612886	0.526681
H342	H	-0.185895	-0.650055	0.546614
H343	H	-0.175805	-0.645091	0.495348
H344	H	-0.202303	-0.679389	0.538746
H345	H	-0.237012	-0.583322	0.514790
H346	H	-0.263511	-0.617614	0.558192
O347	O	-0.326300	-0.572583	0.480405
C348	C	-0.355129	-0.530697	0.492422
H349	H	-0.340074	-0.500786	0.464350
H350	H	-0.392880	-0.520172	0.494013
C351	C	-0.374457	-0.576303	0.575801
C352	C	-0.355962	-0.539567	0.541324
H353	H	-0.374973	-0.581774	0.605967
H354	H	-0.355035	-0.604523	0.567705
H355	H	-0.405914	-0.567527	0.577120
H356	H	-0.324504	-0.548345	0.540001
H357	H	-0.375379	-0.511349	0.549421
O358	O	-0.325953	-0.492475	0.319827
C359	C	-0.293220	-0.485469	0.273054
H360	H	-0.257714	-0.491074	0.273208
H361	H	-0.287908	-0.511993	0.258769
C362	C	-0.356209	-0.427531	0.240860
C363	C	-0.312601	-0.434411	0.241049
H364	H	-0.368164	-0.396037	0.221117
H365	H	-0.378262	-0.432253	0.272372
H366	H	-0.351776	-0.449638	0.228957
H367	H	-0.317035	-0.412309	0.252957
H368	H	-0.290549	-0.429685	0.209538
O369	O	0.088643	-0.868479	0.370559
C370	C	0.095348	-0.897311	0.415072
H371	H	0.063778	-0.882265	0.443776
H372	H	0.098273	-0.935069	0.423693
C373	C	0.180143	-0.916608	0.378018
C374	C	0.141370	-0.898125	0.413273
H375	H	0.208533	-0.917111	0.376909
H376	H	0.175626	-0.897184	0.348029
H377	H	0.182574	-0.948071	0.385207
H378	H	0.138936	-0.866660	0.406081
H379	H	0.145888	-0.917542	0.443261
H380	H	-0.231721	-0.527215	0.295000
