data_functionalizedCrystal
_audit_creation_method	'MofGen! by Chris Wilmer'
_symmetry_space_group_name_H-M	'P1'
_symmetry_Int_Tables_number	1
_symmetry_cell_setting	triclinic
loop_
_symmetry_equiv_pos_as_xyz
  x,y,z
_cell_length_a	14.519709
_cell_length_b	9.565339
_cell_length_c	14.519709
_cell_angle_alpha	89.999284
_cell_angle_beta	96.319855
_cell_angle_gamma	89.997945
loop_
_atom_site_label
_atom_site_type_symbol
_atom_site_fract_x
_atom_site_fract_y
_atom_site_fract_z
O1	O	1.223867	0.116081	-0.120885
O2	O	0.955390	0.116124	-0.135121
O3	O	1.096747	0.116089	0.006236
O4	O	1.082510	0.116116	-0.262241
O5	O	1.096736	-0.116431	0.006227
O6	O	0.955379	-0.116396	-0.135130
O7	O	1.223856	-0.116439	-0.120893
Zn8	Zn	1.089616	-0.153335	-0.128013
Zn9	Zn	1.089630	0.153020	-0.128001
O10	O	1.082499	-0.116404	-0.262250
C11	C	0.921025	-0.000131	-0.134462
C12	C	0.818643	-0.000115	-0.132474
N13	N	1.089612	-0.362415	-0.128020
C14	C	0.443748	-0.000179	-0.125154
C15	C	0.548056	-0.000161	-0.127187
C16	C	0.631192	-0.000145	-0.128814
C17	C	0.735507	-0.000130	-0.130847
C18	C	1.024220	-0.453601	-0.193372
C19	C	1.107587	-0.546792	-0.211404
C20	C	1.006281	-0.546780	-0.109995
C21	C	1.173021	-0.453553	-0.146094
C22	C	1.071661	-0.453533	-0.044649
C23	C	1.155088	-0.546681	-0.062646
C24	C	1.258221	-0.000181	-0.121553
C25	C	1.360602	-0.000188	-0.123541
C26	C	1.096078	-0.000171	0.040591
C27	C	1.094090	-0.000172	0.142972
N28	N	1.089641	0.362099	-0.127987
C29	C	1.083168	-0.000141	-0.296606
C30	C	1.085156	-0.000131	-0.398987
C31	C	1.086770	-0.000134	0.517868
C32	C	1.088803	-0.000145	0.413560
C33	C	1.090430	-0.000154	0.330423
C34	C	1.092463	-0.000163	0.226109
H35	H	0.968970	-0.412733	-0.248688
N36	N	1.228425	-0.600499	0.010583
H37	H	1.261934	-0.518956	0.043314
H38	H	1.274129	-0.659988	-0.019586
H39	H	1.122789	-0.587755	-0.281894
N40	N	1.051499	-0.399227	0.048696
H41	H	0.988493	-0.433079	0.062243
H42	H	1.052295	-0.293654	0.048104
H43	H	1.243520	-0.412775	-0.161410
H44	H	0.935798	-0.587734	-0.094764
