data_functionalizedCrystal
_audit_creation_method	'MofGen! by Chris Wilmer'
_symmetry_space_group_name_H-M	'P1'
_symmetry_Int_Tables_number	1
_symmetry_cell_setting	triclinic
loop_
_symmetry_equiv_pos_as_xyz
  x,y,z
_cell_length_a	10.967916
_cell_length_b	10.967953
_cell_length_c	10.065875
_cell_angle_alpha	110.815185
_cell_angle_beta	86.879757
_cell_angle_gamma	97.834142
loop_
_atom_site_label
_atom_site_type_symbol
_atom_site_fract_x
_atom_site_fract_y
_atom_site_fract_z
O1	O	-1.606513	0.225880	0.317470
O2	O	-1.256365	0.229579	0.235987
O3	O	-1.446318	0.039629	0.235993
O4	O	-1.416560	0.415830	0.317464
O5	O	-1.410092	0.076002	0.463015
O6	O	-1.220139	0.265952	0.463009
O7	O	-1.570288	0.262253	0.544493
Zn8	Zn	-1.389462	0.269877	0.539795
Zn9	Zn	-1.437191	0.221954	0.240684
O10	O	-1.380335	0.452203	0.544486
C11	C	-1.193543	0.244748	0.338273
C12	C	-1.060327	0.235742	0.304823
C13	C	-0.982169	0.250569	0.407514
C14	C	-0.844483	0.241261	0.372944
C15	C	-1.428777	0.009518	0.338278
C16	C	-1.430470	-0.134395	0.304824
C17	C	-1.414198	-0.328452	0.372955
C18	C	-1.412454	-0.179712	0.407527
C19	C	-0.633109	0.247084	0.442205
C20	C	-0.766326	0.256090	0.475650
C21	C	-1.397875	0.482314	0.442198
C22	C	-1.396185	0.626225	0.475643
N23	N	-1.356897	0.302583	0.743933
N24	N	-1.469765	0.189239	0.036546
C25	C	-1.425853	0.233325	0.811643
C26	C	-1.400799	0.258507	0.968840
H27	H	-0.809471	0.221671	0.259425
H28	H	-0.801338	0.275672	0.589168
H29	H	-1.503434	0.155382	0.753236
H30	H	-1.323205	0.336445	1.027239
H31	H	-1.017189	0.270147	0.521023
C32	C	-1.013034	0.209283	0.151471
C33	C	-0.949162	0.086281	0.073619
C34	C	-0.901873	0.059822	-0.079737
C35	C	-0.918455	0.156365	-0.155240
C36	C	-0.982330	0.279375	-0.077387
C37	C	-1.029619	0.305834	0.075968
H38	H	-0.936884	0.014807	0.129510
H39	H	-0.854588	-0.031238	-0.137368
H40	H	-0.883449	0.136778	-0.268763
H41	H	-0.994608	0.350849	-0.133279
H42	H	-1.076904	0.396895	0.133599
C43	C	-1.436772	-0.424782	0.219603
C44	C	-1.547879	-0.532888	0.186401
C45	C	-1.570450	-0.629216	0.033046
C46	C	-1.481914	-0.617439	-0.087108
C47	C	-1.370800	-0.509329	-0.053910
C48	C	-1.348228	-0.413001	0.099446
H49	H	-1.613425	-0.541610	0.275349
H50	H	-1.652704	-0.709246	0.008471
H51	H	-1.498623	-0.688747	-0.200631
H52	H	-1.305253	-0.500607	-0.142858
H53	H	-1.265974	-0.332970	0.124021
C54	C	-1.453057	-0.230713	0.151464
C55	C	-1.564173	-0.338808	0.118268
C56	C	-1.586763	-0.435124	-0.035090
C57	C	-1.498238	-0.423345	-0.155251
C58	C	-1.387115	-0.315245	-0.122059
C59	C	-1.364524	-0.218929	0.031299
H60	H	-1.629711	-0.347531	0.207221
H61	H	-1.669024	-0.515146	-0.059661
H62	H	-1.514960	-0.494644	-0.268776
H63	H	-1.321576	-0.306522	-0.211012
H64	H	-1.282263	-0.138907	0.055870
C65	C	-1.389873	-0.083389	0.560887
C66	C	-1.278762	0.024712	0.594084
C67	C	-1.256181	0.121036	0.747440
C68	C	-1.344712	0.109259	0.867598
C69	C	-1.455830	0.001154	0.834404
C70	C	-1.478411	-0.095170	0.681048
H71	H	-1.213220	0.033433	0.505133
H72	H	-1.173924	0.201062	0.772012
H73	H	-1.327996	0.180564	0.981121
H74	H	-1.521372	-0.007567	0.923355
H75	H	-1.560668	-0.175196	0.656477
C76	C	-1.373605	-0.277448	0.628995
C77	C	-1.462135	-0.289225	0.749153
C78	C	-1.439555	-0.192901	0.902509
C79	C	-1.328444	-0.084800	0.935706
C80	C	-1.239906	-0.073019	0.815545
C81	C	-1.262486	-0.169343	0.662189
H82	H	-1.544393	-0.369251	0.724581
H83	H	-1.505097	-0.201623	0.991460
H84	H	-1.311728	-0.013496	1.049229
H85	H	-1.157648	0.007007	0.840116
H86	H	-1.196944	-0.160622	0.573238
H87	H	-1.547351	0.111291	0.978142
H88	H	-1.279308	0.380516	0.802338
