data_functionalizedCrystal
_audit_creation_method	'MofGen! by Chris Wilmer'
_symmetry_space_group_name_H-M	'P1'
_symmetry_Int_Tables_number	1
_symmetry_cell_setting	triclinic
loop_
_symmetry_equiv_pos_as_xyz
  x,y,z
_cell_length_a	17.077402
_cell_length_b	17.077404
_cell_length_c	17.077396
_cell_angle_alpha	90.019200
_cell_angle_beta	89.971638
_cell_angle_gamma	89.977404
loop_
_atom_site_label
_atom_site_type_symbol
_atom_site_fract_x
_atom_site_fract_y
_atom_site_fract_z
Zn1	Zn	-0.312520	-1.200034	-0.443889
Zn2	Zn	0.187480	-0.700034	0.056111
Zn3	Zn	-0.443797	-1.199945	-0.312625
Zn4	Zn	0.056203	-0.699945	0.187375
Zn5	Zn	-0.312547	-1.068771	-0.312632
Zn6	Zn	0.187453	-0.568771	0.187368
Zn7	Zn	-0.443746	-1.068732	-0.443844
Zn8	Zn	0.056254	-0.568732	0.056156
O9	O	-0.378153	-1.134370	-0.378248
O10	O	0.121847	-0.634370	0.121752
O11	O	-0.329945	-1.309869	-0.426492
O12	O	0.170055	-0.809869	0.073508
O13	O	-0.426419	-1.182523	-0.202779
O14	O	0.073581	-0.682523	0.297221
O15	O	-0.202697	-1.086237	-0.330066
O16	O	0.297303	-0.586237	0.169934
O17	O	-0.426393	-1.309803	-0.330053
O18	O	0.073607	-0.809803	0.169947
O19	O	-0.202677	-1.182675	-0.426499
O20	O	0.297323	-0.682675	0.073501
O21	O	-0.329991	-1.086150	-0.202784
O22	O	0.170009	-0.586150	0.297216
O23	O	-0.329941	-0.958919	-0.330022
O24	O	0.170059	-0.458919	0.169978
O25	O	-0.426306	-1.086171	-0.553697
O26	O	0.073694	-0.586171	-0.053697
O27	O	-0.426332	-0.958890	-0.426423
O28	O	0.073668	-0.458890	0.073577
O29	O	-0.329895	-1.182638	-0.553730
O30	O	0.170105	-0.682638	-0.053730
O31	O	-0.553637	-1.182486	-0.330010
O32	O	-0.053637	-0.682486	0.169990
O33	O	-0.553600	-1.086084	-0.426416
O34	O	-0.053600	-0.586084	0.073584
C35	C	-0.378135	-0.930423	-0.378219
C36	C	0.121865	-0.430423	0.121781
C37	C	-0.378146	-0.843173	-0.378225
C38	C	0.121854	-0.343173	0.121775
C39	C	-0.428411	-0.802188	-0.428339
C40	C	0.071589	-0.302188	0.071661
C41	C	-0.428412	-0.720208	-0.428349
C42	C	0.071588	-0.220208	0.071651
C43	C	-0.378149	-0.679213	-0.378240
C44	C	0.121851	-0.179213	0.121760
C45	C	-0.327878	-0.720203	-0.328124
C46	C	0.172122	-0.220203	0.171876
C47	C	-0.327874	-0.802182	-0.328119
C48	C	0.172126	-0.302182	0.171881
C49	C	-0.327890	-0.549333	-0.328137
C50	C	0.172110	-0.049333	0.171863
C51	C	-0.327894	-0.467349	-0.328141
C52	C	0.172106	0.032651	0.171859
C53	C	-0.428427	-0.467359	-0.428367
C54	C	0.071573	0.032641	0.071633
C55	C	-0.428424	-0.549338	-0.428362
C56	C	0.071576	-0.049338	0.071638
C57	C	-0.378153	-0.590322	-0.378245
C58	C	0.121847	-0.090322	0.121755
C59	C	-0.582101	-1.134292	-0.378224
C60	C	-0.082101	-0.634292	0.121776
C61	C	-0.669350	-1.134331	-0.378241
C62	C	-0.169350	-0.634331	0.121759
C63	C	-0.710263	-1.184519	-0.428494
C64	C	-0.210263	-0.684519	0.071506
C65	C	-0.792243	-1.184552	-0.428511
C66	C	-0.292243	-0.684552	0.071489
C67	C	-0.833310	-1.134400	-0.378269
C68	C	-0.333310	-0.634400	0.121731
C69	C	-0.792392	-1.084207	-0.328014
C70	C	-0.292392	-0.584207	0.171986
C71	C	-0.710413	-1.084170	-0.328002
C72	C	-0.210413	-0.584170	0.171998
C73	C	-0.963262	-1.084287	-0.328041
C74	C	-0.463262	-0.584287	0.171959
C75	C	-1.045246	-1.084324	-0.328052
C76	C	-0.545246	-0.584324	0.171948
C77	C	-1.045092	-1.184669	-0.428550
C78	C	-0.545092	-0.684669	0.071450
C79	C	-0.963113	-1.184633	-0.428538
C80	C	-0.463113	-0.684633	0.071462
C81	C	-0.922201	-1.134440	-0.378281
C82	C	-0.422201	-0.634440	0.121719
C83	C	-0.173408	-1.134470	-0.378288
C84	C	0.326592	-0.634470	0.121712
C85	C	-0.086159	-1.134512	-0.378305
C86	C	0.413841	-0.634512	0.121695
C87	C	-0.378092	-1.134410	-0.582992
C88	C	0.121908	-0.634410	-0.082992
C89	C	-0.378066	-1.134427	-0.670242
C90	C	0.121934	-0.634427	-0.170242
C91	C	-0.378167	-0.339115	-0.378268
C92	C	0.121833	0.160885	0.121732
C93	C	-0.378160	-0.426364	-0.378255
C94	C	0.121840	0.073636	0.121745
C95	C	-0.327850	-1.084261	-0.711234
C96	C	0.172150	-0.584261	-0.211234
C97	C	-0.327832	-1.084273	-0.793215
C98	C	0.172168	-0.584273	-0.293215
C99	C	-0.378027	-1.134457	-0.834201
C100	C	0.121973	-0.634457	-0.334201
C101	C	-0.428249	-1.184625	-0.793203
C102	C	0.071751	-0.684625	-0.293203
C103	C	-0.428270	-1.184608	-0.711224
C104	C	0.071730	-0.684608	-0.211224
C105	C	-0.428200	-1.184659	-0.964073
C106	C	0.071800	-0.684659	-0.464073
C107	C	-0.428178	-1.184678	-1.046058
C108	C	0.071822	-0.684678	-0.546058
C109	C	-0.327762	-1.084325	-1.046064
C110	C	0.172238	-0.584325	-0.546064
C111	C	-0.327783	-1.084307	-0.964085
C112	C	0.172217	-0.584307	-0.464085
C113	C	-0.378004	-1.134477	-0.923092
C114	C	0.121996	-0.634477	-0.423092
C115	C	-0.378157	-1.134376	-0.174300
C116	C	0.121843	-0.634376	0.325700
C117	C	-0.377961	-1.134512	-0.087050
C118	C	0.122039	-0.634512	0.412950
H119	H	-0.286950	-0.686819	-0.287328
H120	H	0.213050	-0.186819	0.212672
H121	H	-0.469344	-0.686842	-0.469156
H122	H	0.030656	-0.186842	0.030844
O123	O	-0.273632	-1.030192	-0.919878
O124	O	0.226368	-0.530192	-0.419878
H125	H	-0.287079	-0.968577	-0.935591
H126	H	0.212921	-0.468577	-0.435591
H127	H	-0.825835	-1.043369	-0.287110
H128	H	-0.325835	-0.543369	0.212890
O129	O	-0.482630	-0.593559	-0.482409
O130	O	0.017370	-0.093559	0.017591
H131	H	-0.517581	-0.551289	-0.517266
H132	H	-0.017581	-0.051289	-0.017266
O133	O	-0.918815	-1.238740	-0.482707
O134	O	-0.418815	-0.738740	0.017293
H135	H	-0.961034	-1.273650	-0.517655
H136	H	-0.461034	-0.773650	-0.017655
O137	O	-0.482432	-1.238715	-0.667006
O138	O	0.017568	-0.738715	-0.167006
H139	H	-0.447312	-1.278656	-0.629663
H140	H	0.052688	-0.778656	-0.129663
H141	H	-0.286869	-1.043476	-1.079444
H142	H	0.213131	-0.543476	-0.579444
H143	H	-0.825550	-1.225426	-0.469426
H144	H	-0.325550	-0.725426	0.030574
O145	O	-0.273678	-0.593543	-0.274076
O146	O	0.226322	-0.093543	0.225924
H147	H	-0.238736	-0.551266	-0.239224
H148	H	0.261264	-0.051266	0.260776
O149	O	-0.273674	-1.030163	-0.837432
O150	O	0.226326	-0.530163	-0.337432
H151	H	-0.233739	-1.065323	-0.874805
H152	H	0.266261	-0.565323	-0.374805
O153	O	-0.273669	-0.846393	-0.274059
O154	O	0.226331	-0.346393	0.225941
H155	H	-0.238726	-0.804116	-0.239208
H156	H	0.261274	-0.304116	0.260792
H157	H	-0.286970	-1.043400	-0.677869
H158	H	0.213030	-0.543400	-0.177869
H159	H	-0.469051	-1.225541	-1.079427
H160	H	0.030949	-0.725541	-0.579427
H161	H	-0.469357	-0.433985	-0.469177
H162	H	0.030643	0.066015	0.030823
H163	H	-0.469344	-0.835560	-0.469141
H164	H	0.030656	-0.335560	0.030859
H165	H	-0.469123	-1.225481	-0.826581
H166	H	0.030877	-0.725481	-0.326581
O167	O	-0.482366	-1.238769	-0.919857
O168	O	0.017634	-0.738769	-0.419857
H169	H	-0.447242	-1.278709	-0.882517
H170	H	0.052758	-0.778709	-0.382517
O171	O	-0.273677	-0.423128	-0.274106
O172	O	0.226323	0.076872	0.225894
H173	H	-0.238709	-0.465398	-0.239265
H174	H	0.261291	0.034602	0.260735
H175	H	-0.676832	-1.225362	-0.469403
H176	H	-0.176832	-0.725362	0.030597
O177	O	-1.089212	-1.238802	-0.482765
O178	O	-0.589212	-0.738802	0.017235
H179	H	-1.153116	-1.230396	-0.474343
H180	H	-0.653116	-0.730396	0.025657
H181	H	-1.078681	-1.043483	-0.287144
H182	H	-0.578681	-0.543483	0.212856
O183	O	-0.666287	-1.030041	-0.273792
O184	O	-0.166287	-0.530041	0.226208
H185	H	-0.628954	-0.990060	-0.308881
H186	H	-0.128954	-0.490060	0.191119
H187	H	-0.929954	-1.043412	-0.287119
H188	H	-0.429954	-0.543412	0.212881
