data_functionalizedCrystal
_audit_creation_method	'MofGen! by Chris Wilmer'
_symmetry_space_group_name_H-M	'P1'
_symmetry_Int_Tables_number	1
_symmetry_cell_setting	triclinic
loop_
_symmetry_equiv_pos_as_xyz
  x,y,z
_cell_length_a	18.050591
_cell_length_b	12.759394
_cell_length_c	12.759387
_cell_angle_alpha	90.031660
_cell_angle_beta	89.971092
_cell_angle_gamma	89.989157
loop_
_atom_site_label
_atom_site_type_symbol
_atom_site_fract_x
_atom_site_fract_y
_atom_site_fract_z
Zn1	Zn	1.135420	0.418323	-0.594234
Zn2	Zn	1.635420	0.918323	-0.094234
Zn3	Zn	1.135343	0.594040	-0.418552
Zn4	Zn	1.635343	1.094040	0.081448
Zn5	Zn	1.011222	0.418363	-0.418545
Zn6	Zn	1.511222	0.918363	0.081455
Zn7	Zn	1.011216	0.593948	-0.594165
Zn8	Zn	1.511216	1.093948	-0.094165
O9	O	1.073300	0.506169	-0.506374
O10	O	1.573300	1.006169	-0.006374
O11	O	1.239334	0.441654	-0.570961
O12	O	1.739334	0.941654	-0.070961
O13	O	1.118848	0.570791	-0.271530
O14	O	1.618848	1.070791	0.228470
O15	O	1.027732	0.271337	-0.441877
O16	O	1.527732	0.771337	0.058123
O17	O	1.239277	0.570752	-0.441888
O18	O	1.739277	1.070752	0.058112
O19	O	1.118980	0.271307	-0.570955
O20	O	1.618980	0.771307	-0.070955
O21	O	1.027657	0.441722	-0.271525
O22	O	1.527657	0.941722	0.228475
O23	O	0.907297	0.441634	-0.441810
O24	O	1.407297	0.941634	0.058190
O25	O	1.027722	0.570596	-0.741196
O26	O	1.527722	1.070596	-0.241196
O27	O	0.907293	0.570635	-0.570837
O28	O	1.407293	1.070635	-0.070837
O29	O	1.118974	0.441565	-0.741246
O30	O	1.618974	0.941565	-0.241246
O31	O	1.118842	0.741049	-0.441821
O32	O	1.618842	1.241049	0.058179
O33	O	1.027647	0.740982	-0.570844
O34	O	1.527647	1.240982	-0.070844
C35	C	0.880348	0.506129	-0.506316
C36	C	1.380348	1.006129	-0.006316
C37	C	0.797802	0.506138	-0.506316
C38	C	1.297802	1.006138	-0.006316
C39	C	1.073256	0.779136	-0.506349
C40	C	1.573256	1.279136	-0.006349
C41	C	1.073305	0.895913	-0.506373
C42	C	1.573305	1.395913	-0.006373
C43	C	1.073356	0.506066	-0.780408
C44	C	1.573356	1.006066	-0.280408
C45	C	1.073380	0.506022	-0.897185
C46	C	1.573380	1.006022	-0.397185
C47	C	0.598332	0.435906	-0.436313
C48	C	1.098332	0.935906	0.063687
C49	C	0.548926	0.531736	-0.410462
C50	C	1.048926	1.031736	0.089538
C51	C	0.646672	0.506170	-0.506364
C52	C	1.146672	1.006170	-0.006364
C53	C	0.548997	0.410373	-0.532211
C54	C	1.048997	0.910373	-0.032211
C55	C	0.500687	0.506192	-0.506408
C56	C	1.000687	1.006192	-0.006408
C57	C	0.598353	0.602051	-0.480463
C58	C	1.098353	1.102051	0.019537
C59	C	0.598428	0.480623	-0.602257
C60	C	1.098428	0.980623	-0.102257
C61	C	0.549044	0.576519	-0.576443
C62	C	1.049044	1.076519	-0.076443
C63	C	0.730770	0.506156	-0.506336
C64	C	1.230770	1.006156	-0.006336
C65	C	0.416590	0.506217	-0.506436
C66	C	0.916590	1.006217	-0.006436
C67	C	1.267006	0.506209	-0.506433
C68	C	1.767006	1.006209	-0.006433
C69	C	1.349552	0.506226	-0.506458
C70	C	1.849552	1.006226	-0.006458
C71	C	1.073365	0.232135	-0.506423
C72	C	1.573365	0.732135	-0.006423
C73	C	1.073393	0.115358	-0.506443
C74	C	1.573393	0.615358	-0.006443
C75	C	1.168337	0.895930	-0.372123
C76	C	1.668337	1.395930	0.127877
C77	C	1.215873	0.950799	-0.305010
C78	C	1.715873	1.450799	0.194990
C79	C	1.215916	1.060520	-0.305039
C80	C	1.715916	1.560520	0.194961
C81	C	1.168421	1.115375	-0.372189
C82	C	1.668421	1.615375	0.127811
C83	C	1.120885	1.060506	-0.439302
C84	C	1.620885	1.560506	0.060698
C85	C	1.120845	0.950782	-0.439264
C86	C	1.620845	1.450782	0.060736
C87	C	1.025857	1.060489	-0.573556
C88	C	1.525857	1.560489	-0.073556
C89	C	1.025809	0.950768	-0.573524
C90	C	1.525809	1.450768	-0.073524
C91	C	0.978362	1.115344	-0.640707
C92	C	1.478362	1.615344	-0.140707
C93	C	0.930821	1.060475	-0.707816
C94	C	1.430821	1.560475	-0.207816
C95	C	0.930779	0.950747	-0.707784
C96	C	1.430779	1.450747	-0.207784
C97	C	0.978273	0.895899	-0.640637
C98	C	1.478273	1.395899	-0.140637
C99	C	1.168407	0.371670	-0.897257
C100	C	1.668407	0.871670	-0.397257
C101	C	1.215931	0.304479	-0.952154
C102	C	1.715931	0.804479	-0.452154
C103	C	1.215949	0.304441	-1.061876
C104	C	1.715949	0.804441	-0.561876
C105	C	1.168437	0.371599	-1.116703
C106	C	1.668437	0.871599	-0.616703
C107	C	1.120913	0.438790	-1.061806
C108	C	1.620913	0.938790	-0.561806
C109	C	1.120902	0.438823	-0.952082
C110	C	1.620902	0.938823	-0.452082
C111	C	1.025883	0.573135	-1.061734
C112	C	1.525883	1.073135	-0.561734
C113	C	1.025868	0.573180	-0.952012
C114	C	1.525868	1.073180	-0.452012
C115	C	0.978371	0.640293	-1.116561
C116	C	1.478371	1.140293	-0.616561
C117	C	0.930849	0.707491	-1.061664
C118	C	1.430849	1.207491	-0.561664
C119	C	0.930834	0.707527	-0.951935
C120	C	1.430834	1.207527	-0.451935
C121	C	0.978344	0.640371	-0.897115
C122	C	1.478344	1.140371	-0.397115
C123	C	1.073287	0.506195	-0.233407
C124	C	1.573287	1.006195	0.266593
C125	C	1.073407	0.505943	-0.116631
C126	C	1.573407	1.005943	0.383369
H127	H	0.619975	0.376549	-0.377009
H128	H	1.119975	0.876549	0.122991
H129	H	1.254643	0.249721	-1.106573
H130	H	1.754643	0.749721	-0.606573
H131	H	1.168467	1.204716	-0.372216
H132	H	1.668467	1.704716	0.127784
Cl133	Cl	0.515836	0.668375	-0.667935
Cl134	Cl	1.015836	1.168375	-0.167935
H135	H	1.168297	0.806588	-0.372079
H136	H	1.668297	1.306588	0.127921
H137	H	0.527278	0.329359	-0.554019
H138	H	1.027278	0.829359	-0.054019
Cl139	Cl	0.631681	0.727182	-0.446591
Cl140	Cl	1.131681	1.227182	0.053409
Cl141	Cl	1.168454	0.371539	-1.254640
Cl142	Cl	1.668454	0.871539	-0.754640
H143	H	0.620188	0.458968	-0.683309
H144	H	1.120188	0.958968	-0.183309
Cl145	Cl	1.275640	0.220031	-0.883224
Cl146	Cl	1.775640	0.720031	-0.383224
H147	H	1.254545	0.906126	-0.250338
H148	H	1.754545	1.406126	0.249662
H149	H	1.254628	1.105195	-0.250395
H150	H	1.754628	1.605195	0.249605
H151	H	0.978404	1.204685	-0.640730
H152	H	1.478404	1.704685	-0.140730
H153	H	0.527184	0.553361	-0.329386
H154	H	1.027184	1.053361	0.170614
Cl155	Cl	0.978393	0.640245	-1.254497
Cl156	Cl	1.478393	1.140245	-0.754497
H157	H	0.892165	0.762160	-1.106312
H158	H	1.392165	1.262160	-0.606312
Cl159	Cl	0.871124	1.129440	-0.792231
Cl160	Cl	1.371124	1.629440	-0.292231
H161	H	0.892073	0.906078	-0.762439
H162	H	1.392073	1.406078	-0.262439
H163	H	0.892126	0.762232	-0.907245
H164	H	1.392126	1.262232	-0.407245
H165	H	0.978239	0.806557	-0.640597
H166	H	1.478239	1.306557	-0.140597
Cl167	Cl	1.168399	0.371728	-0.759320
Cl168	Cl	1.668399	0.871728	-0.259320
Cl169	Cl	0.978331	0.640416	-0.759178
Cl170	Cl	1.478331	1.140416	-0.259178
