data_functionalizedCrystal
_audit_creation_method	'MofGen! by Chris Wilmer'
_symmetry_space_group_name_H-M	'P1'
_symmetry_Int_Tables_number	1
_symmetry_cell_setting	triclinic
loop_
_symmetry_equiv_pos_as_xyz
  x,y,z
_cell_length_a	14.971482
_cell_length_b	15.500227
_cell_length_c	14.971486
_cell_angle_alpha	92.831336
_cell_angle_beta	96.386632
_cell_angle_gamma	92.847292
loop_
_atom_site_label
_atom_site_type_symbol
_atom_site_fract_x
_atom_site_fract_y
_atom_site_fract_z
O1	O	1.191102	0.071933	-0.112399
O2	O	0.930702	0.071938	-0.126361
O3	O	1.067881	0.071929	0.010819
O4	O	1.053923	0.071942	-0.249580
O5	O	1.059557	-0.071959	0.002528
O6	O	0.922378	-0.071951	-0.134653
O7	O	1.182778	-0.071955	-0.120691
Cu8	Cu	1.051818	-0.085091	-0.128429
Cu9	Cu	1.061662	0.085074	-0.118623
O10	O	1.045599	-0.071947	-0.257872
C11	C	0.893215	-0.000006	-0.129884
C12	C	0.793918	-0.000005	-0.128014
N13	N	1.044900	-0.204775	-0.135326
C14	C	0.742736	-0.078439	-0.131653
C15	C	0.649437	-0.078440	-0.129883
C16	C	0.607322	-0.000006	-0.124479
C17	C	0.658511	0.078435	-0.120837
C18	C	0.751809	0.078435	-0.122601
C19	C	0.464049	0.078429	-0.117162
C20	C	0.370745	0.078429	-0.115399
C21	C	0.361677	-0.078446	-0.124443
C22	C	0.454975	-0.078446	-0.126208
C23	C	0.506158	-0.000005	-0.122567
C24	C	1.103048	-0.250056	-0.077219
C25	C	1.097824	-0.340628	-0.082443
C26	C	1.034457	-0.385919	-0.145779
C27	C	0.976303	-0.340632	-0.203888
C28	C	0.981523	-0.250061	-0.198659
C29	C	1.015653	-0.659385	-0.164600
C30	C	1.010439	-0.749962	-0.169827
C31	C	1.131960	-0.749951	-0.048380
C32	C	1.137178	-0.659379	-0.043160
C33	C	1.079021	-0.614100	-0.101266
C34	C	1.029118	-0.478498	-0.151122
C35	C	1.084356	-0.521522	-0.095918
C36	C	1.220265	-0.000009	-0.117169
C37	C	1.319563	-0.000005	-0.119038
C38	C	1.063095	-0.000015	0.039998
C39	C	1.061224	-0.000014	0.139295
N40	N	1.068587	0.204758	-0.111720
C41	C	1.050385	-0.000001	-0.287051
C42	C	1.052256	0.000004	-0.386348
C43	C	1.141813	-0.000016	0.196522
C44	C	1.140051	-0.000007	0.289821
C45	C	1.057698	-0.000003	0.325893
C46	C	0.977102	0.000002	0.268660
C47	C	0.978866	-0.000001	0.175362
C48	C	0.973432	0.000005	0.463122
C49	C	0.971667	0.000006	0.556426
C50	C	1.134616	-0.000001	0.577582
C51	C	1.136380	-0.000004	0.484284
C52	C	1.055784	-0.000001	0.427057
H53	H	0.777018	-0.142310	-0.136061
H54	H	0.624215	0.142297	-0.116430
C55	C	1.232410	-0.000021	0.156853
N56	N	1.300650	-0.000021	0.126977
H57	H	0.910049	0.000011	0.298036
C58	C	0.324421	0.164711	-0.109450
N59	N	0.289529	0.229700	-0.104969
H60	H	0.793481	0.142304	-0.119639
C61	C	0.305375	-0.164732	-0.128442
N62	N	0.262964	-0.229720	-0.131455
C63	C	0.890212	-0.000001	0.112412
N64	N	0.823434	0.000002	0.065000
H65	H	0.958835	-0.786833	-0.221406
C66	C	0.951794	-0.609590	-0.228636
N67	N	0.903733	-0.572082	-0.276912
C68	C	1.226972	-0.000013	0.444608
N69	N	1.295208	-0.000017	0.414724
C70	C	0.593138	-0.164724	-0.133907
N71	N	0.550732	-0.229717	-0.136945
H72	H	1.205675	-0.000011	0.336412
C73	C	1.161771	-0.390432	-0.018499
N74	N	1.209930	-0.427944	0.029675
H75	H	0.924703	-0.377513	-0.255455
C76	C	0.520348	0.164719	-0.113161
N77	N	0.562751	0.229710	-0.110155
C78	C	1.223273	0.000002	0.640534
N79	N	1.290046	0.000003	0.687953
H80	H	1.154652	-0.213186	-0.025648
C81	C	1.206883	-0.609566	0.026519
N82	N	1.259386	-0.572047	0.079001
C83	C	0.881075	0.000022	0.596103
N84	N	0.812840	0.000037	0.625988
C85	C	0.884771	0.000004	0.400174
N86	N	0.817993	-0.000003	0.352761
H87	H	1.179308	-0.786825	-0.001071
C88	C	0.917562	-0.200254	-0.262589
N89	N	0.869386	-0.162740	-0.310743
H90	H	1.135947	-0.484644	-0.044347
H91	H	0.489261	-0.142314	-0.130613
H92	H	0.977524	-0.515382	-0.202693
