data_functionalizedCrystal
_audit_creation_method	'MofGen! by Chris Wilmer'
_symmetry_space_group_name_H-M	'P1'
_symmetry_Int_Tables_number	1
_symmetry_cell_setting	triclinic
loop_
_symmetry_equiv_pos_as_xyz
  x,y,z
_cell_length_a	16.625548
_cell_length_b	21.395361
_cell_length_c	21.395355
_cell_angle_alpha	90.021511
_cell_angle_beta	90.024527
_cell_angle_gamma	90.031776
loop_
_atom_site_label
_atom_site_type_symbol
_atom_site_fract_x
_atom_site_fract_y
_atom_site_fract_z
Zn1	Zn	1.232666	-0.249493	0.354248
Zn2	Zn	1.232540	-0.354253	0.249465
Zn3	Zn	1.097818	-0.249495	0.249485
Zn4	Zn	1.097779	-0.354239	0.354205
O5	O	1.165201	-0.301870	0.301851
O6	O	1.345481	-0.263395	0.340358
O7	O	1.214633	-0.340364	0.161790
O8	O	1.115775	-0.161817	0.263408
O9	O	1.345389	-0.340362	0.263374
O10	O	1.214847	-0.161816	0.340377
O11	O	1.115653	-0.263398	0.161804
O12	O	0.984981	-0.263385	0.263366
O13	O	1.115708	-0.340337	0.441889
O14	O	0.984951	-0.340339	0.340304
O15	O	1.214809	-0.263381	0.441920
O16	O	1.214595	-0.441929	0.263333
O17	O	1.115586	-0.441919	0.340285
C18	C	1.165094	-0.464658	0.301816
C19	C	1.165122	-0.534299	0.301822
C20	C	0.955710	-0.301861	0.301833
C21	C	0.866089	-0.301872	0.301841
C22	C	1.216722	-0.566997	0.261794
C23	C	1.216760	-0.632432	0.261808
C24	C	1.165183	-0.665167	0.301843
C25	C	1.113580	-0.632462	0.341879
C26	C	1.113550	-0.567028	0.341868
C27	C	1.092583	-0.768884	0.306753
C28	C	1.092612	-0.834316	0.306760
C29	C	1.165277	-0.866988	0.301880
C30	C	1.237915	-0.834219	0.296981
C31	C	1.237885	-0.768784	0.296970
C32	C	1.165211	-0.736120	0.301860
C33	C	1.216922	-0.970638	0.261865
C34	C	1.216960	-1.036075	0.261884
C35	C	1.113774	-1.036103	0.341952
C36	C	1.113742	-0.970668	0.341936
C37	C	1.165315	-0.937939	0.301890
C38	C	0.537913	-0.301877	0.301867
C39	C	0.629222	-0.301874	0.301858
C40	C	0.701998	-0.301875	0.301853
C41	C	0.793312	-0.301871	0.301845
C42	C	1.375510	-0.301880	0.301869
C43	C	1.465131	-0.301884	0.301876
C44	C	1.165268	-0.301857	0.465274
C45	C	1.165296	-0.301852	0.534915
C46	C	1.165330	-0.138447	0.301899
C47	C	1.165384	-0.068806	0.301920
C48	C	1.165180	-0.301838	0.139063
C49	C	1.165308	-0.301666	0.069422
C50	C	1.216896	-0.261779	0.567646
C51	C	1.216895	-0.261752	0.633081
C52	C	1.165302	-0.301809	0.665784
C53	C	1.113693	-0.341885	0.633045
C54	C	1.113690	-0.341906	0.567611
C55	C	1.158899	-0.358225	0.769446
C56	C	1.158908	-0.358204	0.834879
C57	C	1.165307	-0.301743	0.867605
C58	C	1.171715	-0.245300	0.834889
C59	C	1.171712	-0.245322	0.769455
C60	C	1.165300	-0.301790	0.736736
C61	C	1.216909	-0.261638	0.971288
C62	C	1.216902	-0.261610	1.036724
C63	C	1.113704	-0.341748	1.036687
C64	C	1.113707	-0.341770	0.971252
C65	C	1.165313	-0.301716	0.938556
H66	H	1.258718	-0.540351	0.229187
Br67	Br	1.043708	-0.926289	0.396262
H68	H	1.033466	-0.860992	0.310743
H69	H	1.258925	-0.229020	0.944665
H70	H	1.258781	-0.659060	0.229213
H71	H	1.258917	-0.229163	0.541029
Br72	Br	1.286908	-0.207348	0.677511
Br73	Br	1.286949	-0.207230	1.081146
Br74	Br	1.180404	-0.168725	0.725056
Br75	Br	1.043517	-0.522649	0.396197
H76	H	1.297028	-0.742105	0.292983
H77	H	1.176928	-0.199324	0.861532
H78	H	1.071689	-0.374357	1.063313
Br79	Br	1.043676	-0.396159	0.926828
Br80	Br	1.043589	-0.676886	0.396218
H81	H	1.297086	-0.860818	0.293008
H82	H	1.153695	-0.404164	0.861511
H83	H	1.153472	-0.404191	0.742807
H84	H	1.071783	-1.062755	0.374552
H85	H	1.258918	-0.943990	0.229259
H86	H	1.071683	-0.374498	0.659676
Br87	Br	1.043655	-0.396294	0.523188
H88	H	1.258984	-1.062696	0.229289
H89	H	1.033406	-0.742289	0.310729
