data_functionalizedCrystal
_audit_creation_method	'MofGen! by Chris Wilmer'
_symmetry_space_group_name_H-M	'P1'
_symmetry_Int_Tables_number	1
_symmetry_cell_setting	triclinic
loop_
_symmetry_equiv_pos_as_xyz
  x,y,z
_cell_length_a	19.188930
_cell_length_b	9.730223
_cell_length_c	10.654550
_cell_angle_alpha	89.995747
_cell_angle_beta	83.814855
_cell_angle_gamma	89.982832
loop_
_atom_site_label
_atom_site_type_symbol
_atom_site_fract_x
_atom_site_fract_y
_atom_site_fract_z
O1	O	0.927169	-0.114732	0.156779
O2	O	0.723996	-0.114638	0.177885
O3	O	0.830254	-0.114678	-0.015506
O4	O	0.820911	-0.114691	0.350170
O5	O	0.830247	0.113902	-0.015511
O6	O	0.723989	0.113942	0.177880
O7	O	0.927162	0.113848	0.156774
Zn8	Zn	0.825574	0.150187	0.167326
Zn9	Zn	0.825583	-0.150977	0.167333
O10	O	0.820904	0.113889	0.350165
C11	C	0.697977	-0.000336	0.177199
C12	C	0.620459	-0.000299	0.175147
N13	N	0.825573	0.355724	0.167321
N14	N	0.825590	-0.356513	0.167328
C15	C	0.576277	-0.000325	0.288622
C16	C	0.503441	-0.000340	0.286695
C17	C	0.474789	-0.000357	0.171286
C18	C	0.518981	-0.000324	0.057795
C19	C	0.591816	-0.000295	0.059726
N20	N	0.366235	-0.078205	0.083071
N21	N	0.297044	-0.078235	0.081245
C22	C	0.255343	-0.000441	0.165461
N23	N	0.285444	0.077368	0.251593
N24	N	0.354641	0.077392	0.253423
C25	C	0.395813	-0.000387	0.169179
C26	C	0.132183	-0.000481	0.276855
C27	C	0.059345	-0.000487	0.274922
C28	C	0.074887	-0.000485	0.046020
C29	C	0.147723	-0.000465	0.047955
C30	C	0.176366	-0.000469	0.163376
C31	C	0.953181	-0.000457	0.157460
C32	C	1.030699	-0.000502	0.159512
C33	C	0.829564	-0.000389	-0.062292
C34	C	0.827512	-0.000390	-0.201692
C35	C	0.872640	0.427632	0.081723
C36	C	0.872647	0.571514	0.081723
C37	C	0.778518	0.571569	0.252930
C38	C	0.778508	0.427689	0.252923
C39	C	0.890075	-0.000419	-0.282501
C40	C	0.888142	-0.000435	-0.413481
C41	C	0.761078	-0.000386	-0.382829
C42	C	0.763011	-0.000380	-0.251852
C43	C	0.821594	-0.000404	0.396951
C44	C	0.823646	-0.000412	0.536351
H45	H	0.599593	-0.000331	0.382607
C46	C	0.682711	0.117240	-0.070899
C47	C	0.640385	-0.000277	-0.065016
H48	H	0.712693	0.117249	-0.147914
H49	H	0.710193	0.117237	-0.001896
H50	H	0.653949	0.196933	-0.066898
H51	H	0.669146	-0.079971	-0.069008
H52	H	0.612900	-0.000287	-0.134038
C53	C	-0.059203	-0.000532	0.373600
C54	C	0.010776	-0.000518	0.399664
H55	H	-0.089187	-0.000545	0.450613
H56	H	-0.067925	-0.080234	0.326260
H57	H	-0.067959	0.079189	0.326267
H58	H	0.019533	-0.080244	0.446990
H59	H	0.019501	0.079192	0.447024
C60	C	0.912612	0.615794	-0.135852
C61	C	0.924388	0.650553	-0.012366
H62	H	0.944559	0.664583	-0.193941
H63	H	0.865961	0.639422	-0.149282
H64	H	0.919343	0.519801	-0.148086
H65	H	0.917652	0.746545	-0.000130
H66	H	0.971050	0.626934	0.001068
C67	C	0.965966	0.117063	-0.153011
C68	C	0.960973	-0.000445	-0.227367
H69	H	1.009740	0.117045	-0.118985
H70	H	0.928990	0.117074	-0.086139
H71	H	0.962568	0.196763	-0.203491
H72	H	0.964367	-0.080145	-0.176884
H73	H	0.997961	-0.000469	-0.294248
H74	H	0.910963	0.369041	0.012019
H75	H	0.467461	-0.000357	0.379103
H76	H	0.712062	-0.000360	-0.186053
C77	C	0.065747	-0.117994	-0.149677
C78	C	0.043406	-0.000501	-0.080846
H79	H	0.046313	-0.117993	-0.228004
H80	H	0.050631	-0.197695	-0.102970
H81	H	0.115449	-0.117963	-0.164753
H82	H	-0.006296	-0.000537	-0.065762
H83	H	0.058517	0.079221	-0.127563
H84	H	0.740199	0.630177	0.322627
C85	C	0.701695	-0.000356	-0.569999
C86	C	0.690182	-0.000355	-0.437971
H87	H	0.657924	-0.000325	-0.604036
H88	H	0.727478	-0.080075	-0.597748
H89	H	0.727481	0.079347	-0.597754
H90	H	0.664400	-0.080065	-0.410216
H91	H	0.664387	0.079372	-0.410211
C92	C	0.685467	0.442183	0.422171
C93	C	0.726769	0.348636	0.347023
H94	H	0.653530	0.393376	0.480263
H95	H	0.660107	0.498329	0.370013
H96	H	0.714755	0.498272	0.467218
H97	H	0.697482	0.292554	0.301968
H98	H	0.752131	0.292467	0.399188
H99	H	0.155505	-0.000464	0.370837
C100	C	0.414230	-0.000392	-0.046798
C101	C	0.487490	-0.000350	-0.069065
H102	H	0.394791	-0.000413	-0.125121
H103	H	0.399083	0.079308	-0.000102
H104	H	0.399131	-0.080114	-0.000086
H105	H	0.502590	0.079378	-0.115770
H106	H	0.502643	-0.080058	-0.115781
C107	C	1.013932	-0.000462	-0.430614
C108	C	0.956914	-0.000458	-0.502307
H109	H	1.056390	-0.000469	-0.485454
H110	H	1.012049	-0.080163	-0.378884
H111	H	1.012031	0.079259	-0.378896
H112	H	0.958812	-0.080185	-0.554018
H113	H	0.958798	0.079251	-0.554059
C114	C	0.238676	-0.117945	-0.082651
C115	C	0.196294	-0.000458	-0.076781
H116	H	0.268664	-0.117931	-0.159660
H117	H	0.209958	-0.197650	-0.078648
H118	H	0.266158	-0.117917	-0.013634
H119	H	0.168807	-0.000491	-0.145793
H120	H	0.225015	0.079268	-0.080797
