data_functionalizedCrystal
_audit_creation_method	'MofGen! by Chris Wilmer'
_symmetry_space_group_name_H-M	'P1'
_symmetry_Int_Tables_number	1
_symmetry_cell_setting	triclinic
loop_
_symmetry_equiv_pos_as_xyz
  x,y,z
_cell_length_a	25.639242
_cell_length_b	25.639239
_cell_length_c	25.639233
_cell_angle_alpha	90.019301
_cell_angle_beta	90.022166
_cell_angle_gamma	90.034811
loop_
_atom_site_label
_atom_site_type_symbol
_atom_site_fract_x
_atom_site_fract_y
_atom_site_fract_z
Zn1	Zn	0.799223	-0.208277	0.295740
Zn2	Zn	0.799145	-0.295696	0.208304
Zn3	Zn	0.711799	-0.208269	0.208304
Zn4	Zn	0.711743	-0.295676	0.295694
O5	O	0.755478	-0.251979	0.252010
O6	O	0.872378	-0.219884	0.284161
O7	O	0.787550	-0.284103	0.135139
O8	O	0.723452	-0.135105	0.219923
O9	O	0.872321	-0.284111	0.219922
O10	O	0.787682	-0.135111	0.284161
O11	O	0.723377	-0.219871	0.135139
O12	O	0.638627	-0.219853	0.219877
O13	O	0.723357	-0.284078	0.368865
O14	O	0.638586	-0.284070	0.284082
O15	O	0.787628	-0.219866	0.368899
O16	O	0.787496	-0.368858	0.219876
O17	O	0.723282	-0.368844	0.284081
C18	C	0.619635	-0.251959	0.251975
C19	C	0.561521	-0.251963	0.251972
C20	C	0.201146	-0.285473	0.285410
C21	C	0.146541	-0.285477	0.285418
O22	O	0.118294	-0.313943	0.313818
N23	N	0.119239	-0.251994	0.252045
C24	C	0.146543	-0.218502	0.218664
O25	O	0.118306	-0.190022	0.190278
C26	C	0.201146	-0.218496	0.218659
C27	C	0.228446	-0.251985	0.252031
C28	C	0.228445	-0.318959	0.318780
C29	C	0.283046	-0.318956	0.318771
C30	C	0.310347	-0.285468	0.285392
C31	C	0.283047	-0.251983	0.252022
C32	C	0.228450	-0.185002	0.185282
C33	C	0.283057	-0.185000	0.185279
C34	C	0.310357	-0.218488	0.218652
C35	C	0.364948	-0.218492	0.218634
N36	N	0.392251	-0.251974	0.252008
C37	C	0.364950	-0.285463	0.285387
C38	C	0.031873	-0.218515	0.218678
C39	C	-0.022730	-0.218523	0.218680
C40	C	-0.022728	-0.285497	0.285435
C41	C	0.031875	-0.285492	0.285430
C42	C	0.059175	-0.251998	0.252052
C43	C	0.479615	-0.285455	0.285365
C44	C	0.534220	-0.285451	0.285351
C45	C	0.534214	-0.218475	0.218598
C46	C	0.479613	-0.218481	0.218610
C47	C	0.452315	-0.251972	0.251997
O48	O	0.393230	-0.190038	0.190250
O49	O	0.393194	-0.313933	0.313773
C50	C	0.755388	-0.387822	0.251985
C51	C	0.755398	-0.445936	0.251992
C52	C	0.722035	-0.697134	0.285431
C53	C	0.722016	-0.642530	0.285425
O54	O	0.693564	-0.614298	0.313839
N55	N	0.755464	-0.615210	0.252019
C56	C	0.788937	-0.642497	0.218621
O57	O	0.817386	-0.614245	0.190206
C58	C	0.788959	-0.697100	0.218630
C59	C	0.755505	-0.724418	0.252034
C60	C	0.688584	-0.724452	0.318834
C61	C	0.688603	-0.779053	0.318839
C62	C	0.722073	-0.806336	0.285442
C63	C	0.755524	-0.779018	0.252040
C64	C	0.822434	-0.724386	0.185235
C65	C	0.822453	-0.778993	0.185247
C66	C	0.788999	-0.806310	0.218651
C67	C	0.789012	-0.860902	0.218648
N68	N	0.755564	-0.888222	0.252054
C69	C	0.722094	-0.860939	0.285451
C70	C	0.788890	-0.527826	0.218605
C71	C	0.788866	-0.473224	0.218593
C72	C	0.721945	-0.473261	0.285398
C73	C	0.721967	-0.527864	0.285407
C74	C	0.755442	-0.555146	0.252011
C75	C	0.722136	-0.975604	0.285459
C76	C	0.722156	-1.030209	0.285460
C77	C	0.789079	-1.030167	0.218657
C78	C	0.789057	-0.975567	0.218654
C79	C	0.755584	-0.948286	0.252059
O80	O	0.817451	-0.889169	0.190250
O81	O	0.693655	-0.889198	0.313866
C82	C	0.891851	-0.252000	0.252046
C83	C	0.949965	-0.252009	0.252062
C84	C	0.755495	-0.251970	0.388383
C85	C	0.755502	-0.251966	0.446498
C86	C	0.755582	-0.115606	0.252047
C87	C	0.755626	-0.057492	0.252063
C88	C	0.755491	-0.251951	0.116168
C89	C	0.755585	-0.251807	0.058054
C90	C	0.789010	-0.218432	0.806884
C91	C	0.789016	-0.218417	0.861489
O92	O	0.817464	-0.189967	0.889745
N93	N	0.755559	-0.251844	0.888780
C94	C	0.722090	-0.285283	0.861465
O95	O	0.693632	-0.313713	0.889692
C96	C	0.722081	-0.285294	0.806861
C97	C	0.755544	-0.251870	0.779573
C98	C	0.822470	-0.185009	0.779595
C99	C	0.822464	-0.185025	0.724995
C100	C	0.788998	-0.218462	0.697683
C101	C	0.755538	-0.251885	0.724972
C102	C	0.688610	-0.318731	0.779547
C103	C	0.688603	-0.318739	0.724940
C104	C	0.722066	-0.285314	0.697651
C105	C	0.722067	-0.285338	0.643060
N106	N	0.755524	-0.251912	0.615768
C107	C	0.788990	-0.218474	0.643080
C108	C	0.722110	-0.285256	0.976135
C109	C	0.722121	-0.285247	1.030738
C110	C	0.789047	-0.218381	1.030758
C111	C	0.789038	-0.218392	0.976155
C112	C	0.755567	-0.251829	0.948844
C113	C	0.788975	-0.218509	0.528415
C114	C	0.788968	-0.218529	0.473809
C115	C	0.722040	-0.285393	0.473794
C116	C	0.722049	-0.285375	0.528395
C117	C	0.755518	-0.251929	0.555704
O118	O	0.693632	-0.313773	0.614768
O119	O	0.817437	-0.190044	0.614845
H120	H	0.054097	-0.191241	0.191494
H121	H	0.816296	-0.191153	1.053005
H122	H	0.816227	-0.191272	0.550643
H123	H	0.849712	-0.157806	0.702781
C124	C	-0.052756	-0.181689	0.181966
C125	C	-0.112817	-0.181685	0.181968
C126	C	-0.142841	-0.144847	0.145255
C127	C	-0.112804	-0.108013	0.108540
C128	C	-0.052739	-0.108015	0.108538
C129	C	-0.022715	-0.144853	0.145251
H130	H	-0.135056	-0.208953	0.209147
H131	H	-0.187305	-0.144846	0.145257
H132	H	-0.135029	-0.080744	0.081363
H133	H	-0.030500	-0.080747	0.081358
H134	H	0.021749	-0.144855	0.145248
C135	C	0.685357	-1.060258	0.322209
C136	C	0.648545	-1.030243	0.358947
C137	C	0.611747	-1.060289	0.395695
C138	C	0.611762	-1.120350	0.395706
C139	C	0.648576	-1.150369	0.358966
C140	C	0.685373	-1.120323	0.322218
H141	H	0.648532	-0.985778	0.358940
H142	H	0.584495	-1.038067	0.422892
H143	H	0.584523	-1.142592	0.422909
H144	H	0.648588	-1.194833	0.358973
H145	H	0.712625	-1.142545	0.295021
C146	C	0.198434	-0.148164	0.148567
C147	C	0.205986	-0.088734	0.152943
C148	C	0.175973	-0.051893	0.116224
C149	C	0.138408	-0.074483	0.075128
C150	C	0.130855	-0.133916	0.070750
C151	C	0.160868	-0.170757	0.107470
H152	H	0.233795	-0.072009	0.183366
H153	H	0.181565	-0.007897	0.119464
H154	H	0.116191	-0.047211	0.047946
H155	H	0.103046	-0.150641	0.040327
H156	H	0.155276	-0.214753	0.104229
C157	C	0.313087	-0.148155	0.148562
C158	C	0.305611	-0.088726	0.152942
C159	C	0.335640	-0.051883	0.116225
C160	C	0.373145	-0.074470	0.075128
C161	C	0.380623	-0.133903	0.070746
C162	C	0.350594	-0.170746	0.107463
H163	H	0.277846	-0.072002	0.183366
H164	H	0.330105	-0.007886	0.119469
H165	H	0.395374	-0.047197	0.047947
H166	H	0.408388	-0.150626	0.040322
H167	H	0.356129	-0.214742	0.104219
C168	C	0.685313	-0.945601	0.322201
C169	C	0.625882	-0.953174	0.317865
C170	C	0.589057	-0.923171	0.354603
C171	C	0.611661	-0.885594	0.395678
C172	C	0.671095	-0.878018	0.400016
C173	C	0.707921	-0.908022	0.363278
H174	H	0.609146	-0.980993	0.287457
H175	H	0.545060	-0.928779	0.351391
H176	H	0.584400	-0.863383	0.422874
H177	H	0.687831	-0.850200	0.430424
H178	H	0.751917	-0.902413	0.366490
H179	H	-0.044966	-0.312763	0.312616
H180	H	0.694729	-0.550103	0.312611
H181	H	0.556446	-0.312723	0.312527
C182	C	0.651762	-0.694448	0.355573
C183	C	0.592333	-0.702028	0.351238
C184	C	0.555505	-0.672028	0.387978
C185	C	0.578106	-0.634449	0.429052
C186	C	0.637539	-0.626867	0.433389
C187	C	0.674367	-0.656867	0.396650
H188	H	0.575599	-0.729848	0.320831
H189	H	0.511508	-0.677641	0.384767
H190	H	0.550844	-0.612242	0.456249
H191	H	0.654273	-0.599047	0.463797
H192	H	0.718364	-0.651254	0.399860
C193	C	0.825845	-0.181622	0.946140
C194	C	0.866873	-0.204287	0.908608
C195	C	0.903680	-0.167513	0.878597
C196	C	0.899459	-0.108074	0.886117
C197	C	0.858429	-0.085406	0.923650
C198	C	0.821622	-0.122179	0.953661
H199	H	0.869999	-0.248290	0.903040
H200	H	0.934053	-0.184294	0.850812
H201	H	0.926706	-0.080852	0.863900
H202	H	0.855303	-0.041403	0.929218
H203	H	0.791249	-0.105398	0.981446
H204	H	0.457385	-0.191213	0.191434
H205	H	0.816327	-1.052391	0.191464
C206	C	0.061903	-0.322326	0.322143
C207	C	0.099409	-0.363340	0.299414
C208	C	0.129433	-0.400174	0.336130
C209	C	0.121951	-0.395995	0.395575
C210	C	0.084443	-0.354980	0.418307
C211	C	0.054419	-0.318145	0.381592
H212	H	0.104950	-0.366435	0.255407
H213	H	0.157199	-0.430537	0.319302
H214	H	0.144177	-0.423263	0.422754
H215	H	0.078902	-0.351885	0.462315
H216	H	0.026653	-0.287783	0.398420
C217	C	0.564254	-0.181638	0.181887
C218	C	0.601826	-0.140627	0.204626
C219	C	0.631869	-0.103786	0.167918
C220	C	0.624340	-0.107955	0.108472
C221	C	0.586767	-0.148967	0.085730
C222	C	0.556724	-0.185808	0.122437
H223	H	0.607401	-0.137539	0.248634
H224	H	0.659683	-0.073426	0.184754
H225	H	0.646580	-0.080683	0.081299
H226	H	0.581192	-0.152055	0.041721
H227	H	0.528909	-0.216168	0.105602
C228	C	0.651787	-0.355526	0.694901
C229	C	0.674406	-0.396592	0.657369
C230	C	0.637592	-0.433381	0.627332
C231	C	0.578159	-0.429106	0.634827
C232	C	0.555537	-0.388039	0.672361
C233	C	0.592351	-0.351249	0.702398
H234	H	0.718405	-0.399758	0.651819
H235	H	0.654339	-0.463782	0.599547
H236	H	0.550907	-0.456340	0.612592
H237	H	0.511538	-0.384872	0.677911
H238	H	0.575604	-0.320849	0.730183
H239	H	0.694853	-0.312487	0.953902
H240	H	0.661361	-0.801290	0.346039
H241	H	0.661360	-0.345949	0.801756
H242	H	0.206223	-0.346229	0.345964
H243	H	0.694693	-0.451037	0.312592
C244	C	0.825662	-0.443179	0.181843
C245	C	0.821438	-0.450723	0.122402
C246	C	0.858238	-0.420681	0.085653
C247	C	0.899261	-0.383094	0.108344
C248	C	0.903486	-0.375548	0.167788
C249	C	0.866686	-0.405591	0.204537
H250	H	0.791069	-0.478549	0.105602
H251	H	0.855110	-0.426267	0.041649
H252	H	0.926502	-0.360855	0.081140
H253	H	0.933855	-0.347723	0.184588
H254	H	0.869815	-0.400004	0.248541
H255	H	0.849722	-0.157777	0.801827
H256	H	0.694806	-0.312597	0.550614
C257	C	0.685312	-0.322016	1.060752
C258	C	0.648500	-0.358792	1.030702
C259	C	0.611685	-0.395558	1.060714
C260	C	0.611682	-0.395547	1.120775
C261	C	0.648495	-0.358769	1.150829
C262	C	0.685310	-0.322004	1.120817
H263	H	0.648500	-0.358802	0.986238
H264	H	0.584433	-0.422783	1.038466
H265	H	0.584429	-0.422763	1.142992
H266	H	0.648495	-0.358760	1.195293
H267	H	0.712562	-0.294778	1.143064
H268	H	0.816148	-0.550036	0.191405
C269	C	0.859239	-0.694349	0.148490
C270	C	0.855024	-0.701898	0.089050
C271	C	0.891832	-0.671863	0.052304
C272	C	0.932856	-0.634279	0.074998
C273	C	0.937073	-0.626728	0.134441
C274	C	0.900264	-0.656763	0.171188
H275	H	0.824654	-0.729722	0.072247
H276	H	0.888711	-0.677453	0.008300
H277	H	0.960104	-0.612045	0.047796
H278	H	0.967443	-0.598904	0.151244
H279	H	0.903386	-0.651173	0.215192
C280	C	0.685236	-0.322177	0.443739
C281	C	0.644207	-0.299523	0.406185
C282	C	0.607405	-0.336306	0.376126
C283	C	0.611631	-0.395743	0.383622
C284	C	0.652662	-0.418400	0.421177
C285	C	0.689465	-0.381617	0.451236
H286	H	0.641077	-0.255521	0.400635
H287	H	0.577031	-0.319533	0.348325
H288	H	0.584388	-0.422972	0.361370
H289	H	0.655792	-0.462401	0.426727
H290	H	0.719838	-0.398389	0.479037
C291	C	0.449592	-0.322298	0.322088
C292	C	0.457072	-0.381728	0.317705
C293	C	0.427049	-0.418574	0.354424
C294	C	0.389547	-0.395990	0.395526
C295	C	0.382066	-0.336558	0.399910
C296	C	0.412088	-0.299712	0.363191
H297	H	0.484835	-0.398448	0.287277
H298	H	0.432588	-0.462569	0.351178
H299	H	0.367322	-0.423266	0.422708
H300	H	0.354303	-0.319837	0.430338
H301	H	0.406550	-0.255716	0.366437
H302	H	0.305269	-0.346225	0.345947
H303	H	0.849715	-0.801203	0.158053
C304	C	0.825852	-0.945512	0.181908
C305	C	0.821631	-0.953044	0.122466
C306	C	0.858430	-0.922993	0.085724
C307	C	0.899451	-0.885408	0.108424
C308	C	0.903673	-0.877874	0.167870
C309	C	0.866874	-0.907926	0.204611
H310	H	0.791264	-0.980868	0.105659
H311	H	0.855304	-0.928570	0.041719
H312	H	0.926692	-0.863162	0.081226
H313	H	0.934040	-0.850050	0.184676
H314	H	0.870000	-0.902348	0.248617
C315	C	0.825777	-0.181757	0.443793
C316	C	0.821555	-0.122318	0.451305
C317	C	0.858363	-0.085547	0.421291
C318	C	0.899393	-0.108216	0.383764
C319	C	0.903618	-0.167659	0.376250
C320	C	0.866810	-0.204429	0.406264
H321	H	0.791180	-0.105534	0.479086
H322	H	0.855235	-0.041543	0.426854
H323	H	0.926641	-0.080996	0.361546
H324	H	0.933992	-0.184443	0.348469
H325	H	0.869937	-0.248433	0.400702
