data_functionalizedCrystal
_audit_creation_method	'MofGen! by Chris Wilmer'
_symmetry_space_group_name_H-M	'P1'
_symmetry_Int_Tables_number	1
_symmetry_cell_setting	triclinic
loop_
_symmetry_equiv_pos_as_xyz
  x,y,z
_cell_length_a	16.959454
_cell_length_b	12.827893
_cell_length_c	12.827885
_cell_angle_alpha	89.980728
_cell_angle_beta	89.970356
_cell_angle_gamma	90.020046
loop_
_atom_site_label
_atom_site_type_symbol
_atom_site_fract_x
_atom_site_fract_y
_atom_site_fract_z
Zn1	Zn	-0.314644	1.597636	-0.590850
Zn2	Zn	-0.446843	1.597515	-0.416110
Zn3	Zn	-0.314682	1.422877	-0.416123
Zn4	Zn	-0.446784	1.422848	-0.590810
O5	O	-0.380738	1.510219	-0.503473
O6	O	-0.332189	1.743856	-0.567681
O7	O	-0.429352	1.574311	-0.269876
O8	O	-0.204066	1.446122	-0.439323
O9	O	-0.429315	1.743767	-0.439301
O10	O	-0.204038	1.574516	-0.567694
O11	O	-0.332254	1.446005	-0.269885
O12	O	-0.332197	1.276637	-0.439285
O13	O	-0.429215	1.446072	-0.737052
O14	O	-0.429252	1.276616	-0.567627
O15	O	-0.332132	1.574488	-0.737081
O16	O	-0.557446	1.574283	-0.439263
O17	O	-0.557403	1.445956	-0.567614
C18	C	-0.380723	1.238709	-0.503454
C19	C	-0.380736	1.122556	-0.503470
C20	C	-0.428836	1.070788	-0.566880
C21	C	-0.428850	0.950738	-0.566898
C22	C	-0.586105	1.510131	-0.503456
C23	C	-0.673961	1.510190	-0.503483
C24	C	-1.045444	1.443496	-0.570299
C25	C	-1.045429	1.577233	-0.436755
C26	C	-0.962883	1.577197	-0.436745
C27	C	-0.921614	1.510308	-0.503512
C28	C	-0.962891	1.443455	-0.570289
C29	C	-0.921601	1.644041	-0.369962
C30	C	-0.839050	1.644006	-0.369949
C31	C	-0.797779	1.577121	-0.436722
C32	C	-0.839061	1.510267	-0.503502
C33	C	-0.797791	1.443378	-0.570270
C34	C	-0.839071	1.376528	-0.637056
C35	C	-0.921620	1.376571	-0.637062
C36	C	-0.715231	1.577079	-0.436716
C37	C	-0.715238	1.443337	-0.570260
C38	C	-0.174570	1.510335	-0.503514
C39	C	-0.086714	1.510385	-0.503532
C40	C	-0.380754	1.782789	-0.503494
C41	C	-0.380761	1.898942	-0.503503
C42	C	-0.380662	1.510290	-0.776044
C43	C	-0.380630	1.510320	-0.892197
C44	C	-0.332581	1.573871	-0.943996
C45	C	-0.332546	1.573904	-1.064046
C46	C	-0.380757	1.510208	-0.231964
C47	C	-0.380567	1.510380	-0.115811
H48	H	-0.470004	1.115345	-0.621157
C49	C	-0.484483	0.890605	-0.640240
H50	H	-0.477190	0.817807	-0.630636
H51	H	-0.537589	0.908420	-0.624845
H52	H	-0.472980	0.908478	-0.710496
C53	C	-0.966993	1.717608	-0.296519
H54	H	-0.930587	1.757407	-0.256736
H55	H	-0.999151	1.763136	-0.336536
H56	H	-0.999238	1.677663	-0.250956
C57	C	-0.967029	1.303033	-0.710507
H58	H	-1.022102	1.312629	-0.700938
H59	H	-0.953466	1.318273	-0.780737
H60	H	-0.953543	1.232820	-0.695137
H61	H	-1.079036	1.631685	-0.382389
H62	H	-1.079058	1.389071	-0.624678
H63	H	-0.339581	0.943455	-0.449209
H64	H	-0.339562	1.077999	-0.449200
C65	C	-0.793645	1.717519	-0.296476
H66	H	-0.738571	1.707908	-0.306021
H67	H	-0.807123	1.787737	-0.311812
H68	H	-0.807220	1.702244	-0.226252
C69	C	-0.669822	1.650600	-0.363261
H70	H	-0.614748	1.640993	-0.372813
H71	H	-0.683307	1.720813	-0.378610
H72	H	-0.683390	1.635337	-0.293033
C73	C	-0.669848	1.369759	-0.643707
H74	H	-0.706257	1.329952	-0.683475
H75	H	-0.637600	1.409692	-0.689267
H76	H	-0.637692	1.324224	-0.603682
C77	C	-0.276972	1.647412	-1.124211
H78	H	-0.246854	1.687267	-1.076161
H79	H	-0.242547	1.607433	-1.166797
H80	H	-0.307235	1.692906	-1.166783
H81	H	-0.291467	1.628252	-0.899466
C82	C	-0.436156	1.436886	-1.055653
H83	H	-0.466285	1.397046	-1.103703
H84	H	-0.405912	1.391395	-1.013066
H85	H	-0.470582	1.476890	-1.013082
C86	C	-0.793674	1.302955	-0.710500
H87	H	-0.830077	1.263144	-0.750275
H88	H	-0.761425	1.342894	-0.756055
H89	H	-0.761518	1.257424	-0.670472
H90	H	-0.421736	1.455930	-0.936727
