data_functionalizedCrystal
_audit_creation_method	'MofGen! by Chris Wilmer'
_symmetry_space_group_name_H-M	'P1'
_symmetry_Int_Tables_number	1
_symmetry_cell_setting	triclinic
loop_
_symmetry_equiv_pos_as_xyz
  x,y,z
_cell_length_a	14.908571
_cell_length_b	12.759400
_cell_length_c	12.759393
_cell_angle_alpha	90.031877
_cell_angle_beta	86.686759
_cell_angle_gamma	93.289010
loop_
_atom_site_label
_atom_site_type_symbol
_atom_site_fract_x
_atom_site_fract_y
_atom_site_fract_z
Zn1	Zn	1.379269	0.511022	-0.686594
Zn2	Zn	1.379182	0.686736	-0.510908
Zn3	Zn	1.228402	0.500925	-0.500803
Zn4	Zn	1.228388	0.676506	-0.676424
O5	O	1.303810	0.593797	-0.593682
O6	O	1.505503	0.542838	-0.671773
O7	O	1.359150	0.662144	-0.362544
O8	O	1.248456	0.355246	-0.525475
O9	O	1.505439	0.671935	-0.542698
O10	O	1.359298	0.362665	-0.661975
O11	O	1.248372	0.525629	-0.355120
O12	O	1.102154	0.515709	-0.515614
O13	O	1.248433	0.654499	-0.824796
O14	O	1.102144	0.644707	-0.644643
O15	O	1.359285	0.532918	-0.832268
O16	O	1.359137	0.832397	-0.532837
O17	O	1.248349	0.824881	-0.654441
C18	C	1.303756	0.866761	-0.593657
C19	C	1.303816	0.983542	-0.593686
C20	C	1.069415	0.578003	-0.577929
C21	C	0.969139	0.571271	-0.571215
C22	C	1.303867	0.593694	-0.867719
C23	C	1.303892	0.593649	-0.984498
C24	C	0.780749	0.693157	-0.692775
C25	C	0.686532	0.686835	-0.686470
C26	C	0.686485	0.552302	-0.552306
C27	C	0.780702	0.558623	-0.558611
C28	C	0.827831	0.629055	-0.628846
C29	C	0.922051	0.635381	-0.635145
C30	C	0.922002	0.500843	-0.500988
C31	C	0.827784	0.494521	-0.494683
C32	C	1.539121	0.609654	-0.609497
C33	C	1.639396	0.616411	-0.616237
C34	C	1.303888	0.319769	-0.593732
C35	C	1.303922	0.202995	-0.593754
C36	C	1.361567	1.042287	-0.530446
C37	C	1.361622	1.152015	-0.530482
C38	C	1.246168	1.144242	-0.657002
C39	C	1.246118	1.034516	-0.656970
C40	C	1.428221	1.046775	-0.457397
C41	C	1.428277	1.156503	-0.457433
C42	C	1.246228	0.656905	-1.145200
C43	C	1.246193	0.656934	-1.035473
C44	C	1.361622	0.530325	-1.043254
C45	C	1.361651	0.530292	-1.152978
C46	C	1.179589	0.730005	-1.140707
C47	C	1.179554	0.730034	-1.030981
C48	C	1.303805	0.593828	-0.320714
C49	C	1.303955	0.593588	-0.203948
H50	H	0.960422	0.692731	-0.692333
H51	H	1.109730	0.703498	-1.165798
H52	H	1.403213	1.011145	-0.378392
H53	H	1.494656	1.194915	-0.491102
H54	H	0.960346	0.448648	-0.448930
C55	C	1.403054	1.195155	-0.345811
H56	H	1.392635	1.136591	-0.299883
H57	H	1.450903	1.239713	-0.322041
H58	H	1.350047	1.232996	-0.346650
H59	H	0.819122	0.750510	-0.749957
C60	C	0.634637	0.474827	-0.475062
H61	H	0.676169	0.437546	-0.437895
H62	H	0.597853	0.512492	-0.426761
H63	H	0.597910	0.426629	-0.512887
H64	H	1.408652	0.478725	-1.200807
H65	H	1.199193	1.185759	-0.708526
H66	H	1.204605	0.808973	-1.176401
C67	C	1.182604	0.969896	-0.726545
H68	H	1.190842	0.897247	-0.717473
H69	H	1.122001	0.983865	-0.707058
H70	H	1.195798	0.988699	-0.798039
H71	H	0.648201	0.739032	-0.738529
H72	H	1.498070	1.021618	-0.483938
C73	C	0.775942	0.417052	-0.417429
H74	H	0.817479	0.379777	-0.380263
H75	H	0.739162	0.454722	-0.369127
H76	H	0.739212	0.368848	-0.455243
C77	C	1.425087	0.460711	-0.987184
H78	H	1.416806	0.469802	-0.913422
H79	H	1.411911	0.389228	-1.004300
H80	H	1.485706	0.480175	-1.009229
H81	H	1.113176	0.696431	-0.992502
C82	C	1.204993	0.841615	-0.992424
H83	H	1.215468	0.887487	-1.051027
H84	H	1.157251	0.865589	-0.947797
H85	H	1.258029	0.840590	-0.954680
