data_functionalizedCrystal
_audit_creation_method	'MofGen! by Chris Wilmer'
_symmetry_space_group_name_H-M	'P1'
_symmetry_Int_Tables_number	1
_symmetry_cell_setting	triclinic
loop_
_symmetry_equiv_pos_as_xyz
  x,y,z
_cell_length_a	27.440280
_cell_length_b	14.809374
_cell_length_c	14.809374
_cell_angle_alpha	60.797835
_cell_angle_beta	90.004513
_cell_angle_gamma	67.424940
loop_
_atom_site_label
_atom_site_type_symbol
_atom_site_fract_x
_atom_site_fract_y
_atom_site_fract_z
Zr1	Zr	0.538312	0.955110	-0.203550
O2	O	0.478612	1.113041	-0.350723
O3	O	0.548161	0.777342	-0.145471
O4	O	0.568096	0.926486	-0.332007
O5	O	0.452566	0.993394	-0.031791
O6	O	0.648297	0.926473	-0.331988
O7	O	0.458677	0.963897	-0.164188
O8	O	0.612637	0.659681	0.001689
O9	O	0.488227	1.260185	-0.365469
O10	O	0.622426	0.857798	-0.136349
O11	O	0.558012	0.879821	-0.037556
O12	O	0.581484	1.055419	-0.257178
O13	O	0.517070	1.077442	-0.158385
Zr14	Zr	0.656477	1.002133	0.007636
Zr15	Zr	0.666223	0.955089	-0.203521
Zr16	Zr	0.528566	1.002154	0.007607
Zr17	Zr	0.553646	1.189788	-0.227068
Zr18	Zr	0.641143	0.767454	0.031154
O19	O	0.646627	1.179901	-0.050443
O20	O	0.660486	1.113010	-0.350682
O21	O	0.464754	1.179932	-0.050485
O22	O	0.716176	0.844202	0.154809
O23	O	0.730034	0.777311	-0.145430
O24	O	0.534303	0.844232	0.154767
O25	O	0.742223	0.963849	-0.164123
O26	O	0.626692	1.030757	0.136092
O27	O	0.546491	1.030770	0.136074
O28	O	0.736112	0.993346	-0.031726
O29	O	0.589899	1.260168	-0.365446
O30	O	0.604890	0.697074	0.169531
O31	O	0.706562	0.697057	0.169555
O32	O	0.714309	0.659664	0.001713
O33	O	0.480480	1.297579	-0.197627
O34	O	0.582152	1.297562	-0.197604
O35	O	0.613305	0.901824	0.061263
O36	O	0.677718	0.879801	-0.037529
O37	O	0.636776	1.077422	-0.158358
O38	O	0.572363	1.099445	-0.059565
C39	C	0.578214	0.685075	-0.068540
C40	C	0.571705	0.585448	-0.058556
C41	C	0.437397	0.978648	-0.097994
C42	C	0.383095	0.978658	-0.098006
C43	C	0.600756	0.530106	-0.103113
C44	C	0.594029	0.427136	-0.092795
C45	C	0.067761	0.875450	-0.034856
C46	C	0.016742	0.875445	-0.034847
O47	O	0.008528	0.787721	0.018823
N48	N	-0.030146	0.978600	-0.097919
C49	C	-0.026014	1.081768	-0.160997
O50	O	-0.070581	1.169509	-0.214643
C51	C	0.025004	1.081774	-0.161000
C52	C	0.071892	0.978610	-0.097932
C53	C	0.114647	0.772296	0.028208
C54	C	0.165663	0.772301	0.028196
C55	C	0.169793	0.875461	-0.034879
C56	C	0.122907	0.978615	-0.097943
C57	C	0.029135	1.184942	-0.224071
C58	C	0.080159	1.184938	-0.224068
C59	C	0.127046	1.081775	-0.161000
C60	C	0.178053	1.081780	-0.161029
N61	N	0.224941	0.978626	-0.097957
C62	C	0.220811	0.875466	-0.034882
C63	C	-0.133155	1.081750	-0.160984
C64	C	-0.184172	1.081745	-0.160988
C65	C	-0.141412	0.875422	-0.034836
C66	C	-0.090394	0.875427	-0.034839
C67	C	-0.086266	0.978595	-0.097912
C68	C	0.327947	0.875484	-0.034911
C69	C	0.378965	0.875498	-0.034931
C70	C	0.336201	1.081821	-0.161078
C71	C	0.285187	1.081807	-0.161062
C72	C	0.281063	0.978630	-0.097970
O73	O	0.186308	1.169460	-0.214668
O74	O	0.265381	0.787742	0.018766
C75	C	0.757392	0.978594	-0.097921
C76	C	0.811693	0.978585	-0.097908
C77	C	0.609585	0.919777	-0.362083
C78	C	0.613723	0.899805	-0.451725
C79	C	0.616574	1.272168	-0.127374
C80	C	0.623084	1.371795	-0.137358
C81	C	0.595258	0.988935	-0.551629
C82	C	0.599534	0.968296	-0.644280
C83	C	0.585203	1.037466	0.166169
C84	C	0.581065	1.057437	0.255810
C85	C	0.738211	0.685048	-0.068504
C86	C	0.786004	0.585411	-0.058507
C87	C	0.566023	0.743919	0.195586
C88	C	0.555376	0.664264	0.295211
C89	C	0.726020	0.743892	0.195622
C90	C	0.769675	0.664228	0.295260
C91	C	0.468768	1.213350	-0.391536
C92	C	0.425114	1.293015	-0.491174
C93	C	0.456577	1.272195	-0.127411
C94	C	0.408785	1.371831	-0.137407
C95	C	0.628766	1.213323	-0.391500
C96	C	0.639413	1.292979	-0.491125
C97	C	0.779586	0.527134	-0.105405
C98	C	0.824488	0.433524	-0.096033
C99	C	0.875808	0.398188	-0.039757
C100	C	0.882225	0.456475	0.007141
C101	C	0.837324	0.550088	-0.002238
C102	C	0.579237	0.638344	0.393588
C103	C	0.569232	0.563514	0.487204
C104	C	0.535367	0.514599	0.482441
C105	C	0.511502	0.540525	0.384053
C106	C	0.521505	0.615361	0.290439
C107	C	0.823804	0.615320	0.290483
C108	C	0.864828	0.540478	0.384094
C109	C	0.851722	0.514538	0.482482
C110	C	0.797587	0.563454	0.487257
C111	C	0.756564	0.638301	0.393646
C112	C	0.370985	1.341934	-0.486398
C113	C	0.329963	1.416805	-0.580012
C114	C	0.343070	1.442750	-0.678401
C115	C	0.397204	1.393828	-0.683175
C116	C	0.438226	1.318964	-0.589563
C117	C	0.415204	1.430117	-0.090519
C118	C	0.370304	1.523747	-0.099917
C119	C	0.318985	1.559086	-0.156196
C120	C	0.312567	1.500795	-0.203089
C121	C	0.357467	1.407171	-0.193698
C122	C	0.673280	1.341872	-0.486328
C123	C	0.683295	1.416706	-0.579927
C124	C	0.659438	1.442652	-0.678324
C125	C	0.625569	1.393751	-0.683119
C126	C	0.615558	1.318912	-0.589520
H127	H	0.630611	0.558951	-0.148894
H128	H	0.786923	0.542323	0.567377
F129	F	0.532687	0.547737	0.001296
F130	F	0.837766	0.642918	0.185779
H131	H	0.606148	1.414888	-0.763246
H132	H	0.587979	1.279110	-0.593441
H133	H	0.285888	1.456626	-0.576104
F134	F	0.624340	0.848575	-0.622124
H135	H	0.352233	1.359717	-0.231877
H136	H	0.309662	1.503710	-0.754618
H137	H	0.885130	0.453591	0.558698
H138	H	0.712490	0.678113	0.397551
F139	F	0.698676	1.314272	-0.381616
H140	H	0.407870	1.414962	-0.763294
F141	F	0.377145	1.585766	-0.049998
H142	H	0.908904	0.500656	0.380188
H143	H	0.360303	1.320814	-0.406293
H144	H	0.417142	0.791486	0.016430
H145	H	0.564175	0.398286	-0.047004
H146	H	0.482299	1.279133	-0.593464
H147	H	0.527226	0.453665	0.558676
H148	H	0.652941	0.400637	-0.183142
H149	H	0.324597	0.791468	0.016466
F150	F	0.936847	0.418852	0.067034
H151	H	0.456986	1.401354	-0.044685
H152	H	0.282429	1.635322	-0.163835
H153	H	0.710872	1.456516	-0.576003
F154	F	0.257945	1.538417	-0.262980
H155	H	0.667594	1.503594	-0.754531
H156	H	0.203836	0.688293	0.079549
F157	F	0.475462	0.488456	0.379001
F158	F	0.110262	0.662489	0.095350
F159	F	-0.128769	1.191562	-0.228128
F160	F	-0.040496	0.765628	0.032287
H161	H	-0.144783	0.791422	0.016520
F162	F	0.844162	0.612098	0.047688
H163	H	-0.009034	1.268949	-0.275427
F164	F	0.084547	1.294748	-0.291198
F165	F	-0.234068	1.191542	-0.228127
H166	H	0.339574	1.165811	-0.212436
F167	F	0.235285	1.191600	-0.228204
F168	F	0.556266	1.177159	-0.766348
H169	H	0.632699	0.808218	-0.434785
H170	H	0.576286	1.080522	-0.568569
F171	F	0.724972	0.564725	-0.165306
F172	F	0.496108	0.642931	0.185743
F173	F	0.923591	0.298552	-0.029784
F174	F	0.817647	0.371503	-0.145949
H175	H	0.606812	0.678165	0.397487
H176	H	0.588669	0.542414	0.567306
