data_functionalizedCrystal
_audit_creation_method	'MofGen! by Chris Wilmer'
_symmetry_space_group_name_H-M	'P1'
_symmetry_Int_Tables_number	1
_symmetry_cell_setting	triclinic
loop_
_symmetry_equiv_pos_as_xyz
  x,y,z
_cell_length_a	14.853568
_cell_length_b	17.699092
_cell_length_c	16.776229
_cell_angle_alpha	90.001732
_cell_angle_beta	89.997045
_cell_angle_gamma	96.539222
loop_
_atom_site_label
_atom_site_type_symbol
_atom_site_fract_x
_atom_site_fract_y
_atom_site_fract_z
O1	O	-1.196006	0.098815	0.066233
O2	O	-0.933504	0.110586	0.066246
O3	O	-1.072167	-0.005469	0.066237
O4	O	-1.057342	0.214870	0.066242
O5	O	-1.072152	-0.005469	-0.066339
O6	O	-0.933488	0.110586	-0.066331
O7	O	-1.195990	0.098815	-0.066343
Zn8	Zn	-1.064737	0.104700	-0.087386
Zn9	Zn	-1.064757	0.104701	0.087289
O10	O	-1.057327	0.214870	-0.066335
C11	C	-0.899909	0.110052	-0.000041
C12	C	-0.799831	0.108454	-0.000036
C13	C	-0.387573	0.032757	-0.000056
C14	C	-0.365790	0.170634	-0.000053
C15	C	-0.459818	0.172137	-0.000050
C16	C	-0.517728	0.103949	-0.000049
C17	C	-0.481611	0.034258	-0.000051
C18	C	-0.495943	0.241826	-0.000040
C19	C	-0.589976	0.243332	-0.000036
C20	C	-0.647889	0.175143	-0.000041
C21	C	-0.611766	0.105450	-0.000044
C22	C	-0.669676	0.037262	-0.000043
C23	C	-0.633555	-0.032432	-0.000052
C24	C	-0.539523	-0.033930	-0.000056
C25	C	-0.741921	0.176641	-0.000037
C26	C	-0.763713	0.038763	-0.000038
C27	C	-1.071627	-0.033667	-0.000050
C28	C	-1.070029	-0.117689	-0.000046
C29	C	-0.229585	0.099348	-0.000056
C30	C	-0.329663	0.100945	-0.000057
C31	C	-1.069290	-0.157158	0.072223
C32	C	-1.067783	-0.236105	0.072224
C33	C	-1.067022	-0.275582	-0.000045
C34	C	-1.067760	-0.236107	-0.072319
C35	C	-1.069260	-0.157161	-0.072319
C36	C	-1.061708	-0.554488	-0.072320
C37	C	-1.060211	-0.633440	-0.072314
C38	C	-1.060231	-0.633432	0.072223
C39	C	-1.061731	-0.554486	0.072223
C40	C	-1.062464	-0.515017	-0.000051
C41	C	-1.064096	-0.429414	-0.000051
C42	C	-1.065397	-0.361185	-0.000045
C43	C	-1.057867	0.243068	-0.000046
C44	C	-1.059464	0.327090	-0.000045
N45	N	-1.064729	0.104699	-0.206598
C46	C	-1.119303	0.150690	-0.248313
C47	C	-1.119313	0.150687	-0.331765
C48	C	-1.064744	0.104697	-0.373500
C49	C	-1.010168	0.058702	-0.331779
C50	C	-1.010163	0.058701	-0.248328
C51	C	-1.010186	0.058703	-0.668326
C52	C	-1.010192	0.058709	-0.751783
C53	C	-1.119336	0.150688	-0.751763
C54	C	-1.119331	0.150688	-0.668312
C55	C	-1.064759	0.104690	-0.626598
C56	C	-1.064750	0.104692	-0.536110
C57	C	-1.064747	0.104698	-0.463987
N58	N	-1.064772	0.104695	0.206500
H59	H	-0.448786	0.297340	-0.000032
C60	C	-0.787377	-0.091340	-0.000041
C61	C	-0.697217	-0.107383	-0.000051
H62	H	-0.826679	-0.137611	-0.000046
H63	H	-0.798297	-0.062775	0.046192
H64	H	-0.798301	-0.062765	-0.046273
H65	H	-0.686291	-0.135953	0.046184
H66	H	-0.686292	-0.135960	-0.046289
H67	H	-1.163764	0.188140	-0.634336
C68	C	-1.057886	-0.754462	-0.136489
C69	C	-1.059356	-0.676834	-0.151756
H70	H	-1.057362	-0.781251	-0.185532
H71	H	-1.005103	-0.761676	-0.106785
H72	H	-1.110208	-0.773108	-0.106808
H73	H	-1.007031	-0.658187	-0.181434
H74	H	-1.112145	-0.669615	-0.181473
H75	H	-0.358159	-0.023986	-0.000066
H76	H	-0.318634	0.226149	-0.000047
C77	C	-0.961651	0.017902	-0.459708
C78	C	-0.950180	0.008149	-0.377650
H79	H	-0.924609	-0.013304	-0.488023
H80	H	-1.023352	0.003956	-0.473407
H81	H	-0.944757	0.069667	-0.473346
H82	H	-0.967081	-0.043616	-0.364011
H83	H	-0.888466	0.022090	-0.363946
H84	H	-0.965723	0.021251	-0.214365
C85	C	-0.888916	0.053815	-0.574527
C86	C	-0.950165	0.008164	-0.622493
H87	H	-0.851856	0.022615	-0.546230
H88	H	-0.851932	0.088595	-0.607092
H89	H	-0.921426	0.081185	-0.537718
H90	H	-0.917655	-0.019203	-0.659305
H91	H	-0.987154	-0.026630	-0.589925
H92	H	-1.163773	0.188140	-0.785737
C93	C	-1.065468	-0.357130	-0.136499
C94	C	-1.066932	-0.279500	-0.151758
H95	H	-1.064966	-0.383916	-0.185544
H96	H	-1.012675	-0.364351	-0.106812
H97	H	-1.117780	-0.375772	-0.106803
H98	H	-1.014616	-0.260856	-0.181450
H99	H	-1.119730	-0.272274	-0.181458
C100	C	-0.405053	-0.097448	-0.000053
C101	C	-0.499816	-0.110532	-0.000056
H102	H	-0.380539	-0.144739	-0.000047
H103	H	-0.385172	-0.069375	-0.046283
H104	H	-0.385180	-0.069365	0.046182
H105	H	-0.519689	-0.138611	-0.046295
H106	H	-0.519705	-0.138617	0.046178
C107	C	-0.683094	0.325008	-0.068167
C108	C	-0.629688	0.319932	-0.000022
H109	H	-0.707617	0.372296	-0.068152
H110	H	-0.646863	0.321571	-0.114394
H111	H	-0.731033	0.284606	-0.068162
H112	H	-0.581745	0.360332	-0.000030
H113	H	-0.665921	0.323377	0.046217
H114	H	-0.810859	-0.016764	-0.000040
H115	H	-0.771326	0.233385	-0.000031
C116	C	-0.902316	-0.032233	-0.743428
C117	C	-0.950213	0.008147	-0.797662
H118	H	-0.865294	-0.063448	-0.771754
H119	H	-0.865291	0.002535	-0.710881
H120	H	-0.943882	-0.063180	-0.710876
H121	H	-0.908647	0.039099	-0.830210
H122	H	-0.987241	-0.026625	-0.830222
H123	H	-1.062323	-0.522364	-0.131169
H124	H	-1.069914	-0.125023	0.131072
C125	C	-1.240529	0.155609	-0.154450
C126	C	-1.179286	0.201244	-0.202439
H127	H	-1.277557	0.186821	-0.126128
H128	H	-1.277547	0.120842	-0.187003
H129	H	-1.208015	0.128223	-0.117664
H130	H	-1.211800	0.228625	-0.239229
H131	H	-1.142264	0.236024	-0.169883
H132	H	-1.067184	-0.268238	0.131072
H133	H	-1.062355	-0.522348	0.131071
H134	H	-1.059630	-0.665577	0.131071
C135	C	-1.069078	-0.165092	-0.215192
C136	C	-1.070064	-0.113773	-0.151759
H137	H	-1.069572	-0.138304	-0.264235
H138	H	-1.015949	-0.190172	-0.212175
H139	H	-1.121054	-0.201597	-0.212191
H140	H	-1.018084	-0.077271	-0.154756
H141	H	-1.123198	-0.088680	-0.154777
C142	C	-1.227182	0.241621	-0.323363
C143	C	-1.179295	0.201247	-0.377619
H144	H	-1.264208	0.272839	-0.351673
H145	H	-1.264200	0.206850	-0.290815
H146	H	-1.185609	0.272564	-0.290815
H147	H	-1.220868	0.170299	-0.410163
H148	H	-1.142273	0.236023	-0.410181
