data_functionalizedCrystal
_audit_creation_method	'MofGen! by Chris Wilmer'
_symmetry_space_group_name_H-M	'P1'
_symmetry_Int_Tables_number	1
_symmetry_cell_setting	triclinic
loop_
_symmetry_equiv_pos_as_xyz
  x,y,z
_cell_length_a	17.699083
_cell_length_b	9.065218
_cell_length_c	7.540329
_cell_angle_alpha	90.001757
_cell_angle_beta	89.996928
_cell_angle_gamma	84.149450
loop_
_atom_site_label
_atom_site_type_symbol
_atom_site_fract_x
_atom_site_fract_y
_atom_site_fract_z
O1	O	-1.005529	-0.186555	-0.147226
O2	O	-0.505529	0.313445	0.352774
O3	O	-0.785340	-0.210827	-0.147284
O4	O	-0.285340	0.289173	0.352716
O5	O	-0.899986	0.016086	-0.147250
O6	O	-0.399986	0.516086	0.352750
O7	O	-0.890883	-0.413468	-0.147260
O8	O	-0.390883	0.086532	0.352740
O9	O	-0.899979	0.016089	0.147715
O10	O	-0.399979	0.516089	0.647715
O11	O	-0.785333	-0.210824	0.147681
O12	O	-0.285333	0.289176	0.647681
O13	O	-1.005522	-0.186552	0.147739
O14	O	-0.505522	0.313448	0.647739
Cu15	Cu	-0.895427	-0.198688	0.174643
Cu16	Cu	-0.395427	0.301312	0.674643
Cu17	Cu	-0.895435	-0.198691	-0.174188
Cu18	Cu	-0.395435	0.301309	0.325812
O19	O	-0.890876	-0.413466	0.147705
O20	O	-0.390876	0.086534	0.647705
C21	C	-0.757133	-0.209956	0.000192
C22	C	-0.257133	0.290044	0.500192
C23	C	-0.673094	-0.207347	0.000170
C24	C	-0.173094	0.292653	0.500170
C25	C	-0.899108	0.071048	0.000229
C26	C	-0.399108	0.571048	0.500229
C27	C	-0.896492	0.234814	0.000220
C28	C	-0.396492	0.734814	0.500220
C29	C	-1.033729	-0.187423	0.000260
C30	C	-0.533729	0.312577	0.500260
C31	C	-1.117768	-0.190033	0.000270
C32	C	-0.617768	0.309967	0.500270
C33	C	-0.625512	-0.340540	0.000167
C34	C	-0.125512	0.159460	0.500167
C35	C	-0.546550	-0.338080	0.000190
C36	C	-0.046550	0.161920	0.500190
C37	C	-0.515171	-0.202425	0.000203
C38	C	-0.015171	0.297575	0.500203
C39	C	-0.562759	-0.069221	0.000211
C40	C	-0.062759	0.430779	0.500211
C41	C	-0.641720	-0.071683	0.000200
C42	C	-0.141720	0.428317	0.500200
C43	C	-0.244319	-0.059289	0.000255
C44	C	0.255681	0.440711	0.500255
C45	C	-0.165352	-0.056838	0.000260
C46	C	0.334648	0.443162	0.500260
C47	C	-0.149148	-0.325686	0.000244
C48	C	0.350852	0.174314	0.500244
C49	C	-0.228109	-0.328148	0.000234
C50	C	0.271891	0.171852	0.500234
C51	C	-0.275691	-0.194946	0.000251
C52	C	0.224309	0.305054	0.500251
C53	C	-0.361311	-0.197615	0.000230
C54	C	0.138689	0.302385	0.500230
C55	C	-0.429552	-0.199754	0.000212
C56	C	0.070448	0.300246	0.500212
C57	C	-0.891755	-0.468428	0.000222
C58	C	-0.391755	0.031572	0.500222
C59	C	-0.894370	-0.632193	0.000219
C60	C	-0.394370	-0.132193	0.500219
N61	N	-0.895427	-0.198685	0.419991
N62	N	-0.395427	0.301315	0.919991
N63	N	-0.895441	-0.198683	-0.419536
N64	N	-0.395441	0.301317	0.080464
H65	H	-0.651054	-0.451006	0.000155
H66	H	-0.151054	0.048994	0.500155
H67	H	-0.507811	-0.446539	0.000186
H68	H	-0.007811	0.053461	0.500186
H69	H	-0.537205	0.041232	0.000246
H70	H	-0.037205	0.541232	0.500246
H71	H	-0.283051	0.049173	0.000270
H72	H	0.216949	0.549173	0.500270
H73	H	-0.253653	-0.438612	0.000216
H74	H	0.246347	0.061388	0.500216
H75	H	-0.110397	-0.434146	0.000240
H76	H	0.389603	0.065854	0.500240
H77	H	-0.139807	0.053635	0.000272
H78	H	0.360193	0.553635	0.500272
H79	H	-0.680462	0.036777	0.000201
H80	H	-0.180462	0.536777	0.500201
