data_functionalizedCrystal
_audit_creation_method	'MofGen! by Chris Wilmer'
_symmetry_space_group_name_H-M	'P1'
_symmetry_Int_Tables_number	1
_symmetry_cell_setting	triclinic
loop_
_symmetry_equiv_pos_as_xyz
  x,y,z
_cell_length_a	17.638336
_cell_length_b	17.637015
_cell_length_c	16.959447
_cell_angle_alpha	101.248830
_cell_angle_beta	101.211961
_cell_angle_gamma	87.828186
loop_
_atom_site_label
_atom_site_type_symbol
_atom_site_fract_x
_atom_site_fract_y
_atom_site_fract_z
Zn1	Zn	1.099767	-0.537565	0.560118
Zn2	Zn	1.074010	-0.664583	0.397034
Zn3	Zn	0.972783	-0.511872	0.407522
Zn4	Zn	0.947083	-0.638818	0.508765
O5	O	1.023411	-0.588209	0.468360
O6	O	1.202613	-0.575950	0.555587
O7	O	1.060558	-0.644356	0.287803
O8	O	1.011162	-0.408995	0.453645
O9	O	1.183690	-0.669269	0.435770
O10	O	1.104457	-0.427872	0.565757
O11	O	0.986187	-0.532160	0.295509
O12	O	0.863111	-0.507176	0.403850
O13	O	0.967361	-0.625356	0.626199
O14	O	0.844229	-0.600443	0.478232
O15	O	1.079537	-0.550966	0.663928
O16	O	1.035638	-0.767450	0.385974
O17	O	0.942385	-0.748521	0.468062
C18	C	0.826117	-0.548226	0.436607
C19	C	0.741711	-0.531139	0.423037
C20	C	0.632566	-0.458423	0.365281
C21	C	0.711878	-0.474484	0.378036
C22	C	0.692236	-0.571759	0.455297
C23	C	0.612921	-0.555709	0.442545
C24	C	0.583092	-0.499039	0.397537
C25	C	0.563447	-0.596325	0.474801
C26	C	0.484139	-0.580273	0.462053
C27	C	0.454304	-0.523604	0.417049
C28	C	0.503784	-0.482987	0.384789
C29	C	0.593278	-0.652991	0.519814
C30	C	0.543804	-0.693607	0.552070
C31	C	0.464494	-0.677559	0.539317
C32	C	0.434659	-0.620891	0.494313
C33	C	0.415014	-0.718177	0.571577
C34	C	0.335706	-0.702124	0.558829
C35	C	0.355351	-0.604838	0.481565
C36	C	0.983449	-0.785548	0.420328
C37	C	0.966422	-0.869985	0.399817
C38	C	0.893882	-0.979240	0.312493
C39	C	0.909887	-0.899900	0.331772
C40	C	1.006979	-0.919405	0.448607
C41	C	0.990985	-0.998748	0.429335
C42	C	0.934435	-1.028659	0.361277
C43	C	1.031538	-1.048167	0.478120
C44	C	1.015543	-1.127503	0.458851
C45	C	0.958994	-1.157420	0.390798
C46	C	0.918440	-1.107995	0.342009
C47	C	1.088083	-1.018254	0.546181
C48	C	1.128636	-1.067673	0.594965
C49	C	1.112645	-1.147011	0.575694
C50	C	1.056097	-1.176928	0.507641
C51	C	1.153199	-1.196437	0.624483
C52	C	1.137204	-1.275773	0.605215
C53	C	1.040101	-1.256264	0.488372
C54	C	1.221474	-0.628350	0.500237
C55	C	1.305877	-0.645455	0.513821
C56	C	1.023455	-0.588153	0.674548
C57	C	1.023474	-0.588129	0.762414
C58	C	1.063550	-0.390104	0.516600
C59	C	1.080654	-0.305684	0.537157
C60	C	1.023421	-0.588220	0.262994
C61	C	1.023593	-0.588060	0.175204
C62	C	0.965176	-0.626799	1.114282
C63	C	1.081986	-0.549336	1.153565
C64	C	1.081962	-0.549348	1.071012
C65	C	1.023545	-0.588087	1.010090
C66	C	0.965152	-0.626814	1.031721
C67	C	1.140359	-0.510628	1.049374
C68	C	1.140339	-0.510639	0.966817
C69	C	1.081918	-0.549374	0.905893
C70	C	1.023521	-0.588102	0.927528
C71	C	0.965104	-0.626841	0.866606
C72	C	0.906704	-0.665565	0.888240
C73	C	0.906731	-0.665549	0.970797
C74	C	1.081891	-0.549390	0.823336
C75	C	0.965080	-0.626856	0.784045
H76	H	0.479496	-0.436841	0.348138
F77	F	1.144044	-0.508186	0.800313
F78	F	0.866724	-0.847307	0.279840
H79	H	0.917504	-0.658394	0.734446
H80	H	1.187891	-0.479107	0.949211
H81	H	0.331063	-0.558692	0.444915
H82	H	0.389727	-0.510533	0.406675
H83	H	0.945966	-1.222020	0.375115
H84	H	1.174677	-1.043310	0.650380
F85	F	0.677686	-0.670075	0.533379
H86	H	0.859144	-0.697110	0.838626
H87	H	0.716534	-0.617897	0.491945
F88	F	0.575558	-0.753921	0.599965
H89	H	0.859187	-0.697078	0.988420
F90	F	0.979923	-1.288104	0.415929
H91	H	0.752159	-0.441398	0.351775
F92	F	0.600814	-0.398118	0.317365
H93	H	0.917626	-0.658324	1.131901
H94	H	0.439314	-0.764311	0.608229
H95	H	1.129550	-0.517801	1.203172
F96	F	1.213371	-1.164590	0.696921
H97	H	0.847838	-1.003596	0.257069
H98	H	0.295423	-0.735196	0.585098
F99	F	0.858262	-1.139834	0.269566
H100	H	1.053019	-0.895041	0.504022
F101	F	1.104895	-0.933774	0.566871
F102	F	1.180367	-1.328371	0.657135
H103	H	1.187923	-0.479094	1.098982
