data_functionalizedCrystal
_audit_creation_method	'MofGen! by Chris Wilmer'
_symmetry_space_group_name_H-M	'P1'
_symmetry_Int_Tables_number	1
_symmetry_cell_setting	triclinic
loop_
_symmetry_equiv_pos_as_xyz
  x,y,z
_cell_length_a	17.639617
_cell_length_b	17.077402
_cell_length_c	17.077396
_cell_angle_alpha	89.970216
_cell_angle_beta	78.758898
_cell_angle_gamma	101.207680
loop_
_atom_site_label
_atom_site_type_symbol
_atom_site_fract_x
_atom_site_fract_y
_atom_site_fract_z
Zn1	Zn	1.208523	-0.070232	-0.686896
Zn2	Zn	1.208430	-0.201526	-0.555608
Zn3	Zn	1.076329	-0.096761	-0.529057
Zn4	Zn	1.076296	-0.227968	-0.660257
O5	O	1.142394	-0.149122	-0.607955
O6	O	1.319133	-0.065480	-0.691741
O7	O	1.190880	-0.187665	-0.442234
O8	O	1.093917	0.016616	-0.550031
O9	O	1.319064	-0.161941	-0.595284
O10	O	1.191040	0.036106	-0.665995
O11	O	1.093826	-0.110694	-0.422727
O12	O	0.965702	-0.136334	-0.524200
O13	O	1.093862	-0.207008	-0.773643
O14	O	0.965679	-0.232731	-0.620593
O15	O	1.191009	-0.091120	-0.793215
O16	O	1.190849	-0.314891	-0.569454
O17	O	1.093771	-0.334318	-0.646339
C18	C	1.142318	-0.353085	-0.607908
C19	C	1.142358	-0.440327	-0.607929
C20	C	0.937007	-0.190281	-0.566625
C21	C	0.849142	-0.207908	-0.548963
C22	C	1.192958	-0.471165	-0.567959
C23	C	1.192996	-0.553138	-0.567987
C24	C	1.142431	-0.604272	-0.607980
C25	C	1.091828	-0.573428	-0.647955
C26	C	1.091794	-0.491456	-0.647931
C27	C	1.091902	-0.744283	-0.647999
C28	C	1.091934	-0.826261	-0.648022
C29	C	1.193104	-0.805965	-0.568055
C30	C	1.193070	-0.723993	-0.568031
C31	C	1.142466	-0.693155	-0.608005
C32	C	0.560314	-0.015194	-0.742328
C33	C	0.477751	-0.031777	-0.725715
C34	C	0.477701	-0.132055	-0.625131
C35	C	0.560266	-0.115483	-0.641737
C36	C	0.601565	-0.057051	-0.700336
C37	C	0.601517	-0.157340	-0.599745
C38	C	0.684075	-0.140766	-0.616348
C39	C	0.725381	-0.082336	-0.674943
C40	C	0.684123	-0.040477	-0.716939
C41	C	0.560216	-0.215768	-0.541143
C42	C	0.601468	-0.257625	-0.499151
C43	C	0.684027	-0.241056	-0.515758
C44	C	0.725333	-0.182625	-0.574352
C45	C	0.725285	-0.282914	-0.473761
C46	C	0.807842	-0.266340	-0.490364
C47	C	0.807890	-0.166051	-0.590955
C48	C	1.348583	-0.107802	-0.649446
C49	C	1.436449	-0.090194	-0.667127
C50	C	1.142442	-0.149054	-0.812709
C51	C	1.142463	-0.149026	-0.899963
C52	C	1.142493	0.055642	-0.608023
C53	C	1.142534	0.142900	-0.608052
C54	C	1.193049	-0.088678	-0.951145
C55	C	1.193058	-0.088650	-1.033128
C56	C	1.142485	-0.148973	-1.063927
C57	C	1.091894	-0.209324	-1.012737
C58	C	1.091881	-0.209348	-0.930755
C59	C	1.091925	-0.209270	-1.183614
C60	C	1.091939	-0.209247	-1.265601
C61	C	1.193103	-0.088573	-1.285986
C62	C	1.193090	-0.088597	-1.204004
C63	C	1.142499	-0.148948	-1.152820
C64	C	1.142392	-0.149123	-0.404006
C65	C	1.142525	-0.148900	-0.316784
H66	H	1.234199	-0.578242	-0.535439
H67	H	1.234240	-0.682360	-0.535461
H68	H	0.792604	-0.068840	-0.688457
H69	H	0.444166	0.002317	-0.759911
H70	H	0.492992	-0.229243	-0.527610
O71	O	1.042794	-0.623046	-0.686935
C72	C	1.004324	-0.655744	-0.812691
C73	C	1.059919	-0.599506	-0.768650
H74	H	1.018139	-0.636722	-0.878761
H75	H	1.013041	-0.719638	-0.805909
H76	H	0.940588	-0.652473	-0.785987
H77	H	1.123677	-0.602707	-0.795324
H78	H	1.051133	-0.535637	-0.775428
O79	O	1.242321	-0.836025	-0.529395
C80	C	1.287374	-0.953280	-0.494180
C81	C	1.231562	-0.919346	-0.537948
H82	H	1.278683	-1.020651	-0.501066
H83	H	1.351078	-0.924321	-0.520942
H84	H	1.273640	-0.939988	-0.428075
H85	H	1.245225	-0.932627	-0.604056
H86	H	1.167874	-0.948305	-0.511122
O87	O	0.685125	-0.339760	-0.416944
C88	C	0.591852	-0.464410	-0.387430
C89	C	0.637296	-0.400102	-0.451859
H90	H	0.553159	-0.513204	-0.415632
H91	H	0.635482	-0.491547	-0.360274
H92	H	0.553231	-0.436052	-0.338666
H93	H	0.675919	-0.428400	-0.500671
H94	H	0.593624	-0.372971	-0.478951
O95	O	0.847797	-0.307102	-0.449530
C96	C	0.839044	-0.408297	-0.347982
C97	C	0.793697	-0.362208	-0.394181
H98	H	0.795324	-0.452849	-0.303209
H99	H	0.877681	-0.441680	-0.391686
H100	H	0.877708	-0.364435	-0.314809
H101	H	0.754990	-0.406016	-0.427356
H102	H	0.755110	-0.328814	-0.350437
O103	O	0.848100	-0.109237	-0.647791
C104	C	0.941291	0.015468	-0.677286
C105	C	0.895819	-0.048819	-0.612848
H106	H	0.979870	0.064340	-0.649055
H107	H	0.980007	-0.012811	-0.726037
H108	H	0.897610	0.042496	-0.704466
H109	H	0.939443	-0.075870	-0.585605
H110	H	0.857092	-0.020497	-0.564147
H111	H	0.717752	0.007101	-0.764659
H112	H	0.567830	-0.305198	-0.451438
O113	O	1.042692	-0.267963	-1.042516
C114	C	0.942388	-0.387688	-1.013645
C115	C	0.998053	-0.321314	-0.979815
H116	H	0.906295	-0.430849	-0.962970
H117	H	0.901024	-0.359968	-1.043689
H118	H	0.978683	-0.421416	-1.059341
H119	H	0.961822	-0.287561	-0.934090
H120	H	1.039420	-0.349082	-0.949821
O121	O	1.042908	-0.875884	-0.687007
C122	C	1.004462	-0.908592	-0.812771
C123	C	1.060043	-0.852346	-0.768722
H124	H	1.018285	-0.889572	-0.878843
H125	H	1.013186	-0.972483	-0.805984
H126	H	0.940722	-0.905328	-0.786078
H127	H	1.123805	-0.855540	-0.795385
H128	H	1.051251	-0.788480	-0.775506
H129	H	1.234131	-0.429537	-0.535388
O130	O	1.042857	-0.267987	-0.880966
C131	C	1.032168	-0.376159	-0.786258
C132	C	1.087778	-0.309771	-0.842601
H133	H	1.068466	-0.409971	-0.755237
H134	H	0.990860	-0.348449	-0.739518
H135	H	0.996005	-0.419243	-0.822357
H136	H	1.123993	-0.266666	-0.806569
H137	H	1.129035	-0.337537	-0.889343
H138	H	1.050697	-0.719179	-0.680554
O139	O	0.600317	0.041609	-0.799260
C140	C	0.591663	0.139283	-0.897335
C141	C	0.546261	0.074995	-0.832869
H142	H	0.547979	0.166282	-0.924538
H143	H	0.630288	0.188183	-0.869181
H144	H	0.630344	0.110934	-0.946054
H145	H	0.507537	0.103272	-0.784131
H146	H	0.507686	0.026103	-0.861082
H147	H	1.050592	-0.466349	-0.680480
O148	O	1.242082	-0.029961	-1.082853
C149	C	1.252777	0.078175	-1.177603
C150	C	1.197168	0.011745	-1.121311
H151	H	1.216487	0.111902	-1.208725
H152	H	1.288903	0.121334	-1.141533
H153	H	1.294119	0.050426	-1.224269
H154	H	1.155778	0.039423	-1.074635
H155	H	1.161097	-0.031406	-1.157435
O156	O	0.437457	-0.188813	-0.568261
C157	C	0.310252	-0.258760	-0.498068
C158	C	0.355727	-0.194472	-0.562505
H159	H	0.244165	-0.263344	-0.493382
H160	H	0.326421	-0.318844	-0.514998
H161	H	0.326512	-0.241645	-0.438075
H162	H	0.339491	-0.211512	-0.622521
H163	H	0.339554	-0.134405	-0.545507
H164	H	1.234275	-0.039480	-1.178932
H165	H	1.234234	-0.039558	-0.926076
H166	H	1.234294	-0.039431	-1.327664
H167	H	1.050756	-0.258366	-1.290674
H168	H	1.050717	-0.258405	-1.141939
