data_functionalizedCrystal
_audit_creation_method	'MofGen! by Chris Wilmer'
_symmetry_space_group_name_H-M	'P1'
_symmetry_Int_Tables_number	1
_symmetry_cell_setting	triclinic
loop_
_symmetry_equiv_pos_as_xyz
  x,y,z
_cell_length_a	8.559649
_cell_length_b	9.065218
_cell_length_c	8.140239
_cell_angle_alpha	90.001686
_cell_angle_beta	89.997368
_cell_angle_gamma	102.602725
loop_
_atom_site_label
_atom_site_type_symbol
_atom_site_fract_x
_atom_site_fract_y
_atom_site_fract_z
O1	O	2.119401	0.049968	-0.136597
O2	O	2.619401	0.549968	0.363403
O3	O	1.655298	-0.026097	-0.136602
O4	O	2.155298	0.473903	0.363398
O5	O	1.896942	0.227784	-0.136596
O6	O	2.396942	0.727784	0.363404
O7	O	1.877757	-0.203912	-0.136603
O8	O	2.377757	0.296088	0.363397
O9	O	1.896929	0.227785	0.136631
O10	O	2.396929	0.727785	0.636631
O11	O	1.655284	-0.026096	0.136625
O12	O	2.155284	0.473904	0.636625
O13	O	2.119387	0.049969	0.136630
O14	O	2.619387	0.549969	0.636630
Zn15	Zn	1.887334	0.011937	0.180008
Zn16	Zn	2.387334	0.511937	0.680008
Zn17	Zn	1.887352	0.011936	-0.179980
Zn18	Zn	2.387352	0.511936	0.320020
O19	O	1.877743	-0.203911	0.136624
O20	O	2.377743	0.296089	0.636624
C21	C	1.595845	-0.031861	0.000011
C22	C	2.095845	0.468139	0.500011
C23	C	1.418713	-0.049020	0.000009
C24	C	1.918713	0.450980	0.500009
C25	C	1.895092	0.282539	0.000015
C26	C	2.395092	0.782539	0.500015
C27	C	1.889578	0.445689	0.000007
C28	C	2.389578	0.945689	0.500007
C29	C	2.178841	0.055733	0.000013
C30	C	2.678841	0.555733	0.500013
C31	C	2.355972	0.072892	0.000004
C32	C	2.855972	0.572892	0.500004
C33	C	1.879594	-0.258667	0.000010
C34	C	2.379594	0.241333	0.500010
C35	C	1.885107	-0.421817	0.000007
C36	C	2.385107	0.078183	0.500007
N37	N	1.887333	0.011940	0.425691
N38	N	2.387333	0.511940	0.925691
N39	N	1.887365	0.011946	-0.425663
N40	N	2.387365	0.511946	0.074337
H41	H	2.336917	-0.166520	-0.000005
H42	H	2.836917	0.333480	0.499995
C43	C	2.466482	0.231643	0.000019
C44	C	2.966482	0.731643	0.500019
N45	N	2.549719	0.351213	0.000035
N46	N	3.049719	0.851213	0.500035
