data_functionalizedCrystal
_audit_creation_method	'MofGen! by Chris Wilmer'
_symmetry_space_group_name_H-M	'P1'
_symmetry_Int_Tables_number	1
_symmetry_cell_setting	triclinic
loop_
_symmetry_equiv_pos_as_xyz
  x,y,z
_cell_length_a	14.519731
_cell_length_b	13.596369
_cell_length_c	14.519709
_cell_angle_alpha	90.006934
_cell_angle_beta	83.684499
_cell_angle_gamma	90.005416
loop_
_atom_site_label
_atom_site_type_symbol
_atom_site_fract_x
_atom_site_fract_y
_atom_site_fract_z
O1	O	1.223856	0.081796	0.120986
O2	O	0.955382	0.081797	0.135202
O3	O	1.096737	0.081788	-0.006144
O4	O	1.082501	0.081805	0.262332
O5	O	1.096723	-0.081795	-0.006151
O6	O	0.955368	-0.081785	0.135195
O7	O	1.223842	-0.081787	0.120979
Zn8	Zn	1.089603	-0.107759	0.128086
Zn9	Zn	1.089621	0.107769	0.128096
O10	O	1.082487	-0.081777	0.262325
C11	C	0.921016	0.000006	0.134532
C12	C	0.818635	0.000007	0.132536
N13	N	1.089597	-0.254851	0.128078
C14	C	0.735491	0.000010	0.130915
C15	C	0.631182	0.000011	0.128888
C16	C	0.548043	0.000010	0.127280
C17	C	0.443728	0.000012	0.125253
C18	C	1.089620	-0.656141	0.128096
C19	C	1.089611	-0.544490	0.128095
C20	C	1.089609	-0.455500	0.128088
C21	C	1.089599	-0.343841	0.128085
C22	C	1.258209	0.000006	0.121649
C23	C	1.360589	0.000012	0.123645
N24	N	1.089635	0.254861	0.128096
C25	C	1.096067	-0.000004	-0.040507
C26	C	1.094079	-0.000005	-0.142889
C27	C	1.086759	0.000021	-0.517785
C28	C	1.088792	0.000014	-0.413477
C29	C	1.090419	0.000007	-0.330340
C30	C	1.092452	0.000002	-0.226025
C31	C	1.083157	0.000016	0.296688
C32	C	1.085146	0.000023	0.399070
