data_functionalizedCrystal
_audit_creation_method	'MofGen! by Chris Wilmer'
_symmetry_space_group_name_H-M	'P1'
_symmetry_Int_Tables_number	1
_symmetry_cell_setting	triclinic
loop_
_symmetry_equiv_pos_as_xyz
  x,y,z
_cell_length_a	14.908780
_cell_length_b	14.908520
_cell_length_c	14.908803
_cell_angle_alpha	96.379389
_cell_angle_beta	89.799140
_cell_angle_gamma	96.789949
loop_
_atom_site_label
_atom_site_type_symbol
_atom_site_fract_x
_atom_site_fract_y
_atom_site_fract_z
Zn1	Zn	-1.325825	0.317903	0.605071
Zn2	Zn	-0.825825	0.817903	1.105071
Zn3	Zn	-1.325758	0.460503	0.462435
Zn4	Zn	-0.825758	0.960503	0.962435
Zn5	Zn	-1.184238	0.316859	0.445984
Zn6	Zn	-0.684238	0.816859	0.945984
Zn7	Zn	-1.165690	0.477939	0.604995
Zn8	Zn	-0.665690	0.977939	1.104995
O9	O	-1.250378	0.393301	0.529621
O10	O	-0.750378	0.893301	1.029621
O11	O	-1.452060	0.329959	0.593067
O12	O	-0.952060	0.829959	1.093067
O13	O	-1.314719	0.433714	0.334013
O14	O	-0.814719	0.933714	0.834013
O15	O	-1.210810	0.189906	0.460235
O16	O	-0.710810	0.689906	0.960235
O17	O	-1.452010	0.434727	0.488273
O18	O	-0.952010	0.934727	0.988273
O19	O	-1.314834	0.190673	0.577115
O20	O	-0.814834	0.690673	1.077115
O21	O	-1.210745	0.328179	0.321927
O22	O	-0.710745	0.828179	0.821927
O23	O	-1.055534	0.345087	0.460161
O24	O	-0.555534	0.845087	0.960161
O25	O	-1.179198	0.464444	0.731245
O26	O	-0.679198	0.964444	1.231245
O27	O	-1.041907	0.463431	0.576985
O28	O	-0.541907	0.963431	1.076985
O29	O	-1.296848	0.346866	0.731301
O30	O	-0.796848	0.846866	1.231301
O31	O	-1.296734	0.589907	0.488199
O32	O	-0.796734	1.089907	0.988199
O33	O	-1.179133	0.602717	0.592937
O34	O	-0.679133	1.102717	1.092937
C35	C	-1.015987	0.406038	0.516780
C36	C	-0.515987	0.906038	1.016780
C37	C	-0.915711	0.411511	0.511309
C38	C	-0.415711	0.911511	1.011309
C39	C	-0.727310	0.312869	0.610336
C40	C	-0.227310	0.812869	1.110336
C41	C	-0.633092	0.318008	0.605198
C42	C	-0.133092	0.818008	1.105198
C43	C	-0.633055	0.426922	0.495892
C44	C	-0.133055	0.926922	0.995892
C45	C	-0.727273	0.421783	0.501029
C46	C	-0.227273	0.921783	1.001029
C47	C	-0.774397	0.364756	0.558254
C48	C	-0.274397	0.864756	1.058254
C49	C	-0.868617	0.359622	0.563396
C50	C	-0.368617	0.859622	1.063396
C51	C	-0.868578	0.468531	0.454086
C52	C	-0.368578	0.968531	0.954086
C53	C	-0.774360	0.473669	0.448948
C54	C	-0.274360	0.973669	0.948948
C55	C	-1.235937	0.629265	0.542366
C56	C	-0.735937	1.129265	1.042366
C57	C	-1.229840	0.730209	0.547852
C58	C	-0.729840	1.230209	1.047852
C59	C	-1.235962	0.407716	0.764921
C60	C	-0.735962	0.907716	1.264921
C61	C	-1.229818	0.413859	0.865192
C62	C	-0.729818	0.913859	1.365192
C63	C	-0.485685	0.380506	0.542506
C64	C	0.014315	0.880506	1.042506
C65	C	-0.585961	0.375033	0.547979
C66	C	-0.085961	0.875033	1.047979
C67	C	-1.264898	0.156415	0.516849
C68	C	-0.764898	0.656415	1.016849
C69	C	-1.271086	0.055468	0.511406
C70	C	-0.771086	0.555468	1.011406
C71	C	-1.340953	0.906492	0.449198
C72	C	-0.840953	1.406492	0.949198
C73	C	-1.335228	1.001338	0.454351
C74	C	-0.835228	1.501338	0.954351
C75	C	-1.212668	1.014747	0.563314
C76	C	-0.712668	1.514747	1.063314
C77	C	-1.218393	0.919902	0.558161
C78	C	-0.718393	1.419902	1.058161
C79	C	-1.282537	0.865777	0.501101
C80	C	-0.782537	1.365777	1.001101
C81	C	-1.288258	0.770930	0.495944
C82	C	-0.788258	1.270930	0.995944
C83	C	-1.165703	0.784341	0.604911
C84	C	-0.665703	1.284341	1.104911
C85	C	-1.159977	0.879187	0.610064
C86	C	-0.659977	1.379187	1.110064
C87	C	-1.340782	0.302948	1.053670
C88	C	-0.840782	0.802948	1.553670
C89	C	-1.335013	0.308717	1.147883
C90	C	-0.835013	0.808717	1.647883
C91	C	-1.212507	0.431160	1.147832
C92	C	-0.712507	0.931160	1.647832
C93	C	-1.218276	0.425392	1.053619
C94	C	-0.718276	0.925392	1.553619
C95	C	-1.282417	0.361284	1.006541
C96	C	-0.782417	0.861284	1.506541
C97	C	-1.288190	0.355521	0.912327
C98	C	-0.788190	0.855521	1.412327
C99	C	-1.165680	0.477959	0.912278
C100	C	-0.665680	0.977959	1.412278
C101	C	-1.159911	0.483728	1.006491
C102	C	-0.659911	0.983728	1.506491
C103	C	-1.264731	0.378963	1.295238
C104	C	-0.764731	0.878963	1.795238
C105	C	-1.270879	0.372821	1.194968
C106	C	-0.770879	0.872821	1.694968
H107	H	-0.594671	0.473340	0.449292
H108	H	-0.094671	0.973340	0.949292
H109	H	-1.340418	0.303322	0.873997
H110	H	-0.840418	0.803322	1.373997
F111	F	-0.582982	0.262781	0.660628
F112	F	-0.082982	0.762781	1.160628
F113	F	-1.356522	0.713328	0.435212
F114	F	-0.856522	1.213328	0.935212
F115	F	-1.144245	0.499376	1.197950
F116	F	-0.644245	0.999376	1.697950
F117	F	-1.103519	0.741003	0.660143
F118	F	-0.603519	1.241003	1.160143
F119	F	-0.918698	0.523761	0.398659
F120	F	-0.418698	1.023761	0.898659
H121	H	-1.393013	0.250754	1.015338
H122	H	-0.893013	0.750754	1.515338
F123	F	-1.397404	1.044666	0.399111
F124	F	-0.897404	1.544666	0.899111
H125	H	-1.382538	0.261211	1.186251
H126	H	-0.882538	0.761211	1.686251
F127	F	-1.144416	1.072365	0.624047
F128	F	-0.644416	1.572365	1.124047
F129	F	-1.091717	0.936799	0.670792
F130	F	-0.591717	1.436799	1.170792
H131	H	-1.107688	0.535920	1.044834
H132	H	-0.607688	1.035920	1.544834
H133	H	-1.118157	0.525463	0.873896
H134	H	-0.618157	1.025463	1.373896
H135	H	-0.735979	0.520096	0.402355
H136	H	-0.235979	1.020096	0.902355
H137	H	-1.393176	0.862423	0.402730
H138	H	-0.893176	1.362423	0.902730
H139	H	-0.765679	0.266440	0.656934
H140	H	-0.265679	0.766440	1.156934
F141	F	-0.918768	0.298932	0.624301
F142	F	-0.418768	0.798932	1.124301
