data_functionalizedCrystal
_audit_creation_method	'MofGen! by Chris Wilmer'
_symmetry_space_group_name_H-M	'P1'
_symmetry_Int_Tables_number	1
_symmetry_cell_setting	triclinic
loop_
_symmetry_equiv_pos_as_xyz
  x,y,z
_cell_length_a	16.109301
_cell_length_b	10.489746
_cell_length_c	14.586319
_cell_angle_alpha	89.995899
_cell_angle_beta	89.998857
_cell_angle_gamma	84.001442
loop_
_atom_site_label
_atom_site_type_symbol
_atom_site_fract_x
_atom_site_fract_y
_atom_site_fract_z
O1	O	1.104143	0.163948	-0.076191
O2	O	1.604143	0.663948	0.423809
O3	O	0.862207	0.184351	-0.076204
O4	O	1.362207	0.684351	0.423796
O5	O	0.988678	-0.011528	-0.076190
O6	O	1.488678	0.488472	0.423810
O7	O	0.977672	0.359827	-0.076204
O8	O	1.477672	0.859827	0.423796
O9	O	0.988669	-0.011531	0.076291
O10	O	1.488669	0.488469	0.576291
O11	O	0.862198	0.184348	0.076277
O12	O	1.362198	0.684348	0.576277
O13	O	1.104134	0.163945	0.076290
O14	O	1.604134	0.663945	0.576290
Cu15	Cu	0.983166	0.174146	0.090206
Cu16	Cu	1.483166	0.674146	0.590206
Cu17	Cu	0.983176	0.174150	-0.090120
Cu18	Cu	1.483176	0.674150	0.409880
O19	O	0.977663	0.359824	0.076277
O20	O	1.477663	0.859824	0.576277
C21	C	0.831223	0.183523	0.000035
C22	C	1.331223	0.683523	0.500035
C23	C	0.738912	0.181045	0.000030
C24	C	1.238912	0.681045	0.500030
C25	C	0.430582	0.289175	0.000042
C26	C	0.930582	0.789175	0.500042
C27	C	0.517317	0.291515	0.000037
C28	C	1.017317	0.791515	0.500037
C29	C	0.535754	0.059112	0.000034
C30	C	1.035754	0.559112	0.500034
C31	C	0.449021	0.056773	0.000032
C32	C	0.949021	0.556773	0.500032
C33	C	0.396437	0.171808	0.000041
C34	C	0.896437	0.671808	0.500041
C35	C	0.569905	0.176487	0.000037
C36	C	1.069905	0.676487	0.500037
C37	C	0.663946	0.179024	0.000031
C38	C	1.163946	0.679024	0.500031
C39	C	0.302389	0.169272	0.000046
C40	C	0.802389	0.669272	0.500046
C41	C	0.987842	-0.059049	0.000050
C42	C	1.487842	0.440951	0.500050
C43	C	0.985352	-0.200642	0.000049
C44	C	1.485352	0.299358	0.500049
C45	C	0.903408	-0.352311	0.000034
C46	C	1.403408	0.147689	0.500034
C47	C	0.944381	-0.275512	-0.075143
C48	C	1.444381	0.224488	0.424857
C49	C	0.944392	-0.275556	0.075191
C50	C	1.444392	0.224444	0.575191
C51	C	1.021930	-0.376128	-0.075210
C52	C	1.521930	0.123872	0.424790
C53	C	1.021929	-0.376178	0.075192
C54	C	1.521929	0.123822	0.575192
C55	C	1.062959	-0.299428	-0.000004
C56	C	1.562959	0.200572	0.499996
C57	C	1.135119	0.164773	0.000049
C58	C	1.635119	0.664773	0.500049
C59	C	1.227429	0.167251	0.000048
C60	C	1.727429	0.667251	0.500048
C61	C	0.978500	0.407345	0.000034
C62	C	1.478500	0.907345	0.500034
C63	C	0.980990	0.548938	0.000029
C64	C	1.480990	1.048938	0.500029
N65	N	0.983164	0.174143	0.217038
N66	N	1.483164	0.674143	0.717038
N67	N	0.983184	0.174143	-0.216952
N68	N	1.483184	0.674143	0.283048
C69	C	1.039184	0.087437	0.452051
C70	C	1.539184	0.587437	0.952051
C71	C	1.039187	0.087434	0.548032
C72	C	1.539187	0.587434	1.048032
C73	C	0.927158	0.260853	0.548029
C74	C	1.427158	0.760853	1.048029
C75	C	0.927152	0.260849	0.452050
C76	C	1.427152	0.760849	0.952050
C77	C	0.983170	0.174142	0.404063
C78	C	1.483170	0.674142	0.904063
C79	C	0.983178	0.174143	0.596024
C80	C	1.483178	0.674143	1.096024
C81	C	0.983180	0.174141	0.700091
C82	C	1.483180	0.674141	1.200091
C83	C	0.983167	0.174143	0.299989
C84	C	1.483167	0.674143	0.799989
H85	H	0.835948	-0.376052	-0.000045
H86	H	1.335948	0.123948	0.499955
Cl87	Cl	0.560237	0.439068	0.000034
Cl88	Cl	1.060237	0.939068	0.500034
H89	H	0.881550	0.331449	0.587110
H90	H	1.381550	0.831449	1.087110
H91	H	1.084798	0.016829	0.587101
H92	H	1.584798	0.516829	1.087101
H93	H	0.911634	-0.231560	-0.138705
H94	H	1.411634	0.268440	0.361295
H95	H	0.578579	-0.034546	0.000028
H96	H	1.078579	0.465454	0.500028
Cl97	Cl	1.109604	-0.021570	0.391728
Cl98	Cl	1.609604	0.478430	0.891728
H99	H	0.881534	0.331455	0.412976
H100	H	1.381534	0.831455	0.912976
H101	H	0.421221	-0.038807	0.000029
H102	H	0.921221	0.461193	0.500029
H103	H	1.054663	-0.419883	-0.138839
H104	H	1.554663	0.080117	0.361161
H105	H	0.387770	0.382844	0.000049
H106	H	0.887770	0.882844	0.500049
H107	H	1.130470	-0.275933	-0.000041
H108	H	1.630470	0.224067	0.499959
H109	H	1.054647	-0.420152	0.138756
H110	H	1.554647	0.079848	0.638756
H111	H	0.911623	-0.231637	0.138748
H112	H	1.411623	0.268363	0.638748
