data_functionalizedCrystal
_audit_creation_method	'MofGen! by Chris Wilmer'
_symmetry_space_group_name_H-M	'P1'
_symmetry_Int_Tables_number	1
_symmetry_cell_setting	triclinic
loop_
_symmetry_equiv_pos_as_xyz
  x,y,z
_cell_length_a	17.699083
_cell_length_b	16.992695
_cell_length_c	16.176319
_cell_angle_alpha	89.993125
_cell_angle_beta	89.998611
_cell_angle_gamma	86.975619
loop_
_atom_site_label
_atom_site_type_symbol
_atom_site_fract_x
_atom_site_fract_y
_atom_site_fract_z
O1	O	1.010252	0.099146	-0.068631
O2	O	0.790676	0.112045	-0.068658
O3	O	0.899584	-0.008546	-0.068638
O4	O	0.901344	0.219736	-0.068651
O5	O	0.899567	-0.008553	0.068855
O6	O	0.790660	0.112037	0.068835
O7	O	1.010235	0.099138	0.068862
Cu8	Cu	0.900446	0.105587	0.081403
Cu9	Cu	0.900465	0.105596	-0.081199
O10	O	0.901328	0.219729	0.068842
C11	C	0.762442	0.111579	0.000085
C12	C	0.678338	0.110192	0.000075
C13	C	0.634124	0.180976	0.000071
C14	C	0.555099	0.179669	0.000082
C15	C	0.520290	0.107576	0.000091
C16	C	0.564510	0.036787	0.000097
C17	C	0.643533	0.038095	0.000092
C18	C	0.245818	0.031509	0.000118
C19	C	0.166789	0.030206	0.000120
C20	C	0.157384	0.173082	0.000108
C21	C	0.236408	0.174391	0.000103
C22	C	0.280621	0.103602	0.000113
C23	C	0.366308	0.105020	0.000103
C24	C	0.434604	0.106157	0.000095
C25	C	0.897311	-0.037758	0.000108
C26	C	0.890554	-0.124789	0.000107
C27	C	0.955751	-0.175154	0.000116
C28	C	0.949398	-0.256928	0.000107
C29	C	0.877846	-0.288336	0.000096
C30	C	0.812643	-0.237965	0.000084
C31	C	0.818998	-0.156192	0.000087
C32	C	0.851510	-0.531884	0.000081
C33	C	0.845160	-0.613663	0.000081
C34	C	0.981915	-0.632621	0.000102
C35	C	0.988263	-0.550845	0.000110
C36	C	0.923061	-0.500481	0.000094
N37	N	0.871350	-0.371923	0.000090
N38	N	0.929558	-0.416897	0.000095
C39	C	1.038469	0.099604	0.000117
C40	C	1.122574	0.100991	0.000122
C41	C	0.903601	0.248941	0.000094
C42	C	0.910358	0.335972	0.000090
N43	N	0.900438	0.105580	0.195768
N44	N	0.900479	0.105597	-0.195564
C45	C	0.948679	0.052204	0.239041
C46	C	0.948683	0.052203	0.325588
C47	C	0.900449	0.105583	0.368861
C48	C	0.852202	0.158961	0.325582
C49	C	0.852195	0.158957	0.239036
C50	C	0.852229	0.158976	0.674610
C51	C	0.852242	0.158977	0.761161
C52	C	0.948717	0.052222	0.761162
C53	C	0.948709	0.052218	0.674617
C54	C	0.900461	0.105593	0.631345
C55	C	0.900456	0.105593	0.537501
C56	C	0.900457	0.105588	0.462703
H57	H	0.138450	-0.028504	0.000128
C58	C	0.799137	0.217672	0.373185
N59	N	0.759167	0.261893	0.409038
H60	H	0.988001	0.008758	0.796403
C61	C	0.294442	-0.046362	0.000124
N62	N	0.331069	-0.105018	0.000127
C63	C	0.526217	-0.042516	0.000108
N64	N	0.497375	-0.102248	0.000113
C65	C	0.799133	0.217681	0.191436
N66	N	0.759165	0.261914	0.155585
C67	C	0.274693	0.253698	0.000098
N68	N	0.303529	0.313434	0.000101
H69	H	0.987964	0.008741	0.360821
C70	C	0.799173	0.217696	0.808759
N71	N	0.759203	0.261920	0.844610
H72	H	1.002489	-0.297933	0.000117
H73	H	0.754384	-0.263544	0.000070
C74	C	0.506467	0.257537	0.000093
N75	N	0.469838	0.316191	0.000107
H76	H	0.765906	-0.115186	0.000080
H77	H	1.034999	-0.673635	0.000114
C78	C	1.066976	-0.516303	0.000124
N79	N	1.126264	-0.490286	0.000137
C80	C	1.001741	-0.006518	0.191450
N81	N	1.041706	-0.050753	0.155606
C82	C	0.672407	0.260285	0.000063
N83	N	0.701239	0.320023	0.000061
H84	H	0.987989	0.008755	0.639387
C85	C	1.034465	-0.140613	0.000129
N86	N	1.093754	-0.114600	0.000135
C87	C	0.799258	0.217791	0.627023
N88	N	0.759395	0.262131	0.591177
H89	H	0.121377	0.230722	0.000103
H90	H	0.786891	-0.639232	0.000085
C91	C	0.779784	-0.476494	0.000059
N92	N	0.725756	-0.434771	0.000041
H93	H	0.679531	-0.019545	0.000095
