data_functionalizedCrystal
_audit_creation_method	'MofGen! by Chris Wilmer'
_symmetry_space_group_name_H-M	'P1'
_symmetry_Int_Tables_number	1
_symmetry_cell_setting	triclinic
loop_
_symmetry_equiv_pos_as_xyz
  x,y,z
_cell_length_a	16.109317
_cell_length_b	16.109298
_cell_length_c	14.586319
_cell_angle_alpha	90.001604
_cell_angle_beta	89.998916
_cell_angle_gamma	96.535799
loop_
_atom_site_label
_atom_site_type_symbol
_atom_site_fract_x
_atom_site_fract_y
_atom_site_fract_z
O1	O	-1.103121	0.106931	-0.076131
O2	O	-0.603121	0.606931	0.423869
O3	O	-0.861061	0.120217	-0.076153
O4	O	-0.361061	0.620217	0.423847
O5	O	-0.988742	-0.007457	-0.076148
O6	O	-0.488742	0.492543	0.423852
O7	O	-0.975440	0.234605	-0.076137
O8	O	-0.475440	0.734605	0.423863
O9	O	-0.988733	-0.007459	0.076332
O10	O	-0.488733	0.492541	0.576332
O11	O	-0.861052	0.120215	0.076327
O12	O	-0.361052	0.620215	0.576327
O13	O	-1.103112	0.106930	0.076349
O14	O	-0.603112	0.606930	0.576349
Cu15	Cu	-0.982081	0.113572	0.090261
Cu16	Cu	-0.482081	0.613572	0.590261
Cu17	Cu	-0.982092	0.113574	-0.090065
Cu18	Cu	-0.482092	0.613574	0.409935
O19	O	-0.975431	0.234603	0.076344
O20	O	-0.475431	0.734603	0.576344
C21	C	-0.830082	0.119675	0.000084
C22	C	-0.330082	0.619675	0.500084
C23	C	-0.737787	0.118054	0.000075
C24	C	-0.237787	0.618054	0.500075
C25	C	-0.438718	0.112821	-0.083032
C26	C	0.061282	0.612821	0.416968
C27	C	-0.525439	0.114339	-0.083036
C28	C	-0.025439	0.614339	0.416964
C29	C	-0.525449	0.114325	0.083207
C30	C	-0.025449	0.614325	0.583207
C31	C	-0.438730	0.112802	0.083210
C32	C	0.061270	0.612802	0.583210
C33	C	-0.395366	0.112054	0.000088
C34	C	0.104634	0.612054	0.500088
C35	C	-0.568806	0.115095	0.000081
C36	C	-0.068806	0.615095	0.500081
C37	C	-0.662833	0.116740	0.000077
C38	C	-0.162833	0.616740	0.500077
C39	C	-0.301333	0.110408	0.000091
C40	C	0.198667	0.610408	0.500091
C41	C	-0.988199	-0.038433	0.000088
C42	C	-0.488199	0.461567	0.500088
C43	C	-0.986585	-0.130728	0.000077
C44	C	-0.486585	0.369272	0.500077
C45	C	-0.134091	0.107472	0.000105
C46	C	0.365909	0.607472	0.500105
C47	C	-0.226385	0.109095	0.000093
C48	C	0.273615	0.609095	0.500093
C49	C	-0.981323	-0.429796	-0.083021
C50	C	-0.481323	0.070204	0.416979
C51	C	-0.982850	-0.343076	-0.083028
C52	C	-0.482850	0.156924	0.416972
C53	C	-0.982853	-0.343064	0.083215
C54	C	-0.482853	0.156936	0.583215
C55	C	-0.981331	-0.429783	0.083221
C56	C	-0.481331	0.070217	0.583221
C57	C	-0.980562	-0.473147	0.000100
C58	C	-0.480562	0.026853	0.500100
C59	C	-0.983611	-0.299707	0.000088
C60	C	-0.483611	0.200293	0.500088
C61	C	-0.985268	-0.205682	0.000082
C62	C	-0.485268	0.294318	0.500082
C63	C	-0.978906	-0.567178	0.000106
C64	C	-0.478906	-0.067178	0.500106
N65	N	-0.982080	0.113570	0.217093
N66	N	-0.482080	0.613570	0.717093
C67	C	-0.975974	0.265579	0.000106
C68	C	-0.475974	0.765579	0.500106
C69	C	-0.977588	0.357874	0.000110
C70	C	-0.477588	0.857874	0.500110
N71	N	-0.982100	0.113570	-0.216897
N72	N	-0.482100	0.613570	0.283103
C73	C	-1.038636	0.057055	0.452101
C74	C	-0.538636	0.557055	0.952101
C75	C	-1.038638	0.057053	0.548083
C76	C	-0.538638	0.557053	1.048083
C77	C	-0.925538	0.170087	0.548088
C78	C	-0.425538	0.670087	1.048088
C79	C	-0.925532	0.170085	0.452108
C80	C	-0.425532	0.670085	0.952108
C81	C	-0.982086	0.113569	0.404118
C82	C	-0.482086	0.613569	0.904118
C83	C	-0.982094	0.113570	0.596078
C84	C	-0.482094	0.613570	1.096078
C85	C	-0.982096	0.113568	0.700145
C86	C	-0.482096	0.613568	1.200145
C87	C	-0.982083	0.113570	0.300044
C88	C	-0.482083	0.613570	0.800044
H89	H	-0.403414	0.112212	-0.150716
H90	H	0.096586	0.612212	0.349284
H91	H	-0.560766	0.114936	0.150882
H92	H	-0.060766	0.614936	0.650882
H93	H	-0.983478	-0.307747	0.150890
H94	H	-0.483478	0.192253	0.650890
N95	N	-1.099618	-0.003900	0.400326
N96	N	-0.599618	0.496100	0.900326
H97	H	-1.158623	0.005689	0.417022
H98	H	-0.658623	0.505689	0.917022
H99	H	-1.089986	-0.062884	0.417048
H100	H	-0.589986	0.437116	0.917048
H101	H	-0.403432	0.112177	0.150900
H102	H	0.096568	0.612177	0.650900
H103	H	-0.980714	-0.465080	0.150912
H104	H	-0.480714	0.034920	0.650912
H105	H	-1.084685	0.011033	0.587149
H106	H	-0.584685	0.511033	1.087149
N107	N	-0.980520	-0.476572	-0.172668
N108	N	-0.480520	0.023428	0.327332
H109	H	-0.981244	-0.435949	-0.225325
H110	H	-0.481244	0.064051	0.274675
H111	H	-1.031406	-0.519298	-0.176267
H112	H	-0.531406	-0.019298	0.323733
H113	H	-0.983471	-0.307785	-0.150713
H114	H	-0.483471	0.192215	0.349287
H115	H	-0.879478	0.216106	0.413037
H116	H	-0.379478	0.716106	0.913037
N117	N	-0.864543	0.231041	0.599849
N118	N	-0.364543	0.731041	1.099849
H119	H	-0.873128	0.222469	0.667933
H120	H	-0.373128	0.722469	1.167933
H121	H	-0.874127	0.290025	0.583070
H122	H	-0.374127	0.790025	1.083070
H123	H	-0.560733	0.114962	-0.150720
H124	H	-0.060733	0.614962	0.349280
