data_functionalizedCrystal
_audit_creation_method	'MofGen! by Chris Wilmer'
_symmetry_space_group_name_H-M	'P1'
_symmetry_Int_Tables_number	1
_symmetry_cell_setting	triclinic
loop_
_symmetry_equiv_pos_as_xyz
  x,y,z
_cell_length_a	10.685904
_cell_length_b	12.827892
_cell_length_c	10.686551
_cell_angle_alpha	94.405267
_cell_angle_beta	98.408451
_cell_angle_gamma	94.382399
loop_
_atom_site_label
_atom_site_type_symbol
_atom_site_fract_x
_atom_site_fract_y
_atom_site_fract_z
Zn1	Zn	1.995802	-0.234221	0.866714
Zn2	Zn	1.979378	-0.423535	0.654453
Zn3	Zn	1.767227	-0.263307	0.638178
Zn4	Zn	1.783500	-0.423434	0.850362
O5	O	1.881476	-0.336124	0.752427
O6	O	2.171258	-0.247204	0.852211
O7	O	1.937551	-0.414495	0.474662
O8	O	1.797611	-0.113207	0.668526
O9	O	2.159191	-0.386292	0.696264
O10	O	1.965544	-0.091837	0.836430
O11	O	1.781685	-0.296776	0.462705
O12	O	1.591750	-0.296679	0.652670
O13	O	1.825346	-0.386120	1.030163
O14	O	1.603706	-0.414323	0.808561
O15	O	1.981323	-0.247106	1.042177
O16	O	1.953330	-0.569764	0.680408
O17	O	1.809420	-0.569689	0.824342
C18	C	1.551670	-0.358647	0.727076
C19	C	1.410579	-0.368305	0.716261
C20	C	1.881395	-0.607641	0.752397
C21	C	1.881480	-0.723786	0.752436
C22	C	1.964550	-0.764911	0.835587
C23	C	1.964639	-0.884953	0.835629
C24	C	2.212571	-0.313514	0.777877
C25	C	2.353664	-0.303880	0.788722
C26	C	1.906982	-0.313357	1.083516
C27	C	1.917851	-0.303655	1.224606
C28	C	1.881595	-0.063543	0.752487
C29	C	1.881645	0.052615	0.752512
C30	C	1.856143	-0.358723	0.422631
C31	C	1.845520	-0.368113	0.281560
H32	H	1.412882	-0.241328	0.859031
H33	H	1.988101	-0.241047	1.283791
O34	O	1.332161	-0.451156	0.623121
H35	H	1.229933	-0.445997	0.628964
H36	H	2.035762	-0.920360	0.906813
H37	H	2.035599	-0.711251	0.906750
H38	H	1.775284	-0.430724	1.222383
O39	O	1.787431	-0.900509	0.658196
H40	H	1.727186	-0.851324	0.710025
O41	O	1.787365	-0.794866	0.658173
H42	H	1.689348	-0.779375	0.672173
