data_functionalizedCrystal
_audit_creation_method	'MofGen! by Chris Wilmer'
_symmetry_space_group_name_H-M	'P1'
_symmetry_Int_Tables_number	1
_symmetry_cell_setting	triclinic
loop_
_symmetry_equiv_pos_as_xyz
  x,y,z
_cell_length_a	17.699083
_cell_length_b	7.681481
_cell_length_c	17.699083
_cell_angle_alpha	95.731310
_cell_angle_beta	83.283015
_cell_angle_gamma	84.282230
loop_
_atom_site_label
_atom_site_type_symbol
_atom_site_fract_x
_atom_site_fract_y
_atom_site_fract_z
O1	O	0.996918	0.146188	0.102878
O2	O	0.776537	0.146246	0.115334
O3	O	0.892955	0.146200	-0.001084
O4	O	0.880500	0.146234	0.219296
O5	O	0.907284	-0.146663	-0.015446
O6	O	0.790866	-0.146617	0.100972
O7	O	1.011247	-0.146675	0.088517
Zn8	Zn	0.903332	-0.193144	0.092464
Zn9	Zn	0.884452	0.192716	0.111386
O10	O	0.894830	-0.146629	0.204934
C11	C	0.755504	-0.000178	0.107707
C12	C	0.671485	-0.000156	0.106369
N13	N	0.916222	-0.456484	0.079550
C14	C	0.622864	-0.000146	0.174703
C15	C	0.543921	-0.000169	0.173440
C16	C	0.513602	-0.000190	0.103842
C17	C	0.562229	-0.000205	0.035503
C18	C	0.641171	-0.000195	0.036767
C19	C	0.243869	-0.000249	0.030406
C20	C	0.164921	-0.000255	0.029148
C21	C	0.146619	-0.000224	0.167079
C22	C	0.225560	-0.000214	0.168342
C23	C	0.274182	-0.000238	0.100003
C24	C	0.359780	-0.000217	0.101374
C25	C	0.428004	-0.000199	0.102472
C26	C	1.032280	-0.000247	0.096144
C27	C	1.116298	-0.000257	0.097482
C28	C	0.899673	-0.000232	-0.036462
C29	C	0.898334	-0.000232	-0.120480
N30	N	0.871568	0.456055	0.124294
C31	C	0.966669	-0.000253	-0.169102
C32	C	0.965406	-0.000237	-0.248045
C33	C	0.895808	-0.000213	-0.278364
C34	C	0.827468	-0.000187	-0.229736
C35	C	0.828731	-0.000190	-0.150794
C36	C	0.822372	-0.000171	-0.548098
C37	C	0.821114	-0.000173	-0.627046
C38	C	0.959046	-0.000218	-0.645348
C39	C	0.960310	-0.000221	-0.566407
C40	C	0.891970	-0.000186	-0.517785
C41	C	0.893340	-0.000200	-0.432186
C42	C	0.894438	-0.000212	-0.363962
C43	C	0.888111	-0.000193	0.240312
C44	C	0.889449	-0.000181	0.324331
H45	H	0.647543	-0.000128	0.231378
C46	C	1.023490	-0.000247	-0.453522
C47	C	1.036813	-0.000245	-0.533079
H48	H	1.070722	-0.000267	-0.432950
H49	H	0.990367	0.101880	-0.431819
H50	H	1.000358	-0.102377	-0.441843
H51	H	1.059940	0.101893	-0.544758
H52	H	1.069949	-0.102382	-0.554789
H53	H	0.825986	-0.468730	0.169964
H54	H	1.014692	-0.000237	-0.684946
H55	H	0.764437	-0.000157	-0.651729
C56	C	0.963512	-0.513592	-0.054355
C57	C	0.977764	-0.558017	0.017893
H58	H	1.001507	-0.576269	-0.092417
H59	H	0.914468	-0.543740	-0.063898
H60	H	0.964908	-0.390639	-0.055750
H61	H	0.976363	-0.680970	0.019290
H62	H	1.026820	-0.527882	0.027438
H63	H	0.537538	-0.000247	-0.021166
C64	C	0.770312	-0.000203	-0.022543
C65	C	0.694620	-0.000205	-0.038348
H66	H	0.803308	-0.000227	-0.068918
H67	H	0.774482	0.101927	0.011002
H68	H	0.784482	-0.102330	0.000996
H69	H	0.680447	0.101929	-0.061881
H70	H	0.690446	-0.102346	-0.071905
C71	C	1.102884	-0.000267	-0.195130
C72	C	1.043174	-0.000266	-0.135778
H73	H	1.150115	-0.000258	-0.174556
H74	H	1.104523	-0.102390	-0.230547
H75	H	1.094515	0.101867	-0.220529
H76	H	1.051540	-0.102408	-0.110382
H77	H	1.041536	0.101867	-0.100348
H78	H	0.766725	-0.000143	-0.508519
C79	C	1.036649	0.150309	-0.340039
C80	C	1.040524	-0.000253	-0.301485
H81	H	1.083029	0.150305	-0.373026
H82	H	0.995029	0.150315	-0.369395
H83	H	1.029275	0.252418	-0.303840
H84	H	1.047892	-0.102362	-0.337685
H85	H	1.082157	-0.000275	-0.272127
C86	C	0.533758	-0.000112	0.309910
C87	C	0.490476	-0.000150	0.248555
H88	H	0.500761	-0.000091	0.356285
H89	H	0.569932	-0.102227	0.302529
H90	H	0.559925	0.102030	0.312533
H91	H	0.464313	-0.102299	0.245929
H92	H	0.454288	0.101976	0.255938
H93	H	0.770800	-0.000157	-0.254428
H94	H	0.140238	-0.000274	-0.027531
C95	C	0.199539	-0.000206	0.304559
C96	C	0.258887	-0.000200	0.244846
H97	H	0.220116	-0.000214	0.351788
H98	H	0.164129	0.101913	0.306209
H99	H	0.174132	-0.102343	0.296182
H100	H	0.284291	0.101944	0.253220
H101	H	0.294311	-0.102330	0.243197
C102	C	0.276387	0.150287	-0.079391
C103	C	0.297304	-0.000258	-0.044712
H104	H	0.309381	0.150284	-0.125765
H105	H	0.225038	0.150269	-0.090095
H106	H	0.280569	0.252407	-0.045832
H107	H	0.293117	-0.102379	-0.078269
H108	H	0.348666	-0.000257	-0.034011
C109	C	0.039843	0.150321	0.253064
C110	C	0.093171	-0.000217	0.242199
H111	H	0.006845	0.150320	0.299437
H112	H	0.066015	0.252435	0.255697
H113	H	0.010492	0.150282	0.211429
H114	H	0.122526	-0.000171	0.283831
H115	H	0.066997	-0.102358	0.239572
C116	C	0.692261	-0.000158	-0.140627
C117	C	0.753616	-0.000173	-0.097346
H118	H	0.645888	-0.000150	-0.107629
H119	H	0.689642	0.101962	-0.166787
H120	H	0.699638	-0.102295	-0.176810
H121	H	0.746242	0.101972	-0.061166
H122	H	0.756234	-0.102302	-0.071174
