data_functionalizedCrystal
_audit_creation_method	'MofGen! by Chris Wilmer'
_symmetry_space_group_name_H-M	'P1'
_symmetry_Int_Tables_number	1
_symmetry_cell_setting	triclinic
loop_
_symmetry_equiv_pos_as_xyz
  x,y,z
_cell_length_a	12.594517
_cell_length_b	12.594516
_cell_length_c	12.594510
_cell_angle_alpha	90.031906
_cell_angle_beta	90.009212
_cell_angle_gamma	90.009694
loop_
_atom_site_label
_atom_site_type_symbol
_atom_site_fract_x
_atom_site_fract_y
_atom_site_fract_z
Zn1	Zn	-1.627282	0.423831	-0.601489
Zn2	Zn	-1.627169	0.601859	-0.423517
Zn3	Zn	-1.449282	0.423875	-0.423560
Zn4	Zn	-1.449268	0.601748	-0.601489
O5	O	-1.538250	0.512828	-0.512514
O6	O	-1.776213	0.447475	-0.577863
O7	O	-1.603529	0.578314	-0.274577
O8	O	-1.472947	0.274923	-0.447181
O9	O	-1.776129	0.578271	-0.447108
O10	O	-1.603723	0.274891	-0.577905
O11	O	-1.472837	0.447550	-0.274609
O12	O	-1.300334	0.447442	-0.447181
O13	O	-1.472924	0.578082	-0.750435
O14	O	-1.300324	0.578125	-0.577905
O15	O	-1.603710	0.447367	-0.750435
O16	O	-1.603517	0.750790	-0.447108
O17	O	-1.472814	0.750708	-0.577863
C18	C	-1.261709	0.512777	-0.512548
C19	C	-1.143404	0.512781	-0.512588
C20	C	-1.074176	0.583996	-0.583556
C21	C	-1.003368	0.486944	-0.609735
C22	C	-1.003413	0.609904	-0.486399
C23	C	-1.074154	0.415678	-0.538818
C24	C	-1.074205	0.538703	-0.415437
C25	C	-1.003429	0.441585	-0.441579
C26	C	-1.538180	0.789369	-0.512504
C27	C	-1.538248	0.907675	-0.512535
C28	C	-1.538329	0.512707	-0.790135
C29	C	-1.538362	0.512656	-0.908441
C30	C	-0.815871	0.512870	-0.512497
C31	C	-0.934176	0.512863	-0.512531
C32	C	-1.538349	0.235207	-0.512548
C33	C	-1.538391	0.116902	-0.512562
C34	C	-1.467152	0.976922	-0.583603
C35	C	-1.441216	1.047794	-0.486486
C36	C	-1.564281	1.047601	-0.609668
C37	C	-1.512261	0.976989	-0.415366
C38	C	-1.635371	0.976789	-0.538615
C39	C	-1.609472	1.047630	-0.441431
C40	C	-1.609522	0.441539	-1.048458
C41	C	-1.635509	0.538662	-0.977634
C42	C	-1.512422	0.415543	-0.977693
C43	C	-1.564444	0.609798	-1.048403
C44	C	-1.441311	0.486614	-1.048468
C45	C	-1.467262	0.583804	-0.977676
C46	C	-1.538233	0.512872	-0.235973
C47	C	-1.538406	0.512623	-0.117668
H48	H	-0.972254	0.465047	-0.691870
N49	N	-1.684976	1.086361	-0.365983
N50	N	-1.760658	1.143029	-0.396124
H51	H	-1.813980	1.170387	-0.342838
N52	N	-1.685053	0.366206	-1.087437
N53	N	-1.781161	0.376009	-1.064713
H54	H	-1.834508	0.322809	-1.092242
H55	H	-1.359244	0.464564	-1.079606
N56	N	-1.484559	0.938256	-0.312305
N57	N	-1.396797	0.961813	-0.272356
H58	H	-1.377226	0.934460	-0.199571
N59	N	-1.592127	0.712829	-1.087213
N60	N	-1.672329	0.724335	-1.144534
H61	H	-1.691884	0.797098	-1.171947
H62	H	-0.972333	0.692005	-0.464275
N63	N	-1.484883	0.312531	-0.938729
N64	N	-1.541400	0.234145	-0.961432
H65	H	-1.521960	0.161389	-0.933917
H66	H	-1.717420	0.945580	-0.560697
H67	H	-1.407103	0.644002	-0.946794
N68	N	-1.113138	0.659404	-0.658937
N69	N	-1.090410	0.649738	-0.755064
H70	H	-1.117927	0.702991	-0.808306
N71	N	-1.591849	1.086501	-0.712703
N72	N	-1.679261	1.062435	-0.753114
H73	H	-1.698725	1.089906	-0.825884
N74	N	-1.112981	0.312656	-0.566690
N75	N	-1.210719	0.296003	-0.571247
H76	H	-1.238144	0.223245	-0.590932
N77	N	-1.738497	0.566282	-0.938613
N78	N	-1.816930	0.509827	-0.961300
H79	H	-1.889668	0.529328	-0.933746
N80	N	-1.391588	0.937981	-0.658885
N81	N	-1.295492	0.960784	-0.649038
H82	H	-1.242122	0.933282	-0.702201
H83	H	-0.972561	0.381327	-0.381540
H84	H	-1.359148	1.079006	-0.464450
N85	N	-1.113260	0.566217	-0.312428
N86	N	-1.090643	0.654310	-0.272641
H87	H	-1.118226	0.673753	-0.199889
