data_functionalizedCrystal
_audit_creation_method	'MofGen! by Chris Wilmer'
_symmetry_space_group_name_H-M	'P1'
_symmetry_Int_Tables_number	1
_symmetry_cell_setting	triclinic
loop_
_symmetry_equiv_pos_as_xyz
  x,y,z
_cell_length_a	27.732048
_cell_length_b	14.044209
_cell_length_c	13.101039
_cell_angle_alpha	86.334262
_cell_angle_beta	86.675896
_cell_angle_gamma	92.084696
loop_
_atom_site_label
_atom_site_type_symbol
_atom_site_fract_x
_atom_site_fract_y
_atom_site_fract_z
O1	O	0.648645	-0.107455	-0.085087
O2	O	0.508656	-0.124591	-0.085119
O3	O	0.576549	0.021930	-0.085089
O4	O	0.580751	-0.253976	-0.085117
O5	O	0.571679	0.011400	0.085339
O6	O	0.503786	-0.135121	0.085309
O7	O	0.643774	-0.117985	0.085340
Zn8	Zn	0.573007	-0.128225	0.112383
Zn9	Zn	0.579424	-0.114351	-0.112162
O10	O	0.575881	-0.264506	0.085310
C11	C	0.488197	-0.129496	0.000091
C12	C	0.434492	-0.128412	0.000079
C13	C	0.572275	0.051953	0.000126
C14	C	0.566788	0.157098	0.000129
N15	N	0.568631	-0.137692	0.265630
C16	C	0.099419	-0.208180	0.000115
C17	C	-0.102430	-0.204161	0.000125
O18	O	-0.130264	-0.277104	0.000162
N19	N	-0.125631	-0.117279	0.000132
C20	C	-0.098366	-0.031397	0.000143
O21	O	-0.122732	0.042593	0.000160
C22	C	0.103481	-0.035417	0.000141
C23	C	0.126679	-0.122304	0.000124
C24	C	0.122617	-0.295060	0.000099
C25	C	0.173077	-0.296063	0.000091
C26	C	0.200337	-0.210187	0.000099
C27	C	0.177139	-0.123307	0.000116
C28	C	0.130744	0.050464	0.000160
C29	C	0.181209	0.049451	0.000162
C30	C	0.204407	-0.037435	0.000144
C31	C	0.254859	-0.038434	0.000116
N32	N	0.278060	-0.125316	0.000109
C33	C	0.250799	-0.211192	0.000101
C34	C	-0.204339	-0.029292	0.000143
C35	C	-0.254801	-0.028287	0.000141
C36	C	-0.258861	-0.201052	0.000125
C37	C	-0.208398	-0.202056	0.000119
C38	C	-0.181138	-0.116174	0.000135
C39	C	0.356767	-0.213293	0.000083
C40	C	0.407231	-0.214288	0.000071
C41	C	0.411287	-0.041524	0.000093
C42	C	0.360827	-0.040528	0.000100
C43	C	0.333568	-0.126420	0.000098
O44	O	0.282723	0.034469	0.000091
O45	O	0.275173	-0.285172	0.000107
C46	C	0.048959	-0.207176	0.000123
C47	C	0.025761	-0.120297	0.000140
C48	C	0.053022	-0.034420	0.000148
C49	C	-0.024701	-0.119291	0.000138
C50	C	-0.051961	-0.205168	0.000130
C51	C	-0.028761	-0.292049	0.000123
C52	C	0.021699	-0.293053	0.000115
C53	C	0.029821	0.052461	0.000155
C54	C	-0.020639	0.053458	0.000162
C55	C	-0.047899	-0.032419	0.000154
C56	C	0.664233	-0.113079	0.000128
C57	C	0.717939	-0.114163	0.000133
C58	C	0.556757	0.349613	0.000118
C59	C	0.595674	0.407816	0.000126
C60	C	0.590093	0.514938	0.000120
C61	C	0.562338	0.242481	0.000124
C62	C	0.580156	0.705472	0.000101
C63	C	0.585646	0.600326	0.000115
N64	N	0.583803	-0.104875	-0.265409
C65	C	0.562677	-0.150582	0.474670
C66	C	0.589755	-0.091989	0.525558
C67	C	0.586443	-0.099161	0.641875
C68	C	0.565989	-0.143411	0.358343
H69	H	0.426117	-0.285045	0.000056
N70	N	0.645362	0.367268	0.000158
H71	H	0.665317	0.393517	-0.063011
H72	H	0.642319	0.295385	0.000203
N73	N	0.440692	0.051098	0.000107
H74	H	0.463523	0.058438	-0.063068
H75	H	0.459885	0.050556	0.063329
H76	H	0.111865	0.121217	0.000175
H77	H	0.519251	0.380234	0.000109
N78	N	0.623759	-0.018405	0.467563
H79	H	0.621338	-0.023645	0.391486
H80	H	0.657986	-0.029907	0.486252
N81	N	0.059223	0.145087	0.000151
H82	H	0.078451	0.144629	0.063324
H83	H	0.036836	0.200224	0.000117
N84	N	0.327370	-0.305932	0.000106
H85	H	0.349730	-0.361116	0.000100
H86	H	0.308141	-0.305394	-0.063065
N87	N	0.198094	-0.389776	0.000067
H88	H	0.173162	-0.444018	0.000063
H89	H	0.217141	-0.397870	0.063244
N90	N	0.210607	0.142087	0.000184
H91	H	0.204513	0.183932	-0.062985
H92	H	0.246084	0.128196	0.000219
N93	N	0.093218	-0.387695	0.000148
H94	H	0.115578	-0.442877	0.000157
H95	H	0.073985	-0.387179	-0.063016
N96	N	-0.183379	-0.295767	0.000096
H97	H	-0.208310	-0.350012	0.000087
H98	H	-0.164334	-0.303859	0.063276
N99	N	-0.058168	-0.384674	0.000107
H100	H	-0.093654	-0.370844	0.000114
H101	H	-0.052039	-0.426476	0.063283
H102	H	0.537009	-0.206129	0.518456
H103	H	-0.281065	-0.270975	0.000118
N104	N	-0.045657	0.147178	0.000174
H105	H	-0.020726	0.201422	0.000181
H106	H	-0.068304	0.147452	0.063361
H107	H	-0.182149	0.040647	0.000156
N108	N	-0.279822	0.065424	0.000148
H109	H	-0.268348	0.106918	-0.063024
H110	H	-0.271945	0.099027	0.063373
N111	N	0.335797	0.053177	0.000109
H112	H	0.347264	0.094673	-0.063066
H113	H	0.343676	0.086784	0.063331
N114	N	0.046716	-0.386766	0.000089
H115	H	0.021784	-0.441008	0.000084
H116	H	0.065764	-0.394861	0.063265
