data_functionalizedCrystal
_audit_creation_method	'MofGen! by Chris Wilmer'
_symmetry_space_group_name_H-M	'P1'
_symmetry_Int_Tables_number	1
_symmetry_cell_setting	triclinic
loop_
_symmetry_equiv_pos_as_xyz
  x,y,z
_cell_length_a	12.759400
_cell_length_b	13.033304
_cell_length_c	13.037591
_cell_angle_alpha	91.001174
_cell_angle_beta	97.167927
_cell_angle_gamma	82.816553
loop_
_atom_site_label
_atom_site_type_symbol
_atom_site_fract_x
_atom_site_fract_y
_atom_site_fract_z
Zn1	Zn	-0.327006	-1.499536	-0.781249
Zn2	Zn	-0.477964	-1.521052	-0.609346
Zn3	Zn	-0.321428	-1.349133	-0.587492
Zn4	Zn	-0.521777	-1.327510	-0.759328
O5	O	-0.412044	-1.424308	-0.684354
O6	O	-0.331030	-1.646333	-0.776766
O7	O	-0.436530	-1.516300	-0.462592
O8	O	-0.175145	-1.369129	-0.613222
O9	O	-0.441938	-1.662140	-0.650470
O10	O	-0.179243	-1.479630	-0.755575
O11	O	-0.321523	-1.389992	-0.446535
O12	O	-0.364006	-1.202322	-0.591966
O13	O	-0.516610	-1.332276	-0.906091
O14	O	-0.511201	-1.186436	-0.718213
O15	O	-0.373512	-1.458663	-0.922197
O16	O	-0.630799	-1.495333	-0.629214
O17	O	-0.662988	-1.353139	-0.739404
C18	C	-0.441753	-1.157056	-0.650340
C19	C	-0.454492	-1.042722	-0.635813
C20	C	-0.405409	-0.983914	-0.691922
C21	C	-0.418574	-0.865743	-0.676909
C22	C	-0.685015	-1.424249	-0.684328
C23	C	-0.801788	-1.424314	-0.684363
C24	C	-0.858705	-1.481816	-0.758538
C25	C	-0.968427	-1.481870	-0.758574
C26	C	-0.964304	-1.366919	-0.610249
C27	C	-0.854585	-1.366859	-0.610219
C28	C	-0.138006	-1.424392	-0.684406
C29	C	-0.021228	-1.424428	-0.684428
C30	C	-0.450570	-1.390657	-0.952487
C31	C	-0.466988	-1.376318	-1.066750
C32	C	-0.382213	-0.692604	-0.718494
C33	C	-0.369484	-0.806938	-0.733025
C34	C	-0.373585	-1.457887	-0.417271
C35	C	-0.356849	-1.472426	-0.303035
C36	C	-0.420562	-1.416863	-0.243926
C37	C	-0.403266	-1.431888	-0.125856
H38	H	-0.815721	-1.528598	-0.818912
H39	H	-0.470343	-0.828610	-0.617751
C40	C	-0.265858	-1.551719	-0.253325
C41	C	-0.178005	-1.515900	-0.173886
C42	C	-0.087011	-1.595197	-0.124180
C43	C	-0.083870	-1.710312	-0.153913
C44	C	-0.171726	-1.746137	-0.233356
C45	C	-0.262720	-1.666840	-0.283062
H46	H	-0.180327	-1.430680	-0.151872
H47	H	-0.021974	-1.568676	-0.065370
H48	H	-0.016511	-1.769012	-0.117117
H49	H	-0.169404	-1.831357	-0.255370
H50	H	-0.327757	-1.693361	-0.341872
C51	C	-0.557984	-1.297012	-0.116442
C52	C	-0.645848	-1.332816	-0.195879
C53	C	-0.736842	-1.253510	-0.245566
C54	C	-0.739971	-1.138399	-0.215818
C55	C	-0.652104	-1.102589	-0.136378
C56	C	-0.561110	-1.181896	-0.086690
H57	H	-0.643534	-1.418033	-0.217904
H58	H	-0.801887	-1.280019	-0.304374
H59	H	-0.807330	-1.079691	-0.252600
H60	H	-0.654418	-1.017372	-0.114352
H61	H	-0.496065	-1.155387	-0.027883
H62	H	-0.317706	-0.844071	-0.792176
H63	H	-0.335906	-1.490580	-0.089055
C64	C	-1.031036	-1.545129	-0.840163
C65	C	-1.123026	-1.490414	-0.915183
C66	C	-1.185636	-1.553674	-0.996776
C67	C	-1.156256	-1.671650	-1.003349
C68	C	-1.064261	-1.726372	-0.928327
C69	C	-1.001651	-1.663111	-0.846734
H70	H	-1.144779	-1.403075	-0.910319
H71	H	-1.253737	-1.513165	-1.052312
H72	H	-1.202603	-1.718480	-1.063749
H73	H	-1.042508	-1.813710	-0.933190
H74	H	-0.933550	-1.703620	-0.791197
C75	C	-0.335464	-1.034079	-0.771827
C76	C	-0.384520	-1.097875	-0.861780
C77	C	-0.314570	-1.148039	-0.941684
C78	C	-0.195565	-1.134408	-0.931636
C79	C	-0.146503	-1.070609	-0.841679
C80	C	-0.216453	-1.020445	-0.761775
H81	H	-0.472621	-1.107968	-0.869222
H82	H	-0.350890	-1.195267	-1.008276
H83	H	-0.143784	-1.171542	-0.990786
H84	H	-0.058402	-1.060516	-0.834238
H85	H	-0.180133	-0.973217	-0.695183
H86	H	-0.506258	-1.005584	-0.576659
H87	H	-0.808241	-1.320029	-0.549816
C88	C	-1.022383	-1.303734	-0.528685
C89	C	-0.989593	-1.326883	-0.412905
C90	C	-1.047670	-1.263703	-0.331336
C91	C	-1.138537	-1.177373	-0.365548
C92	C	-1.171332	-1.154220	-0.481334
C93	C	-1.113255	-1.217401	-0.562903
H94	H	-0.922324	-1.390793	-0.387575
H95	H	-1.023393	-1.280843	-0.245624
H96	H	-1.181530	-1.130603	-0.305166
H97	H	-1.238601	-1.090310	-0.506664
H98	H	-1.137532	-1.200261	-0.648615
C99	C	-0.511554	-1.337575	-0.293645
C100	C	-0.599397	-1.373408	-0.373087
C101	C	-0.690392	-1.294121	-0.422807
C102	C	-0.693544	-1.179002	-0.393087
C103	C	-0.605697	-1.143164	-0.313642
C104	C	-0.514702	-1.222451	-0.263921
H105	H	-0.597067	-1.458631	-0.395091
H106	H	-0.755422	-1.320652	-0.481618
H107	H	-0.760904	-1.120310	-0.429893
H108	H	-0.608027	-1.057941	-0.291637
H109	H	-0.449672	-1.195920	-0.205110
