data_functionalizedCrystal
_audit_creation_method	'MofGen! by Chris Wilmer'
_symmetry_space_group_name_H-M	'P1'
_symmetry_Int_Tables_number	1
_symmetry_cell_setting	triclinic
loop_
_symmetry_equiv_pos_as_xyz
  x,y,z
_cell_length_a	23.532361
_cell_length_b	22.610064
_cell_length_c	17.038272
_cell_angle_alpha	90.004145
_cell_angle_beta	93.029388
_cell_angle_gamma	90.003897
loop_
_atom_site_label
_atom_site_type_symbol
_atom_site_fract_x
_atom_site_fract_y
_atom_site_fract_z
O1	O	0.760259	0.049126	-0.094689
O2	O	0.595115	0.049140	-0.108455
O3	O	0.676706	0.049128	0.012236
O4	O	0.678669	0.049137	-0.215380
O5	O	0.676691	-0.049241	0.012218
O6	O	0.595101	-0.049229	-0.108472
O7	O	0.760244	-0.049244	-0.094707
Zn8	Zn	0.677670	-0.064855	-0.101593
Zn9	Zn	0.677689	0.064751	-0.101569
O10	O	0.678654	-0.049232	-0.215398
C11	C	0.573873	-0.000043	-0.108119
C12	C	0.510600	-0.000038	-0.107082
C13	C	0.237126	0.053580	-0.102540
C14	C	0.296578	0.053581	-0.103521
O15	O	0.327336	0.099183	-0.103993
N16	N	0.326301	-0.000040	-0.104026
C17	C	0.296571	-0.053666	-0.103542
O18	O	0.327313	-0.099275	-0.104061
C19	C	0.237121	-0.053667	-0.102555
C20	C	0.207400	-0.000042	-0.102058
C21	C	0.207405	0.107200	-0.102041
C22	C	0.147958	0.107198	-0.101062
C23	C	0.118232	0.053576	-0.100580
C24	C	0.147953	-0.000044	-0.101079
C25	C	0.207392	-0.107293	-0.102066
C26	C	0.147938	-0.107289	-0.101078
C27	C	0.118217	-0.053664	-0.100581
C28	C	0.058779	-0.053668	-0.099617
N29	N	0.029056	-0.000047	-0.099112
C30	C	0.058782	0.053575	-0.099594
C31	C	0.421420	-0.053660	-0.105613
C32	C	0.480869	-0.053660	-0.106605
C33	C	0.480871	0.053588	-0.106582
C34	C	0.421421	0.053587	-0.105595
C35	C	0.391696	-0.000039	-0.105108
C36	C	-0.066062	0.053568	-0.097537
C37	C	-0.125515	0.053561	-0.096561
C38	C	-0.125512	-0.053686	-0.096580
C39	C	-0.066064	-0.053680	-0.097560
C40	C	-0.036341	-0.000048	-0.098036
O41	O	0.027984	-0.099246	-0.099141
O42	O	0.028034	0.099177	-0.099064
N43	N	0.677661	-0.153307	-0.101608
C44	C	0.713820	-0.561954	-0.048136
C45	C	0.713822	-0.623874	-0.048130
O46	O	0.744542	-0.655897	-0.002678
N47	N	0.677688	-0.654844	-0.101553
C48	C	0.641545	-0.623892	-0.154980
O49	O	0.610810	-0.655920	-0.200420
C50	C	0.641540	-0.561973	-0.154981
C51	C	0.677680	-0.531006	-0.101560
C52	C	0.749957	-0.530986	0.005282
C53	C	0.749955	-0.469071	0.005275
C54	C	0.713816	-0.438122	-0.048149
C55	C	0.677678	-0.469090	-0.101567
C56	C	0.605394	-0.531022	-0.208404
C57	C	0.605392	-0.469099	-0.208400
C58	C	0.641532	-0.438131	-0.154979
C59	C	0.641537	-0.376226	-0.154998
N60	N	0.677671	-0.345256	-0.101575
C61	C	0.713811	-0.376204	-0.048151
C62	C	0.641558	-0.753925	-0.154972
C63	C	0.641565	-0.815843	-0.154975
C64	C	0.713842	-0.815821	-0.048124
C65	C	0.713837	-0.753902	-0.048125
C66	C	0.677692	-0.722955	-0.101549
C67	C	0.713804	-0.246176	-0.048170
C68	C	0.713800	-0.184255	-0.048183
C69	C	0.641522	-0.184283	-0.155032
C70	C	0.641527	-0.246199	-0.155021
C71	C	0.677670	-0.277144	-0.101583
O72	O	0.610832	-0.344164	-0.200425
O73	O	0.744535	-0.344167	-0.002712
C74	C	0.781486	-0.000059	-0.095043
C75	C	0.844759	-0.000061	-0.096079
C76	C	0.674913	-0.000056	0.041342
C77	C	0.669586	-0.000056	0.128094
N78	N	0.677703	0.153203	-0.101548
C79	C	0.680447	-0.000046	-0.244503
C80	C	0.685773	-0.000043	-0.331256
C81	C	0.718491	-0.000060	0.178581
C82	C	0.713483	-0.000054	0.260094
C83	C	0.659569	-0.000048	0.291117
C84	C	0.610660	-0.000041	0.240623
C85	C	0.615669	-0.000043	0.159112
C86	C	0.641873	-0.000038	0.536740
C87	C	0.636868	-0.000038	0.618257
C88	C	0.739692	-0.000050	0.637722
C89	C	0.744696	-0.000056	0.556209
C90	C	0.695787	-0.000046	0.505722
C91	C	0.654448	-0.000043	0.374435
C92	C	0.700908	-0.000046	0.422405
H93	H	0.397221	-0.097332	-0.105225
H94	H	0.231581	-0.150960	-0.102468
O95	O	0.770908	-0.000039	0.148579
C96	C	0.812998	-0.000055	0.210624
H97	H	0.794357	0.018569	0.265875
H98	H	0.850405	0.028503	0.193886
H99	H	0.828268	-0.047248	0.222283
H100	H	0.505085	0.097250	-0.106974
O101	O	0.748917	-0.845824	0.003886
C102	C	0.735905	-0.830703	0.081187
H103	H	0.713968	-0.785746	0.080933
H104	H	0.776832	-0.828582	0.119988
H105	H	0.706395	-0.865552	0.105148
O106	O	0.509650	-0.105804	-0.107060
C107	C	0.470656	-0.153128	-0.106447
H108	H	0.429440	-0.137405	-0.080999
H109	H	0.489605	-0.190636	-0.068789
H110	H	0.461391	-0.169612	-0.169055
H111	H	0.753307	-0.000060	0.301198
H112	H	0.612143	-0.841053	-0.198484
H113	H	-0.149726	-0.097344	-0.096191
O114	O	0.748884	-0.276167	0.003844
C115	C	0.735874	-0.261036	0.081143
H116	H	0.713929	-0.216084	0.080879
H117	H	0.776803	-0.258903	0.119939
H118	H	0.706372	-0.295887	0.105118
O119	O	-0.154443	0.105617	-0.095970
C120	C	-0.185647	0.108831	-0.027697
H121	H	-0.193501	0.062273	-0.004990
H122	H	-0.228163	0.131529	-0.042230
H123	H	-0.160510	0.135290	0.019334
O124	O	0.753291	0.000053	0.392310
C125	C	0.783361	0.050987	0.418167
H126	H	0.751913	0.086601	0.434889
H127	H	0.809974	0.068084	0.368974
H128	H	0.812513	0.039464	0.471544
H129	H	0.612126	-0.728731	-0.198483
H130	H	0.788598	-0.000061	0.530957
H131	H	0.779386	-0.556179	0.048790
O132	O	-0.037121	-0.105731	-0.097947
C133	C	0.000426	-0.108949	-0.030804
H134	H	0.010391	-0.062392	-0.008371
H135	H	0.041518	-0.131641	-0.046718
H136	H	-0.020268	-0.135414	0.016970
H137	H	0.566762	-0.000032	0.265888
O138	O	0.119151	-0.159436	-0.100642
C139	C	0.158138	-0.206760	-0.101271
H140	H	0.199355	-0.191036	-0.126715
H141	H	0.139182	-0.244265	-0.138941
H142	H	0.167401	-0.223248	-0.038669
O143	O	0.606337	-0.154280	-0.206893
C144	C	0.549368	-0.169403	-0.194573
H145	H	0.547982	-0.214360	-0.164448
H146	H	0.524172	-0.171524	-0.253519
H147	H	0.529884	-0.134555	-0.155790
H148	H	0.779382	-0.443860	0.048777
H149	H	0.612104	-0.271413	-0.198529
O150	O	0.584504	-0.000134	0.648428
C151	C	0.578525	-0.051073	0.695002
H152	H	0.609200	-0.086686	0.675956
H153	H	0.532994	-0.068166	0.687315
H154	H	0.588544	-0.039558	0.759395
H155	H	0.575845	-0.000039	0.118005
O156	O	0.787140	-0.000028	0.686876
C157	C	0.771162	-0.000040	0.765473
H158	H	0.726297	0.018586	0.768242
H159	H	0.802096	0.028519	0.802668
H160	H	0.772173	-0.047232	0.789062
H161	H	0.743265	-0.728692	-0.004625
H162	H	0.602048	-0.000030	0.495642
H163	H	0.575956	-0.443905	-0.251904
H164	H	-0.041868	0.097240	-0.097926
O165	O	0.119181	0.159343	-0.100534
C166	C	0.158176	0.206665	-0.101184
H167	H	0.201713	0.190934	-0.077150
H168	H	0.142790	0.244165	-0.062935
H169	H	0.161558	0.223161	-0.163992
H170	H	0.610551	-0.000039	0.399703
O171	O	0.570232	-0.561002	-0.260327
C172	C	0.538346	-0.520397	-0.307483
H173	H	0.536159	-0.476259	-0.275438
H174	H	0.493458	-0.538285	-0.319729
H175	H	0.559638	-0.513811	-0.365412
H176	H	0.231602	0.150868	-0.102431
O177	O	0.748792	-0.154146	0.003833
C178	C	0.715910	-0.118393	0.051832
H179	H	0.672906	-0.109085	0.020303
H180	H	0.739064	-0.074864	0.064506
H181	H	0.709172	-0.142317	0.109500
H182	H	0.397226	0.097253	-0.105191
