data_functionalizedCrystal
_audit_creation_method	'MofGen! by Chris Wilmer'
_symmetry_space_group_name_H-M	'P1'
_symmetry_Int_Tables_number	1
_symmetry_cell_setting	triclinic
loop_
_symmetry_equiv_pos_as_xyz
  x,y,z
_cell_length_a	19.288855
_cell_length_b	19.288864
_cell_length_c	17.766277
_cell_angle_alpha	89.976755
_cell_angle_beta	90.007804
_cell_angle_gamma	96.865756
loop_
_atom_site_label
_atom_site_type_symbol
_atom_site_fract_x
_atom_site_fract_y
_atom_site_fract_z
O1	O	-0.086648	0.921350	-0.062840
O2	O	-0.098337	0.719089	-0.062789
O3	O	0.008638	0.826068	-0.062806
O4	O	-0.193623	0.814372	-0.062823
O5	O	0.008641	0.826049	0.062383
O6	O	-0.098334	0.719070	0.062400
O7	O	-0.086645	0.921331	0.062349
Cu8	Cu	-0.092489	0.820199	0.073805
Cu9	Cu	-0.092493	0.820221	-0.074245
O10	O	-0.193620	0.814353	0.062366
C11	C	-0.097959	0.693203	-0.000188
C12	C	-0.096830	0.616100	-0.000168
C13	C	-0.159598	0.571401	-0.000185
C14	C	-0.158538	0.498954	-0.000193
C15	C	-0.094705	0.471209	-0.000200
C16	C	-0.031929	0.515917	-0.000178
C17	C	-0.032991	0.588363	-0.000163
C18	C	-0.044527	0.362955	-0.044080
C19	C	-0.043467	0.290511	-0.044100
C20	C	-0.091426	0.247763	-0.000245
C21	C	-0.140456	0.277468	0.043621
C22	C	-0.141518	0.349913	0.043637
C23	C	-0.093546	0.392655	-0.000216
C24	C	-0.153048	0.124509	-0.000270
C25	C	-0.151985	0.052061	-0.000274
C26	C	-0.025374	0.069026	-0.000266
C27	C	-0.026439	0.141472	-0.000255
C28	C	-0.090278	0.169209	-0.000260
C29	C	0.034517	0.825683	-0.000211
C30	C	0.111620	0.824557	-0.000208
C31	C	0.147829	0.824041	-0.068448
C32	C	0.220276	0.822973	-0.068452
C33	C	0.256512	0.822434	-0.000213
C34	C	0.220293	0.822946	0.068036
C35	C	0.147848	0.824007	0.068039
C36	C	0.376745	0.861429	0.052053
C37	C	0.449189	0.860372	0.052047
C38	C	0.479958	0.819158	-0.000219
C39	C	0.438274	0.779010	-0.052492
C40	C	0.365828	0.780072	-0.052490
C41	C	0.335067	0.821283	-0.000209
C42	C	0.594721	0.817484	-0.068469
C43	C	0.667168	0.816411	-0.068471
C44	C	0.667185	0.816391	0.068019
C45	C	0.594739	0.817456	0.068019
C46	C	0.558512	0.818006	-0.000227
C47	C	0.780502	0.814739	-0.000229
C48	C	0.703399	0.815871	-0.000231
C49	C	-0.087023	0.947217	-0.000254
C50	C	-0.088152	1.024321	-0.000279
N51	N	-0.092486	0.820188	0.177935
N52	N	-0.092490	0.820238	-0.178375
C53	C	-0.134510	0.862174	0.217301
C54	C	-0.134508	0.862185	0.296103
C55	C	-0.092490	0.820197	0.335536
C56	C	-0.050458	0.778208	0.296161
C57	C	-0.050456	0.778204	0.217360
C58	C	-0.090733	0.757585	0.460411
C59	C	-0.090740	0.757588	0.539210
C60	C	-0.092492	0.820211	0.578582
C61	C	-0.094252	0.882833	0.539146
C62	C	-0.094250	0.882829	0.460345
C63	C	-0.092487	0.820197	0.420981
C64	C	-0.134516	0.862213	0.703394
C65	C	-0.134509	0.862225	0.782197
C66	C	-0.050463	0.778242	0.782253
C67	C	-0.050466	0.778236	0.703452
C68	C	-0.092496	0.820220	0.664027
H69	H	-0.205029	0.147093	-0.000263
C70	C	0.707033	0.815795	0.143083
H71	H	0.675088	0.816252	0.183726
H72	H	0.740721	0.855875	0.145912
H73	H	0.729865	0.774877	0.145927
H74	H	0.249762	0.822549	-0.124023
C75	C	-0.088794	0.688698	0.417106
H76	H	-0.089034	0.697664	0.364528
H77	H	-0.128555	0.657007	0.430024
H78	H	-0.047580	0.668932	0.430043
C79	C	-0.096179	0.951725	0.582440
H80	H	-0.097232	0.989016	0.547668
H81	H	-0.055767	0.960287	0.613182
H82	H	-0.136742	0.948374	0.613175
C83	C	-0.195440	0.382587	0.091892
H84	H	-0.223850	0.346758	0.118015
H85	H	-0.223901	0.407111	0.060279
H86	H	-0.171831	0.414044	0.127168
C87	C	0.472108	0.733671	-0.109987
H88	H	0.521223	0.738781	-0.102499
H89	H	0.462147	0.748157	-0.159532
H90	H	0.453837	0.686101	-0.103389
C91	C	-0.004246	0.732001	0.174053
H92	H	-0.010265	0.738010	0.121475
H93	H	-0.017282	0.684442	0.186998
H94	H	0.043320	0.745054	0.186958
C95	C	-0.096175	0.951707	0.416968
H96	H	-0.097214	0.989008	0.451697
H97	H	-0.136730	0.948357	0.386218
H98	H	-0.055755	0.960257	0.386234
C99	C	0.706998	0.815841	-0.143539
H100	H	0.675044	0.816326	-0.184180
H101	H	0.729831	0.774930	-0.146370
H102	H	0.740685	0.855927	-0.146383
C103	C	-0.221033	0.002892	-0.000292
H104	H	-0.259202	0.029790	-0.000300
H105	H	-0.223255	-0.025746	0.043358
H106	H	-0.223246	-0.025697	-0.043960
C107	C	0.495035	0.904531	0.109545
H108	H	0.466335	0.929218	0.140682
H109	H	0.527675	0.936839	0.083654
H110	H	0.519370	0.874774	0.139784
H111	H	0.351700	0.894989	0.094620
H112	H	0.331891	0.747380	-0.095051
H113	H	0.565258	0.817882	0.123588
H114	H	-0.209653	0.462554	-0.000205
C115	C	0.554867	0.818080	-0.143535
H116	H	0.586809	0.817610	-0.184178
H117	H	0.532032	0.858992	-0.146382
H118	H	0.521179	0.777995	-0.146359
H119	H	-0.179508	0.242664	0.079333
H120	H	0.026600	0.046436	-0.000318
C121	C	0.010458	0.257838	-0.092354
H122	H	0.004216	0.208570	-0.086091
H123	H	0.056240	0.275856	-0.076927
H124	H	0.004175	0.268925	-0.143820
C125	C	0.042607	0.190642	-0.000248
H126	H	0.080776	0.163745	-0.000259
H127	H	0.044827	0.219234	0.043413
H128	H	0.044820	0.219277	-0.043905
H129	H	-0.005472	0.397755	-0.079797
C130	C	-0.229816	0.601912	-0.000187
H131	H	-0.221462	0.651460	-0.000182
H132	H	-0.255655	0.586529	0.043462
H133	H	-0.255648	0.586578	-0.043856
C134	C	0.260150	0.822355	0.143097
H135	H	0.308484	0.821656	0.133322
H136	H	0.242859	0.782028	0.171147
H137	H	0.253705	0.863025	0.171126
C138	C	0.108017	0.824580	0.143106
H139	H	0.139972	0.824110	0.183748
H140	H	0.074328	0.784500	0.145954
H141	H	0.085187	0.865498	0.145932
C142	C	0.038287	0.485404	-0.000187
H143	H	0.075519	0.522404	-0.000169
H144	H	0.041333	0.457520	-0.043849
H145	H	0.041332	0.457471	0.043468
H146	H	0.018124	0.624757	-0.000149
C147	C	0.107981	0.824634	-0.143515
H148	H	0.139926	0.824167	-0.184157
H149	H	0.085141	0.865542	-0.146365
H150	H	0.074299	0.784544	-0.146339
C151	C	-0.180733	0.908361	0.173934
H152	H	-0.174717	0.902344	0.121364
H153	H	-0.167707	0.955925	0.186829
H154	H	-0.228295	0.895299	0.186845
H155	H	-0.168740	0.896399	0.671292
C156	C	-0.180737	0.908368	0.339418
H157	H	-0.174715	0.902359	0.391995
H158	H	-0.228295	0.895306	0.326502
H159	H	-0.167710	0.955935	0.326485
H160	H	-0.168728	0.896420	0.814247
H161	H	-0.016250	0.744056	0.814359
C162	C	-0.004247	0.732043	0.660147
H163	H	0.020774	0.707032	0.694916
H164	H	0.027793	0.760603	0.629396
H165	H	-0.032799	0.699982	0.629421
H166	H	-0.089311	0.706597	0.571313
H167	H	-0.016246	0.744022	0.328272
