data_functionalizedCrystal
_audit_creation_method	'MofGen! by Chris Wilmer'
_symmetry_space_group_name_H-M	'P1'
_symmetry_Int_Tables_number	1
_symmetry_cell_setting	triclinic
loop_
_symmetry_equiv_pos_as_xyz
  x,y,z
_cell_length_a	10.654556
_cell_length_b	14.853567
_cell_length_c	9.730223
_cell_angle_alpha	89.997214
_cell_angle_beta	89.999593
_cell_angle_gamma	84.061234
loop_
_atom_site_label
_atom_site_type_symbol
_atom_site_fract_x
_atom_site_fract_y
_atom_site_fract_z
O1	O	1.666516	0.126656	-0.114225
O2	O	1.300913	0.138714	-0.114238
O3	O	1.493480	0.001508	-0.114236
O4	O	1.473949	0.263863	-0.114228
O5	O	1.493473	0.001498	0.114344
O6	O	1.300906	0.138704	0.114342
O7	O	1.666509	0.126646	0.114355
Zn8	Zn	1.483706	0.132674	0.150640
Zn9	Zn	1.483716	0.132687	-0.150524
O10	O	1.473942	0.263853	0.114352
C11	C	1.254121	0.137823	0.000050
C12	C	1.114706	0.135170	0.000045
C13	C	0.918203	0.131441	-0.124544
C14	C	1.049199	0.133928	-0.124552
C15	C	1.049210	0.133917	0.124658
C16	C	0.918218	0.131424	0.124665
C17	C	1.492592	-0.032090	0.000050
C18	C	1.489940	-0.132188	0.000038
C19	C	1.364340	-0.545397	0.000060
C20	C	1.593114	-0.565449	0.000068
C21	C	1.595608	-0.471402	0.000060
C22	C	1.482466	-0.414348	0.000054
C23	C	1.366830	-0.451340	0.000056
C24	C	1.711242	-0.434402	0.000072
C25	C	1.713740	-0.340349	0.000066
C26	C	1.600596	-0.283293	0.000050
C27	C	1.484956	-0.320292	0.000050
C28	C	1.371814	-0.263237	0.000044
C29	C	1.256172	-0.300234	0.000035
C30	C	1.253687	-0.394284	0.000041
C31	C	1.603082	-0.189243	0.000044
C32	C	1.374304	-0.169181	0.000040
C33	C	1.713301	0.127538	0.000064
C34	C	1.852716	0.130190	0.000060
C35	C	1.474830	0.297451	0.000063
C36	C	1.477482	0.397549	0.000066
N37	N	1.483723	0.132689	-0.356060
C38	C	1.569143	0.072042	-0.571877
C39	C	1.569147	0.072052	-0.427994
C40	C	1.398280	0.193314	-0.428016
C41	C	1.398270	0.193300	-0.571897
N42	N	1.483709	0.132664	0.356177
H43	H	1.282169	-0.122733	0.000030
F44	F	1.836814	-0.300984	0.000059
H45	H	1.159538	-0.424416	0.000034
F46	F	1.135763	-0.239502	0.000039
H47	H	1.638714	0.022687	-0.369419
H48	H	1.697235	-0.159124	0.000061
H49	H	0.864897	0.130404	0.226139
F50	F	1.241272	-0.584771	0.000039
F51	F	1.307357	0.257846	-0.351458
F52	F	1.660072	0.007507	-0.648421
F53	F	1.307331	0.257822	-0.648473
H54	H	1.102513	0.134945	-0.226017
F55	F	0.848497	0.130125	-0.257159
H56	H	1.685229	-0.611908	0.000084
F57	F	1.831646	-0.495126	0.000104
F58	F	1.118931	0.135237	0.257264
