data_functionalizedCrystal
_audit_creation_method	'MofGen! by Chris Wilmer'
_symmetry_space_group_name_H-M	'P1'
_symmetry_Int_Tables_number	1
_symmetry_cell_setting	triclinic
loop_
_symmetry_equiv_pos_as_xyz
  x,y,z
_cell_length_a	14.971486
_cell_length_b	17.699083
_cell_length_c	14.048226
_cell_angle_alpha	89.992674
_cell_angle_beta	89.998499
_cell_angle_gamma	83.448572
loop_
_atom_site_label
_atom_site_type_symbol
_atom_site_fract_x
_atom_site_fract_y
_atom_site_fract_z
O1	O	1.186608	0.098633	-0.079053
O2	O	1.686608	0.598633	0.420947
O3	O	0.926167	0.110445	-0.079079
O4	O	1.426167	0.610445	0.420921
O5	O	1.063746	-0.005632	-0.079057
O6	O	1.563746	0.494368	0.420943
O7	O	1.049030	0.214710	-0.079075
O8	O	1.549030	0.714710	0.420925
O9	O	1.063729	-0.005639	0.079264
O10	O	1.563729	0.494361	0.579264
O11	O	0.926151	0.110438	0.079242
O12	O	1.426151	0.610438	0.579242
O13	O	1.186591	0.098626	0.079268
O14	O	1.686591	0.598626	0.579268
Zn15	Zn	1.056368	0.104531	0.104392
Zn16	Zn	1.556368	0.604531	0.604392
Zn17	Zn	1.056390	0.104540	-0.104203
Zn18	Zn	1.556390	0.604540	0.395797
O19	O	1.049013	0.214703	0.079246
O20	O	1.549013	0.714703	0.579246
C21	C	0.892836	0.109913	0.000078
C22	C	1.392836	0.609913	0.500078
C23	C	0.793544	0.108330	0.000068
C24	C	1.293544	0.608330	0.500068
C25	C	0.736085	0.176522	0.000064
C26	C	1.236085	0.676522	0.500064
C27	C	0.642790	0.175030	0.000078
C28	C	1.142790	0.675030	0.500078
C29	C	0.606958	0.105346	0.000090
C30	C	1.106958	0.605346	0.500090
C31	C	0.664425	0.037148	0.000097
C32	C	1.164425	0.537148	0.500097
C33	C	0.757717	0.038641	0.000090
C34	C	1.257717	0.538641	0.500090
C35	C	0.469973	0.034042	0.000111
C36	C	0.969973	0.534042	0.500111
C37	C	0.376674	0.032549	0.000117
C38	C	0.876674	0.532549	0.500117
C39	C	0.355046	0.170431	0.000099
C40	C	0.855046	0.670431	0.500099
C41	C	0.448339	0.171924	0.000092
C42	C	0.948339	0.671924	0.500092
C43	C	0.505799	0.103726	0.000097
C44	C	1.005799	0.603726	0.500097
C45	C	1.063210	-0.033834	0.000104
C46	C	1.563210	0.466166	0.500104
C47	C	1.061628	-0.117856	0.000104
C48	C	1.561628	0.382144	0.500104
C49	C	1.142384	-0.166278	0.000113
C50	C	1.642384	0.333722	0.500113
C51	C	1.140892	-0.245225	0.000105
C52	C	1.640892	0.254775	0.500105
C53	C	1.058644	-0.275748	0.000094
C54	C	1.558644	0.224252	0.500094
C55	C	0.977882	-0.227320	0.000081
C56	C	1.477882	0.272680	0.500081
C57	C	0.979375	-0.148374	0.000083
C58	C	1.479375	0.351626	0.500083
C59	C	0.971860	-0.545698	0.000073
C60	C	1.471860	-0.045698	0.500073
C61	C	0.970374	-0.624649	0.000074
C62	C	1.470374	-0.124649	0.500074
C63	C	1.133378	-0.642548	0.000095
C64	C	1.633378	-0.142548	0.500095
C65	C	1.134871	-0.563603	0.000096
C66	C	1.634871	-0.063603	0.500096
C67	C	1.054109	-0.515181	0.000079
C68	C	1.554109	-0.015181	0.500079
C69	C	1.055728	-0.429578	0.000087
C70	C	1.555728	0.070422	0.500087
C71	C	1.057024	-0.361350	0.000093
C72	C	1.557024	0.138650	0.500093
C73	C	1.219923	0.099158	0.000109
C74	C	1.719923	0.599158	0.500109
C75	C	1.319214	0.100741	0.000112
C76	C	1.819214	0.600741	0.500112
C77	C	1.049549	0.242905	0.000083
C78	C	1.549549	0.742905	0.500083
C79	C	1.051131	0.326927	0.000077
C80	C	1.551131	0.826927	0.500077
N81	N	1.056360	0.104524	0.246753
N82	N	1.556360	0.604524	0.746753
N83	N	1.056406	0.104541	-0.246564
N84	N	1.556406	0.604541	0.253436
C85	C	1.117299	0.053147	0.296581
C86	C	1.617299	0.553147	0.796581
C87	C	1.117305	0.053146	0.396238
C88	C	1.617305	0.553146	0.896238
C89	C	1.056376	0.104528	0.446066
C90	C	1.556376	0.604528	0.946066
C91	C	0.995431	0.155908	0.396231
C92	C	1.495431	0.655908	0.896231
C93	C	0.995421	0.155904	0.296576
C94	C	1.495421	0.655904	0.796576
C95	C	0.995456	0.155913	0.603946
C96	C	1.495456	0.655913	1.103946
C97	C	0.995467	0.155918	0.703608
C98	C	1.495467	0.655918	1.203608
C99	C	1.117340	0.053156	0.703608
C100	C	1.617340	0.553156	1.203608
C101	C	1.117331	0.053152	0.603953
C102	C	1.617331	0.553152	1.103953
C103	C	1.056386	0.104533	0.554125
C104	C	1.556386	0.604533	1.054125
H105	H	0.596010	0.230559	0.000074
H106	H	1.096010	0.730559	0.500074
O107	O	0.884751	-0.493486	0.000067
O108	O	1.384751	0.006514	0.500067
H109	H	0.881524	-0.457088	-0.064467
H110	H	1.381524	0.042912	0.435533
O111	O	0.338023	-0.042610	0.000150
O112	O	0.838023	0.457390	0.500150
H113	H	0.296038	-0.046597	-0.064377
H114	H	0.796038	0.453403	0.435623
O115	O	0.929682	0.211318	0.242842
O116	O	1.429682	0.711318	0.742842
H117	H	0.886274	0.179386	0.197468
H118	H	1.386274	0.679386	0.697468
O119	O	1.223584	-0.530686	0.000109
O120	O	1.723584	-0.030686	0.500109
H121	H	1.211054	-0.467655	0.000117
H122	H	1.711054	0.032345	0.500117
H123	H	1.199138	-0.681983	0.000104
H124	H	1.699138	-0.181983	0.500104
O125	O	1.182998	-0.002286	0.242835
O126	O	1.682998	0.497714	0.742835
H127	H	1.226402	0.029621	0.197413
H128	H	1.726402	0.529621	0.697413
O129	O	0.293074	0.243988	0.000099
O130	O	0.793074	0.743988	0.500099
H131	H	0.305807	0.277333	0.064618
H132	H	0.805807	0.777333	0.564618
H133	H	0.516756	-0.021492	0.000117
H134	H	1.016756	0.478508	0.500117
H135	H	1.166963	0.011319	0.744184
H136	H	1.666963	0.511319	1.244184
O137	O	0.929744	0.211322	0.757366
O138	O	1.429744	0.711322	1.257366
H139	H	0.860044	0.201561	0.738263
H140	H	1.360044	0.701561	1.238263
H141	H	1.209360	-0.141433	0.000128
H142	H	1.709360	0.358567	0.500128
H143	H	0.635242	-0.019590	0.000121
H144	H	1.135242	0.480410	0.500121
O145	O	0.892273	-0.096145	0.000086
O146	O	1.392273	0.403855	0.500086
H147	H	0.852905	-0.107001	-0.064443
H148	H	1.352905	0.392999	0.435557
O149	O	0.929726	0.211323	0.550186
O150	O	1.429726	0.711323	1.050186
H151	H	0.940994	0.270346	0.569282
H152	H	1.440994	0.770346	1.069282
O153	O	0.774732	0.251682	0.000061
O154	O	1.274732	0.751682	0.500061
H155	H	0.719099	0.298849	0.000073
H156	H	1.219099	0.798849	0.500073
H157	H	0.945816	0.197741	0.436807
H158	H	1.445816	0.697741	0.936807
H159	H	1.166925	0.011310	0.436808
H160	H	1.666925	0.511310	0.936808
O161	O	0.881660	-0.657576	0.000054
O162	O	1.381660	-0.157576	0.500054
H163	H	0.825751	-0.610643	0.000033
H164	H	1.325751	-0.110643	0.500033
H165	H	0.477510	0.228667	0.000073
H166	H	0.977510	0.728667	0.500073
H167	H	0.804501	-0.016888	0.000093
H168	H	1.304501	0.483112	0.500093
O169	O	1.227992	-0.297455	0.000131
O170	O	1.727992	0.202545	0.500131
H171	H	1.285434	-0.262967	0.000156
H172	H	1.785434	0.237033	0.500156
H173	H	0.910914	-0.252178	0.000066
H174	H	1.410914	0.247822	0.500066
O175	O	1.183042	-0.002267	0.550203
O176	O	1.683042	0.497733	1.050203
H177	H	1.225415	-0.038001	0.601592
H178	H	1.725415	0.461999	1.101592
