data_functionalizedCrystal
_audit_creation_method	'MofGen! by Chris Wilmer'
_symmetry_space_group_name_H-M	'P1'
_symmetry_Int_Tables_number	1
_symmetry_cell_setting	triclinic
loop_
_symmetry_equiv_pos_as_xyz
  x,y,z
_cell_length_a	16.625547
_cell_length_b	29.839131
_cell_length_c	16.625539
_cell_angle_alpha	90.027924
_cell_angle_beta	90.024822
_cell_angle_gamma	90.041640
loop_
_atom_site_label
_atom_site_type_symbol
_atom_site_fract_x
_atom_site_fract_y
_atom_site_fract_z
Zn1	Zn	1.232573	-0.178853	0.456003
Zn2	Zn	1.565906	0.154480	0.789336
Zn3	Zn	1.899239	0.487813	1.122670
Zn4	Zn	1.232431	-0.253984	0.321171
Zn5	Zn	1.565764	0.079349	0.654504
Zn6	Zn	1.899097	0.412683	0.987838
Zn7	Zn	1.097735	-0.178869	0.321173
Zn8	Zn	1.431068	0.154464	0.654507
Zn9	Zn	1.764401	0.487798	0.987840
Zn10	Zn	1.097660	-0.253957	0.455951
Zn11	Zn	1.430993	0.079376	0.789284
Zn12	Zn	1.764326	0.412710	1.122618
O13	O	1.165099	-0.216416	0.388575
O14	O	1.498433	0.116918	0.721908
O15	O	1.831766	0.450251	1.055241
O16	O	1.345386	-0.188824	0.438138
O17	O	1.678720	0.144509	0.771471
O18	O	2.012053	0.477842	1.104805
O19	O	1.214535	-0.244038	0.208339
O20	O	1.547868	0.089295	0.541672
O21	O	1.881201	0.422629	0.875006
O22	O	1.115712	-0.116000	0.339082
O23	O	1.449045	0.217334	0.672415
O24	O	1.782379	0.550667	1.005748
O25	O	1.345282	-0.244023	0.339078
O26	O	1.678615	0.089311	0.672411
O27	O	2.011949	0.422644	1.005744
O28	O	1.214777	-0.115988	0.438140
O29	O	1.548110	0.217345	0.771474
O30	O	1.881444	0.550678	1.104807
O31	O	1.115574	-0.188851	0.208341
O32	O	1.448907	0.144482	0.541674
O33	O	1.782241	0.477816	0.875007
O34	O	0.984892	-0.188825	0.339031
O35	O	1.318226	0.144509	0.672365
O36	O	1.651559	0.477842	1.005698
O37	O	1.115584	-0.243976	0.568790
O38	O	1.448918	0.089357	0.902124
O39	O	1.782251	0.422690	1.235457
O40	O	0.984837	-0.243991	0.438052
O41	O	1.318171	0.089342	0.771385
O42	O	1.651504	0.422675	1.104718
O43	O	1.214704	-0.188798	0.568828
O44	O	1.548038	0.144535	0.902162
O45	O	1.881371	0.477869	1.235495
O46	O	1.214462	-0.316848	0.339027
O47	O	1.547796	0.016486	0.672360
O48	O	1.881129	0.349819	1.005694
O49	O	1.115447	-0.316828	0.438049
O50	O	1.448780	0.016506	0.771383
O51	O	1.782113	0.349839	1.104716
C52	C	0.955609	-0.216407	0.388536
C53	C	1.288942	0.116926	0.721870
C54	C	1.622275	0.450260	1.055203
C55	C	0.865987	-0.216414	0.388539
C56	C	1.199321	0.116919	0.721873
C57	C	1.532654	0.450253	1.055206
C58	C	0.793205	-0.216415	0.388549
C59	C	1.126538	0.116918	0.721883
C60	C	1.459872	0.450252	1.055216
C61	C	0.701897	-0.216417	0.388569
C62	C	1.035230	0.116916	0.721903
C63	C	1.368563	0.450249	1.055236
C64	C	0.629120	-0.216422	0.388590
C65	C	0.962453	0.116912	0.721923
C66	C	1.295787	0.450245	1.055257
C67	C	0.537806	-0.216425	0.388609
C68	C	0.871139	0.116909	0.721943
C69	C	1.204473	0.450242	1.055276
C70	C	1.164953	-0.333138	0.388550
C71	C	1.498286	0.000195	0.721883
C72	C	1.831619	0.333528	1.055217
C73	C	1.164964	-0.383073	0.388566
C74	C	1.498297	-0.049739	0.721900
C75	C	1.831630	0.283594	1.055233
C76	C	1.113575	-0.739665	0.440132
C77	C	1.446908	-0.406332	0.773465
C78	C	1.780242	-0.072998	1.106799
C79	C	1.113469	-0.551992	0.440107
C80	C	1.446802	-0.218659	0.773440
C81	C	1.780135	0.114675	1.106773
O82	O	1.069600	-0.527732	0.483935
O83	O	1.402934	-0.194399	0.817268
O84	O	1.736267	0.138935	1.150601
N85	N	1.165049	-0.528518	0.388590
N86	N	1.498382	-0.195185	0.721924
N87	N	1.831716	0.138149	1.055257
C88	C	1.216664	-0.551965	0.337080
C89	C	1.549997	-0.218632	0.670414
C90	C	1.883330	0.114702	1.003747
O91	O	1.260539	-0.527692	0.293268
O92	O	1.593873	-0.194359	0.626601
O93	O	1.927206	0.138974	0.959934
C94	C	1.216774	-0.739637	0.337110
C95	C	1.550107	-0.406304	0.670443
C96	C	1.883440	-0.072970	1.003777
C97	C	1.165184	-0.763109	0.388624
C98	C	1.498517	-0.429775	0.721958
C99	C	1.831851	-0.096442	1.055291
C100	C	1.061990	-0.763137	0.491642
C101	C	1.395324	-0.429804	0.824976
C102	C	1.728657	-0.096470	1.158309
C103	C	1.062014	-0.810052	0.491645
C104	C	1.395348	-0.476719	0.824978
C105	C	1.728681	-0.143386	1.158312
C106	C	1.113623	-0.833496	0.440137
C107	C	1.446957	-0.500163	0.773471
C108	C	1.780290	-0.166829	1.106804
C109	C	1.165208	-0.810024	0.388627
C110	C	1.498541	-0.476691	0.721960
C111	C	1.831875	-0.143358	1.055294
C112	C	1.268392	-0.763083	0.285605
C113	C	1.601725	-0.429750	0.618938
C114	C	1.935058	-0.096416	0.952271
C115	C	1.268416	-0.810004	0.285618
C116	C	1.601749	-0.476671	0.618952
C117	C	1.935083	-0.143337	0.952285
C118	C	1.216826	-0.833476	0.337132
C119	C	1.550160	-0.500143	0.670466
C120	C	1.883493	-0.166809	1.003799
C121	C	1.216841	-0.880383	0.337122
C122	C	1.550174	-0.547050	0.670455
C123	C	1.883508	-0.213717	1.003788
N124	N	1.165260	-0.903858	0.388638
N125	N	1.498594	-0.570524	0.721972
N126	N	1.831927	-0.237191	1.055305
C127	C	1.113652	-0.880414	0.440146
C128	C	1.446985	-0.547081	0.773479
C129	C	1.780318	-0.213747	1.106813
C130	C	1.216601	-0.453434	0.337067
C131	C	1.549934	-0.120101	0.670400
C132	C	1.883268	0.213232	1.003734
C133	C	1.216573	-0.406516	0.337058
C134	C	1.549906	-0.073183	0.670392
C135	C	1.883239	0.260150	1.003725
C136	C	1.113379	-0.406547	0.440086
C137	C	1.446712	-0.073214	0.773420
C138	C	1.780045	0.260120	1.106753
C139	C	1.113403	-0.453466	0.440090
C140	C	1.446737	-0.120132	0.773424
C141	C	1.780070	0.213201	1.106757
C142	C	1.165021	-0.476908	0.388584
C143	C	1.498354	-0.143575	0.721917
C144	C	1.831687	0.189758	1.055250
C145	C	1.113706	-0.978940	0.440147
C146	C	1.447039	-0.645606	0.773481
C147	C	1.780372	-0.312273	1.106814
C148	C	1.113732	-1.025859	0.440143
C149	C	1.447065	-0.692526	0.773476
C150	C	1.780399	-0.359193	1.106810
C151	C	1.216929	-1.025825	0.337119
C152	C	1.550262	-0.692491	0.670452
C153	C	1.883595	-0.359158	1.003785
C154	C	1.216900	-0.978909	0.337119
C155	C	1.550233	-0.645576	0.670453
C156	C	1.883566	-0.312243	1.003786
C157	C	1.165285	-0.955468	0.388640
C158	C	1.498619	-0.622135	0.721974
C159	C	1.831952	-0.288801	1.055307
O160	O	1.260692	-0.904672	0.293323
O161	O	1.594026	-0.571339	0.626657
O162	O	1.927359	-0.238006	0.959990
O163	O	1.069795	-0.904694	0.483965
O164	O	1.403128	-0.571361	0.817298
O165	O	1.736462	-0.238028	1.150631
C166	C	1.113551	-0.692750	0.440129
C167	C	1.446884	-0.359416	0.773463
C168	C	1.780218	-0.026083	1.106796
C169	C	1.165136	-0.669278	0.388619
C170	C	1.498469	-0.335945	0.721952
C171	C	1.831803	-0.002611	1.055285
C172	C	1.216745	-0.692722	0.337111
C173	C	1.550078	-0.359388	0.670444
C174	C	1.883411	-0.026055	1.003778
C175	C	1.165107	-0.622360	0.388610
C176	C	1.498441	-0.289027	0.721944
C177	C	1.831774	0.044307	1.055277
C178	C	1.113499	-0.598916	0.440118
C179	C	1.446832	-0.265583	0.773451
C180	C	1.780165	0.067750	1.106785
C181	C	1.061918	-0.622391	0.491634
C182	C	1.395252	-0.289057	0.824968
C183	C	1.728585	0.044276	1.158301
C184	C	1.061942	-0.669306	0.491637
C185	C	1.395276	-0.335973	0.824970
C186	C	1.728609	-0.002639	1.158304
C187	C	1.268325	-0.669247	0.285595
C188	C	1.601658	-0.335914	0.618928
C189	C	1.934992	-0.002581	0.952261
C190	C	1.268296	-0.622332	0.285595
C191	C	1.601630	-0.288999	0.618929
C192	C	1.934963	0.044335	0.952262
C193	C	1.216687	-0.598888	0.337103
C194	C	1.550021	-0.265555	0.670437
C195	C	1.883354	0.067778	1.003770
C196	C	1.375408	-0.216425	0.388613
C197	C	1.708742	0.116908	0.721947
C198	C	2.042075	0.450242	1.055280
C199	C	1.465029	-0.216429	0.388630
C200	C	1.798363	0.116905	0.721963
C201	C	2.131696	0.450238	1.055296
C202	C	1.165152	-0.216382	0.598884
C203	C	1.498485	0.116951	0.932217
C204	C	1.831819	0.450284	1.265550
C205	C	1.165174	-0.216368	0.688505
C206	C	1.498508	0.116965	1.021838
C207	C	1.831841	0.450299	1.355171
C208	C	1.165269	-0.099237	0.388617
C209	C	1.498602	0.234096	0.721950
C210	C	1.831935	0.567429	1.055284
C211	C	1.165341	-0.049303	0.388635
C212	C	1.498674	0.284030	0.721969
C213	C	1.832007	0.617364	1.055302
C214	C	1.165094	-0.216417	0.179084
C215	C	1.498427	0.116917	0.512417
C216	C	1.831760	0.450250	0.845750
C217	C	1.165228	-0.216304	0.089463
C218	C	1.498561	0.117029	0.422796
C219	C	1.831894	0.450362	0.756130
C220	C	1.165211	-0.216318	1.016681
C221	C	1.498545	0.117016	1.350014
C222	C	1.831878	0.450349	1.683347
C223	C	1.165199	-0.216333	0.925372
C224	C	1.498532	0.117000	1.258705
C225	C	1.831866	0.450333	1.592039
C226	C	1.165193	-0.216343	0.852596
C227	C	1.498527	0.116990	1.185929
C228	C	1.831860	0.450323	1.519262
C229	C	1.165180	-0.216358	0.761281
C230	C	1.498513	0.116975	1.094615
C231	C	1.831846	0.450309	1.427948
H232	H	1.071678	-0.959859	0.482101
H233	H	1.405011	-0.626526	0.815435
H234	H	1.738344	-0.293192	1.148768
O235	O	1.272269	-0.478717	0.281503
O236	O	1.605603	-0.145384	0.614836
O237	O	1.938936	0.187949	0.948169
H238	H	1.308120	-0.454507	0.245677
H239	H	1.641453	-0.121174	0.579010
H240	H	1.974786	0.212159	0.912344
O241	O	1.324044	-0.737773	0.230052
O242	O	1.657378	-0.404440	0.563385
O243	O	1.990711	-0.071107	0.896719
H244	H	1.359939	-0.761965	0.194252
H245	H	1.693273	-0.428632	0.527586
H246	H	2.026606	-0.095298	0.860919
O247	O	1.323989	-0.694532	0.230037
O248	O	1.657322	-0.361199	0.563370
O249	O	1.990655	-0.027866	0.896704
H250	H	1.310184	-0.685554	0.166742
H251	H	1.643517	-0.352221	0.500075
H252	H	1.976850	-0.018887	0.833409
O253	O	1.324085	-0.835290	0.230059
O254	O	1.657418	-0.501957	0.563392
O255	O	1.990752	-0.168623	0.896726
H256	H	1.359944	-0.811083	0.194236
H257	H	1.693278	-0.477750	0.527569
H258	H	2.026611	-0.144416	0.860903
H259	H	1.071720	-1.044968	0.482094
H260	H	1.405053	-0.711635	0.815427
H261	H	1.738386	-0.378301	1.148761
O262	O	1.006380	-0.835366	0.547215
O263	O	1.339713	-0.502033	0.880548
O264	O	1.673046	-0.168700	1.213881
H265	H	0.970500	-0.811176	0.583032
H266	H	1.303833	-0.477843	0.916365
H267	H	1.637167	-0.144509	1.249699
O268	O	1.057716	-0.381251	0.495637
O269	O	1.391049	-0.047918	0.828971
O270	O	1.724382	0.285416	1.162304
H271	H	0.994444	-0.390291	0.481744
H272	H	1.327777	-0.056958	0.815078
H273	H	1.661111	0.276376	1.148411
H274	H	1.019893	-0.603295	0.533571
H275	H	1.353226	-0.269962	0.866905
H276	H	1.686560	0.063372	1.200238
H277	H	1.258944	-1.044921	0.295179
H278	H	1.592278	-0.711588	0.628513
H279	H	1.925611	-0.378254	0.961846
O280	O	1.006307	-0.737855	0.547187
O281	O	1.339641	-0.404521	0.880520
O282	O	1.672974	-0.071188	1.213853
H283	H	0.970440	-0.762066	0.582993
H284	H	1.303773	-0.428732	0.916326
H285	H	1.637107	-0.095399	1.249659
H286	H	1.258900	-0.959798	0.295164
H287	H	1.592234	-0.626465	0.628497
H288	H	1.925567	-0.293131	0.961831
O289	O	1.272212	-0.381202	0.281495
O290	O	1.605545	-0.047868	0.614828
O291	O	1.938879	0.285465	0.948161
H292	H	1.308107	-0.405391	0.245689
H293	H	1.641441	-0.072057	0.579023
H294	H	1.974774	0.261276	0.912356
O295	O	1.006305	-0.694620	0.547204
O296	O	1.339638	-0.361287	0.880538
O297	O	1.672972	-0.027953	1.213871
H298	H	0.970424	-0.670429	0.583020
H299	H	1.303758	-0.337096	0.916354
H300	H	1.637091	-0.003763	1.249687
H301	H	1.310305	-0.603224	0.243639
H302	H	1.643638	-0.269891	0.576973
H303	H	1.976971	0.063442	0.910306
O304	O	1.057768	-0.478781	0.495657
O305	O	1.391102	-0.145448	0.828990
O306	O	1.724435	0.187885	1.162324
H307	H	1.021883	-0.454592	0.531472
H308	H	1.355216	-0.121259	0.864806
H309	H	1.688550	0.212074	1.198139
