data_functionalizedCrystal
_audit_creation_method	'MofGen! by Chris Wilmer'
_symmetry_space_group_name_H-M	'P1'
_symmetry_Int_Tables_number	1
_symmetry_cell_setting	triclinic
loop_
_symmetry_equiv_pos_as_xyz
  x,y,z
_cell_length_a	23.532407
_cell_length_b	17.699083
_cell_length_c	16.776229
_cell_angle_alpha	90.001114
_cell_angle_beta	89.988688
_cell_angle_gamma	96.934153
loop_
_atom_site_label
_atom_site_type_symbol
_atom_site_fract_x
_atom_site_fract_y
_atom_site_fract_z
O1	O	0.072020	-1.003713	-0.066185
O2	O	0.405353	-0.670380	0.267149
O3	O	0.738687	-0.337046	0.600482
O4	O	0.081390	-0.783287	-0.066212
O5	O	0.414723	-0.449954	0.267121
O6	O	0.748056	-0.116620	0.600455
O7	O	-0.006208	-0.900147	-0.066183
O8	O	0.327126	-0.566814	0.267150
O9	O	0.660459	-0.233480	0.600484
O10	O	0.159617	-0.886853	-0.066214
O11	O	0.492951	-0.553520	0.267120
O12	O	0.826284	-0.220186	0.600453
O13	O	-0.006213	-0.900132	0.066394
O14	O	0.327120	-0.566798	0.399727
O15	O	0.660454	-0.233465	0.733060
O16	O	0.081384	-0.783272	0.066365
O17	O	0.414718	-0.449938	0.399698
O18	O	0.748051	-0.116605	0.733031
O19	O	0.072015	-1.003698	0.066392
O20	O	0.405348	-0.670364	0.399725
O21	O	0.738681	-0.337031	0.733058
Zn22	Zn	0.076699	-0.893482	0.087428
Zn23	Zn	0.410032	-0.560149	0.420761
Zn24	Zn	0.743365	-0.226816	0.754094
Zn25	Zn	0.076706	-0.893503	-0.087248
Zn26	Zn	0.410039	-0.560169	0.246086
Zn27	Zn	0.743372	-0.226836	0.579419
O28	O	0.159612	-0.886838	0.066363
O29	O	0.492945	-0.553504	0.399696
O30	O	0.826279	-0.220171	0.733029
C31	C	0.081051	-0.755084	0.000073
C32	C	0.414385	-0.421751	0.333406
C33	C	0.747718	-0.088417	0.666740
C34	C	0.080044	-0.671071	0.000063
C35	C	0.413377	-0.337738	0.333397
C36	C	0.746711	-0.004404	0.666730
C37	C	-0.027427	-0.899801	0.000107
C38	C	0.305906	-0.566467	0.333441
C39	C	0.639239	-0.233134	0.666774
C40	C	-0.090647	-0.898783	0.000113
C41	C	0.242686	-0.565450	0.333447
C42	C	0.576019	-0.232116	0.666780
N43	N	0.076693	-0.893474	0.206639
N44	N	0.410027	-0.560141	0.539972
N45	N	0.743360	-0.226807	0.873306
C46	C	-0.489570	-0.961554	0.000077
C47	C	-0.156237	-0.628221	0.333411
C48	C	0.177097	-0.294888	0.666744
C49	C	-0.548973	-0.960609	0.000071
C50	C	-0.215640	-0.627276	0.333405
C51	C	0.117694	-0.293942	0.666738
O52	O	-0.585550	-1.018799	0.000049
O53	O	-0.252217	-0.685465	0.333382
O54	O	0.081116	-0.352132	0.666716
N55	N	-0.571799	-0.891136	0.000063
N56	N	-0.238466	-0.557802	0.333397
N57	N	0.094868	-0.224469	0.666730
C58	C	-0.535218	-0.822604	0.000053
C59	C	-0.201885	-0.489270	0.333387
C60	C	0.131449	-0.155937	0.666720
O61	O	-0.560088	-0.763424	0.000045
O62	O	-0.226755	-0.430091	0.333379
O63	O	0.106579	-0.096758	0.666712
C64	C	-0.475816	-0.823550	0.000054
C65	C	-0.142483	-0.490217	0.333387
C66	C	0.190850	-0.156883	0.666720
C67	C	-0.452994	-0.893028	0.000070
C68	C	-0.119661	-0.559694	0.333403
C69	C	0.213673	-0.226361	0.666737
C70	C	-0.466747	-1.031026	0.000093
C71	C	-0.133414	-0.697693	0.333426
C72	C	0.199919	-0.364360	0.666759
C73	C	-0.407348	-1.031972	0.000100
C74	C	-0.074015	-0.698638	0.333434
C75	C	0.259318	-0.365305	0.666767
C76	C	-0.370772	-0.963445	0.000093
C77	C	-0.037439	-0.630111	0.333426
C78	C	0.295894	-0.296778	0.666759
C79	C	-0.393595	-0.893973	0.000078
C80	C	-0.060262	-0.560639	0.333411
C81	C	0.273071	-0.227306	0.666744
C82	C	-0.439237	-0.755019	0.000038
C83	C	-0.105903	-0.421685	0.333372
C84	C	0.227430	-0.088352	0.666705
C85	C	-0.379832	-0.755971	0.000038
C86	C	-0.046498	-0.422638	0.333371
C87	C	0.286835	-0.089304	0.666705
C88	C	-0.357009	-0.825448	0.000054
C89	C	-0.023676	-0.492115	0.333387
C90	C	0.309657	-0.158782	0.666721
C91	C	-0.297620	-0.826391	0.000078
C92	C	0.035713	-0.493058	0.333411
C93	C	0.369046	-0.159724	0.666744
N94	N	-0.274795	-0.895864	0.000086
N95	N	0.058539	-0.562531	0.333419
N96	N	0.391872	-0.229198	0.666752
C97	C	-0.311371	-0.964391	0.000093
C98	C	0.021963	-0.631058	0.333427
C99	C	0.355296	-0.297724	0.666760
C100	C	-0.659966	-0.820622	0.000051
C101	C	-0.326633	-0.487288	0.333384
C102	C	0.006700	-0.153955	0.666718
C103	C	-0.719367	-0.819674	0.000056
C104	C	-0.386034	-0.486341	0.333390
C105	C	-0.052700	-0.153008	0.666723
C106	C	-0.733118	-0.957680	0.000073
C107	C	-0.399785	-0.624347	0.333406
C108	C	-0.066451	-0.291013	0.666739
C109	C	-0.673716	-0.958626	0.000073
C110	C	-0.340383	-0.625293	0.333406
C111	C	-0.007049	-0.291960	0.666740
C112	C	-0.637141	-0.890095	0.000059
C113	C	-0.303807	-0.556761	0.333392
C114	C	0.029526	-0.223428	0.666726
C115	C	-0.186628	-0.966371	0.000110
C116	C	0.146705	-0.633037	0.333443
C117	C	0.480038	-0.299704	0.666777
C118	C	-0.127223	-0.967310	0.000121
C119	C	0.206110	-0.633977	0.333454
C120	C	0.539443	-0.300643	0.666788
C121	C	-0.113478	-0.829305	0.000100
C122	C	0.219856	-0.495971	0.333434
C123	C	0.553189	-0.162638	0.666767
C124	C	-0.172877	-0.828365	0.000094
C125	C	0.160456	-0.495032	0.333427
C126	C	0.493789	-0.161698	0.666760
C127	C	-0.209452	-0.896904	0.000096
C128	C	0.123882	-0.563571	0.333429
C129	C	0.457215	-0.230238	0.666762
O130	O	-0.261008	-0.768232	0.000097
O131	O	0.072325	-0.434898	0.333430
O132	O	0.405658	-0.101565	0.666763
O133	O	-0.286493	-1.023560	0.000091
O134	O	0.046841	-0.690227	0.333424
O135	O	0.380174	-0.356894	0.666758
C136	C	0.180832	-0.887184	0.000071
C137	C	0.514165	-0.553851	0.333404
C138	C	0.847498	-0.220517	0.666737
C139	C	0.244052	-0.888202	0.000060
C140	C	0.577385	-0.554868	0.333393
C141	C	0.910718	-0.221535	0.666726
C142	C	0.072353	-1.031901	0.000105
C143	C	0.405686	-0.698567	0.333438
C144	C	0.739020	-0.365234	0.666772
C145	C	0.073360	-1.115914	0.000110
C146	C	0.406693	-0.782580	0.333443
C147	C	0.740027	-0.449247	0.666776
C148	C	0.131462	-0.622189	0.000054
C149	C	0.464795	-0.288856	0.333387
C150	C	0.798129	0.044477	0.666721
C151	C	0.130512	-0.543251	0.000065
C152	C	0.463846	-0.209917	0.333398
C153	C	0.797179	0.123416	0.666731
C154	C	0.078144	-0.513196	0.000079
C155	C	0.411477	-0.179862	0.333412
C156	C	0.744811	0.153471	0.666745
C157	C	0.026722	-0.562084	0.000090
C158	C	0.360055	-0.228750	0.333424
C159	C	0.693389	0.104583	0.666757
C160	C	0.027672	-0.641021	0.000086
C161	C	0.361006	-0.307687	0.333419
C162	C	0.694339	0.025646	0.666752
C163	C	0.022888	-0.243740	0.000111
C164	C	0.356221	0.089593	0.333444
C165	C	0.689555	0.422926	0.666777
C166	C	0.021942	-0.164797	0.000113
C167	C	0.355275	0.168536	0.333447
C168	C	0.688608	0.501870	0.666780
C169	C	0.125728	-0.145970	0.000090
C170	C	0.459061	0.187363	0.333423
C171	C	0.792395	0.520696	0.666756
C172	C	0.126678	-0.224907	0.000085
C173	C	0.460012	0.108426	0.333418
C174	C	0.793345	0.441759	0.666752
C175	C	0.075257	-0.273788	0.000101
C176	C	0.408590	0.059545	0.333434
C177	C	0.741923	0.392878	0.666768
C178	C	0.076287	-0.359382	0.000091
C179	C	0.409621	-0.026049	0.333424
C180	C	0.742954	0.307284	0.666758
C181	C	0.077113	-0.427603	0.000083
C182	C	0.410446	-0.094270	0.333416
C183	C	0.743779	0.239063	0.666750
N184	N	0.076706	-0.893517	-0.206459
N185	N	0.410040	-0.560184	0.126874
N186	N	0.743373	-0.226850	0.460208
C187	C	0.037921	-0.945235	0.248369
C188	C	0.371254	-0.611902	0.581702
C189	C	0.704588	-0.278568	0.915035
C190	C	0.037921	-0.945239	0.331821
C191	C	0.371254	-0.611906	0.665154
C192	C	0.704587	-0.278573	0.998488
C193	C	0.076696	-0.893485	0.373542
C194	C	0.410029	-0.560152	0.706875
C195	C	0.743362	-0.226819	1.040208
C196	C	0.115470	-0.841719	0.331806
C197	C	0.448803	-0.508385	0.665139
C198	C	0.782136	-0.175052	0.998473
C199	C	0.115467	-0.841712	0.248355
C200	C	0.448800	-0.508378	0.581689
C201	C	0.782134	-0.175045	0.915022
C202	C	0.115481	-0.841746	0.668353
C203	C	0.448814	-0.508413	1.001686
C204	C	0.782148	-0.175079	1.335020
C205	C	0.115482	-0.841759	0.751810
C206	C	0.448815	-0.508425	1.085143
C207	C	0.782149	-0.175092	1.418476
C208	C	0.037935	-0.945274	0.751819
C209	C	0.371268	-0.611940	1.085152
C210	C	0.704601	-0.278607	1.418486
C211	C	0.037932	-0.945267	0.668368
C212	C	0.371265	-0.611933	1.001701
C213	C	0.704598	-0.278600	1.335035
C214	C	0.076704	-0.893498	0.626640
C215	C	0.410037	-0.560164	0.959973
C216	C	0.743370	-0.226831	1.293306
C217	C	0.076703	-0.893493	0.536151
C218	C	0.410036	-0.560159	0.869485
C219	C	0.743370	-0.226826	1.202818
C220	C	0.076699	-0.893493	0.464029
C221	C	0.410033	-0.560160	0.797362
C222	C	0.743366	-0.226827	1.130695
H223	H	-0.108645	-1.023889	0.000136
H224	H	0.224688	-0.690556	0.333469
H225	H	0.558021	-0.357223	0.666803
Br226	Br	-0.049135	-0.124009	0.000130
Br227	Br	0.284199	0.209325	0.333463
Br228	Br	0.617532	0.542658	0.666797
H229	H	-0.015917	-0.537607	0.000113
H230	H	0.317416	-0.204274	0.333447
H231	H	0.650749	0.129060	0.666780
H232	H	-0.083687	-0.773512	0.000097
H233	H	0.249646	-0.440179	0.333430
H234	H	0.582980	-0.106845	0.666764
Br235	Br	-0.014702	-1.015485	0.388457
Br236	Br	0.318632	-0.682151	0.721791
Br237	Br	0.651965	-0.348818	1.055124
Br238	Br	-0.046898	-0.310069	0.000134
Br239	Br	0.286435	0.023264	0.333468
Br240	Br	0.619768	0.356597	0.666801
H241	H	0.006360	-0.987412	0.634402
H242	H	0.339693	-0.654078	0.967735
H243	H	0.673026	-0.320745	1.301068
H244	H	0.006362	-0.987425	0.785803
H245	H	0.339696	-0.654091	1.119136
H246	H	0.673029	-0.320758	1.452470
Br247	Br	-0.014701	-1.015482	0.191756
Br248	Br	0.318632	-0.682149	0.525090
Br249	Br	0.651965	-0.348816	0.858423
Br250	Br	-0.782768	-1.050682	0.000080
Br251	Br	-0.449435	-0.717349	0.333413
Br252	Br	-0.116102	-0.384015	0.666746
Br253	Br	-0.042112	-0.707362	0.000105
Br254	Br	0.291222	-0.374029	0.333439
Br255	Br	0.624555	-0.040695	0.666772
Br256	Br	0.202537	-0.662970	0.000027
Br257	Br	0.535871	-0.329637	0.333360
Br258	Br	0.869204	0.003697	0.666693
Br259	Br	-0.610333	-0.727605	0.000039
Br260	Br	-0.277000	-0.394272	0.333372
Br261	Br	0.056333	-0.060938	0.666705
H262	H	0.172382	-0.503454	0.000056
H263	H	0.505715	-0.170120	0.333389
H264	H	0.839049	0.163213	0.666723
Br265	Br	-0.750332	-0.725380	0.000053
Br266	Br	-0.416999	-0.392046	0.333387
Br267	Br	-0.083666	-0.058713	0.666720
H268	H	0.147039	-0.799561	0.214380
H269	H	0.480372	-0.466228	0.547713
H270	H	0.813705	-0.132895	0.881046
H271	H	0.147058	-0.799612	0.785777
H272	H	0.480392	-0.466278	1.119111
H273	H	0.813725	-0.132945	1.452444
Br274	Br	0.168099	-0.771492	0.611726
Br275	Br	0.501433	-0.438159	0.945059
Br276	Br	0.834766	-0.104825	1.278393
H277	H	0.147039	-0.799576	0.365780
H278	H	0.480373	-0.466243	0.699113
H279	H	0.813706	-0.132909	1.032446
H280	H	0.167598	-0.106161	0.000081
H281	H	0.500931	0.227172	0.333414
H282	H	0.834264	0.560505	0.666748
Br283	Br	-0.236256	-1.059389	0.000112
Br284	Br	0.097078	-0.726056	0.333445
Br285	Br	0.430411	-0.392722	0.666779
Br286	Br	-0.376385	-1.126268	0.000100
Br287	Br	-0.043052	-0.792934	0.333433
Br288	Br	0.290282	-0.459601	0.666766
H289	H	0.169322	-0.249373	0.000070
H290	H	0.502655	0.083960	0.333403
H291	H	0.835989	0.417293	0.666737
H292	H	-0.655139	-1.015201	0.000086
H293	H	-0.321805	-0.681868	0.333419
H294	H	0.011528	-0.348535	0.666752
Br295	Br	-0.516376	-1.124040	0.000102
Br296	Br	-0.183043	-0.790707	0.333436
Br297	Br	0.150290	-0.457374	0.666769
H298	H	-0.350054	-0.700163	0.000025
H299	H	-0.016721	-0.366829	0.333359
H300	H	0.316613	-0.033496	0.666692
Br301	Br	-0.470194	-0.660721	0.000013
Br302	Br	-0.136861	-0.327388	0.333347
Br303	Br	0.196473	0.005945	0.666680
H304	H	-0.191460	-0.771791	0.000103
H305	H	0.141873	-0.438457	0.333436
H306	H	0.475207	-0.105124	0.666769
