data_functionalizedCrystal
_audit_creation_method	'MofGen! by Chris Wilmer'
_symmetry_space_group_name_H-M	'P1'
_symmetry_Int_Tables_number	1
_symmetry_cell_setting	triclinic
loop_
_symmetry_equiv_pos_as_xyz
  x,y,z
_cell_length_a	17.019282
_cell_length_b	17.038272
_cell_length_c	16.098538
_cell_angle_alpha	87.079695
_cell_angle_beta	91.140572
_cell_angle_gamma	92.758613
loop_
_atom_site_label
_atom_site_type_symbol
_atom_site_fract_x
_atom_site_fract_y
_atom_site_fract_z
O1	O	1.053062	-0.099864	0.006294
O2	O	0.825028	-0.111750	-0.010068
O3	O	0.937689	0.008012	-0.001978
O4	O	0.940401	-0.219626	-0.001797
O5	O	0.931106	0.001043	0.136062
O6	O	0.818445	-0.118718	0.127972
O7	O	1.046479	-0.106832	0.144334
Zn8	Zn	0.931417	-0.113882	0.158070
Zn9	Zn	0.940090	-0.104700	-0.023804
O10	O	0.933818	-0.226594	0.136243
C11	C	0.792416	-0.114648	0.056848
C12	C	0.705047	-0.112892	0.050579
C13	C	0.660417	-0.115863	0.122882
C14	C	0.578326	-0.114200	0.116994
C15	C	0.540866	-0.109572	0.038803
C16	C	0.585502	-0.106598	-0.033505
C17	C	0.667592	-0.108255	-0.027616
C18	C	0.293186	-0.104373	0.017259
C19	C	0.211090	-0.102719	0.011376
C20	C	0.203920	-0.110320	0.161876
C21	C	0.286012	-0.111981	0.167758
C22	C	0.330641	-0.109003	0.095450
C23	C	0.456955	-0.107875	0.032783
C24	C	0.414550	-0.110695	0.101470
C25	C	0.931933	0.033663	0.066865
C26	C	0.924577	0.120475	0.066337
C27	C	1.079091	-0.103934	0.077416
C28	C	1.166460	-0.105690	0.083679
C29	C	0.939574	-0.252245	0.067399
C30	C	0.946930	-0.339057	0.067921
N31	N	0.925503	-0.120147	0.282194
C32	C	0.992107	0.170407	0.071183
C33	C	0.985191	0.251976	0.070679
C34	C	0.910746	0.283613	0.065335
C35	C	0.843212	0.233676	0.060486
C36	C	0.850128	0.152108	0.060984
C37	C	0.886312	0.529438	0.063570
C38	C	0.879401	0.611012	0.063075
C39	C	1.021381	0.629307	0.073267
C40	C	1.028291	0.547736	0.073770
C41	C	0.960757	0.497806	0.068916
C42	C	0.903675	0.366990	0.064822
C43	C	0.967828	0.414431	0.069423
N44	N	0.946010	-0.098429	-0.147928
C45	C	0.973341	-0.069333	0.329215
C46	C	0.969212	-0.073724	0.416107
C47	C	0.917249	-0.128932	0.455978
C48	C	0.869406	-0.179748	0.408951
C49	C	0.873531	-0.175353	0.322060
C50	C	0.902292	-0.144850	0.718154
C51	C	0.898172	-0.149242	0.805051
C52	C	0.997978	-0.043217	0.812201
C53	C	1.002102	-0.038830	0.725308
C54	C	0.954256	-0.089643	0.678289
C55	C	0.913029	-0.133423	0.544796
C56	C	0.958472	-0.085148	0.589472
H57	H	0.690911	-0.119639	0.186554
H58	H	0.541993	-0.116607	0.175871
H59	H	0.843061	0.392758	0.060472
H60	H	0.827092	-0.224697	0.441418
H61	H	0.426446	-0.104106	-0.030880
C62	C	1.167938	0.574017	0.083793
C63	C	1.110124	0.512964	0.079646
H64	H	1.218458	0.552548	0.087420
H65	H	1.159989	0.603025	0.131519
H66	H	1.164583	0.607877	0.035243
H67	H	1.113475	0.479107	0.128198
H68	H	1.118076	0.483944	0.031915
C69	C	1.131752	0.196693	0.081193
C70	C	1.073941	0.135636	0.077052
H71	H	1.182274	0.175227	0.084808
H72	H	1.123810	0.225697	0.128923
H73	H	1.128387	0.230555	0.032646
H74	H	1.077303	0.101777	0.125602
H75	H	1.081886	0.106619	0.029317
C76	C	1.063176	0.357885	0.005062
C77	C	1.059425	0.306857	0.076004
H78	H	1.109011	0.391761	0.008347
H79	H	1.017859	0.388401	0.001813
H80	H	1.065215	0.328098	-0.043084
H81	H	1.057380	0.336644	0.124150
H82	H	1.104755	0.276337	0.079262
H83	H	1.015658	-0.024380	0.296758
H84	H	1.008165	-0.032347	0.454391
C85	C	0.462848	-0.100691	-0.109357
C86	C	0.544327	-0.101512	-0.119455
H87	H	0.437431	-0.097557	-0.162421
H88	H	0.450874	-0.056425	-0.079196
H89	H	0.444980	-0.147541	-0.079616
H90	H	0.562196	-0.054659	-0.149191
H91	H	0.556306	-0.145781	-0.149629
H92	H	0.870720	-0.178376	0.577266
C93	C	1.073825	0.762469	0.077020
C94	C	1.095612	0.684192	0.078590
H95	H	1.119656	0.796351	0.080299
H96	H	1.041237	0.769649	0.122983
H97	H	1.045817	0.774494	0.026706
H98	H	1.123615	0.672164	0.128907
H99	H	1.128213	0.677008	0.032623
H100	H	1.044415	0.006125	0.692848
C101	C	1.129722	0.000949	0.848472
C102	C	1.050559	0.012644	0.863884
H103	H	1.162182	0.035438	0.880382
H104	H	1.139608	0.011465	0.791023
H105	H	1.141066	-0.051986	0.863572
H106	H	1.039214	0.065579	0.848777
H107	H	1.040669	0.002134	0.921346
H108	H	0.818775	0.636766	0.058736
H109	H	0.831321	0.488794	0.059618
H110	H	0.855855	-0.194203	0.837510
H111	H	0.782597	0.259441	0.056129
H112	H	0.863335	-0.186226	0.679877
C113	C	0.709093	0.142211	0.050866
C114	C	0.775898	0.097220	0.055659
H115	H	0.663266	0.108324	0.047580
H116	H	0.711645	0.176832	0.002750
H117	H	0.707056	0.171980	0.099026
H118	H	0.777938	0.067455	0.007496
H119	H	0.773345	0.062585	0.103780
H120	H	0.316506	-0.115747	0.231429
C121	C	0.074899	-0.111146	0.219678
C122	C	0.154863	-0.113582	0.241353
H123	H	0.044616	-0.113153	0.268748
H124	H	0.059971	-0.154871	0.187591
H125	H	0.065879	-0.063755	0.188006
H126	H	0.163884	-0.160976	0.273020
H127	H	0.169796	-0.069854	0.273454
H128	H	1.028442	0.388670	0.073756
C129	C	0.666438	-0.100591	-0.176969
C130	C	0.716651	-0.104997	-0.107094
H131	H	0.696726	-0.098583	-0.226035
H132	H	0.637224	-0.054547	-0.175924
H133	H	0.631316	-0.145662	-0.176342
H134	H	0.751769	-0.059922	-0.107718
H135	H	0.745878	-0.151046	-0.108139
H136	H	0.834575	-0.216730	0.283776
C137	C	1.056714	0.019214	0.605266
C138	C	1.015590	-0.024463	0.545650
H139	H	1.091973	0.056680	0.578204
H140	H	1.085555	-0.015136	0.641326
H141	H	1.020501	0.045731	0.636690
H142	H	1.051803	-0.050984	0.514229
H143	H	0.986747	0.009892	0.509576
C144	C	0.292016	-0.096696	-0.132092
C145	C	0.342235	-0.101103	-0.062221
H146	H	0.322300	-0.094681	-0.181161
H147	H	0.262798	-0.050655	-0.131040
H148	H	0.256898	-0.141770	-0.131466
H149	H	0.377349	-0.056025	-0.062844
H150	H	0.371466	-0.147149	-0.063274
H151	H	0.445054	-0.114460	0.165133
H152	H	0.180592	-0.098952	-0.052300
