data_functionalizedCrystal
_audit_creation_method	'MofGen! by Chris Wilmer'
_symmetry_space_group_name_H-M	'P1'
_symmetry_Int_Tables_number	1
_symmetry_cell_setting	triclinic
loop_
_symmetry_equiv_pos_as_xyz
  x,y,z
_cell_length_a	12.827893
_cell_length_b	19.121627
_cell_length_c	12.827885
_cell_angle_alpha	87.594616
_cell_angle_beta	89.980728
_cell_angle_gamma	92.401555
loop_
_atom_site_label
_atom_site_type_symbol
_atom_site_fract_x
_atom_site_fract_y
_atom_site_fract_z
Zn1	Zn	1.615250	0.279554	-0.608560
Zn2	Zn	2.115250	0.779554	-0.108560
Zn3	Zn	1.622530	0.397012	-0.441262
Zn4	Zn	2.122530	0.897012	0.058738
Zn5	Zn	1.440493	0.279589	-0.433836
Zn6	Zn	1.940493	0.779589	0.066164
Zn7	Zn	1.447860	0.396960	-0.615959
Zn8	Zn	1.947860	0.896960	-0.115959
O9	O	1.531533	0.338279	-0.524904
O10	O	2.031533	0.838279	-0.024904
O11	O	1.762452	0.295142	-0.586379
O12	O	2.262452	0.795142	-0.086379
O13	O	1.598347	0.381472	-0.294043
O14	O	2.098347	0.881472	0.205957
O15	O	1.457545	0.181308	-0.450809
O16	O	1.957545	0.681308	0.049191
O17	O	1.767801	0.381438	-0.463466
O18	O	2.267801	0.881438	0.036534
O19	O	1.585938	0.181282	-0.579178
O20	O	2.085938	0.681282	-0.079178
O21	O	1.464605	0.295201	-0.288587
O22	O	1.964605	0.795201	0.211413
O23	O	1.295234	0.295151	-0.457983
O24	O	1.795234	0.795151	0.042017
O25	O	1.470100	0.381350	-0.761211
O26	O	1.970100	0.881350	-0.261211
O27	O	1.300646	0.381383	-0.591788
O28	O	1.800646	0.881383	-0.091788
O29	O	1.593081	0.295092	-0.755775
O30	O	2.093081	0.795092	-0.255775
O31	O	1.605490	0.495282	-0.470640
O32	O	2.105490	0.995282	0.029360
O33	O	1.477160	0.495243	-0.598989
O34	O	1.977160	0.995243	-0.098989
C35	C	1.260023	0.338266	-0.524883
C36	C	1.760023	0.838266	-0.024883
C37	C	1.143870	0.338277	-0.524900
C38	C	1.643870	0.838277	-0.024900
C39	C	0.974685	0.380924	-0.464010
C40	C	1.474685	0.880924	0.035990
C41	C	1.094734	0.380913	-0.463991
C42	C	1.594734	0.880913	0.036009
C43	C	1.542943	0.520744	-0.536446
C44	C	2.042943	1.020744	-0.036446
C45	C	1.547919	0.598804	-0.541419
C46	C	2.047919	1.098804	-0.041419
C47	C	1.579499	1.040290	-0.572919
C48	C	2.079499	1.540290	-0.072919
C49	C	1.574812	0.966945	-0.568237
C50	C	2.074812	1.466945	-0.068237
C51	C	1.505674	0.930351	-0.499017
C52	C	2.005674	1.430351	0.000983
C53	C	1.441227	0.967107	-0.434467
C54	C	1.941227	1.467107	0.065533
C55	C	1.445921	1.040451	-0.439144
C56	C	1.945921	1.540451	0.060856
C57	C	1.488166	0.708904	-0.481545
C58	C	1.988166	1.208904	0.018455
C59	C	1.483475	0.635555	-0.476875
C60	C	1.983475	1.135555	0.023125
C61	C	1.617062	0.635397	-0.610645
C62	C	2.117062	1.135397	-0.110645
C63	C	1.621744	0.708743	-0.615320
C64	C	2.121744	1.208743	-0.115320
C65	C	1.557302	0.745492	-0.550766
C66	C	2.057302	1.245492	-0.050766
C67	C	1.500879	0.855381	-0.494233
C68	C	2.000879	1.355381	0.005767
C69	C	1.562103	0.820461	-0.555546
C70	C	2.062103	1.320461	-0.055546
C71	C	1.804104	0.338292	-0.524926
C72	C	2.304104	0.838292	-0.024926
C73	C	1.920258	0.338298	-0.524935
C74	C	2.420258	0.838298	-0.024935
C75	C	1.531600	0.338211	-0.797470
C76	C	2.031600	0.838211	-0.297470
C77	C	1.531629	0.338183	-0.913622
C78	C	2.031629	0.838183	-0.413622
C79	C	1.520062	1.155100	-0.513331
C80	C	2.020062	1.655100	-0.013331
C81	C	1.515055	1.077041	-0.508376
C82	C	2.015055	1.577041	-0.008376
C83	C	1.592490	0.295491	-0.962716
C84	C	2.092490	0.795491	-0.462716
C85	C	1.592521	0.295461	-1.082765
C86	C	2.092521	0.795461	-0.582765
C87	C	1.531524	0.338295	-0.253395
C88	C	2.031524	0.838295	0.246605
C89	C	1.531685	0.338126	-0.137232
C90	C	2.031685	0.838126	0.362768
H91	H	1.097081	0.301784	-0.577067
H92	H	1.597081	0.801784	-0.077067
Br93	Br	1.172724	0.441748	-0.377057
Br94	Br	1.672724	0.941748	0.122943
Br95	Br	1.662277	0.917071	-0.655835
Br96	Br	2.162277	1.417071	-0.155835
H97	H	0.962537	0.301793	-0.577076
H98	H	1.462537	0.801793	-0.077076
H99	H	1.644569	0.258962	-0.915872
H100	H	2.144569	0.758962	-0.415872
Br101	Br	1.400703	0.758769	-0.393940
Br102	Br	1.900703	1.258769	0.106060
H103	H	1.635788	1.070079	-0.629296
H104	H	2.135788	1.570079	-0.129296
H105	H	1.384938	0.937309	-0.378101
H106	H	1.884938	1.437309	0.121899
H107	H	1.678056	0.738532	-0.671675
H108	H	2.178056	1.238532	-0.171675
H109	H	1.479581	0.374680	-1.095009
H110	H	1.979581	0.874680	-0.595009
H111	H	1.479539	0.374705	-0.960465
H112	H	1.979539	0.874705	-0.460465
Br113	Br	1.358465	1.090329	-0.351538
Br114	Br	1.858465	1.590329	0.148462
H115	H	0.932405	0.417423	-0.411859
H116	H	1.432405	0.917423	0.088141
Br117	Br	1.704514	0.585519	-0.698250
Br118	Br	2.204514	1.085519	-0.198250
Br119	Br	1.389647	0.585893	-0.382919
Br120	Br	1.889647	1.085893	0.117081
H121	H	1.444583	0.825581	-0.437874
H122	H	1.944583	1.325581	0.062126
Br123	Br	1.679382	0.234544	-1.153144
Br124	Br	2.179382	0.734544	-0.653144
H125	H	1.618398	0.850259	-0.611901
H126	H	2.118398	1.350259	-0.111901
