data_functionalizedCrystal
_audit_creation_method	'MofGen! by Chris Wilmer'
_symmetry_space_group_name_H-M	'P1'
_symmetry_Int_Tables_number	1
_symmetry_cell_setting	triclinic
loop_
_symmetry_equiv_pos_as_xyz
  x,y,z
_cell_length_a	10.723024
_cell_length_b	12.996460
_cell_length_c	10.723024
_cell_angle_alpha	89.995038
_cell_angle_beta	95.532131
_cell_angle_gamma	90.005265
loop_
_atom_site_label
_atom_site_type_symbol
_atom_site_fract_x
_atom_site_fract_y
_atom_site_fract_z
O1	O	1.657190	0.085557	-0.175030
O2	O	2.157190	0.585557	0.324970
O3	O	1.294038	0.085561	-0.191783
O4	O	1.794038	0.585561	0.308217
O5	O	1.483991	0.085555	-0.001830
O6	O	1.983991	0.585555	0.498170
O7	O	1.467237	0.085563	-0.364982
O8	O	1.967237	0.585563	0.135018
O9	O	1.483971	-0.085579	-0.001819
O10	O	1.983971	0.414421	0.498181
O11	O	1.294018	-0.085573	-0.191772
O12	O	1.794018	0.414427	0.308228
O13	O	1.657170	-0.085576	-0.175019
O14	O	2.157170	0.414424	0.324981
Cu15	Cu	1.475592	-0.101201	-0.183395
Cu16	Cu	1.975592	0.398799	0.316605
Cu17	Cu	1.475616	0.101185	-0.183407
Cu18	Cu	1.975616	0.601185	0.316593
O19	O	1.467217	-0.085571	-0.364972
O20	O	1.967217	0.414429	0.135028
C21	C	1.247528	-0.000006	-0.190558
C22	C	1.747528	0.499994	0.309442
C23	C	1.108974	-0.000005	-0.186911
C24	C	1.608974	0.499995	0.313089
C25	C	1.033991	-0.000002	-0.293198
C26	C	1.533991	0.499998	0.206802
C27	C	0.890788	-0.000000	-0.289431
C28	C	1.390788	0.500000	0.210569
N29	N	1.475585	-0.243548	-0.183385
N30	N	1.975585	0.256452	0.316615
C31	C	1.475614	-0.663362	-0.183408
C32	C	1.975614	-0.163362	0.316592
C33	C	1.475602	-0.546557	-0.183406
C34	C	1.975602	-0.046557	0.316594
C35	C	1.475600	-0.453459	-0.183398
C36	C	1.975600	0.046541	0.316602
C37	C	1.475587	-0.336646	-0.183393
C38	C	1.975587	0.163354	0.316607
C39	C	1.703680	-0.000008	-0.176243
C40	C	2.203680	0.499992	0.323757
C41	C	1.842234	-0.000002	-0.179891
C42	C	2.342234	0.499998	0.320109
C43	C	1.482762	-0.000011	0.044675
C44	C	1.982762	0.499989	0.544675
C45	C	1.479114	-0.000007	0.183229
C46	C	1.979114	0.499993	0.683229
N47	N	1.475633	0.243532	-0.183407
N48	N	1.975633	0.743532	0.316593
C49	C	1.468447	-0.000003	-0.411477
C50	C	1.968447	0.499997	0.088523
C51	C	1.472094	0.000000	-0.550031
C52	C	1.972094	0.500000	-0.050031
C53	C	1.585401	-0.000006	0.258212
C54	C	2.085401	0.499994	0.758212
C55	C	1.581634	-0.000003	0.401415
C56	C	2.081634	0.499997	0.901415
H57	H	0.906659	0.000002	-0.088896
H58	H	1.406659	0.500002	0.411104
H59	H	1.672624	-0.000007	0.465848
H60	H	2.172624	0.499993	0.965848
H61	H	1.067152	0.000020	-0.093125
H62	H	1.567152	0.500020	0.406875
H63	H	1.075814	-0.000006	-0.386984
H64	H	1.575814	0.499994	0.113016
H65	H	0.826355	0.000006	-0.380421
H66	H	1.326355	0.500006	0.119579
H67	H	1.381099	-0.000007	0.385544
H68	H	1.881099	0.499993	0.885544
O69	O	1.697186	-0.000055	0.208125
O70	O	2.197186	0.499945	0.708125
C71	C	1.676062	-0.000030	0.076294
C72	C	2.176062	0.499970	0.576294
H73	H	1.578907	-0.032427	0.046692
H74	H	2.078907	0.467573	0.546692
H75	H	1.682380	0.082072	0.039988
H76	H	2.182380	0.582072	0.539988
C77	C	1.895021	-0.027353	0.057675
C78	C	2.395021	0.472647	0.557675
C79	C	1.775697	-0.067153	0.021318
C80	C	2.275697	0.432847	0.521318
H81	H	1.956483	-0.068754	0.023761
H82	H	2.456483	0.431246	0.523761
H83	H	1.909255	-0.027366	0.146492
H84	H	2.409255	0.472634	0.646492
H85	H	1.900268	0.041064	0.027418
H86	H	2.400268	0.541064	0.527418
H87	H	1.770447	-0.135563	0.051589
H88	H	2.270447	0.364437	0.551589
H89	H	1.761465	-0.067153	-0.067496
H90	H	2.261465	0.432847	0.432504
O91	O	1.367298	0.000134	0.233257
O92	O	1.867298	0.500134	0.733257
C93	C	1.358616	0.088782	0.307709
C94	C	1.858616	0.588782	0.807709
H95	H	1.456729	0.118332	0.339153
H96	H	1.956729	0.618332	0.839153
H97	H	1.303838	0.150844	0.250731
H98	H	1.803838	0.650844	0.750731
C99	C	1.170090	0.025573	0.384912
C100	C	1.670090	0.525573	0.884912
C101	C	1.290595	0.061861	0.423540
C102	C	1.790595	0.561861	0.923540
H103	H	1.128126	0.008970	0.456359
H104	H	1.628126	0.508970	0.956359
H105	H	1.175936	-0.034149	0.334749
H106	H	1.675936	0.465851	0.834749
H107	H	1.124457	0.077297	0.337429
H108	H	1.624457	0.577297	0.837429
H109	H	1.336230	0.010133	0.471008
H110	H	1.836230	0.510133	0.971008
H111	H	1.284755	0.121575	0.473715
H112	H	1.784755	0.621575	0.973715
