data_functionalizedCrystal
_audit_creation_method	'MofGen! by Chris Wilmer'
_symmetry_space_group_name_H-M	'P1'
_symmetry_Int_Tables_number	1
_symmetry_cell_setting	triclinic
loop_
_symmetry_equiv_pos_as_xyz
  x,y,z
_cell_length_a	16.956985
_cell_length_b	22.610064
_cell_length_c	16.974813
_cell_angle_alpha	86.349505
_cell_angle_beta	79.731757
_cell_angle_gamma	89.990637
loop_
_atom_site_label
_atom_site_type_symbol
_atom_site_fract_x
_atom_site_fract_y
_atom_site_fract_z
O1	O	-1.058010	0.050772	-0.032749
O2	O	-0.825822	0.052097	-0.060512
O3	O	-0.948388	0.045903	0.068894
O4	O	-0.935443	0.056967	-0.162156
O5	O	-0.948366	-0.052466	0.068875
O6	O	-0.825800	-0.046271	-0.060531
O7	O	-1.057988	-0.047596	-0.032769
Zn8	Zn	-0.941890	-0.062552	-0.046653
Zn9	Zn	-0.941919	0.067053	-0.046628
O10	O	-0.935422	-0.041401	-0.162175
C11	C	-0.796101	0.002981	-0.061944
C12	C	-0.707576	0.003182	-0.066170
C13	C	-0.675568	-0.000204	0.004497
C14	C	-0.592389	-0.000011	0.000521
C15	C	-0.541218	0.003564	-0.074124
C16	C	-0.573230	0.006952	-0.144797
C17	C	-0.656409	0.006763	-0.140820
C18	C	-0.291424	0.004507	-0.093809
C19	C	-0.208241	0.004694	-0.097780
C20	C	-0.227405	-0.002268	0.047538
C21	C	-0.310584	-0.002460	0.051508
C22	C	-0.342589	0.000931	-0.019165
N23	N	-0.456195	0.003760	-0.078190
N24	N	-0.427611	0.000739	-0.015098
N25	N	-0.941877	-0.151003	-0.046669
C26	C	-0.996194	-0.562389	0.010665
C27	C	-0.996198	-0.624310	0.010671
O28	O	-1.042346	-0.658661	0.059405
N29	N	-0.941918	-0.652543	-0.046612
C30	C	-0.887626	-0.618853	-0.103899
O31	O	-0.841457	-0.648554	-0.152622
C32	C	-0.887619	-0.556935	-0.103901
C33	C	-0.941907	-0.528704	-0.046619
C34	C	-1.050477	-0.534159	0.067943
C35	C	-1.050474	-0.472243	0.067936
C36	C	-0.996187	-0.438557	0.010651
C37	C	-0.941904	-0.466788	-0.046626
C38	C	-0.833323	-0.523246	-0.161184
C39	C	-0.833320	-0.461323	-0.161181
C40	C	-0.887608	-0.433093	-0.103899
C41	C	-0.887614	-0.371187	-0.103918
N42	N	-0.941893	-0.342953	-0.046635
C43	C	-0.996180	-0.376639	0.010649
C44	C	-0.887644	-0.748888	-0.103890
C45	C	-0.887655	-0.810805	-0.103893
C46	C	-0.996226	-0.816257	0.010679
C47	C	-0.996219	-0.754338	0.010677
C48	C	-0.941924	-0.720654	-0.046607
C49	C	-0.996169	-0.246610	0.010630
C50	C	-0.996163	-0.184688	0.010615
C51	C	-0.887590	-0.179242	-0.103953
C52	C	-0.887598	-0.241158	-0.103942
C53	C	-0.941891	-0.274841	-0.046644
O54	O	-0.841487	-0.336797	-0.152625
O55	O	-1.042334	-0.346930	0.059370
C56	C	-0.087708	0.001518	-0.031338
C57	C	-0.176233	0.001308	-0.027113
C58	C	-0.947884	-0.004689	0.098311
C59	C	-0.946407	-0.008885	0.185990
N60	N	-0.941939	0.155504	-0.046605
C61	C	-0.935925	0.009192	-0.191592
C62	C	-0.937403	0.013391	-0.279271
C63	C	-0.945726	0.042765	0.227188
C64	C	-0.944333	0.038821	0.309571
C65	C	-0.943626	-0.016772	0.350756
C66	C	-0.944304	-0.068425	0.309552
C67	C	-0.945691	-0.064481	0.227169
C68	C	-0.939469	-0.034318	0.597142
C69	C	-0.938083	-0.038258	0.679531
C70	C	-0.938111	0.068989	0.679544
C71	C	-0.939503	0.072928	0.597161
C72	C	-0.940177	0.021275	0.555963
N73	N	-0.942204	-0.020804	0.434965
N74	N	-0.941593	0.025308	0.471754
H75	H	-0.531560	0.009867	-0.205574
Br76	Br	-0.183965	-0.006867	0.143446
Br77	Br	-0.548954	-0.004585	0.096432
H78	H	-0.317472	0.007272	-0.151356
Br79	Br	-0.937132	-0.113712	0.735426
Br80	Br	-0.745007	-0.005062	0.105806
H81	H	-0.352243	-0.005374	0.112292
Br82	Br	-1.069898	-0.716032	0.088419
H83	H	-1.040428	-0.843695	0.057324
Br84	Br	-0.813920	-0.133517	-0.181696
H85	H	-0.937561	0.111042	0.713096
Br86	Br	-0.940367	-0.104419	0.541238
Br87	Br	-0.813988	-0.849110	-0.181647
H88	H	-0.843433	-0.721464	-0.150544
H89	H	-0.843399	-0.264144	-0.150593
H90	H	-0.946306	0.088035	0.193662
H91	H	-0.943723	-0.113691	0.343090
Br92	Br	-0.759642	-0.561546	-0.238927
H93	H	-0.166578	0.007602	-0.158568
H94	H	-1.094684	-0.561580	0.114594
Br95	Br	-1.069853	-0.292313	0.088392
H96	H	-0.946234	-0.106540	0.193624
Br97	Br	-0.699848	0.011363	-0.236730
Br98	Br	-1.069848	-0.146379	0.088356
H99	H	-1.094678	-0.449261	0.114581
Br100	Br	-0.759626	-0.415613	-0.238926
H101	H	-0.943782	0.080880	0.343112
H102	H	-0.940080	0.118198	0.563634
