data_functionalizedCrystal
_audit_creation_method	'MofGen! by Chris Wilmer'
_symmetry_space_group_name_H-M	'P1'
_symmetry_Int_Tables_number	1
_symmetry_cell_setting	triclinic
loop_
_symmetry_equiv_pos_as_xyz
  x,y,z
_cell_length_a	12.759401
_cell_length_b	12.759393
_cell_length_c	12.759400
_cell_angle_alpha	89.969548
_cell_angle_beta	89.986894
_cell_angle_gamma	90.020112
loop_
_atom_site_label
_atom_site_type_symbol
_atom_site_fract_x
_atom_site_fract_y
_atom_site_fract_z
Zn1	Zn	-1.606267	-0.593997	-0.418257
Zn2	Zn	-1.272934	-0.260664	-0.084923
Zn3	Zn	-0.939601	0.072669	0.248410
Zn4	Zn	-1.606159	-0.418317	-0.593972
Zn5	Zn	-1.272825	-0.084984	-0.260639
Zn6	Zn	-0.939492	0.248349	0.072695
Zn7	Zn	-1.430566	-0.418335	-0.418303
Zn8	Zn	-1.097233	-0.085002	-0.084970
Zn9	Zn	-0.763899	0.248332	0.248363
Zn10	Zn	-1.430558	-0.593957	-0.593890
Zn11	Zn	-1.097225	-0.260624	-0.260556
Zn12	Zn	-0.763892	0.072709	0.072777
O13	O	-1.518388	-0.506152	-0.506105
O14	O	-1.185054	-0.172818	-0.172772
O15	O	-0.851721	0.160515	0.160561
O16	O	-1.753274	-0.570702	-0.441581
O17	O	-1.419941	-0.237369	-0.108247
O18	O	-1.086607	0.095964	0.225086
O19	O	-1.582824	-0.271299	-0.570723
O20	O	-1.249490	0.062035	-0.237390
O21	O	-0.916157	0.395368	0.095943
O22	O	-1.453922	-0.441661	-0.271276
O23	O	-1.120588	-0.108328	0.062057
O24	O	-0.787255	0.225006	0.395391
O25	O	-1.753194	-0.441631	-0.570678
O26	O	-1.419861	-0.108298	-0.237345
O27	O	-1.086527	0.225035	0.095989
O28	O	-1.583009	-0.570719	-0.271242
O29	O	-1.249675	-0.237386	0.062092
O30	O	-0.916342	0.095947	0.395425
O31	O	-1.453817	-0.271311	-0.441660
O32	O	-1.120483	0.062022	-0.108327
O33	O	-0.787150	0.395355	0.225006
O34	O	-1.283544	-0.441622	-0.441580
O35	O	-0.950211	-0.108289	-0.108247
O36	O	-0.616877	0.225044	0.225086
O37	O	-1.453909	-0.740984	-0.570537
O38	O	-1.120575	-0.407650	-0.237204
O39	O	-0.787242	-0.074317	0.096129
O40	O	-1.283538	-0.570651	-0.570583
O41	O	-0.950205	-0.237318	-0.237249
O42	O	-0.616872	0.096016	0.096084
O43	O	-1.583001	-0.741013	-0.441501
O44	O	-1.249668	-0.407680	-0.108167
O45	O	-0.916335	-0.074346	0.225166
O46	O	-1.582816	-0.441592	-0.740982
O47	O	-1.249483	-0.108259	-0.407649
O48	O	-0.916150	0.225074	-0.074316
O49	O	-1.453803	-0.570634	-0.740922
O50	O	-1.120470	-0.237301	-0.407588
O51	O	-0.787137	0.096032	-0.074255
C52	C	-1.245420	-0.506135	-0.506078
C53	C	-0.912087	-0.172801	-0.172745
C54	C	-0.578754	0.160532	0.160588
C55	C	-1.128644	-0.506153	-0.506092
C56	C	-0.795310	-0.172819	-0.172759
C57	C	-0.461977	0.160514	0.160575
C58	C	-0.964075	-0.573238	-0.573377
C59	C	-0.630742	-0.239905	-0.240043
C60	C	-0.297408	0.093429	0.093290
C61	C	-1.073799	-0.573228	-0.573368
C62	C	-0.740466	-0.239895	-0.240035
C63	C	-0.407132	0.093439	0.093298
C64	C	-1.073758	-0.439075	-0.438827
C65	C	-0.740425	-0.105742	-0.105494
C66	C	-0.407092	0.227592	0.227840
C67	C	-0.964036	-0.439080	-0.438842
C68	C	-0.630703	-0.105747	-0.105508
C69	C	-0.297370	0.227586	0.227825
C70	C	-1.518326	-0.506130	-0.779073
C71	C	-1.184992	-0.172797	-0.445739
C72	C	-0.851659	0.160537	-0.112406
C73	C	-1.518395	-0.506156	-0.895849
C74	C	-1.185062	-0.172822	-0.562516
C75	C	-0.851729	0.160511	-0.229183
C76	C	-1.518466	-0.780185	-0.506005
C77	C	-1.185133	-0.446852	-0.172671
C78	C	-0.851800	-0.113519	0.160662
C79	C	-1.518500	-0.896962	-0.505962
C80	C	-1.185166	-0.563629	-0.172628
C81	C	-0.851833	-0.230295	0.160705
C82	C	-0.792421	-0.506167	-0.506126
C83	C	-0.459087	-0.172834	-0.172792
C84	C	-0.125754	0.160500	0.160541
C85	C	-0.909197	-0.506168	-0.506115
C86	C	-0.575864	-0.172834	-0.172782
C87	C	-0.242531	0.160499	0.160552
C88	C	-1.585723	-0.951841	-0.438761
C89	C	-1.252390	-0.618508	-0.105428
C90	C	-0.919057	-0.285174	0.227905
C91	C	-1.585741	-1.061565	-0.438716
C92	C	-1.252408	-0.728232	-0.105383
C93	C	-0.919074	-0.394898	0.227951
C94	C	-1.451309	-1.061522	-0.573080
C95	C	-1.117975	-0.728188	-0.239747
C96	C	-0.784642	-0.394855	0.093586
C97	C	-1.451287	-0.951799	-0.573119
C98	C	-1.117953	-0.618466	-0.239786
C99	C	-0.784620	-0.285133	0.093547
C100	C	-1.518370	-0.233184	-0.506130
C101	C	-1.185036	0.100149	-0.172797
C102	C	-0.851703	0.433482	0.160537
C103	C	-1.518540	-0.116408	-0.505877
C104	C	-1.185206	0.216925	-0.172544
C105	C	-0.851873	0.550258	0.160790
C106	C	-1.585711	-0.439072	-1.060439
C107	C	-1.252378	-0.105738	-0.727106
C108	C	-0.919044	0.227595	-0.393772
C109	C	-1.585648	-0.439039	-0.950715
C110	C	-1.252315	-0.105705	-0.617382
C111	C	-0.918981	0.227628	-0.284048
C112	C	-1.451194	-0.573303	-0.950713
C113	C	-1.117860	-0.239969	-0.617380
C114	C	-0.784527	0.093364	-0.284047
C115	C	-1.451252	-0.573330	-1.060435
C116	C	-1.117919	-0.239996	-0.727102
C117	C	-0.784586	0.093337	-0.393769
C118	C	-1.518478	-0.506197	-0.232072
C119	C	-1.185145	-0.172863	0.101261
C120	C	-0.851812	0.160470	0.434595
C121	C	-1.518517	-0.506216	-0.115295
C122	C	-1.185184	-0.172882	0.218038
C123	C	-0.851850	0.160451	0.551371
H124	H	-1.640450	-0.907195	-0.384074
H125	H	-1.307116	-0.573862	-0.050741
H126	H	-0.973783	-0.240529	0.282593
H127	H	-1.396430	-0.627947	-0.906035
H128	H	-1.063097	-0.294614	-0.572702
H129	H	-0.729763	0.038720	-0.239369
H130	H	-0.919429	-0.627864	-0.628155
H131	H	-0.586095	-0.294531	-0.294822
H132	H	-0.252762	0.038802	0.038511
N133	N	-1.132990	-0.645562	-0.645920
N134	N	-0.799656	-0.312229	-0.312586
N135	N	-0.466323	0.021104	0.020747
H136	H	-1.081597	-0.688058	-0.688537
H137	H	-0.748263	-0.354725	-0.355204
H138	H	-0.414930	-0.021392	-0.021870
H139	H	-1.178543	-0.694253	-0.603209
H140	H	-0.845209	-0.360919	-0.269875
H141	H	-0.511876	-0.027586	0.063458
H142	H	-1.640362	-0.384363	-0.906054
H143	H	-1.307029	-0.051029	-0.572721
H144	H	-0.973696	0.282304	-0.239387
H145	H	-1.396530	-0.628009	-1.105101
H146	H	-1.063197	-0.294675	-0.771767
H147	H	-0.729863	0.038658	-0.438434
H148	H	-1.396538	-0.907116	-0.627841
H149	H	-1.063204	-0.573782	-0.294508
H150	H	-0.729871	-0.240449	0.038826
H151	H	-1.118421	-0.384456	-0.384054
H152	H	-0.785088	-0.051123	-0.050721
H153	H	-0.451755	0.282210	0.282612
H154	H	-1.640479	-1.106243	-0.383993
H155	H	-1.307146	-0.772909	-0.050660
H156	H	-0.973813	-0.439576	0.282673
H157	H	-1.396589	-1.106184	-0.627760
H158	H	-1.063255	-0.772850	-0.294427
H159	H	-0.729922	-0.439517	0.038907
H160	H	-0.919354	-0.384459	-0.384067
H161	H	-0.586020	-0.051126	-0.050734
H162	H	-0.252687	0.282208	0.282599
H163	H	-1.640482	-0.384422	-1.105103
H164	H	-1.307148	-0.051089	-0.771770
H165	H	-0.973815	0.282244	-0.438436
