data_functionalizedCrystal
_audit_creation_method	'MofGen! by Chris Wilmer'
_symmetry_space_group_name_H-M	'P1'
_symmetry_Int_Tables_number	1
_symmetry_cell_setting	triclinic
loop_
_symmetry_equiv_pos_as_xyz
  x,y,z
_cell_length_a	29.019771
_cell_length_b	29.019011
_cell_length_c	29.015668
_cell_angle_alpha	60.004890
_cell_angle_beta	60.009825
_cell_angle_gamma	59.993818
loop_
_atom_site_label
_atom_site_type_symbol
_atom_site_fract_x
_atom_site_fract_y
_atom_site_fract_z
O1	O	0.063866	-0.673289	0.563007
O2	O	0.563866	-0.173289	1.063007
O3	O	0.024059	-0.524205	0.453633
O4	O	0.524059	-0.024205	0.953633
O5	O	0.118464	-0.618532	0.453552
O6	O	0.618464	-0.118532	0.953552
O7	O	-0.030540	-0.578962	0.563088
O8	O	0.469460	-0.078962	1.063088
O9	O	0.149785	-0.587215	0.484789
O10	O	0.649785	-0.087215	0.984789
O11	O	0.055379	-0.492888	0.484869
O12	O	0.555379	0.007112	0.984869
O13	O	0.095186	-0.641972	0.594244
O14	O	0.595186	-0.141972	1.094244
Cu15	Cu	0.078143	-0.564571	0.542409
Cu16	Cu	0.578143	-0.064571	1.042409
Cu17	Cu	0.041102	-0.601606	0.505468
Cu18	Cu	0.541102	-0.101606	1.005468
O19	O	0.000781	-0.547645	0.594325
O20	O	0.500781	-0.047645	1.094325
N21	N	0.104196	-0.538525	0.568394
N22	N	0.604196	-0.038525	1.068394
N23	N	0.015054	-0.627656	0.479483
N24	N	0.515054	-0.127656	0.979483
C25	C	0.143783	-0.499167	0.850823
C26	C	0.643783	0.000833	1.350823
C27	C	0.386758	-0.499111	0.607645
C28	C	0.886758	0.000889	1.107645
C29	C	0.143618	-0.499136	0.607763
C30	C	0.643618	0.000864	1.107763
C31	C	0.143598	-0.256029	0.607770
C32	C	0.643598	0.243971	1.107770
C33	C	0.182748	-0.373362	0.646852
C34	C	0.682748	0.126638	1.146852
C35	C	0.182758	-0.460025	0.646847
C36	C	0.682758	0.039975	1.146847
C37	C	0.204440	-0.438361	0.668500
C38	C	0.704440	0.061639	1.168500
C39	C	0.298958	-0.422064	0.618723
C40	C	0.798958	0.077936	1.118723
C41	C	0.358043	-0.441753	0.599006
C42	C	0.858043	0.058247	1.099006
C43	C	0.358069	-0.537354	0.635461
C44	C	0.858069	-0.037354	1.135461
C45	C	0.298985	-0.517664	0.655180
C46	C	0.798985	-0.017664	1.155180
C47	C	0.196983	-0.343808	0.588767
C48	C	0.696983	0.156192	1.088767
C49	C	0.177262	-0.284720	0.569090
C50	C	0.677262	0.215280	1.069090
C51	C	0.129075	-0.284743	0.665586
C52	C	0.629075	0.215257	1.165586
C53	C	0.148797	-0.343831	0.685263
C54	C	0.648797	0.156169	1.185263
C55	C	0.124666	-0.445760	0.661149
C56	C	0.624666	0.054240	1.161149
C57	C	0.104961	-0.465454	0.641458
C58	C	0.604961	0.034546	1.141458
C59	C	0.201435	-0.513678	0.593176
C60	C	0.701435	-0.013678	1.093176
C61	C	0.221143	-0.493984	0.612860
C62	C	0.721143	0.006016	1.112860
C63	C	0.124738	-0.445777	0.763064
C64	C	0.624738	0.054223	1.263064
C65	C	0.105085	-0.465488	0.822151
C66	C	0.605085	0.034512	1.322151
C67	C	0.201594	-0.513722	0.822097
C68	C	0.701594	-0.013722	1.322097
C69	C	0.221247	-0.494012	0.763009
C70	C	0.721247	0.005988	1.263009
C71	C	0.182817	-0.460038	0.733494
C72	C	0.682817	0.039962	1.233494
C73	C	0.269432	-0.460018	0.646809
C74	C	0.769432	0.039982	1.146809
C75	C	0.121399	-0.520450	0.915812
C76	C	0.621399	-0.020450	1.415812
C77	C	0.451745	-0.520012	0.585655
C78	C	0.951745	-0.020012	1.085655
C79	C	0.121177	-0.520429	0.586502
C80	C	0.621177	-0.020429	1.086502
C81	C	0.121544	-0.191035	0.586883
C82	C	0.621544	0.308965	1.086883
C83	C	-0.110592	-0.666601	0.440035
C84	C	0.389408	-0.166601	0.940035
C85	C	-0.023978	-0.666709	0.440231
C86	C	0.476022	-0.166709	0.940231
C87	C	-0.045598	-0.688342	0.418486
C88	C	0.454402	-0.188342	0.918486
C89	C	-0.061967	-0.782825	0.468184
C90	C	0.438033	-0.282825	0.968184
C91	C	-0.042323	-0.841914	0.487907
C92	C	0.457677	-0.341914	0.987907
C93	C	0.053280	-0.842025	0.451623
C94	C	0.553280	-0.342025	0.951623
C95	C	0.033634	-0.782937	0.431899
C96	C	0.533634	-0.282937	0.931899
C97	C	-0.140218	-0.680832	0.498102
C98	C	0.359782	-0.180832	0.998102
C99	C	-0.199302	-0.661065	0.517690
C100	C	0.300698	-0.161065	1.017690
C101	C	-0.199129	-0.612843	0.421140
C102	C	0.300871	-0.112843	0.921140
C103	C	-0.140045	-0.632610	0.401552
C104	C	0.359955	-0.132610	0.901552
C105	C	-0.038209	-0.608622	0.425941
C106	C	0.461791	-0.108622	0.925941
C107	C	-0.018555	-0.588961	0.445716
C108	C	0.481445	-0.088961	0.945716
C109	C	0.029562	-0.685470	0.494059
C110	C	0.529562	-0.185470	0.994059
C111	C	0.009908	-0.705133	0.474291
C112	C	0.509908	-0.205133	0.974291
C113	C	-0.038037	-0.608631	0.323917
C114	C	0.461963	-0.108631	0.823917
C115	C	-0.018247	-0.588973	0.264830
C116	C	0.481753	-0.088973	0.764830
C117	C	0.029955	-0.685489	0.264893
C118	C	0.529955	-0.185489	0.764893
C119	C	0.010165	-0.705145	0.323981
C120	C	0.510165	-0.205145	0.823981
C121	C	-0.023833	-0.666715	0.353492
C122	C	0.476167	-0.166715	0.853492
C123	C	-0.023990	-0.753339	0.440182
C124	C	0.476010	-0.253339	0.940182
N125	N	0.504925	-0.538487	0.568205
N126	N	1.004925	-0.038487	1.068205
O127	O	0.685342	-0.543679	0.433426
O128	O	1.185342	-0.043679	0.933426
O129	O	0.685533	-0.653395	0.582361
O130	O	1.185533	-0.153395	1.082361
O131	O	0.685457	-0.653145	0.487904
O132	O	1.185457	-0.153145	0.987904
O133	O	0.685418	-0.543929	0.527882
O134	O	1.185418	-0.043929	1.027882
O135	O	0.591592	-0.621921	0.519268
O136	O	1.091592	-0.121921	1.019268
O137	O	0.591667	-0.622171	0.613725
O138	O	1.091667	-0.122171	1.113725
O139	O	0.591477	-0.512455	0.464790
O140	O	1.091477	-0.012455	0.964790
Cu141	Cu	0.583001	-0.564462	0.542121
Cu142	Cu	1.083001	-0.064462	1.042121
Cu143	Cu	0.694008	-0.601388	0.505029
Cu144	Cu	1.194008	-0.101388	1.005029
O145	O	0.591553	-0.512705	0.559246
O146	O	1.091553	-0.012705	1.059246
N147	N	0.772084	-0.627363	0.478939
N148	N	1.272084	-0.127363	0.978939
N149	N	0.104168	-0.137853	0.568408
N150	N	0.604168	0.362147	1.068408
O151	O	-0.030538	0.042663	0.563097
O152	O	0.469462	0.542663	1.063097
O153	O	0.118403	0.042683	0.453379
O154	O	0.618403	0.542683	0.953379
O155	O	0.023918	0.042657	0.453664
O156	O	0.523918	0.542657	0.953664
O157	O	0.063947	0.042689	0.562813
O158	O	0.563947	0.542689	1.062813
O159	O	0.055242	-0.051215	0.484950
O160	O	0.555242	0.448785	0.984950
O161	O	0.149727	-0.051189	0.484666
O162	O	0.649727	0.448811	0.984666
O163	O	0.000787	-0.051210	0.594384
O164	O	0.500787	0.448790	1.094384
Cu165	Cu	0.078117	-0.059771	0.542381
Cu166	Cu	0.578117	0.440229	1.042381
Cu167	Cu	0.041072	0.051244	0.505382
Cu168	Cu	0.541072	0.551244	1.005382
O169	O	0.095272	-0.051184	0.594099
O170	O	0.595272	0.448816	1.094099
N171	N	0.015015	0.129326	0.479356
N172	N	0.515015	0.629326	0.979356
N173	N	0.104469	-0.538576	0.968995
N174	N	0.604469	-0.038576	1.468995
O175	O	0.099171	-0.673268	1.149499
O176	O	0.599171	-0.173268	1.649499
O177	O	-0.010519	-0.524279	1.149527
O178	O	0.489481	-0.024279	1.649527
O179	O	-0.010265	-0.618748	1.149494
O180	O	0.489735	-0.118748	1.649494
O181	O	0.098916	-0.578799	1.149533
O182	O	0.598916	-0.078799	1.649533
O183	O	0.021008	-0.587443	1.055625
O184	O	0.521008	-0.087443	1.555625
O185	O	0.020753	-0.492974	1.055659
O186	O	0.520753	0.007026	1.555659
O187	O	0.130444	-0.641963	1.055630
O188	O	0.630444	-0.141963	1.555630
Cu189	Cu	0.078454	-0.564610	1.047074
Cu190	Cu	0.578454	-0.064610	1.547074
Cu191	Cu	0.041470	-0.601632	1.158084
Cu192	Cu	0.541470	-0.101632	1.658084
O193	O	0.130189	-0.547494	1.055664
O194	O	0.630189	-0.047494	1.555664
N195	N	0.015455	-0.627672	1.236163
N196	N	0.515455	-0.127672	1.736163
C197	C	0.035988	-0.489761	0.454182
C198	C	0.535988	0.010239	0.954182
C199	C	0.152897	-0.606574	0.454082
C200	C	0.652897	-0.106574	0.954082
C201	C	0.083257	-0.676417	0.593694
C202	C	0.583257	-0.176417	1.093694
C203	C	-0.033653	-0.559604	0.593794
C204	C	0.466347	-0.059604	1.093794
C205	C	0.638623	-0.652892	0.616806
C206	C	1.138623	-0.152892	1.116806
C207	C	0.638531	-0.652583	0.499833
C208	C	1.138531	-0.152583	0.999833
C209	C	0.638384	-0.512957	0.430345
C210	C	1.138384	-0.012957	0.930345
C211	C	0.638480	-0.513267	0.547317
C212	C	1.138480	-0.013267	1.047317
C213	C	0.152789	-0.004135	0.453875
C214	C	0.652789	0.495865	0.953875
C215	C	0.035820	-0.004282	0.454266
C216	C	0.535820	0.495718	0.954266
C217	C	-0.033639	-0.004275	0.593849
C218	C	0.466361	0.495725	1.093849
C219	C	0.083370	-0.004245	0.593498
C220	C	0.583370	0.495755	1.093498
C221	C	-0.009989	-0.489856	1.102597
C222	C	0.490011	0.010144	1.602597
C223	C	-0.009667	-0.606839	1.102536
C224	C	0.490333	-0.106839	1.602536
C225	C	0.129914	-0.676386	1.102561
C226	C	0.629914	-0.176386	1.602561
C227	C	0.129599	-0.559396	1.102601
C228	C	0.629599	-0.059396	1.602601
H229	H	0.093440	-0.418108	0.739036
H230	H	0.593440	0.081892	1.239036
H231	H	-0.029822	-0.541673	0.240758
H232	H	0.470178	-0.041673	0.740758
C233	C	0.209910	-0.617822	0.408154
C234	C	0.709910	-0.117822	0.908154
C235	C	0.202484	-0.611544	0.360969
C236	C	0.702484	-0.111544	0.860969
C237	C	0.254991	-0.621909	0.318652
C238	C	0.754991	-0.121909	0.818652
H239	H	0.226874	-0.591752	0.397797
H240	H	0.726874	-0.091752	0.897797
H241	H	0.233600	-0.655189	0.421811
H242	H	0.733600	-0.155189	0.921811
H243	H	0.178803	-0.574182	0.347314
H244	H	0.678803	-0.074182	0.847314
H245	H	0.185529	-0.637612	0.371307
H246	H	0.685529	-0.137612	0.871307
H247	H	0.278681	-0.659276	0.332310
H248	H	0.778681	-0.159276	0.832310
H249	H	0.271951	-0.595837	0.308301
H250	H	0.771951	-0.095837	0.808301
H251	H	0.249960	-0.617656	0.286635
H252	H	0.749960	-0.117656	0.786635
H253	H	0.091941	-0.004235	0.627787
H254	H	0.591941	0.495765	1.127787
H255	H	0.163899	-0.550848	1.102605
H256	H	0.663899	-0.050848	1.602605
H257	H	-0.044426	-0.447066	1.102605
H258	H	0.455574	0.052934	1.602605
H259	H	0.638471	-0.478960	0.555871
H260	H	1.138471	0.021040	1.055871
H261	H	0.195476	-0.003868	0.419344
H262	H	0.695476	0.496132	0.919344
C263	C	0.025444	-0.768222	0.489838
C264	C	0.525444	-0.268222	0.989838
C265	C	0.059339	-0.797666	0.523884
C266	C	0.559339	-0.297666	1.023884
C267	C	0.073670	-0.855783	0.538209
C268	C	0.573670	-0.355783	1.038209
H269	H	-0.007936	-0.777941	0.509849
H270	H	0.492064	-0.277941	1.009849
H271	H	0.045565	-0.777954	0.456444
H272	H	0.545565	-0.277954	0.956444
H273	H	0.039219	-0.787938	0.557272
H274	H	0.539219	-0.287938	1.057272
H275	H	0.092727	-0.787964	0.503884
H276	H	0.592727	-0.287964	1.003884
H277	H	0.093791	-0.865515	0.504815
H278	H	0.593791	-0.365515	1.004815
H279	H	0.040287	-0.865496	0.558218
H280	H	0.540287	-0.365496	1.058218
H281	H	0.096674	-0.875768	0.561306
H282	H	0.596674	-0.375768	1.061306
H283	H	0.027247	-0.004286	0.419974
H284	H	0.527247	0.495714	0.919974
C285	C	-0.090722	-0.004242	0.639695
C286	C	0.409278	0.495758	1.139695
C287	C	-0.125582	-0.004236	0.619480
C288	C	0.374418	0.495764	1.119480
C289	C	-0.178175	-0.004192	0.661693
C290	C	0.321825	0.495808	1.161693
H291	H	-0.085847	-0.036962	0.671797
H292	H	0.414153	0.463038	1.171797
H293	H	-0.107631	0.028514	0.649933
H294	H	0.392369	0.528514	1.149933
H295	H	-0.108676	-0.036988	0.609250
H296	H	0.391324	0.463012	1.109250
H297	H	-0.130473	0.028482	0.587383
H298	H	0.369527	0.528482	1.087383
H299	H	-0.195084	0.028563	0.671931
H300	H	0.304916	0.528563	1.171931
H301	H	-0.173294	-0.036913	0.693793
H302	H	0.326706	0.463087	1.193793
H303	H	-0.201835	-0.004183	0.647981
H304	H	0.298165	0.495817	1.147981
H305	H	0.091761	-0.719242	0.628046
H306	H	0.591761	-0.219242	1.128046
H307	H	0.638671	-0.687334	0.659583
H308	H	1.138671	-0.187334	1.159583
C309	C	-0.090742	-0.548244	0.639600
C310	C	0.409258	-0.048244	1.139600
C311	C	-0.125526	-0.493158	0.619295
C312	C	0.374474	0.006842	1.119295
C313	C	-0.178118	-0.482671	0.661478
C314	C	0.321882	0.017329	1.161478
H315	H	-0.107732	-0.574278	0.649916
H316	H	0.392268	-0.074278	1.149916
H317	H	-0.085832	-0.552455	0.671670
H318	H	0.414168	-0.052455	1.171670
H319	H	-0.130438	-0.488953	0.587235
H320	H	0.369562	0.011047	1.087235
H321	H	-0.108555	-0.467113	0.608982
H322	H	0.391445	0.032887	1.108982
H323	H	-0.173207	-0.486881	0.693548
H324	H	0.326793	0.013119	1.193548
H325	H	-0.195101	-0.508708	0.671792
H326	H	0.304899	-0.008708	1.171792
H327	H	-0.201723	-0.445293	0.647709
H328	H	0.298277	0.054707	1.147709
C329	C	0.638520	-0.698252	0.488331
C330	C	1.138520	-0.198252	0.988331
C331	C	0.638449	-0.677778	0.433245
C332	C	1.138449	-0.177778	0.933245
C333	C	0.638431	-0.719829	0.422633
C334	C	1.138431	-0.219829	0.922633
H335	H	0.671269	-0.730360	0.492466
H336	H	1.171269	-0.230360	0.992466
H337	H	0.605799	-0.708550	0.514362
H338	H	1.105799	-0.208550	1.014362
H339	H	0.671167	-0.667488	0.407222
H340	H	1.171167	-0.167488	0.907222
H341	H	0.605702	-0.645675	0.429097
H342	H	1.105702	-0.145675	0.929097
H343	H	0.605709	-0.730127	0.448663
H344	H	1.105709	-0.230127	0.948663
H345	H	0.671180	-0.751935	0.426770
H346	H	1.171180	-0.251935	0.926770
H347	H	0.638377	-0.705942	0.385258
H348	H	1.138377	-0.205942	0.885258
H349	H	0.021738	-0.752445	0.348058
H350	H	0.521738	-0.252445	0.848058
H351	H	0.638322	-0.478510	0.387573
H352	H	1.138322	0.021490	0.887573
H353	H	-0.043953	-0.615372	1.102487
H354	H	0.456047	-0.115372	1.602487
H355	H	0.027485	-0.446933	0.419832
H356	H	0.527485	0.053067	0.919832
H357	H	0.164353	-0.719173	1.102545
H358	H	0.664353	-0.219173	1.602545
H359	H	0.057789	-0.453866	0.846219
H360	H	0.557789	0.046134	1.346219
H361	H	0.268542	-0.505632	0.738936
H362	H	0.768542	-0.005632	1.238936
C363	C	0.243409	-0.550614	0.854036
C364	C	0.743409	-0.050614	1.354036
C365	C	0.298478	-0.558890	0.815490
C366	C	0.798478	-0.058890	1.315490
C367	C	0.337013	-0.592878	0.844890
C368	C	0.837013	-0.092878	1.344890
H369	H	0.237818	-0.532620	0.877087
H370	H	0.737818	-0.032620	1.377087
H371	H	0.237789	-0.586056	0.877071
H372	H	0.737789	-0.086056	1.377071
H373	H	0.304095	-0.523454	0.792464
H374	H	0.804095	-0.023454	1.292464
H375	H	0.304086	-0.576890	0.792437
H376	H	0.804086	-0.076890	1.292437
H377	H	0.331394	-0.628320	0.867926
H378	H	0.831394	-0.128320	1.367926
H379	H	0.331418	-0.574881	0.867940
H380	H	0.831418	-0.074881	1.367940
H381	H	0.374382	-0.598502	0.818742
H382	H	0.874382	-0.098502	1.318742
H383	H	0.093408	-0.418110	0.688821
H384	H	0.593408	0.081890	1.188821
H385	H	0.232695	-0.541333	0.565509
H386	H	0.732695	-0.041333	1.065509
C387	C	0.041868	-0.449937	0.657073
C388	C	0.541868	0.050063	1.157073
C389	C	0.012468	-0.415999	0.691067
C390	C	0.512468	0.084001	1.191067
C391	C	-0.045653	-0.401702	0.705471
C392	C	0.454347	0.098298	1.205471
H393	H	0.032073	-0.429855	0.623723
H394	H	0.532073	0.070145	1.123723
H395	H	0.032179	-0.483347	0.677146
H396	H	0.532179	0.016653	1.177146
H397	H	0.022153	-0.382594	0.670994
H398	H	0.522153	0.117406	1.170994
H399	H	0.022246	-0.436069	0.724425
H400	H	0.522246	0.063931	1.224425
H401	H	-0.055342	-0.435112	0.725543
H402	H	0.444658	0.064888	1.225543
H403	H	-0.055442	-0.381622	0.672117
H404	H	0.444558	0.118378	1.172117
H405	H	-0.065608	-0.378678	0.728541
H406	H	0.434392	0.121322	1.228541
H407	H	0.268446	-0.505593	0.601208
H408	H	0.768446	-0.005593	1.101208
H409	H	0.274946	-0.548573	0.678050
H410	H	0.774946	-0.048573	1.178050
C411	C	-0.083643	-0.873824	0.518280
C412	C	0.416357	-0.373824	1.018280
C413	C	-0.111081	-0.859425	0.482303
C414	C	0.388919	-0.359425	0.982303
C415	C	-0.149172	-0.888791	0.510290
C416	C	0.350828	-0.388791	1.010290
H417	H	-0.063790	-0.913269	0.528877
H418	H	0.436210	-0.413269	1.028877
H419	H	-0.110732	-0.864057	0.551070
H420	H	0.389268	-0.364057	1.051070
H421	H	-0.083996	-0.869196	0.449522
H422	H	0.416004	-0.369196	0.949522
H423	H	-0.130945	-0.819986	0.471704
H424	H	0.369055	-0.319986	0.971704
H425	H	-0.176261	-0.879024	0.543081
H426	H	0.323739	-0.379024	1.043081
H427	H	-0.129315	-0.928234	0.520886
H428	H	0.370685	-0.428234	1.020886
H429	H	-0.167797	-0.879022	0.485886
H430	H	0.332203	-0.379022	0.985886
C431	C	0.390058	-0.599966	0.644621
C432	C	0.890058	-0.099966	1.144621
C433	C	0.351554	-0.628994	0.673449
C434	C	0.851554	-0.128994	1.173449
C435	C	0.381000	-0.686673	0.681903
C436	C	0.881000	-0.186673	1.181903
H437	H	0.413089	-0.605517	0.609151
H438	H	0.913089	-0.105517	1.109151
H439	H	0.413115	-0.613854	0.666282
H440	H	0.913115	-0.113854	1.166282
H441	H	0.328506	-0.615112	0.651789
H442	H	0.828506	-0.115112	1.151789
H443	H	0.328521	-0.623461	0.708924
H444	H	0.828521	-0.123461	1.208924
H445	H	0.404058	-0.700560	0.703564
H446	H	0.904058	-0.200560	1.203564
H447	H	0.404030	-0.692218	0.646431
H448	H	0.904030	-0.192218	1.146431
H449	H	0.354880	-0.706376	0.701468
H450	H	0.854880	-0.206376	1.201468
H451	H	0.382082	-0.410845	0.576135
H452	H	0.882082	0.089155	1.076135
H453	H	0.224626	-0.367851	0.557490
H454	H	0.724626	0.132149	1.057490
C455	C	0.266976	-0.359459	0.609604
C456	C	0.766976	0.140541	1.109604
C457	C	0.305485	-0.330439	0.580798
C458	C	0.805485	0.169561	1.080798
C459	C	0.276043	-0.272767	0.572394
C460	C	0.776043	0.227233	1.072394
H461	H	0.243906	-0.345526	0.587949
H462	H	0.743906	0.154474	1.087949
H463	H	0.243958	-0.353956	0.645104
H464	H	0.743958	0.146044	1.145104
H465	H	0.328493	-0.335938	0.545305
H466	H	0.828493	0.164062	1.045305
H467	H	0.328556	-0.344355	0.602444
H468	H	0.828556	0.155645	1.102444
H469	H	0.253025	-0.267264	0.607893
H470	H	0.753025	0.232736	1.107893
H471	H	0.252974	-0.258840	0.550740
H472	H	0.752974	0.241160	1.050740
H473	H	0.302166	-0.253071	0.552853
H474	H	0.802166	0.246929	1.052853
H475	H	0.101438	-0.260698	0.696864
H476	H	0.601438	0.239302	1.196864
C477	C	0.192798	-0.252730	0.506001
C478	C	0.692798	0.247270	1.006001
C479	C	0.226763	-0.291239	0.476574
C480	C	0.726763	0.208761	0.976574
C481	C	0.241092	-0.261793	0.418457
C482	C	0.741092	0.238207	0.918457
H483	H	0.159419	-0.229681	0.496256
H484	H	0.659419	0.270319	0.996256
H485	H	0.212867	-0.229688	0.496282
H486	H	0.712867	0.270312	0.996282
H487	H	0.206694	-0.314272	0.486289
H488	H	0.706694	0.185728	0.986289
H489	H	0.260149	-0.314290	0.486302
H490	H	0.760149	0.185710	0.986302
H491	H	0.261162	-0.238750	0.408738
H492	H	0.761162	0.261250	0.908738
H493	H	0.207711	-0.238744	0.408718
H494	H	0.707711	0.261256	0.908718
H495	H	0.264144	-0.287916	0.398484
H496	H	0.764144	0.212084	0.898484
H497	H	-0.065723	-0.577332	0.347941
H498	H	0.434277	-0.077332	0.847941
C499	C	0.133420	-0.375893	0.748337
C500	C	0.633420	0.124107	1.248337
C501	C	0.153535	-0.361534	0.772642
C502	C	0.653535	0.138466	1.272642
C503	C	0.139387	-0.391064	0.830742
C504	C	0.639387	0.108936	1.330742
H505	H	0.093566	-0.366244	0.765020
H506	H	0.593566	0.133756	1.265020
H507	H	0.150043	-0.415319	0.754579
H508	H	0.650043	0.084681	1.254579
H509	H	0.136911	-0.322118	0.766405
H510	H	0.636911	0.177882	1.266405
H511	H	0.193389	-0.371186	0.755976
H512	H	0.693389	0.128814	1.255976
H513	H	0.156010	-0.430489	0.836984
H514	H	0.656010	0.069511	1.336984
H515	H	0.099532	-0.381412	0.847419
H516	H	0.599532	0.118588	1.347419
H517	H	0.153037	-0.381329	0.847239
H518	H	0.653037	0.118671	1.347239
C519	C	0.066780	-0.727279	0.232931
C520	C	0.566780	-0.227279	0.732931
C521	C	0.037093	-0.761130	0.247249
C522	C	0.537093	-0.261130	0.747249
C523	C	0.071002	-0.799640	0.217823
C524	C	0.571002	-0.299640	0.717823
H525	H	0.076550	-0.707330	0.193497
H526	H	0.576550	-0.207330	0.693497
H527	H	0.100147	-0.750397	0.242702
H528	H	0.600147	-0.250397	0.742702
H529	H	0.003736	-0.738015	0.237474
H530	H	0.503736	-0.238015	0.737474
H531	H	0.027323	-0.781092	0.286678
H532	H	0.527323	-0.281092	0.786678
H533	H	0.104369	-0.822759	0.227593
H534	H	0.604369	-0.322759	0.727593
H535	H	0.080770	-0.779687	0.178390
H536	H	0.580770	-0.279687	0.678390
H537	H	0.050867	-0.822617	0.227537
H538	H	0.550867	-0.322617	0.727537
C539	C	-0.034025	-0.525872	0.430102
C540	C	0.465975	-0.025872	0.930102
C541	C	-0.067886	-0.496428	0.396022
C542	C	0.432114	0.003572	0.896022
C543	C	-0.082134	-0.438312	0.381615
C544	C	0.417866	0.061688	0.881615
H545	H	-0.054145	-0.516070	0.463448
H546	H	0.445855	-0.016070	0.963448
H547	H	-0.000597	-0.516223	0.410091
H548	H	0.499403	-0.016223	0.910091
H549	H	-0.101308	-0.506073	0.416034
H550	H	0.398692	-0.006073	0.916034
H551	H	-0.047777	-0.506214	0.362669
H552	H	0.452223	-0.006214	0.862669
H553	H	-0.048706	-0.428663	0.361603
H554	H	0.451294	0.071337	0.861603
H555	H	-0.102252	-0.428515	0.414964
H556	H	0.397748	0.071485	0.914964
H557	H	-0.105106	-0.418327	0.358486
H558	H	0.394894	0.081673	0.858486
H559	H	-0.065797	-0.577331	0.398207
H560	H	0.434203	-0.077331	0.898207
H561	H	0.064563	-0.758931	0.409098
H562	H	0.564563	-0.258931	0.909098
C563	C	0.066452	-0.727164	0.530939
C564	C	0.566452	-0.227164	1.030939
C565	C	0.118624	-0.718756	0.504318
C566	C	0.618624	-0.218756	1.004318
C567	C	0.152624	-0.757161	0.538273
C568	C	0.652624	-0.257161	1.038273
H569	H	0.048436	-0.721505	0.566359
H570	H	0.548436	-0.221505	1.066359
H571	H	0.072151	-0.764583	0.536602
H572	H	0.572151	-0.264583	1.036602
H573	H	0.112924	-0.681346	0.498662
H574	H	0.612924	-0.181346	0.998662
H575	H	0.136656	-0.724420	0.468900
H576	H	0.636656	-0.224420	0.968900
H577	H	0.158322	-0.794580	0.543936
H578	H	0.658322	-0.294580	1.043936
H579	H	0.134602	-0.751498	0.573692
H580	H	0.634602	-0.251498	1.073692
H581	H	0.188028	-0.751464	0.520213
H582	H	0.688028	-0.251464	1.020213
H583	H	0.100203	-0.866125	0.444882
H584	H	0.600203	-0.366125	0.944882
H585	H	-0.108889	-0.758731	0.474933
H586	H	0.391111	-0.258731	0.974933
H587	H	-0.116238	-0.708516	0.529438
H588	H	0.383762	-0.208516	1.029438
H589	H	-0.223112	-0.585171	0.389803
H590	H	0.276888	-0.085171	0.889803
C591	C	-0.231370	-0.676604	0.580761
C592	C	0.268630	-0.176604	1.080761
C593	C	-0.192930	-0.710617	0.610269
C594	C	0.307070	-0.210617	1.110269
C595	C	-0.222449	-0.724952	0.668370
C596	C	0.277551	-0.224952	1.168370
H597	H	-0.254423	-0.643226	0.590506
H598	H	0.245577	-0.143226	1.090506
H599	H	-0.254412	-0.696644	0.590412
H600	H	0.245588	-0.196644	1.090412
H601	H	-0.169898	-0.690578	0.600622
H602	H	0.330102	-0.190578	1.100622
H603	H	-0.169875	-0.744002	0.600542
H604	H	0.330125	-0.244002	1.100542
H605	H	-0.245491	-0.744992	0.678021
H606	H	0.254509	-0.244992	1.178021
H607	H	-0.245501	-0.691572	0.678109
H608	H	0.254499	-0.191572	1.178109
H609	H	-0.196372	-0.748036	0.688399
H610	H	0.303628	-0.248036	1.188399
H611	H	-0.115923	-0.621016	0.354266
H612	H	0.384077	-0.121016	0.854266
