data_functionalizedCrystal
_audit_creation_method	'MofGen! by Chris Wilmer'
_symmetry_space_group_name_H-M	'P1'
_symmetry_Int_Tables_number	1
_symmetry_cell_setting	triclinic
loop_
_symmetry_equiv_pos_as_xyz
  x,y,z
_cell_length_a	19.288864
_cell_length_b	14.044220
_cell_length_c	18.366186
_cell_angle_alpha	89.993222
_cell_angle_beta	89.977106
_cell_angle_gamma	88.162561
loop_
_atom_site_label
_atom_site_type_symbol
_atom_site_fract_x
_atom_site_fract_y
_atom_site_fract_z
O1	O	0.928948	0.118214	-0.060787
O2	O	1.428948	0.618214	0.439213
O3	O	0.727712	0.134161	-0.060738
O4	O	1.227712	0.634161	0.439262
O5	O	0.825310	-0.011784	-0.060755
O6	O	1.325310	0.488216	0.439245
O7	O	0.831351	0.264160	-0.060770
O8	O	1.331351	0.764160	0.439230
O9	O	0.825291	-0.011791	0.060345
O10	O	1.325291	0.488209	0.560345
O11	O	0.727694	0.134154	0.060362
O12	O	1.227694	0.634154	0.560362
O13	O	0.928930	0.118207	0.060312
O14	O	1.428930	0.618207	0.560312
Zn15	Zn	0.828309	0.126180	0.079564
Zn16	Zn	1.328309	0.626180	0.579564
Zn17	Zn	0.828333	0.126189	-0.079990
Zn18	Zn	1.328333	0.626189	0.420010
O19	O	0.831332	0.264152	0.060329
O20	O	1.331332	0.764152	0.560329
C21	C	0.701794	0.133645	-0.000182
C22	C	1.201794	0.633645	0.499818
C23	C	0.624591	0.132104	-0.000163
C24	C	1.124591	0.632104	0.499837
C25	C	0.585397	0.217738	-0.000179
C26	C	1.085397	0.717738	0.499821
C27	C	0.512857	0.216291	-0.000187
C28	C	1.012857	0.716291	0.499813
C29	C	0.479514	0.129205	-0.000193
C30	C	0.979514	0.629205	0.499807
C31	C	0.518717	0.043560	-0.000173
C32	C	1.018717	0.543560	0.499827
C33	C	0.591256	0.045010	-0.000157
C34	C	1.091256	0.545010	0.499843
C35	C	0.366860	0.060749	-0.042640
C36	C	0.866860	0.560749	0.457360
C37	C	0.294322	0.059303	-0.042660
C38	C	0.794322	0.559303	0.457340
C39	C	0.255781	0.124731	-0.000237
C40	C	0.755781	0.624731	0.499763
C41	C	0.289785	0.191621	0.042196
C42	C	0.789785	0.691621	0.542196
C43	C	0.362323	0.193071	0.042212
C44	C	0.862323	0.693071	0.542212
C45	C	0.400858	0.127624	-0.000209
C46	C	0.900858	0.627624	0.499791
C47	C	0.137930	0.208802	-0.000261
C48	C	0.637930	0.708802	0.499739
C49	C	0.065389	0.207351	-0.000264
C50	C	0.565389	0.707351	0.499736
C51	C	0.071251	0.034617	-0.000257
C52	C	0.571251	0.534617	0.499743
C53	C	0.143790	0.036071	-0.000247
C54	C	0.643790	0.536071	0.499753
C55	C	0.177126	0.123165	-0.000252
C56	C	0.677126	0.623165	0.499748
C57	C	0.822656	-0.047091	-0.000204
C58	C	1.322656	0.452909	0.499796
C59	C	0.814768	-0.152283	-0.000201
C60	C	1.314768	0.347717	0.499799
C61	C	0.800348	-0.344882	-0.000208
C62	C	1.300348	0.155118	0.499792
C63	C	0.856291	-0.402755	-0.000224
C64	C	1.356291	0.097245	0.499776
C65	C	0.848267	-0.509924	-0.000228
C66	C	1.348267	-0.009924	0.499772
C67	C	0.808370	-0.237703	-0.000204
C68	C	1.308370	0.262297	0.499796
C69	C	0.954848	0.118724	-0.000245
C70	C	1.454848	0.618724	0.499755
C71	C	1.032051	0.120264	-0.000269
C72	C	1.532051	0.620264	0.499731
C73	C	0.833986	0.299459	-0.000223
C74	C	1.333986	0.799459	0.499777
C75	C	0.841874	0.404651	-0.000231
C76	C	1.341874	0.904651	0.499769
N77	N	0.828297	0.126173	0.188455
N78	N	1.328297	0.626173	0.688455
N79	N	0.828350	0.126188	-0.188881
N80	N	1.328350	0.626188	0.311119
C81	C	0.871531	0.061580	0.226548
C82	C	1.371531	0.561580	0.726548
C83	C	0.871535	0.061575	0.302776
C84	C	1.371535	0.561575	0.802776
C85	C	0.828313	0.126180	0.340908
C86	C	1.328313	0.626180	0.840908
C87	C	0.785071	0.190778	0.302806
C88	C	1.285071	0.690778	0.802806
C89	C	0.785063	0.190774	0.226579
C90	C	1.285063	0.690774	0.726579
C91	C	0.824562	0.212524	0.461665
C92	C	1.324562	0.712524	0.961665
C93	C	0.824575	0.212529	0.537890
C94	C	1.324575	0.712529	1.037890
C95	C	0.828333	0.126192	0.576015
C96	C	1.328333	0.626192	1.076015
C97	C	0.832093	0.039847	0.537907
C98	C	1.332093	0.539847	1.037907
C99	C	0.832085	0.039843	0.461681
C100	C	1.332085	0.539843	0.961681
C101	C	0.828316	0.126191	0.423563
C102	C	1.328316	0.626191	0.923563
C103	C	0.871574	0.061589	0.696763
C104	C	1.371574	0.561589	1.196763
C105	C	0.871573	0.061584	0.772993
C106	C	1.371573	0.561584	1.272993
C107	C	0.785113	0.190795	0.773021
C108	C	1.285113	0.690795	1.273021
C109	C	0.785110	0.190792	0.696793
C110	C	1.285110	0.690792	1.196793
C111	C	0.828344	0.126190	0.658669
C112	C	1.328344	0.626190	1.158669
H113	H	0.480939	0.286027	-0.000198
H114	H	0.980939	0.786027	0.499802
N115	N	0.186067	-0.056295	-0.000246
N116	N	0.686067	0.443705	0.499754
H117	H	0.237079	-0.042163	-0.000236
H118	H	0.737079	0.457837	0.499764
H119	H	0.174643	-0.094268	0.044645
H120	H	0.674643	0.405732	0.544645
N121	N	0.408424	-0.009824	-0.088403
N122	N	0.908424	0.490176	0.411597
H123	H	0.459536	0.001241	-0.081953
H124	H	0.959536	0.501241	0.418047
H125	H	0.397996	-0.076720	-0.072542
H126	H	0.897996	0.423280	0.427458
H127	H	0.910212	-0.371814	-0.000286
H128	H	1.410212	0.128186	0.499714
H129	H	0.746431	-0.375822	-0.000197
H130	H	1.246431	0.124178	0.499803
N131	N	0.918157	-0.008098	0.185429
N132	N	1.418157	0.491902	0.685429
H133	H	0.945546	-0.049019	0.221132
H134	H	1.445546	0.450981	0.721132
H135	H	0.888976	-0.049904	0.153824
H136	H	1.388976	0.450096	0.653824
N137	N	0.918165	-0.008097	0.343875
N138	N	1.418165	0.491903	0.843875
H139	H	0.945551	-0.049023	0.308156
H140	H	1.445551	0.450977	0.808156
H141	H	0.951109	0.028085	0.375479
H142	H	1.451109	0.528085	0.875479
H143	H	0.906776	0.008984	0.665721
H144	H	1.406776	0.508984	1.165721
N145	N	0.023135	0.299738	-0.000271
N146	N	0.523135	0.799738	0.499729
H147	H	-0.007073	0.303012	-0.045163
H148	H	0.492927	0.803012	0.454837
H149	H	-0.007067	0.302943	0.044650
H150	H	0.492933	0.802943	0.544650
N151	N	0.836138	-0.053278	0.420576
N152	N	1.336138	0.446722	0.920576
H153	H	0.838521	-0.107975	0.456290
H154	H	1.338521	0.392025	0.956290
H155	H	0.793606	-0.058663	0.388973
H156	H	1.293606	0.441337	0.888973
H157	H	0.749878	0.243379	0.333857
H158	H	1.249878	0.743379	0.833857
H159	H	0.390007	0.247532	0.076765
H160	H	0.890007	0.747532	0.576765
H161	H	0.491565	-0.027346	-0.000188
H162	H	0.991565	0.472654	0.499812
H163	H	0.258406	0.244899	0.076742
H164	H	0.758406	0.744899	0.576742
H165	H	0.835153	-0.030457	0.568947
H166	H	1.335153	0.469543	1.068947
H167	H	0.749908	0.243394	0.665776
H168	H	1.249908	0.743394	1.165776
N169	N	0.918218	-0.008072	0.814083
N170	N	1.418218	0.491928	1.314083
H171	H	0.945610	-0.048986	0.778362
H172	H	1.445610	0.451014	1.278362
H173	H	0.951157	0.028130	0.845681
H174	H	1.451157	0.528130	1.345681
N175	N	0.738488	0.260471	0.814137
N176	N	1.238488	0.760471	1.314137
H177	H	0.745051	0.250671	0.868208
H178	H	1.245051	0.750671	1.368208
H179	H	0.750669	0.327670	0.800801
H180	H	1.250669	0.827670	1.300801
N181	N	0.820516	0.305652	0.578989
N182	N	1.320516	0.805652	1.078989
H183	H	0.818122	0.360345	0.543272
H184	H	1.318122	0.860345	1.043272
H185	H	0.777663	0.307772	0.610637
H186	H	1.277663	0.807772	1.110637
H187	H	0.165073	0.279719	-0.000254
H188	H	0.665073	0.779719	0.499746
H189	H	0.044104	-0.036290	-0.000308
H190	H	0.544104	0.463710	0.499692
N191	N	0.257649	-0.012836	-0.088426
N192	N	0.757649	0.487164	0.411574
H193	H	0.293070	-0.054074	-0.115291
H194	H	0.793070	0.445926	0.384709
H195	H	0.228911	-0.054067	-0.055884
H196	H	0.728911	0.445933	0.444116
H197	H	0.821490	0.282834	0.430629
H198	H	1.321490	0.782834	0.930629
H199	H	0.749856	0.243374	0.195563
H200	H	1.249856	0.743374	0.695563
H201	H	0.623168	-0.024726	-0.000144
H202	H	1.123168	0.475274	0.499856
N203	N	0.621351	0.311672	-0.000190
N204	N	1.121351	0.811672	0.499810
H205	H	0.585510	0.365702	-0.000203
H206	H	1.085510	0.865702	0.499797
H207	H	0.651297	0.316043	0.044707
H208	H	1.151297	0.816043	0.544707
