data_functionalizedCrystal
_audit_creation_method	'MofGen! by Chris Wilmer'
_symmetry_space_group_name_H-M	'P1'
_symmetry_Int_Tables_number	1
_symmetry_cell_setting	triclinic
loop_
_symmetry_equiv_pos_as_xyz
  x,y,z
_cell_length_a	11.792241
_cell_length_b	9.065218
_cell_length_c	8.140239
_cell_angle_alpha	89.998314
_cell_angle_beta	90.001479
_cell_angle_gamma	84.604650
loop_
_atom_site_label
_atom_site_type_symbol
_atom_site_fract_x
_atom_site_fract_y
_atom_site_fract_z
O1	O	1.508028	0.202221	-0.136447
O2	O	1.841361	0.535555	0.196887
O3	O	2.174694	0.868888	0.530220
O4	O	1.177802	0.223063	-0.136484
O5	O	1.511135	0.556396	0.196849
O6	O	1.844469	0.889729	0.530182
O7	O	1.349740	-0.002064	-0.136461
O8	O	1.683074	0.331269	0.196872
O9	O	2.016407	0.664602	0.530205
O10	O	1.336089	0.427349	-0.136470
O11	O	1.669422	0.760682	0.196864
O12	O	2.002756	1.094015	0.530197
O13	O	1.349731	-0.002067	0.136766
O14	O	1.683064	0.331266	0.470099
O15	O	2.016398	0.664600	0.803432
O16	O	1.177792	0.223060	0.136743
O17	O	1.511126	0.556394	0.470076
O18	O	1.844459	0.889727	0.803409
O19	O	1.508018	0.202219	0.136780
O20	O	1.841351	0.535552	0.470114
O21	O	2.174685	0.868886	0.803447
Zn22	Zn	1.342904	0.212639	0.180142
Zn23	Zn	1.676237	0.545972	0.513476
Zn24	Zn	2.009570	0.879306	0.846809
Zn25	Zn	1.342916	0.212643	-0.179846
Zn26	Zn	1.676250	0.545976	0.153487
Zn27	Zn	2.009583	0.879309	0.486820
O28	O	1.336079	0.427346	0.136757
O29	O	1.669413	0.760679	0.470091
O30	O	2.002746	1.094013	0.803424
C31	C	1.348424	-0.057040	0.000149
C32	C	1.681757	0.276293	0.333483
C33	C	2.015090	0.609627	0.666816
C34	C	1.344501	-0.220846	0.000141
C35	C	1.677834	0.112487	0.333474
C36	C	2.011167	0.445821	0.666808
C37	C	1.135499	0.221752	0.000124
C38	C	1.468832	0.555086	0.333458
C39	C	1.802166	0.888419	0.666791
C40	C	1.009464	0.217834	0.000110
C41	C	1.342797	0.551167	0.333443
C42	C	1.676130	0.884501	0.666777
C43	C	0.778711	0.210629	0.000157
C44	C	1.112045	0.543962	0.333491
C45	C	1.445378	0.877295	0.666824
C46	C	0.907119	0.214632	0.000131
C47	C	1.240452	0.547965	0.333465
C48	C	1.573785	0.881299	0.666798
C49	C	1.550321	0.203529	0.000168
C50	C	1.883654	0.536863	0.333501
C51	C	2.216988	0.870196	0.666835
C52	C	1.676356	0.207448	0.000172
C53	C	2.009690	0.540781	0.333505
C54	C	2.343023	0.874114	0.666838
C55	C	1.337396	0.482322	0.000143
C56	C	1.670730	0.815655	0.333476
C57	C	2.004063	1.148988	0.666810
C58	C	1.341319	0.646128	0.000141
C59	C	1.674652	0.979461	0.333474
C60	C	2.007986	1.312794	0.666807
N61	N	1.342903	0.212636	0.425825
N62	N	1.676237	0.545969	0.759158
N63	N	2.009570	0.879303	1.092492
N64	N	1.342926	0.212634	-0.425529
N65	N	1.676259	0.545967	-0.092195
N66	N	2.009592	0.879301	0.241138
