data_functionalizedCrystal
_audit_creation_method	'MofGen! by Chris Wilmer'
_symmetry_space_group_name_H-M	'P1'
_symmetry_Int_Tables_number	1
_symmetry_cell_setting	triclinic
loop_
_symmetry_equiv_pos_as_xyz
  x,y,z
_cell_length_a	8.497374
_cell_length_b	19.077105
_cell_length_c	19.077068
_cell_angle_alpha	89.884684
_cell_angle_beta	92.284024
_cell_angle_gamma	92.300019
loop_
_atom_site_label
_atom_site_type_symbol
_atom_site_fract_x
_atom_site_fract_y
_atom_site_fract_z
Zn1	Zn	1.016648	1.062860	0.323110
Zn2	Zn	0.762970	1.058079	0.440586
Zn3	Zn	0.741875	0.945387	0.318369
Zn4	Zn	1.015701	0.940595	0.435851
O5	O	0.884299	1.001730	0.379479
O6	O	0.992222	1.160556	0.342659
O7	O	0.539410	1.043135	0.424372
O8	O	0.769893	0.964977	0.220667
O9	O	0.805846	1.157044	0.428968
O10	O	0.971767	1.051283	0.224150
O11	O	0.523911	0.960341	0.334579
O12	O	0.768974	0.846421	0.329988
O13	O	1.236588	0.956809	0.420898
O14	O	0.970152	0.842901	0.416301
O15	O	1.237285	1.046636	0.338067
O16	O	0.804927	1.038488	0.538289
O17	O	0.990607	0.952173	0.534810
C18	C	0.867172	0.819165	0.372117
C19	C	0.859884	0.741062	0.368984
C20	C	0.899989	0.994311	0.562047
C21	C	0.906761	0.991201	0.640152
C22	C	0.961050	0.702552	0.412519
C23	C	0.954209	0.629166	0.409566
C24	C	0.846193	0.594292	0.363082
C25	C	0.745023	0.632808	0.319542
C26	C	0.751873	0.706192	0.322492
C27	C	0.814499	0.375011	0.349430
C28	C	0.807654	0.301621	0.346485
C29	C	1.016843	0.297985	0.436509
C30	C	1.023677	0.371371	0.439457
C31	C	0.922512	0.409880	0.395915
N32	N	0.839195	0.519280	0.360064
N33	N	0.929519	0.484891	0.398930
C34	C	1.295778	1.001725	0.379480
C35	C	1.474423	1.001726	0.379487
C36	C	0.901493	1.185009	0.386870
C37	C	0.908820	1.263111	0.390020
C38	C	0.868583	1.009198	0.196199
C39	C	0.861886	1.012380	0.118097
C40	C	0.813355	1.034715	0.678636
C41	C	0.819734	1.031794	0.752025
C42	C	0.919510	0.985356	0.786928
C43	C	1.012926	0.941841	0.748439
C44	C	1.006555	0.944765	0.675052
C45	C	0.948930	0.971789	1.006221
C46	C	0.955291	0.968866	1.079613
C47	C	0.762100	1.058821	1.083193
C48	C	0.755730	1.061739	1.009804
C49	C	0.849152	1.018226	0.971322
N50	N	0.926029	0.982368	0.861943
N51	N	0.842641	1.021218	0.896309
H52	H	1.049004	0.730941	0.450374
O53	O	0.702679	0.267855	0.301264
C54	C	0.614830	0.317579	0.263476
H55	H	0.684132	0.369992	0.263188
H56	H	0.497849	0.324336	0.289434
C57	C	0.498157	0.227592	0.187880
C58	C	0.583280	0.291965	0.187520
H59	H	0.478688	0.211791	0.141027
H60	H	0.557337	0.194091	0.213339
H61	H	0.400683	0.233231	0.209515
H62	H	0.680760	0.286323	0.165894
H63	H	0.524115	0.325464	0.162055
O64	O	1.097519	0.902529	0.637744
C65	C	1.257766	0.917130	0.656240
H66	H	1.268236	0.942014	0.710591
H67	H	1.310759	0.954889	0.616354
C68	C	1.334223	0.817895	0.590150
C69	C	1.347084	0.848452	0.656908
H70	H	1.389322	0.775533	0.590559
H71	H	1.226262	0.808060	0.577687
H72	H	1.378383	0.849368	0.556919
H73	H	1.302907	0.816984	0.690135
H74	H	1.455040	0.858281	0.669377
H75	H	0.657081	0.604407	0.281691
O76	O	1.052530	0.591863	0.451935
C77	C	1.149347	0.638380	0.493590
H78	H	1.089809	0.690591	0.498070
H79	H	1.267796	0.647231	0.468268
C80	C	1.248651	0.542582	0.561743
C81	C	1.175519	0.606706	0.567250
H82	H	1.264802	0.523043	0.607179
H83	H	1.183428	0.511242	0.533678
H84	H	1.347350	0.549967	0.540639
H85	H	1.076814	0.599319	0.588346
H86	H	1.240726	0.638044	0.595321
O87	O	0.716156	0.412483	0.307239
C88	C	0.621476	0.453290	0.348875
H89	H	0.682528	0.462134	0.402606
H90	H	0.502561	0.424685	0.355381
C91	C	0.521231	0.513699	0.246992
C92	C	0.596222	0.524566	0.312984
H93	H	0.505646	0.557664	0.224852
H94	H	0.585014	0.486205	0.218941
H95	H	0.422143	0.489860	0.252424
H96	H	0.695316	0.548396	0.307551
H97	H	0.532455	0.552066	0.341034
O98	O	1.052369	0.923740	1.113410
C99	C	1.133436	0.885951	1.063708
H100	H	1.137107	0.916814	1.012528
H101	H	1.069908	0.832911	1.053811
C102	C	1.298339	0.836723	1.154784
C103	C	1.302859	0.874633	1.091925
H104	H	1.402845	0.829738	1.172190
H105	H	1.243720	0.862180	1.188269
H106	H	1.245392	0.792528	1.146527
H107	H	1.355788	0.918830	1.100184
H108	H	1.357492	0.849182	1.058441
O109	O	1.039842	0.929617	0.968821
C110	C	1.141857	0.971270	0.927916
H111	H	1.158811	1.025732	0.952207
H112	H	1.088500	0.975920	0.872399
C113	C	1.281643	0.870027	0.895580
C114	C	1.302477	0.936916	0.925418
H115	H	1.380719	0.848835	0.894036
H116	H	1.212910	0.841964	0.923137
H117	H	1.237174	0.873911	0.849319
H118	H	1.346926	0.933030	0.971681
H119	H	1.371220	0.964978	0.897869
H120	H	0.669500	0.737547	0.287037
O121	O	0.716392	1.079886	0.644845
C122	C	0.635290	1.117653	0.694552
H123	H	0.704682	1.117978	0.746947
H124	H	0.513703	1.091653	0.701368
C125	C	0.531978	1.193192	0.604513
C126	C	0.617214	1.193596	0.668864
H127	H	0.520821	1.240036	0.588666
H128	H	0.586613	1.167746	0.571023
H129	H	0.430664	1.171521	0.610201
H130	H	0.718532	1.215257	0.663172
H131	H	0.562596	1.219047	0.702352
H132	H	1.094174	0.904033	0.776864
O133	O	1.114970	0.260606	0.478898
C134	C	1.087970	0.275706	0.549630
H135	H	0.964103	0.295723	0.553906
H136	H	1.178037	0.317565	0.569763
C137	C	1.256270	0.184029	0.588666
C138	C	1.104129	0.208609	0.593920
H139	H	1.266244	0.142642	0.615988
H140	H	1.274466	0.173857	0.541013
H141	H	1.331309	0.218918	0.605444
H142	H	1.029095	0.173724	0.577135
H143	H	1.085920	0.218773	0.641571
O144	O	0.729353	1.074232	0.789392
C145	C	0.827364	1.117883	0.833550
H146	H	0.950113	1.122911	0.811573
H147	H	0.835453	1.094033	0.888354
C148	C	0.606923	1.184815	0.864430
C149	C	0.757682	1.190996	0.837435
H150	H	0.563938	1.229913	0.866830
H151	H	0.540889	1.155405	0.834683
H152	H	0.613684	1.164937	0.910098
H153	H	0.750916	1.210865	0.791765
H154	H	0.823713	1.220411	0.867175
O155	O	1.128829	0.405213	0.484536
C156	C	1.283131	0.387896	0.468580
H157	H	1.284596	0.370005	0.411638
H158	H	1.323490	0.343769	0.504568
C159	C	1.393388	0.474730	0.549392
C160	C	1.395189	0.452761	0.479453
H161	H	1.462514	0.514740	0.556102
H162	H	1.289432	0.486395	0.560144
H163	H	1.427016	0.437951	0.579375
H164	H	1.361543	0.489536	0.449473
H165	H	1.499142	0.441104	0.468697
O166	O	0.658600	1.106818	0.975981
C167	C	0.501460	1.090798	0.993326
H168	H	0.500232	1.061660	1.045543
H169	H	0.441283	1.056340	0.950606
C170	C	0.414264	1.194994	0.935308
C171	C	0.412756	1.159211	0.999445
H172	H	0.359544	1.237193	0.939079
H173	H	0.520131	1.205786	0.923619
H174	H	0.364120	1.166272	0.899715
H175	H	0.462917	1.187929	1.035035
H176	H	0.306894	1.148425	1.011140
H177	H	0.686043	1.094248	1.114533
