data_functionalizedCrystal
_audit_creation_method	'MofGen! by Chris Wilmer'
_symmetry_space_group_name_H-M	'P1'
_symmetry_Int_Tables_number	1
_symmetry_cell_setting	triclinic
loop_
_symmetry_equiv_pos_as_xyz
  x,y,z
_cell_length_a	17.077404
_cell_length_b	16.625545
_cell_length_c	17.077396
_cell_angle_alpha	90.027926
_cell_angle_beta	90.021444
_cell_angle_gamma	90.023805
loop_
_atom_site_label
_atom_site_type_symbol
_atom_site_fract_x
_atom_site_fract_y
_atom_site_fract_z
Zn1	Zn	1.200040	-0.321039	0.443886
Zn2	Zn	1.533373	0.012294	0.777220
Zn3	Zn	1.866707	0.345627	1.110553
Zn4	Zn	1.199941	-0.455882	0.312622
Zn5	Zn	1.533274	-0.122549	0.645955
Zn6	Zn	1.866608	0.210785	0.979288
Zn7	Zn	1.068772	-0.321063	0.312630
Zn8	Zn	1.402105	0.012270	0.645963
Zn9	Zn	1.735439	0.345604	0.979297
Zn10	Zn	1.068734	-0.455830	0.443841
Zn11	Zn	1.402067	-0.122496	0.777174
Zn12	Zn	1.735400	0.210837	1.110507
O13	O	1.134372	-0.388453	0.378245
O14	O	1.467705	-0.055120	0.711578
O15	O	1.801038	0.278213	1.044911
O16	O	1.309874	-0.338939	0.426490
O17	O	1.643207	-0.005605	0.759823
O18	O	1.976540	0.327728	1.093156
O19	O	1.182516	-0.438030	0.202776
O20	O	1.515849	-0.104697	0.536109
O21	O	1.849182	0.228637	0.869442
O22	O	1.086242	-0.208227	0.330064
O23	O	1.419576	0.125106	0.663397
O24	O	1.752909	0.458439	0.996731
O25	O	1.309801	-0.438007	0.330050
O26	O	1.643134	-0.104674	0.663383
O27	O	1.976468	0.228660	0.996717
O28	O	1.182684	-0.208210	0.426497
O29	O	1.516018	0.125123	0.759831
O30	O	1.849351	0.458457	1.093164
O31	O	1.086146	-0.338979	0.202782
O32	O	1.419480	-0.005646	0.536115
O33	O	1.752813	0.327688	0.869449
O34	O	0.958920	-0.338928	0.330020
O35	O	1.292253	-0.005595	0.663353
O36	O	1.625587	0.327739	0.996686
O37	O	1.086177	-0.437917	0.553694
O38	O	1.419511	-0.104584	0.887027
O39	O	1.752844	0.228749	1.220361
O40	O	0.958892	-0.437940	0.426420
O41	O	1.292225	-0.104607	0.759753
O42	O	1.625559	0.228726	1.093086
O43	O	1.182647	-0.338888	0.553727
O44	O	1.515981	-0.005554	0.887061
O45	O	1.849314	0.327779	1.220394
O46	O	1.182479	-0.568707	0.330006
O47	O	1.515812	-0.235374	0.663339
O48	O	1.849145	0.097959	0.996672
O49	O	1.086081	-0.568669	0.426412
O50	O	1.419415	-0.235336	0.759745
O51	O	1.752748	0.097998	1.093078
C52	C	0.930424	-0.388432	0.378216
C53	C	1.263757	-0.055098	0.711549
C54	C	1.597090	0.278235	1.044883
C55	C	0.843174	-0.388442	0.378223
C56	C	1.176507	-0.055108	0.711556
C57	C	1.509841	0.278225	1.044889
C58	C	0.467395	-0.336983	0.428570
C59	C	0.800728	-0.003650	0.761903
C60	C	1.134061	0.329683	1.095236
C61	C	0.549375	-0.336978	0.428561
C62	C	0.882708	-0.003644	0.761894
C63	C	1.216042	0.329689	1.095228
C64	C	0.590325	-0.388470	0.378264
C65	C	0.923658	-0.055137	0.711598
C66	C	1.256992	0.278196	1.044931
C67	C	0.549290	-0.439978	0.327979
C68	C	0.882624	-0.106645	0.661312
C69	C	1.215957	0.226688	0.994646
C70	C	0.467312	-0.439988	0.327992
C71	C	0.800645	-0.106654	0.661325
C72	C	1.133978	0.226679	0.994659
C73	C	0.720161	-0.439954	0.327954
C74	C	1.053494	-0.106621	0.661287
C75	C	1.386827	0.226713	0.994620
C76	C	0.802145	-0.439944	0.327939
C77	C	1.135478	-0.106610	0.661272
C78	C	1.468812	0.226723	0.994606
C79	C	0.802224	-0.336944	0.428523
C80	C	1.135557	-0.003611	0.761856
C81	C	1.468891	0.329723	1.095189
C82	C	0.720245	-0.336953	0.428536
C83	C	1.053578	-0.003620	0.761869
C84	C	1.386912	0.329713	1.095202
C85	C	0.679216	-0.388460	0.378249
C86	C	1.012549	-0.055127	0.711582
C87	C	1.345883	0.278206	1.044916
C88	C	1.134286	-0.597944	0.378220
C89	C	1.467620	-0.264611	0.711553
C90	C	1.800953	0.068722	1.044887
C91	C	1.134322	-0.687565	0.378236
C92	C	1.467655	-0.354232	0.711569
C93	C	1.800988	-0.020899	1.044902
C94	C	1.134352	-0.760348	0.378251
C95	C	1.467686	-0.427015	0.711585
C96	C	1.801019	-0.093681	1.044918
C97	C	1.134398	-0.851656	0.378269
C98	C	1.467731	-0.518323	0.711602
C99	C	1.801065	-0.184990	1.044935
C100	C	1.134439	-0.924433	0.378279
C101	C	1.467772	-0.591099	0.711612
C102	C	1.801105	-0.257766	1.044945
C103	C	1.134484	-1.015747	0.378295
C104	C	1.467817	-0.682414	0.711628
C105	C	1.801150	-0.349080	1.044961
C106	C	1.339116	-0.388476	0.378274
C107	C	1.672449	-0.055143	0.711607
C108	C	2.005783	0.278191	1.044941
C109	C	1.426366	-0.388486	0.378286
C110	C	1.759699	-0.055152	0.711620
C111	C	2.093032	0.278181	1.044953
C112	C	1.134419	-0.388394	0.582989
C113	C	1.467753	-0.055061	0.916322
C114	C	1.801086	0.278273	1.249656
C115	C	1.134439	-0.388369	0.670239
C116	C	1.467773	-0.055035	1.003572
C117	C	1.801106	0.278298	1.336906
C118	C	1.134479	-0.178145	0.378287
C119	C	1.467812	0.155189	0.711620
C120	C	1.801145	0.488522	1.044953
C121	C	1.134524	-0.088523	0.378305
C122	C	1.467858	0.244810	0.711638
C123	C	1.801191	0.578143	1.044971
C124	C	1.134370	-0.388454	0.174297
C125	C	1.467703	-0.055121	0.507630
C126	C	1.801036	0.278212	0.840964
C127	C	1.134501	-0.388253	0.087047
C128	C	1.467835	-0.054919	0.420381
C129	C	1.801168	0.278414	0.753714
C130	C	1.184673	-0.336800	0.711248
C131	C	1.518007	-0.003466	1.044581
C132	C	1.851340	0.329867	1.377914
C133	C	1.184683	-0.336773	0.793228
C134	C	1.518016	-0.003439	1.126562
C135	C	1.851349	0.329894	1.459895
C136	C	1.134462	-0.388320	0.834198
C137	C	1.467795	-0.054986	1.167532
C138	C	1.801128	0.278347	1.500865
C139	C	1.084222	-0.439891	0.793184
C140	C	1.417556	-0.106558	1.126517
C141	C	1.750889	0.226776	1.459850
C142	C	1.084209	-0.439913	0.711205
C143	C	1.417543	-0.106580	1.044538
C144	C	1.750876	0.226753	1.377871
C145	C	1.084254	-0.439843	0.964054
C146	C	1.417587	-0.106509	1.297387
C147	C	1.750921	0.226824	1.630721
C148	C	1.084268	-0.439822	1.046039
C149	C	1.417601	-0.106488	1.379372
C150	C	1.750934	0.226845	1.712705
C151	C	1.184727	-0.336702	1.046077
C152	C	1.518060	-0.003369	1.379411
C153	C	1.851394	0.329965	1.712744
C154	C	1.184714	-0.336724	0.964098
C155	C	1.518048	-0.003391	1.297432
C156	C	1.851381	0.329942	1.630765
C157	C	1.134476	-0.388297	0.923089
C158	C	1.467809	-0.054964	1.256423
C159	C	1.801142	0.278370	1.589756
H160	H	0.686906	-0.295020	0.469488
H161	H	1.020239	0.038313	0.802822
H162	H	1.353572	0.371647	1.136155
H163	H	0.433907	-0.481927	0.287048
H164	H	0.767240	-0.148594	0.620381
H165	H	1.100574	0.184739	0.953714
F166	F	0.423820	-0.282172	0.482099
F167	F	0.757153	0.051161	0.815432
F168	F	1.090486	0.384494	1.148766
H169	H	1.043371	-0.481794	1.079394
H170	H	1.376705	-0.148461	1.412728
H171	H	1.710038	0.184873	1.746061
F172	F	0.593037	-0.282166	0.482083
F173	F	0.926371	0.051168	0.815416
F174	F	1.259704	0.384501	1.148750
H175	H	0.582639	-0.481908	0.287030
H176	H	0.915972	-0.148574	0.620363
H177	H	1.249305	0.184759	0.953696
F178	F	1.030782	-0.494731	0.920411
F179	F	1.364116	-0.161397	1.253744
F180	F	1.697449	0.171936	1.587078
F181	F	1.030770	-0.494748	0.836789
F182	F	1.364103	-0.161415	1.170123
F183	F	1.697437	0.171918	1.503456
H184	H	0.835634	-0.295004	0.469467
H185	H	1.168967	0.038329	0.802800
H186	H	1.502300	0.371663	1.136133
F187	F	1.030742	-0.494798	0.667561
F188	F	1.364075	-0.161465	1.000894
F189	F	1.697408	0.171869	1.334227
H190	H	1.225632	-0.294708	1.079471
H191	H	1.558965	0.038625	1.412804
H192	H	1.892299	0.371958	1.746138
H193	H	0.686757	-0.481900	0.287008
H194	H	1.020091	-0.148566	0.620341
H195	H	1.353424	0.184767	0.953675
F196	F	0.845726	-0.494766	0.274425
F197	F	1.179059	-0.161432	0.607759
F198	F	1.512392	0.171901	0.941092
H199	H	1.225572	-0.294827	0.677896
H200	H	1.558905	0.038507	1.011229
H201	H	1.892238	0.371840	1.344562
H202	H	1.225590	-0.294782	0.826614
H203	H	1.558923	0.038551	1.159947
H204	H	1.892257	0.371885	1.493281
H205	H	1.225613	-0.294755	0.930743
H206	H	1.558946	0.038579	1.264076
H207	H	1.892280	0.371912	1.597409
