data_functionalizedCrystal
_audit_creation_method	'MofGen! by Chris Wilmer'
_symmetry_space_group_name_H-M	'P1'
_symmetry_Int_Tables_number	1
_symmetry_cell_setting	triclinic
loop_
_symmetry_equiv_pos_as_xyz
  x,y,z
_cell_length_a	18.101395
_cell_length_b	13.032951
_cell_length_c	13.034296
_cell_angle_alpha	105.187268
_cell_angle_beta	82.790450
_cell_angle_gamma	97.166904
loop_
_atom_site_label
_atom_site_type_symbol
_atom_site_fract_x
_atom_site_fract_y
_atom_site_fract_z
Zn1	Zn	-0.375478	-1.700078	-0.806483
Zn2	Zn	-0.513277	-1.677345	-0.628847
Zn3	Zn	-0.375478	-1.499881	-0.606359
Zn4	Zn	-0.485294	-1.522385	-0.783897
O5	O	-0.437382	-1.599922	-0.706397
O6	O	-0.405468	-1.845698	-0.801783
O7	O	-0.506709	-1.634872	-0.477222
O8	O	-0.271850	-1.526533	-0.632947
O9	O	-0.506709	-1.828995	-0.671274
O10	O	-0.271850	-1.673618	-0.779977
O11	O	-0.405469	-1.504490	-0.460700
O12	O	-0.378335	-1.354231	-0.611046
O13	O	-0.459015	-1.564889	-0.935536
O14	O	-0.459016	-1.370765	-0.741483
O15	O	-0.378333	-1.695439	-0.952129
O16	O	-0.613193	-1.656694	-0.649374
O17	O	-0.592634	-1.542845	-0.763289
C18	C	-0.415639	-1.323959	-0.671374
C19	C	-0.406353	-1.205904	-0.656416
C20	C	-0.442213	-1.161467	-0.714189
C21	C	-0.432616	-1.039451	-0.698731
C22	C	-0.629784	-1.599776	-0.706347
C23	C	-0.712099	-1.599815	-0.706374
C24	C	-1.011204	-1.600056	-0.706461
C25	C	-0.966973	-1.528642	-0.778361
C26	C	-0.881344	-1.528220	-0.778054
C27	C	-0.862814	-1.599937	-0.706419
C28	C	-0.900379	-1.555399	-0.590632
C29	C	-0.985944	-1.554934	-0.591057
C30	C	-0.986141	-1.716061	-0.749385
C31	C	-0.900245	-1.715713	-0.751756
C32	C	-0.778951	-1.599870	-0.706388
C33	C	-1.095067	-1.600119	-0.706484
C34	C	-0.244229	-1.600101	-0.706473
C35	C	-0.161919	-1.600177	-0.706506
C36	C	-0.415553	-1.635210	-0.983451
C37	C	-0.406251	-1.650248	-1.101516
C38	C	-0.459202	-0.876962	-0.741549
C39	C	-0.468481	-0.995018	-0.756511
C40	C	-0.442023	-1.592358	-1.145942
C41	C	-0.432410	-1.607899	-1.267967
C42	C	-0.459077	-1.564833	-0.430428
C43	C	-0.468187	-1.550001	-0.312390
H44	H	-0.394805	-0.987167	-0.637826
H45	H	-0.505936	-1.488934	-1.260092
H46	H	-0.506284	-1.047302	-0.817427
Br47	Br	-0.858513	-1.771266	-0.893902
H48	H	-0.368545	-1.153616	-0.595516
H49	H	-0.855248	-1.557734	-0.863464
Br50	Br	-0.992772	-1.577569	-0.921130
H51	H	-1.001429	-1.469711	-0.556351
H52	H	-0.889508	-1.605150	-0.534978
H53	H	-0.368510	-1.711318	-1.153820
H54	H	-0.888258	-1.772877	-0.704339
H55	H	-0.983515	-1.443480	-0.749108
Br56	Br	-0.857317	-1.414710	-0.532239
H57	H	-0.855856	-1.442521	-0.748498
H58	H	-1.016138	-1.603921	-0.534894
Br59	Br	-0.505229	-1.248606	-0.815703
H60	H	-1.003556	-1.753892	-0.833127
Br61	Br	-1.035764	-1.805041	-0.662410
Br62	Br	-0.504937	-1.490577	-1.058777
H63	H	-0.394666	-1.668973	-1.320268
