data_functionalizedCrystal
_audit_creation_method	'MofGen! by Chris Wilmer'
_symmetry_space_group_name_H-M	'P1'
_symmetry_Int_Tables_number	1
_symmetry_cell_setting	triclinic
loop_
_symmetry_equiv_pos_as_xyz
  x,y,z
_cell_length_a	16.956995
_cell_length_b	16.053802
_cell_length_c	10.654550
_cell_angle_alpha	92.590660
_cell_angle_beta	99.730299
_cell_angle_gamma	92.392061
loop_
_atom_site_label
_atom_site_type_symbol
_atom_site_fract_x
_atom_site_fract_y
_atom_site_fract_z
O1	O	1.061660	0.069487	-0.046380
O2	O	0.829746	0.069476	-0.090443
O3	O	0.951035	0.069476	0.114954
O4	O	0.940371	0.069486	-0.251777
O5	O	0.944359	-0.069383	0.103692
O6	O	0.823070	-0.069383	-0.101705
O7	O	1.054984	-0.069372	-0.057642
Zn8	Zn	0.937967	-0.091425	-0.081461
Zn9	Zn	0.946763	0.091528	-0.066623
O10	O	0.933695	-0.069373	-0.263039
C11	C	0.796712	0.000045	-0.098330
C12	C	0.708229	0.000041	-0.105037
C13	C	0.209208	0.000073	-0.155212
C14	C	0.292348	0.000072	-0.148900
C15	C	0.342780	0.000063	-0.030422
C16	C	0.310069	0.000062	0.081752
C17	C	0.226931	0.000069	0.075440
C18	C	0.592379	0.000047	0.000824
C19	C	0.675523	0.000038	0.007128
C20	C	0.657796	0.000049	-0.223525
C21	C	0.574656	0.000051	-0.229828
C22	C	0.541952	0.000055	-0.117653
N23	N	0.427763	0.000059	-0.023968
N24	N	0.456971	0.000065	-0.124108
N25	N	0.931969	-0.216285	-0.091587
C26	C	0.983597	-0.259979	-0.004217
C27	C	0.979409	-0.347385	-0.011311
C28	C	0.923597	-0.391097	-0.105781
C29	C	0.871964	-0.347397	-0.193155
C30	C	0.876148	-0.259992	-0.186054
C31	C	0.905318	-0.652507	-0.136761
C32	C	0.901139	-0.739918	-0.143857
C33	C	1.008584	-0.739900	0.037989
C34	C	1.012767	-0.652493	0.045076
C35	C	0.961131	-0.608801	-0.042293
N36	N	0.919317	-0.480441	-0.113037
N37	N	0.965408	-0.519459	-0.035031
C38	C	1.088018	0.000061	-0.049755
C39	C	1.176502	0.000070	-0.043047
C40	C	0.946914	0.000047	0.156029
C41	C	0.944571	0.000048	0.295197
N42	N	0.952767	0.216388	-0.056487
C43	C	0.937816	0.000058	-0.304114
C44	C	0.940159	0.000063	-0.443281
C45	C	1.015984	0.000052	0.383076
C46	C	1.013779	0.000062	0.513838
C47	C	0.868741	0.000061	0.468829
C48	C	0.870947	0.000057	0.338070
H49	H	0.351139	0.000060	0.178220
O50	O	1.066701	-0.610131	0.137361
C51	C	1.025709	-0.559877	0.214418
H52	H	0.964422	-0.546616	0.158654
H53	H	1.061781	-0.498479	0.243475
H54	H	1.017778	-0.593898	0.303433
H55	H	0.565763	0.000048	0.092164
O56	O	1.037731	-0.217577	0.087737
C57	C	1.023060	-0.238997	0.208890
H58	H	0.958096	-0.263029	0.200951
H59	H	1.034636	-0.181538	0.277528
H60	H	1.064582	-0.289742	0.246159
O61	O	0.801620	-0.000057	0.252563
C62	C	0.795088	-0.071984	0.169772
H63	H	0.857228	-0.095963	0.167786
H64	H	0.766732	-0.055809	0.069606
H65	H	0.756024	-0.122341	0.204974
H66	H	0.318973	0.000082	-0.240237
O67	O	0.160337	0.000120	-0.270405
C68	C	0.207036	0.000103	-0.368051
H69	H	0.270165	0.026384	-0.327604
H70	H	0.178763	0.040427	-0.447257
H71	H	0.209942	-0.066512	-0.408253
O72	O	1.058652	-0.782473	0.122795
C73	C	1.043008	-0.868992	0.096258
H74	H	0.979338	-0.880945	0.041856
H75	H	1.049760	-0.902217	0.189524
H76	H	1.087275	-0.893776	0.035937
O77	O	0.826078	-0.217582	-0.271096
C78	C	0.838677	-0.238936	-0.395748
H79	H	0.901334	-0.262945	-0.391751
H80	H	0.832608	-0.181450	-0.455010
H81	H	0.792280	-0.289680	-0.441279
H82	H	1.075934	0.000047	0.348174
H83	H	0.855688	-0.775504	-0.220791
O84	O	1.083136	0.000212	0.599263
C85	C	1.089653	0.072123	0.682084
H86	H	1.051584	0.122386	0.633977
H87	H	1.154928	0.096263	0.705419
H88	H	1.067719	0.055871	0.773826
H89	H	0.716585	0.000034	0.103613
H90	H	0.863275	-0.616939	-0.207903
H91	H	0.808798	0.000067	0.503753
O92	O	0.817818	-0.389985	-0.284879
C93	C	0.825182	-0.476501	-0.272396
H94	H	0.887710	-0.488426	-0.219937
H95	H	0.815249	-0.509710	-0.371059
H96	H	0.778542	-0.501327	-0.216103
H97	H	0.533599	0.000061	-0.326305
H98	H	0.200304	0.000069	0.166777
H99	H	0.684432	0.000047	-0.314851
H100	H	1.021448	-0.382960	0.059833
