data_functionalizedCrystal
_audit_creation_method	'MofGen! by Chris Wilmer'
_symmetry_space_group_name_H-M	'P1'
_symmetry_Int_Tables_number	1
_symmetry_cell_setting	triclinic
loop_
_symmetry_equiv_pos_as_xyz
  x,y,z
_cell_length_a	11.792254
_cell_length_b	14.519709
_cell_length_c	10.868271
_cell_angle_alpha	89.993918
_cell_angle_beta	89.995741
_cell_angle_gamma	83.939371
loop_
_atom_site_label
_atom_site_type_symbol
_atom_site_fract_x
_atom_site_fract_y
_atom_site_fract_z
O1	O	1.506199	0.126460	-0.102324
O2	O	1.175787	0.139475	-0.102327
O3	O	1.349754	-0.001238	-0.102314
O4	O	1.332233	0.267174	-0.102337
O5	O	1.349739	-0.001244	0.102330
O6	O	1.175773	0.139470	0.102318
O7	O	1.506184	0.126455	0.102321
Zn8	Zn	1.340977	0.132961	0.134811
Zn9	Zn	1.340995	0.132968	-0.134817
O10	O	1.332218	0.267168	0.102308
C11	C	1.133494	0.138652	-0.000005
C12	C	1.007495	0.136199	-0.000006
C13	C	0.905169	0.134205	-0.000011
C14	C	0.776796	0.131711	-0.000011
C15	C	1.348930	-0.035604	0.000008
C16	C	1.346483	-0.137994	0.000009
C17	C	1.337475	-0.512923	-0.000023
C18	C	1.339976	-0.408606	-0.000014
C19	C	1.341979	-0.325462	-0.000006
C20	C	1.344481	-0.221138	0.000001
C21	C	1.548478	0.127277	-0.000004
C22	C	1.674477	0.129731	-0.000011
C23	C	1.333042	0.301534	-0.000017
C24	C	1.335489	0.403924	-0.000026
N25	N	1.340972	0.132956	0.318825
N26	N	1.341009	0.132967	-0.318831
C27	C	1.340989	0.132967	0.569831
C28	C	1.340976	0.132963	0.430153
