data_functionalizedCrystal
_audit_creation_method	'MofGen! by Chris Wilmer'
_symmetry_space_group_name_H-M	'P1'
_symmetry_Int_Tables_number	1
_symmetry_cell_setting	triclinic
loop_
_symmetry_equiv_pos_as_xyz
  x,y,z
_cell_length_a	10.723024
_cell_length_b	17.038272
_cell_length_c	9.198806
_cell_angle_alpha	89.996565
_cell_angle_beta	89.996352
_cell_angle_gamma	87.789713
loop_
_atom_site_label
_atom_site_type_symbol
_atom_site_fract_x
_atom_site_fract_y
_atom_site_fract_z
O1	O	1.667337	0.109720	-0.120885
O2	O	2.167337	0.609720	0.379115
O3	O	1.305156	0.120222	-0.120890
O4	O	1.805156	0.620222	0.379110
O5	O	1.484094	0.001144	-0.120876
O6	O	1.984094	0.501144	0.379124
O7	O	1.488399	0.228799	-0.120899
O8	O	1.988399	0.728799	0.379101
O9	O	1.484079	0.001144	0.120909
O10	O	1.984079	0.501144	0.620909
O11	O	1.305141	0.120222	0.120895
O12	O	1.805141	0.620222	0.620895
O13	O	1.667322	0.109720	0.120900
O14	O	2.167322	0.609720	0.620900
Cu15	Cu	1.486230	0.114971	0.142975
Cu16	Cu	1.986230	0.614971	0.642975
Cu17	Cu	1.486248	0.114971	-0.142964
Cu18	Cu	1.986248	0.614971	0.357036
O19	O	1.488384	0.228798	0.120886
O20	O	1.988384	0.728798	0.620886
C21	C	1.258578	0.119458	0.000002
C22	C	1.758578	0.619458	0.500002
C23	C	1.119813	0.117171	0.000000
C24	C	1.619813	0.617171	0.500000
C25	C	1.050993	0.183801	-0.000007
C26	C	1.550993	0.683801	0.499993
C27	C	0.907571	0.181440	-0.000009
C28	C	1.407571	0.681440	0.499991
C29	C	1.480171	-0.028006	0.000016
C30	C	1.980171	0.471994	0.500016
C31	C	1.468489	-0.114864	0.000016
C32	C	1.968489	0.385136	0.500016
C33	C	1.575744	-0.164385	0.000019
C34	C	2.075744	0.335615	0.500019
C35	C	1.564760	-0.245996	0.000005
C36	C	2.064760	0.254004	0.500005
C37	C	1.446520	-0.278084	-0.000002
C38	C	1.946520	0.221916	0.499998
C39	C	1.339256	-0.228557	-0.000009
C40	C	1.839256	0.271443	0.499991
C41	C	1.350241	-0.146947	-0.000006
C42	C	1.850241	0.353053	0.499994
C43	C	1.407711	-0.524057	-0.000022
C44	C	1.907711	-0.024057	0.499978
C45	C	1.396734	-0.605673	-0.000021
C46	C	1.896734	-0.105673	0.499979
C47	C	1.622239	-0.623107	-0.000010
C48	C	2.122239	-0.123107	0.499990
C49	C	1.633214	-0.541495	0.000002
C50	C	2.133214	-0.041495	0.500002
C51	C	1.525950	-0.491974	-0.000013
C52	C	2.025950	0.008026	0.499987
C53	C	1.435289	-0.361504	-0.000011
C54	C	1.935289	0.138496	0.499989
C55	C	1.537182	-0.408556	-0.000014
C56	C	2.037182	0.091444	0.499986
C57	C	1.713900	0.110484	0.000005
C58	C	2.213900	0.610484	0.500005
C59	C	1.852666	0.112771	-0.000003
C60	C	2.352666	0.612771	0.499997
C61	C	1.492307	0.257948	-0.000009
C62	C	1.992307	0.757948	0.499991
C63	C	1.503989	0.344806	-0.000018
C64	C	2.003989	0.844806	0.499982
N65	N	1.486226	0.114970	0.344089
N66	N	1.986226	0.614970	0.844089
N67	N	1.486261	0.114966	-0.344078
N68	N	1.986261	0.614966	0.155922
C69	C	1.561337	0.064752	0.416291
C70	C	2.061337	0.564752	0.916291
C71	C	1.561356	0.064749	0.583704
C72	C	2.061356	0.564749	1.083704
H73	H	1.072552	0.058378	-0.000031
H74	H	1.572552	0.558378	0.499969
O75	O	1.113587	0.261682	-0.000012
O76	O	1.613587	0.761682	0.499988
H77	H	1.085122	0.295422	0.098539
H78	H	1.585122	0.795422	0.598539
O79	O	1.646463	0.007785	0.333999
O80	O	2.146463	0.507785	0.833999
H81	H	1.710738	0.040969	0.264619
H82	H	2.210738	0.540969	0.764619
H83	H	1.262902	-0.106627	-0.000008
H84	H	1.762902	0.393373	0.499992
H85	H	1.633453	-0.382426	-0.000040
H86	H	2.133453	0.117574	0.499960
O87	O	1.680449	-0.299405	0.000032
O88	O	2.180449	0.200595	0.500032
H89	H	1.736646	-0.287911	-0.098498
H90	H	2.236646	0.212089	0.401502
H91	H	1.672028	-0.138265	0.000033
H92	H	2.172028	0.361735	0.500033
H93	H	1.421957	0.157965	0.593840
H94	H	1.921957	0.657965	1.093840
H95	H	0.848415	0.238480	-0.000021
H96	H	1.348415	0.738480	0.499979
O97	O	1.760744	-0.506884	-0.000026
O98	O	2.260744	-0.006884	0.499974
H99	H	1.833483	-0.555031	-0.000048
H100	H	2.333483	-0.055031	0.499952
H101	H	1.421931	0.157959	0.406212
H102	H	1.921931	0.657959	0.906212
H103	H	1.625666	0.021758	0.645795
H104	H	2.125666	0.521758	1.145795
O105	O	1.307758	-0.396113	-0.000011
O106	O	1.807758	0.103887	0.499989
H107	H	1.255794	-0.376271	0.098535
H108	H	1.755794	0.123729	0.598535
H109	H	0.911814	0.055727	-0.000005
H110	H	1.411814	0.555727	0.499995
H111	H	1.709567	-0.663435	-0.000001
H112	H	2.209567	-0.163435	0.499999
O113	O	1.211724	-0.263166	0.000000
O114	O	1.711724	0.236834	0.500000
H115	H	1.201331	-0.299935	-0.098537
H116	H	1.701331	0.200065	0.401463
O117	O	1.269198	-0.640287	-0.000045
O118	O	1.769198	-0.140287	0.499955
H119	H	1.196454	-0.592143	-0.000071
H120	H	1.696454	-0.092143	0.499929
H121	H	1.320369	-0.483747	-0.000034
H122	H	1.820369	0.016253	0.499966
