data_functionalizedCrystal
_audit_creation_method	'MofGen! by Chris Wilmer'
_symmetry_space_group_name_H-M	'P1'
_symmetry_Int_Tables_number	1
_symmetry_cell_setting	triclinic
loop_
_symmetry_equiv_pos_as_xyz
  x,y,z
_cell_length_a	10.654562
_cell_length_b	15.944493
_cell_length_c	9.130313
_cell_angle_alpha	89.993981
_cell_angle_beta	90.005872
_cell_angle_gamma	83.982574
loop_
_atom_site_label
_atom_site_type_symbol
_atom_site_fract_x
_atom_site_fract_y
_atom_site_fract_z
O1	O	1.666266	0.118024	0.121875
O2	O	1.300641	0.129254	0.121854
O3	O	1.493476	0.001419	0.121877
O4	O	1.473431	0.245859	0.121852
O5	O	1.493463	0.001427	-0.121722
O6	O	1.300628	0.129261	-0.121744
O7	O	1.666253	0.118032	-0.121724
Cu8	Cu	1.483439	0.123647	-0.143977
Cu9	Cu	1.483455	0.123638	0.144107
O10	O	1.473418	0.245866	-0.121747
C11	C	1.253848	0.128431	0.000053
C12	C	1.114438	0.125957	0.000046
C13	C	1.048915	0.124808	-0.132728
C14	C	0.917924	0.122490	-0.132703
C15	C	0.917989	0.122476	0.132881
C16	C	1.048979	0.124787	0.132855
C17	C	1.048876	0.124820	-0.286062
C18	C	0.917885	0.122502	-0.286037
C19	C	1.492650	-0.029877	0.000084
C20	C	1.490194	-0.123140	0.000102
C21	C	1.603701	-0.358239	0.000081
C22	C	1.542498	-0.409167	0.120184
C23	C	1.485643	-0.293887	0.000084
C24	C	1.542457	-0.409136	-0.119986
C25	C	1.481256	-0.458822	0.000060
C26	C	1.424471	-0.343587	0.120286
C27	C	1.424448	-0.343552	-0.119991
C28	C	1.363158	-0.394447	0.000141
C29	C	1.488174	-0.198872	0.000099
C30	C	1.478715	-0.553834	0.000056
C31	C	1.713047	0.118855	0.000081
C32	C	1.852456	0.121328	0.000097
C33	C	1.474244	0.277162	0.000049
C34	C	1.476700	0.370425	0.000040
N35	N	1.483437	0.123653	-0.346600
C36	C	1.559585	0.175071	-0.423267
C37	C	1.559604	0.175056	-0.576603
C38	C	1.407316	0.072202	-0.576592
C39	C	1.407305	0.072214	-0.423258
C40	C	1.647503	0.234455	-0.423274
C41	C	1.647522	0.234440	-0.576611
N42	N	1.483467	0.123626	0.346730
H43	H	1.077637	0.186082	-0.333645
H44	H	1.742462	0.208039	-0.624137
Cl45	Cl	1.347553	-0.299549	0.277226
Cl46	Cl	0.873424	0.028009	-0.359799
Cl47	Cl	0.835690	0.120995	0.299832
Cl48	Cl	1.347555	-0.299258	-0.276777
Cl49	Cl	1.131350	0.126213	0.299778
Cl50	Cl	1.121490	0.035202	-0.376961
H51	H	0.870826	0.180556	-0.344908
Cl52	Cl	1.585072	0.332080	-0.349885
Cl53	Cl	1.760702	-0.333192	0.000270
Cl54	Cl	1.619480	-0.453418	0.276959
Cl55	Cl	1.311611	0.007540	-0.672974
Cl56	Cl	1.206034	-0.419245	0.000228
Cl57	Cl	1.619458	-0.453348	-0.276745
Cl58	Cl	1.311565	0.007577	-0.326881
H59	H	1.746827	0.213821	-0.381635
H60	H	1.615712	0.300675	-0.618260
