data_functionalizedCrystal
_audit_creation_method	'MofGen! by Chris Wilmer'
_symmetry_space_group_name_H-M	'P1'
_symmetry_Int_Tables_number	1
_symmetry_cell_setting	triclinic
loop_
_symmetry_equiv_pos_as_xyz
  x,y,z
_cell_length_a	12.827893
_cell_length_b	16.625546
_cell_length_c	12.827885
_cell_angle_alpha	89.964876
_cell_angle_beta	89.980728
_cell_angle_gamma	90.022439
loop_
_atom_site_label
_atom_site_type_symbol
_atom_site_fract_x
_atom_site_fract_y
_atom_site_fract_z
Zn1	Zn	1.597618	-0.320963	-0.590810
Zn2	Zn	2.097618	0.179037	-0.090810
Zn3	Zn	1.597491	-0.455817	-0.416054
Zn4	Zn	2.097491	0.044183	0.083946
Zn5	Zn	1.422860	-0.321002	-0.416084
Zn6	Zn	1.922860	0.178998	0.083916
Zn7	Zn	1.422823	-0.455757	-0.590754
Zn8	Zn	1.922823	0.044243	-0.090754
O9	O	1.510198	-0.388385	-0.503425
O10	O	2.010198	0.111615	-0.003425
O11	O	1.743837	-0.338861	-0.567639
O12	O	2.243837	0.161139	-0.067639
O13	O	1.574287	-0.437976	-0.269822
O14	O	2.074287	0.062024	0.230178
O15	O	1.446110	-0.208165	-0.439297
O16	O	1.946110	0.291835	0.060703
O17	O	1.743744	-0.437937	-0.439247
O18	O	2.243744	0.062063	0.060753
O19	O	1.574505	-0.208136	-0.567668
O20	O	2.074505	0.291864	-0.067668
O21	O	1.445987	-0.338928	-0.269843
O22	O	1.945987	0.161072	0.230157
O23	O	1.276619	-0.338869	-0.439243
O24	O	1.776619	0.161131	0.060757
O25	O	1.446048	-0.437835	-0.736997
O26	O	1.946048	0.062165	-0.236997
O27	O	1.276592	-0.437873	-0.567572
O28	O	1.776592	0.062127	-0.067572
O29	O	1.574469	-0.338802	-0.737039
O30	O	2.074469	0.161198	-0.237039
O31	O	1.574252	-0.568642	-0.439192
O32	O	2.074252	-0.068642	0.060808
O33	O	1.445925	-0.568598	-0.567544
O34	O	1.945925	-0.068598	-0.067544
C35	C	1.238688	-0.388370	-0.503405
C36	C	1.738688	0.111630	-0.003405
C37	C	1.122535	-0.388382	-0.503422
C38	C	1.622535	0.111618	-0.003422
C39	C	1.070765	-0.437449	-0.566825
C40	C	1.570765	0.062551	-0.066825
C41	C	0.950714	-0.437464	-0.566844
C42	C	1.450714	0.062536	-0.066844
C43	C	1.510099	-0.597876	-0.503382
C44	C	2.010099	-0.097876	-0.003382
C45	C	1.510152	-0.687497	-0.503398
C46	C	2.010152	-0.187497	-0.003398
C47	C	1.510335	-1.015673	-0.503507
C48	C	2.010335	-0.515673	-0.003507
C49	C	1.510281	-0.924364	-0.503479
C50	C	2.010281	-0.424364	-0.003479
C51	C	1.510243	-0.851588	-0.503452
C52	C	2.010243	-0.351588	-0.003452
C53	C	1.510190	-0.760274	-0.503425
C54	C	2.010190	-0.260274	-0.003425
C55	C	1.782768	-0.388401	-0.503446
C56	C	2.282768	0.111599	-0.003446
C57	C	1.898921	-0.388408	-0.503455
C58	C	2.398921	0.111592	-0.003455
C59	C	1.510269	-0.388308	-0.775996
C60	C	2.010269	0.111692	-0.275996
C61	C	1.510299	-0.388275	-0.892149
C62	C	2.010299	0.111725	-0.392149
C63	C	1.510326	-0.178076	-0.503492
C64	C	2.010326	0.321924	-0.003492
C65	C	1.510380	-0.088455	-0.503521
C66	C	2.010380	0.411545	-0.003521
C67	C	1.573853	-0.339261	-0.943954
C68	C	2.073853	0.160739	-0.443954
C69	C	1.573886	-0.339225	-1.064004
C70	C	2.073886	0.160775	-0.564004
C71	C	1.510187	-0.388404	-0.231915
C72	C	2.010187	0.111596	0.268085
C73	C	1.510359	-0.388210	-0.115763
C74	C	2.010359	0.111790	0.384237
H75	H	0.943436	-0.346401	-0.449166
H76	H	1.443436	0.153599	0.050834
H77	H	1.628236	-0.297321	-0.899429
H78	H	2.128236	0.202679	-0.399429
C79	C	0.999613	-0.377166	-0.362996
C80	C	1.499613	0.122834	0.137004
C81	C	1.062409	-0.331690	-0.430141
C82	C	1.562409	0.168310	0.069859
H83	H	0.962504	-0.342165	-0.317747
H84	H	1.462504	0.157835	0.182253
H85	H	0.951576	-0.407937	-0.402778
H86	H	1.451576	0.092063	0.097222
H87	H	1.042179	-0.412228	-0.322913
H88	H	1.542179	0.087772	0.177087
H89	H	1.019842	-0.296632	-0.470230
H90	H	1.519842	0.203368	0.029770
H91	H	1.110451	-0.300905	-0.390354
H92	H	1.610451	0.199095	0.109646
H93	H	1.628300	-0.297265	-1.108555
H94	H	2.128300	0.202735	-0.608555
C95	C	0.827912	-0.448718	-0.707294
C96	C	1.327912	0.051282	-0.207294
C97	C	0.890621	-0.494174	-0.640131
C98	C	1.390621	0.005826	-0.140131
H99	H	0.790818	-0.483731	-0.752543
H100	H	1.290818	0.016269	-0.252543
H101	H	0.779862	-0.417953	-0.667524
H102	H	1.279862	0.082047	-0.167524
H103	H	0.870534	-0.413651	-0.747375
H104	H	1.370534	0.086349	-0.247375
H105	H	0.847998	-0.529238	-0.600043
H106	H	1.347998	-0.029238	-0.100043
H107	H	0.938677	-0.524953	-0.679904
H108	H	1.438677	-0.024953	-0.179904
C109	C	1.495867	-0.496616	-1.014982
C110	C	1.995867	0.003384	-0.514982
C111	C	1.436878	-0.444897	-0.952240
C112	C	1.936878	0.055103	-0.452240
H113	H	1.450537	-0.531577	-1.052070
H114	H	1.950537	-0.031577	-0.552070
H115	H	1.535729	-0.465859	-1.063037
H116	H	2.035729	0.034141	-0.563037
H117	H	1.541328	-0.527496	-0.972383
H118	H	2.041328	-0.027496	-0.472383
H119	H	1.391422	-0.414012	-0.994840
H120	H	1.891422	0.085988	-0.494840
H121	H	1.396998	-0.475657	-0.904179
H122	H	1.896998	0.024343	-0.404179
C123	C	1.193710	-0.448677	-0.707231
C124	C	1.693710	0.051323	-0.207231
C125	C	1.130904	-0.494147	-0.640089
C126	C	1.630904	0.005853	-0.140089
H127	H	1.230840	-0.483683	-0.752457
H128	H	1.730840	0.016317	-0.252457
H129	H	1.151159	-0.413629	-0.747330
H130	H	1.651159	0.086371	-0.247330
H131	H	1.241740	-0.417893	-0.667438
H132	H	1.741740	0.082107	-0.167438
H133	H	1.082869	-0.524927	-0.679882
H134	H	1.582869	-0.024927	-0.179882
H135	H	1.173459	-0.529210	-0.599986
H136	H	1.673459	-0.029210	-0.099986
H137	H	1.455950	-0.430178	-1.071218
H138	H	1.955950	0.069822	-0.571218
