data_functionalizedCrystal
_audit_creation_method	'MofGen! by Chris Wilmer'
_symmetry_space_group_name_H-M	'P1'
_symmetry_Int_Tables_number	1
_symmetry_cell_setting	triclinic
loop_
_symmetry_equiv_pos_as_xyz
  x,y,z
_cell_length_a	11.792254
_cell_length_b	11.792241
_cell_length_c	9.198806
_cell_angle_alpha	89.996670
_cell_angle_beta	89.996104
_cell_angle_gamma	84.196007
loop_
_atom_site_label
_atom_site_type_symbol
_atom_site_fract_x
_atom_site_fract_y
_atom_site_fract_z
O1	O	1.506900	0.155634	-0.120892
O2	O	2.006900	0.655634	0.379108
O3	O	1.176560	0.171652	-0.120895
O4	O	1.676560	0.671652	0.379105
O5	O	1.349746	-0.001527	-0.120883
O6	O	1.849746	0.498473	0.379117
O7	O	1.333714	0.328813	-0.120904
O8	O	1.833714	0.828813	0.379096
O9	O	1.349733	-0.001528	0.120902
O10	O	1.849733	0.498472	0.620902
O11	O	1.176547	0.171651	0.120890
O12	O	1.676547	0.671651	0.620890
O13	O	1.506886	0.155633	0.120893
O14	O	2.006886	0.655633	0.620893
Cu15	Cu	1.341715	0.163642	0.142968
Cu16	Cu	1.841715	0.663642	0.642968
Cu17	Cu	1.341731	0.163643	-0.142970
Cu18	Cu	1.841731	0.663643	0.357030
O19	O	1.333700	0.328812	0.120881
O20	O	1.833700	0.828812	0.620881
C21	C	1.134263	0.170642	-0.000003
C22	C	1.634263	0.670642	0.499997
C23	C	1.008250	0.167622	-0.000004
C24	C	1.508250	0.667622	0.499996
C25	C	0.905913	0.165168	-0.000010
C26	C	1.405913	0.665168	0.499990
C27	C	0.777527	0.162100	-0.000011
C28	C	1.277527	0.662100	0.499989
C29	C	1.348732	-0.043819	0.000009
C30	C	1.848732	0.456181	0.500009
C31	C	1.345718	-0.169832	0.000007
C32	C	1.845718	0.330168	0.500007
C33	C	1.340175	-0.400545	-0.000017
C34	C	1.840175	0.099455	0.499983
C35	C	1.343255	-0.272160	-0.000004
C36	C	1.843255	0.227840	0.499996
C37	C	1.549183	0.156643	-0.000002
C38	C	2.049183	0.656643	0.499998
C39	C	1.675196	0.159663	-0.000011
C40	C	2.175196	0.659663	0.499989
C41	C	1.334714	0.371104	-0.000014
C42	C	1.834714	0.871104	0.499986
C43	C	1.337728	0.497118	-0.000022
C44	C	1.837728	0.997118	0.499978
N45	N	1.341712	0.163641	0.344082
N46	N	1.841712	0.663641	0.844082
N47	N	1.341743	0.163635	-0.344084
N48	N	1.841743	0.663635	0.155916
C49	C	1.414428	0.090608	0.416284
C50	C	1.914428	0.590608	0.916284
C51	C	1.414446	0.090604	0.583697
C52	C	1.914446	0.590604	1.083697
H53	H	1.476667	0.028080	0.354163
H54	H	1.976667	0.528080	0.854163
Cl55	Cl	1.245603	0.260171	0.439987
Cl56	Cl	1.745603	0.760171	0.939987
H57	H	1.476706	0.028082	0.645787
H58	H	1.976706	0.528082	1.145787
Cl59	Cl	1.245623	0.260185	0.560068
Cl60	Cl	1.745623	0.760185	1.060068
