data_functionalizedCrystal
_audit_creation_method	'MofGen! by Chris Wilmer'
_symmetry_space_group_name_H-M	'P1'
_symmetry_Int_Tables_number	1
_symmetry_cell_setting	triclinic
loop_
_symmetry_equiv_pos_as_xyz
  x,y,z
_cell_length_a	16.120530
_cell_length_b	12.759400
_cell_length_c	16.120256
_cell_angle_alpha	87.122853
_cell_angle_beta	90.128265
_cell_angle_gamma	92.889638
loop_
_atom_site_label
_atom_site_type_symbol
_atom_site_fract_x
_atom_site_fract_y
_atom_site_fract_z
Zn1	Zn	1.247504	0.532301	-0.534587
Zn2	Zn	1.254475	0.699549	-0.395536
Zn3	Zn	1.115492	0.514541	-0.388504
Zn4	Zn	1.108431	0.698586	-0.527506
O5	O	1.181476	0.611244	-0.461533
O6	O	1.364796	0.562322	-0.522048
O7	O	1.241911	0.667978	-0.278237
O8	O	1.133042	0.369880	-0.407903
O9	O	1.369917	0.685198	-0.419888
O10	O	1.230030	0.382928	-0.515230
O11	O	1.139801	0.532053	-0.273071
O12	O	0.998188	0.531120	-0.401036
O13	O	1.121007	0.683558	-0.644811
O14	O	0.993001	0.666337	-0.503160
O15	O	1.223183	0.561389	-0.650014
O16	O	1.235064	0.846438	-0.413021
O17	O	1.127766	0.845731	-0.509978
C18	C	1.181427	0.884207	-0.461513
C19	C	1.181481	1.000989	-0.461537
C20	C	0.965422	0.596698	-0.450567
C21	C	0.872992	0.590501	-0.445896
C22	C	1.170530	0.624347	-0.678429
C23	C	1.165865	0.629930	-0.770857
C24	C	0.703761	0.579164	-0.437374
C25	C	0.660027	0.643406	-0.485753
C26	C	0.565862	0.637098	-0.481012
C27	C	0.797935	0.585471	-0.442114
C28	C	1.398373	0.625848	-0.472542
C29	C	1.490802	0.632072	-0.477234
C30	C	1.181546	0.337218	-0.461572
C31	C	1.181576	0.220444	-0.461589
C32	C	1.237407	1.056192	-0.411112
C33	C	1.237457	1.165921	-0.411141
C34	C	1.125647	1.165234	-0.512019
C35	C	1.125602	1.055508	-0.511995
C36	C	1.301957	1.056589	-0.352868
C37	C	1.302007	1.166318	-0.352897
C38	C	1.205798	0.582100	-0.983839
C39	C	1.157321	0.640079	-0.940077
C40	C	1.162077	0.634430	-0.845914
C41	C	1.201044	0.587747	-1.078010
C42	C	1.192427	0.598120	-0.245484
C43	C	1.197252	0.592252	-0.153065
H44	H	0.693307	0.703141	-0.530734
O45	O	0.663937	0.507997	-0.383733
C46	C	0.577421	0.517460	-0.390894
H47	H	0.564293	0.599458	-0.417443
H48	H	0.550551	0.456289	-0.434043
C49	C	0.553070	0.398950	-0.271955
C50	C	0.536946	0.499665	-0.304558
H51	H	0.528101	0.387969	-0.218701
H52	H	0.611357	0.392571	-0.267132
H53	H	0.530678	0.347986	-0.307921
H54	H	0.559347	0.550627	-0.268598
H55	H	0.478661	0.506052	-0.309373
H56	H	1.080070	1.010563	-0.553062
O57	O	1.071398	1.218355	-0.560952
C58	C	1.083445	1.327043	-0.550181
H59	H	1.113974	1.339997	-0.487417
H60	H	1.125214	1.364062	-0.601793
C61	C	0.961450	1.362349	-0.630569
C62	C	0.998939	1.378260	-0.553477
H63	H	0.909324	1.393945	-0.632606
H64	H	0.953334	1.289125	-0.637828
H65	H	0.996265	1.393199	-0.673571
H66	H	0.964129	1.347400	-0.510478
H67	H	1.007047	1.451481	-0.546211
O68	O	1.259555	0.517923	-0.944047
C69	C	1.252384	0.526498	-0.857526
H70	H	1.225700	0.605048	-0.844389
H71	H	1.209345	0.459745	-0.830615
C72	C	1.371511	0.423455	-0.833251
C73	C	1.338743	0.519935	-0.817115
H74	H	1.424780	0.419402	-0.808322
H75	H	1.376340	0.417674	-0.891541
H76	H	1.335637	0.367838	-0.810824
H77	H	1.374611	0.575550	-0.839551
H78	H	1.333922	0.525726	-0.758828
O79	O	1.377782	1.027503	-0.377304
C80	C	1.438981	1.064768	-0.321919
H81	H	1.415353	1.134607	-0.289204
H82	H	1.453119	0.999509	-0.273834
C83	C	1.547675	1.013513	-0.410749
C84	C	1.518656	1.099296	-0.370574
H85	H	1.596823	1.034808	-0.440760
H86	H	1.506444	0.988403	-0.448062
H87	H	1.559450	0.959138	-0.370671
H88	H	1.506872	1.153664	-0.410653
H89	H	1.559887	1.124417	-0.333268
O90	O	1.278049	1.009904	-0.278457
C91	C	1.196936	1.037806	-0.259656
H92	H	1.183249	1.114568	-0.295105
H93	H	1.150369	0.973108	-0.278569
C94	C	1.206536	0.957707	-0.122146
C95	C	1.189728	1.051993	-0.165680
H96	H	1.202087	0.966454	-0.064177
H97	H	1.261182	0.938905	-0.134813
H98	H	1.167727	0.903802	-0.137916
H99	H	1.228542	1.105893	-0.149917
H100	H	1.135088	1.070804	-0.153008
O101	O	1.373524	1.213461	-0.384311
C102	C	1.355106	1.278890	-0.454327
H103	H	1.293086	1.251072	-0.481789
H104	H	1.351231	1.363230	-0.434988
C105	C	1.500176	1.308174	-0.486107
C106	C	1.424005	1.274002	-0.519840
H107	H	1.542677	1.305164	-0.526518
H108	H	1.512585	1.264096	-0.438934
H109	H	1.496935	1.378455	-0.469992
H110	H	1.427244	1.203718	-0.535945
H111	H	1.411598	1.318068	-0.567018
O112	O	1.285278	1.196021	-0.275077
C113	C	1.212484	1.252883	-0.276704
H114	H	1.202111	1.287589	-0.342231
H115	H	1.157109	1.198044	-0.257402
C116	C	1.234522	1.299569	-0.135558
C117	C	1.221786	1.342203	-0.216038
H118	H	1.240257	1.354663	-0.098134
H119	H	1.283563	1.261257	-0.134460
H120	H	1.188374	1.253870	-0.119484
H121	H	1.267938	1.387890	-0.232115
H122	H	1.172753	1.380525	-0.217138
O123	O	1.103632	0.704355	-0.979874
C124	C	1.110774	0.695757	-1.066395
H125	H	1.174369	0.666338	-1.081416
H126	H	1.060234	0.637959	-1.088542
C127	C	1.022836	0.840315	-1.092245
C128	C	1.100947	0.804190	-1.110695
H129	H	1.016771	0.907200	-1.119573
H130	H	1.018021	0.846105	-1.033954
H131	H	0.980728	0.792140	-1.110702
H132	H	1.143054	0.852357	-1.092229
H133	H	1.105769	0.798410	-1.168984
