data_functionalizedCrystal
_audit_creation_method	'MofGen! by Chris Wilmer'
_symmetry_space_group_name_H-M	'P1'
_symmetry_Int_Tables_number	1
_symmetry_cell_setting	triclinic
loop_
_symmetry_equiv_pos_as_xyz
  x,y,z
_cell_length_a	23.096457
_cell_length_b	14.560438
_cell_length_c	14.560438
_cell_angle_alpha	60.000069
_cell_angle_beta	89.997959
_cell_angle_gamma	59.999411
loop_
_atom_site_label
_atom_site_type_symbol
_atom_site_fract_x
_atom_site_fract_y
_atom_site_fract_z
Zr1	Zr	0.557766	1.005292	-0.120540
O2	O	0.465317	1.196893	-0.267179
O3	O	0.586106	0.813691	-0.075589
O4	O	0.586106	1.005295	-0.267190
O5	O	0.465317	1.005286	0.075562
O6	O	0.681386	1.005298	-0.267196
O7	O	0.465317	1.005289	-0.075579
O8	O	0.681386	0.662553	0.075543
O9	O	0.465318	1.348031	-0.267177
O10	O	0.669300	0.892501	-0.056419
O11	O	0.598193	0.892497	0.056379
O12	O	0.598193	1.118086	-0.169206
O13	O	0.527087	1.118082	-0.056407
Zr14	Zr	0.709727	1.005292	0.120504
Zr15	Zr	0.709727	1.005296	-0.120548
Zr16	Zr	0.557766	1.005288	0.120513
Zr17	Zr	0.557766	1.246339	-0.120535
Zr18	Zr	0.709727	0.764244	0.120499
O19	O	0.681387	1.196892	0.075553
O20	O	0.681387	1.196898	-0.267192
O21	O	0.465318	1.196887	0.075566
O22	O	0.802176	0.813691	0.267144
O23	O	0.802175	0.813697	-0.075602
O24	O	0.586106	0.813685	0.267156
O25	O	0.802175	1.005298	-0.075598
O26	O	0.681387	1.005288	0.267154
O27	O	0.586107	1.005286	0.267160
O28	O	0.802176	1.005295	0.075543
O29	O	0.586106	1.348034	-0.267184
O30	O	0.681386	0.662550	0.267148
O31	O	0.802175	0.662553	0.267141
O32	O	0.802175	0.662556	0.075536
O33	O	0.465318	1.348027	-0.075572
O34	O	0.586107	1.348030	-0.075579
O35	O	0.669300	0.892497	0.169170
O36	O	0.740406	0.892501	0.056371
O37	O	0.669300	1.118086	-0.056415
O38	O	0.598193	1.118082	0.056384
C39	C	0.633746	0.703778	-0.000024
C40	C	0.633746	0.601447	-0.000026
C41	C	0.670861	0.553373	-0.058906
C42	C	0.670864	0.457214	-0.058895
C43	C	0.596630	0.457215	0.058877
C44	C	0.596632	0.553366	0.058872
C45	C	0.443666	1.005287	-0.000007
C46	C	0.379155	1.005285	-0.000003
C47	C	0.385966	0.887535	0.058859
C48	C	0.325350	0.887533	0.058864
C49	C	0.257924	1.005288	-0.000015
C50	C	0.251115	1.123053	-0.058881
C51	C	0.311731	1.123052	-0.058874
N52	N	0.135128	1.092940	-0.095841
N53	N	0.077549	1.092933	-0.095845
C54	C	0.075291	1.005300	-0.000035
N55	N	0.132795	0.917653	0.095776
N56	N	0.190381	0.917656	0.095778
C57	C	0.192193	1.005303	-0.000028
C58	C	0.016379	0.887540	0.058838
C59	C	-0.044239	0.887543	0.058846
C60	C	-0.118474	1.123066	-0.058910
C61	C	-0.057856	1.123059	-0.058907
C62	C	0.009568	1.005293	-0.000036
C63	C	0.823827	1.005297	-0.000029
C64	C	0.888338	1.005299	-0.000033
C65	C	0.633746	1.005297	-0.301538
C66	C	0.633746	1.005299	-0.403871
C67	C	0.633747	1.306806	-0.000012
C68	C	0.633747	1.409137	-0.000010
C69	C	0.686237	1.005301	-0.451950
C70	C	0.686239	1.005290	-0.548095
C71	C	0.581253	1.005278	-0.548078
C72	C	0.581255	1.005281	-0.451929
C73	C	0.633747	1.005286	0.301502
C74	C	0.633747	1.005285	0.403835
C75	C	0.823826	0.703783	-0.000035
C76	C	0.888338	0.601454	-0.000040
C77	C	0.633746	0.703773	0.301496
C78	C	0.633746	0.601440	0.403827
C79	C	0.823827	0.703778	0.301485
C80	C	0.888338	0.601447	0.403812
C81	C	0.443666	1.306806	-0.301521
C82	C	0.379155	1.409137	-0.403848
C83	C	0.443667	1.306800	-0.000001
C84	C	0.379155	1.409130	0.000004
C85	C	0.633747	1.306811	-0.301532
C86	C	0.633747	1.409144	-0.403863
C87	C	0.881516	0.553399	-0.058929
C88	C	0.942126	0.457263	-0.058956
C89	C	1.009556	0.409177	-0.000089
C90	C	1.016377	0.457241	0.058801
C91	C	0.955768	0.553382	0.058822
C92	C	0.955757	0.553393	0.392986
C93	C	1.016378	0.457255	0.489125
C94	C	1.009579	0.409167	0.596088
C95	C	0.942153	0.457230	0.606911
C96	C	0.881534	0.553372	0.510774
C97	C	0.311736	1.457202	-0.393022
C98	C	0.251115	1.553370	-0.489160
C99	C	0.257914	1.601463	-0.596123
C100	C	0.325340	1.553394	-0.606947
C101	C	0.385959	1.457235	-0.510810
C102	C	0.385977	1.457195	0.058883
C103	C	0.325367	1.553357	0.058884
C104	C	0.257937	1.601446	0.000013
C105	C	0.251116	1.553377	-0.058873
C106	C	0.311725	1.457223	-0.058880
C107	C	0.670863	0.553362	0.510778
C108	C	0.670855	0.457218	0.606925
C109	C	0.596613	0.457235	0.489157
C110	C	0.596617	0.553384	0.393012
H111	H	0.566413	0.418056	0.106828
O112	O	0.458702	1.405340	0.122380
H113	H	0.488092	1.423783	0.062930
H114	H	0.440853	1.418101	-0.519638
O115	O	0.742858	1.005286	-0.400086
H116	H	0.740289	1.093321	-0.462556
H117	H	0.071279	0.791647	0.106798
O118	O	-0.036896	0.760536	0.122327
H119	H	0.020172	0.678652	0.163250
H120	H	0.538510	1.005274	-0.412778
O121	O	0.304364	1.405372	-0.122375
H122	H	0.247292	1.454963	-0.163296
O123	O	0.556606	0.605232	0.122384
H124	H	0.499554	0.649057	0.088369
H125	H	0.306187	1.418050	-0.305936
O126	O	0.710902	0.605205	0.522434
H127	H	0.736705	0.555624	0.612960
O128	O	0.934833	0.405336	0.722287
H129	H	0.905408	0.486023	0.732102
H130	H	0.961332	0.592496	0.106782
O131	O	0.556591	0.405360	0.477510
H132	H	0.515570	0.423785	0.518512
O133	O	-0.191190	1.250079	-0.122424
H134	H	-0.232197	1.230301	-0.112547
H135	H	1.071287	0.418076	0.106729
O136	O	0.332731	1.605177	0.122415
H137	H	0.389803	1.555557	0.163366
H138	H	0.566389	0.592533	0.305921
H139	H	0.538515	1.005266	-0.587218
H140	H	0.936558	0.418141	-0.106911
H141	H	0.728982	1.005289	-0.587238
H142	H	0.826616	0.592549	-0.106880
O143	O	0.192567	1.705120	0.000061
H144	H	0.208646	1.730435	0.050918
O145	O	0.710896	0.405343	0.722282
H146	H	0.736720	0.454906	0.713644
O147	O	0.304407	1.250040	-0.122387
H148	H	0.274975	1.306543	-0.088388
O149	O	1.074926	0.305472	-0.000105
H150	H	1.058847	0.280132	-0.050937
O151	O	0.458686	0.760520	0.122356
H152	H	0.464850	0.704051	0.212848
O153	O	0.710896	0.605226	-0.122417
H154	H	0.736710	0.555629	-0.163348
H155	H	0.961306	0.592532	0.305900
H156	H	0.330897	0.791645	0.106798
O157	O	0.710889	0.405369	-0.122411
H158	H	0.736689	0.454969	-0.163373
H159	H	0.196220	1.592492	-0.480326
H160	H	1.071273	0.418132	0.480292
H161	H	0.196213	1.218930	-0.106820
H162	H	-0.063405	1.218944	-0.106847
H163	H	1.058945	0.330881	0.674359
H164	H	0.196206	1.592547	-0.106804
O165	O	0.808817	0.605172	0.522456
H166	H	0.814282	0.555559	0.612988
H167	H	0.208548	1.679762	-0.674395
O168	O	0.332669	1.605262	-0.722317
H169	H	0.279186	1.680188	-0.787338
