data_functionalizedCrystal
_audit_creation_method	'MofGen! by Chris Wilmer'
_symmetry_space_group_name_H-M	'P1'
_symmetry_Int_Tables_number	1
_symmetry_cell_setting	triclinic
loop_
_symmetry_equiv_pos_as_xyz
  x,y,z
_cell_length_a	15.944493
_cell_length_b	15.944493
_cell_length_c	13.448316
_cell_angle_alpha	89.993805
_cell_angle_beta	90.012083
_cell_angle_gamma	96.524956
loop_
_atom_site_label
_atom_site_type_symbol
_atom_site_fract_x
_atom_site_fract_y
_atom_site_fract_z
O1	O	-0.108105	1.114535	-0.082691
O2	O	0.391895	1.614535	0.417309
O3	O	-0.121513	0.869975	-0.082697
O4	O	0.378487	1.369975	0.417303
O5	O	0.007471	0.998959	-0.082674
O6	O	0.507471	1.498959	0.417326
O7	O	-0.237088	0.985551	-0.082715
O8	O	0.262912	1.485551	0.417285
O9	O	0.007479	0.998943	0.082710
O10	O	0.507479	1.498943	0.582710
O11	O	-0.121505	0.869959	0.082686
O12	O	0.378495	1.369959	0.582686
O13	O	-0.108097	1.114518	0.082693
O14	O	0.391903	1.614518	0.582693
Cu15	Cu	-0.114800	0.992237	0.097791
Cu16	Cu	0.385200	1.492237	0.597791
Cu17	Cu	-0.114809	0.992256	-0.097795
Cu18	Cu	0.385191	1.492256	0.402205
O19	O	-0.237080	0.985535	0.082669
O20	O	0.262920	1.485535	0.582669
C21	C	-0.120961	0.838673	-0.000006
C22	C	0.379039	1.338673	0.499994
C23	C	-0.119318	0.745424	-0.000007
C24	C	0.380682	1.245424	0.499993
C25	C	-0.195240	0.509649	-0.000021
C26	C	0.304760	1.009649	0.499979
C27	C	-0.154294	0.459091	0.081533
C28	C	0.345706	0.959091	0.581533
C29	C	-0.116273	0.574704	-0.000005
C30	C	0.383727	1.074704	0.499995
C31	C	-0.154283	0.459111	-0.081522
C32	C	0.345717	0.959111	0.418478
C33	C	-0.113339	0.409795	-0.000007
C34	C	0.386661	0.909795	0.499993
C35	C	-0.075349	0.525374	0.081616
C36	C	0.424651	1.025374	0.581616
C37	C	-0.075350	0.525398	-0.081512
C38	C	0.424650	1.025398	0.418488
C39	C	-0.034346	0.474873	0.000062
C40	C	0.465654	0.974873	0.500062
C41	C	-0.117966	0.669704	-0.000003
C42	C	0.382034	1.169704	0.499997
C43	C	-0.111640	0.314798	-0.000002
C44	C	0.388360	0.814798	0.499998
C45	C	-0.268379	0.986091	-0.000028
C46	C	0.231621	1.486091	0.499972
C47	C	-0.361627	0.987734	-0.000044
C48	C	0.138373	1.487734	0.499956
C49	C	-0.597403	0.911812	-0.000013
C50	C	-0.097403	1.411812	0.499987
C51	C	-0.647976	0.952762	-0.081550
C52	C	-0.147976	1.452762	0.418450
C53	C	-0.532348	0.990778	-0.000021
C54	C	-0.032348	1.490778	0.499979
C55	C	-0.647925	0.952764	0.081505
C56	C	-0.147925	1.452764	0.581505
C57	C	-0.697257	0.993713	0.000006
C58	C	-0.197257	1.493713	0.500006
C59	C	-0.581692	1.031707	-0.081625
C60	C	-0.081692	1.531707	0.418375
C61	C	-0.581638	1.031698	0.081503
C62	C	-0.081638	1.531698	0.581503
C63	C	-0.632178	1.072706	-0.000054
C64	C	-0.132178	1.572706	0.499946
C65	C	-0.437348	0.989085	-0.000037
C66	C	0.062652	1.489085	0.499963
C67	C	-0.792253	0.995412	0.000015
C68	C	-0.292253	1.495412	0.500015
C69	C	0.038769	0.998403	0.000021
C70	C	0.538769	1.498403	0.500021
C71	C	0.132018	0.996760	0.000031
C72	C	0.632018	1.496760	0.500031
C73	C	-0.108649	1.145821	-0.000001
C74	C	0.391351	1.645821	0.499999
C75	C	-0.110292	1.239069	-0.000006
C76	C	0.389708	1.739069	0.499994
N77	N	-0.114793	0.992230	0.235355
N78	N	0.385207	1.492230	0.735355
N79	N	-0.114810	0.992270	-0.235359
N80	N	0.385190	1.492270	0.264641
C81	C	-0.057703	1.049361	0.287406
C82	C	0.442297	1.549361	0.787406
C83	C	-0.057702	1.049367	0.391509
C84	C	0.442298	1.549367	0.891509
C85	C	-0.114796	0.992244	0.443559
C86	C	0.385204	1.492244	0.943559
C87	C	-0.171889	0.935106	0.391501
C88	C	0.328111	1.435106	0.891501
C89	C	-0.171885	0.935098	0.287400
C90	C	0.328115	1.435098	0.787400
C91	C	-0.171895	0.935130	0.608481
C92	C	0.328105	1.435130	1.108481
C93	C	-0.171900	0.935139	0.712590
C94	C	0.328100	1.435139	1.212590
C95	C	-0.057712	1.049399	0.712590
C96	C	0.442288	1.549399	1.212590
C97	C	-0.057708	1.049390	0.608489
C98	C	0.442292	1.549390	1.108489
C99	C	-0.114802	0.992253	0.556438
C100	C	0.385198	1.492253	1.056438
H101	H	-0.187652	0.430173	-0.150460
H102	H	0.312348	0.930173	0.349540
H103	H	-0.581790	0.843791	-0.000098
H104	H	-0.081790	1.343791	0.499902
H105	H	-0.552660	1.065010	0.150445
H106	H	-0.052660	1.565010	0.650445
H107	H	-0.676939	0.919420	-0.150490
H108	H	-0.176939	1.419420	0.349510
H109	H	-0.218373	0.888574	0.245021
H110	H	0.281627	1.388574	0.745021
H111	H	-0.011214	1.095887	0.433888
H112	H	0.488786	1.595887	0.933888
O113	O	-0.543537	1.075854	-0.173053
O114	O	-0.043537	1.575854	0.326947
H115	H	-0.474129	1.074235	-0.172367
H116	H	0.025871	1.574235	0.327633
O117	O	-0.686225	0.908575	0.172833
O118	O	-0.186225	1.408575	0.672833
H119	H	-0.672584	0.841844	0.172651
H120	H	-0.172584	1.341844	0.672651
H121	H	-0.263261	0.525258	0.000044
H122	H	0.236739	1.025258	0.500044
H123	H	-0.647630	1.140779	-0.000094
H124	H	-0.147630	1.640779	0.499906
O125	O	0.055817	0.454384	0.000135
O126	O	0.555817	0.954384	0.500135
H127	H	0.099304	0.513905	0.000818
H128	H	0.599304	1.013905	0.500818
H129	H	-0.011221	1.095908	0.566110
H130	H	0.488779	1.595908	1.066110
H131	H	-0.042017	0.554202	0.150632
H132	H	0.457983	1.054202	0.650632
H133	H	-0.011213	1.095881	0.245033
H134	H	0.488787	1.595881	0.745033
O135	O	0.003878	1.111022	0.768721
O136	O	0.503878	1.611022	1.268721
H137	H	-0.005706	1.101426	0.849854
H138	H	0.494294	1.601426	1.349854
H139	H	-0.042029	0.554358	-0.150451
H140	H	0.457971	1.054358	0.349549
H141	H	-0.218392	0.888623	0.754964
H142	H	0.281608	1.388623	1.254964
H143	H	-0.218385	0.888600	0.566105
H144	H	0.281615	1.388600	1.066105
O145	O	-0.233479	0.873502	0.447638
O146	O	0.266521	1.373502	0.947638
H147	H	-0.222747	0.808021	0.427690
H148	H	0.277253	1.308021	0.927690
O149	O	-0.198456	0.420734	0.172846
O150	O	0.301544	0.920734	0.672846
H151	H	-0.265193	0.434354	0.172668
H152	H	0.234807	0.934354	0.672668
