data_functionalizedCrystal
_audit_creation_method	'MofGen! by Chris Wilmer'
_symmetry_space_group_name_H-M	'P1'
_symmetry_Int_Tables_number	1
_symmetry_cell_setting	triclinic
loop_
_symmetry_equiv_pos_as_xyz
  x,y,z
_cell_length_a	15.944499
_cell_length_b	19.188940
_cell_length_c	14.421503
_cell_angle_alpha	90.003842
_cell_angle_beta	89.989779
_cell_angle_gamma	83.313162
loop_
_atom_site_label
_atom_site_type_symbol
_atom_site_fract_x
_atom_site_fract_y
_atom_site_fract_z
O1	O	1.114224	0.089866	-0.077168
O2	O	1.364224	0.339866	0.172832
O3	O	1.614224	0.589866	0.422832
O4	O	1.864224	0.839866	0.672832
O5	O	0.869627	0.101006	-0.077158
O6	O	1.119627	0.351006	0.172842
O7	O	1.369627	0.601006	0.422842
O8	O	1.619627	0.851006	0.672842
O9	O	0.998980	-0.006202	-0.077156
O10	O	1.248980	0.243798	0.172844
O11	O	1.498980	0.493798	0.422844
O12	O	1.748980	0.743798	0.672844
O13	O	0.984871	0.197074	-0.077170
O14	O	1.234871	0.447074	0.172830
O15	O	1.484871	0.697074	0.422830
O16	O	1.734871	0.947074	0.672830
O17	O	0.998958	-0.006186	0.077067
O18	O	1.248958	0.243814	0.327067
O19	O	1.498958	0.493814	0.577067
O20	O	1.748958	0.743814	0.827067
O21	O	0.869606	0.101022	0.077066
O22	O	1.119606	0.351022	0.327066
O23	O	1.369606	0.601022	0.577066
O24	O	1.619606	0.851022	0.827066
O25	O	1.114202	0.089882	0.077055
O26	O	1.364202	0.339882	0.327055
O27	O	1.614202	0.589882	0.577055
O28	O	1.864202	0.839882	0.827055
Cu29	Cu	0.991902	0.095453	0.091142
Cu30	Cu	1.241902	0.345453	0.341142
Cu31	Cu	1.491902	0.595453	0.591142
Cu32	Cu	1.741902	0.845453	0.841142
Cu33	Cu	0.991927	0.095434	-0.091245
Cu34	Cu	1.241927	0.345434	0.158755
Cu35	Cu	1.491927	0.595434	0.408755
Cu36	Cu	1.741927	0.845434	0.658755
O37	O	0.984850	0.197090	0.077054
O38	O	1.234850	0.447090	0.327054
O39	O	1.484850	0.697090	0.577054
O40	O	1.734850	0.947090	0.827054
C41	C	0.838323	0.100558	-0.000045
C42	C	1.088323	0.350558	0.249955
C43	C	1.338323	0.600558	0.499955
C44	C	1.588323	0.850558	0.749955
C45	C	0.745080	0.099190	-0.000041
C46	C	0.995080	0.349190	0.249959
C47	C	1.245080	0.599190	0.499959
C48	C	1.495080	0.849190	0.749959
C49	C	0.453314	0.161475	-0.000059
C50	C	0.703314	0.411475	0.249941
C51	C	0.953314	0.661475	0.499941
C52	C	1.203314	0.911475	0.749941
C53	C	0.514473	0.129090	-0.076098
C54	C	0.764473	0.379090	0.173902
C55	C	1.014473	0.629090	0.423902
C56	C	1.264473	0.879090	0.673902
C57	C	0.409462	0.094223	-0.000062
C58	C	0.659462	0.344223	0.249938
C59	C	0.909462	0.594223	0.499938
C60	C	1.159462	0.844223	0.749938
C61	C	0.514438	0.129088	0.075954
C62	C	0.764438	0.379088	0.325954
C63	C	1.014438	0.629088	0.575954
C64	C	1.264438	0.879088	0.825954
C65	C	0.574362	0.096667	-0.000050
C66	C	0.824362	0.346667	0.249950
C67	C	1.074362	0.596667	0.499950
C68	C	1.324362	0.846667	0.749950
C69	C	0.469393	0.061819	-0.076164
C70	C	0.719393	0.311819	0.173836
C71	C	0.969393	0.561819	0.423836
C72	C	1.219393	0.811819	0.673836
C73	C	0.469352	0.061826	0.075956
C74	C	0.719352	0.311826	0.325956
C75	C	0.969352	0.561826	0.575956
C76	C	1.219352	0.811826	0.825956
C77	C	0.530494	0.029392	-0.000102
C78	C	0.780494	0.279392	0.249898
C79	C	1.030494	0.529392	0.499898
C80	C	1.280494	0.779392	0.749898
C81	C	0.314467	0.092817	-0.000069
C82	C	0.564467	0.342817	0.249931
C83	C	0.814467	0.592817	0.499931
C84	C	1.064467	0.842817	0.749931
C85	C	0.669355	0.098068	-0.000049
C86	C	0.919355	0.348068	0.249951
C87	C	1.169355	0.598068	0.499951
C88	C	1.419355	0.848068	0.749951
C89	C	0.998511	-0.032206	-0.000045
C90	C	1.248511	0.217794	0.249955
C91	C	1.498511	0.467794	0.499955
C92	C	1.748511	0.717794	0.749955
C93	C	0.997135	-0.109714	-0.000045
C94	C	1.247135	0.140286	0.249955
C95	C	1.497135	0.390286	0.499955
C96	C	1.747135	0.640286	0.749955
C97	C	0.987337	-0.662988	0.084001
C98	C	1.237337	-0.412988	0.334001
C99	C	1.487337	-0.162988	0.584001
C100	C	1.737337	0.087012	0.834001
C101	C	0.988620	-0.590161	0.084006
C102	C	1.238620	-0.340161	0.334006
C103	C	1.488620	-0.090161	0.584006
C104	C	1.738620	0.159839	0.834006
C105	C	0.989278	-0.553748	-0.000060
C106	C	1.239278	-0.303748	0.249940
C107	C	1.489278	-0.053748	0.499940
C108	C	1.739278	0.196252	0.749940
C109	C	0.988630	-0.590167	-0.084138
C110	C	1.238630	-0.340167	0.165862
C111	C	1.488630	-0.090167	0.415862
C112	C	1.738630	0.159833	0.665862
C113	C	0.987338	-0.662992	-0.084141
C114	C	1.237338	-0.412992	0.165859
C115	C	1.487338	-0.162992	0.415859
C116	C	1.737338	0.087008	0.665859
N117	N	1.039113	-0.444610	-0.062635
N118	N	1.289113	-0.194610	0.187365
N119	N	1.539113	0.055390	0.437365
N120	N	1.789113	0.305390	0.687365
N121	N	1.040342	-0.375429	-0.062626
N122	N	1.290342	-0.125429	0.187374
N123	N	1.540342	0.124571	0.437374
N124	N	1.790342	0.374571	0.687374
C125	C	0.993168	-0.334329	-0.000057
C126	C	1.243168	-0.084329	0.249943
C127	C	1.493168	0.165671	0.499943
C128	C	1.743168	0.415671	0.749943
N129	N	0.944729	-0.365026	0.062517
N130	N	1.194729	-0.115026	0.312517
N131	N	1.444729	0.134974	0.562517
N132	N	1.694729	0.384974	0.812517
N133	N	0.943504	-0.434213	0.062512
N134	N	1.193504	-0.184213	0.312512
N135	N	1.443504	0.065787	0.562512
N136	N	1.693504	0.315787	0.812512
C137	C	0.990678	-0.474781	-0.000067
C138	C	1.240678	-0.224781	0.249933
C139	C	1.490678	0.025219	0.499933
C140	C	1.740678	0.275219	0.749933
C141	C	0.995201	-0.218951	0.084020
C142	C	1.245201	0.031049	0.334020
C143	C	1.495201	0.281049	0.584020
C144	C	1.745201	0.531049	0.834020
C145	C	0.996479	-0.146121	0.084022
C146	C	1.246479	0.103879	0.334022
C147	C	1.496479	0.353879	0.584022
C148	C	1.746479	0.603879	0.834022
C149	C	0.996497	-0.146130	-0.084124
C150	C	1.246497	0.103870	0.165876
C151	C	1.496497	0.353870	0.415876
C152	C	1.746497	0.603870	0.665876
C153	C	0.995211	-0.218957	-0.084123
C154	C	1.245211	0.031043	0.165877
C155	C	1.495211	0.281043	0.415877
C156	C	1.745211	0.531043	0.665877
C157	C	0.994567	-0.255364	-0.000048
C158	C	1.244567	-0.005364	0.249952
C159	C	1.494567	0.244636	0.499952
C160	C	1.744567	0.494636	0.749952
C161	C	1.145506	0.090330	-0.000060
C162	C	1.395506	0.340330	0.249940
C163	C	1.645506	0.590330	0.499940
C164	C	1.895506	0.840330	0.749940
C165	C	1.238749	0.091697	-0.000070
C166	C	1.488749	0.341697	0.249930
C167	C	1.738749	0.591697	0.499930
C168	C	1.988749	0.841697	0.749930
C169	C	0.985319	0.223094	-0.000060
C170	C	1.235319	0.473094	0.249940
C171	C	1.485319	0.723094	0.499940
C172	C	1.735319	0.973094	0.749940
C173	C	0.986694	0.300601	-0.000066
C174	C	1.236694	0.550601	0.249934
C175	C	1.486694	0.800601	0.499934
C176	C	1.736694	1.050601	0.749934
N177	N	0.991890	0.095466	0.219423
N178	N	1.241890	0.345466	0.469423
N179	N	1.491890	0.595466	0.719423
N180	N	1.741890	0.845466	0.969423
N181	N	0.991946	0.095416	-0.219526
N182	N	1.241946	0.345416	0.030474
N183	N	1.491946	0.595416	0.280474
N184	N	1.741946	0.845416	0.530474
C185	C	0.932067	0.145017	0.469076
C186	C	1.182067	0.395017	0.719076
C187	C	1.432067	0.645017	0.969076
C188	C	1.682067	0.895017	1.219076
C189	C	1.007919	0.158560	0.530875
C190	C	1.257919	0.408560	0.780875
C191	C	1.507919	0.658560	1.030875
C192	C	1.757919	0.908560	1.280875
C193	C	0.991911	0.095449	0.408585
C194	C	1.241911	0.345449	0.658585
C195	C	1.491911	0.595449	0.908585
C196	C	1.741911	0.845449	1.158585
C197	C	0.916079	0.081922	0.530880
C198	C	1.166079	0.331922	0.780880
C199	C	1.416079	0.581922	1.030880
C200	C	1.666079	0.831922	1.280880
C201	C	0.991924	0.095435	0.591306
C202	C	1.241924	0.345435	0.841306
C203	C	1.491924	0.595435	1.091306
C204	C	1.741924	0.845435	1.341306
C205	C	1.067801	0.109024	0.469023
C206	C	1.317801	0.359024	0.719023
C207	C	1.567801	0.609024	0.969023
C208	C	1.817801	0.859024	1.219023
C209	C	0.975911	0.032359	0.469023
C210	C	1.225911	0.282359	0.719023
C211	C	1.475911	0.532359	0.969023
C212	C	1.725911	0.782359	1.219023
C213	C	1.051817	0.045876	0.530793
C214	C	1.301817	0.295876	0.780793
C215	C	1.551817	0.545876	1.030793
C216	C	1.801817	0.795876	1.280793
C217	C	0.991902	0.095460	0.303324
C218	C	1.241902	0.345460	0.553324
C219	C	1.491902	0.595460	0.803324
C220	C	1.741902	0.845460	1.053324
C221	C	0.991941	0.095424	0.696565
C222	C	1.241941	0.345424	0.946565
C223	C	1.491941	0.595424	1.196565
C224	C	1.741941	0.845424	1.446565
H225	H	0.563878	-0.026471	-0.000139
H226	H	0.813878	0.223529	0.249861
H227	H	1.063878	0.473529	0.499861
H228	H	1.313878	0.723529	0.749861
F229	F	0.409477	0.234425	-0.000157
F230	F	0.659477	0.484425	0.249843
F231	F	0.909477	0.734425	0.499843
F232	F	1.159477	0.984425	0.749843
F233	F	0.540609	0.166260	-0.160131
F234	F	0.790609	0.416260	0.089869
F235	F	1.040609	0.666260	0.339869
F236	F	1.290609	0.916260	0.589869
F237	F	0.865987	0.199848	0.433652
F238	F	1.115987	0.449848	0.683652
F239	F	1.365987	0.699848	0.933652
F240	F	1.615987	0.949848	1.183652
H241	H	0.851943	0.070488	0.558054
H242	H	1.101943	0.320488	0.808054
H243	H	1.351943	0.570488	1.058054
H244	H	1.601943	0.820488	1.308054
F245	F	1.151650	0.124051	0.433661
F246	F	1.401650	0.374051	0.683661
F247	F	1.651650	0.624051	0.933661
F248	F	1.901650	0.874051	1.183661
H249	H	1.102486	0.003949	0.557722
H250	H	1.352486	0.253949	0.807722
H251	H	1.602486	0.503949	1.057722
H252	H	1.852486	0.753949	1.307722
H253	H	0.997001	-0.116477	0.152482
H254	H	1.247001	0.133523	0.402482
H255	H	1.497001	0.383523	0.652482
H256	H	1.747001	0.633523	0.902482
F257	F	0.997170	-0.107379	-0.173594
F258	F	1.247170	0.142621	0.076406
F259	F	1.497170	0.392621	0.326406
F260	F	1.747170	0.642621	0.576406
F261	F	0.958175	-0.037348	0.433482
F262	F	1.208175	0.212652	0.683482
F263	F	1.458175	0.462652	0.933482
F264	F	1.708175	0.712652	1.183482
F265	F	0.994533	-0.257710	-0.173600
F266	F	1.244533	-0.007710	0.076400
F267	F	1.494533	0.242290	0.326400
F268	F	1.744533	0.492290	0.576400
H269	H	0.449529	0.033393	-0.140522
H270	H	0.699529	0.283393	0.109478
H271	H	0.949529	0.533393	0.359478
H272	H	1.199529	0.783393	0.609478
F273	F	0.443181	0.024685	0.159990
F274	F	0.693181	0.274685	0.409990
F275	F	0.943181	0.524685	0.659990
F276	F	1.193181	0.774685	0.909990
H277	H	0.994670	-0.248594	0.152479
H278	H	1.244670	0.001406	0.402479
H279	H	1.494670	0.251406	0.652479
H280	H	1.744670	0.501406	0.902479
H281	H	0.534399	0.157551	0.140237
H282	H	0.784399	0.407551	0.390237
H283	H	1.034399	0.657551	0.640237
H284	H	1.284399	0.907551	0.890237
H285	H	0.986812	-0.692626	0.152461
H286	H	1.236812	-0.442626	0.402461
H287	H	1.486812	-0.192626	0.652461
H288	H	1.736812	0.057374	0.902461
H289	H	0.989128	-0.560508	0.152465
H290	H	1.239128	-0.310508	0.402465
H291	H	1.489128	-0.060508	0.652465
H292	H	1.739128	0.189492	0.902465
H293	H	0.989162	-0.560515	-0.152585
H294	H	1.239162	-0.310515	0.097415
H295	H	1.489162	-0.060515	0.347415
H296	H	1.739162	0.189485	0.597415
F297	F	0.986655	-0.701744	-0.173620
F298	F	1.236655	-0.451744	0.076380
F299	F	1.486655	-0.201744	0.326380
F300	F	1.736655	0.048256	0.576380
F301	F	1.025625	0.228288	0.566386
F302	F	1.275625	0.478288	0.816386
F303	F	1.525625	0.728288	1.066386
F304	F	1.775625	0.978288	1.316386
