data_functionalizedCrystal
_audit_creation_method	'MofGen! by Chris Wilmer'
_symmetry_space_group_name_H-M	'P1'
_symmetry_Int_Tables_number	1
_symmetry_cell_setting	triclinic
loop_
_symmetry_equiv_pos_as_xyz
  x,y,z
_cell_length_a	16.625548
_cell_length_b	12.645330
_cell_length_c	16.625539
_cell_angle_alpha	89.975749
_cell_angle_beta	89.979432
_cell_angle_gamma	90.018760
loop_
_atom_site_label
_atom_site_type_symbol
_atom_site_fract_x
_atom_site_fract_y
_atom_site_fract_z
Zn1	Zn	1.232707	-0.422007	-0.455932
Zn2	Zn	1.232622	-0.599293	-0.321109
Zn3	Zn	1.097869	-0.422048	-0.321113
Zn4	Zn	1.097851	-0.599232	-0.455899
O5	O	1.165262	-0.510645	-0.388513
O6	O	1.345528	-0.445533	-0.438060
O7	O	1.214718	-0.575824	-0.208277
O8	O	1.115799	-0.273695	-0.339012
O9	O	1.345465	-0.575784	-0.339006
O10	O	1.214864	-0.273665	-0.438064
O11	O	1.115716	-0.445602	-0.208280
O12	O	0.985034	-0.445543	-0.338980
O13	O	1.115768	-0.575681	-0.568736
O14	O	0.985021	-0.575720	-0.438007
O15	O	1.214846	-0.445474	-0.568760
O16	O	1.214701	-0.747632	-0.338973
O17	O	1.115685	-0.747588	-0.438003
C18	C	0.955771	-0.510630	-0.388491
C19	C	0.866150	-0.510649	-0.388500
C20	C	1.165203	-0.786075	-0.388502
C21	C	1.165252	-0.903905	-0.388524
C22	C	0.537975	-0.510656	-0.388534
C23	C	0.629283	-0.510651	-0.388522
C24	C	0.702059	-0.510653	-0.388517
C25	C	0.793374	-0.510647	-0.388506
C26	C	1.103218	-1.071485	-0.451015
C27	C	1.102901	-0.948925	-0.450815
C28	C	1.142250	-0.948498	-0.303549
C29	C	1.141872	-1.071097	-0.303928
C30	C	1.250667	-1.070992	-0.410318
C31	C	1.250144	-0.948386	-0.412177
C32	C	1.375571	-0.510661	-0.388536
C33	C	1.465192	-0.510668	-0.388546
C34	C	1.165315	-0.510566	-0.598822
C35	C	1.165337	-0.510533	-0.688443
C36	C	1.165343	-0.234140	-0.388542
C37	C	1.165378	-0.116310	-0.388554
C38	C	1.165374	-0.510414	-1.016619
C39	C	1.165362	-0.510450	-0.925311
C40	C	1.165356	-0.510474	-0.852534
C41	C	1.165343	-0.510509	-0.761220
C42	C	1.165256	-0.510647	-0.179022
C43	C	1.165390	-0.510382	-0.089402
H44	H	1.117292	-0.918772	-0.513823
N45	N	1.311314	-0.909959	-0.359266
N46	N	1.382829	-0.937454	-0.369280
H47	H	1.426031	-0.910318	-0.331905
N48	N	1.023568	-0.912273	-0.432750
N49	N	0.966111	-0.936645	-0.477537
H50	H	0.910075	-0.910771	-0.464782
N51	N	1.121120	-1.108404	-0.530310
N52	N	1.070389	-1.161742	-0.568150
H53	H	1.083044	-1.187826	-0.624151
N54	N	1.024382	-1.110216	-0.433164
N55	N	0.966091	-1.083577	-0.476087
H56	H	0.910412	-1.110928	-0.463477
H57	H	1.079525	-1.099789	-0.285491
N58	N	1.196186	-1.108291	-0.243538
N59	N	1.234246	-1.043701	-0.201243
H60	H	1.272596	-1.069964	-0.158584
N61	N	1.064842	-0.910129	-0.280007
N62	N	1.009008	-0.973803	-0.266129
H63	H	0.954335	-0.946708	-0.249507
N64	N	1.197251	-0.911918	-0.243577
N65	N	1.254150	-0.852430	-0.262841
H66	H	1.292997	-0.826593	-0.220487
N67	N	1.276985	-1.109697	-0.486728
N68	N	1.233195	-1.171160	-0.526075
H69	H	1.251774	-1.198499	-0.580042
N70	N	1.271898	-0.911813	-0.490629
N71	N	1.225100	-0.853204	-0.529024
H72	H	1.240460	-0.827370	-0.584433
N73	N	1.308755	-1.107353	-0.353241
N74	N	1.287543	-1.166383	-0.296757
H75	H	1.328561	-1.192067	-0.256442
