data_functionalizedCrystal
_audit_creation_method	'MofGen! by Chris Wilmer'
_symmetry_space_group_name_H-M	'P1'
_symmetry_Int_Tables_number	1
_symmetry_cell_setting	triclinic
loop_
_symmetry_equiv_pos_as_xyz
  x,y,z
_cell_length_a	14.044191
_cell_length_b	10.540558
_cell_length_c	9.016244
_cell_angle_alpha	89.995396
_cell_angle_beta	89.994905
_cell_angle_gamma	91.137555
loop_
_atom_site_label
_atom_site_type_symbol
_atom_site_fract_x
_atom_site_fract_y
_atom_site_fract_z
O1	O	1.259802	-0.306298	-0.123226
O2	O	0.983757	-0.295237	-0.123246
O3	O	1.128068	-0.116699	-0.123251
O4	O	1.115490	-0.484837	-0.123221
O5	O	1.128046	-0.116701	0.123429
O6	O	0.983735	-0.295239	0.123435
O7	O	1.259780	-0.306300	0.123455
Cu8	Cu	1.121756	-0.300770	0.145969
Cu9	Cu	1.121781	-0.300768	-0.145760
O10	O	1.115469	-0.484839	0.123460
C11	C	0.948398	-0.290400	0.000091
C12	C	0.843074	-0.275966	0.000082
C13	C	0.593306	-0.351944	0.000103
C14	C	0.650237	-0.249599	0.000092
C15	C	0.757541	-0.264273	0.000087
C16	C	0.485991	-0.337272	0.000109
C17	C	1.127110	-0.069301	0.000082
C18	C	1.124277	0.071932	0.000060
C19	C	1.015978	0.266310	-0.000520
C20	C	1.018850	0.119402	0.000050
C21	C	1.174997	0.128457	0.140925
C22	C	1.171392	0.275365	0.141030
C23	C	1.173560	0.275669	-0.139492
C24	C	1.174539	0.128590	-0.141341
C25	C	1.295138	-0.311138	0.000114
C26	C	1.400463	-0.325571	0.000113
C27	C	1.116414	0.467763	0.000100
C28	C	1.119210	0.326527	0.000040
N29	N	1.121745	-0.300772	0.351155
N30	N	1.121799	-0.300757	-0.350946
C31	C	1.044311	-0.395908	0.586190
C32	C	1.044483	-0.396311	0.414299
C33	C	1.220925	-0.340935	0.413504
C34	C	1.220502	-0.341622	0.585449
C35	C	1.100984	-0.165235	0.585685
C36	C	1.098709	-0.165869	0.413731
H37	H	0.625152	-0.450576	0.000107
C38	C	0.964548	0.068476	0.136702
H39	H	0.940652	0.137596	0.192091
H40	H	0.913041	0.015230	0.105299
H41	H	1.006462	0.021200	0.197045
C42	C	0.959718	0.310628	-0.136988
H43	H	0.897623	0.273222	-0.135255
H44	H	0.955138	0.400408	-0.135133
H45	H	0.991682	0.285576	-0.224781
C46	C	0.944917	-0.361838	0.357340
H47	H	0.944884	-0.362057	0.251971
H48	H	0.899303	-0.422346	0.392679
H49	H	0.929136	-0.279849	0.392219
H50	H	0.618389	-0.150959	-0.000020
C51	C	1.000148	-0.125031	0.358685
H52	H	0.986621	-0.043357	0.396917
H53	H	1.000019	-0.122170	0.253381
H54	H	0.952994	-0.184368	0.391821
H55	H	0.978939	0.080837	-0.100928
H56	H	1.137427	0.091486	-0.245549
C57	C	0.959933	0.312764	0.135179
H58	H	0.999174	0.368694	0.192176
H59	H	0.905076	0.356187	0.102785
H60	H	0.940989	0.242060	0.194313
C61	C	1.245081	-0.475602	0.639627
H62	H	1.255225	-0.529100	0.556552
H63	H	1.301236	-0.471267	0.698279
H64	H	1.193927	-0.509108	0.697452
H65	H	1.030190	-0.129396	0.629125
C66	C	1.278379	0.085379	-0.152824
H67	H	1.292504	0.031989	-0.071162
H68	H	1.286726	0.039949	-0.242726
H69	H	1.319975	0.157554	-0.151631
H70	H	1.133886	0.307356	0.246325
H71	H	1.247209	0.315666	0.147422
C72	C	1.279584	0.087678	0.148029
H73	H	1.293278	0.035688	0.064953
H74	H	1.320186	0.160831	0.146721
H75	H	1.289806	0.041331	0.236792
H76	H	1.139747	0.089421	0.245755
H77	H	1.139447	0.310674	-0.246266
C78	C	1.276421	0.329072	-0.140786
H79	H	1.286236	0.382108	-0.056755
H80	H	1.319709	0.261010	-0.137687
H81	H	1.286768	0.377075	-0.228706
H82	H	1.151406	-0.090879	0.370752
C83	C	0.944441	-0.361697	0.642078
H84	H	0.898707	-0.420236	0.602875
H85	H	0.943189	-0.365398	0.747331
H86	H	0.929805	-0.278342	0.610478
C87	C	1.177297	-0.069396	0.640609
H88	H	1.221633	-0.111697	0.701862
H89	H	1.209629	-0.032979	0.557918
H90	H	1.147707	-0.004400	0.695967
C91	C	1.062150	-0.530675	0.644537
H92	H	1.116618	-0.529207	0.707038
H93	H	1.008243	-0.559909	0.699279
H94	H	1.072616	-0.586051	0.563280
C95	C	1.062577	-0.531846	0.358708
H96	H	1.062740	-0.532557	0.253342
H97	H	1.122467	-0.559042	0.394321
H98	H	1.013676	-0.587556	0.394147
C99	C	1.300793	-0.252349	0.641630
H100	H	1.333530	-0.215833	0.559364
H101	H	1.274289	-0.186969	0.700182
H102	H	1.344106	-0.299186	0.699983
H103	H	1.279995	-0.273946	0.372598
C104	C	1.246067	-0.473487	0.355339
H105	H	1.196258	-0.504532	0.293076
H106	H	1.303716	-0.468057	0.300384
H107	H	1.253717	-0.529658	0.436685
