data_functionalizedCrystal
_audit_creation_method	'MofGen! by Chris Wilmer'
_symmetry_space_group_name_H-M	'P1'
_symmetry_Int_Tables_number	1
_symmetry_cell_setting	triclinic
loop_
_symmetry_equiv_pos_as_xyz
  x,y,z
_cell_length_a	10.489741
_cell_length_b	14.971486
_cell_length_c	9.565339
_cell_angle_alpha	90.001480
_cell_angle_beta	89.993215
_cell_angle_gamma	84.076651
loop_
_atom_site_label
_atom_site_type_symbol
_atom_site_fract_x
_atom_site_fract_y
_atom_site_fract_z
O1	O	1.692577	0.126200	0.116155
O2	O	1.321244	0.138045	0.116175
O3	O	1.516863	0.001979	0.116174
O4	O	1.496958	0.262266	0.116155
O5	O	1.516879	0.001967	-0.116346
O6	O	1.321260	0.138033	-0.116345
O7	O	1.692593	0.126187	-0.116365
Zn8	Zn	1.506929	0.132108	-0.153273
Zn9	Zn	1.506908	0.132124	0.153082
O10	O	1.496974	0.262253	-0.116365
C11	C	1.273731	0.137144	-0.000083
C12	C	1.132132	0.134468	-0.000074
C13	C	1.515981	-0.031357	-0.000080
C14	C	1.513313	-0.130669	-0.000063
N15	N	1.506953	0.132096	-0.362352
C16	C	1.064994	0.047893	-0.000081
C17	C	0.972386	0.088796	0.114558
C18	C	0.972436	0.088804	-0.114689
C19	C	1.041389	0.175407	0.114659
C20	C	1.041448	0.175403	-0.114690
C21	C	0.948867	0.216369	-0.000024
C22	C	1.740106	0.127088	-0.000105
C23	C	1.881704	0.129765	-0.000104
C24	C	1.497856	0.295589	-0.000108
C25	C	1.500523	0.394902	-0.000116
C26	C	1.385603	0.451473	-0.000108
C27	C	1.388117	0.544787	-0.000089
C28	C	1.505553	0.581527	-0.000088
C29	C	1.620483	0.524949	-0.000091
C30	C	1.617967	0.431637	-0.000100
C31	C	1.625718	0.719441	-0.000077
C32	C	1.628234	0.812759	-0.000071
C33	C	1.395867	0.832591	-0.000066
C34	C	1.393352	0.739279	-0.000074
C35	C	1.508282	0.682707	-0.000080
N36	N	1.506894	0.132129	0.362162
C37	C	1.416273	0.194915	0.546538
C38	C	1.531455	0.213192	0.453302
C39	C	1.391721	0.113892	0.453328
C40	C	1.622194	0.150414	0.546464
C41	C	1.482384	0.051078	0.546497
C42	C	1.597649	0.069322	0.453304
H43	H	1.115507	-0.023277	0.000068
C44	C	0.931170	0.039290	-0.245623
N45	N	0.900094	0.001990	-0.344238
H46	H	1.302287	0.878657	-0.000066
H47	H	1.289972	0.421567	-0.000125
C48	C	1.264166	0.698867	-0.000080
N49	N	1.166861	0.668428	-0.000080
C50	C	1.559501	0.305770	0.397983
N51	N	1.580614	0.375501	0.356318
C52	C	1.082452	0.224855	0.245747
N53	N	1.113384	0.262095	0.344484
H54	H	1.719640	0.165907	0.587204
C55	C	1.701326	-0.002422	0.398326
N56	N	1.779419	-0.056453	0.356907
H57	H	1.461582	-0.017430	0.587466
C58	C	0.880971	0.312615	0.000055
N59	N	0.829828	0.385106	0.000122
C60	C	1.260104	0.093067	0.398063
N61	N	1.160966	0.077389	0.356443
H62	H	0.941789	0.052170	0.211484
C63	C	1.312833	0.266710	0.601856
N64	N	1.234930	0.320788	0.643525
C65	C	1.757420	0.853172	-0.000049
N66	N	1.854725	0.883610	-0.000028
H67	H	1.716102	0.554870	-0.000093
C68	C	1.082840	0.224839	-0.245640
N69	N	1.114022	0.262067	-0.344283
C70	C	1.752148	0.657213	-0.000086
N71	N	1.847373	0.610344	-0.000102
H72	H	1.294536	0.590844	-0.000079
H73	H	1.711548	0.385577	-0.000100
