data_functionalizedCrystal
_audit_creation_method	'MofGen! by Chris Wilmer'
_symmetry_space_group_name_H-M	'P1'
_symmetry_Int_Tables_number	1
_symmetry_cell_setting	triclinic
loop_
_symmetry_equiv_pos_as_xyz
  x,y,z
_cell_length_a	12.837943
_cell_length_b	10.868271
_cell_length_c	12.837942
_cell_angle_alpha	90.004531
_cell_angle_beta	94.828940
_cell_angle_gamma	90.003083
loop_
_atom_site_label
_atom_site_type_symbol
_atom_site_fract_x
_atom_site_fract_y
_atom_site_fract_z
O1	O	1.402335	0.102299	0.272141
O2	O	1.902335	0.602299	0.772141
O3	O	1.099202	0.102306	0.258698
O4	O	1.599202	0.602306	0.758698
O5	O	1.244047	0.102295	0.113853
O6	O	1.744047	0.602295	0.613853
O7	O	1.257490	0.102310	0.416986
O8	O	1.757490	0.602310	0.916986
O9	O	1.244033	-0.102349	0.113845
O10	O	1.744033	0.397651	0.613845
O11	O	1.099188	-0.102338	0.258690
O12	O	1.599188	0.397662	0.758690
O13	O	1.402322	-0.102345	0.272133
O14	O	1.902322	0.397655	0.772133
Zn15	Zn	1.250753	-0.134834	0.265411
Zn16	Zn	1.750753	0.365166	0.765411
Zn17	Zn	1.250771	0.134795	0.265421
Zn18	Zn	1.750771	0.634795	0.765421
O19	O	1.257477	-0.102334	0.416979
O20	O	1.757477	0.397666	0.916979
C21	C	1.060126	-0.000015	0.254153
C22	C	1.560126	0.499985	0.754153
C23	C	0.943711	-0.000012	0.240608
C24	C	1.443711	0.499988	0.740608
N25	N	1.250748	-0.318848	0.265404
N26	N	1.750748	0.181152	0.765404
C27	C	0.718837	-0.000022	0.403437
C28	C	1.218837	0.499978	0.903437
C29	C	0.609454	-0.000020	0.390716
C30	C	1.109454	0.499980	0.890716
C31	C	0.615562	-0.000017	0.202445
C32	C	1.115562	0.499983	0.702445
C33	C	0.724944	-0.000018	0.215166
C34	C	1.224944	0.499982	0.715166
C35	C	0.776578	-0.000019	0.315666
C36	C	1.276578	0.499981	0.815666
C37	C	0.885962	-0.000012	0.328386
C38	C	1.385962	0.499988	0.828386
C39	C	0.892067	-0.000017	0.140116
C40	C	1.392067	0.499983	0.640116
C41	C	0.782685	-0.000015	0.127395
C42	C	1.282685	0.499985	0.627395
C43	C	1.250765	-0.569854	0.265418
C44	C	1.750765	-0.069854	0.765418
C45	C	1.250753	-0.430176	0.265413
C46	C	1.750753	0.069824	0.765413
C47	C	1.441398	-0.000021	0.276679
C48	C	1.941398	0.499979	0.776679
C49	C	1.557813	-0.000016	0.290223
C50	C	2.057813	0.499984	0.790223
C51	C	1.239499	-0.000026	0.074780
C52	C	1.739499	0.499974	0.574780
C53	C	1.225954	-0.000024	-0.041635
C54	C	1.725954	0.499976	0.458365
N55	N	1.250783	0.318809	0.265420
N56	N	1.750783	0.818809	0.765420
C57	C	1.388784	-0.000002	-0.266510
C58	C	1.888784	0.499998	0.233490
C59	C	1.376062	0.000000	-0.375892
C60	C	1.876062	0.500000	0.124108
C61	C	1.187791	-0.000008	-0.369785
C62	C	1.687791	0.499992	0.130215
C63	C	1.200513	-0.000010	-0.260402
C64	C	1.700513	0.499990	0.239598
C65	C	1.301012	-0.000009	-0.208769
C66	C	1.801012	0.499991	0.291231
C67	C	1.313732	-0.000020	-0.099384
C68	C	1.813732	0.499980	0.400616
C69	C	1.125462	-0.000020	-0.093279
C70	C	1.625462	0.499980	0.406721
C71	C	1.112741	-0.000017	-0.202661
C72	C	1.612741	0.499983	0.297339
C73	C	1.262025	-0.000010	0.456052
C74	C	1.762025	0.499990	0.956052
C75	C	1.275569	-0.000004	0.572467
C76	C	1.775569	0.499996	1.072467
H77	H	0.928000	-0.000014	0.410218
H78	H	1.428000	0.499986	0.910218
Cl79	Cl	1.515122	-0.000031	-0.201595
Cl80	Cl	2.015122	0.499969	0.298405
Cl81	Cl	1.015114	-0.000044	-0.020684
Cl82	Cl	1.515114	0.499956	0.479316
H83	H	1.030917	-0.000014	-0.244717
H84	H	1.530917	0.499986	0.255283
H85	H	0.573502	-0.000117	0.120623
H86	H	1.073502	0.499883	0.620623
Cl87	Cl	0.536869	-0.000028	0.501063
Cl88	Cl	1.036869	0.499972	1.001063
Cl89	Cl	0.783751	-0.000006	0.529775
Cl90	Cl	1.283751	0.499994	1.029775
Cl91	Cl	0.717764	-0.000017	0.001059
Cl92	Cl	1.217764	0.499983	0.501059
H93	H	0.939092	-0.000006	0.068646
H94	H	1.439092	0.499994	0.568646
H95	H	1.447536	0.000010	-0.422901
H96	H	1.947536	0.500010	0.077099
Cl97	Cl	1.440073	-0.000027	-0.034474
Cl98	Cl	1.940073	0.499973	0.465526
Cl99	Cl	1.061460	0.000027	-0.434714
Cl100	Cl	1.561460	0.500027	0.065286
