data_functionalizedCrystal
_audit_creation_method	'MofGen! by Chris Wilmer'
_symmetry_space_group_name_H-M	'P1'
_symmetry_Int_Tables_number	1
_symmetry_cell_setting	triclinic
loop_
_symmetry_equiv_pos_as_xyz
  x,y,z
_cell_length_a	18.760487
_cell_length_b	21.606444
_cell_length_c	21.606444
_cell_angle_alpha	60.003167
_cell_angle_beta	90.035145
_cell_angle_gamma	60.019231
loop_
_atom_site_label
_atom_site_type_symbol
_atom_site_fract_x
_atom_site_fract_y
_atom_site_fract_z
Zr1	Zr	0.686677	0.677443	-0.080830
O2	O	0.572861	0.806558	-0.179710
O3	O	0.721568	0.548326	-0.050522
O4	O	0.721570	0.677439	-0.179634
O5	O	0.572857	0.677449	0.051253
O6	O	0.838873	0.677439	-0.179572
O7	O	0.572860	0.677445	-0.050597
O8	O	0.838870	0.446480	0.051387
O9	O	0.572860	0.908408	-0.179706
O10	O	0.823990	0.601435	-0.037545
O11	O	0.736446	0.601438	0.038418
O12	O	0.736448	0.753452	-0.113596
O13	O	0.648904	0.753455	-0.037634
Zr14	Zr	0.873757	0.677450	0.081708
Zr15	Zr	0.873761	0.677443	-0.080731
Zr16	Zr	0.686673	0.677450	0.081608
Zr17	Zr	0.686675	0.839884	-0.080825
Zr18	Zr	0.873759	0.515010	0.081703
O19	O	0.838866	0.806567	0.051399
O20	O	0.838872	0.806557	-0.179568
O21	O	0.572855	0.806567	0.051257
O22	O	0.987573	0.548336	0.180587
O23	O	0.987579	0.548326	-0.050379
O24	O	0.721562	0.548336	0.180445
O25	O	0.987577	0.677444	-0.050375
O26	O	0.838864	0.677454	0.180512
O27	O	0.721561	0.677454	0.180449
O28	O	0.987574	0.677449	0.051474
O29	O	0.721567	0.908408	-0.179627
O30	O	0.838867	0.446485	0.180504
O31	O	0.987574	0.446485	0.180584
O32	O	0.987577	0.446479	0.051467
O33	O	0.572857	0.908414	-0.050589
O34	O	0.721564	0.908414	-0.050510
O35	O	0.823986	0.601441	0.114474
O36	O	0.911530	0.601438	0.038511
O37	O	0.823988	0.753455	-0.037540
O38	O	0.736444	0.753458	0.038423
C39	C	0.780220	0.474259	0.000432
C40	C	0.780220	0.405299	0.000430
C41	C	0.825915	0.372899	-0.039223
C42	C	0.825918	0.308099	-0.039218
C43	C	0.780221	0.275704	0.000436
C44	C	0.734524	0.308106	0.040094
C45	C	0.734527	0.372901	0.040093
C46	C	0.734514	0.046797	0.040100
C47	C	0.734513	-0.018000	0.040096
C48	C	0.825906	-0.018004	-0.039210
C49	C	0.825908	0.046790	-0.039211
C50	C	0.780216	0.079183	0.000449
C51	C	0.780214	0.149445	0.000444
C52	C	0.780217	0.205447	0.000437
C53	C	0.546203	0.677447	0.000314
C54	C	0.466780	0.677447	0.000271
C55	C	0.085268	0.756801	-0.039127
C56	C	0.176667	0.598093	0.040271
C57	C	0.251289	0.598091	0.040206
C58	C	0.242903	0.677446	0.000473
C59	C	0.159895	0.756802	-0.039195
C60	C	0.334302	0.518737	0.079868
C61	C	0.408931	0.518732	0.079803
C62	C	0.400545	0.598088	0.040074
C63	C	0.317531	0.677447	0.000405
C64	C	0.309145	0.756802	-0.039329
C65	C	0.226131	0.836162	-0.078994
C66	C	0.151510	0.836158	-0.078925
C67	C	0.475166	0.598092	0.040005
C68	C	0.383772	0.756803	-0.039397
C69	C	1.014231	0.677446	0.000564
C70	C	1.093654	0.677446	0.000606
C71	C	0.780222	0.677438	-0.202747
C72	C	0.780224	0.677435	-0.271707
C73	C	0.780215	0.880635	0.000445
C74	C	0.780214	0.949595	0.000448
C75	C	0.734517	0.756809	-0.734715
C76	C	0.734515	0.756807	-0.669917
C77	C	0.780212	0.677453	-0.597822
C78	C	0.825906	0.598096	-0.590525
C79	C	0.825903	0.598099	-0.655321
C80	C	0.825921	0.598081	-0.329207
C81	C	0.825923	0.598083	-0.264409
C82	C	0.734533	0.756788	-0.343802
C83	C	0.734529	0.756791	-0.408599
C84	C	0.780220	0.677435	-0.401297
C85	C	0.780220	0.677439	-0.471558
C86	C	0.780217	0.677448	-0.527562
C87	C	0.780212	0.677455	0.203625
C88	C	0.780210	0.677458	0.272584
C89	C	1.014234	0.474258	0.000557
C90	C	1.093657	0.405298	0.000597
C91	C	0.780214	0.474267	0.203618
C92	C	0.780213	0.405310	0.272575
C93	C	1.014228	0.474267	0.203743
C94	C	1.093650	0.405310	0.272743
C95	C	0.546206	0.880626	-0.202866
C96	C	0.466784	0.949583	-0.271865
C97	C	0.546200	0.880635	0.000320
C98	C	0.466777	0.949595	0.000280
C99	C	0.780220	0.880626	-0.202740
C100	C	0.780221	0.949583	-0.271698
C101	C	1.085260	0.372912	-0.039091
C102	C	1.159879	0.308126	-0.039068
C103	C	1.242895	0.275722	0.000647
C104	C	1.251290	0.308114	0.040337
C105	C	1.176672	0.372904	0.040310
C106	C	0.825908	0.372929	0.344666
C107	C	0.825903	0.308145	0.409464
C108	C	0.780209	0.275740	0.402171
C109	C	0.734509	0.308128	0.330073
C110	C	0.734509	0.372914	0.265276
C111	C	1.176652	0.372925	0.265494
C112	C	1.251284	0.308141	0.330320
C113	C	1.242912	0.275739	0.402394
C114	C	1.159901	0.308130	0.409642
C115	C	1.085271	0.372917	0.344816
C116	C	0.383782	0.981976	-0.264616
C117	C	0.309150	1.046780	-0.329443
C118	C	0.317522	1.079185	-0.401517
C119	C	0.400533	1.046790	-0.408764
C120	C	0.475163	0.981992	-0.343939
C121	C	0.475174	0.981988	0.039962
C122	C	0.400555	1.046792	0.039921
C123	C	0.317539	1.079198	0.000203
C124	C	0.309144	1.046803	-0.039483
C125	C	0.383763	0.982004	-0.039447
C126	C	0.825924	0.981968	-0.264380
C127	C	0.825942	1.046752	-0.329167
C128	C	0.780251	1.079154	-0.401270
C129	C	0.734547	1.046763	-0.408586
C130	C	0.734534	0.981976	-0.343800
H131	H	0.863114	-0.044389	-0.071501
Cl132	Cl	1.149391	0.267386	0.500255
H133	H	0.376913	0.955632	-0.071758
H134	H	0.376949	0.955595	-0.205936
H135	H	0.697308	0.821429	-0.793415
H136	H	0.476517	0.454112	0.112100
H137	H	0.697314	0.955615	-0.349769
Cl138	Cl	0.411043	1.087534	-0.499378
H139	H	0.241543	1.073198	-0.071821
Cl140	Cl	0.411129	1.087501	0.089821
H141	H	0.863123	0.399275	-0.071517
H142	H	0.256747	1.131948	-0.454296
H143	H	1.017690	0.399277	0.350729
H144	H	0.083916	0.900769	-0.111217
Cl145	Cl	0.883346	0.267389	-0.089087
Cl146	Cl	0.223741	1.160659	0.000167
Cl147	Cl	0.204805	1.087489	-0.320314
H148	H	1.183485	0.399297	0.206813
Cl149	Cl	0.883397	1.087464	-0.319952
Cl150	Cl	0.883355	0.087515	-0.089068
Cl151	Cl	0.677062	-0.058726	0.089952
H152	H	0.780268	1.131909	-0.454016
Cl153	Cl	0.883349	0.498336	-0.499890
Cl154	Cl	0.883372	0.941246	-0.173744
H155	H	0.183489	0.533486	0.072618
H156	H	0.697347	1.073155	-0.467301
H157	H	0.697312	0.073160	0.072397
H158	H	0.780217	0.222986	0.454939
Cl159	Cl	0.883363	0.267440	0.500092
H160	H	0.697322	0.281721	0.072385
H161	H	0.697315	0.399281	0.072380
H162	H	0.219313	0.900773	-0.111349
Cl163	Cl	0.373220	0.856570	-0.089346
H164	H	0.697302	0.399271	0.206579
Cl165	Cl	0.980907	0.413638	-0.089030
Cl166	Cl	0.579505	0.941271	-0.353065
H167	H	1.153027	0.281759	-0.071388
Cl168	Cl	-0.019087	0.856563	-0.088985
Cl169	Cl	0.344838	0.418983	0.129812
Cl170	Cl	1.187243	0.413604	0.090215
H171	H	0.542752	0.533478	0.072306
H172	H	1.303647	0.222965	0.000664
Cl173	Cl	0.677088	0.856552	-0.352980
Cl174	Cl	0.677082	0.856555	-0.499231
Cl175	Cl	0.677036	0.856567	-0.679098
H176	H	0.697306	0.281734	0.324146
Cl177	Cl	1.355659	0.267365	0.090266
H178	H	0.863117	0.399306	0.350618
Cl179	Cl	0.883362	0.498318	-0.320018
Cl180	Cl	0.883372	0.498316	-0.173771
Cl181	Cl	0.579527	0.941267	0.089895
Cl182	Cl	0.883345	0.498340	-0.646144
H183	H	1.318868	0.281775	0.324406
H184	H	1.303688	0.222986	0.455173
