data_functionalizedCrystal
_audit_creation_method	'MofGen! by Chris Wilmer'
_symmetry_space_group_name_H-M	'P1'
_symmetry_Int_Tables_number	1
_symmetry_cell_setting	triclinic
loop_
_symmetry_equiv_pos_as_xyz
  x,y,z
_cell_length_a	6.817900
_cell_length_b	14.125465
_cell_length_c	14.125469
_cell_angle_alpha	83.776394
_cell_angle_beta	79.601122
_cell_angle_gamma	100.398878
loop_
_atom_site_label
_atom_site_type_symbol
_atom_site_fract_x
_atom_site_fract_y
_atom_site_fract_z
V1	V	-3.975811	-0.299607	0.132289
O2	O	-3.980353	-0.294286	-0.007207
O3	O	-3.912231	-0.297190	0.263124
O4	O	-3.912235	-0.430444	0.129880
O5	O	-3.980349	-0.160110	0.126958
V6	V	-4.463372	-0.282967	0.115647
O7	O	-4.228211	-0.336109	0.168792
O8	O	-4.661169	-0.246465	0.079143
O9	O	-4.303745	-0.285384	-0.015188
O10	O	-4.576227	-0.288288	0.255143
O11	O	-4.576231	-0.422464	0.120977
O12	O	-4.303741	-0.152130	0.118055
C13	C	-3.754035	-0.462346	0.125064
C14	C	-3.783238	-0.569303	0.123961
C15	C	-3.754030	-0.292369	0.295030
C16	C	-3.783232	-0.291265	0.401987
C17	C	-3.836765	-0.765132	0.121938
C18	C	-4.021787	-0.817442	0.125996
C19	C	-4.051572	-0.926408	0.124870
C20	C	-3.806972	-0.656156	0.123063
C21	C	-4.125284	-0.120223	0.122875
C22	C	-4.075320	-0.013265	0.123973
C23	C	-4.125288	-0.290202	-0.047089
C24	C	-4.075323	-0.291313	-0.154046
C25	C	-3.836763	-0.289258	0.597818
C26	C	-4.021786	-0.293319	0.650129
C27	C	-4.051573	-0.292203	0.759096
C28	C	-3.806968	-0.290375	0.488841
H29	H	-4.157823	-0.780391	0.130325
F30	F	-3.658974	-0.813560	0.116300
F31	F	-4.199592	-0.298959	0.601702
F32	F	-3.658970	-0.283614	0.646245
