data_functionalizedCrystal
_audit_creation_method	'MofGen! by Chris Wilmer'
_symmetry_space_group_name_H-M	'P1'
_symmetry_Int_Tables_number	1
_symmetry_cell_setting	triclinic
loop_
_symmetry_equiv_pos_as_xyz
  x,y,z
_cell_length_a	15.072220
_cell_length_b	14.971486
_cell_length_c	14.971487
_cell_angle_alpha	83.614266
_cell_angle_beta	89.999616
_cell_angle_gamma	89.992455
loop_
_atom_site_label
_atom_site_type_symbol
_atom_site_fract_x
_atom_site_fract_y
_atom_site_fract_z
O1	O	0.073679	-1.186956	-0.116557
O2	O	0.323679	-0.936956	0.133443
O3	O	0.573679	-0.686956	0.383443
O4	O	0.823679	-0.436956	0.633443
O5	O	0.073703	-0.926556	-0.130516
O6	O	0.323703	-0.676556	0.119484
O7	O	0.573703	-0.426556	0.369484
O8	O	0.823703	-0.176556	0.619484
O9	O	0.073686	-1.063735	0.006664
O10	O	0.323686	-0.813735	0.256664
O11	O	0.573686	-0.563735	0.506664
O12	O	0.823686	-0.313735	0.756664
O13	O	0.073696	-1.049777	-0.253736
O14	O	0.323696	-0.799777	-0.003736
O15	O	0.573696	-0.549777	0.246264
O16	O	0.823696	-0.299777	0.496264
O17	O	-0.073879	-1.063701	0.006656
O18	O	0.176121	-0.813701	0.256656
O19	O	0.426121	-0.563701	0.506656
O20	O	0.676121	-0.313701	0.756656
O21	O	-0.073862	-0.926522	-0.130523
O22	O	0.176138	-0.676522	0.119477
O23	O	0.426138	-0.426522	0.369477
O24	O	0.676138	-0.176522	0.619477
O25	O	-0.073886	-1.186922	-0.116564
O26	O	0.176114	-0.936922	0.133436
O27	O	0.426114	-0.686922	0.383436
O28	O	0.676114	-0.436922	0.633436
Zn29	Zn	-0.097303	-1.056717	-0.123545
Zn30	Zn	0.152697	-0.806717	0.126455
Zn31	Zn	0.402697	-0.556717	0.376455
Zn32	Zn	0.652697	-0.306717	0.626455
Zn33	Zn	0.097120	-1.056761	-0.123535
Zn34	Zn	0.347120	-0.806761	0.126465
Zn35	Zn	0.597120	-0.556761	0.376465
Zn36	Zn	0.847120	-0.306761	0.626465
O37	O	-0.073869	-1.049743	-0.253744
O38	O	0.176131	-0.799743	-0.003744
O39	O	0.426131	-0.549743	0.246256
O40	O	0.676131	-0.299743	0.496256
C41	C	-0.000077	-0.893214	-0.129895
C42	C	0.249923	-0.643214	0.120105
C43	C	0.499923	-0.393214	0.370105
C44	C	0.749923	-0.143214	0.620105
C45	C	-0.000067	-0.793917	-0.128024
C46	C	0.249933	-0.543917	0.121976
C47	C	0.499933	-0.293917	0.371976
C48	C	0.749933	-0.043917	0.621976
N49	N	-0.229992	-1.056693	-0.123551
N50	N	0.020008	-0.806693	0.126449
N51	N	0.270008	-0.556693	0.376449
N52	N	0.520008	-0.306693	0.626449
C53	C	-0.000096	-1.063094	0.039985
C54	C	0.249904	-0.813094	0.289985
C55	C	0.499904	-0.563094	0.539985
C56	C	0.749904	-0.313094	0.789985
C57	C	-0.000093	-1.061223	0.139282
C58	C	0.249907	-0.811223	0.389282
C59	C	0.499907	-0.561223	0.639282
C60	C	0.749907	-0.311223	0.889282
C61	C	-0.589194	-1.056759	-0.123531
C62	C	-0.339194	-0.806759	0.126469
C63	C	-0.089194	-0.556759	0.376469
C64	C	0.160806	-0.306759	0.626469
C65	C	-0.551578	-0.983111	-0.196687
C66	C	-0.301578	-0.733111	0.053313
C67	C	-0.051578	-0.483111	0.303313
C68	C	0.198422	-0.233111	0.553313
C69	C	-0.448752	-0.983280	-0.196954
C70	C	-0.198752	-0.733280	0.053046
C71	C	0.051248	-0.483280	0.303046
C72	C	0.301248	-0.233280	0.553046
C73	C	-0.410990	-1.056726	-0.123541
C74	C	-0.160990	-0.806726	0.126459
C75	C	0.089010	-0.556726	0.376459
C76	C	0.339010	-0.306726	0.626459
C77	C	-0.448289	-1.150076	-0.144025
C78	C	-0.198289	-0.900076	0.105975
C79	C	0.051711	-0.650076	0.355975
C80	C	0.301711	-0.400076	0.605975
C81	C	-0.551146	-1.149663	-0.144545
C82	C	-0.301146	-0.899663	0.105455
C83	C	-0.051146	-0.649663	0.355455
C84	C	0.198854	-0.399663	0.605455
C85	C	-0.551295	-1.037890	-0.029676
C86	C	-0.301295	-0.787890	0.220324
C87	C	-0.051295	-0.537890	0.470324
C88	C	0.198705	-0.287890	0.720324
C89	C	-0.448432	-1.035749	-0.030300
C90	C	-0.198432	-0.785749	0.219700
C91	C	0.051568	-0.535749	0.469700
C92	C	0.301568	-0.285749	0.719700
C93	C	-0.310276	-1.056712	-0.123545
C94	C	-0.060276	-0.806712	0.126455
C95	C	0.189724	-0.556712	0.376455
C96	C	0.439724	-0.306712	0.626455
C97	C	-0.689907	-1.056779	-0.123530
C98	C	-0.439907	-0.806779	0.126470
C99	C	-0.189907	-0.556779	0.376470
C100	C	0.060093	-0.306779	0.626470
N101	N	0.229809	-1.056792	-0.123522
N102	N	0.479809	-0.806792	0.126478
N103	N	0.729809	-0.556792	0.376478
N104	N	0.979809	-0.306792	0.626478
C105	C	-0.000105	-1.220264	-0.117185
C106	C	0.249895	-0.970264	0.132815
C107	C	0.499895	-0.720264	0.382815
C108	C	0.749895	-0.470264	0.632815
C109	C	-0.000108	-1.319561	-0.119055
C110	C	0.249892	-1.069561	0.130945
C111	C	0.499892	-0.819561	0.380945
C112	C	0.749892	-0.569561	0.630945
C113	C	-0.000066	-0.736692	-0.208614
C114	C	0.249934	-0.486692	0.041386
C115	C	0.499934	-0.236692	0.291386
C116	C	0.749934	0.013308	0.541386
C117	C	-0.000079	-0.643393	-0.206850
C118	C	0.249921	-0.393393	0.043150
C119	C	0.499921	-0.143393	0.293150
C120	C	0.749921	0.106607	0.543150
C121	C	-0.000088	-0.607320	-0.124497
C122	C	0.249912	-0.357320	0.125503
C123	C	0.499912	-0.107320	0.375503
C124	C	0.749912	0.142680	0.625503
C125	C	-0.000092	-0.664552	-0.043902
C126	C	0.249908	-0.414552	0.206098
C127	C	0.499908	-0.164552	0.456098
C128	C	0.749908	0.085448	0.706098
C129	C	-0.000085	-0.757850	-0.045666
C130	C	0.249915	-0.507850	0.204334
C131	C	0.499915	-0.257850	0.454334
C132	C	0.749915	-0.007850	0.704334
C133	C	-0.000104	-0.470090	-0.040231
C134	C	0.249896	-0.220090	0.209769
C135	C	0.499896	0.029910	0.459769
C136	C	0.749896	0.279910	0.709769
C137	C	-0.000110	-0.376786	-0.038466
C138	C	0.249890	-0.126786	0.211534
C139	C	0.499890	0.123214	0.461534
C140	C	0.749890	0.373214	0.711534
C141	C	-0.000098	-0.355632	-0.201415
C142	C	0.249902	-0.105632	0.048585
C143	C	0.499902	0.144368	0.298585
C144	C	0.749902	0.394368	0.548585
C145	C	-0.000091	-0.448930	-0.203179
C146	C	0.249909	-0.198930	0.046821
C147	C	0.499909	0.051070	0.296821
C148	C	0.749909	0.301070	0.546821
C149	C	-0.000094	-0.506156	-0.122584
C150	C	0.249906	-0.256156	0.127416
C151	C	0.499906	-0.006156	0.377416
C152	C	0.749906	0.243844	0.627416
C153	C	-0.000100	-1.141812	0.196507
C154	C	0.249900	-0.891812	0.446507
C155	C	0.499900	-0.641812	0.696507
C156	C	0.749900	-0.391812	0.946507
C157	C	-0.000090	-1.140049	0.289807
C158	C	0.249910	-0.890049	0.539807
C159	C	0.499910	-0.640049	0.789807
C160	C	0.749910	-0.390049	1.039807
C161	C	-0.000078	-1.057695	0.325879
C162	C	0.249922	-0.807695	0.575879
C163	C	0.499922	-0.557695	0.825879
C164	C	0.749922	-0.307695	1.075879
C165	C	-0.000068	-0.977100	0.268646
C166	C	0.249932	-0.727100	0.518646
C167	C	0.499932	-0.477100	0.768646
C168	C	0.749932	-0.227100	1.018646
C169	C	-0.000072	-0.978864	0.175349
C170	C	0.249928	-0.728864	0.425349
C171	C	0.499928	-0.478864	0.675349
C172	C	0.749928	-0.228864	0.925349
C173	C	-0.000061	-0.973428	0.463109
C174	C	0.249939	-0.723428	0.713109
C175	C	0.499939	-0.473428	0.963109
C176	C	0.749939	-0.223428	1.213109
C177	C	-0.000059	-0.971664	0.556413
C178	C	0.249941	-0.721664	0.806413
C179	C	0.499941	-0.471664	1.056413
C180	C	0.749941	-0.221664	1.306413
C181	C	-0.000078	-1.134613	0.577567
C182	C	0.249922	-0.884613	0.827567
C183	C	0.499922	-0.634613	1.077567
C184	C	0.749922	-0.384613	1.327567
C185	C	-0.000083	-1.136377	0.484269
C186	C	0.249917	-0.886377	0.734269
C187	C	0.499917	-0.636377	0.984269
C188	C	0.749917	-0.386377	1.234269
C189	C	-0.000075	-1.055781	0.427043
C190	C	0.249925	-0.805781	0.677043
C191	C	0.499925	-0.555781	0.927043
C192	C	0.749925	-0.305781	1.177043
C193	C	-0.000082	-1.050384	0.712935
C194	C	0.249918	-0.800384	0.962935
C195	C	0.499918	-0.550384	1.212935
C196	C	0.749918	-0.300384	1.462935
C197	C	-0.000066	-1.052253	0.613638
C198	C	0.249934	-0.802253	0.863638
C199	C	0.499934	-0.552253	1.113638
C200	C	0.749934	-0.302253	1.363638
H201	H	-0.423535	-0.913894	-0.184735
H202	H	-0.173535	-0.663894	0.065265
H203	H	0.076465	-0.413894	0.315265
H204	H	0.326465	-0.163894	0.565265
Br205	Br	-0.000047	-0.864047	0.385445
Br206	Br	0.249953	-0.614047	0.635445
Br207	Br	0.499953	-0.364047	0.885445
Br208	Br	0.749953	-0.114047	1.135445
H209	H	-0.424054	-0.967079	-0.014757
H210	H	-0.174054	-0.717079	0.235243
H211	H	0.075946	-0.467079	0.485243
H212	H	0.325946	-0.217079	0.735243
Br213	Br	-0.594620	-1.002942	-0.312121
Br214	Br	-0.344620	-0.752942	-0.062121
Br215	Br	-0.094620	-0.502942	0.187879
Br216	Br	0.155380	-0.252942	0.437879
H217	H	-0.000082	-1.200237	0.624165
H218	H	0.249918	-0.950237	0.874165
H219	H	0.499918	-0.700237	1.124165
H220	H	0.749918	-0.450237	1.374165
Br221	Br	-0.405339	-1.178428	-0.256815
Br222	Br	-0.155339	-0.928428	-0.006815
Br223	Br	0.094661	-0.678428	0.243185
Br224	Br	0.344661	-0.428428	0.493185
H225	H	-0.576333	-0.913501	-0.184667
H226	H	-0.326333	-0.663501	0.065333
H227	H	-0.076333	-0.413501	0.315333
H228	H	0.173667	-0.163501	0.565333
Br229	Br	-0.000129	-1.253583	0.147562
Br230	Br	0.249871	-1.003583	0.397562
Br231	Br	0.499871	-0.753583	0.647562
Br232	Br	0.749871	-0.503583	0.897562
H233	H	-0.424137	-0.995340	-0.266601
H234	H	-0.174137	-0.745340	-0.016601
H235	H	0.075863	-0.495340	0.233399
H236	H	0.325863	-0.245340	0.483399
H237	H	-0.000100	-0.309034	-0.267039
H238	H	0.249900	-0.059034	-0.017039
H239	H	0.499900	0.190966	0.232961
H240	H	0.749900	0.440966	0.482961
H241	H	-0.575127	-1.166276	-0.212996
H242	H	-0.325127	-0.916276	0.037004
H243	H	-0.075127	-0.666276	0.287004
H244	H	0.174873	-0.416276	0.537004
H245	H	-0.000053	-0.910046	0.298024
H246	H	0.249947	-0.660046	0.548024
H247	H	0.499947	-0.410046	0.798024
H248	H	0.749947	-0.160046	1.048024
H249	H	-0.000097	-1.205672	0.336396
H250	H	0.249903	-0.955672	0.586396
H251	H	0.499903	-0.705672	0.836396
H252	H	0.749903	-0.455672	1.086396
H253	H	-0.000077	-0.596803	-0.272474
H254	H	0.249923	-0.346803	-0.022474
H255	H	0.499923	-0.096803	0.227526
H256	H	0.749923	0.153197	0.477526
Br257	Br	-0.000045	-0.785638	-0.320385
Br258	Br	0.249955	-0.535638	-0.070385
Br259	Br	0.499955	-0.285638	0.179615
Br260	Br	0.749955	-0.035638	0.429615
Br261	Br	-0.405607	-1.119344	0.064703
Br262	Br	-0.155607	-0.869344	0.314703
Br263	Br	0.094393	-0.619344	0.564703
Br264	Br	0.344393	-0.369344	0.814703
Br265	Br	-0.000066	-0.497886	-0.314946
Br266	Br	0.249934	-0.247886	-0.064946
Br267	Br	0.499934	0.002114	0.185054
Br268	Br	0.749934	0.252114	0.435054
Br269	Br	-0.000096	-1.248143	0.435314
Br270	Br	0.249904	-0.998143	0.685314
Br271	Br	0.499904	-0.748143	0.935314
Br272	Br	0.749904	-0.498143	1.185314
H273	H	-0.000086	-0.804443	0.019958
H274	H	0.249914	-0.554443	0.269958
H275	H	0.499914	-0.304443	0.519958
H276	H	0.749914	-0.054443	0.769958
Br277	Br	-0.591836	-1.127405	0.061063
Br278	Br	-0.341836	-0.877405	0.311063
Br279	Br	-0.091836	-0.627405	0.561063
Br280	Br	0.158164	-0.377405	0.811063
Br281	Br	-0.000151	-0.327830	0.073300
Br282	Br	0.249849	-0.077830	0.323300
Br283	Br	0.499849	0.172170	0.573300
Br284	Br	0.749849	0.422170	0.823300
Br285	Br	-0.000047	-0.859897	0.605368
Br286	Br	0.249953	-0.609897	0.855368
Br287	Br	0.499953	-0.359897	1.105368
Br288	Br	0.749953	-0.109897	1.355368
H289	H	-0.576028	-1.206184	-0.093369
H290	H	-0.326028	-0.956184	0.156631
H291	H	-0.076028	-0.706184	0.406631
H292	H	0.173972	-0.456184	0.656631
H293	H	-0.000108	-0.516682	0.025399
H294	H	0.249892	-0.266682	0.275399
H295	H	0.499892	-0.016682	0.525399
H296	H	0.749892	0.233318	0.775399
Br297	Br	-0.000113	-0.615598	0.067865
Br298	Br	0.249887	-0.365598	0.317865
Br299	Br	0.499887	-0.115598	0.567865
Br300	Br	0.749887	0.134402	0.817865
H301	H	-0.423826	-1.206194	-0.092164
H302	H	-0.173826	-0.956194	0.157836
H303	H	0.076174	-0.706194	0.407836
H304	H	0.326174	-0.456194	0.657836
H305	H	-0.000066	-0.913240	0.128756
H306	H	0.249934	-0.663240	0.378756
H307	H	0.499934	-0.413240	0.628756
H308	H	0.749934	-0.163240	0.878756
H309	H	-0.577280	-0.971292	-0.010004
H310	H	-0.327280	-0.721292	0.239996
H311	H	-0.077280	-0.471292	0.489996
H312	H	0.172720	-0.221292	0.739996
