data_functionalizedCrystal
_audit_creation_method	'MofGen! by Chris Wilmer'
_symmetry_space_group_name_H-M	'P1'
_symmetry_Int_Tables_number	1
_symmetry_cell_setting	triclinic
loop_
_symmetry_equiv_pos_as_xyz
  x,y,z
_cell_length_a	10.489711
_cell_length_b	12.811415
_cell_length_c	11.295483
_cell_angle_alpha	88.701575
_cell_angle_beta	85.851708
_cell_angle_gamma	84.283939
loop_
_atom_site_label
_atom_site_type_symbol
_atom_site_fract_x
_atom_site_fract_y
_atom_site_fract_z
O1	O	1.703073	0.139865	-0.114170
O2	O	1.331919	0.153693	-0.115656
O3	O	1.525422	-0.004786	-0.098540
O4	O	1.509570	0.298344	-0.131285
O5	O	1.508426	0.009112	0.098009
O6	O	1.314923	0.167591	0.080894
O7	O	1.686077	0.153763	0.082380
Cu8	Cu	1.498948	0.161946	0.099584
Cu9	Cu	1.519048	0.145510	-0.132859
O10	O	1.492574	0.312242	0.065265
C11	C	1.275885	0.159604	-0.017268
C12	C	1.134243	0.156500	-0.016930
C13	C	0.952185	0.251803	-0.027238
C14	C	1.052547	0.197345	-0.119003
C15	C	1.035763	0.211021	0.074782
C16	C	0.982257	0.096450	-0.108197
C17	C	0.965456	0.110147	0.085674
C18	C	1.065792	0.055614	-0.006107
C19	C	1.515515	-0.036653	0.003925
C20	C	1.511301	-0.152311	0.016411
C21	C	1.521890	-0.384788	-0.174429
C22	C	1.517932	-0.493459	-0.162702
C23	C	1.499415	-0.478328	0.051589
C24	C	1.503374	-0.369656	0.039863
C25	C	1.514614	-0.322890	-0.073150
C26	C	1.518582	-0.214217	-0.084875
C27	C	1.500056	-0.199087	0.129415
C28	C	1.496097	-0.307758	0.141142
C29	C	1.742111	0.147852	-0.016010
C30	C	1.883754	0.150956	-0.016356
C31	C	1.502481	0.344108	-0.037203
C32	C	1.506696	0.459766	-0.049697
N33	N	1.484820	0.173505	0.263072
N34	N	1.533186	0.133942	-0.296346
C35	C	1.634885	0.050672	0.525627
C36	C	1.624217	0.059415	0.649346
C37	C	1.452813	0.199729	0.634233
C38	C	1.463480	0.190986	0.510513
C39	C	1.554520	0.116456	0.456215
C40	C	1.565193	0.107719	0.332493
C41	C	1.393783	0.248027	0.317382
C42	C	1.383116	0.256770	0.441101
H43	H	1.090772	0.234225	-0.205538
H44	H	1.308989	0.317448	0.485326
H45	H	1.531054	-0.346711	-0.266448
H46	H	1.378681	0.260402	0.678460
H47	H	1.523852	-0.543852	-0.245175
H48	H	0.902788	0.334684	-0.036288
H49	H	1.328348	0.301596	0.260852
H50	H	0.927202	0.073305	0.172212
H51	H	0.958395	0.048020	-0.185616
H52	H	1.059781	0.259502	0.152100
H53	H	1.114969	-0.027355	0.002807
H54	H	1.527738	-0.176143	-0.176896
H55	H	1.486941	-0.345850	0.233153
H56	H	1.490253	-0.516423	0.143599
H57	H	1.494136	-0.148678	0.211884
H58	H	1.639326	0.047036	0.288284
H59	H	1.709022	-0.010006	0.481416
H60	H	1.689657	0.005846	0.705859
