data_functionalizedCrystal
_audit_creation_method	'MofGen! by Chris Wilmer'
_symmetry_space_group_name_H-M	'P1'
_symmetry_Int_Tables_number	1
_symmetry_cell_setting	triclinic
loop_
_symmetry_equiv_pos_as_xyz
  x,y,z
_cell_length_a	12.759401
_cell_length_b	16.959453
_cell_length_c	12.759393
_cell_angle_alpha	89.964958
_cell_angle_beta	89.981433
_cell_angle_gamma	90.019032
loop_
_atom_site_label
_atom_site_type_symbol
_atom_site_fract_x
_atom_site_fract_y
_atom_site_fract_z
Zn1	Zn	1.606217	-0.314655	-0.593958
Zn2	Zn	1.606095	-0.446857	-0.418267
Zn3	Zn	1.430519	-0.314694	-0.418297
Zn4	Zn	1.430491	-0.446793	-0.593909
O5	O	1.518330	-0.380750	-0.506108
O6	O	1.753222	-0.332202	-0.570660
O7	O	1.582765	-0.429368	-0.271250
O8	O	1.453888	-0.204078	-0.441632
O9	O	1.753132	-0.429330	-0.441581
O10	O	1.582973	-0.204049	-0.570689
O11	O	1.453770	-0.332268	-0.271272
O12	O	1.283494	-0.332207	-0.441584
O13	O	1.453841	-0.429222	-0.740936
O14	O	1.283474	-0.429260	-0.570605
O15	O	1.582946	-0.332141	-0.740973
O16	O	1.582738	-0.557459	-0.441534
O17	O	1.453723	-0.557413	-0.570576
C18	C	1.245363	-0.380731	-0.506093
C19	C	1.128586	-0.380742	-0.506112
C20	C	1.073764	-0.330263	-0.573427
C21	C	0.964040	-0.330278	-0.573434
C22	C	0.963970	-0.431258	-0.438807
C23	C	1.073692	-0.431239	-0.438795
C24	C	1.073803	-0.271965	-0.651157
C25	C	0.964079	-0.271981	-0.651163
C26	C	1.518243	-0.586116	-0.506069
C27	C	1.518301	-0.673973	-0.506088
C28	C	1.585631	-1.045375	-0.573435
C29	C	1.451323	-1.045521	-0.438937
C30	C	1.451284	-0.962976	-0.438913
C31	C	1.518419	-0.921626	-0.506152
C32	C	1.585592	-0.962821	-0.573415
C33	C	1.384105	-0.921774	-0.371658
C34	C	1.384063	-0.839223	-0.371632
C35	C	1.451203	-0.797871	-0.438867
C36	C	1.518379	-0.839072	-0.506132
C37	C	1.585514	-0.797722	-0.573371
C38	C	1.652696	-0.838921	-0.640631
C39	C	1.652732	-0.921470	-0.640649
C40	C	1.451167	-0.715323	-0.438849
C41	C	1.585474	-0.715168	-0.573351
C42	C	1.792364	-0.380769	-0.506123
C43	C	1.909140	-0.380777	-0.506130
C44	C	1.518404	-0.380670	-0.780141
C45	C	1.518435	-0.380636	-0.896918
C46	C	1.518447	-0.174582	-0.506169
C47	C	1.518497	-0.086725	-0.506196
C48	C	1.585669	-0.330081	-0.951801
C49	C	1.585694	-0.330052	-1.061525
C50	C	1.451248	-0.431141	-1.061474
C51	C	1.451219	-0.431165	-0.951752
C52	C	1.663294	-0.271721	-0.951831
C53	C	1.663319	-0.271692	-1.061555
C54	C	1.518318	-0.380772	-0.233140
C55	C	1.518490	-0.380583	-0.116364
H56	H	1.107866	-0.293958	-0.728393
N57	N	1.378663	-0.485661	-0.892555
H58	H	1.336081	-0.517659	-0.943944
H59	H	1.421360	-0.522266	-0.847000
H60	H	1.740563	-0.293667	-0.917793
H61	H	1.329445	-0.955447	-0.316919
H62	H	1.707353	-0.805244	-0.695383
N63	N	1.658076	-1.089807	-0.645988
H64	H	1.700594	-1.051083	-0.688580
H65	H	1.706742	-1.124057	-0.603277
N66	N	1.378925	-1.090117	-0.366413
H67	H	1.303840	-1.075783	-0.382654
H68	H	1.389234	-1.148648	-0.376668
H69	H	1.640148	-0.681506	-0.628102
N70	N	1.378739	-0.485627	-1.120616
H71	H	1.388952	-0.477937	-1.198453
H72	H	1.395039	-0.542089	-1.101425
N73	N	1.311612	-0.794789	-0.299086
H74	H	1.269091	-0.833511	-0.256494
H75	H	1.354396	-0.760551	-0.250495
N76	N	1.725184	-0.965902	-0.713195
H77	H	1.773907	-1.000156	-0.670549
H78	H	1.682399	-1.000097	-0.761839
H79	H	0.934332	-0.288453	-0.732498
N80	N	1.113252	-0.190849	-0.622467
H81	H	1.192409	-0.190803	-0.622449
H82	H	1.086843	-0.151217	-0.675330
H83	H	1.396463	-0.681782	-0.384091
N84	N	1.634482	-0.190638	-0.912409
H85	H	1.621637	-0.154438	-0.973958
H86	H	1.568847	-0.194213	-0.868396
N87	N	1.624790	-0.194641	-1.106659
H88	H	1.681677	-0.170293	-1.151234
H89	H	1.560707	-0.204630	-1.151162
N90	N	1.132825	-0.485670	-0.366174
H91	H	1.081398	-0.517660	-0.323533
H92	H	1.178367	-0.522285	-0.408836
N93	N	0.904763	-0.485717	-0.366199
H94	H	0.826935	-0.478068	-0.376416
H95	H	0.923936	-0.542181	-0.382409
H96	H	0.930045	-0.213803	-0.622169
H97	H	1.744688	-0.288089	-1.091332
