data_functionalizedCrystal
_audit_creation_method	'MofGen! by Chris Wilmer'
_symmetry_space_group_name_H-M	'P1'
_symmetry_Int_Tables_number	1
_symmetry_cell_setting	triclinic
loop_
_symmetry_equiv_pos_as_xyz
  x,y,z
_cell_length_a	15.297327
_cell_length_b	15.298563
_cell_length_c	12.759387
_cell_angle_alpha	99.643562
_cell_angle_beta	80.357357
_cell_angle_gamma	72.594738
loop_
_atom_site_label
_atom_site_type_symbol
_atom_site_fract_x
_atom_site_fract_y
_atom_site_fract_z
Zn1	Zn	-0.123882	-1.357698	0.345870
Zn2	Zn	-0.279453	-1.330656	0.206957
Zn3	Zn	-0.150874	-1.202165	0.206926
Zn4	Zn	-0.306315	-1.175225	0.419268
O5	O	-0.215131	-1.266436	0.294755
O6	O	-0.121981	-1.484251	0.296739
O7	O	-0.262451	-1.313569	0.059951
O8	O	-0.017134	-1.245388	0.194626
O9	O	-0.236278	-1.464383	0.194680
O10	O	0.002696	-1.359658	0.296708
O11	O	-0.167985	-1.219167	0.059928
O12	O	-0.194032	-1.068451	0.265798
O13	O	-0.282061	-1.199473	0.556534
O14	O	-0.308234	-1.048659	0.421805
O15	O	-0.148028	-1.333535	0.502608
O16	O	-0.413176	-1.287446	0.265851
O17	O	-0.432911	-1.173252	0.421836
C18	C	-0.256978	-1.024811	0.351763
C19	C	-0.274902	-0.921439	0.376182
C20	C	-0.087233	-0.671232	0.120477
C21	C	-0.070386	-0.768356	0.097534
C22	C	-0.121514	-0.806632	0.167194
C23	C	-0.189490	-0.747774	0.259800
C24	C	-0.206333	-0.650641	0.282750
C25	C	-0.240615	-0.786041	0.329467
C26	C	-0.308591	-0.727182	0.422074
C27	C	-0.325431	-0.630059	0.445018
C28	C	-0.274303	-0.591784	0.375359
C29	C	-0.223772	-0.883173	0.306518
C30	C	-0.342872	-0.862582	0.468791
C31	C	-0.359719	-0.765458	0.491733
C32	C	-0.456788	-1.224516	0.351829
C33	C	-0.560155	-1.206668	0.376260
C34	C	-0.810267	-1.394383	0.120410
C35	C	-0.713149	-1.411152	0.097450
C36	C	-0.674895	-1.360033	0.167151
C37	C	-0.733770	-1.292141	0.259815
C38	C	-0.830899	-1.275366	0.282772
C39	C	-0.695527	-1.241015	0.329513
C40	C	-0.754402	-1.173124	0.422177
C41	C	-0.851521	-1.156352	0.445130
C42	C	-0.889775	-1.207471	0.375429
C43	C	-0.598399	-1.257791	0.306555
C44	C	-0.619031	-1.138773	0.468917
C45	C	-0.716149	-1.122005	0.491877
C46	C	0.027474	-1.308544	0.237476
C47	C	0.130857	-1.326489	0.213067
C48	C	-0.215030	-1.266516	0.568753
C49	C	-0.214987	-1.266550	0.685514
C50	C	-0.173118	-0.509005	0.237512
C51	C	-0.155203	-0.612375	0.213085
C52	C	-0.215155	-1.266422	0.021796
C53	C	-0.214905	-1.266613	-0.095070
C54	C	-0.075343	-1.406219	0.848775
C55	C	-0.005579	-1.476003	0.765844
C56	C	-0.005615	-1.475972	0.656136
C57	C	-0.075423	-1.406150	0.629360
C58	C	-0.145188	-1.336366	0.712291
C59	C	-0.145143	-1.336403	0.821999
C60	C	-0.284752	-1.196765	0.768445
C61	C	-0.284714	-1.196791	0.878154
C62	C	-0.354561	-1.126943	0.741669
C63	C	-0.424323	-1.057154	0.824601
C64	C	-0.424284	-1.057188	0.934314
C65	C	-0.354478	-1.127007	0.961085
H66	H	-0.045607	-0.640059	0.063774
H67	H	-0.481159	-1.000314	0.802788
H68	H	-0.107793	-0.885715	0.148509
H69	H	-0.415065	-0.717522	0.567135
H70	H	-0.968855	-1.193824	0.394120
H71	H	-0.354588	-1.126926	0.652337
H72	H	-0.384502	-0.893745	0.525516
C73	C	-0.501031	-0.980417	1.025533
N74	N	-0.558839	-0.922591	1.094236
C75	C	0.004383	-0.833092	-0.004332
N76	N	0.060702	-0.881853	-0.081065
C77	C	-0.533647	-1.332472	0.204628
N78	N	-0.484876	-1.388727	0.127851
H79	H	-0.075453	-1.406137	0.540027
H80	H	-0.288020	-0.512698	0.394030
H81	H	-0.354435	-1.127036	1.050412
H82	H	-0.380775	-0.582140	0.520431
H83	H	-0.075298	-1.406242	0.938103
H84	H	-0.168422	-0.931087	0.231119
C85	C	-0.648397	-1.485815	-0.004491
N86	N	-0.599625	-1.542049	-0.081284
C87	C	-0.576956	-1.082540	0.545595
N88	N	-0.545260	-1.040188	0.603343
C89	C	-0.852355	-1.450596	0.043742
N90	N	-0.884057	-1.492937	-0.014012
H91	H	-0.595817	-1.373689	0.148450
C92	C	-0.916283	-1.081661	0.547056
N93	N	-0.965060	-1.025403	0.623827
H94	H	-0.764098	-1.066726	0.567325
H95	H	0.051256	-1.532852	0.787658
H96	H	0.051192	-1.532798	0.588611
