data_functionalizedCrystal
_audit_creation_method	'MofGen! by Chris Wilmer'
_symmetry_space_group_name_H-M	'P1'
_symmetry_Int_Tables_number	1
_symmetry_cell_setting	triclinic
loop_
_symmetry_equiv_pos_as_xyz
  x,y,z
_cell_length_a	12.759401
_cell_length_b	12.594516
_cell_length_c	12.759393
_cell_angle_alpha	89.970876
_cell_angle_beta	89.981504
_cell_angle_gamma	90.016214
loop_
_atom_site_label
_atom_site_type_symbol
_atom_site_fract_x
_atom_site_fract_y
_atom_site_fract_z
Zn1	Zn	1.606246	-0.423675	-0.593999
Zn2	Zn	1.606136	-0.601694	-0.418327
Zn3	Zn	1.430547	-0.423730	-0.418339
Zn4	Zn	1.430532	-0.601612	-0.593968
O5	O	1.518365	-0.512678	-0.506158
O6	O	1.753252	-0.447300	-0.570704
O7	O	1.582804	-0.578144	-0.271307
O8	O	1.453907	-0.274777	-0.441658
O9	O	1.753171	-0.578090	-0.441638
O10	O	1.582991	-0.274736	-0.570715
O11	O	1.453800	-0.447395	-0.271316
O12	O	1.283524	-0.447316	-0.441628
O13	O	1.453880	-0.577951	-0.740993
O14	O	1.283513	-0.578005	-0.570663
O15	O	1.582976	-0.447221	-0.741016
O16	O	1.582789	-0.750629	-0.441608
O17	O	1.453774	-0.750569	-0.570651
C18	C	1.245398	-0.512658	-0.506144
C19	C	1.128621	-0.512676	-0.506163
C20	C	1.073781	-0.580834	-0.573240
C21	C	0.964057	-0.580848	-0.573251
C22	C	0.964023	-0.444541	-0.439099
C23	C	1.073745	-0.444523	-0.439094
C24	C	1.128657	-0.648987	-0.640308
C25	C	1.073816	-0.717152	-0.707390
C26	C	0.964092	-0.717165	-0.707402
C27	C	0.909209	-0.649014	-0.640331
C28	C	1.518296	-0.789219	-0.506148
C29	C	1.518363	-0.907524	-0.506179
C30	C	1.448185	-0.976783	-0.576316
C31	C	1.422585	-1.047654	-0.480449
C32	C	1.544058	-1.047453	-0.602062
C33	C	1.492713	-0.976836	-0.410261
C34	C	1.614230	-0.976629	-0.531938
C35	C	1.588667	-1.047468	-0.436006
C36	C	1.792398	-0.512698	-0.506173
C37	C	1.909175	-0.512707	-0.506179
C38	C	1.518439	-0.512570	-0.780192
C39	C	1.518470	-0.512525	-0.896968
C40	C	1.518463	-0.235057	-0.506192
C41	C	1.518505	-0.116752	-0.506206
C42	C	1.585700	-0.444447	-0.951844
C43	C	1.585725	-0.444409	-1.061568
C44	C	1.451288	-0.580534	-1.061531
C45	C	1.451258	-0.580567	-0.951809
C46	C	1.652912	-0.376405	-0.897003
C47	C	1.720147	-0.308323	-0.951879
C48	C	1.720172	-0.308284	-1.061603
C49	C	1.652962	-0.376328	-1.116451
C50	C	1.518352	-0.512708	-0.233191
C51	C	1.518525	-0.512454	-0.116415
H52	H	0.819864	-0.649021	-0.640355
H53	H	1.396567	-0.635932	-1.106198
C54	C	1.793069	-0.234559	-0.892145
C55	C	1.778678	-0.249179	-0.784309
C56	C	1.845843	-0.181252	-0.729253
H57	H	1.777787	-0.162994	-0.910013
H58	H	1.863682	-0.250144	-0.910069
H59	H	1.708081	-0.233586	-0.766392
H60	H	1.793967	-0.320729	-0.766410
H61	H	1.916456	-0.196838	-0.747177
H62	H	1.830556	-0.109692	-0.747129
H63	H	1.836095	-0.191169	-0.656081
H64	H	1.341578	-1.078874	-0.458684
H65	H	1.396498	-0.635985	-0.907128
H66	H	1.648075	-1.078309	-0.376636
C67	C	1.722182	-0.935051	-0.561233
C68	C	1.748607	-0.970743	-0.661728
C69	C	1.848038	-0.932448	-0.688767
H70	H	1.772367	-0.960279	-0.512217
H71	H	1.721513	-0.859624	-0.560437
H72	H	1.749284	-1.046153	-0.662516
H73	H	1.698449	-0.945517	-0.710766
H74	H	1.847369	-0.857022	-0.687972
H75	H	1.898214	-0.957679	-0.639746
H76	H	1.865975	-0.956651	-0.756959
C77	C	0.904359	-0.791049	-0.780193
C78	C	0.796523	-0.776461	-0.765870
C79	C	0.741468	-0.844500	-0.832915
H80	H	0.922198	-0.862586	-0.764760
H81	H	0.922313	-0.775547	-0.850831
H82	H	0.778577	-0.791971	-0.695247
H83	H	0.778653	-0.704938	-0.781311
H84	H	0.759421	-0.828997	-0.903554
H85	H	0.759315	-0.916032	-0.817476
H86	H	0.668296	-0.834604	-0.823213
C87	C	0.904249	-0.370682	-0.366311
C88	C	0.796421	-0.385310	-0.380650
C89	C	0.741327	-0.317304	-0.313599
H90	H	0.922112	-0.299136	-0.381731
H91	H	0.922146	-0.386189	-0.295673
H92	H	0.778532	-0.369795	-0.451272
H93	H	0.778527	-0.456842	-0.365223
H94	H	0.759224	-0.332812	-0.242961
H95	H	0.759198	-0.245763	-0.329024
H96	H	0.668160	-0.327227	-0.323311
H97	H	1.118397	-0.389014	-0.384482
H98	H	1.118509	-0.772632	-0.762003
C99	C	1.792986	-0.234229	-1.121236
C100	C	1.733538	-0.165959	-1.184210
C101	C	1.800582	-0.097715	-1.239144
H102	H	1.838780	-0.274807	-1.164123
H103	H	1.832986	-0.193651	-1.072887
H104	H	1.693556	-0.206533	-1.232553
H105	H	1.687747	-0.125358	-1.141349
H106	H	1.840581	-0.057137	-1.190795
H107	H	1.846373	-0.138301	-1.282025
H108	H	1.760256	-0.051379	-1.281871
H109	H	1.388731	-0.945746	-0.635542
C110	C	1.463647	-0.935449	-0.302210
C111	C	1.463842	-0.824286	-0.303476
C112	C	1.437054	-0.786122	-0.203966
H113	H	1.513193	-0.960103	-0.252268
H114	H	1.395781	-0.960300	-0.283800
H115	H	1.531697	-0.799445	-0.321873
H116	H	1.414294	-0.799604	-0.353396
H117	H	1.369188	-0.810973	-0.185556
H118	H	1.486603	-0.810783	-0.154032
H119	H	1.437173	-0.710695	-0.204814
C120	C	1.572824	-1.088669	-0.710258
C121	C	1.499030	-1.052830	-0.783347
C122	C	1.525493	-1.090761	-0.883030
H123	H	1.573277	-1.164084	-0.709480
H124	H	1.640378	-1.063274	-0.729084
H125	H	1.431493	-1.078231	-0.764525
H126	H	1.498565	-0.977420	-0.784157
H127	H	1.593048	-1.065366	-0.901857
H128	H	1.525947	-1.166176	-0.882241
H129	H	1.475434	-1.066442	-0.932635
H130	H	1.217999	-0.648985	-0.640305
H131	H	1.652901	-0.376431	-0.807660
H132	H	1.652975	-0.376279	-1.205796
