data_functionalizedCrystal
_audit_creation_method	'MofGen! by Chris Wilmer'
_symmetry_space_group_name_H-M	'P1'
_symmetry_Int_Tables_number	1
_symmetry_cell_setting	triclinic
loop_
_symmetry_equiv_pos_as_xyz
  x,y,z
_cell_length_a	10.489711
_cell_length_b	10.489741
_cell_length_c	9.565339
_cell_angle_alpha	90.007258
_cell_angle_beta	90.004493
_cell_angle_gamma	84.533091
loop_
_atom_site_label
_atom_site_type_symbol
_atom_site_fract_x
_atom_site_fract_y
_atom_site_fract_z
O1	O	1.694072	0.179793	0.116310
O2	O	1.322872	0.196725	0.116301
O3	O	1.516919	0.002660	0.116297
O4	O	1.500026	0.373858	0.116314
O5	O	1.516908	0.002643	-0.116223
O6	O	1.322862	0.196708	-0.116219
O7	O	1.694062	0.179776	-0.116210
Zn8	Zn	1.508460	0.188239	-0.153132
Zn9	Zn	1.508474	0.188262	0.153223
O10	O	1.500015	0.373841	-0.116206
C11	C	1.275334	0.195446	0.000040
C12	C	1.133703	0.191644	0.000037
C13	C	0.951317	0.308348	0.000058
C14	C	1.043467	0.250061	0.114698
C15	C	1.043430	0.250013	-0.114549
C16	C	0.973516	0.126519	0.114801
C17	C	0.973469	0.126487	-0.114549
C18	C	1.065593	0.068111	0.000119
C19	C	1.515638	-0.044880	0.000038
C20	C	1.511820	-0.186509	0.000041
C21	C	1.388354	-0.254636	0.000048
C22	C	1.446673	-0.346773	-0.114595
C23	C	1.446713	-0.346731	0.114652
C24	C	1.570190	-0.276781	-0.114697
C25	C	1.570213	-0.276729	0.114652
C26	C	1.628622	-0.368839	-0.000019
C27	C	1.741600	0.181055	0.000054
C28	C	1.883231	0.184857	0.000066
C29	C	1.501296	0.421381	0.000056
C30	C	1.505114	0.563010	0.000063
N31	N	1.508460	0.188223	-0.362211
C32	C	1.597498	0.097768	-0.546549
C33	C	1.624332	0.212912	-0.453305
C34	C	1.481683	0.073088	-0.453386
C35	C	1.535376	0.303471	-0.546505
C36	C	1.392676	0.163571	-0.546595
C37	C	1.419462	0.278799	-0.453393
N38	N	1.508484	0.188268	0.362303
H39	H	0.942712	0.074323	0.211834
C40	C	1.566149	0.435064	-0.601528
N41	N	1.589334	0.534176	-0.642976
C42	C	1.376091	-0.388677	-0.245533
N43	N	1.322921	-0.420236	-0.344149
C44	C	1.085356	0.320668	0.245627
N45	N	1.116908	0.373859	0.344234
C46	C	1.756623	0.241116	-0.397938
N47	N	1.856267	0.262350	-0.356240
H48	H	1.394460	-0.377682	0.211582
H49	H	1.622414	-0.245683	0.211582
H50	H	1.672836	0.021341	-0.587450
C51	C	1.640695	-0.235149	-0.245786
N52	N	1.693792	-0.203788	-0.344523
C53	C	1.317756	0.382277	-0.398466
N54	N	1.241158	0.460220	-0.357090
C55	C	1.765880	-0.435636	-0.000105
N56	N	1.869260	-0.485953	-0.000178
C57	C	1.132422	-0.069134	0.000196
N58	N	1.182760	-0.172505	0.000260
H59	H	1.294780	0.142656	-0.587602
C60	C	0.931540	0.055951	-0.245497
N61	N	0.899952	0.002835	-0.344139
H62	H	1.286841	-0.204974	-0.000070
C63	C	1.085241	0.320619	-0.245487
N64	N	1.116726	0.373808	-0.344105
H65	H	0.901626	0.409850	0.000176
C66	C	1.451067	-0.058477	-0.398132
N67	N	1.428015	-0.157576	-0.356520
