data_functionalizedCrystal
_audit_creation_method	'MofGen! by Chris Wilmer'
_symmetry_space_group_name_H-M	'P1'
_symmetry_Int_Tables_number	1
_symmetry_cell_setting	triclinic
loop_
_symmetry_equiv_pos_as_xyz
  x,y,z
_cell_length_a	12.837943
_cell_length_b	12.837942
_cell_length_c	9.730223
_cell_angle_alpha	89.994365
_cell_angle_beta	89.997059
_cell_angle_gamma	94.828940
loop_
_atom_site_label
_atom_site_type_symbol
_atom_site_fract_x
_atom_site_fract_y
_atom_site_fract_z
O1	O	1.402335	0.272143	-0.114264
O2	O	1.099202	0.258699	-0.114272
O3	O	1.244047	0.113854	-0.114260
O4	O	1.257490	0.416988	-0.114276
O5	O	1.244033	0.113843	0.114320
O6	O	1.099188	0.258689	0.114308
O7	O	1.402322	0.272132	0.114316
Zn8	Zn	1.250753	0.265408	0.150604
Zn9	Zn	1.250771	0.265423	-0.150560
O10	O	1.257477	0.416977	0.114303
C11	C	1.060126	0.254153	0.000017
C12	C	0.943711	0.240608	0.000014
C13	C	1.239499	0.074780	0.000029
C14	C	1.225954	-0.041635	0.000027
C15	C	0.718837	0.403437	0.000025
C16	C	0.609454	0.390716	0.000023
C17	C	0.615562	0.202445	0.000018
C18	C	0.724944	0.215166	0.000020
C19	C	0.776578	0.315666	0.000021
C20	C	0.885962	0.328386	0.000013
C21	C	0.892067	0.140116	0.000018
C22	C	0.782685	0.127395	0.000017
C23	C	1.388784	-0.266510	0.000002
C24	C	1.376062	-0.375892	-0.000000
C25	C	1.187791	-0.369785	0.000009
C26	C	1.200513	-0.260402	0.000011
C27	C	1.301012	-0.208769	0.000010
C28	C	1.313732	-0.099384	0.000023
C29	C	1.125462	-0.093279	0.000022
C30	C	1.112741	-0.202661	0.000019
C31	C	1.441398	0.276679	0.000024
C32	C	1.557813	0.290223	0.000018
C33	C	1.262025	0.456051	0.000011
C34	C	1.275569	0.572467	0.000005
N35	N	1.250748	0.265399	0.356140
N36	N	1.250783	0.265425	-0.356097
C37	C	1.181015	0.195619	0.572005
C38	C	1.181000	0.195603	0.428122
C39	C	1.320523	0.335208	0.428049
C40	C	1.320543	0.335218	0.571929
H41	H	0.760878	0.485268	0.000023
C42	C	1.512306	-0.147058	0.117518
C43	C	1.499250	-0.209750	0.000011
H44	H	1.580508	-0.112025	0.117525
H45	H	1.461861	-0.097016	0.117506
H46	H	1.503421	-0.189621	0.197218
H47	H	1.508127	-0.167186	-0.079690
H48	H	1.549710	-0.259798	0.000011
C49	C	0.930949	-0.016430	-0.117496
C50	C	0.955538	0.043627	0.000013
H51	H	0.970139	-0.075993	-0.117505
H52	H	0.858424	-0.038383	-0.117481
H53	H	0.947628	0.024353	-0.197195
H54	H	0.938852	0.002846	0.079713
H55	H	1.028080	0.065579	0.000011
H56	H	1.447536	-0.422901	-0.000011
C57	C	0.614409	0.578090	0.000013
C58	C	0.545984	0.487197	0.000015
H59	H	0.575223	0.637654	-0.000000
H60	H	0.657190	0.579130	0.079721
H61	H	0.657208	0.579133	-0.079701
H62	H	0.503191	0.486150	0.079735
H63	H	0.503185	0.486157	-0.079702
C64	C	1.084706	-0.534755	0.000004
C65	C	1.077329	-0.426553	0.000011
H66	H	1.016510	-0.569799	0.000015
H67	H	1.121294	-0.553915	-0.079707
H68	H	1.121303	-0.553931	0.079716
H69	H	1.040739	-0.407375	-0.079706
H70	H	1.040725	-0.407385	0.079730
H71	H	0.573502	0.120623	0.000131
H72	H	1.030917	-0.244717	0.000015
H73	H	0.740630	0.045571	0.000032
H74	H	1.053992	-0.046254	0.000040
C75	C	1.340936	0.476649	0.266212
C76	C	1.397192	0.411931	0.348931
H77	H	1.388270	0.524021	0.217378
H78	H	1.299392	0.435074	0.202803
H79	H	1.297006	0.514757	0.322363
H80	H	1.441117	0.373818	0.292778
H81	H	1.438754	0.453511	0.412346
H82	H	1.124213	0.138788	0.630602
H83	H	1.377362	0.392064	0.630470
C84	C	1.001567	0.137087	0.383904
C85	C	1.104300	0.118876	0.349097
H86	H	0.954214	0.089719	0.335112
H87	H	0.991608	0.127107	0.479884
H88	H	0.989204	0.206782	0.360297
H89	H	1.116665	0.049182	0.372713
H90	H	1.114263	0.128846	0.253095
C91	C	1.437254	0.020099	-0.117485
C92	C	1.424197	-0.042620	0.000015
H93	H	1.505450	0.055145	-0.117486
H94	H	1.428381	-0.022439	-0.197181
H95	H	1.386795	0.070140	-0.117461
H96	H	1.474651	-0.092666	-0.000014
H97	H	1.433080	-0.000079	0.079732
H98	H	0.928000	0.410218	0.000016
