data_functionalizedCrystal
_audit_creation_method	'MofGen! by Chris Wilmer'
_symmetry_space_group_name_H-M	'P1'
_symmetry_Int_Tables_number	1
_symmetry_cell_setting	triclinic
loop_
_symmetry_equiv_pos_as_xyz
  x,y,z
_cell_length_a	15.500227
_cell_length_b	17.038272
_cell_length_c	17.038272
_cell_angle_alpha	91.111556
_cell_angle_beta	93.033254
_cell_angle_gamma	86.956295
loop_
_atom_site_label
_atom_site_type_symbol
_atom_site_fract_x
_atom_site_fract_y
_atom_site_fract_z
O1	O	0.071836	-1.052160	-0.167139
O2	O	0.571836	-0.552160	0.332861
O3	O	0.071862	-0.824350	-0.164430
O4	O	0.571862	-0.324350	0.335570
O5	O	0.071842	-0.936901	-0.051879
O6	O	0.571842	-0.436901	0.448121
O7	O	0.071856	-0.939609	-0.279690
O8	O	0.571856	-0.439609	0.220310
O9	O	-0.072045	-0.930069	-0.058680
O10	O	0.427955	-0.430069	0.441320
O11	O	-0.072026	-0.817518	-0.171231
O12	O	0.427974	-0.317518	0.328769
O13	O	-0.072051	-1.045328	-0.173940
O14	O	0.427949	-0.545328	0.326060
Cu15	Cu	-0.085177	-0.930799	-0.173207
Cu16	Cu	0.414823	-0.430799	0.326793
Cu17	Cu	0.084987	-0.938879	-0.165164
Cu18	Cu	0.584987	-0.438879	0.334836
O19	O	-0.072032	-0.932777	-0.286491
O20	O	0.427968	-0.432777	0.213509
C21	C	-0.000079	-0.791641	-0.165368
C22	C	0.499921	-0.291641	0.334632
C23	C	-0.000069	-0.704358	-0.158019
C24	C	0.499931	-0.204358	0.341981
C25	C	-0.000101	-0.931022	-0.025987
C26	C	0.499899	-0.431022	0.474013
C27	C	-0.000100	-0.923674	0.061297
C28	C	0.499900	-0.423674	0.561297
N29	N	-0.204861	-0.925122	-0.178864
N30	N	0.295139	-0.425122	0.321136
C31	C	-0.250145	-0.972833	-0.131192
C32	C	0.249855	-0.472833	0.368808
C33	C	-0.340718	-0.968547	-0.135478
C34	C	0.159282	-0.468547	0.364522
C35	C	-0.386003	-0.916555	-0.187440
C36	C	0.113997	-0.416555	0.312560
C37	C	-0.340712	-0.868839	-0.235114
C38	C	0.159288	-0.368839	0.264886
C39	C	-0.250142	-0.873121	-0.230823
C40	C	0.249858	-0.373121	0.269177
C41	C	-0.659467	-0.901128	-0.202884
C42	C	-0.159467	-0.401128	0.297116
C43	C	-0.750044	-0.896851	-0.207172
C44	C	-0.250044	-0.396851	0.292828
C45	C	-0.750044	-0.996559	-0.107535
C46	C	-0.250044	-0.496559	0.392465
C47	C	-0.659471	-1.000840	-0.103252
C48	C	-0.159471	-0.500840	0.396748
C49	C	-0.614188	-0.953121	-0.150923
C50	C	-0.114188	-0.453121	0.349077
C51	C	-0.478582	-0.912174	-0.191824
C52	C	0.021418	-0.412174	0.308176
C53	C	-0.521610	-0.957498	-0.146534
C54	C	-0.021610	-0.457498	0.353466
N55	N	0.204671	-0.944561	-0.159501
N56	N	0.704671	-0.444561	0.340499
C57	C	-0.000109	-1.078037	-0.173003
C58	C	0.499891	-0.578037	0.326997
C59	C	-0.000113	-1.165320	-0.180351
C60	C	0.499887	-0.665320	0.319649
C61	C	-0.000066	-0.658749	-0.225482
C62	C	0.499934	-0.158749	0.274518
C63	C	-0.000078	-0.576737	-0.218574
C64	C	0.499922	-0.076737	0.281426
C65	C	-0.000088	-0.540335	-0.144201
C66	C	0.499912	-0.040335	0.355799
C67	C	-0.000094	-0.585950	-0.076733
C68	C	0.499906	-0.085950	0.423267
C69	C	-0.000088	-0.667961	-0.083642
C70	C	0.499912	-0.167961	0.416358
C71	C	-0.000112	-0.292946	-0.119792
C72	C	0.499888	0.207054	0.380208
C73	C	-0.000116	-0.210929	-0.112887
C74	C	0.499884	0.289071	0.387113
C75	C	-0.000102	-0.201721	-0.254729
C76	C	0.499898	0.298279	0.245271
C77	C	-0.000091	-0.283734	-0.261632
C78	C	0.499909	0.216266	0.238368
C79	C	-0.000101	-0.329342	-0.194164
C80	C	0.499899	0.170658	0.305836
C81	C	-0.000098	-0.456505	-0.137138
C82	C	0.499902	0.043495	0.362862
C83	C	-0.000098	-0.413170	-0.201228
C84	C	0.499902	0.086830	0.298772
C85	C	-0.000087	-0.938656	-0.312383
C86	C	0.499913	-0.438656	0.187617
C87	C	-0.000082	-0.946004	-0.399667
C88	C	0.499918	-0.446004	0.100333
C89	C	-0.000108	-0.991137	0.106906
C90	C	0.499892	-0.491137	0.606906
C91	C	-0.000100	-0.984229	0.188918
C92	C	0.499900	-0.484229	0.688918
C93	C	-0.000088	-0.909856	0.225320
C94	C	0.499912	-0.409856	0.725320
C95	C	-0.000077	-0.842388	0.179705
C96	C	0.499923	-0.342388	0.679705
C97	C	-0.000080	-0.849297	0.097694
C98	C	0.499920	-0.349297	0.597694
C99	C	-0.000074	-0.885446	0.472708
C100	C	0.499926	-0.385446	0.972708
C101	C	-0.000074	-0.878541	0.554725
C102	C	0.499926	-0.378541	1.054725
C103	C	-0.000094	-1.020383	0.563932
C104	C	0.499906	-0.520383	1.063932
C105	C	-0.000102	-1.027286	0.481919
C106	C	0.499898	-0.527286	0.981919
C107	C	-0.000087	-0.959818	0.436312
C108	C	0.499913	-0.459818	0.936312
C109	C	-0.000082	-0.902792	0.309149
C110	C	0.499918	-0.402792	0.809149
C111	C	-0.000087	-0.966882	0.352484
C112	C	0.499913	-0.466882	0.852484
H113	H	-0.213280	-1.015175	-0.088882
H114	H	0.286720	-0.515175	0.411118
H115	H	-0.000078	-0.817974	0.584359
H116	H	0.499922	-0.317974	1.084359
Br117	Br	-0.000147	-0.161527	-0.011947
Br118	Br	0.499853	0.338473	0.488053
Br119	Br	-0.598016	-0.836370	-0.267579
Br120	Br	-0.098016	-0.336370	0.232421
H121	H	-0.000123	-1.051699	0.077273
H122	H	0.499877	-0.551699	0.577273
Br123	Br	-0.000044	-0.708143	-0.326422
Br124	Br	0.499956	-0.208143	0.173578
H125	H	-0.000095	-0.442811	-0.261782
H126	H	0.499905	0.057189	0.238218
Br127	Br	-0.000129	-0.354832	-0.028227
Br128	Br	0.499871	0.145168	0.471773
Br129	Br	-0.402179	-1.033296	-0.070777
Br130	Br	0.097821	-0.533296	0.429223
Br131	Br	-0.188683	-0.808362	-0.295518
Br132	Br	0.311317	-0.308362	0.204482
Br133	Br	-0.000111	-1.075790	0.250813
Br134	Br	0.499889	-0.575790	0.750813
Br135	Br	-0.000071	-0.514841	-0.310136
Br136	Br	0.499929	-0.014841	0.189864
Br137	Br	-0.000068	-0.333131	-0.362570
Br138	Br	0.499932	0.166869	0.137430
H139	H	-0.000063	-0.781832	0.209350
H140	H	0.499937	-0.281832	0.709350
Br141	Br	-0.598011	-1.071405	-0.032735
Br142	Br	-0.098011	-0.571405	0.467265
H143	H	-0.000073	-0.794361	0.060560
H144	H	0.499927	-0.294361	0.560560
Br145	Br	-0.000058	-0.801860	0.358558
Br146	Br	0.499942	-0.301860	0.858558
H147	H	-0.000096	-0.164579	-0.309658
H148	H	0.499904	0.335421	0.190342
H149	H	-0.000111	-1.087848	0.452287
H150	H	0.499889	-0.587848	0.952287
H151	H	-0.000114	-0.556305	-0.016177
H152	H	0.499886	-0.056305	0.483823
H153	H	-0.000130	-0.426857	-0.076584
H154	H	0.499870	0.073143	0.423416
H155	H	-0.484736	-0.999827	-0.104223
H156	H	0.015264	-0.499827	0.395777
H157	H	-0.000061	-0.830508	0.435584
H158	H	0.499939	-0.330508	0.935584
Br159	Br	-0.000115	-1.111941	0.625831
Br160	Br	0.499885	-0.611941	1.125831
H161	H	-0.000077	-1.027437	0.322844
H162	H	0.499923	-0.527437	0.822844
H163	H	-0.786921	-1.035409	-0.068723
H164	H	-0.286921	-0.535409	0.431277
Br165	Br	-0.000100	-0.729860	0.007919
Br166	Br	0.499900	-0.229860	0.507919
H167	H	-0.377589	-0.826501	-0.277420
H168	H	0.122411	-0.326501	0.222580
H169	H	-0.786912	-0.854510	-0.249490
H170	H	-0.286912	-0.354510	0.250510
H171	H	-0.515461	-0.869842	-0.234135
H172	H	-0.015461	-0.369842	0.265865
