data_functionalizedCrystal
_audit_creation_method	'MofGen! by Chris Wilmer'
_symmetry_space_group_name_H-M	'P1'
_symmetry_Int_Tables_number	1
_symmetry_cell_setting	triclinic
loop_
_symmetry_equiv_pos_as_xyz
  x,y,z
_cell_length_a	16.120490
_cell_length_b	29.839131
_cell_length_c	16.120297
_cell_angle_alpha	87.128123
_cell_angle_beta	89.870317
_cell_angle_gamma	87.134072
loop_
_atom_site_label
_atom_site_type_symbol
_atom_site_fract_x
_atom_site_fract_y
_atom_site_fract_z
Zn1	Zn	1.247313	-0.227637	0.534529
Zn2	Zn	1.254222	-0.299154	0.395470
Zn3	Zn	1.115307	-0.220041	0.388450
Zn4	Zn	1.108178	-0.298736	0.527442
O5	O	1.181255	-0.261392	0.461473
O6	O	1.364594	-0.240477	0.521986
O7	O	1.241669	-0.285655	0.278173
O8	O	1.132910	-0.158185	0.407856
O9	O	1.369670	-0.293020	0.419819
O10	O	1.229895	-0.163765	0.515180
O11	O	1.139609	-0.227532	0.273016
O12	O	0.997996	-0.227127	0.400985
O13	O	1.120759	-0.292308	0.644748
O14	O	0.992758	-0.284943	0.503102
O15	O	1.222981	-0.240072	0.649955
O16	O	1.234756	-0.361962	0.412948
O17	O	1.127458	-0.361655	0.509908
C18	C	0.965205	-0.255166	0.450513
C19	C	0.872777	-0.252514	0.445844
C20	C	0.659802	-0.275146	0.485693
C21	C	0.703555	-0.247675	0.437318
C22	C	0.797719	-0.250368	0.442063
C23	C	0.565630	-0.272454	0.480949
C24	C	1.181105	-0.378109	0.461440
C25	C	1.181115	-0.428045	0.461457
C26	C	1.125419	-0.784493	0.511958
C27	C	1.125311	-0.596816	0.511926
O28	O	1.077775	-0.572427	0.554839
N29	N	1.181202	-0.573493	0.461486
C30	C	1.237128	-0.597092	0.411055
O31	O	1.284671	-0.572949	0.368158
C32	C	1.237240	-0.784769	0.411091
C33	C	1.181339	-0.808089	0.461528
C34	C	1.069524	-0.807813	0.562392
C35	C	1.069548	-0.854729	0.562396
C36	C	1.125469	-0.878325	0.511966
C37	C	1.181364	-0.855005	0.461532
C38	C	1.293170	-0.808367	0.360665
C39	C	1.293194	-0.855290	0.360680
C40	C	1.237293	-0.878610	0.411117
C41	C	1.237309	-0.925517	0.411107
N42	N	1.181418	-0.948840	0.461547
C43	C	1.125497	-0.925244	0.511977
C44	C	1.237065	-0.498560	0.411038
C45	C	1.237036	-0.451641	0.411028
C46	C	1.125219	-0.451367	0.511901
C47	C	1.125244	-0.498287	0.511906
C48	C	1.181173	-0.521882	0.461478
C49	C	1.125553	-1.023771	0.511981
C50	C	1.125580	-1.070692	0.511978
C51	C	1.237400	-1.070961	0.411108
C52	C	1.237370	-1.024045	0.411108
C53	C	1.181443	-1.000451	0.461550
O54	O	1.284826	-0.949935	0.368224
O55	O	1.077974	-0.949396	0.554880
C56	C	1.125394	-0.737576	0.511954
C57	C	1.181290	-0.714256	0.461520
C58	C	1.237210	-0.737852	0.411091
C59	C	1.181261	-0.667337	0.461510
C60	C	1.125341	-0.643741	0.511940
C61	C	1.069450	-0.667064	0.562380
C62	C	1.069474	-0.713980	0.562384
C63	C	1.293102	-0.714529	0.360651
C64	C	1.293072	-0.667613	0.360650
C65	C	1.237152	-0.644017	0.411080
C66	C	1.398148	-0.267643	0.472476
C67	C	1.490575	-0.270306	0.477165
C68	C	1.170304	-0.266990	0.678367
C69	C	1.165638	-0.269376	0.770795
C70	C	1.181427	-0.144220	0.461526
C71	C	1.181500	-0.094288	0.461548
C72	C	1.192211	-0.255784	0.245425
C73	C	1.197038	-0.253276	0.153006
C74	C	1.157088	-0.273721	0.940019
C75	C	1.205586	-0.248932	0.983787
C76	C	1.200829	-0.251350	1.077949
C77	C	1.161844	-0.271304	0.845848
H78	H	0.693061	-0.300685	0.530667
H79	H	0.670295	-0.222135	0.392340
H80	H	1.080057	-1.089677	0.553051
H81	H	1.079729	-0.517271	0.552981
H82	H	1.250679	-0.225894	0.950538
H83	H	1.111998	-0.296758	0.973265
C84	C	1.064031	-0.997825	0.567470
N85	N	1.017690	-0.978283	0.609262
H86	H	1.023987	-0.788605	0.603461
C87	C	1.008058	-0.880375	0.617887
N88	N	0.961742	-0.899689	0.659689
H89	H	1.079685	-0.432148	0.552961
H90	H	1.282547	-0.432656	0.369948
H91	H	1.338690	-0.789387	0.319595
C92	C	1.298588	-0.524508	0.355552
N93	N	1.344924	-0.544051	0.313754
C94	C	1.354719	-0.881242	0.305201
N95	N	1.401058	-0.900788	0.263411
H96	H	1.282881	-1.005057	0.370028
H97	H	1.023955	-0.732963	0.603456
C98	C	1.298906	-1.096926	0.355635
N99	N	1.345235	-1.116484	0.313854
H100	H	1.338592	-0.648629	0.319571
C101	C	1.007939	-0.641099	0.617854
N102	N	0.961615	-0.621541	0.659640
H103	H	1.338641	-0.733737	0.319585
