data_functionalizedCrystal
_audit_creation_method	'MofGen! by Chris Wilmer'
_symmetry_space_group_name_H-M	'P1'
_symmetry_Int_Tables_number	1
_symmetry_cell_setting	triclinic
loop_
_symmetry_equiv_pos_as_xyz
  x,y,z
_cell_length_a	12.759395
_cell_length_b	12.759394
_cell_length_c	12.759379
_cell_angle_alpha	89.936805
_cell_angle_beta	89.956767
_cell_angle_gamma	90.015403
loop_
_atom_site_label
_atom_site_type_symbol
_atom_site_fract_x
_atom_site_fract_y
_atom_site_fract_z
Zn1	Zn	1.606499	-0.417842	-0.594028
Zn2	Zn	1.606322	-0.593662	-0.418352
Zn3	Zn	1.430730	-0.418000	-0.418364
Zn4	Zn	1.430790	-0.593482	-0.593990
O5	O	1.518585	-0.505747	-0.506183
O6	O	1.753497	-0.441175	-0.570736
O7	O	1.582930	-0.570501	-0.271332
O8	O	1.454095	-0.270958	-0.441687
O9	O	1.753367	-0.570349	-0.441667
O10	O	1.583232	-0.270842	-0.570747
O11	O	1.453923	-0.441443	-0.271341
O12	O	1.283716	-0.441269	-0.441649
O13	O	1.454198	-0.570042	-0.741016
O14	O	1.283761	-0.570195	-0.570681
O15	O	1.583291	-0.441000	-0.741045
O16	O	1.582989	-0.740659	-0.441630
O17	O	1.454026	-0.740527	-0.570670
C18	C	1.245618	-0.505730	-0.506163
C19	C	1.128841	-0.505748	-0.506179
C20	C	0.909542	-0.371480	-0.640830
C21	C	0.964476	-0.304323	-0.708126
C22	C	1.074198	-0.304305	-0.708108
C23	C	1.128988	-0.371453	-0.640789
C24	C	1.074054	-0.438610	-0.573493
C25	C	0.964330	-0.438618	-0.573516
C26	C	1.073907	-0.572905	-0.438883
C27	C	0.964185	-0.572920	-0.438895
C28	C	1.128697	-0.640053	-0.371564
C29	C	1.073763	-0.707206	-0.304262
C30	C	0.964035	-0.707221	-0.304282
C31	C	0.909251	-0.640076	-0.371599
C32	C	1.518523	-0.778714	-0.506167
C33	C	1.518593	-0.895491	-0.506196
C34	C	1.653105	-1.114998	-0.371970
C35	C	1.720274	-1.060169	-0.304829
C36	C	1.720219	-0.950447	-0.304808
C37	C	1.652986	-0.895553	-0.371933
C38	C	1.585817	-0.950383	-0.439075
C39	C	1.585881	-1.060107	-0.439091
C40	C	1.451423	-0.950321	-0.573337
C41	C	1.451482	-1.060042	-0.573365
C42	C	1.384190	-0.895426	-0.640463
C43	C	1.317024	-0.950256	-0.707611
C44	C	1.317083	-1.059984	-0.707630
C45	C	1.384312	-1.114872	-0.640506
C46	C	1.792619	-0.505764	-0.506205
C47	C	1.909395	-0.505771	-0.506214
C48	C	1.518771	-0.505483	-0.780217
C49	C	1.518850	-0.505371	-0.896994
C50	C	1.518676	-0.231713	-0.506223
C51	C	1.518715	-0.114937	-0.506239
C52	C	1.518461	-0.505933	-0.233216
C53	C	1.518585	-0.505749	-0.116439
C54	C	1.383533	-0.371971	0.102892
C55	C	1.315813	-0.305360	0.047975
C56	C	1.315681	-0.305543	-0.061746
C57	C	1.383275	-0.372345	-0.116553
C58	C	1.450996	-0.438956	-0.061635
C59	C	1.451122	-0.438764	0.048088
C60	C	1.586306	-0.572360	-0.061522
C61	C	1.586444	-0.572174	0.048199
C62	C	1.653900	-0.639163	-0.116329
C63	C	1.721628	-0.705770	-0.061411
C64	C	1.721757	-0.705584	0.048317
C65	C	1.654165	-0.638785	0.103116
H66	H	0.820201	-0.371465	-0.640829
F67	F	1.132664	-0.232834	-0.779735
H68	H	0.819910	-0.640068	-0.371609
F69	F	0.905578	-0.778707	-0.232662
H70	H	1.652939	-0.806212	-0.371902
H71	H	1.383642	-0.371808	0.192233
F72	F	0.906158	-0.232868	-0.779774
H73	H	1.260776	-0.250974	0.092611
F74	F	1.384341	-0.778651	-0.640647
F75	F	1.654301	-0.638577	0.219892
H76	H	1.262283	-0.905555	-0.762256
F77	F	1.245764	-0.371443	-0.640786
H78	H	1.218038	-0.640040	-0.371561
F79	F	1.132080	-0.778668	-0.232630
H80	H	1.653166	-1.204340	-0.371990
H81	H	1.775012	-1.104876	-0.250174
F82	F	1.243609	-0.234646	-0.120195
F83	F	1.791700	-0.892092	-0.233341
H84	H	1.262386	-1.104620	-0.762306
H85	H	1.384371	-1.204213	-0.640520
F86	F	1.383116	-0.372552	-0.233328
F87	F	1.793552	-0.776864	-0.119745
F88	F	1.653750	-0.639365	-0.233104
H89	H	1.776907	-0.759824	0.093024
