data_functionalizedCrystal
_audit_creation_method	'MofGen! by Chris Wilmer'
_symmetry_space_group_name_H-M	'P1'
_symmetry_Int_Tables_number	1
_symmetry_cell_setting	triclinic
loop_
_symmetry_equiv_pos_as_xyz
  x,y,z
_cell_length_a	13.897449
_cell_length_b	18.101395
_cell_length_c	13.897441
_cell_angle_alpha	90.033542
_cell_angle_beta	90.020733
_cell_angle_gamma	90.033231
loop_
_atom_site_label
_atom_site_type_symbol
_atom_site_fract_x
_atom_site_fract_y
_atom_site_fract_z
Zn1	Zn	1.474607	-0.294781	0.545361
Zn2	Zn	1.474461	-0.418636	0.384055
Zn3	Zn	1.313296	-0.294816	0.384080
Zn4	Zn	1.313238	-0.418588	0.545307
O5	O	1.393900	-0.356705	0.464701
O6	O	1.609569	-0.311216	0.523976
O7	O	1.453045	-0.402246	0.249076
O8	O	1.334780	-0.191178	0.405507
O9	O	1.609462	-0.402212	0.405464
O10	O	1.453294	-0.191152	0.524000
O11	O	1.334638	-0.311276	0.249095
O12	O	1.178307	-0.311229	0.405455
O13	O	1.334680	-0.402129	0.680296
O14	O	1.178264	-0.402164	0.523908
O15	O	1.453238	-0.311169	0.680336
O16	O	1.452989	-0.522263	0.405412
O17	O	1.334539	-0.522227	0.523883
C18	C	1.143286	-0.356695	0.464679
C19	C	1.036072	-0.356709	0.464692
C20	C	1.393768	-0.549116	0.464660
C21	C	1.393799	-0.631430	0.464675
C22	C	0.839777	-0.356712	0.464717
C23	C	0.949010	-0.356708	0.464701
C24	C	1.393910	-0.782138	0.464713
C25	C	1.319346	-0.813501	0.539195
C26	C	1.319628	-0.899119	0.539509
C27	C	1.394017	-0.930521	0.464751
C28	C	1.495711	-0.899335	0.492096
C29	C	1.495218	-0.813690	0.492615
C30	C	1.367692	-0.813781	0.362708
C31	C	1.365511	-0.899433	0.363273
C32	C	1.394084	-1.014380	0.464771
C33	C	1.393850	-0.698279	0.464696
C34	C	1.645493	-0.356716	0.464723
C35	C	1.752707	-0.356720	0.464733
C36	C	1.393969	-0.356640	0.716294
C37	C	1.393998	-0.356612	0.823508
C38	C	1.394060	-0.163543	0.464763
C39	C	1.394128	-0.081229	0.464789
C40	C	1.393888	-0.356717	0.214086
C41	C	1.394046	-0.356536	0.106873
C42	C	1.394024	-0.356562	1.019803
C43	C	1.394007	-0.356592	0.910571
H44	H	1.244229	-0.920209	0.522417
H45	H	1.552684	-0.792937	0.440712
H46	H	1.290671	-0.919827	0.342646
H47	H	1.421993	-0.793491	0.307215
H48	H	1.336511	-0.791926	0.614348
Br49	Br	1.590890	-0.933207	0.404463
Br50	Br	1.533396	-0.934985	0.615017
Br51	Br	1.246144	-0.777906	0.321128
Br52	Br	1.449446	-0.935061	0.265874
H53	H	1.243678	-0.792983	0.522295
Br54	Br	1.348587	-0.933183	0.665514
H55	H	1.517409	-0.793655	0.567173
