data_functionalizedCrystal
_audit_creation_method	'MofGen! by Chris Wilmer'
_symmetry_space_group_name_H-M	'P1'
_symmetry_Int_Tables_number	1
_symmetry_cell_setting	triclinic
loop_
_symmetry_equiv_pos_as_xyz
  x,y,z
_cell_length_a	25.639243
_cell_length_b	25.639239
_cell_length_c	25.639233
_cell_angle_alpha	90.018747
_cell_angle_beta	90.015962
_cell_angle_gamma	90.041410
loop_
_atom_site_label
_atom_site_type_symbol
_atom_site_fract_x
_atom_site_fract_y
_atom_site_fract_z
Zn1	Zn	0.799225	-0.208176	0.295656
Zn2	Zn	1.132558	0.125157	0.628989
Zn3	Zn	1.465892	0.458490	0.962322
Zn4	Zn	0.799149	-0.295595	0.208220
Zn5	Zn	1.132482	0.037738	0.541553
Zn6	Zn	1.465815	0.371071	0.874887
Zn7	Zn	0.711801	-0.208180	0.208229
Zn8	Zn	1.045135	0.125154	0.541563
Zn9	Zn	1.378468	0.458487	0.874896
Zn10	Zn	0.711746	-0.295587	0.295619
Zn11	Zn	1.045080	0.037747	0.628953
Zn12	Zn	1.378413	0.371080	0.962286
O13	O	0.755480	-0.251885	0.251931
O14	O	1.088814	0.081449	0.585264
O15	O	1.422147	0.414782	0.918598
O16	O	0.872380	-0.219775	0.284069
O17	O	1.205713	0.113559	0.617402
O18	O	1.539047	0.446892	0.950735
O19	O	0.787553	-0.284004	0.135056
O20	O	1.120886	0.049329	0.468389
O21	O	1.454219	0.382662	0.801723
O22	O	0.723453	-0.135014	0.219846
O23	O	1.056787	0.198319	0.553179
O24	O	1.390120	0.531653	0.886512
O25	O	0.872324	-0.284001	0.219830
O26	O	1.205657	0.049332	0.553163
O27	O	1.538991	0.382666	0.886497
O28	O	0.787683	-0.135012	0.284077
O29	O	1.121016	0.198322	0.617411
O30	O	1.454350	0.531655	0.950744
O31	O	0.723379	-0.219781	0.135063
O32	O	1.056712	0.113553	0.468396
O33	O	1.390046	0.446886	0.801729
O34	O	0.638629	-0.219772	0.219810
O35	O	0.971962	0.113561	0.553144
O36	O	1.305296	0.446894	0.886477
O37	O	0.723360	-0.283987	0.368789
O38	O	1.056693	0.049347	0.702123
O39	O	1.390026	0.382680	1.035456
O40	O	0.638589	-0.283990	0.284016
O41	O	0.971922	0.049343	0.617349
O42	O	1.305255	0.382677	0.950682
O43	O	0.787630	-0.219767	0.368816
O44	O	1.120963	0.113567	0.702149
O45	O	1.454297	0.446900	1.035483
O46	O	0.787499	-0.368759	0.219795
O47	O	1.120833	-0.035426	0.553128
O48	O	1.454166	0.297907	0.886461
O49	O	0.723286	-0.368753	0.284007
O50	O	1.056619	-0.035420	0.617340
O51	O	1.389952	0.297914	0.950673
C52	C	0.619638	-0.251881	0.251910
C53	C	0.952971	0.081452	0.585244
C54	C	1.286304	0.414786	0.918577
C55	C	0.561524	-0.251892	0.251914
C56	C	0.894857	0.081441	0.585247
C57	C	1.228190	0.414775	0.918581
C58	C	0.201184	-0.218495	0.285436
C59	C	0.534518	0.114839	0.618769
C60	C	0.867851	0.448172	0.952103
C61	C	0.146580	-0.218494	0.285439
C62	C	0.479913	0.114839	0.618772
C63	C	0.813247	0.448173	0.952106
O64	O	0.118363	-0.190088	0.313915
O65	O	0.451697	0.143245	0.647248
O66	O	0.785030	0.476578	0.980582
N67	N	0.119241	-0.251883	0.251945
N68	N	0.452575	0.081450	0.585279
N69	N	0.785908	0.414784	0.918612
C70	C	0.146510	-0.285271	0.218443
C71	C	0.479843	0.048062	0.551776
C72	C	0.813176	0.381396	0.885109
O73	O	0.118242	-0.313670	0.189954
O74	O	0.451575	0.019663	0.523287
O75	O	0.784909	0.352996	0.856620
C76	C	0.201113	-0.285268	0.218437
C77	C	0.534446	0.048065	0.551770
C78	C	0.867780	0.381398	0.885104
C79	C	0.228449	-0.251881	0.251937
C80	C	0.561782	0.081452	0.585270
C81	C	0.895116	0.414786	0.918603
C82	C	0.228520	-0.185109	0.318932
C83	C	0.561854	0.148224	0.652266
C84	C	0.895187	0.481557	0.985599
C85	C	0.283121	-0.185111	0.318930
C86	C	0.616454	0.148223	0.652263
C87	C	0.949788	0.481556	0.985596
C88	C	0.310385	-0.218497	0.285431
C89	C	0.643719	0.114836	0.618764
C90	C	0.977052	0.448170	0.952097
C91	C	0.283049	-0.251882	0.251934
C92	C	0.616383	0.081451	0.585267
C93	C	0.949716	0.414785	0.918601
C94	C	0.228380	-0.318653	0.184932
C95	C	0.561714	0.014680	0.518265
C96	C	0.895047	0.348014	0.851599
C97	C	0.282987	-0.318647	0.184929
C98	C	0.616321	0.014686	0.518263
C99	C	0.949654	0.348019	0.851596
C100	C	0.310323	-0.285260	0.218429
C101	C	0.643657	0.048073	0.551762
C102	C	0.976990	0.381407	0.885095
C103	C	0.364915	-0.285270	0.218432
C104	C	0.698248	0.048064	0.551766
C105	C	1.031581	0.381397	0.885099
N106	N	0.392253	-0.251881	0.251926
N107	N	0.725587	0.081453	0.585259
N108	N	1.058920	0.414786	0.918593
C109	C	0.364989	-0.218494	0.285425
C110	C	0.698322	0.114839	0.618758
C111	C	1.031655	0.448172	0.952092
C112	C	0.031839	-0.285273	0.218456
C113	C	0.365172	0.048060	0.551789
C114	C	0.698506	0.381394	0.885123
C115	C	-0.022763	-0.285279	0.218464
C116	C	0.310570	0.048055	0.551797
C117	C	0.643903	0.381388	0.885130
C118	C	-0.022689	-0.218501	0.285460
C119	C	0.310644	0.114832	0.618793
C120	C	0.643978	0.448166	0.952126
C121	C	0.031914	-0.218499	0.285454
C122	C	0.365248	0.114835	0.618788
C123	C	0.698581	0.448168	0.952121
C124	C	0.059178	-0.251884	0.251950
C125	C	0.392511	0.081449	0.585283
C126	C	0.725844	0.414783	0.918616
C127	C	0.479654	-0.218500	0.285417
C128	C	0.812987	0.114833	0.618751
C129	C	1.146321	0.448167	0.952084
C130	C	0.534259	-0.218506	0.285413
C131	C	0.867593	0.114828	0.618746
C132	C	1.200926	0.448161	0.952080
C133	C	0.534180	-0.285281	0.218415
C134	C	0.867514	0.048052	0.551749
C135	C	1.200847	0.381386	0.885082
C136	C	0.479580	-0.285278	0.218421
C137	C	0.812913	0.048056	0.551755
C138	C	1.146246	0.381389	0.885088
C139	C	0.452318	-0.251883	0.251924
C140	C	0.785651	0.081451	0.585257
C141	C	1.118984	0.414784	0.918591
O142	O	0.393166	-0.313659	0.189969
O143	O	0.726499	0.019674	0.523303
O144	O	1.059833	0.353007	0.856636
O145	O	0.393263	-0.190095	0.313904
O146	O	0.726597	0.143238	0.647238
O147	O	1.059930	0.476572	0.980571
C148	C	0.755392	-0.387727	0.251907
C149	C	1.088726	-0.054394	0.585241
C150	C	1.422059	0.278940	0.918574
C151	C	0.755403	-0.445841	0.251914
C152	C	1.088736	-0.112508	0.585248
C153	C	1.422069	0.220825	0.918581
C154	C	0.789004	-0.806195	0.218553
C155	C	1.122337	-0.472861	0.551886
C156	C	1.455670	-0.139528	0.885220
C157	C	0.789024	-0.860799	0.218560
C158	C	1.122357	-0.527466	0.551893
C159	C	1.455691	-0.194132	0.885227
O160	O	0.817502	-0.889028	0.190169
O161	O	1.150835	-0.555695	0.523502
O162	O	1.484168	-0.222361	0.856835
N163	N	0.755572	-0.888124	0.251966
N164	N	1.088906	-0.554790	0.585299
N165	N	1.422239	-0.221457	0.918632
C166	C	0.722102	-0.860841	0.285371
C167	C	1.055435	-0.527508	0.618704
C168	C	1.388768	-0.194174	0.952037
O169	O	0.693651	-0.889096	0.313786
O170	O	1.026984	-0.555763	0.647119
O171	O	1.360317	-0.222430	0.980452
C172	C	0.722085	-0.806238	0.285366
C173	C	1.055418	-0.472904	0.618699
C174	C	1.388751	-0.139571	0.952032
C175	C	0.755535	-0.778916	0.251954
C176	C	1.088868	-0.445583	0.585287
C177	C	1.422201	-0.112249	0.918621
C178	C	0.822452	-0.778873	0.185144
C179	C	1.155785	-0.445540	0.518478
C180	C	1.489118	-0.112206	0.851811
C181	C	0.822431	-0.724273	0.185137
C182	C	1.155764	-0.390939	0.518470
C183	C	1.489097	-0.057606	0.851803
C184	C	0.788962	-0.696994	0.218538
C185	C	1.122295	-0.363660	0.551871
C186	C	1.455628	-0.030327	0.885205
C187	C	0.755514	-0.724315	0.251946
C188	C	1.088847	-0.390982	0.585280
C189	C	1.422180	-0.057649	0.918613
C190	C	0.688617	-0.778956	0.318773
C191	C	1.021950	-0.445623	0.652106
C192	C	1.355284	-0.112289	0.985439
C193	C	0.688603	-0.724349	0.318765
C194	C	1.021936	-0.391016	0.652099
C195	C	1.355270	-0.057682	0.985432
C196	C	0.722053	-0.697027	0.285354
C197	C	1.055387	-0.363694	0.618687
C198	C	1.388720	-0.030361	0.952020
C199	C	0.722024	-0.642436	0.285340
C200	C	1.055357	-0.309103	0.618673
C201	C	1.388690	0.024231	0.952007
N202	N	0.755475	-0.615112	0.251934
N203	N	1.088809	-0.281778	0.585268
N204	N	1.422142	0.051555	0.918601
C205	C	0.788944	-0.642390	0.218533
C206	C	1.122278	-0.309057	0.551866
C207	C	1.455611	0.024276	0.885200
C208	C	0.722141	-0.975511	0.285379
C209	C	1.055474	-0.642178	0.618712
C210	C	1.388808	-0.308845	0.952045
C211	C	0.722155	-1.030114	0.285381
C212	C	1.055489	-0.696780	0.618714
C213	C	1.388822	-0.363447	0.952048
C214	C	0.789078	-1.030068	0.218571
C215	C	1.122412	-0.696735	0.551904
C216	C	1.455745	-0.363402	0.885238
C217	C	0.789061	-0.975465	0.218566
C218	C	1.122395	-0.642132	0.551900
C219	C	1.455728	-0.308798	0.885233
C220	C	0.755593	-0.948187	0.251973
C221	C	1.088926	-0.614854	0.585306
C222	C	1.422260	-0.281520	0.918639
C223	C	0.788897	-0.527725	0.218519
C224	C	1.122231	-0.194392	0.551853
C225	C	1.455564	0.138941	0.885186
C226	C	0.788872	-0.473120	0.218513
C227	C	1.122205	-0.139787	0.551847
C228	C	1.455538	0.193547	0.885180
C229	C	0.721951	-0.473170	0.285325
C230	C	1.055284	-0.139837	0.618658
C231	C	1.388617	0.193496	0.951992
C232	C	0.721974	-0.527771	0.285329
C233	C	1.055307	-0.194438	0.618663
C234	C	1.388641	0.138896	0.951996
C235	C	0.755452	-0.555047	0.251925
C236	C	1.088785	-0.221714	0.585258
C237	C	1.422118	0.111620	0.918592
O238	O	0.693562	-0.614173	0.313718
O239	O	1.026895	-0.280839	0.647052
O240	O	1.360229	0.052494	0.980385
O241	O	0.817396	-0.614128	0.190127
O242	O	1.150729	-0.280795	0.523461
O243	O	1.484062	0.052538	0.856794
C244	C	0.891853	-0.251888	0.251952
C245	C	1.225187	0.081445	0.585286
C246	C	1.558520	0.414778	0.918619
C247	C	0.949967	-0.251890	0.251961
C248	C	1.283301	0.081443	0.585295
C249	C	1.616634	0.414776	0.918628
C250	C	0.755497	-0.251875	0.388304
C251	C	1.088831	0.081458	0.721637
C252	C	1.422164	0.414791	1.054971
C253	C	0.755504	-0.251871	0.446418
C254	C	1.088838	0.081462	0.779752
C255	C	1.422171	0.414795	1.113085
C256	C	0.755583	-0.115512	0.251967
C257	C	1.088916	0.217822	0.585300
C258	C	1.422250	0.551155	0.918633
C259	C	0.755627	-0.057397	0.251982
C260	C	1.088960	0.275936	0.585315
C261	C	1.422293	0.609269	0.918648
C262	C	0.755494	-0.251856	0.116089
C263	C	1.088827	0.081477	0.449422
C264	C	1.422160	0.414811	0.782755
C265	C	0.755588	-0.251713	0.057975
C266	C	1.088921	0.081621	0.391308
C267	C	1.422254	0.414954	0.724642
C268	C	0.789012	-0.218333	0.806801
C269	C	1.122346	0.115001	1.140134
C270	C	1.455679	0.448334	1.473468
C271	C	0.789019	-0.218318	0.861405
C272	C	1.122352	0.115015	1.194739
C273	C	1.455685	0.448348	1.528072
O274	O	0.817466	-0.189864	0.889659
O275	O	1.150799	0.143469	1.222992
O276	O	1.484133	0.476803	1.556325
N277	N	0.755562	-0.251749	0.888701
N278	N	1.088895	0.081584	1.222034
N279	N	1.422229	0.414918	1.555368
C280	C	0.722093	-0.285192	0.861389
C281	C	1.055426	0.048141	1.194723
C282	C	1.388760	0.381474	1.528056
O283	O	0.693636	-0.313626	0.889620
O284	O	1.026969	0.019707	1.222954
O285	O	1.360302	0.353041	1.556287
C286	C	0.722084	-0.285204	0.806786
C287	C	1.055418	0.048130	1.140119
C288	C	1.388751	0.381463	1.473453
C289	C	0.755547	-0.251775	0.779493
C290	C	1.088880	0.081559	1.112827
C291	C	1.422214	0.414892	1.446160
C292	C	0.822472	-0.184906	0.779508
C293	C	1.155805	0.148427	1.112841
C294	C	1.489138	0.481761	1.446175
C295	C	0.822466	-0.184921	0.724908
C296	C	1.155799	0.148412	1.058241
C297	C	1.489133	0.481745	1.391574
C298	C	0.789001	-0.218363	0.697600
C299	C	1.122334	0.114970	1.030933
C300	C	1.455667	0.448303	1.364267
C301	C	0.755541	-0.251790	0.724893
C302	C	1.088874	0.081543	1.058226
C303	C	1.422208	0.414877	1.391559
C304	C	0.688613	-0.318644	0.779475
C305	C	1.021946	0.014689	1.112809
C306	C	1.355280	0.348022	1.446142
C307	C	0.688607	-0.318653	0.724868
C308	C	1.021940	0.014681	1.058202
C309	C	1.355273	0.348014	1.391535
C310	C	0.722069	-0.285223	0.697576
C311	C	1.055403	0.048110	1.030909
C312	C	1.388736	0.381443	1.364242
C313	C	0.722070	-0.285247	0.642984
C314	C	1.055403	0.048086	0.976318
C315	C	1.388736	0.381419	1.309651
N316	N	0.755526	-0.251817	0.615689
N317	N	1.088860	0.081517	0.949022
N318	N	1.422193	0.414850	1.282355
C319	C	0.788992	-0.218375	0.642996
C320	C	1.122325	0.114959	0.976330
C321	C	1.455658	0.448292	1.309663
C322	C	0.722113	-0.285165	0.976060
C323	C	1.055446	0.048168	1.309393
C324	C	1.388780	0.381501	1.642727
C325	C	0.722124	-0.285157	1.030662
C326	C	1.055457	0.048177	1.363996
C327	C	1.388791	0.381510	1.697329
C328	C	0.789049	-0.218282	1.030675
C329	C	1.122383	0.115051	1.364008
C330	C	1.455716	0.448385	1.697341
C331	C	0.789041	-0.218293	0.976071
C332	C	1.122374	0.115040	1.309405
C333	C	1.455707	0.448373	1.642738
C334	C	0.755570	-0.251735	0.948764
C335	C	1.088903	0.081599	1.282098
C336	C	1.422237	0.414932	1.615431
C337	C	0.788977	-0.218410	0.528331
C338	C	1.122311	0.114924	0.861665
C339	C	1.455644	0.448257	1.194998
C340	C	0.788970	-0.218429	0.473726
C341	C	1.122303	0.114904	0.807059
C342	C	1.455637	0.448237	1.140393
C343	C	0.722043	-0.285302	0.473719
C344	C	1.055376	0.048031	0.807052
C345	C	1.388710	0.381364	1.140385
C346	C	0.722052	-0.285285	0.528319
C347	C	1.055385	0.048049	0.861653
C348	C	1.388719	0.381382	1.194986
C349	C	0.755521	-0.251834	0.555624
C350	C	1.088854	0.081499	0.888958
C351	C	1.422188	0.414833	1.222291
O352	O	0.693635	-0.313686	0.614696
O353	O	1.026969	0.019648	0.948030
O354	O	1.360302	0.352981	1.281363
O355	O	0.817439	-0.189941	0.614759
O356	O	1.150773	0.143392	0.948092
O357	O	1.484106	0.476726	1.281425
H358	H	0.206327	-0.157919	0.346212
H359	H	0.539661	0.175414	0.679545
H360	H	0.872994	0.508747	1.012878
O361	O	0.450255	-0.182481	0.321550
O362	O	0.783588	0.150853	0.654883
O363	O	1.116921	0.484186	0.988217
H364	H	0.425366	-0.205918	0.348109
H365	H	0.758699	0.127415	0.681442
H366	H	1.092032	0.460748	1.014776
O367	O	0.825147	-0.945996	0.182539
O368	O	1.158480	-0.612662	0.515872
O369	O	1.491813	-0.279329	0.849206
H370	H	0.816217	-0.956502	0.141495
H371	H	1.149551	-0.623169	0.474829
H372	H	1.482884	-0.289835	0.808162
O373	O	0.858555	-0.148863	0.695473
O374	O	1.191888	0.184470	1.028806
O375	O	1.525222	0.517804	1.362139
H376	H	0.881820	-0.125606	0.723642
H377	H	1.215154	0.207727	1.056976
H378	H	1.548487	0.541060	1.390309
O379	O	0.061244	-0.321287	0.182320
O380	O	0.394577	0.012046	0.515653
O381	O	0.727911	0.345380	0.848986
H382	H	0.050740	-0.362335	0.191218
H383	H	0.384073	-0.029001	0.524551
H384	H	0.717406	0.304332	0.857884
O385	O	0.825062	-0.182372	0.444287
O386	O	1.158395	0.150961	0.777621
O387	O	1.491729	0.484295	1.110954
H388	H	0.848329	-0.159113	0.472453
H389	H	1.181662	0.174221	0.805787
H390	H	1.514996	0.507554	1.139120
O391	O	0.312602	-0.149090	0.355051
O392	O	0.645936	0.184243	0.688385
O393	O	0.979269	0.517577	1.021718
H394	H	0.284463	-0.125872	0.378337
H395	H	0.617796	0.207462	0.711670
H396	H	0.951129	0.540795	1.045003
O397	O	0.858517	-0.694807	0.149108
O398	O	1.191850	-0.361473	0.482441
O399	O	1.525183	-0.028140	0.815774
H400	H	0.881795	-0.722956	0.125891
H401	H	1.215128	-0.389623	0.459225
H402	H	1.548462	-0.056290	0.792558
H403	H	0.556514	-0.191317	0.312694
H404	H	0.889847	0.142016	0.646028
H405	H	1.223180	0.475350	0.979361
H406	H	0.849724	-0.157671	0.801736
H407	H	1.183057	0.175663	1.135070
H408	H	1.516390	0.508996	1.468403
O409	O	0.061398	-0.182482	0.321579
O410	O	0.394731	0.150851	0.654912
O411	O	0.728064	0.484185	0.988245
H412	H	0.033260	-0.159266	0.344869
H413	H	0.366593	0.174067	0.678202
H414	H	0.699926	0.507401	1.011535
H415	H	-0.044898	-0.191315	0.312735
H416	H	0.288436	0.142019	0.646069
H417	H	0.621769	0.475352	0.979402
O418	O	0.825129	-0.182235	0.946634
O419	O	1.158462	0.151098	1.279968
O420	O	1.491795	0.484431	1.613301
H421	H	0.848397	-0.158980	0.974802
H422	H	1.181730	0.174354	1.308136
H423	H	1.515064	0.507687	1.641469
H424	H	-0.045016	-0.312472	0.191191
H425	H	0.288318	0.020861	0.524524
H426	H	0.621651	0.354195	0.857858
H427	H	0.206133	-0.345840	0.157652
H428	H	0.539466	-0.012507	0.490986
H429	H	0.872799	0.320827	0.824319
O430	O	0.312394	-0.354658	0.148792
O431	O	0.645728	-0.021324	0.482126
O432	O	0.979061	0.312009	0.815459
H433	H	0.284209	-0.377874	0.125504
H434	H	0.617542	-0.044541	0.458838
H435	H	0.950875	0.288793	0.792171
H436	H	0.816333	-1.052289	0.191376
H437	H	1.149666	-0.718955	0.524709
H438	H	1.482999	-0.385622	0.858042
O439	O	0.450090	-0.321288	0.182292
O440	O	0.783424	0.012045	0.515626
O441	O	1.116757	0.345379	0.848959
H442	H	0.478225	-0.344502	0.158997
H443	H	0.811559	-0.011168	0.492330
H444	H	1.144892	0.322165	0.825663
H445	H	0.816229	-0.191169	0.550557
H446	H	1.149562	0.142164	0.883890
H447	H	1.482896	0.475497	1.217223
H448	H	0.556389	-0.312465	0.191142
H449	H	0.889722	0.020869	0.524476
H450	H	1.223056	0.354202	0.857809
H451	H	0.849709	-0.801078	0.157945
H452	H	1.183042	-0.467744	0.491278
H453	H	1.516376	-0.134411	0.824612
H454	H	0.816111	-0.450876	0.191304
H455	H	1.149444	-0.117543	0.524637
H456	H	1.482777	0.215790	0.857970
H457	H	0.694809	-0.312510	0.550542
H458	H	1.028142	0.020823	0.883875
H459	H	1.361476	0.354157	1.217209
O460	O	0.686074	-1.059581	0.321414
O461	O	1.019407	-0.726247	0.654747
O462	O	1.352740	-0.392914	0.988081
H463	H	0.662802	-1.031433	0.344639
H464	H	0.996135	-0.698100	0.677972
H465	H	1.329469	-0.364766	1.011306
H466	H	0.816159	-0.549927	0.191319
H467	H	1.149492	-0.216594	0.524653
H468	H	1.482826	0.116739	0.857986
O469	O	0.825137	-0.182200	1.060132
O470	O	1.158470	0.151133	1.393466
O471	O	1.491804	0.484466	1.726799
H472	H	0.819512	-0.187805	1.102686
H473	H	1.152845	0.145528	1.436019
H474	H	1.486178	0.478862	1.769352
H475	H	0.694883	-0.953304	0.312581
H476	H	1.028216	-0.619971	0.645914
H477	H	1.361550	-0.286638	0.979247
O478	O	0.686034	-0.321213	1.060098
O479	O	1.019367	0.012120	1.393432
O480	O	1.352701	0.345453	1.726765
H481	H	0.662761	-0.344465	1.031930
H482	H	0.996095	-0.011131	1.365264
H483	H	1.329428	0.322202	1.698597
H484	H	0.661376	-0.801192	0.345978
H485	H	0.994709	-0.467858	0.679311
H486	H	1.328042	-0.134525	1.012644
O487	O	0.652498	-0.694926	0.354791
O488	O	0.985831	-0.361593	0.688124
O489	O	1.319165	-0.028260	1.021458
H490	H	0.629239	-0.723102	0.378018
H491	H	0.962573	-0.389769	0.711351
H492	H	1.295906	-0.056435	1.044684
H493	H	0.694738	-0.550017	0.312538
H494	H	1.028071	-0.216684	0.645871
H495	H	1.361405	0.116649	0.979204
H496	H	0.694699	-0.450951	0.312518
H497	H	1.028032	-0.117618	0.645852
H498	H	1.361366	0.215715	0.979185
H499	H	0.694857	-0.312400	0.953830
H500	H	1.028190	0.020933	1.287164
H501	H	1.361523	0.354267	1.620497
O502	O	0.652514	-0.354693	0.808905
O503	O	0.985847	-0.021360	1.142239
O504	O	1.319181	0.311973	1.475572
H505	H	0.629239	-0.377939	0.780735
H506	H	0.962573	-0.044606	1.114068
H507	H	1.295906	0.288728	1.447401
H508	H	0.661345	-0.345880	0.702638
H509	H	0.994678	-0.012546	1.035971
H510	H	1.328011	0.320787	1.369305
H511	H	0.694798	-0.312531	0.451475
H512	H	1.028131	0.020802	0.784808
H513	H	1.361464	0.354135	1.118141
