data_functionalizedCrystal
_audit_creation_method	'MofGen! by Chris Wilmer'
_symmetry_space_group_name_H-M	'P1'
_symmetry_Int_Tables_number	1
_symmetry_cell_setting	triclinic
loop_
_symmetry_equiv_pos_as_xyz
  x,y,z
_cell_length_a	15.298708
_cell_length_b	15.299816
_cell_length_c	17.077396
_cell_angle_alpha	80.343631
_cell_angle_beta	80.353222
_cell_angle_gamma	88.425743
loop_
_atom_site_label
_atom_site_type_symbol
_atom_site_fract_x
_atom_site_fract_y
_atom_site_fract_z
Zn1	Zn	1.399317	-0.116639	0.251052
Zn2	Zn	1.899317	0.383361	0.751052
Zn3	Zn	1.424552	-0.263098	0.138073
Zn4	Zn	1.924552	0.236902	0.638073
Zn5	Zn	1.252856	-0.142044	0.145650
Zn6	Zn	1.752856	0.357956	0.645650
Zn7	Zn	1.278145	-0.288407	0.295123
Zn8	Zn	1.778145	0.211593	0.795123
O9	O	1.338717	-0.202547	0.207475
O10	O	1.838717	0.297453	0.707475
O11	O	1.525231	-0.114843	0.214451
O12	O	2.025231	0.385157	0.714451
O13	O	1.401754	-0.247079	0.029240
O14	O	1.901754	0.252921	0.529240
O15	O	1.251139	-0.016126	0.144358
O16	O	1.751139	0.483874	0.644358
O17	O	1.543771	-0.222445	0.131445
O18	O	2.043771	0.277555	0.631445
O19	O	1.358743	0.002538	0.221797
O20	O	1.858743	0.502538	0.721797
O21	O	1.275609	-0.158141	0.034807
O22	O	1.775609	0.341859	0.534807
O23	O	1.133644	-0.182683	0.187092
O24	O	1.633644	0.317317	0.687092
O25	O	1.294241	-0.265583	0.399115
O26	O	1.794241	0.234417	0.899115
O27	O	1.152224	-0.290216	0.296910
O28	O	1.652224	0.209784	0.796910
O29	O	1.383265	-0.139385	0.366736
O30	O	1.883265	0.360615	0.866736
O31	O	1.426276	-0.389002	0.174179
O32	O	1.926276	0.110998	0.674179
O33	O	1.318711	-0.407597	0.289563
O34	O	1.818711	0.092403	0.789563
C35	C	1.111154	-0.241953	0.247606
C36	C	1.611154	0.258047	0.747606
C37	C	1.013805	-0.258833	0.264796
C38	C	1.513805	0.241167	0.764796
C39	C	0.700541	-0.082127	0.084837
C40	C	1.200541	0.417873	0.584837
C41	C	0.792004	-0.066263	0.068687
C42	C	1.292004	0.433737	0.568687
C43	C	0.847459	-0.114404	0.117713
C44	C	1.347459	0.385596	0.617713
C45	C	0.811441	-0.178412	0.182892
C46	C	1.311441	0.321588	0.682892
C47	C	0.719968	-0.194273	0.199047
C48	C	1.219968	0.305727	0.699047
C49	C	0.866886	-0.226550	0.231923
C50	C	1.366886	0.273450	0.731923
C51	C	0.830868	-0.290558	0.297102
C52	C	1.330868	0.209442	0.797102
C53	C	0.739404	-0.306416	0.313254
C54	C	1.239404	0.193584	0.813254
C55	C	0.683950	-0.258275	0.264229
C56	C	1.183950	0.241725	0.764229
C57	C	0.958359	-0.210689	0.215767
C58	C	1.458359	0.289311	0.715767
C59	C	0.977786	-0.322835	0.329977
C60	C	1.477786	0.177165	0.829977
C61	C	0.886323	-0.338699	0.346127
C62	C	1.386323	0.161301	0.846127
C63	C	1.378000	-0.430071	0.235844
C64	C	1.878000	0.069929	0.735844
C65	C	1.394885	-0.527392	0.247993
C66	C	1.894885	-0.027392	0.747993
C67	C	1.218610	-0.840857	0.120811
C68	C	1.718610	-0.340857	0.620811
C69	C	1.202741	-0.749419	0.109399
C70	C	1.702741	-0.249419	0.609399
C71	C	1.250776	-0.693908	0.144046
C72	C	1.750776	-0.193908	0.644046
C73	C	1.314682	-0.729843	0.190108
C74	C	1.814682	-0.229843	0.690108
C75	C	1.330548	-0.821291	0.201526
C76	C	1.830548	-0.321291	0.701526
C77	C	1.362714	-0.674342	0.224761
C78	C	1.862714	-0.174342	0.724761
C79	C	1.426620	-0.710278	0.270823
C80	C	1.926620	-0.210278	0.770823
C81	C	1.442483	-0.801717	0.282238
C82	C	1.942483	-0.301717	0.782238
C83	C	1.394449	-0.857228	0.247591
C84	C	1.894449	-0.357228	0.747591
C85	C	1.346848	-0.582895	0.213343
C86	C	1.846848	-0.082895	0.713343
C87	C	1.458786	-0.563329	0.294058
C88	C	1.958786	-0.063329	0.794058
C89	C	1.474655	-0.654767	0.305470
C90	C	1.974655	-0.154767	0.805470
C91	C	1.567170	-0.162987	0.167187
C92	C	2.067170	0.337013	0.667187
C93	C	1.664522	-0.146129	0.150019
C94	C	2.164522	0.353871	0.650019
C95	C	1.338759	-0.202473	0.412202
C96	C	1.838759	0.297527	0.912202
C97	C	1.338777	-0.202442	0.499444
C98	C	1.838777	0.297558	0.999444
C99	C	1.299305	0.025869	0.179007
C100	C	1.799305	0.525869	0.679007
C101	C	1.282510	0.123207	0.166876
C102	C	1.782510	0.623207	0.666876
C103	C	1.338715	-0.202548	0.003527
C104	C	1.838715	0.297452	0.503527
C105	C	1.338824	-0.202304	-0.083775
C106	C	1.838824	0.297696	0.416225
C107	C	1.385133	-0.136726	0.523575
C108	C	1.885133	0.363274	1.023575
C109	C	1.385139	-0.136695	0.605550
C110	C	1.885139	0.363305	1.105550
C111	C	1.338793	-0.202384	0.663392
C112	C	1.838793	0.297616	1.163392
C113	C	1.292431	-0.268104	0.639257
C114	C	1.792431	0.231896	1.139257
C115	C	1.292421	-0.268130	0.557284
C116	C	1.792421	0.231870	1.057284
C117	C	1.292457	-0.268045	0.810115
C118	C	1.792457	0.231955	1.310115
C119	C	1.292468	-0.268020	0.892094
C120	C	1.792468	0.231980	1.392094
C121	C	1.385175	-0.136610	0.858381
C122	C	1.885175	0.363390	1.358381
C123	C	1.385165	-0.136636	0.776407
C124	C	1.885165	0.363364	1.276407
C125	C	1.338804	-0.202357	0.752278
C126	C	1.838804	0.297643	1.252278
H127	H	0.710081	-0.358529	0.366332
H128	H	1.210081	0.141471	0.866332
O129	O	0.847442	-0.407756	0.416396
O130	O	1.347442	0.092244	0.916396
H131	H	0.876857	-0.473415	0.408261
H132	H	1.376857	0.026585	0.908261
O133	O	0.830861	0.002763	-0.001608
O134	O	1.330861	0.502763	0.498392
H135	H	0.879281	-0.029157	-0.044071
H136	H	1.379281	0.470843	0.455929
H137	H	1.022937	-0.362032	0.369900
H138	H	1.522937	0.137968	0.869900
H139	H	1.254689	-0.321551	0.790473
H140	H	1.754689	0.178449	1.290473
O141	O	1.435156	-0.065792	0.714015
O142	O	1.935156	0.434208	1.214015
H143	H	1.467390	-0.020083	0.744564
H144	H	1.967390	0.479917	1.244564
H145	H	1.494517	-0.830973	0.319748
H146	H	1.994517	-0.330973	0.819748
H147	H	0.987675	-0.158571	0.162699
H148	H	1.487675	0.341429	0.662699
O149	O	0.640738	-0.030229	0.031947
O150	O	1.140738	0.469771	0.531947
H151	H	0.571087	-0.052024	0.054124
H152	H	1.071087	0.447976	0.554124
H153	H	1.422922	-0.083096	0.878030
H154	H	1.922922	0.416904	1.378030
H155	H	1.294814	-0.553644	0.175840
H156	H	1.794814	-0.053644	0.675840
O157	O	1.133832	-0.710655	0.059709
O158	O	1.633832	-0.210655	0.559709
H159	H	1.103105	-0.764614	0.037524
H160	H	1.603105	-0.264614	0.537524
H161	H	1.237852	-0.619455	0.134751
H162	H	1.737852	-0.119455	0.634751
O163	O	1.166815	-0.900722	0.083433
O164	O	1.666815	-0.400722	0.583433
H165	H	1.188592	-0.970343	0.099105
H166	H	1.688592	-0.470343	0.599105
H167	H	1.254691	-0.321587	0.686360
H168	H	1.754691	0.178413	1.186360
O169	O	1.411567	-0.955853	0.259902
O170	O	1.911567	-0.455853	0.759902
H171	H	1.349689	-0.991456	0.290391
H172	H	1.849689	-0.491456	0.790391
O173	O	0.946110	-0.097301	0.100290
O174	O	1.446110	0.402699	0.600290
H175	H	0.981620	-0.159151	0.088302
H176	H	1.481620	0.340849	0.588302
H177	H	1.526688	-0.684039	0.342974
H178	H	2.026688	-0.184039	0.842974
H179	H	0.609472	-0.271192	0.277372
H180	H	1.109472	0.228808	0.777372
H181	H	1.254727	-0.321508	0.939189
H182	H	1.754727	0.178492	1.439189
H183	H	1.497899	-0.518132	0.322273
H184	H	1.997899	-0.018132	0.822273
O185	O	1.435121	-0.065875	0.461188
O186	O	1.935121	0.434125	0.961188
H187	H	1.467349	-0.020169	0.491744
H188	H	1.967349	0.479831	0.991744
O189	O	1.435143	-0.065820	0.631580
O190	O	1.935143	0.434180	1.131580
H191	H	1.467379	-0.020155	0.577586
H192	H	1.967379	0.479845	1.077586
O193	O	1.242409	-0.338999	0.531251
O194	O	1.742409	0.161001	1.031251
H195	H	1.210184	-0.384674	0.585243
H196	H	1.710184	0.115326	1.085243
