data_functionalizedCrystal
_audit_creation_method	'MofGen! by Chris Wilmer'
_symmetry_space_group_name_H-M	'P1'
_symmetry_Int_Tables_number	1
_symmetry_cell_setting	triclinic
loop_
_symmetry_equiv_pos_as_xyz
  x,y,z
_cell_length_a	12.759401
_cell_length_b	15.299816
_cell_length_c	12.759393
_cell_angle_alpha	80.349878
_cell_angle_beta	90.018496
_cell_angle_gamma	80.350473
loop_
_atom_site_label
_atom_site_type_symbol
_atom_site_fract_x
_atom_site_fract_y
_atom_site_fract_z
Zn1	Zn	1.678544	-0.358997	0.666396
Zn2	Zn	1.708812	-0.509841	0.521143
Zn3	Zn	1.502855	-0.359045	0.490745
Zn4	Zn	1.533194	-0.509771	0.696771
O5	O	1.605851	-0.434413	0.593764
O6	O	1.829582	-0.379016	0.647138
O7	O	1.681462	-0.489886	0.370100
O8	O	1.500796	-0.232830	0.488612
O9	O	1.851820	-0.489840	0.540421
O10	O	1.629874	-0.232796	0.617662
O11	O	1.530146	-0.379097	0.347766
O12	O	1.359857	-0.379030	0.518065
O13	O	1.552505	-0.489722	0.839753
O14	O	1.382147	-0.489768	0.669431
O15	O	1.659292	-0.378949	0.817437
O16	O	1.710881	-0.636039	0.569874
O17	O	1.581855	-0.635988	0.698907
C18	C	1.332881	-0.434397	0.593746
C19	C	1.216107	-0.434411	0.593768
C20	C	1.172898	-0.492165	0.672492
C21	C	1.063176	-0.492177	0.672506
C22	C	1.039882	-0.376678	0.515062
C23	C	1.149601	-0.376663	0.515054
C24	C	1.186346	-0.558850	0.763388
C25	C	1.076624	-0.558862	0.763402
C26	C	1.652973	-0.668738	0.641008
C27	C	1.673228	-0.768983	0.661255
C28	C	1.461775	-1.051929	0.449415
C29	C	1.442739	-0.957743	0.430395
C30	C	1.500360	-0.910549	0.488108
C31	C	1.577019	-0.957549	0.564845
C32	C	1.596051	-1.051743	0.583873
C33	C	1.634636	-0.910363	0.622566
C34	C	1.711296	-0.957363	0.699303
C35	C	1.730325	-1.051548	0.718327
C36	C	1.672704	-1.098743	0.660614
C37	C	1.615604	-0.816169	0.603538
C38	C	1.749881	-0.815983	0.737996
C39	C	1.768917	-0.910169	0.757016
C40	C	1.879888	-0.434431	0.593782
C41	C	1.996666	-0.434438	0.593790
C42	C	1.605907	-0.434322	0.867779
C43	C	1.605930	-0.434284	0.984548
C44	C	1.558574	-0.199174	0.546358
C45	C	1.538428	-0.098928	0.526156
C46	C	1.605844	-0.434439	0.320802
C47	C	1.605973	-0.434224	0.203982
C48	C	1.661543	-0.376599	1.027790
C49	C	1.661561	-0.376566	1.137508
C50	C	1.550353	-0.491911	1.160732
C51	C	1.550329	-0.491939	1.051016
C52	C	1.725751	-0.310008	1.014383
C53	C	1.725770	-0.309975	1.124101
H54	H	1.553187	-0.777910	0.541058
C55	C	0.967844	-0.313888	0.429540
C56	C	1.029170	-0.263291	0.360609
C57	C	0.962847	-0.205431	0.281820
H58	H	0.931931	-0.348245	0.390534
H59	H	0.917173	-0.274588	0.461863
H60	H	1.079822	-0.302586	0.328288
H61	H	1.065082	-0.228916	0.399584
H62	H	0.912176	-0.166132	0.314143
H63	H	0.926937	-0.239795	0.242822
H64	H	1.004445	-0.171089	0.235046
H65	H	1.810907	-0.328683	1.157653
C66	C	1.249561	-0.647188	0.741978
C67	C	1.307963	-0.631044	0.649942
C68	C	1.366200	-0.712400	0.630177
H69	H	1.296832	-0.673408	0.800606
H70	H	1.202169	-0.687105	0.732353
H71	H	1.355350	-0.591142	0.659574
H72	H	1.260718	-0.604838	0.591296
H73	H	1.318808	-0.752317	0.620553
H74	H	1.413465	-0.738613	0.688811
H75	H	1.405825	-0.701459	0.567725
H76	H	1.792742	-1.089813	0.780816
C77	C	1.479926	-0.808290	0.467449
C78	C	1.573664	-0.777074	0.434443
C79	C	1.554884	-0.682875	0.415409
H80	H	1.426077	-0.786940	0.413462
H81	H	1.457465	-0.786914	0.530926
H82	H	1.596110	-0.798441	0.370974
H83	H	1.627525	-0.798400	0.488416
H84	H	1.532424	-0.661499	0.478886
H85	H	1.501033	-0.661534	0.361424
H86	H	1.618484	-0.661683	0.393022
C87	C	1.359517	-0.906880	0.346995
C88	C	1.313152	-0.968367	0.300501
C89	C	1.236493	-0.921544	0.223652
H90	H	1.306200	-0.870138	0.379603
H91	H	1.392293	-0.870160	0.293781
H92	H	1.280375	-1.005072	0.353707
H93	H	1.366441	-1.005111	0.267873
H94	H	1.269269	-0.884824	0.170437
H95	H	1.183183	-0.884804	0.256268
H96	H	1.205031	-0.963256	0.192089
C97	C	1.677886	-0.216834	0.956108
C98	C	1.648631	-0.159811	1.030149
C99	C	1.604521	-0.073980	0.976505
H100	H	1.728825	-0.193523	0.910079
H101	H	1.616851	-0.220602	0.915534
H102	H	1.709658	-0.156040	1.070704
H103	H	1.597682	-0.183093	1.076180
H104	H	1.543486	-0.077748	0.935932
H105	H	1.655465	-0.050678	0.930478
H106	H	1.584657	-0.035282	1.026734
H107	H	1.414864	-1.090363	0.402439
C108	C	1.835599	-0.343365	0.975920
C109	C	1.908393	-0.365446	1.062280
C110	C	2.009596	-0.396168	1.026885
H111	H	1.833651	-0.395132	0.944455
H112	H	1.856827	-0.297448	0.924801
H113	H	1.887170	-0.411359	1.113380
H114	H	1.910374	-0.313693	1.093754
H115	H	2.030824	-0.350250	0.975766
H116	H	2.007637	-0.447932	0.995420
H117	H	2.059001	-0.411145	1.085472
C118	C	1.693549	-1.201005	0.681397
C119	C	1.773021	-1.232068	0.760946
C120	C	1.792254	-1.326267	0.780113
H121	H	1.630133	-1.222452	0.703878
H122	H	1.716124	-1.222387	0.617954
H123	H	1.750443	-1.210696	0.824376
H124	H	1.836453	-1.210646	0.738487
H125	H	1.814828	-1.347649	0.716670
H126	H	1.728832	-1.347705	0.802590
H127	H	1.846183	-1.347355	0.834081
H128	H	1.505082	-0.538850	1.214863
C129	C	1.852057	-0.961365	0.840327
C130	C	1.856368	-1.053951	0.844650
C131	C	1.932934	-1.101141	0.921392
H132	H	1.919595	-0.945999	0.821975
H133	H	1.833519	-0.945948	0.907814
H134	H	1.874912	-1.069362	0.777177
H135	H	1.788850	-1.069344	0.863014
H136	H	1.914396	-1.085724	0.988879
H137	H	2.000466	-1.085768	0.903033
H138	H	1.935862	-1.163965	0.924342
C139	C	1.490089	-0.554708	1.004155
C140	C	1.530901	-0.643943	1.048796
C141	C	1.475436	-0.701790	1.005646
H142	H	1.416838	-0.541603	1.019457
H143	H	1.498049	-0.546530	0.929293
H144	H	1.522932	-0.652116	1.123640
H145	H	1.604146	-0.657075	1.033497
H146	H	1.483396	-0.693612	0.930784
H147	H	1.402187	-0.688677	1.020951
H148	H	1.503125	-0.762342	1.035921
H149	H	1.212403	-0.540223	0.841037
C150	C	1.812375	-0.764591	0.800514
C151	C	1.779323	-0.672045	0.767405
C152	C	1.836870	-0.624670	0.824961
H153	H	1.800117	-0.779880	0.874223
H154	H	1.886097	-0.779934	0.788288
H155	H	1.705618	-0.656709	0.779640
H156	H	1.791583	-0.656730	0.693705
H157	H	1.910592	-0.640012	0.812735
H158	H	1.824608	-0.639965	0.898667
H159	H	1.814459	-0.561873	0.802498
H160	H	1.683293	-0.243610	1.144762
H161	H	1.184776	-0.329628	0.450955
H162	H	1.037606	-0.533929	0.835725
H163	H	1.060890	-0.628695	0.755556
