data_functionalizedCrystal
_audit_creation_method	'MofGen! by Chris Wilmer'
_symmetry_space_group_name_H-M	'P1'
_symmetry_Int_Tables_number	1
_symmetry_cell_setting	triclinic
loop_
_symmetry_equiv_pos_as_xyz
  x,y,z
_cell_length_a	10.686220
_cell_length_b	16.120531
_cell_length_c	10.686551
_cell_angle_alpha	88.704865
_cell_angle_beta	89.691918
_cell_angle_gamma	82.922025
loop_
_atom_site_label
_atom_site_type_symbol
_atom_site_fract_x
_atom_site_fract_y
_atom_site_fract_z
Zn1	Zn	1.957883	0.203140	0.579030
Zn2	Zn	2.457883	0.703140	1.079030
Zn3	Zn	1.930960	0.353953	0.381628
Zn4	Zn	2.430960	0.853953	0.881628
Zn5	Zn	1.730490	0.224455	0.387094
Zn6	Zn	2.230490	0.724455	0.887094
Zn7	Zn	1.737509	0.352264	0.607267
Zn8	Zn	2.237509	0.852264	1.107267
O9	O	1.839211	0.283453	0.488755
O10	O	2.339211	0.783453	0.988755
O11	O	2.130436	0.214932	0.538739
O12	O	2.630436	0.714932	1.038739
O13	O	1.890162	0.346402	0.207596
O14	O	2.390162	0.846402	0.707596
O15	O	1.768984	0.105022	0.403025
O16	O	2.268984	0.605022	0.903025
O17	O	2.110655	0.325734	0.393709
O18	O	2.610655	0.825734	0.893709
O19	O	1.936049	0.089362	0.544039
O20	O	2.436049	0.589362	1.044039
O21	O	1.742878	0.251260	0.211612
O22	O	2.242878	0.751260	0.711612
O23	O	1.555297	0.249623	0.430405
O24	O	2.055297	0.749623	0.930405
O25	O	1.780948	0.322856	0.778278
O26	O	2.280948	0.822856	1.278278
O27	O	1.560454	0.343524	0.592166
O28	O	2.060454	0.843524	1.092166
O29	O	1.942855	0.213294	0.757532
O30	O	2.442855	0.713294	1.257532
O31	O	1.896968	0.470334	0.421089
O32	O	2.396968	0.970334	0.921089
O33	O	1.754841	0.469093	0.586865
O34	O	2.254841	0.969093	1.086865
C35	C	1.512208	0.298704	0.514943
C36	C	2.012208	0.798704	1.014943
C37	C	1.372316	0.305246	0.526178
C38	C	1.872316	0.805246	1.026178
C39	C	1.823781	0.499945	0.506473
C40	C	2.323781	0.999945	1.006473
C41	C	1.817299	0.592553	0.514085
C42	C	2.317299	1.092553	1.014085
C43	C	1.805474	0.762108	0.528009
C44	C	2.305474	1.262108	1.028009
C45	C	1.872989	0.803959	0.449426
C46	C	2.372989	1.303959	0.949426
C47	C	1.866409	0.898305	0.457173
C48	C	2.366409	1.398305	0.957173
C49	C	1.812052	0.667753	0.520263
C50	C	2.312052	1.167753	1.020263
C51	C	2.167490	0.268143	0.462464
C52	C	2.667490	0.768143	0.962464
C53	C	2.307383	0.261619	0.451261
C54	C	2.807383	0.761619	0.951261
C55	C	1.865688	0.265509	0.814485
C56	C	2.365688	0.765509	1.314485
C57	C	1.876971	0.257862	0.953291
C58	C	2.376971	0.757862	1.453291
C59	C	1.854690	1.066116	0.470972
C60	C	2.354690	1.566116	0.970972
C61	C	1.861167	0.973509	0.463345
C62	C	2.361167	1.473509	0.963345
C63	C	1.812913	0.301264	0.164281
C64	C	2.312913	0.801264	0.664281
C65	C	1.801891	0.308664	0.025436
C66	C	2.301891	0.808664	0.525436
H67	H	1.358811	0.219264	0.378525
H68	H	1.858811	0.719264	0.878525
C69	C	1.975481	0.191200	1.013296
C70	C	2.475481	0.691200	1.513296
H71	H	2.021075	0.160359	0.949422
H72	H	2.521075	0.660359	1.449422
H73	H	1.934023	0.154368	1.065079
H74	H	2.434023	0.654368	1.565079
H75	H	2.032136	0.217753	1.062392
H76	H	2.532136	0.717753	1.562392
C77	C	1.720711	0.809416	0.626745
C78	C	2.220711	1.309416	1.126745
H79	H	1.679216	0.770752	0.675039
H80	H	2.179216	1.270752	1.175039
H81	H	1.659707	0.848605	0.586048
H82	H	2.159707	1.348605	1.086048
H83	H	1.770928	0.838073	0.680077
H84	H	2.270928	1.338073	1.180077
C85	C	1.302843	0.362472	0.624442
C86	C	1.802843	0.862472	1.124442
H87	H	1.214780	0.359509	0.619363
H88	H	1.714780	0.859509	1.119363
H89	H	1.318851	0.418459	0.608909
H90	H	1.818851	0.918459	1.108909
H91	H	1.332026	0.344737	0.705685
H92	H	1.832026	0.844737	1.205685
C93	C	1.957712	0.756651	0.350648
C94	C	2.457712	1.256651	0.850648
H95	H	1.951053	0.698529	0.358313
H96	H	2.451053	1.198529	0.858313
H97	H	2.042795	0.765838	0.363321
H98	H	2.542795	1.265838	0.863321
H99	H	1.931520	0.776393	0.269354
H100	H	2.431520	1.276393	0.769354
C101	C	1.703389	0.375322	0.965430
C102	C	2.203389	0.875322	1.465430
H103	H	1.708464	0.371886	0.876880
H104	H	2.208464	0.871886	1.376880
H105	H	1.719516	0.429290	0.989848
H106	H	2.219516	0.929290	1.489848
H107	H	1.621405	0.365903	0.992524
H108	H	2.121405	0.865903	1.492524
