data_functionalizedCrystal
_audit_creation_method	'MofGen! by Chris Wilmer'
_symmetry_space_group_name_H-M	'P1'
_symmetry_Int_Tables_number	1
_symmetry_cell_setting	triclinic
loop_
_symmetry_equiv_pos_as_xyz
  x,y,z
_cell_length_a	27.440280
_cell_length_b	14.560438
_cell_length_c	14.560438
_cell_angle_alpha	89.997947
_cell_angle_beta	120.007702
_cell_angle_gamma	60.000665
loop_
_atom_site_label
_atom_site_type_symbol
_atom_site_fract_x
_atom_site_fract_y
_atom_site_fract_z
Zr1	Zr	0.533478	0.884720	0.120678
O2	O	0.635161	0.738058	0.267361
O3	O	0.431798	0.929685	0.075691
O4	O	0.533481	0.929668	0.267328
O5	O	0.533475	0.738082	-0.075419
O6	O	0.533480	1.080809	0.267327
O7	O	0.533478	0.738074	0.075724
O8	O	0.351588	1.080839	-0.075477
O9	O	0.715367	0.738052	0.267385
O10	O	0.473619	1.061651	0.056529
O11	O	0.473617	0.948862	-0.056266
O12	O	0.593336	0.948842	0.169362
O13	O	0.593334	0.836053	0.056567
Zr14	Zr	0.533472	1.125784	-0.120379
Zr15	Zr	0.533477	1.125772	0.120676
Zr16	Zr	0.533473	0.884732	-0.120377
Zr17	Zr	0.661397	0.884711	0.120717
Zr18	Zr	0.405552	1.125793	-0.120418
O19	O	0.635152	1.080819	-0.075392
O20	O	0.635159	1.080801	0.267357
O21	O	0.635153	0.738075	-0.075388
O22	O	0.431789	1.272446	-0.267062
O23	O	0.431796	1.272429	0.075687
O24	O	0.431791	0.929703	-0.267058
O25	O	0.533475	1.272422	0.075718
O26	O	0.533469	1.080836	-0.267029
O27	O	0.533469	0.929695	-0.267028
O28	O	0.533472	1.272430	-0.075425
O29	O	0.715366	0.929655	0.267383
O30	O	0.351584	1.080849	-0.267084
O31	O	0.351583	1.272452	-0.267086
O32	O	0.351587	1.272442	-0.075480
O33	O	0.715363	0.738062	0.075778
O34	O	0.715362	0.929665	0.075776
O35	O	0.473614	1.061662	-0.169063
O36	O	0.473616	1.174450	-0.056268
O37	O	0.593333	1.061642	0.056565
O38	O	0.593331	0.948853	-0.056230
C39	C	0.373467	1.005263	0.000101
C40	C	0.319162	1.005267	0.000085
C41	C	0.026666	0.921978	0.083462
C42	C	-0.024351	0.921978	0.083474
O43	O	-0.013157	0.851182	0.154326
N44	N	-0.094057	1.005248	0.000194
C45	C	-0.112747	1.088531	-0.083097
O46	O	-0.176722	1.159360	-0.153932
C47	C	-0.061730	1.088536	-0.083103
C48	C	0.007977	1.005253	0.000176
C49	C	0.096369	0.838704	0.166735
C50	C	0.147383	0.838703	0.166722
C51	C	0.128693	0.921978	0.083435
C52	C	0.058990	1.005253	0.000162
C53	C	-0.080420	1.171822	-0.166388
C54	C	-0.029396	1.171820	-0.166387
C55	C	0.040311	1.088538	-0.083108
C56	C	0.091314	1.088528	-0.083137
N57	N	0.161020	1.005257	0.000143
C58	C	0.179710	0.921983	0.083429
C59	C	-0.219882	1.088517	-0.083077
C60	C	-0.270898	1.088509	-0.083076
C61	C	-0.182498	0.921956	0.083496
C62	C	-0.131482	0.921960	0.083490
C63	C	-0.150175	1.005246	0.000203
C64	C	0.286838	0.921988	0.083395
C65	C	0.337852	0.921992	0.083371
C66	C	0.249448	1.088548	-0.083197
C67	C	0.198438	1.088541	-0.083178
C68	C	0.217138	1.005255	0.000128
O69	O	0.080171	1.159290	-0.153951
O70	O	0.243685	0.851174	0.154260
C71	C	0.533476	0.703734	0.000153
C72	C	0.533477	0.601401	0.000154
C73	C	0.533480	0.553321	0.083422
C74	C	0.533476	0.457173	0.083415
C75	C	0.533467	0.457192	-0.083131
C76	C	0.533467	0.553343	-0.083128
C77	C	0.693482	1.005241	0.000198
C78	C	0.747788	1.005237	0.000214
C79	C	0.533482	1.005237	0.301673
C80	C	0.533484	1.005232	0.404007
C81	C	0.533473	1.306770	0.000146
C82	C	0.533473	1.409103	0.000145
C83	C	0.595974	0.946347	0.510982
C84	C	0.595972	0.946358	0.607132
C85	C	0.470984	1.064140	0.489319
C86	C	0.470987	1.064135	0.393171
C87	C	0.533472	1.005261	0.698629
C88	C	0.533479	1.005247	0.596304
C89	C	0.373466	1.306782	0.000098
C90	C	0.319160	1.409118	0.000081
C91	C	0.373461	1.005279	-0.301422
C92	C	0.319153	1.005288	-0.403772
C93	C	0.373459	1.306797	-0.301425
C94	C	0.319151	1.409139	-0.403777
C95	C	0.693491	0.703707	0.301724
C96	C	0.747799	0.601365	0.404076
C97	C	0.693484	0.703722	0.000201
C98	C	0.747790	0.601386	0.000218
C99	C	0.693489	1.005225	0.301721
C100	C	0.747796	1.005216	0.404071
C101	C	0.293659	1.398296	0.058961
C102	C	0.242640	1.494443	0.058968
C103	C	0.217120	1.601411	0.000086
C104	C	0.242626	1.612230	-0.058797
C105	C	0.293647	1.516085	-0.058796
C106	C	0.293648	1.064172	-0.510727
C107	C	0.242628	1.064176	-0.606905
C108	C	0.217110	1.005302	-0.596127
C109	C	0.242620	0.946410	-0.489162
C110	C	0.293643	0.946400	-0.392986
C111	C	0.293649	1.516084	-0.392965
C112	C	0.242628	1.612254	-0.489126
C113	C	0.217107	1.601476	-0.596098
C114	C	0.242614	1.494520	-0.606908
C115	C	0.293638	1.398352	-0.510748
C116	C	0.773307	0.494420	0.393264
C117	C	0.824344	0.398250	0.489425
C118	C	0.849868	0.409028	0.596397
C119	C	0.824357	0.515984	0.607207
C120	C	0.773324	0.612152	0.511047
C121	C	0.773296	0.612208	-0.058652
C122	C	0.824329	0.516061	-0.058632
C123	C	0.849851	0.409093	0.000253
C124	C	0.824343	0.398273	0.059132
C125	C	0.773314	0.494419	0.059117
C126	C	0.773298	1.064102	0.393257
C127	C	0.824319	1.064116	0.489417
C128	C	0.849841	1.005236	0.596390
C129	C	0.824334	0.946348	0.607202
C130	C	0.773310	0.946342	0.511043
H131	H	0.394612	0.854167	0.151185
H132	H	0.752527	1.112049	0.306163
Br133	Br	0.386171	1.144068	0.474622
H134	H	0.891421	0.330713	0.674687
H135	H	0.314420	1.524881	-0.305871
H136	H	0.845121	0.898410	0.694313
H137	H	0.221880	1.485611	0.106917
Br138	Br	0.328239	1.253215	-0.525443
Br139	Br	0.328265	1.144089	-0.525385
H140	H	0.221865	1.699334	-0.480304
Br141	Br	0.738672	0.757367	-0.138574
Br142	Br	0.207972	1.479912	-0.752094
H143	H	0.752529	0.485623	0.306170
Br144	Br	0.738702	0.479711	0.139016
Br145	Br	0.207982	1.757410	-0.138707
Br146	Br	0.328246	1.530793	-0.138721
H147	H	-0.074726	0.854138	0.151297
H148	H	0.111599	0.770890	0.234563
Br149	Br	0.858927	1.144035	0.474717
H150	H	0.845106	0.311171	0.480601
Br151	Br	0.147864	1.005327	-0.726665
H152	H	0.533462	0.592495	-0.150940
H153	H	0.314402	0.898453	-0.305902
Br154	Br	0.738712	0.866407	0.525740
H155	H	0.646858	0.898409	0.694232
H156	H	0.221864	1.112137	-0.693991
H157	H	0.845145	0.524747	0.694315
Br158	Br	0.738708	0.757289	0.525741
Br159	Br	-0.157143	0.808941	0.196530
H160	H	0.845089	0.524893	-0.106582
Br161	Br	0.386172	1.144056	0.247979
Br162	Br	0.312225	0.808958	0.196454
H163	H	0.221835	0.898476	-0.480403
Br164	Br	0.919105	0.278620	0.000261
Br165	Br	0.858986	0.253094	0.139039
Br166	Br	0.919088	1.005255	0.726882
H167	H	0.204138	0.770895	0.234545
Br168	Br	0.680791	0.866416	0.525689
Br169	Br	-0.245263	1.201552	-0.196126
Br170	Br	-0.365496	1.201522	-0.196119
Br171	Br	-0.175013	1.284853	-0.279421
H172	H	-0.044625	1.239644	-0.234210
H173	H	0.175560	1.679791	-0.674388
Br174	Br	0.328285	1.253137	0.138886
H175	H	0.141679	1.156345	-0.151001
Br176	Br	0.533492	0.618541	0.196445
Br177	Br	0.224096	1.201553	-0.196228
Br178	Br	0.533475	0.391927	0.196421
H179	H	0.533461	0.418052	-0.150936
Br180	Br	0.147876	1.731884	0.000096
