data_functionalizedCrystal
_audit_creation_method	'MofGen! by Chris Wilmer'
_symmetry_space_group_name_H-M	'P1'
_symmetry_Int_Tables_number	1
_symmetry_cell_setting	triclinic
loop_
_symmetry_equiv_pos_as_xyz
  x,y,z
_cell_length_a	16.625548
_cell_length_b	12.645330
_cell_length_c	12.645323
_cell_angle_alpha	90.028979
_cell_angle_beta	90.021582
_cell_angle_gamma	90.013714
loop_
_atom_site_label
_atom_site_type_symbol
_atom_site_fract_x
_atom_site_fract_y
_atom_site_fract_z
Zn1	Zn	1.232744	-0.421980	0.599425
Zn2	Zn	1.232668	-0.599274	0.422158
Zn3	Zn	1.097903	-0.422028	0.422170
Zn4	Zn	1.097899	-0.599205	0.599374
O5	O	1.165303	-0.510622	0.510782
O6	O	1.345566	-0.445507	0.575926
O7	O	1.214761	-0.575811	0.273812
O8	O	1.115823	-0.273675	0.445709
O9	O	1.345510	-0.575764	0.445689
O10	O	1.214890	-0.273639	0.575937
O11	O	1.115750	-0.445590	0.273821
O12	O	0.985070	-0.445523	0.445660
O13	O	1.115816	-0.575647	0.747728
O14	O	0.985067	-0.575694	0.575851
O15	O	1.214886	-0.445440	0.747765
O16	O	1.214757	-0.747612	0.445640
O17	O	1.115743	-0.747562	0.575840
C18	C	0.955812	-0.510607	0.510752
C19	C	0.866191	-0.510626	0.510764
C20	C	0.538016	-0.510633	0.510810
C21	C	0.629324	-0.510628	0.510794
C22	C	0.702101	-0.510630	0.510786
C23	C	0.793415	-0.510624	0.510772
C24	C	1.165263	-0.786052	0.510757
C25	C	1.165319	-0.903882	0.510781
C26	C	1.227509	-1.071433	0.428706
C27	C	1.227712	-0.948873	0.428907
C28	C	1.188364	-0.948259	0.622526
C29	C	1.188858	-1.070858	0.622091
C30	C	1.080060	-1.071212	0.482213
C31	C	1.080469	-0.948608	0.479707
C32	C	1.375612	-0.510638	0.510812
C33	C	1.465233	-0.510645	0.510825
C34	C	1.165359	-0.510530	0.787287
C35	C	1.165383	-0.510492	0.905117
C36	C	1.165366	-0.234117	0.510830
C37	C	1.165392	-0.116287	0.510851
C38	C	1.165294	-0.510637	0.235352
C39	C	1.165426	-0.510377	0.117522
C40	C	1.103062	-0.592388	0.949976
C41	C	1.102843	-0.592080	1.072536
C42	C	1.142657	-0.398594	1.073024
C43	C	1.142180	-0.399134	0.950425
C44	C	1.250639	-0.539377	0.950307
C45	C	1.250207	-0.541775	1.072913
H46	H	1.213271	-1.100989	0.345607
C47	C	1.316279	-0.467060	1.114263
H48	H	1.292919	-0.415505	1.159471
H49	H	1.355091	-0.506708	1.152556
H50	H	1.341580	-0.432848	1.056262
C51	C	1.058006	-0.366125	0.911782
H52	H	1.056974	-0.366159	0.836664
H53	H	1.019129	-0.414664	0.937732
H54	H	1.045991	-0.297173	0.937100
C55	C	1.129097	-0.908921	0.707425
H56	H	1.144135	-0.936702	0.774362
H57	H	1.130291	-0.833860	0.710048
H58	H	1.076290	-0.931960	0.690246
C59	C	1.313368	-0.458811	0.911116
H60	H	1.364760	-0.476673	0.938689
H61	H	1.315226	-0.460042	0.836045
H62	H	1.298818	-0.390006	0.934453
H63	H	1.250033	-0.917469	0.647188
C64	C	1.202106	-0.313857	1.112391
H65	H	1.241432	-0.345975	1.156425
H66	H	1.227781	-0.281670	1.053529
H67	H	1.173778	-0.261655	1.151530
C68	C	1.312434	-1.112928	0.454011
H69	H	1.310201	-1.157465	0.514421
H70	H	1.332271	-1.151964	0.395361
H71	H	1.347223	-1.054945	0.467885
C72	C	1.273119	-1.109378	0.654846
H73	H	1.306727	-1.050101	0.668288
H74	H	1.269027	-1.151173	0.717012
H75	H	1.295595	-1.150610	0.599427
H76	H	1.145597	-1.100524	0.685403
C77	C	1.018204	-0.566835	0.908368
H78	H	1.020590	-0.506471	0.863780
H79	H	0.998233	-0.625453	0.869361
H80	H	0.983440	-0.552793	0.966301
H81	H	1.059104	-1.102225	0.402148
C82	C	1.056987	-0.909435	0.368621
H83	H	1.098711	-0.865998	0.341288
H84	H	1.049166	-0.968399	0.323190
H85	H	1.008601	-0.869714	0.372861
H86	H	1.031691	-0.917993	0.535150
C87	C	1.122013	-0.704745	0.910146
H88	H	1.168099	-0.702720	0.865796
H89	H	1.132211	-0.749693	0.968803
H90	H	1.077420	-0.731133	0.871238
C91	C	1.017562	-1.110244	0.563138
H92	H	1.043299	-1.153817	0.614120
H93	H	0.993778	-1.051198	0.597479
H94	H	0.977068	-1.149775	0.527773
H95	H	1.081043	-0.373698	1.103727
C96	C	1.200836	-0.313847	0.910330
H97	H	1.224847	-0.279018	0.968972
H98	H	1.241514	-0.346082	0.868584
H99	H	1.172319	-0.263801	0.868714
H100	H	1.271405	-0.619541	0.919388
H101	H	1.117058	-0.674958	1.102623
H102	H	1.290914	-0.919463	0.447849
H103	H	1.039682	-0.572901	1.101863
C104	C	1.273424	-0.652899	1.112216
H105	H	1.324766	-0.671441	1.084965
H106	H	1.275250	-0.653091	1.187300
H107	H	1.234582	-0.702724	1.088620
C108	C	1.208244	-0.908340	0.316975
H109	H	1.200143	-0.966802	0.270969
H110	H	1.160824	-0.866505	0.319128
H111	H	1.251773	-0.866722	0.291760
