data_functionalizedCrystal
_audit_creation_method	'MofGen! by Chris Wilmer'
_symmetry_space_group_name_H-M	'P1'
_symmetry_Int_Tables_number	1
_symmetry_cell_setting	triclinic
loop_
_symmetry_equiv_pos_as_xyz
  x,y,z
_cell_length_a	10.654553
_cell_length_b	10.967829
_cell_length_c	9.130313
_cell_angle_alpha	77.870844
_cell_angle_beta	89.999282
_cell_angle_gamma	84.600525
loop_
_atom_site_label
_atom_site_type_symbol
_atom_site_fract_x
_atom_site_fract_y
_atom_site_fract_z
O1	O	1.667805	0.175288	-0.166055
O2	O	1.302325	0.191983	-0.170267
O3	O	1.493496	0.002060	-0.122326
O4	O	1.476635	0.365211	-0.213996
O5	O	1.493493	0.002065	0.121272
O6	O	1.302323	0.191988	0.073330
O7	O	1.667803	0.175293	0.077543
Cu8	Cu	1.485063	0.183641	0.097679
Cu9	Cu	1.485065	0.183635	-0.190403
O10	O	1.476632	0.365216	0.029601
C11	C	1.255526	0.190759	-0.048159
C12	C	1.116083	0.187089	-0.047232
C13	C	0.919543	0.181912	0.086850
C14	C	1.050563	0.185367	0.085986
C15	C	1.050575	0.185369	-0.179599
C16	C	0.919557	0.181922	-0.178736
C17	C	0.919537	0.181905	0.240185
C18	C	1.050558	0.185361	0.239322
C19	C	1.492267	-0.044437	0.011208
C20	C	1.488596	-0.182992	0.046174
C21	C	1.486961	-0.244761	-0.064429
C22	C	1.483167	-0.387965	-0.028292
C23	C	1.714602	0.176517	-0.044569
C24	C	1.854044	0.180187	-0.045505
C25	C	1.477861	0.411714	-0.103936
C26	C	1.481532	0.550269	-0.138912
N27	N	1.485070	0.183645	0.300301
N28	N	1.485068	0.183622	-0.393023
C29	C	1.569742	0.099576	0.398174
C30	C	1.569739	0.099561	0.551514
C31	C	1.400387	0.267695	0.509092
C32	C	1.400385	0.267703	0.355756
C33	C	1.667520	0.002508	0.422666
C34	C	1.667516	0.002493	0.576007
H35	H	0.889977	0.090892	0.310732
H36	H	1.646091	-0.093410	0.405259
F37	F	1.488824	-0.175318	-0.223169
H38	H	1.481750	-0.441095	0.093160
F39	F	1.486746	-0.252437	0.204914
H40	H	0.873240	0.268144	0.277292
H41	H	1.482926	-0.396600	-0.260365
F42	F	0.849850	0.180109	-0.319611
F43	F	1.120309	0.187214	-0.321384
H44	H	1.080108	0.276380	0.263926
F45	F	1.310253	0.357164	0.251596
H46	H	1.096854	0.099117	0.319958
H47	H	1.331438	0.336132	0.554262
F48	F	1.786690	0.042249	0.350464
H49	H	1.637017	-0.088149	0.646435
H50	H	1.764025	0.023876	0.612226
