data_functionalizedCrystal
_audit_creation_method	'MofGen! by Chris Wilmer'
_symmetry_space_group_name_H-M	'P1'
_symmetry_Int_Tables_number	1
_symmetry_cell_setting	triclinic
loop_
_symmetry_equiv_pos_as_xyz
  x,y,z
_cell_length_a	13.897449
_cell_length_b	13.897448
_cell_length_c	17.077396
_cell_angle_alpha	89.972632
_cell_angle_beta	89.978898
_cell_angle_gamma	90.018519
loop_
_atom_site_label
_atom_site_type_symbol
_atom_site_fract_x
_atom_site_fract_y
_atom_site_fract_z
Zn1	Zn	1.474681	-0.383994	-0.443882
Zn2	Zn	1.474581	-0.545306	-0.312619
Zn3	Zn	1.313376	-0.384029	-0.312627
Zn4	Zn	1.313352	-0.545251	-0.443839
O5	O	1.393998	-0.464645	-0.378242
O6	O	1.609649	-0.405400	-0.426485
O7	O	1.453166	-0.523951	-0.202773
O8	O	1.334826	-0.249043	-0.330059
O9	O	1.609576	-0.523916	-0.330046
O10	O	1.453335	-0.249017	-0.426492
O11	O	1.334729	-0.405461	-0.202779
O12	O	1.178392	-0.405407	-0.330017
O13	O	1.334784	-0.523821	-0.553692
O14	O	1.178373	-0.523856	-0.426418
O15	O	1.453311	-0.405347	-0.553724
O16	O	1.453142	-0.680280	-0.330004
O17	O	1.334687	-0.680240	-0.426411
C18	C	1.143383	-0.464630	-0.378214
C19	C	1.036169	-0.464647	-0.378221
C20	C	1.393927	-0.715259	-0.378219
C21	C	1.393985	-0.822473	-0.378235
C22	C	0.949100	-0.464650	-0.378234
C23	C	0.839867	-0.464657	-0.378258
C24	C	1.394087	-1.018768	-0.378285
C25	C	1.394028	-0.909536	-0.378260
C26	C	1.645590	-0.464660	-0.378270
C27	C	1.752804	-0.464667	-0.378281
C28	C	1.394056	-0.464574	-0.582986
C29	C	1.394081	-0.464544	-0.670236
C30	C	1.394094	-0.213052	-0.378282
C31	C	1.394136	-0.105838	-0.378299
C32	C	1.455800	-0.402849	-0.711244
C33	C	1.455812	-0.402816	-0.793224
C34	C	1.394108	-0.464485	-0.834195
C35	C	1.332382	-0.526183	-0.793182
C36	C	1.332366	-0.526209	-0.711203
C37	C	1.332420	-0.526125	-0.964052
C38	C	1.332437	-0.526100	-1.046036
C39	C	1.455867	-0.402732	-1.046074
C40	C	1.455851	-0.402758	-0.964095
C41	C	1.394125	-0.464458	-0.923086
C42	C	1.393995	-0.464646	-0.174294
C43	C	1.394157	-0.464405	-0.087044
H44	H	1.506050	-0.352634	-0.677891
H45	H	1.282138	-0.576391	-0.826547
O46	O	1.272542	-0.586127	-1.085756
C47	C	1.225674	-0.750184	-1.110864
C48	C	1.293551	-0.682315	-1.065816
H49	H	1.242649	-0.827967	-1.094771
H50	H	1.147883	-0.733314	-1.094726
H51	H	1.236284	-0.739509	-1.176494
H52	H	1.283027	-0.692952	-1.000175
H53	H	1.371317	-0.699202	-1.082018
O54	O	1.272393	-0.586243	-0.671486
C55	C	1.149953	-0.708587	-0.680096
C56	C	1.217837	-0.640659	-0.725170
H57	H	1.105812	-0.752585	-0.723480
H58	H	1.194177	-0.759099	-0.641741
H59	H	1.099563	-0.664306	-0.641688
H60	H	1.268241	-0.684862	-0.763621
H61	H	1.173553	-0.590145	-0.763476
H62	H	1.506073	-0.352580	-0.826610
H63	H	1.506124	-0.352493	-1.079466
O64	O	1.515821	-0.342766	-0.924415
C65	C	1.638288	-0.220438	-0.933099
C66	C	1.570407	-0.288317	-0.978132
H67	H	1.682453	-0.176414	-0.976509
H68	H	1.594059	-0.169949	-0.894740
H69	H	1.688655	-0.264759	-0.894697
H70	H	1.520027	-0.244074	-1.016576
H71	H	1.614696	-0.338810	-1.016441
H72	H	1.282142	-0.576352	-0.930665
