data_functionalizedCrystal
_audit_creation_method	'MofGen! by Chris Wilmer'
_symmetry_space_group_name_H-M	'P1'
_symmetry_Int_Tables_number	1
_symmetry_cell_setting	triclinic
loop_
_symmetry_equiv_pos_as_xyz
  x,y,z
_cell_length_a	27.440280
_cell_length_b	23.096457
_cell_length_c	23.096457
_cell_angle_alpha	60.003909
_cell_angle_beta	59.999318
_cell_angle_gamma	90.009022
loop_
_atom_site_label
_atom_site_type_symbol
_atom_site_fract_x
_atom_site_fract_y
_atom_site_fract_z
Zr1	Zr	0.469510	-0.075901	0.633671
O2	O	0.391687	-0.168359	0.754468
O3	O	0.493365	-0.047559	0.512881
O4	O	0.493359	-0.168346	0.633666
O5	O	0.391699	0.047708	0.633684
O6	O	0.573562	-0.168334	0.633655
O7	O	0.391692	-0.047572	0.633682
O8	O	0.573572	0.047732	0.417592
O9	O	0.391689	-0.168358	0.849747
O10	O	0.563395	-0.035461	0.562553
O11	O	0.503546	0.035637	0.562562
O12	O	0.503539	-0.106574	0.704772
O13	O	0.443689	-0.035476	0.704781
Zr14	Zr	0.597434	0.076079	0.633656
Zr15	Zr	0.597424	-0.075882	0.633653
Zr16	Zr	0.469520	0.076060	0.633674
Zr17	Zr	0.469513	-0.075899	0.785631
Zr18	Zr	0.597431	0.076077	0.481696
O19	O	0.573579	0.047737	0.754446
O20	O	0.573564	-0.168332	0.754443
O21	O	0.391702	0.047710	0.754472
O22	O	0.675257	0.168537	0.512859
O23	O	0.675242	-0.047532	0.512855
O24	O	0.493380	0.168510	0.512884
O25	O	0.675245	-0.047530	0.633643
O26	O	0.573585	0.168524	0.633661
O27	O	0.493382	0.168512	0.633672
O28	O	0.675251	0.047750	0.633645
O29	O	0.493363	-0.168343	0.849733
O30	O	0.573580	0.168521	0.417594
O31	O	0.675255	0.168536	0.417580
O32	O	0.675247	0.047747	0.417578
O33	O	0.391697	-0.047569	0.849749
O34	O	0.493372	-0.047554	0.849735
O35	O	0.563405	0.106753	0.562555
O36	O	0.623254	0.035655	0.562546
O37	O	0.563398	-0.035459	0.704765
O38	O	0.503549	0.035639	0.704774
C39	C	0.373471	0.000065	0.633686
C40	C	0.319168	0.000057	0.633693
C41	C	0.533468	0.000086	0.443585
C42	C	0.533467	0.000085	0.379075
C43	C	0.533485	0.190169	0.633667
C44	C	0.533490	0.254681	0.633668
C45	C	0.013714	0.037229	0.559413
C46	C	-0.037304	0.037235	0.559409
O47	O	-0.037120	0.068827	0.496273
N48	N	-0.094065	0.000114	0.633645
C49	C	-0.099807	-0.037010	0.707890
O50	O	-0.152772	-0.068583	0.771033
C51	C	-0.048789	-0.037011	0.707894
C52	C	0.007971	0.000106	0.633653
C53	C	0.070472	0.074344	0.485178
C54	C	0.121487	0.074337	0.485183
C55	C	0.115744	0.037214	0.559423
C56	C	0.058986	0.000099	0.633658
C57	C	-0.054532	-0.074131	0.782138
C58	C	-0.003508	-0.074129	0.782135
C59	C	0.053253	-0.037011	0.707895
C60	C	0.104258	-0.037032	0.707902
N61	N	0.161019	0.000090	0.633666
C62	C	0.166762	0.037212	0.559427
C63	C	-0.206946	-0.037002	0.707877
C64	C	-0.257963	-0.037005	0.707874
C65	C	-0.195456	0.037241	0.559392
C66	C	-0.144438	0.037240	0.559396
C67	C	-0.150185	0.000119	0.633641
C68	C	0.273894	0.037193	0.559442
C69	C	0.324911	0.037180	0.559454
C70	C	0.262400	-0.037063	0.707935
C71	C	0.211388	-0.037053	0.707924
C72	C	0.217139	0.000080	0.633671
O73	O	0.104119	-0.068604	0.771005
O74	O	0.219728	0.068788	0.496294
C75	C	0.693473	0.000113	0.633641
C76	C	0.747776	0.000121	0.633634
C77	C	0.533459	-0.189991	0.633660
C78	C	0.533454	-0.254503	0.633659
C79	C	0.502248	0.247866	0.707902
C80	C	0.502239	0.308482	0.707903
C81	C	0.533483	0.375912	0.633666
C82	C	0.564727	0.382724	0.559422
C83	C	0.564730	0.322109	0.559423
N84	N	0.584326	0.498722	0.578403
N85	N	0.584322	0.556301	0.578407
C86	C	0.533475	0.558544	0.633659
N87	N	0.482633	0.501026	0.688918
N88	N	0.482638	0.443440	0.688916
C89	C	0.533483	0.441643	0.633657
C90	C	0.502221	0.617453	0.707899
C91	C	0.502210	0.678071	0.707898
C92	C	0.564704	0.752313	0.559413
C93	C	0.564709	0.691695	0.559418
C94	C	0.533468	0.624268	0.633663
C95	C	0.489294	-0.052408	-0.028951
C96	C	0.489289	-0.052408	0.031668
C97	C	0.533476	0.000089	0.009485
C98	C	0.577663	0.052599	-0.073326
C99	C	0.577664	0.052601	-0.133942
N100	N	0.585874	0.015989	0.065580
N101	N	0.585872	0.015983	0.123166
C102	C	0.533477	0.000086	0.192115
N103	N	0.481082	-0.015817	0.201310
N104	N	0.481085	-0.015814	0.143720
C105	C	0.533481	0.000092	0.075207
C106	C	0.489285	-0.052418	0.340645
C107	C	0.489279	-0.052412	0.401263
C108	C	0.577658	0.052592	0.296266
C109	C	0.577659	0.052589	0.235651
C110	C	0.533473	0.000081	0.257845
C111	C	0.533476	0.000092	0.823742
C112	C	0.533477	0.000093	0.888252
C113	C	0.693469	0.000110	0.443563
C114	C	0.747771	0.000117	0.379045
C115	C	0.533481	0.190167	0.443589
C116	C	0.533484	0.254677	0.379079
C117	C	0.693482	0.190190	0.443566
C118	C	0.747788	0.254709	0.379049
C119	C	0.373462	-0.190012	0.823761
C120	C	0.319156	-0.254531	0.888278
C121	C	0.373475	0.000068	0.823764
C122	C	0.319173	0.000061	0.888282
C123	C	0.533463	-0.189988	0.823738
C124	C	0.533460	-0.254499	0.888248
C125	C	0.742025	-0.037008	0.348750
C126	C	0.793042	-0.037015	0.288137
C127	C	0.849804	0.000107	0.257815
C128	C	0.855549	0.037232	0.288116
C129	C	0.804532	0.037235	0.348732
C130	C	0.564732	0.322100	0.348781
C131	C	0.564732	0.382720	0.288176
C132	C	0.533489	0.375916	0.257866
C133	C	0.502237	0.308486	0.288170
C134	C	0.502234	0.247867	0.348778
C135	C	0.804537	0.247895	0.348746
C136	C	0.855568	0.308512	0.288134
C137	C	0.849849	0.375941	0.257821
C138	C	0.793094	0.382753	0.288130
C139	C	0.742065	0.322138	0.348746
C140	C	0.262407	-0.247717	0.918588
C141	C	0.211375	-0.308333	0.979219
C142	C	0.217094	-0.375763	1.009535
C143	C	0.273849	-0.382575	0.979222
C144	C	0.324879	-0.321959	0.918596
C145	C	0.324919	0.037179	0.918583
C146	C	0.273901	0.037170	0.979213
C147	C	0.217139	0.000046	1.009537
C148	C	0.211395	-0.037076	0.979234
C149	C	0.262412	-0.037071	0.918609
C150	C	0.564709	-0.247672	0.918539
C151	C	0.564718	-0.308281	0.979145
C152	C	0.533473	-0.375715	1.009462
C153	C	0.502223	-0.382541	0.979165
C154	C	0.502218	-0.321933	0.918557
H155	H	0.371128	0.067408	0.498995
H156	H	-0.211633	-0.067234	0.768339
O157	O	0.468510	-0.329306	0.885892
H158	H	0.473755	-0.275837	0.838647
H159	H	0.695859	0.327695	0.373411
H160	H	0.695811	-0.067245	0.373437
H161	H	0.590174	0.327653	0.373453
H162	H	0.788447	0.437662	0.263441
H163	H	0.165168	-0.302773	1.003890
O164	O	0.904891	0.441318	0.192434
H165	H	0.945311	0.425244	0.176452
O166	O	0.625327	0.109213	-0.097252
H167	H	0.604083	0.139467	-0.072132
O168	O	0.441636	-0.109044	0.120981
H169	H	0.416153	-0.083817	0.151123
H170	H	0.165173	-0.067302	1.003933
H171	H	0.175538	-0.425114	1.058900
H172	H	0.476765	0.672516	0.768351
O173	O	0.256231	-0.174993	0.885901
H174	H	0.208193	-0.180450	0.917180
H175	H	0.257725	-0.067295	0.893939
O176	O	0.598451	0.455443	0.255483
H177	H	0.620186	0.449984	0.286732
H178	H	0.533497	0.425282	0.208514
H179	H	0.613644	0.095356	-0.201363
O180	O	0.280015	-0.455303	1.011920
H181	H	0.258258	-0.484690	1.000286
H182	H	0.371085	-0.327516	0.893918
H183	H	0.590152	0.697248	0.498968
O184	O	0.441624	-0.109040	0.364572
H185	H	0.410893	-0.145541	0.432334
H186	H	0.901771	0.067455	0.263419
O187	O	0.533479	-0.441080	1.074839
H188	H	0.506506	-0.489123	1.090834
H189	H	-0.098225	0.067470	0.498942
H190	H	0.371132	0.067415	0.893898
H191	H	0.901776	0.302952	0.263462
H192	H	0.453298	-0.095166	0.468683
H193	H	0.278590	0.067403	1.003876
O194	O	0.625322	0.109213	0.272327
H195	H	0.617903	0.100389	0.328387
O196	O	0.468545	-0.455279	1.011849
H197	H	0.446822	-0.449852	0.980596
H198	H	0.590165	-0.302709	1.003806
O199	O	0.468560	0.301163	0.255446
H200	H	0.434035	0.327009	0.267066
O201	O	0.162115	0.000066	1.074903
H202	H	0.175653	0.032129	1.090861
O203	O	0.598419	-0.174942	0.885836
H204	H	0.620155	-0.180389	0.917080
H205	H	0.278586	0.067432	0.498979
H206	H	0.590140	0.807215	0.498968
H207	H	0.891341	0.000099	0.208456
H208	H	0.075159	0.104578	0.424720
O209	O	0.182705	0.114376	0.405110
H210	H	0.178118	0.140192	0.353493
H211	H	0.809218	0.067471	0.373390
H212	H	-0.190788	0.067466	0.498942
O213	O	0.468625	0.175147	0.381341
H214	H	0.446941	0.180607	0.350032
H215	H	-0.304176	-0.067239	0.768328
O216	O	0.810713	0.175171	0.381444
H217	H	0.858751	0.180629	0.350190
H218	H	0.476780	0.562550	0.768354
H219	H	-0.100741	-0.104355	0.842593
H220	H	-0.008193	-0.104348	0.842596
H221	H	0.165170	-0.067287	0.768377
H222	H	0.257734	-0.067290	0.768379
H223	H	0.476808	0.192968	0.768359
H224	H	0.476795	0.302933	0.768356
H225	H	0.590171	0.327663	0.498970
O226	O	0.598460	0.455448	0.479348
H227	H	0.593226	0.496454	0.491818
O228	O	0.441634	-0.109034	-0.005017
H229	H	0.410907	-0.145538	0.062745
H230	H	0.613640	0.095339	0.168232
H231	H	0.788354	-0.067247	0.263473
