data_functionalizedCrystal
_audit_creation_method	'MofGen! by Chris Wilmer'
_symmetry_space_group_name_H-M	'P1'
_symmetry_Int_Tables_number	1
_symmetry_cell_setting	triclinic
loop_
_symmetry_equiv_pos_as_xyz
  x,y,z
_cell_length_a	21.606444
_cell_length_b	14.560438
_cell_length_c	14.560438
_cell_angle_alpha	90.001334
_cell_angle_beta	59.999118
_cell_angle_gamma	60.001853
loop_
_atom_site_label
_atom_site_type_symbol
_atom_site_fract_x
_atom_site_fract_y
_atom_site_fract_z
Zr1	Zr	0.677440	0.884799	-0.120522
O2	O	0.806560	0.738155	-0.267173
O3	O	0.548321	0.929749	-0.075565
O4	O	0.677441	0.929751	-0.267170
O5	O	0.677438	0.738156	0.075573
O6	O	0.677440	1.080891	-0.267168
O7	O	0.677440	0.738152	-0.075568
O8	O	0.446468	1.080887	0.075579
O9	O	0.908410	0.738160	-0.267174
O10	O	0.601428	1.061719	-0.056390
O11	O	0.601428	0.948928	0.056403
O12	O	0.753450	0.948931	-0.169188
O13	O	0.753449	0.836139	-0.056394
Zr14	Zr	0.677436	1.125856	0.120533
Zr15	Zr	0.677438	1.125850	-0.120519
Zr16	Zr	0.677437	0.884805	0.120530
Zr17	Zr	0.839879	0.884808	-0.120523
Zr18	Zr	0.514996	1.125847	0.120534
O19	O	0.806554	1.080907	0.075576
O20	O	0.806558	1.080898	-0.267169
O21	O	0.806556	0.738163	0.075572
O22	O	0.548315	1.272501	0.267184
O23	O	0.548319	1.272492	-0.075561
O24	O	0.548317	0.929757	0.267181
O25	O	0.677437	1.272500	-0.075562
O26	O	0.677434	1.080905	0.267181
O27	O	0.677435	0.929764	0.267180
O28	O	0.677435	1.272503	0.075579
O29	O	0.908409	0.929764	-0.267172
O30	O	0.446466	1.080892	0.267183
O31	O	0.446465	1.272495	0.267185
O32	O	0.446467	1.272491	0.075581
O33	O	0.908408	0.738165	-0.075569
O34	O	0.908407	0.929769	-0.075567
O35	O	0.601426	1.061725	0.169199
O36	O	0.601426	1.174516	0.056406
O37	O	0.753448	1.061728	-0.056392
O38	O	0.753447	0.948936	0.056402
C39	C	0.474251	1.005316	0.000007
C40	C	0.405291	1.005313	0.000008
C41	C	0.677440	0.703809	0.000002
C42	C	0.677440	0.601477	0.000001
C43	C	-0.018018	1.064220	-0.058871
C44	C	0.046783	1.064212	-0.058876
C45	C	0.079180	1.005333	0.000002
C46	C	0.046779	0.946448	0.058878
C47	C	-0.018016	0.946450	0.058876
C48	C	0.308090	0.946436	0.058889
C49	C	0.372887	0.946441	0.058890
C50	C	0.372889	1.064198	-0.058862
C51	C	0.308094	1.064200	-0.058865
C52	C	0.275702	1.005311	0.000006
C53	C	0.205439	1.005319	0.000009
C54	C	0.149437	1.005331	0.000006
C55	C	0.677443	0.553398	-0.083265
C56	C	0.677437	0.457251	-0.083259
C57	C	0.677430	0.457266	0.083285
C58	C	0.677429	0.553416	0.083283
C59	C	0.880625	1.005339	0.000004
C60	C	0.949584	1.005343	0.000004
C61	C	0.677441	1.005320	-0.301514
C62	C	0.677442	1.005318	-0.403847
C63	C	0.677436	1.306846	0.000009
C64	C	0.677435	1.409179	0.000010
C65	C	0.756794	0.946444	-0.510802
C66	C	0.756790	0.946457	-0.606951
C67	C	0.598075	1.064219	-0.489175
C68	C	0.598080	1.064211	-0.393029
C69	C	0.677434	1.005335	0.301525
C70	C	0.677433	1.005338	0.403858
C71	C	0.474249	1.306835	0.000011
C72	C	0.405288	1.409164	0.000012
C73	C	0.474247	1.005324	0.301527
C74	C	0.405286	1.005323	0.403860
C75	C	0.474245	1.306842	0.301530
C76	C	0.405284	1.409174	0.403865
C77	C	0.880630	0.703813	-0.301519
C78	C	0.949592	0.601482	-0.403853
C79	C	0.880627	0.703821	0.000001
C80	C	0.949587	0.601492	-0.000001
C81	C	0.880628	1.005331	-0.301515
C82	C	0.949589	1.005333	-0.403849
C83	C	0.372905	1.398339	-0.058875
C84	C	0.308118	1.494479	-0.058896
C85	C	0.275712	1.601441	-0.000022
C86	C	0.308102	1.612263	0.058867
C87	C	0.372892	1.516125	0.058881
C88	C	0.372901	1.064201	0.510806
C89	C	0.308113	1.064196	0.606968
C90	C	0.275709	1.005318	0.596183
C91	C	0.308101	0.946432	0.489226
C92	C	0.372891	0.946432	0.393066
C93	C	0.372899	1.516116	0.393045
C94	C	0.308111	1.612276	0.489190
C95	C	0.275705	1.601492	0.596154
C96	C	0.308096	1.494539	0.606971
C97	C	0.372887	1.398381	0.510827
C98	C	0.981984	0.494540	-0.393034
C99	C	1.046792	0.398380	-0.489179
C100	C	1.079202	0.409164	-0.596142
C101	C	1.046806	0.516117	-0.606960
C102	C	0.982004	0.612275	-0.510816
C103	C	0.981977	0.612316	0.058877
C104	C	1.046782	0.516177	0.058871
C105	C	1.079191	0.409214	-0.000006
C106	C	1.046798	0.398392	-0.058891
C107	C	0.981999	0.494530	-0.058891
C108	C	0.981973	1.064222	-0.393027
C109	C	1.046760	1.064245	-0.489171
C110	C	1.079167	1.005372	-0.596136
C111	C	1.046777	0.946481	-0.606955
C112	C	0.981986	0.946465	-0.510812
H113	H	-0.044395	1.112172	-0.106810
H114	H	0.281702	1.485775	0.694074
Cl115	Cl	1.087535	0.872461	-0.741433
H116	H	1.073157	0.311303	-0.480349
Cl117	Cl	0.413586	1.263943	0.524449
H118	H	1.073145	0.525010	0.106826
H119	H	0.955630	0.699349	-0.519639
H120	H	0.955600	0.485738	-0.305947
H121	H	1.073203	0.524884	-0.694061
Cl122	Cl	1.160667	0.288267	-0.717000
Cl123	Cl	0.087513	1.138227	-0.132900
H124	H	0.399277	1.112147	0.519609
Cl125	Cl	1.160651	0.288364	0.000008
Cl126	Cl	0.941291	0.872412	-0.524436
H127	H	0.677422	0.418124	0.151090
Cl128	Cl	1.160623	1.005399	-0.716992
Cl129	Cl	0.677452	0.613817	-0.187958
H130	H	1.073126	1.112200	-0.480340
Cl131	Cl	0.087509	0.872423	0.132892
Cl132	Cl	0.194251	1.722389	0.717011
Cl133	Cl	0.413618	1.138225	-0.132880
H134	H	-0.044392	0.898504	0.106815
H135	H	0.222953	1.005327	0.674491
Cl136	Cl	0.267373	1.138219	-0.132889
H137	H	0.399265	0.898488	0.106834
H138	H	0.281722	0.898489	0.106829
Cl139	Cl	0.941253	0.746772	0.132897
H140	H	0.222955	1.679714	-0.000042
Cl141	Cl	0.856552	0.872444	-0.741408
H142	H	0.281708	0.898495	0.480461
Cl143	Cl	0.267402	1.138234	0.741413
H144	H	0.677438	0.418109	-0.151061
H145	H	0.677424	0.592567	0.151094
Cl146	Cl	0.856564	0.872417	-0.524404
Cl147	Cl	0.413592	0.872413	0.258624
Cl148	Cl	0.498311	1.138243	-0.475587
Cl149	Cl	1.087546	0.263916	-0.132898
Cl150	Cl	0.941281	0.480903	-0.132908
Cl151	Cl	0.267400	1.746717	0.475565
Cl152	Cl	0.498314	1.138227	-0.258560
Cl153	Cl	0.413634	1.263883	-0.132903
Cl154	Cl	0.267409	1.480848	-0.132929
Cl155	Cl	0.413630	1.529702	0.258588
Cl156	Cl	0.267349	1.746740	0.132881
H157	H	0.955597	1.112164	-0.305940
H158	H	0.399250	1.524954	0.106841
