data_functionalizedCrystal
_audit_creation_method	'MofGen! by Chris Wilmer'
_symmetry_space_group_name_H-M	'P1'
_symmetry_Int_Tables_number	1
_symmetry_cell_setting	triclinic
loop_
_symmetry_equiv_pos_as_xyz
  x,y,z
_cell_length_a	15.944551
_cell_length_b	10.654550
_cell_length_c	9.730223
_cell_angle_alpha	89.995747
_cell_angle_beta	90.001200
_cell_angle_gamma	83.991834
loop_
_atom_site_label
_atom_site_type_symbol
_atom_site_fract_x
_atom_site_fract_y
_atom_site_fract_z
O1	O	1.115460	0.161966	-0.114146
O2	O	0.871026	0.181935	-0.114180
O3	O	0.998863	-0.010862	-0.114154
O4	O	0.987623	0.354762	-0.114173
O5	O	0.998855	-0.010867	0.114426
O6	O	0.871018	0.181929	0.114400
O7	O	1.115452	0.161961	0.114434
Zn8	Zn	0.993234	0.171944	0.150709
Zn9	Zn	0.993244	0.171951	-0.150455
O10	O	0.987615	0.354757	0.114407
C11	C	0.839723	0.181103	0.000105
C12	C	0.746463	0.178618	0.000093
C13	C	0.998034	-0.057652	0.000135
C14	C	0.995565	-0.197063	0.000133
C15	C	1.070833	-0.277522	0.000143
C16	C	1.068508	-0.408513	0.000126
C17	C	0.915639	-0.378572	0.000095
C18	C	0.917965	-0.247584	0.000102
C19	C	0.530880	0.053173	0.000126
C20	C	0.470201	0.111428	-0.112579
C21	C	0.575711	0.174122	0.000109
C22	C	0.470215	0.111451	0.112783
C23	C	0.410773	0.169770	0.000131
C24	C	0.516260	0.232410	-0.112689
C25	C	0.516281	0.232416	0.112774
C26	C	0.455620	0.290759	0.000042
C27	C	0.670728	0.176625	0.000095
C28	C	0.315757	0.167276	0.000135
C29	C	1.146755	0.162792	0.000145
C30	C	1.240015	0.165278	0.000149
C31	C	0.988444	0.401547	0.000115
C32	C	0.990913	0.540958	0.000109
N33	N	0.993232	0.171939	0.356245
N34	N	0.993252	0.171947	-0.355992
C35	C	1.049858	0.086604	0.428183
C36	C	1.049866	0.086605	0.572066
C37	C	0.936621	0.257285	0.572061
C38	C	0.936609	0.257278	0.428180
H39	H	1.134019	-0.236393	0.000165
H40	H	0.536547	0.283530	-0.208076
H41	H	0.890493	0.326768	0.369605
H42	H	1.129799	-0.474019	0.000131
O43	O	0.840191	-0.427443	0.000012
C44	C	0.688812	-0.383918	0.000062
C45	C	0.774200	-0.328410	0.000121
H46	H	0.635436	-0.303877	0.000179
H47	H	0.683850	-0.444441	-0.095624
H48	H	0.683941	-0.444547	0.095697
H49	H	0.779129	-0.267724	-0.095449
H50	H	0.779126	-0.267960	0.095870
H51	H	0.856669	-0.182070	0.000090
H52	H	1.095975	0.017116	0.630634
O53	O	0.416614	0.410545	0.000027
C54	C	0.284395	0.542734	0.000974
C55	C	0.328463	0.407017	0.001034
H56	H	0.213118	0.539927	0.001759
H57	H	0.304097	0.594710	0.096162
H58	H	0.303354	0.594046	-0.095153
H59	H	0.309526	0.355599	0.097096
H60	H	0.308760	0.355136	-0.094218
H61	H	0.890520	0.326768	0.630645
H62	H	0.449798	0.060274	-0.207858
O63	O	0.569897	-0.066608	-0.000244
C64	C	0.590770	-0.265660	-0.119448
C65	C	0.546541	-0.130040	-0.119205
H66	H	0.571890	-0.316993	-0.215603
H67	H	0.662036	-0.262715	-0.118559
H68	H	0.571082	-0.317704	-0.024293
H69	H	0.566161	-0.077918	-0.214344
H70	H	0.475284	-0.133076	-0.120023
H71	H	0.536705	0.283528	0.208058
H72	H	0.449830	0.060271	0.208063
H73	H	1.095963	0.017115	0.369617
