data_functionalizedCrystal
_audit_creation_method	'MofGen! by Chris Wilmer'
_symmetry_space_group_name_H-M	'P1'
_symmetry_Int_Tables_number	1
_symmetry_cell_setting	triclinic
loop_
_symmetry_equiv_pos_as_xyz
  x,y,z
_cell_length_a	15.297475
_cell_length_b	29.839131
_cell_length_c	15.298259
_cell_angle_alpha	99.719893
_cell_angle_beta	91.629109
_cell_angle_gamma	80.343089
loop_
_atom_site_label
_atom_site_type_symbol
_atom_site_fract_x
_atom_site_fract_y
_atom_site_fract_z
Zn1	Zn	1.253365	-0.224385	0.726610
Zn2	Zn	1.278551	-0.314322	0.580088
Zn3	Zn	1.132216	-0.228754	0.554833
Zn4	Zn	1.106810	-0.289027	0.701235
O5	O	1.192735	-0.264122	0.640691
O6	O	1.379282	-0.245072	0.728363
O7	O	1.280311	-0.315386	0.454148
O8	O	1.148379	-0.165311	0.577670
O9	O	1.397785	-0.311149	0.620713
O10	O	1.237387	-0.162101	0.703874
O11	O	1.172800	-0.252519	0.435593
O12	O	1.006270	-0.227992	0.553065
O13	O	1.105079	-0.268037	0.827191
O14	O	0.987605	-0.272274	0.660625
O15	O	1.212752	-0.220545	0.845834
O16	O	1.255677	-0.373830	0.596107
O17	O	1.129500	-0.355246	0.685114
C18	C	0.965155	-0.247862	0.601351
C19	C	0.867791	-0.240915	0.584542
C20	C	1.192585	-0.380838	0.640621
C21	C	1.192595	-0.430772	0.640634
C22	C	0.554625	-0.313777	0.760831
C23	C	0.646103	-0.320308	0.776621
C24	C	0.701530	-0.300460	0.728603
C25	C	0.665469	-0.274081	0.664791
C26	C	0.573982	-0.267552	0.648994
C27	C	0.720887	-0.254236	0.616767
C28	C	0.684826	-0.227856	0.552955
C29	C	0.593348	-0.221329	0.537162
C30	C	0.537922	-0.241176	0.585179
C31	C	0.812374	-0.260764	0.632564
C32	C	0.831731	-0.214539	0.520728
C33	C	0.740253	-0.208009	0.504937
C34	C	1.258524	-0.750085	0.594445
C35	C	1.258626	-0.937763	0.594498
O36	O	1.314560	-0.970244	0.555172
N37	N	1.192906	-0.951570	0.640789
C38	C	1.127159	-0.918455	0.687075
O39	O	1.071267	-0.934505	0.726457
C40	C	1.127061	-0.730778	0.687027
C41	C	1.192780	-0.716974	0.640725
C42	C	1.324238	-0.736280	0.548149
C43	C	1.324209	-0.689364	0.548132
C44	C	1.258466	-0.656252	0.594412
C45	C	1.192751	-0.670057	0.640709
C46	C	1.061318	-0.697663	0.733317
C47	C	1.061301	-0.650742	0.733303
C48	C	1.127020	-0.636938	0.687002
C49	C	1.126979	-0.590029	0.686972
N50	N	1.192699	-0.576222	0.640681
C51	C	1.258442	-0.609333	0.594401
C52	C	1.127214	-1.016988	0.687095
C53	C	1.127237	-1.063907	0.687106
C54	C	1.258705	-1.083212	0.594531
C55	C	1.258678	-1.036292	0.594515
C56	C	1.192934	-1.003181	0.640804
C57	C	1.258376	-0.510805	0.594369
C58	C	1.258339	-0.463883	0.594354
C59	C	1.126874	-0.444582	0.686933
C60	C	1.126908	-0.491500	0.686945
C61	C	1.192666	-0.524611	0.640661
O62	O	1.071079	-0.557523	0.726286
O63	O	1.314336	-0.593273	0.555041
C64	C	1.258553	-0.797002	0.594462
C65	C	1.192838	-0.810807	0.640759
C66	C	1.127095	-0.777696	0.687039
C67	C	1.192861	-0.857726	0.640770
C68	C	1.258605	-0.890837	0.594490
C69	C	1.324325	-0.877030	0.548199
C70	C	1.324296	-0.830113	0.548182
C71	C	1.061375	-0.791503	0.733330
C72	C	1.061408	-0.838420	0.733342
C73	C	1.127152	-0.871532	0.687062
C74	C	1.421205	-0.280445	0.680186
C75	C	1.518565	-0.287401	0.697016
C76	C	1.153272	-0.240982	0.869188
C77	C	1.136455	-0.231121	0.966559
C78	C	1.192907	-0.146950	0.640786
C79	C	1.192981	-0.097019	0.640826
C80	C	1.232096	-0.287143	0.413093
C81	C	1.249082	-0.296889	0.315752
C82	C	1.312957	-0.334255	1.279667
C83	C	1.328753	-0.343522	1.188181
C84	C	1.280680	-0.315422	1.132771
C85	C	1.216808	-0.278054	1.168856
C86	C	1.201006	-0.268788	1.260350
C87	C	1.168729	-0.249956	1.113454
C88	C	1.104857	-0.212588	1.149539
C89	C	1.089058	-0.203323	1.241025
C90	C	1.137131	-0.231423	1.296435
C91	C	1.184531	-0.259222	1.021960
C92	C	1.072580	-0.193756	1.002643
C93	C	1.056784	-0.184488	1.094129
H94	H	0.841725	-0.282242	0.684520
C95	C	1.330088	-1.119234	0.544447
C96	C	1.316069	-1.163274	0.554423
C97	C	1.381838	-1.196469	0.508349
H98	H	1.327615	-1.116701	0.483328
H99	H	1.386689	-1.114414	0.567559
H100	H	1.259482	-1.168093	0.531307
H101	H	1.318551	-1.165823	0.615531
H102	H	1.438439	-1.191650	0.531461
H103	H	1.379359	-1.193932	0.447232
H104	H	1.372340	-1.226354	0.515118
H105	H	1.380749	-0.373951	1.158806
C106	C	1.020228	-0.163285	0.942515
C107	C	0.929705	-0.164630	0.949760
C108	C	0.881455	-0.136574	0.894369
H109	H	1.030392	-0.132478	0.959690
H110	H	1.038730	-0.174154	0.882841
H111	H	0.911210	-0.153758	1.009421
H112	H	0.919514	-0.195429	0.932578
H113	H	0.899957	-0.147443	0.834696
H114	H	0.891626	-0.105769	0.911550
H115	H	0.820031	-0.137486	0.899272
C116	C	0.701260	-0.179338	0.435646
C117	C	0.769368	-0.163342	0.396985
C118	C	0.733480	-0.136924	0.333160
H119	H	0.672157	-0.197773	0.391173
H120	H	0.659825	-0.153825	0.463058
H121	H	0.810788	-0.188851	0.369573
H122	H	0.798477	-0.144900	0.441436
H123	H	0.692045	-0.111411	0.360572
H124	H	0.704378	-0.155363	0.288693
H125	H	0.779685	-0.126065	0.306927
C126	C	0.989969	-0.853435	0.783453
C127	C	0.942431	-0.881425	0.724127
C128	C	0.876616	-0.895258	0.770261
H129	H	1.016758	-0.870260	0.827444
H130	H	0.950766	-0.827004	0.810989
H131	H	0.981628	-0.907851	0.696605
H132	H	0.915622	-0.864609	0.680135
H133	H	0.837413	-0.868827	0.797798
H134	H	0.903413	-0.912081	0.814251
H135	H	0.844349	-0.914247	0.730014
H136	H	1.293544	-0.322971	1.058280
C137	C	0.800822	-0.307581	0.745909
C138	C	0.820537	-0.334920	0.812086
C139	C	0.911996	-0.341484	0.828066
H140	H	0.831368	-0.322524	0.692990
H141	H	0.818940	-0.278542	0.764796
H142	H	0.802428	-0.363954	0.793197
H143	H	0.790013	-0.319985	0.865018
H144	H	0.930115	-0.312445	0.846952
H145	H	0.942535	-0.356426	0.775143
H146	H	0.925384	-0.360030	0.872974
C147	C	0.892040	-0.193007	0.468712
C148	C	0.979870	-0.204358	0.496221
C149	C	1.035455	-0.184529	0.448334
H150	H	0.887312	-0.204409	0.407218
H151	H	0.874902	-0.160448	0.479076
H152	H	0.997003	-0.236910	0.485850
H153	H	0.984626	-0.192956	0.557707
H154	H	1.018317	-0.151971	0.458698
H155	H	1.030719	-0.195933	0.386843
H156	H	1.095052	-0.192225	0.466998
H157	H	1.311856	-0.452647	0.556646
C158	C	1.329816	-0.546680	0.544024
C159	C	1.387338	-0.524540	0.503461
C160	C	1.453148	-0.557573	0.457061
H161	H	1.362275	-0.564301	0.584073
H162	H	1.302976	-0.566482	0.500000
H163	H	1.414177	-0.504745	0.547480
H164	H	1.354906	-0.506921	0.463398
H165	H	1.426308	-0.577375	0.413037
H166	H	1.485599	-0.575192	0.497116
H167	H	1.492180	-0.542555	0.429527
C168	C	0.685078	-0.348941	0.845968
C169	C	0.616959	-0.364915	0.884656
C170	C	0.652828	-0.391290	0.948554
H171	H	0.726521	-0.374464	0.818639
H172	H	0.714164	-0.330468	0.890410
H173	H	0.587887	-0.383388	0.840221
H174	H	0.575511	-0.339402	0.912003
H175	H	0.681914	-0.372817	0.992997
H176	H	0.694270	-0.416810	0.921218
H177	H	0.606614	-0.402128	0.974818
C178	C	1.395594	-0.674311	0.498021
C179	C	1.443095	-0.646306	0.557357
C180	C	1.508859	-0.632429	0.511227
H181	H	1.434837	-0.700711	0.470460
H182	H	1.368734	-0.657485	0.454046
H183	H	1.469954	-0.663132	0.601316
H184	H	1.403877	-0.619900	0.584921
H185	H	1.481999	-0.615603	0.467251
H186	H	1.548095	-0.658831	0.483667
H187	H	1.541091	-0.613423	0.551477
H188	H	0.509490	-0.329937	0.799915
C189	C	1.395671	-0.772157	0.497802
C190	C	1.453194	-0.750015	0.457244
C191	C	1.519001	-0.783047	0.410839
H192	H	1.428130	-0.789781	0.537847
H193	H	1.368829	-0.791957	0.453775
H194	H	1.480034	-0.730223	0.501267
H195	H	1.420761	-0.732393	0.417186
H196	H	1.492159	-0.802846	0.366811
H197	H	1.551453	-0.800669	0.450890
H198	H	1.558033	-0.768028	0.383308
C199	C	1.395851	-0.912927	0.498031
C200	C	1.479181	-0.905698	0.532150
C201	C	1.545096	-0.938752	0.485959
H202	H	1.386590	-0.942869	0.504635
H203	H	1.393306	-0.910303	0.436943
H204	H	1.481723	-0.908326	0.593223
H205	H	1.488470	-0.875762	0.525545
H206	H	1.542551	-0.936129	0.424871
H207	H	1.535827	-0.968692	0.492567
H208	H	1.601643	-0.933850	0.509097
H209	H	1.073715	-1.075142	0.724800
C210	C	0.554193	-0.192789	0.467729
C211	C	0.511388	-0.220143	0.402406
C212	C	0.475331	-0.193876	0.338411
H213	H	0.512673	-0.167286	0.495004
H214	H	0.600298	-0.181923	0.441341
H215	H	0.465289	-0.231001	0.428791
H216	H	0.552889	-0.245645	0.375107
H217	H	0.521436	-0.183011	0.312023
H218	H	0.433815	-0.168375	0.365694
H219	H	0.446291	-0.212433	0.294077
H220	H	1.037041	-0.172899	1.270400
C221	C	1.365043	-0.364833	1.339757
C222	C	1.349725	-0.410168	1.314182
C223	C	1.397685	-0.438351	1.369523
H224	H	1.426522	-0.364042	1.334990
H225	H	1.346473	-0.353993	1.399419
H226	H	1.368299	-0.421005	1.254535
H227	H	1.288256	-0.410973	1.318954
H228	H	1.379115	-0.427511	1.429185
H229	H	1.459161	-0.437557	1.364752
H230	H	1.387292	-0.469113	1.352184
C231	C	0.989884	-0.755628	0.783589
C232	C	0.932330	-0.777769	0.824108
C233	C	0.866447	-0.744738	0.870402
H234	H	1.016629	-0.735802	0.827633
H235	H	0.957477	-0.738033	0.743456
H236	H	0.964733	-0.795356	0.864238
H237	H	0.905563	-0.797593	0.780085
H238	H	0.834039	-0.727142	0.830268
H239	H	0.893199	-0.724913	0.914441
H240	H	0.827383	-0.759756	0.897892
C241	C	1.253806	-0.299847	0.982891
C242	C	1.230831	-0.340675	1.001834
C243	C	1.294637	-0.378110	0.965869
H244	H	1.256392	-0.301410	0.920464
H245	H	1.310092	-0.295986	1.008086
H246	H	1.174561	-0.344535	0.976635
H247	H	1.228252	-0.339128	1.064254
H248	H	1.350922	-0.374249	0.991064
H249	H	1.297218	-0.379667	0.903444
H250	H	1.279061	-0.405815	0.978724
H251	H	0.463432	-0.235859	0.572328
C252	C	0.987440	-0.143956	1.133476
C253	C	0.983881	-0.141865	1.225453
C254	C	0.920004	-0.104537	1.261728
H255	H	1.002818	-0.116174	1.120820
H256	H	0.931137	-0.147841	1.108354
H257	H	1.040171	-0.137977	1.250567
H258	H	0.968492	-0.169639	1.238134
H259	H	0.863700	-0.108422	1.236605
H260	H	0.935388	-0.076757	1.249066
H261	H	0.917574	-0.103116	1.324136
H262	H	1.312192	-1.025056	0.556813
H263	H	1.073675	-0.990031	0.724790
H264	H	1.007799	-0.708894	0.771016
C265	C	0.989819	-0.614864	0.783581
C266	C	0.932267	-0.637001	0.824112
C267	C	0.866402	-0.603966	0.870426
H268	H	1.016581	-0.595042	0.827619
H269	H	0.957406	-0.597264	0.743458
H270	H	0.964675	-0.654593	0.864232
H271	H	0.905484	-0.656819	0.780094
H272	H	0.833989	-0.586366	0.830302
H273	H	0.893172	-0.584146	0.914459
H274	H	0.827341	-0.618981	0.897924
C275	C	1.055505	-0.506397	0.737301
C276	C	0.997935	-0.467354	0.777843
C277	C	0.932162	-0.481056	0.824258
H278	H	1.023075	-0.525390	0.697264
H279	H	1.082373	-0.523177	0.781338
H280	H	0.971069	-0.450582	0.733811
H281	H	1.030339	-0.448357	0.817894
H282	H	0.959030	-0.497836	0.868295
H283	H	0.899739	-0.500049	0.784215
H284	H	0.893098	-0.454567	0.851778
H285	H	1.073344	-0.417616	0.724610
H286	H	1.377811	-0.818878	0.510479
H287	H	1.124276	-0.223879	1.370931
