data_functionalizedCrystal
_audit_creation_method	'MofGen! by Chris Wilmer'
_symmetry_space_group_name_H-M	'P1'
_symmetry_Int_Tables_number	1
_symmetry_cell_setting	triclinic
loop_
_symmetry_equiv_pos_as_xyz
  x,y,z
_cell_length_a	23.532355
_cell_length_b	23.532407
_cell_length_c	12.996460
_cell_angle_alpha	89.985369
_cell_angle_beta	90.000230
_cell_angle_gamma	82.838123
loop_
_atom_site_label
_atom_site_type_symbol
_atom_site_fract_x
_atom_site_fract_y
_atom_site_fract_z
O1	O	0.755279	0.068995	-0.085446
O2	O	0.589412	0.079029	-0.085481
O3	O	0.677347	-0.008920	-0.085433
O4	O	0.667344	0.156945	-0.085493
O5	O	0.677338	-0.008925	0.085700
O6	O	0.589403	0.079024	0.085653
O7	O	0.755270	0.068990	0.085688
Cu8	Cu	0.672336	0.074007	0.101296
Cu9	Cu	0.672347	0.074013	-0.101089
O10	O	0.667335	0.156940	0.085641
C11	C	0.568191	0.078776	0.000082
C12	C	0.504972	0.078022	0.000070
C13	C	0.112953	0.073281	0.093399
C14	C	0.053554	0.072564	0.093404
O15	O	0.022831	0.072171	0.172738
N16	N	0.023850	0.072211	0.000119
C17	C	0.053550	0.072569	-0.093176
O18	O	0.022831	0.072202	-0.172521
C19	C	0.112949	0.073283	-0.093179
C20	C	0.142649	0.073641	0.000112
C21	C	0.142653	0.073640	0.186683
C22	C	0.202048	0.074358	0.186678
C23	C	0.231744	0.074718	0.093390
C24	C	0.202044	0.074360	0.000107
C25	C	0.142648	0.073637	-0.186473
C26	C	0.202051	0.074350	-0.186468
C27	C	0.231751	0.074709	-0.093177
C28	C	0.291134	0.075439	-0.093185
N29	N	0.320838	0.075792	0.000099
C30	C	0.291143	0.075432	0.093387
C31	C	-0.071191	0.071070	-0.093162
C32	C	-0.130590	0.070361	-0.093160
C33	C	-0.130582	0.070354	0.093420
C34	C	-0.071183	0.071068	0.093417
C35	C	-0.041488	0.071423	0.000123
C36	C	0.415877	0.076941	0.093370
C37	C	0.475277	0.077662	0.093357
C38	C	0.475264	0.077665	-0.093222
C39	C	0.415869	0.076947	-0.093210
C40	C	0.386177	0.076583	0.000095
O41	O	0.321895	0.075829	-0.172479
O42	O	0.321870	0.075791	0.172719
C43	C	0.677088	-0.030139	0.000139
C44	C	0.676322	-0.093356	0.000154
C45	C	0.621125	-0.359513	0.000078
C46	C	0.621837	-0.300113	0.000086
O47	O	0.578050	-0.263360	0.000044
N48	N	0.674114	-0.277496	0.000109
C49	C	0.725684	-0.314283	0.000114
O50	O	0.770216	-0.289592	0.000133
C51	C	0.724972	-0.373682	0.000098
C52	C	0.672691	-0.396295	0.000086
C53	C	0.568849	-0.382126	0.000064
C54	C	0.568137	-0.441522	0.000058
C55	C	0.619703	-0.478305	0.000066
C56	C	0.671980	-0.455691	0.000080
C57	C	0.776541	-0.410468	0.000095
C58	C	0.775824	-0.469871	0.000079
C59	C	0.723543	-0.492484	0.000067
C60	C	0.722834	-0.551870	0.000081
N61	N	0.670556	-0.574486	0.000058
C62	C	0.618991	-0.537704	0.000050
C63	C	0.727175	-0.189541	0.000144
C64	C	0.727888	-0.130143	0.000167
C65	C	0.624041	-0.115977	0.000138
C66	C	0.623329	-0.175376	0.000122
C67	C	0.674898	-0.212158	0.000121
C68	C	0.617501	-0.662440	0.000038
C69	C	0.616795	-0.721842	0.000037
C70	C	0.720642	-0.736004	0.000060
C71	C	0.721349	-0.676607	0.000068
C72	C	0.669774	-0.639826	0.000053
O73	O	0.766598	-0.588657	0.000119
O74	O	0.574467	-0.562403	0.000018
C75	C	0.776492	0.069244	0.000123
C76	C	0.839710	0.069998	0.000128
C77	C	0.667594	0.178158	0.000066
C78	C	0.668360	0.241375	0.000044
N79	N	0.672332	0.074003	0.243643
N80	N	0.672354	0.074012	-0.243436
C81	C	0.672346	0.074013	0.663458
C82	C	0.672340	0.074012	0.546653
C83	C	0.672339	0.074008	0.453554
C84	C	0.672333	0.074006	0.336742
H85	H	0.391708	0.076650	0.169348
C86	C	0.234712	0.074746	-0.289094
H87	H	0.208512	0.074434	-0.344647
H88	H	0.262420	0.041811	-0.292966
H89	H	0.253344	0.108247	-0.292989
H90	H	0.762625	-0.765962	0.000072
C91	C	0.109997	0.073248	0.289308
H92	H	0.136199	0.073568	0.344854
H93	H	0.091356	0.039756	0.293219
H94	H	0.082295	0.106192	0.293176
H95	H	0.118477	0.073344	-0.262440
C96	C	0.834049	-0.385604	0.000109
H97	H	0.827097	-0.344960	0.000124
H98	H	0.855267	-0.398243	-0.059567
H99	H	0.855262	-0.398266	0.059797
H100	H	0.769172	-0.219487	0.000151
C101	C	-0.038516	0.071448	0.196035
H102	H	-0.064714	0.071126	0.251589
H103	H	-0.019872	0.104938	0.199916
H104	H	-0.010817	0.038502	0.199917
H105	H	0.817819	-0.499816	0.000073
H106	H	-0.154770	0.070060	0.169380
C107	C	0.507944	0.078049	0.195981
H108	H	0.481749	0.077725	0.251538
H109	H	0.526582	0.111543	0.199856
H110	H	0.535649	0.045107	0.199865
C111	C	0.785395	-0.105273	0.000198
H112	H	0.778440	-0.064628	0.000211
H113	H	0.806618	-0.117910	-0.059472
H114	H	0.806604	-0.117931	0.059891
H115	H	0.226225	0.074647	0.262645
C116	C	-0.163254	0.069973	-0.195779
H117	H	-0.137056	0.070287	-0.251333
H118	H	-0.190961	0.102909	-0.199674
H119	H	-0.181888	0.036473	-0.199648
C120	C	-0.038533	0.071473	-0.195792
H121	H	-0.064736	0.071166	-0.251342
H122	H	-0.010827	0.038538	-0.199673
H123	H	-0.019900	0.104973	-0.199683
H124	H	0.582053	-0.086017	0.000132
H125	H	0.391685	0.076664	-0.169174
H126	H	0.499452	0.077961	-0.169174
C127	C	0.559283	-0.746713	0.000014
H128	H	0.528676	-0.716296	-0.000001
H129	H	0.556839	-0.769601	0.059687
H130	H	0.556852	-0.769578	-0.059677
C131	C	0.560770	-0.621990	0.000030
H132	H	0.529538	-0.643972	0.000031
H133	H	0.558885	-0.598511	-0.059643
H134	H	0.558885	-0.598537	0.059721
H135	H	0.525565	-0.459928	0.000039
C136	C	0.512121	-0.341674	0.000064
H137	H	0.480890	-0.363658	0.000062
H138	H	0.510234	-0.318191	-0.059604
H139	H	0.510236	-0.318224	0.059760
H140	H	0.580757	-0.193783	0.000116
H141	H	0.763920	-0.658195	0.000093
