data_functionalizedCrystal
_audit_creation_method	'MofGen! by Chris Wilmer'
_symmetry_space_group_name_H-M	'P1'
_symmetry_Int_Tables_number	1
_symmetry_cell_setting	triclinic
loop_
_symmetry_equiv_pos_as_xyz
  x,y,z
_cell_length_a	17.077404
_cell_length_b	25.639234
_cell_length_c	17.077402
_cell_angle_alpha	90.021263
_cell_angle_beta	90.021402
_cell_angle_gamma	90.020687
loop_
_atom_site_label
_atom_site_type_symbol
_atom_site_fract_x
_atom_site_fract_y
_atom_site_fract_z
Zn1	Zn	-1.200054	-0.295635	0.312617
Zn2	Zn	-1.199956	-0.208205	0.443878
Zn3	Zn	-1.068784	-0.208212	0.312624
Zn4	Zn	-1.068751	-0.295608	0.443838
O5	O	-1.134386	-0.251915	0.378239
O6	O	-1.309888	-0.284045	0.330043
O7	O	-1.182528	-0.135040	0.426486
O8	O	-1.086252	-0.219823	0.202776
O9	O	-1.309816	-0.219811	0.426480
O10	O	-1.182696	-0.284052	0.202771
O11	O	-1.086157	-0.135046	0.330054
O12	O	-0.958933	-0.219797	0.330015
O13	O	-1.086196	-0.368776	0.426412
O14	O	-0.958908	-0.284006	0.426418
O15	O	-1.182664	-0.368796	0.330005
O16	O	-1.182496	-0.219784	0.553720
O17	O	-1.086100	-0.283999	0.553691
C18	C	-0.930438	-0.251900	0.378214
C19	C	-0.843189	-0.251906	0.378222
C20	C	-0.802237	-0.285403	0.328096
C21	C	-0.720256	-0.285404	0.328100
C22	C	-0.679229	-0.251910	0.378234
C23	C	-0.720187	-0.218409	0.428362
C24	C	-0.802166	-0.218406	0.428354
C25	C	-0.549317	-0.218420	0.428377
C26	C	-0.467332	-0.218424	0.428387
C27	C	-0.467407	-0.285418	0.328123
C28	C	-0.549386	-0.285415	0.328115
C29	C	-0.590338	-0.251914	0.378244
C30	C	-1.134305	-0.251899	0.582187
C31	C	-1.134343	-0.251910	0.669437
C32	C	-0.339130	-0.251926	0.378261
C33	C	-0.426380	-0.251921	0.378261
C34	C	-1.134437	-0.388288	0.378204
C35	C	-1.134459	-0.446402	0.378188
C36	C	-1.084300	-0.806773	0.327883
C37	C	-1.084305	-0.861378	0.327868
O38	O	-1.041618	-0.889621	0.285183
N39	N	-1.134485	-0.888684	0.378065
C40	C	-1.184659	-0.861384	0.428285
O41	O	-1.227341	-0.889625	0.470981
C42	C	-1.184650	-0.806781	0.428303
C43	C	-1.134472	-0.779477	0.378097
C44	C	-1.034126	-0.779469	0.277682
C45	C	-1.034123	-0.724869	0.277695
C46	C	-1.084294	-0.697572	0.327909
C47	C	-1.134469	-0.724876	0.378110
C48	C	-1.234819	-0.779481	0.478526
C49	C	-1.234806	-0.724874	0.478540
C50	C	-1.184628	-0.697570	0.428334
C51	C	-1.184638	-0.642979	0.428338
N52	N	-1.134457	-0.615672	0.378141
C53	C	-1.084286	-0.642969	0.327927
C54	C	-1.184673	-0.976055	0.428245
C55	C	-1.184686	-1.030657	0.428224
C56	C	-1.084330	-1.030647	0.327808
C57	C	-1.084322	-0.976044	0.327826
C58	C	-1.134492	-0.948748	0.378048
C59	C	-1.084284	-0.528304	0.327958
C60	C	-1.084287	-0.473698	0.327974
C61	C	-1.184640	-0.473713	0.428392
C62	C	-1.184639	-0.528314	0.428374
C63	C	-1.134455	-0.555608	0.378155
O64	O	-1.227300	-0.614701	0.471004
O65	O	-1.041603	-0.614722	0.285246
C66	C	-1.134381	-0.116072	0.378218
C67	C	-1.134511	-0.057958	0.378012
C68	C	-1.184586	-0.218511	0.710416
C69	C	-1.184622	-0.218526	0.792397
C70	C	-1.134411	-0.251939	0.833396
C71	C	-1.084165	-0.285343	0.792411
C72	C	-1.084133	-0.285329	0.710432
C73	C	-1.084233	-0.285367	0.963281
C74	C	-1.084264	-0.285380	1.045266
C75	C	-1.184723	-0.218564	1.045246
C76	C	-1.184691	-0.218551	0.963267
C77	C	-1.134444	-0.251954	0.922287
C78	C	-1.134483	-0.251948	1.173495
C79	C	-1.134507	-0.251980	1.086245
H80	H	-0.582789	-0.312691	0.287296
F81	F	-0.980712	-0.695817	0.224262
F82	F	-1.288204	-0.695828	0.531997
F83	F	-0.980713	-0.808512	0.224240
H84	H	-0.835507	-0.191129	0.469171
F85	F	-0.845894	-0.321055	0.274739
F86	F	-1.030659	-0.320879	0.666820
H87	H	-0.433930	-0.191150	0.469211
F88	F	-1.238101	-0.182979	0.836006
H89	H	-0.434061	-0.312694	0.287304
F90	F	-0.592899	-0.182767	0.481734
H91	H	-1.225638	-0.191368	1.078615
H92	H	-1.043392	-0.312597	1.078646
F93	F	-0.676676	-0.321058	0.274750
H94	H	-1.225471	-0.191300	0.677040
F95	F	-1.030915	-0.946990	0.274392
F96	F	-1.238131	-0.182989	0.919633
H97	H	-1.043285	-0.312550	0.825800
H98	H	-0.686776	-0.191135	0.469178
F99	F	-1.030880	-0.444642	0.274534
H100	H	-1.043419	-0.550520	0.287064
H101	H	-1.043477	-1.052882	0.286921
F102	F	-1.030756	-0.320920	0.919670
H103	H	-1.225555	-1.052883	0.469098
H104	H	-1.225537	-0.953834	0.469138
H105	H	-1.275679	-0.801703	0.519410
H106	H	-1.225507	-0.550546	0.469247
H107	H	-1.225490	-0.451479	0.469273
