data_functionalizedCrystal
_audit_creation_method	'MofGen! by Chris Wilmer'
_symmetry_space_group_name_H-M	'P1'
_symmetry_Int_Tables_number	1
_symmetry_cell_setting	triclinic
loop_
_symmetry_equiv_pos_as_xyz
  x,y,z
_cell_length_a	19.288840
_cell_length_b	7.088929
_cell_length_c	8.597299
_cell_angle_alpha	76.027625
_cell_angle_beta	95.764802
_cell_angle_gamma	83.825782
loop_
_atom_site_label
_atom_site_type_symbol
_atom_site_fract_x
_atom_site_fract_y
_atom_site_fract_z
O1	O	0.914357	0.194780	-0.215414
O2	O	0.712118	0.199143	-0.242309
O3	O	0.818904	0.158680	0.003532
O4	O	0.807571	0.235243	-0.461255
O5	O	0.833175	-0.164715	0.036460
O6	O	0.726389	-0.124252	-0.209381
O7	O	0.928628	-0.128615	-0.182486
Cu8	Cu	0.828812	-0.155962	-0.192927
Cu9	Cu	0.811935	0.226490	-0.231868
O10	O	0.821842	-0.088152	-0.428327
C11	C	0.693376	0.037295	-0.224985
C12	C	0.616271	0.036845	-0.222404
N13	N	0.840687	-0.424958	-0.165536
C14	C	0.572287	0.212928	-0.239115
C15	C	0.499837	0.212550	-0.236677
C16	C	0.471376	0.036073	-0.217494
C17	C	0.515370	-0.140032	-0.200790
C18	C	0.587817	-0.139646	-0.203245
C19	C	0.367933	-0.114992	-0.106364
C20	C	0.295487	-0.115372	-0.103901
C21	C	0.247925	0.034877	-0.209930
C22	C	0.272817	0.185535	-0.318406
C23	C	0.345264	0.185921	-0.320861
C24	C	0.392820	0.035635	-0.214832
C25	C	0.125382	0.210563	-0.224001
C26	C	0.052931	0.210179	-0.221572
C27	C	0.068465	-0.142411	-0.185669
C28	C	0.140914	-0.142020	-0.188115
C29	C	0.169368	0.034472	-0.207273
C30	C	0.947370	0.033237	-0.199810
C31	C	1.024475	0.033700	-0.202392
C32	C	0.825618	-0.012809	0.079458
C33	C	0.824353	-0.041985	0.256637
N34	N	0.800065	0.495484	-0.259246
C35	C	0.815128	0.083342	0.495747
C36	C	0.816395	0.112533	0.318567
H37	H	0.595450	0.356641	-0.254716
C38	C	0.808502	0.321427	0.207080
N39	N	0.802560	0.478769	0.123098
C40	C	0.897571	-0.556860	-0.034342
N41	N	0.940414	-0.656210	0.064474
C42	C	0.156682	0.404709	-0.245104
N43	N	0.180255	0.550943	-0.261006
H44	H	0.830192	-0.196617	0.339171
C45	C	0.451447	0.406261	-0.255050
N46	N	0.415001	0.552164	-0.268884
C47	C	0.372642	0.351568	-0.440258
N48	N	0.393262	0.476309	-0.530219
H49	H	0.234092	0.307877	-0.404751
C50	C	0.037162	-0.336539	-0.164571
N51	N	0.013582	-0.482760	-0.148682
H52	H	0.017118	0.353575	-0.235191
H53	H	0.275226	-0.238039	-0.015566
C54	C	0.189300	-0.335732	-0.169708
N55	N	0.225744	-0.481645	-0.155845
H56	H	0.757964	-0.406886	-0.356356
H57	H	0.492192	-0.283720	-0.185176
C58	C	0.420246	-0.280285	0.010289
N59	N	0.459647	-0.404778	0.098150
H60	H	0.623629	-0.283039	-0.189638
