data_functionalizedCrystal
_audit_creation_method	'MofGen! by Chris Wilmer'
_symmetry_space_group_name_H-M	'P1'
_symmetry_Int_Tables_number	1
_symmetry_cell_setting	triclinic
loop_
_symmetry_equiv_pos_as_xyz
  x,y,z
_cell_length_a	29.839131
_cell_length_b	13.032831
_cell_length_c	13.032328
_cell_angle_alpha	89.112777
_cell_angle_beta	97.139458
_cell_angle_gamma	97.154634
loop_
_atom_site_label
_atom_site_type_symbol
_atom_site_fract_x
_atom_site_fract_y
_atom_site_fract_z
Zn1	Zn	-0.303370	-1.498197	-0.780721
Zn2	Zn	-0.370302	-1.519879	-0.608719
Zn3	Zn	-0.284606	-1.348074	-0.586970
Zn4	Zn	-0.367872	-1.326128	-0.758844
O5	O	-0.331537	-1.423070	-0.683813
O6	O	-0.321119	-1.644985	-0.776162
O7	O	-0.352098	-1.515347	-0.461920
O8	O	-0.224237	-1.368098	-0.612726
O9	O	-0.370293	-1.660915	-0.649793
O10	O	-0.238023	-1.478393	-0.755074
O11	O	-0.289138	-1.389122	-0.445942
O12	O	-0.286781	-1.201250	-0.591512
O13	O	-0.366151	-1.330695	-0.905659
O14	O	-0.347956	-1.185127	-0.717787
O15	O	-0.318762	-1.457113	-0.921732
O16	O	-0.432838	-1.494068	-0.628579
O17	O	-0.431052	-1.351720	-0.738875
C18	C	-0.448246	-1.422890	-0.683739
C19	C	-0.498182	-1.422903	-0.683753
C20	C	-0.344279	-1.389038	-0.952054
C21	C	-0.349708	-1.374536	-1.066362
C22	C	-0.315069	-1.155874	-0.649916
C23	C	-0.308036	-1.041563	-0.635439
C24	C	-0.808767	-1.497297	-0.626493
C25	C	-0.996449	-1.497419	-0.626549
O26	O	-1.021504	-1.560529	-0.577807
N27	N	-1.018996	-1.423273	-0.683918
C28	C	-0.994620	-1.349095	-0.741282
O29	O	-1.018105	-1.286038	-0.790087
C30	C	-0.806939	-1.348979	-0.741231
C31	C	-0.784393	-1.423123	-0.683851
C32	C	-0.786222	-1.571437	-0.569118
C33	C	-0.739303	-1.571402	-0.569101
C34	C	-0.714930	-1.497228	-0.626458
C35	C	-0.737475	-1.423089	-0.683833
C36	C	-0.782564	-1.274806	-0.798600
C37	C	-0.735641	-1.274785	-0.798585
C38	C	-0.713096	-1.348930	-0.741204
C39	C	-0.666184	-1.348880	-0.741172
N40	N	-0.643637	-1.423026	-0.683803
C41	C	-0.668010	-1.497200	-0.626446
C42	C	-1.093155	-1.349160	-0.741303
C43	C	-1.140075	-1.349188	-0.741314
C44	C	-1.141902	-1.497514	-0.626583
C45	C	-1.094980	-1.497481	-0.626567
C46	C	-1.070608	-1.423306	-0.683934
C47	C	-0.569478	-1.497121	-0.626412
C48	C	-0.522555	-1.497077	-0.626396
C49	C	-0.520733	-1.348756	-0.741131
C50	C	-0.567652	-1.348796	-0.741144
C51	C	-0.592023	-1.422987	-0.683782
O52	O	-0.641102	-1.285810	-0.789898
O53	O	-0.644519	-1.560262	-0.577667
C54	C	-0.855685	-1.497332	-0.626511
C55	C	-0.878230	-1.423193	-0.683886
C56	C	-0.853857	-1.349019	-0.741243
C57	C	-0.925150	-1.423220	-0.683898
C58	C	-0.949523	-1.497395	-0.626541
C59	C	-0.926976	-1.571541	-0.569172
C60	C	-0.880058	-1.571506	-0.569154
C61	C	-0.876404	-1.274872	-0.798612
C62	C	-0.923322	-1.274912	-0.798624
C63	C	-0.947695	-1.349086	-0.741267
C64	C	-0.214376	-1.423275	-0.683914
C65	C	-0.164448	-1.423362	-0.683957
C66	C	-0.348070	-1.691309	-0.717844
C67	C	-0.355115	-1.805616	-0.732346
C68	C	-0.335208	-0.982662	-0.691369
C69	C	-0.327940	-0.864516	-0.676408
C70	C	-0.334297	-1.415645	-1.243423
C71	C	-0.328681	-1.430628	-1.125279
C72	C	-0.318817	-1.457028	-0.416624
C73	C	-0.313273	-1.471730	-0.302341
H74	H	-0.589316	-1.557537	-0.579705
H75	H	-0.291113	-1.530834	-1.265317
H76	H	-0.383759	-0.842649	-0.791316
H77	H	-0.279391	-1.004523	-0.576483
O78	O	-0.500729	-1.569208	-0.570635
C79	C	-0.532306	-1.634666	-0.519998
H80	H	-0.567961	-1.632869	-0.562589
H81	H	-0.523189	-1.717078	-0.519368
H82	H	-0.531300	-1.606986	-0.437094
H83	H	-0.306520	-1.489737	-1.088259
O84	O	-0.950687	-1.643709	-0.513633
C85	C	-0.984660	-1.702634	-0.580697
H86	H	-0.974732	-1.698596	-0.662487
H87	H	-0.988274	-1.786531	-0.553645
H88	H	-1.018446	-1.670428	-0.580190
O89	O	-0.809917	-1.643640	-0.513596
C90	C	-0.843883	-1.702585	-0.580661
H91	H	-0.833965	-1.698494	-0.662460
H92	H	-0.847470	-1.786493	-0.553639
H93	H	-0.877679	-1.670436	-0.580115
O94	O	-0.717481	-1.643538	-0.513352
C95	C	-0.749061	-1.708991	-0.462722
H96	H	-0.784716	-1.707175	-0.505309
H97	H	-0.739952	-1.791408	-0.462104
H98	H	-0.748053	-1.681320	-0.379814
O99	O	-0.360729	-1.345200	-1.287752
C100	C	-0.360445	-1.345908	-1.395843
H101	H	-0.351313	-1.423466	-1.420493
H102	H	-0.395590	-1.333721	-1.435826
H103	H	-0.334202	-1.281112	-1.418616
H104	H	-0.371862	-1.315412	-1.103379
O105	O	-0.369337	-1.026776	-0.761853
C106	C	-0.362869	-0.987607	-0.861102
H107	H	-0.325432	-0.957375	-0.862729
H108	H	-0.373502	-1.051865	-0.920783
H109	H	-0.384441	-0.921909	-0.880052
H110	H	-1.161754	-1.557909	-0.579881
O111	O	-1.073156	-1.569608	-0.570811
C112	C	-1.104733	-1.635056	-0.520168
H113	H	-1.140389	-1.633252	-0.562754
H114	H	-1.095621	-1.717471	-0.519536
H115	H	-1.103724	-1.607371	-0.437264
O116	O	-1.161905	-1.277111	-0.797138
C117	C	-1.130323	-1.211629	-0.847737
H118	H	-1.099625	-1.253279	-0.856659
H119	H	-1.147037	-1.190321	-0.927362
H120	H	-1.118771	-1.138337	-0.800107
H121	H	-1.073315	-1.288756	-0.788020
O122	O	-0.293803	-0.820181	-0.606064
C123	C	-0.294143	-0.712088	-0.606790
H124	H	-0.329535	-0.693228	-0.638506
H125	H	-0.284894	-0.680950	-0.524623
H126	H	-0.268275	-0.674679	-0.657825
H127	H	-0.800911	-1.214425	-0.845320
H128	H	-0.500881	-1.288361	-0.787828
O129	O	-0.712032	-1.202631	-0.854337
C130	C	-0.741999	-1.137222	-0.905004
H131	H	-0.773234	-1.139061	-0.862435
H132	H	-0.724005	-1.054792	-0.905636
H133	H	-0.752989	-1.164921	-0.987907
O134	O	-0.852791	-1.202842	-0.854475
C135	C	-0.870471	-1.212245	-0.959840
H136	H	-0.907056	-1.251541	-0.967032
H137	H	-0.869723	-1.132141	-0.996463
H138	H	-0.848933	-1.260654	-1.001226
O139	O	-0.589549	-1.276862	-0.797037
C140	C	-0.584291	-1.286225	-0.902384
H141	H	-0.576660	-1.367700	-0.918055
H142	H	-0.617007	-1.270910	-0.952074
H143	H	-0.554954	-1.227638	-0.922211
O144	O	-0.858202	-1.643503	-0.513270
C145	C	-0.863439	-1.634107	-0.407915
H146	H	-0.894984	-1.594860	-0.400754
H147	H	-0.867413	-1.714210	-0.371286
H148	H	-0.832157	-1.585656	-0.366514
O149	O	-0.945280	-1.203019	-0.854438
C150	C	-0.979132	-1.253107	-0.928361
H151	H	-0.989218	-1.335666	-0.902038
H152	H	-1.010214	-1.209482	-0.936823
H153	H	-0.965339	-1.254674	-1.005994
