data_functionalizedCrystal
_audit_creation_method	'MofGen! by Chris Wilmer'
_symmetry_space_group_name_H-M	'P1'
_symmetry_Int_Tables_number	1
_symmetry_cell_setting	triclinic
loop_
_symmetry_equiv_pos_as_xyz
  x,y,z
_cell_length_a	14.853568
_cell_length_b	26.210047
_cell_length_c	14.853559
_cell_angle_alpha	89.993300
_cell_angle_beta	96.366679
_cell_angle_gamma	89.993757
loop_
_atom_site_label
_atom_site_type_symbol
_atom_site_fract_x
_atom_site_fract_y
_atom_site_fract_z
O1	O	-1.196368	0.042393	0.117694
O2	O	-0.933908	0.042401	0.131715
O3	O	-1.072153	0.042396	-0.006525
O4	O	-1.058124	0.042398	0.255935
O5	O	-1.072126	-0.042462	-0.006504
O6	O	-0.933882	-0.042457	0.131737
O7	O	-1.196341	-0.042465	0.117716
Cu8	Cu	-1.065109	-0.050209	0.124728
Cu9	Cu	-1.065141	0.050145	0.124703
O10	O	-1.058097	-0.042460	0.255957
C11	C	-0.900306	-0.000027	0.131091
C12	C	-0.800223	-0.000024	0.129187
C13	C	-0.387692	-0.000036	0.039020
C14	C	-0.366406	-0.000035	0.203253
C15	C	-0.460439	-0.000033	0.205043
C16	C	-0.518104	-0.000032	0.123821
C17	C	-0.481734	-0.000033	0.040808
C18	C	-0.496816	-0.000027	0.288055
C19	C	-0.590855	-0.000025	0.289849
C20	C	-0.648521	-0.000027	0.208625
C21	C	-0.612146	-0.000029	0.125608
C22	C	-0.669811	-0.000028	0.044386
C23	C	-0.633438	-0.000033	-0.038632
C24	C	-0.539401	-0.000036	-0.040416
C25	C	-0.742558	-0.000025	0.210409
C26	C	-0.763853	-0.000024	0.046174
N27	N	-1.065093	-0.120793	0.124746
C28	C	-1.126349	-0.473309	0.063504
C29	C	-1.126369	-0.686968	0.063491
O30	O	-1.178416	-0.714591	0.011425
N31	N	-1.065145	-0.713687	0.124683
C32	C	-1.003909	-0.686988	0.185878
O33	O	-0.951828	-0.714617	0.237919
C34	C	-1.003885	-0.473331	0.185886
C35	C	-1.065119	-0.446614	0.124696
C36	C	-1.187577	-0.446593	0.002318
C37	C	-1.187575	-0.393181	0.002325
C38	C	-1.126345	-0.366486	0.063518
C39	C	-1.065117	-0.393203	0.124703
C40	C	-0.942645	-0.446633	0.247076
C41	C	-0.942643	-0.393215	0.247071
C42	C	-1.003876	-0.366499	0.185881
C43	C	-1.003884	-0.313096	0.185903
N44	N	-1.065108	-0.286377	0.124711
C45	C	-1.126338	-0.313072	0.063518
C46	C	-1.003926	-0.799161	0.185871
C47	C	-1.003933	-0.852576	0.185871
C48	C	-1.126393	-0.852551	0.063482
C49	C	-1.126390	-0.799136	0.063488
C50	C	-1.065150	-0.772442	0.124680
C51	C	-1.126329	-0.200904	0.063538
C52	C	-1.126324	-0.147488	0.063553
C53	C	-1.003862	-0.147517	0.185938
C54	C	-1.003869	-0.200928	0.185927
C55	C	-1.065107	-0.227621	0.124719
O56	O	-0.951857	-0.285440	0.237935
O57	O	-1.178397	-0.285434	0.011472
C58	C	-1.126351	-0.526721	0.063497
C59	C	-1.065123	-0.553437	0.124682
C60	C	-1.003893	-0.526742	0.185875
C61	C	-1.065130	-0.606851	0.124682
C62	C	-1.126360	-0.633546	0.063489
C63	C	-1.187584	-0.606827	0.002297
C64	C	-1.187582	-0.553416	0.002304
C65	C	-0.942670	-0.553461	0.247066
C66	C	-0.942678	-0.606873	0.247055
C67	C	-1.003908	-0.633568	0.185863
C68	C	-0.229944	-0.000036	0.118340
C69	C	-0.330027	-0.000037	0.120242
C70	C	-1.071505	-0.000032	-0.040103
C71	C	-1.069605	-0.000029	-0.140188
N72	N	-1.065163	0.120729	0.124678
C73	C	-1.061555	0.046228	-0.563374
C74	C	-1.061526	-0.046288	-0.563346
C75	C	-1.063319	-0.046288	-0.469312
C76	C	-1.064229	-0.000030	-0.422306
C77	C	-1.063346	0.046229	-0.469332
C78	C	-1.064194	-0.092546	-0.422278
C79	C	-1.065986	-0.092548	-0.328238
C80	C	-1.066903	-0.046290	-0.281231
C81	C	-1.066020	-0.000029	-0.328263
C82	C	-1.066930	0.046229	-0.281256
C83	C	-1.066054	0.092490	-0.328288
C84	C	-1.064263	0.092488	-0.422324
C85	C	-1.068695	-0.046287	-0.187194
C86	C	-1.068721	0.046230	-0.187214
C87	C	-1.058744	-0.000031	0.289535
C88	C	-1.060645	-0.000030	0.389619
H89	H	-0.620461	-0.000020	0.357446
Cl90	Cl	-1.063029	-0.150695	-0.481372
H91	H	-0.509777	-0.000052	-0.108005
H92	H	-0.358073	-0.000042	-0.028571
H93	H	-0.892807	-0.531730	0.296896
Cl94	Cl	-1.063165	0.150639	-0.481455
H95	H	-1.237434	-0.371432	-0.047503
Cl96	Cl	-0.788281	-0.000014	0.314765
H97	H	-0.319450	-0.000031	0.269381
H98	H	-1.237438	-0.468323	-0.047516
Cl99	Cl	-1.203370	-0.765556	-0.013441
H100	H	-1.066789	0.130154	-0.290002
Cl101	Cl	-0.424321	-0.000020	0.390156
Cl102	Cl	-1.069872	0.104387	-0.128128
Cl103	Cl	-1.069794	-0.104439	-0.128073
Cl104	Cl	-0.705941	-0.000028	-0.140736
H105	H	-1.066703	-0.130217	-0.289954
Cl106	Cl	-1.203310	-0.113904	-0.013375
H107	H	-1.060846	0.083892	-0.601672
H108	H	-1.176250	-0.874295	0.013658
H109	H	-1.060779	-0.083949	-0.601623
H110	H	-0.810798	-0.000026	-0.019969
H111	H	-1.176193	-0.222631	0.013697
Cl112	Cl	-0.926935	-0.765609	0.262808
Cl113	Cl	-0.926963	-0.886156	0.262810
Cl114	Cl	-0.865660	-0.480208	0.324002
Cl115	Cl	-0.865649	-0.359661	0.324002
Cl116	Cl	-0.926897	-0.234513	0.262863
H117	H	-0.892815	-0.628622	0.296891
Cl118	Cl	-0.926890	-0.113949	0.262864
H119	H	-1.237444	-0.628571	-0.047525
Cl120	Cl	-1.264564	-0.519836	-0.074625
