data_functionalizedCrystal
_audit_creation_method	'MofGen! by Chris Wilmer'
_symmetry_space_group_name_H-M	'P1'
_symmetry_Int_Tables_number	1
_symmetry_cell_setting	triclinic
loop_
_symmetry_equiv_pos_as_xyz
  x,y,z
_cell_length_a	17.639762
_cell_length_b	17.640280
_cell_length_c	17.639477
_cell_angle_alpha	70.346041
_cell_angle_beta	114.277200
_cell_angle_gamma	92.188400
loop_
_atom_site_label
_atom_site_type_symbol
_atom_site_fract_x
_atom_site_fract_y
_atom_site_fract_z
Zn1	Zn	1.174690	-0.035895	-0.202578
Zn2	Zn	1.241590	-0.190293	-0.025716
Zn3	Zn	1.076027	-0.080410	-0.081337
Zn4	Zn	1.076006	-0.190290	-0.191278
O5	O	1.142078	-0.124222	-0.125227
O6	O	1.294153	-0.037747	-0.160568
O7	O	1.247635	-0.194347	0.086935
O8	O	1.061126	0.036096	-0.125426
O9	O	1.343304	-0.151182	-0.030628
O10	O	1.133613	0.068802	-0.214502
O11	O	1.125996	-0.113617	0.046070
O12	O	0.965436	-0.113615	-0.114470
O13	O	1.061090	-0.151179	-0.312806
O14	O	0.965420	-0.194343	-0.195243
O15	O	1.133593	-0.037745	-0.321108
O16	O	1.247614	-0.300894	-0.019671
O17	O	1.125960	-0.300892	-0.141309
C18	C	0.936754	-0.158810	-0.159666
C19	C	0.848915	-0.173623	-0.174415
C20	C	0.725163	-0.236615	-0.237145
C21	C	0.807701	-0.222691	-0.223282
C22	C	0.807600	-0.138455	-0.139397
C23	C	0.725059	-0.152368	-0.153257
C24	C	0.683847	-0.201449	-0.202131
C25	C	0.683744	-0.117202	-0.118243
C26	C	0.601211	-0.131118	-0.132098
C27	C	0.559995	-0.180199	-0.180968
C28	C	0.601315	-0.215365	-0.215987
C29	C	0.724959	-0.068126	-0.069363
C30	C	0.683644	-0.032960	-0.034349
C31	C	0.601108	-0.046871	-0.048210
C32	C	0.559891	-0.095952	-0.097080
C33	C	0.559788	-0.011705	-0.013191
C34	C	0.477255	-0.025621	-0.027047
C35	C	0.477359	-0.109868	-0.110935
C36	C	1.194062	-0.329564	-0.073244
C37	C	1.216366	-0.417393	-0.051021
C38	C	0.972887	-0.706473	-0.294305
C39	C	0.993853	-0.789006	-0.273396
C40	C	1.120569	-0.788914	-0.146835
C41	C	1.099615	-0.706379	-0.167735
C42	C	1.025773	-0.665164	-0.241471
C43	C	1.152501	-0.665070	-0.114901
C44	C	1.131546	-0.582543	-0.135798
C45	C	1.057706	-0.541323	-0.209529
C46	C	1.004819	-0.582637	-0.262368
C47	C	1.226340	-0.706287	-0.041162
C48	C	1.279225	-0.664979	0.011672
C49	C	1.258274	-0.582449	-0.009228
C50	C	1.184434	-0.541229	-0.082959
C51	C	1.311162	-0.541135	0.043611
C52	C	1.290208	-0.458608	0.022714
C53	C	1.163480	-0.458702	-0.103855
C54	C	1.348205	-0.089499	-0.090654
C55	C	1.436043	-0.074703	-0.075921
C56	C	1.089876	-0.089496	-0.348949
C57	C	1.067631	-0.074698	-0.444286
C58	C	1.089909	0.081928	-0.177429
C59	C	1.067678	0.169777	-0.199674
C60	C	1.311134	-0.236188	-0.651431
C61	C	1.290219	-0.222275	-0.741018
C62	C	1.163565	-0.138217	-0.783567
C63	C	1.184468	-0.152125	-0.693981
C64	C	1.258254	-0.201111	-0.627919
C65	C	1.131587	-0.117048	-0.670470
C66	C	1.152491	-0.130952	-0.580892
C67	C	1.226275	-0.179933	-0.514825
C68	C	1.279157	-0.215015	-0.538341
C69	C	1.057805	-0.068058	-0.736533
C70	C	1.004924	-0.032981	-0.713022
C71	C	1.025824	-0.046889	-0.623442
C72	C	1.099608	-0.095871	-0.557376
C73	C	0.972942	-0.011808	-0.599926
C74	C	0.993845	-0.025712	-0.510348
C75	C	1.120511	-0.109775	-0.467798
C76	C	1.194108	-0.158748	0.097618
C77	C	1.216450	-0.173298	0.192923
H78	H	0.717211	0.007000	0.005447
C79	C	1.034812	-0.052765	-0.835072
N80	N	1.017494	-0.041247	-0.909290
H81	H	1.103490	-0.098330	-0.837366
C82	C	0.853142	-0.261375	-0.261811
N83	N	0.887369	-0.290510	-0.290831
C84	C	1.360315	-0.268919	-0.465666
N85	N	1.421438	-0.309520	-0.410927
H86	H	0.950786	0.002854	-0.491206
H87	H	1.371224	-0.276068	-0.597639
H88	H	0.944849	0.006905	-0.766821
C89	C	0.431805	0.013065	0.011469
N90	N	0.397573	0.042202	0.040482
H91	H	1.339346	-0.698548	0.071710
C92	C	1.249390	-0.797070	-0.018180
N93	N	1.266752	-0.865447	-0.000872
H94	H	1.333287	-0.250841	-0.760154
H95	H	0.443798	-0.149826	-0.150744
C96	C	0.469206	-0.195506	-0.196211
N97	N	0.400822	-0.207033	-0.207693
H98	H	0.567754	-0.255323	-0.255796
C99	C	0.935672	-0.834441	-0.331528
N100	N	0.891850	-0.868662	-0.375312
C101	C	1.082242	-0.413365	-0.184959
N102	N	1.021051	-0.379219	-0.246038
C103	C	0.891784	0.042080	-0.672605
N104	N	0.830654	0.082670	-0.727347
H105	H	0.593358	0.028250	0.026609
H106	H	0.912762	-0.672913	-0.354354
H107	H	0.691602	-0.276573	-0.276954
H108	H	1.243294	-0.191251	-0.441886
H109	H	1.180689	-0.822483	-0.086797
C110	C	0.923580	-0.537300	-0.343471
N111	N	0.862390	-0.503155	-0.404550
H112	H	1.040643	-0.474126	-0.226536
H113	H	1.333273	-0.424974	0.065738
C114	C	0.852939	-0.084457	-0.085647
N115	N	0.887084	-0.043780	-0.045168
H116	H	1.371280	-0.574706	0.103651
C117	C	1.201669	-0.163679	-0.395122
N118	N	1.262793	-0.204281	-0.340384
H119	H	0.792163	-0.056799	-0.058082
