data_functionalizedCrystal
_audit_creation_method	'MofGen! by Chris Wilmer'
_symmetry_space_group_name_H-M	'P1'
_symmetry_Int_Tables_number	1
_symmetry_cell_setting	triclinic
loop_
_symmetry_equiv_pos_as_xyz
  x,y,z
_cell_length_a	19.805407
_cell_length_b	19.121063
_cell_length_c	19.805399
_cell_angle_alpha	92.409585
_cell_angle_beta	89.983114
_cell_angle_gamma	92.469032
loop_
_atom_site_label
_atom_site_type_symbol
_atom_site_fract_x
_atom_site_fract_y
_atom_site_fract_z
Zn1	Zn	1.023216	-0.279621	-0.394202
Zn2	Zn	1.018304	-0.397076	-0.285838
Zn3	Zn	0.910035	-0.279643	-0.281028
Zn4	Zn	0.905164	-0.397036	-0.398983
O5	O	0.964180	-0.338344	-0.340013
O6	O	1.117280	-0.295209	-0.379840
O7	O	1.003925	-0.381524	-0.190484
O8	O	0.929142	-0.181355	-0.292027
O9	O	1.113672	-0.381503	-0.300225
O10	O	1.012296	-0.181339	-0.375176
O11	O	0.924380	-0.295247	-0.186950
O12	O	0.814672	-0.295208	-0.296663
O13	O	0.920841	-0.381434	-0.493064
O14	O	0.811094	-0.381456	-0.383323
O15	O	1.007573	-0.295170	-0.489552
O16	O	0.999202	-0.495355	-0.304860
O17	O	0.916079	-0.495326	-0.387987
C18	C	0.788324	-0.338330	-0.339990
C19	C	0.713092	-0.338341	-0.339997
C20	C	0.675899	-0.383318	-0.385054
C21	C	0.605211	-0.383320	-0.385064
C22	C	0.571716	-0.338347	-0.340013
C23	C	0.608914	-0.293365	-0.294954
C24	C	0.679601	-0.293361	-0.294948
C25	C	0.323840	-0.293381	-0.294977
C26	C	0.253147	-0.293390	-0.294985
C27	C	0.249449	-0.383339	-0.385093
C28	C	0.320137	-0.383335	-0.385087
C29	C	0.357328	-0.338351	-0.340031
C30	C	0.433977	-0.338349	-0.340022
C31	C	0.495069	-0.338352	-0.340018
C32	C	0.956597	-0.520824	-0.347479
C33	C	0.953415	-0.598890	-0.350696
C34	C	0.995232	-0.635558	-0.308963
C35	C	0.992244	-0.708909	-0.311992
C36	C	0.947434	-0.745592	-0.356751
C37	C	0.905616	-0.708919	-0.398489
C38	C	0.908608	-0.635569	-0.395462
C39	C	0.936236	-0.967062	-0.368055
C40	C	0.933245	-1.040417	-0.371077
C41	C	1.019874	-1.040402	-0.284581
C42	C	1.022860	-0.967051	-0.281556
C43	C	0.981044	-0.930384	-0.323296
C44	C	0.944377	-0.820569	-0.359847
C45	C	0.984105	-0.855409	-0.320203
C46	C	1.140722	-0.338358	-0.340036
C47	C	1.215954	-0.338364	-0.340045
C48	C	0.964211	-0.338295	-0.516553
C49	C	0.964225	-0.338274	-0.591785
C50	C	0.971810	-0.155150	-0.332532
C51	C	0.975062	-0.077084	-0.329344
C52	C	0.922818	-0.293345	-0.625288
C53	C	0.922828	-0.293332	-0.695976
C54	C	0.964249	-0.338244	-0.733159
C55	C	1.005657	-0.383178	-0.699651
C56	C	1.005643	-0.383194	-0.628964
C57	C	1.005713	-0.383112	-0.984721
C58	C	1.005726	-0.383090	-1.055413
C59	C	0.922898	-0.293249	-1.051733
C60	C	0.922884	-0.293266	-0.981047
C61	C	0.964290	-0.338202	-0.947545
C62	C	0.964278	-0.338217	-0.870897
C63	C	0.964265	-0.338226	-0.809805
C64	C	0.964189	-0.338342	-0.164157
C65	C	0.964315	-0.338164	-0.088918
H66	H	0.354113	-0.256757	-0.258284
H67	H	0.219160	-0.419965	-0.421782
C68	C	0.564299	-0.432794	-0.434624
H69	H	0.517403	-0.426351	-0.428182
H70	H	0.573919	-0.479970	-0.426571
H71	H	0.576327	-0.422573	-0.479700
C72	C	0.572071	-0.243898	-0.245396
H73	H	0.524645	-0.250347	-0.251847
H74	H	0.585616	-0.196720	-0.253442
H75	H	0.583217	-0.254123	-0.200319
H76	H	0.347404	-0.419959	-0.421770
H77	H	1.026295	-0.738761	-0.278008
H78	H	0.907892	-0.850443	-0.396289
H79	H	0.902186	-0.937214	-0.402040
C80	C	0.216304	-0.243912	-0.245431
H81	H	0.248578	-0.217115	-0.218601
H82	H	0.187604	-0.270738	-0.216995
H83	H	0.190009	-0.213349	-0.270133
H84	H	0.709883	-0.256732	-0.258261
C85	C	0.877319	-0.243865	-0.940149
H86	H	0.852655	-0.217110	-0.970227
H87	H	0.904477	-0.213272	-0.911326
H88	H	0.846702	-0.270745	-0.913670
H89	H	1.020591	-0.825540	-0.283762
H90	H	1.031718	-0.605696	-0.272512
H91	H	1.059347	-0.937185	-0.245109
C92	C	0.877342	-0.243830	-1.088588
H93	H	0.883273	-0.250257	-1.136012
H94	H	0.889208	-0.196642	-1.075082
H95	H	0.831433	-0.254116	-1.077413
C96	C	0.862611	-0.595234	-0.441369
H97	H	0.835492	-0.627585	-0.468457
H98	H	0.889656	-0.566579	-0.469701
H99	H	0.834298	-0.566663	-0.414270
C100	C	0.877249	-0.243947	-0.584393
H101	H	0.852584	-0.217194	-0.614474
H102	H	0.904403	-0.213351	-0.555569
H103	H	0.846632	-0.270828	-0.557916
C104	C	1.065872	-1.080736	-0.238677
H105	H	1.057678	-1.129675	-0.246892
H106	H	1.056487	-1.068757	-0.192696
H107	H	1.111837	-1.068668	-0.248134
H108	H	0.889108	-0.256749	-0.723251
H109	H	1.039457	-0.419666	-1.085685
C110	C	1.051268	-0.432529	-0.947877
H111	H	1.075945	-0.459265	-0.980148
H112	H	1.024104	-0.463140	-0.921546
H113	H	1.081875	-0.405662	-0.919213
C114	C	0.883958	-1.080766	-0.420320
H115	H	0.859488	-1.048424	-0.444751
H116	H	0.853313	-1.109424	-0.395586
H117	H	0.908676	-1.109336	-0.451011
H118	H	1.039366	-0.419775	-0.601687
C119	C	0.856325	-0.749267	-0.447721
H120	H	0.860526	-0.798204	-0.443542
H121	H	0.866691	-0.737207	-0.492711
H122	H	0.811341	-0.737290	-0.437272
C123	C	1.051220	-0.432579	-0.740550
H124	H	1.045304	-0.426130	-0.787447
H125	H	1.039348	-0.479772	-0.730892
H126	H	1.097125	-0.422301	-0.728549
H127	H	0.703165	-0.419943	-0.421738
