data_functionalizedCrystal
_audit_creation_method	'MofGen! by Chris Wilmer'
_symmetry_space_group_name_H-M	'P1'
_symmetry_Int_Tables_number	1
_symmetry_cell_setting	triclinic
loop_
_symmetry_equiv_pos_as_xyz
  x,y,z
_cell_length_a	21.295419
_cell_length_b	29.839131
_cell_length_c	21.295412
_cell_angle_alpha	89.962957
_cell_angle_beta	89.976510
_cell_angle_gamma	90.050029
loop_
_atom_site_label
_atom_site_type_symbol
_atom_site_fract_x
_atom_site_fract_y
_atom_site_fract_z
Zn1	Zn	0.962328	-0.178687	-0.355883
Zn2	Zn	0.962224	-0.253814	-0.250597
Zn3	Zn	0.857054	-0.178719	-0.250628
Zn4	Zn	0.857012	-0.253810	-0.355829
O5	O	0.909655	-0.216258	-0.303234
O6	O	1.050404	-0.188641	-0.341927
O7	O	0.948247	-0.243868	-0.162512
O8	O	0.871079	-0.115847	-0.264627
O9	O	1.050327	-0.243837	-0.264573
O10	O	0.948424	-0.115824	-0.341957
O11	O	0.870978	-0.188695	-0.162535
O12	O	0.768959	-0.188691	-0.264574
O13	O	0.871009	-0.243830	-0.443925
O14	O	0.768928	-0.243861	-0.341864
O15	O	0.948384	-0.188637	-0.443965
O16	O	0.948207	-0.316681	-0.264520
O17	O	0.870908	-0.316678	-0.341834
C18	C	0.746103	-0.216279	-0.303217
C19	C	0.676135	-0.216299	-0.303224
C20	C	0.643331	-0.187606	-0.343564
C21	C	0.577588	-0.187594	-0.343567
C22	C	0.544652	-0.216283	-0.303236
C23	C	0.577465	-0.244979	-0.262888
C24	C	0.643206	-0.244987	-0.262882
N25	N	0.441372	-0.255591	-0.298310
N26	N	0.378921	-0.255582	-0.298319
C27	C	0.346578	-0.216260	-0.303249
N28	N	0.379045	-0.176946	-0.308183
N29	N	0.441502	-0.176956	-0.308177
C30	C	0.473367	-0.216277	-0.303237
C31	C	0.242488	-0.187551	-0.343594
C32	C	0.176744	-0.187538	-0.343592
C33	C	0.176622	-0.244927	-0.262917
C34	C	0.242364	-0.244936	-0.262915
C35	C	0.275293	-0.216248	-0.303258
C36	C	0.909559	-0.332980	-0.303181
C37	C	0.909575	-0.382915	-0.303180
C38	C	0.949919	-0.692511	-0.343558
C39	C	0.949988	-0.880184	-0.343595
O40	O	0.984196	-0.904409	-0.377887
N41	N	0.909761	-0.903700	-0.303304
C42	C	0.869512	-0.880294	-0.263003
O43	O	0.835295	-0.904602	-0.228739
C44	C	0.869441	-0.692622	-0.262969
C45	C	0.909675	-0.669109	-0.303259
C46	C	0.990149	-0.668998	-0.383844
C47	C	0.990134	-0.622082	-0.383832
C48	C	0.949889	-0.598680	-0.343533
C49	C	0.909660	-0.622193	-0.303246
C50	C	0.829190	-0.669217	-0.222672
C51	C	0.829174	-0.622296	-0.222668
C52	C	0.869408	-0.598783	-0.262958
C53	C	0.869400	-0.551876	-0.262935
N54	N	0.909626	-0.528360	-0.303227
C55	C	0.949871	-0.551762	-0.343525
C56	C	0.869553	-0.978825	-0.263023
C57	C	0.869572	-1.025743	-0.263031
C58	C	0.950046	-1.025629	-0.343624
C59	C	0.950031	-0.978711	-0.343613
C60	C	0.909780	-0.955309	-0.303315
C61	C	0.949836	-0.453236	-0.343496
C62	C	0.949820	-0.406317	-0.343478
C63	C	0.869343	-0.406434	-0.262888
C64	C	0.869362	-0.453350	-0.262903
C65	C	0.909611	-0.476750	-0.303212
O66	O	0.835205	-0.527622	-0.228667
O67	O	0.984074	-0.527447	-0.377795
C68	C	0.949934	-0.739426	-0.343570
C69	C	0.909705	-0.762940	-0.303283
C70	C	0.869460	-0.739537	-0.262984
C71	C	0.909723	-0.809857	-0.303291
C72	C	0.949968	-0.833260	-0.343590
C73	C	0.990194	-0.809744	-0.383881
C74	C	0.990179	-0.762829	-0.383869
C75	C	0.829234	-0.763053	-0.222693
C76	C	0.829253	-0.809968	-0.222708
C77	C	0.869498	-0.833371	-0.263007
C78	C	1.073845	-0.216236	-0.303252
C79	C	1.143813	-0.216227	-0.303260
C80	C	0.909704	-0.216230	-0.467425
C81	C	0.909725	-0.216218	-0.537393
C82	C	0.909768	-0.099079	-0.303301
C83	C	0.909816	-0.049145	-0.303330
C84	C	0.869502	-0.187486	-0.570262
C85	C	0.869500	-0.187478	-0.636004
C86	C	0.909732	-0.216196	-0.668875
C87	C	0.949957	-0.244934	-0.635999
C88	C	0.949954	-0.244944	-0.570257
N89	N	0.964836	-0.219617	-0.772113
N90	N	0.964837	-0.219604	-0.834565
C91	C	0.909743	-0.216166	-0.866950
N92	N	0.854647	-0.212733	-0.834525
N93	N	0.854646	-0.212743	-0.772068
C94	C	0.909739	-0.216188	-0.740161
C95	C	0.869514	-0.187424	-0.971105
C96	C	0.869511	-0.187419	-1.036848
C97	C	0.949974	-0.244872	-1.036842
C98	C	0.949972	-0.244880	-0.971099
C99	C	0.909743	-0.216153	-0.938235
C100	C	0.909642	-0.216253	-0.139683
C101	C	0.909743	-0.216138	-0.069715
H102	H	0.269074	-0.268303	-0.230068
H103	H	0.982711	-0.268340	-0.543496
H104	H	0.550874	-0.164226	-0.376415
H105	H	0.836817	-1.044883	-0.230217
H106	H	0.982585	-0.387174	-0.376287
H107	H	0.269300	-0.164189	-0.376439
H108	H	0.836606	-0.472495	-0.230091
H109	H	0.836752	-0.164024	-1.063609
H110	H	1.022893	-0.602941	-0.416641
N111	N	0.678844	-0.156654	-0.387059
H112	H	0.725470	-0.161010	-0.380933
H113	H	0.667370	-0.163682	-0.432001
N114	N	0.826105	-0.156494	-0.671464
H115	H	0.832208	-0.160849	-0.718098
H116	H	0.781143	-0.163500	-0.659947
H117	H	0.836775	-0.959774	-0.230206
N118	N	0.541946	-0.275919	-0.219382
H119	H	0.495321	-0.271561	-0.225507
H120	H	0.553395	-0.308016	-0.229086
H121	H	0.982607	-0.472283	-0.376324
H122	H	0.982733	-0.268255	-1.063605
N123	N	1.033543	-0.694234	-0.427329
H124	H	1.059016	-0.672213	-0.452850
H125	H	1.062704	-0.713695	-0.401752
H126	H	1.022965	-0.828806	-0.416692
N127	N	0.993366	-0.275865	-0.935647
H128	H	1.022552	-0.257606	-0.908393
H129	H	0.967720	-0.296686	-0.908384
H130	H	0.982792	-0.959569	-0.376420
N131	N	0.993455	-1.050874	-0.387089
H132	H	0.987358	-1.084164	-0.380977
H133	H	0.983626	-1.042659	-0.432036
N134	N	0.785827	-0.737816	-0.179224
H135	H	0.760351	-0.759836	-0.153704
H136	H	0.811462	-0.718348	-0.150110
N137	N	0.825942	-0.381189	-0.219421
H138	H	0.832039	-0.347899	-0.225532
H139	H	0.780981	-0.389418	-0.229180
N140	N	0.826125	-0.156445	-0.935652
H141	H	0.800639	-0.138244	-0.966453
H142	H	0.796977	-0.174740	-0.908352
N143	N	0.993345	-0.275910	-0.671454
H144	H	1.022537	-0.257645	-0.698751
H145	H	1.018785	-0.294110	-0.640616
H146	H	0.150036	-0.164170	-0.376441
H147	H	0.669915	-0.268353	-0.230031
N148	N	0.785796	-0.694570	-0.179216
H149	H	0.760300	-0.672619	-0.153692
H150	H	0.756656	-0.714045	-0.204816
H151	H	0.149806	-0.268286	-0.230078
H152	H	0.796395	-0.603245	-0.189854
N153	N	1.033573	-0.737471	-0.427325
H154	H	1.059065	-0.759422	-0.452853
H155	H	1.007929	-0.718010	-0.456431
N156	N	0.785860	-0.835327	-0.179246
H157	H	0.760365	-0.813378	-0.153718
H158	H	0.756720	-0.854800	-0.204848
N159	N	0.826121	-0.156499	-0.534815
H160	H	0.800642	-0.138294	-0.565617
H161	H	0.796965	-0.174787	-0.507513
