data_functionalizedCrystal
_audit_creation_method	'MofGen! by Chris Wilmer'
_symmetry_space_group_name_H-M	'P1'
_symmetry_Int_Tables_number	1
_symmetry_cell_setting	triclinic
loop_
_symmetry_equiv_pos_as_xyz
  x,y,z
_cell_length_a	14.044191
_cell_length_b	9.130313
_cell_length_c	10.654550
_cell_angle_alpha	89.998690
_cell_angle_beta	88.838340
_cell_angle_gamma	90.000955
loop_
_atom_site_label
_atom_site_type_symbol
_atom_site_fract_x
_atom_site_fract_y
_atom_site_fract_z
O1	O	1.259699	0.121721	0.303019
O2	O	0.983658	0.121740	0.292077
O3	O	1.128025	0.121725	0.115447
O4	O	1.115332	0.121736	0.479649
O5	O	1.128015	-0.121874	0.115457
O6	O	0.983648	-0.121859	0.292087
O7	O	1.259689	-0.121878	0.303030
Cu8	Cu	1.121668	-0.144111	0.297560
Cu9	Cu	1.121679	0.143973	0.297547
O10	O	1.115322	-0.121862	0.479660
C11	C	0.948307	-0.000057	0.287295
C12	C	0.842987	-0.000050	0.273016
N13	N	1.121666	-0.346733	0.297568
C14	C	1.179694	-0.423401	0.380276
C15	C	1.179708	-0.576738	0.380254
C16	C	1.063657	-0.576726	0.214812
C17	C	1.063649	-0.423392	0.214829
C18	C	1.237711	-0.346742	0.463015
C19	C	1.295744	-0.423410	0.545731
C20	C	1.295757	-0.576747	0.545709
C21	C	1.237739	-0.653416	0.462971
C22	C	0.593195	-0.000062	0.348181
C23	C	0.650158	-0.000063	0.246931
C24	C	0.757458	-0.000056	0.261448
C25	C	0.485885	-0.000069	0.333666
C26	C	1.295040	-0.000077	0.307812
C27	C	1.400360	-0.000075	0.322091
C28	C	1.127088	-0.000073	0.068560
C29	C	1.124300	-0.000068	-0.071163
N30	N	1.121688	0.346596	0.297530
C31	C	1.209301	-0.000078	-0.142104
C32	C	1.206675	-0.000067	-0.273389
C33	C	1.034039	-0.000043	-0.262779
C34	C	1.036666	-0.000043	-0.131497
C35	C	1.296934	-0.000103	-0.081770
C36	C	1.381943	-0.000115	-0.152712
C37	C	1.379317	-0.000104	-0.283997
C38	C	1.291683	-0.000082	-0.344340
C39	C	1.116259	-0.000062	0.526546
C40	C	1.119047	-0.000057	0.666270
H41	H	1.237704	-0.221888	0.463045
O42	O	0.948999	-0.000097	-0.321593
C43	C	0.964909	-0.000065	-0.452678
H44	H	1.038730	-0.046190	-0.475163
H45	H	0.960077	0.116801	-0.489687
C46	C	0.798424	-0.038942	-0.487887
C47	C	0.889090	-0.095604	-0.515504
H48	H	0.751653	-0.097868	-0.526643
H49	H	0.787704	-0.038958	-0.399573
H50	H	0.794411	0.058446	-0.518729
H51	H	0.893105	-0.192982	-0.484648
H52	H	0.899809	-0.095607	-0.603815
H53	H	1.448535	-0.000099	-0.341754
O54	O	1.351960	-0.348876	0.626225
C55	C	1.294675	-0.260185	0.705444
H56	H	1.219289	-0.306411	0.710411
H57	H	1.292811	-0.143967	0.666446
C58	C	1.429042	-0.201076	0.831848
C59	C	1.336453	-0.257859	0.837957
H60	H	1.454814	-0.199634	0.913588
H61	H	1.467637	-0.260824	0.778475
H62	H	1.427476	-0.104233	0.799345
H63	H	1.338021	-0.354706	0.870445
H64	H	1.297859	-0.198127	0.891340
O65	O	1.352156	-0.650997	0.626169
C66	C	1.403376	-0.550449	0.699171
H67	H	1.364148	-0.441157	0.702084
H68	H	1.477493	-0.534117	0.655807
C69	C	1.460378	-0.744550	0.829980
C70	C	1.412193	-0.610319	0.833567
H71	H	1.465821	-0.781481	0.912880
H72	H	1.425873	-0.812293	0.780795
H73	H	1.522137	-0.730922	0.793838
H74	H	1.350431	-0.623952	0.869694
H75	H	1.446688	-0.542579	0.882761
H76	H	1.453291	-0.000096	-0.103572
H77	H	1.299082	-0.000116	0.025128
O78	O	0.631032	0.000153	0.464661
C79	C	0.600531	0.126342	0.530298
H80	H	0.531623	0.168388	0.488515
H81	H	0.657677	0.214690	0.522009
C82	C	0.667732	0.036402	0.720953
C83	C	0.583095	0.088036	0.669641
H84	H	0.656981	0.012776	0.806908
H85	H	0.688286	-0.048613	0.676732
H86	H	0.715346	0.110034	0.714034
H87	H	0.535487	0.014398	0.676547
H88	H	0.562533	0.173037	0.713867
O89	O	0.612322	0.000138	0.130442
C90	C	0.642827	0.126326	0.064798
H91	H	0.711729	0.168384	0.106590
H92	H	0.585678	0.214669	0.073068
C93	C	0.575648	0.036364	-0.125862
C94	C	0.660279	0.088012	-0.074539
H95	H	0.586409	0.012733	-0.211813
H96	H	0.555093	-0.048649	-0.081636
H97	H	0.528032	0.109991	-0.118958
H98	H	0.707889	0.014379	-0.081429
H99	H	0.680843	0.173012	-0.118769
H100	H	0.967451	-0.000036	-0.073735
H101	H	1.289552	-0.000058	-0.451241
H102	H	1.237764	-0.778273	0.462949
H103	H	1.016420	-0.639162	0.147453
H104	H	1.016396	-0.360968	0.147483
