data_functionalizedCrystal
_audit_creation_method	'MofGen! by Chris Wilmer'
_symmetry_space_group_name_H-M	'P1'
_symmetry_Int_Tables_number	1
_symmetry_cell_setting	triclinic
loop_
_symmetry_equiv_pos_as_xyz
  x,y,z
_cell_length_a	17.640112
_cell_length_b	21.295417
_cell_length_c	21.295395
_cell_angle_alpha	89.893622
_cell_angle_beta	101.141588
_cell_angle_gamma	101.255243
loop_
_atom_site_label
_atom_site_type_symbol
_atom_site_fract_x
_atom_site_fract_y
_atom_site_fract_z
Zn1	Zn	1.208502	-0.055620	-0.161663
Zn2	Zn	1.708502	0.444380	0.338337
Zn3	Zn	1.208276	-0.161065	-0.056426
Zn4	Zn	1.708276	0.338935	0.443574
Zn5	Zn	1.076232	-0.077069	-0.077669
Zn6	Zn	1.576232	0.422931	0.422331
Zn7	Zn	1.076300	-0.182135	-0.182872
Zn8	Zn	1.576300	0.317865	0.317128
O9	O	1.142328	-0.118972	-0.119657
O10	O	1.642328	0.381028	0.380343
O11	O	1.319059	-0.051813	-0.129937
O12	O	1.819059	0.448187	0.370063
O13	O	1.190637	-0.150082	0.028826
O14	O	1.690637	0.349918	0.528826
O15	O	1.093844	0.013877	-0.088825
O16	O	1.593844	0.513877	0.411175
O17	O	1.318894	-0.129284	-0.052620
O18	O	1.818894	0.370716	0.447380
O19	O	1.191022	0.029635	-0.150535
O20	O	1.691022	0.529635	0.349465
O21	O	1.093625	-0.088370	0.013219
O22	O	1.593625	0.411630	0.513219
O23	O	0.965654	-0.108800	-0.109390
O24	O	1.465654	0.391200	0.390610
O25	O	1.093960	-0.165194	-0.268128
O26	O	1.593960	0.334806	0.231872
O27	O	0.965704	-0.185992	-0.186683
O28	O	1.465704	0.314008	0.313317
O29	O	1.191088	-0.072243	-0.252546
O30	O	1.691088	0.427757	0.247454
O31	O	1.190703	-0.251960	-0.073185
O32	O	1.690703	0.248040	0.426815
O33	O	1.093741	-0.267440	-0.166085
O34	O	1.593741	0.232560	0.333915
C35	C	0.937004	-0.152010	-0.152643
C36	C	1.437004	0.347990	0.347357
C37	C	0.849166	-0.166159	-0.166770
C38	C	1.349166	0.333841	0.333230
C39	C	0.560038	-0.011473	-0.012346
C40	C	1.060038	0.488527	0.487654
C41	C	0.477501	-0.024781	-0.025628
C42	C	0.977501	0.475219	0.474372
C43	C	0.477607	-0.105271	-0.105974
C44	C	0.977607	0.394729	0.394026
C45	C	0.560146	-0.091968	-0.092700
C46	C	1.060146	0.408032	0.407300
C47	C	0.601355	-0.045069	-0.045885
C48	C	1.101355	0.454931	0.454115
C49	C	0.601463	-0.125564	-0.126240
C50	C	1.101463	0.374436	0.373760
C51	C	0.683995	-0.112264	-0.112965
C52	C	1.183995	0.387736	0.387035
C53	C	0.725210	-0.065368	-0.066150
C54	C	1.225210	0.434632	0.433850
C55	C	0.683887	-0.031769	-0.032610
C56	C	1.183887	0.468231	0.467390
C57	C	0.560253	-0.172467	-0.173052
C58	C	1.060253	0.327533	0.326948
C59	C	0.601570	-0.206062	-0.206591
C60	C	1.101570	0.293938	0.293409
C61	C	0.684103	-0.192759	-0.193320
C62	C	1.184103	0.307241	0.306680
C63	C	0.725318	-0.145863	-0.146505
C64	C	1.225318	0.354137	0.353495
C65	C	0.725426	-0.226359	-0.226860
C66	C	1.225426	0.273641	0.273140
C67	C	0.807957	-0.213059	-0.213585
C68	C	1.307957	0.286941	0.286415
C69	C	0.807849	-0.132563	-0.133230
C70	C	1.307849	0.367437	0.366770
C71	C	1.142227	-0.282540	-0.119642
C72	C	1.642227	0.217460	0.380358
C73	C	1.142256	-0.352503	-0.119644
C74	C	1.642256	0.147497	0.380356
C75	C	1.192828	-0.377112	-0.151810
C76	C	1.692828	0.122888	0.348190
C77	C	1.192855	-0.442850	-0.151821
C78	C	1.692855	0.057150	0.348179
C79	C	1.142320	-0.483976	-0.119654
C80	C	1.642320	0.016024	0.380346
C81	C	1.091739	-0.459361	-0.087487
C82	C	1.591739	0.040639	0.412513
C83	C	1.091707	-0.393625	-0.087482
C84	C	1.591707	0.106375	0.412518
N85	N	1.136290	-0.588281	-0.065532
N86	N	1.636290	-0.088281	0.434468
N87	N	1.136325	-0.650727	-0.065538
N88	N	1.636325	-0.150727	0.434462
C89	C	1.142412	-0.682035	-0.119668
C90	C	1.642412	-0.182035	0.380332
N91	N	1.148479	-0.648537	-0.173790
N92	N	1.648479	-0.148537	0.326210
N93	N	1.148448	-0.586084	-0.173784
N94	N	1.648448	-0.086084	0.326216
C95	C	1.142349	-0.555256	-0.119656
C96	C	1.642349	-0.055256	0.380344
C97	C	1.193017	-0.777924	-0.151848
C98	C	1.693017	-0.277924	0.348152
C99	C	1.193039	-0.843664	-0.151861
C100	C	1.693039	-0.343664	0.348139
C101	C	1.091927	-0.860173	-0.087520
C102	C	1.591927	-0.360173	0.412480
C103	C	1.091900	-0.794435	-0.087514
C104	C	1.591900	-0.294435	0.412486
C105	C	1.142450	-0.753314	-0.119676
C106	C	1.642450	-0.253314	0.380324
C107	C	1.348452	-0.085805	-0.086543
C108	C	1.848452	0.414195	0.413457
C109	C	1.436290	-0.071672	-0.072432
C110	C	1.936290	0.428328	0.427568
C111	C	1.142557	-0.118676	-0.283811
C112	C	1.642557	0.381324	0.216189
C113	C	1.142654	-0.118550	-0.353764
C114	C	1.642654	0.381450	0.146236
C115	C	1.142450	0.045238	-0.119683
C116	C	1.642450	0.545238	0.380317
C117	C	1.142503	0.115215	-0.119695
C118	C	1.642503	0.615215	0.380305
C119	C	1.142145	-0.119214	0.043865
C120	C	1.642145	0.380786	0.543865
C121	C	1.142200	-0.119138	0.113842
C122	C	1.642200	0.380862	0.613842
C123	C	1.091351	-0.087330	0.138499
C124	C	1.591351	0.412670	0.638499
C125	C	1.091410	-0.087252	0.204251
C126	C	1.591410	0.412748	0.704251
C127	C	1.142309	-0.118996	0.245342
C128	C	1.642309	0.381004	0.745342
C129	C	1.193168	-0.150806	0.220679
C130	C	1.693168	0.349194	0.720679
C131	C	1.193114	-0.150877	0.154929
C132	C	1.693114	0.349123	0.654929
N133	N	1.148915	-0.172901	0.349768
N134	N	1.648915	0.327099	0.849768
N135	N	1.148963	-0.172832	0.412227
N136	N	1.648963	0.327168	0.912227
C137	C	1.142478	-0.118782	0.443443
C138	C	1.642478	0.381218	0.943443
N139	N	1.135928	-0.064805	0.409839
N140	N	1.635928	0.435195	0.909839
N141	N	1.135877	-0.064875	0.347373
N142	N	1.635877	0.435125	0.847373
C143	C	1.142374	-0.118922	0.316638
C144	C	1.642374	0.381078	0.816638
C145	C	1.091689	-0.086887	0.539395
C146	C	1.591689	0.413113	1.039395
C147	C	1.091753	-0.086807	0.605149
C148	C	1.591753	0.413193	1.105149
C149	C	1.193508	-0.150366	0.621575
C150	C	1.693508	0.349634	1.121575
C151	C	1.193448	-0.150440	0.555823
C152	C	1.693448	0.349560	1.055823
C153	C	1.142534	-0.118701	0.514737
C154	C	1.642534	0.381299	1.014737
H155	H	0.792412	-0.054541	-0.055342
H156	H	1.292412	0.445459	0.444658
C157	C	1.035697	-0.051969	0.494199
C158	C	1.535697	0.448031	0.994199
H159	H	1.005429	-0.033004	0.518305
H160	H	1.505429	0.466996	1.018305
H161	H	1.001443	-0.081782	0.463168
H162	H	1.501443	0.418218	0.963168
H163	H	1.065682	-0.019566	0.473251
H164	H	1.565682	0.480434	0.973251
C165	C	1.035817	-0.051815	0.632272
C166	C	1.535817	0.448185	1.132272
H167	H	1.005485	-0.032929	0.598382
H168	H	1.505485	0.467071	1.098382
H169	H	1.065836	-0.019355	0.662618
H170	H	1.565836	0.480645	1.162618
H171	H	1.001609	-0.081579	0.652539
H172	H	1.501609	0.418421	1.152539
C173	C	1.248610	-0.732687	-0.187230
C174	C	1.748610	-0.232687	0.312770
H175	H	1.241356	-0.690011	-0.182613
H176	H	1.741356	-0.190011	0.317387
H177	H	1.237065	-0.745240	-0.231374
H178	H	1.737065	-0.245240	0.268626
H179	H	1.301711	-0.734896	-0.169519
H180	H	1.801711	-0.234896	0.330481
C181	C	1.035335	-0.052436	0.093302
C182	C	1.535335	0.447564	0.593302
H183	H	1.042573	-0.057042	0.050610
H184	H	1.542573	0.442958	0.550610
H185	H	1.046531	-0.008257	0.105733
H186	H	1.546531	0.491743	0.605733
H187	H	0.982330	-0.070496	0.095671
H188	H	1.482330	0.429504	0.595671
C189	C	1.036280	-0.767362	-0.052122
C190	C	1.536280	-0.267362	0.447878
H191	H	1.006191	-0.801267	-0.032960
H192	H	1.506191	-0.301267	0.467040
H193	H	1.001844	-0.747234	-0.081705
H194	H	1.501844	-0.247234	0.418295
H195	H	1.066496	-0.736888	-0.019854
H196	H	1.566496	-0.236888	0.480146
H197	H	0.443864	0.002585	0.001683
H198	H	0.943864	0.502585	0.501683
C199	C	1.249495	-0.185285	0.666767
C200	C	1.749495	0.314715	1.166767
H201	H	1.242242	-0.180691	0.709457
H202	H	1.742242	0.319309	1.209457
H203	H	1.302505	-0.167249	0.664408
H204	H	1.802505	0.332751	1.164408
H205	H	1.238266	-0.229465	0.654324
H206	H	1.738266	0.270535	1.154324
C207	C	1.248671	-0.870733	-0.187246
C208	C	1.748671	-0.370733	0.312754
H209	H	1.278775	-0.836825	-0.206393
H210	H	1.778775	-0.336825	0.293607
H211	H	1.218468	-0.901207	-0.219513
H212	H	1.718468	-0.401207	0.280487
H213	H	1.283106	-0.890860	-0.157653
H214	H	1.783106	-0.390860	0.342347
C215	C	0.729222	0.019828	0.018878
C216	C	1.229222	0.519828	0.518878
H217	H	0.692796	0.037935	0.036953
H218	H	1.192796	0.537935	0.536953
H219	H	0.761467	0.052448	-0.000073
H220	H	1.261467	0.552448	0.499927
H221	H	0.761364	0.000928	0.051524
H222	H	1.261364	0.500928	0.551524
C223	C	1.248429	-0.331883	-0.187188
C224	C	1.748429	0.168117	0.312812
H225	H	1.278549	-0.355958	-0.206349
H226	H	1.778549	0.144042	0.293651
H227	H	1.282837	-0.300722	-0.157596
H228	H	1.782837	0.199278	0.342404
H229	H	1.218197	-0.311070	-0.219455
H230	H	1.718197	0.188930	0.280545
H231	H	0.493050	-0.183294	-0.183859
H232	H	0.993050	0.316706	0.316141
H233	H	1.050003	-0.061347	0.224331
H234	H	1.550003	0.438653	0.724331
C235	C	1.249046	-0.185869	0.127802
C236	C	1.749046	0.314131	0.627802
H237	H	1.241726	-0.181363	0.082759
H238	H	1.741726	0.318637	0.582759
H239	H	1.237848	-0.230022	0.136912
H240	H	1.737848	0.269978	0.636912
H241	H	1.302077	-0.167800	0.146992
H242	H	1.802077	0.332200	0.646992
H243	H	1.234612	-0.176650	0.254140
H244	H	1.734612	0.323350	0.754140
C245	C	1.249372	-0.185439	0.528697
C246	C	1.749372	0.314561	1.028697
H247	H	1.279691	-0.204339	0.562584
H248	H	1.779691	0.295661	1.062584
H249	H	1.283582	-0.155684	0.508429
H250	H	1.783582	0.344316	1.008429
H251	H	1.219342	-0.217899	0.498350
H252	H	1.719342	0.282101	0.998350
C253	C	1.248494	-0.469926	-0.187198
C254	C	1.748494	0.030074	0.312802
H255	H	1.278599	-0.436020	-0.206347
H256	H	1.778599	0.063980	0.293653
H257	H	1.218296	-0.500403	-0.219463
H258	H	1.718296	-0.000403	0.280537
H259	H	1.282928	-0.490047	-0.157599
H260	H	1.782928	0.009953	0.342401
C261	C	1.036149	-0.504593	-0.052103
C262	C	1.536149	-0.004593	0.447897
H263	H	1.006020	-0.480520	-0.032949
H264	H	1.506020	0.019480	0.467051
H265	H	1.066379	-0.525406	-0.019841
H266	H	1.566379	-0.025406	0.480159
H267	H	1.001737	-0.535754	-0.081699
H268	H	1.501737	-0.035754	0.418301
C269	C	0.605374	0.040124	0.039142
C270	C	1.105374	0.540124	0.539142
H271	H	0.568948	0.058231	0.057217
H272	H	1.068948	0.558231	0.557217
H273	H	0.637618	0.072744	0.020191
H274	H	1.137618	0.572744	0.520191
H275	H	0.637515	0.021224	0.071789
H276	H	1.137515	0.521224	0.571789
C277	C	0.432274	-0.156855	-0.157470
C278	C	0.932274	0.343145	0.342530
H279	H	0.377203	-0.159962	-0.160576
H280	H	0.877203	0.340038	0.339424
H281	H	0.445768	-0.196977	-0.146015
H282	H	0.945768	0.303023	0.353985
H283	H	0.445875	-0.145439	-0.197595
H284	H	0.945875	0.354561	0.302405
C285	C	0.853188	-0.080971	-0.081738
C286	C	1.353188	0.419029	0.418262
H287	H	0.908258	-0.077861	-0.078641
H288	H	1.408258	0.422139	0.421359
H289	H	0.839590	-0.092372	-0.041612
H290	H	1.339590	0.407628	0.458388
H291	H	0.839696	-0.040848	-0.093206
H292	H	1.339696	0.459152	0.406794
H293	H	0.568006	-0.244250	-0.244706
H294	H	1.068006	0.255750	0.255294
C295	C	1.036079	-0.366550	-0.052097
C296	C	1.536079	0.133450	0.447903
H297	H	1.043296	-0.321511	-0.056704
H298	H	1.543296	0.178489	0.443296
H299	H	1.047629	-0.375542	-0.007955
H300	H	1.547629	0.124458	0.492045
H301	H	0.982987	-0.385888	-0.069813
H302	H	1.482987	0.114112	0.430187
C303	C	0.680090	-0.277946	-0.278351
C304	C	1.180090	0.222054	0.221649
H305	H	0.625019	-0.281054	-0.281454
H306	H	1.125019	0.218946	0.218546
H307	H	0.693587	-0.318066	-0.266893
H308	H	1.193587	0.181934	0.233107
H309	H	0.693686	-0.266535	-0.318479
H310	H	1.193686	0.233465	0.181521
H311	H	0.841599	-0.240415	-0.240897
H312	H	1.341599	0.259585	0.259103
C313	C	1.036334	-0.905404	-0.052141
C314	C	1.536334	-0.405404	0.447859
H315	H	1.043597	-0.948079	-0.056749
H316	H	1.543597	-0.448079	0.443251
H317	H	0.983236	-0.903194	-0.069850
H318	H	1.483236	-0.403194	0.430150
H319	H	1.047881	-0.892850	-0.007993
H320	H	1.547881	-0.392850	0.492007
