data_functionalizedCrystal
_audit_creation_method	'MofGen! by Chris Wilmer'
_symmetry_space_group_name_H-M	'P1'
_symmetry_Int_Tables_number	1
_symmetry_cell_setting	triclinic
loop_
_symmetry_equiv_pos_as_xyz
  x,y,z
_cell_length_a	17.699104
_cell_length_b	10.489716
_cell_length_c	16.176319
_cell_angle_alpha	89.997268
_cell_angle_beta	89.991696
_cell_angle_gamma	83.910327
loop_
_atom_site_label
_atom_site_type_symbol
_atom_site_fract_x
_atom_site_fract_y
_atom_site_fract_z
O1	O	1.005116	0.161424	-0.068756
O2	O	0.784876	0.182382	-0.068753
O3	O	0.900017	-0.013790	-0.068758
O4	O	0.889975	0.357596	-0.068751
O5	O	0.900001	-0.013802	0.068736
O6	O	0.784860	0.182369	0.068740
O7	O	1.005100	0.161412	0.068737
Cu8	Cu	0.894979	0.171889	0.081293
Cu9	Cu	0.894998	0.171904	-0.081309
O10	O	0.889959	0.357583	0.068742
C11	C	0.756667	0.181620	-0.000006
C12	C	0.672635	0.179354	-0.000005
C13	C	0.148428	0.281720	-0.000012
C14	C	0.227385	0.283842	-0.000015
C15	C	0.275256	0.168682	-0.000016
C16	C	0.244165	0.051393	-0.000024
C17	C	0.165209	0.049272	-0.000028
C18	C	0.562586	0.059942	-0.000011
C19	C	0.641547	0.062072	-0.000005
C20	C	0.624763	0.294512	0.000002
C21	C	0.545807	0.292392	-0.000001
C22	C	0.514723	0.175103	-0.000013
C23	C	0.429108	0.172804	-0.000013
C24	C	0.360869	0.170980	-0.000011
C25	C	0.899255	-0.061314	-0.000013
C26	C	0.896997	-0.202903	-0.000021
C27	C	0.967606	-0.301880	-0.000014
C28	C	0.930303	-0.378546	-0.067803
C29	C	0.930270	-0.378522	0.067754
C30	C	0.859724	-0.277704	-0.067866
C31	C	0.859702	-0.277675	0.067753
C32	C	0.822347	-0.354291	-0.000052
C33	C	1.033310	0.162174	-0.000011
C34	C	1.117342	0.164440	-0.000018
C35	C	0.890722	0.405108	-0.000004
C36	C	0.892979	0.546697	-0.000002
N37	N	0.894971	0.171878	0.195658
N38	N	0.895012	0.171905	-0.195674
C39	C	0.945971	0.085049	0.238920
C40	C	0.945975	0.085048	0.325467
C41	C	0.894982	0.171883	0.368751
C42	C	0.843976	0.258716	0.325482
C43	C	0.843969	0.258710	0.238937
C44	C	0.844002	0.258740	0.674511
C45	C	0.844014	0.258741	0.761062
C46	C	0.946008	0.085077	0.761041
C47	C	0.946001	0.085072	0.674496
C48	C	0.894993	0.171900	0.631235
C49	C	0.894988	0.171899	0.537391
C50	C	0.894989	0.171891	0.462593
H51	H	0.506834	0.386167	0.000004
O52	O	0.794431	0.343211	0.632623
C53	C	0.749417	0.419833	0.689387
H54	H	0.780462	0.421213	0.751069
H55	H	0.738414	0.521718	0.664381
H56	H	0.692976	0.378529	0.698613
O57	O	0.290772	-0.060357	0.000011
C58	C	0.367128	-0.033340	-0.000003
H59	H	0.370696	0.066831	0.026030
H60	H	0.402485	-0.106764	0.039916
H61	H	0.389944	-0.038241	-0.065964
O62	O	0.995598	0.000668	0.367364
C63	C	1.040599	-0.075984	0.310603
H64	H	1.041718	-0.023695	0.248905
H65	H	1.100938	-0.095536	0.335590
H66	H	1.015530	-0.170703	0.301414
H67	H	0.960085	-0.422550	0.125063
H68	H	0.802452	0.329414	0.360729
H69	H	0.252691	0.379344	-0.000018
H70	H	1.029023	-0.278337	-0.000084
H71	H	0.139900	-0.046229	-0.000034
H72	H	0.987499	0.014343	0.203685
O73	O	0.995622	0.000665	0.802938
C74	C	1.040615	-0.075996	0.746175
H75	H	1.041748	-0.023698	0.684482
H76	H	1.100951	-0.095583	0.771167
H77	H	1.015529	-0.170697	0.736976
H78	H	0.650081	0.390014	0.000008
H79	H	0.802487	0.329455	0.796302
H80	H	0.829915	-0.233613	0.125067
O81	O	0.824077	-0.225424	-0.136258
C82	C	0.747759	-0.252644	-0.136428
H83	H	0.729444	-0.272908	-0.070574
H84	H	0.710095	-0.166825	-0.162075
H85	H	0.742025	-0.340206	-0.176772
O86	O	0.995374	0.000481	0.632429
C87	C	0.954311	-0.078129	0.582498
H88	H	0.895419	-0.027038	0.569481
H89	H	0.985778	-0.098673	0.521657
H90	H	0.948533	-0.172240	0.615978
H91	H	0.802439	0.329414	0.203714
O92	O	0.965798	-0.430921	-0.136262
C93	C	0.929230	-0.377576	-0.207625
H94	H	0.897526	-0.280317	-0.191825
H95	H	0.973384	-0.365000	-0.257457
H96	H	0.887212	-0.444274	-0.231298
H97	H	0.109457	0.375498	-0.000005
O98	O	0.749055	-0.382255	-0.000200
C99	C	0.735978	-0.454980	-0.071084
H100	H	0.792247	-0.505093	-0.094427
H101	H	0.696124	-0.529755	-0.054787
H102	H	0.708990	-0.388903	-0.121355
O103	O	0.687942	-0.049919	-0.000050
C104	C	0.643576	-0.153898	-0.000044
H105	H	0.584837	-0.121338	-0.026075
H106	H	0.672268	-0.234555	-0.039968
H107	H	0.637749	-0.189880	0.065915
H108	H	0.537288	-0.035561	-0.000018
