data_functionalizedCrystal
_audit_creation_method	'MofGen! by Chris Wilmer'
_symmetry_space_group_name_H-M	'P1'
_symmetry_Int_Tables_number	1
_symmetry_cell_setting	triclinic
loop_
_symmetry_equiv_pos_as_xyz
  x,y,z
_cell_length_a	12.645331
_cell_length_b	12.759400
_cell_length_c	12.759393
_cell_angle_alpha	90.031564
_cell_angle_beta	89.978122
_cell_angle_gamma	89.986337
loop_
_atom_site_label
_atom_site_type_symbol
_atom_site_fract_x
_atom_site_fract_y
_atom_site_fract_z
Zn1	Zn	1.620745	0.418233	-0.594076
Zn2	Zn	1.620639	0.593952	-0.418396
Zn3	Zn	1.443462	0.418284	-0.418405
Zn4	Zn	1.443451	0.593867	-0.594027
O5	O	1.532074	0.506084	-0.506226
O6	O	1.769078	0.441556	-0.570789
O7	O	1.597096	0.570706	-0.271376
O8	O	1.467028	0.271256	-0.441732
O9	O	1.769000	0.570656	-0.441717
O10	O	1.597277	0.271219	-0.570797
O11	O	1.466925	0.441644	-0.271383
O12	O	1.295113	0.441562	-0.441685
O13	O	1.467009	0.570512	-0.741055
O14	O	1.295105	0.570562	-0.570714
O15	O	1.597266	0.441474	-0.741091
O16	O	1.597085	0.740962	-0.441670
O17	O	1.466906	0.740900	-0.570705
C18	C	1.532011	0.779051	-0.506204
C19	C	1.532081	0.895828	-0.506230
C20	C	1.256644	0.506059	-0.506196
C21	C	1.138814	0.506074	-0.506208
C22	C	1.532148	0.505978	-0.780260
C23	C	1.532180	0.505933	-0.897036
C24	C	0.971220	0.424546	-0.425484
C25	C	1.093780	0.424757	-0.425128
C26	C	1.094300	0.616752	-0.475963
C27	C	0.971702	0.616307	-0.475412
C28	C	0.971662	0.477976	-0.617489
C29	C	1.094268	0.475504	-0.616871
C30	C	1.808579	0.506110	-0.506257
C31	C	1.926409	0.506121	-0.506271
C32	C	1.532166	0.232051	-0.506271
C33	C	1.532205	0.115274	-0.506290
C34	C	1.599941	0.950687	-0.439116
C35	C	1.600006	1.060412	-0.439148
C36	C	1.464343	1.060407	-0.573412
C37	C	1.464284	0.950685	-0.573384
C38	C	1.678262	0.950691	-0.361596
C39	C	1.678327	1.060415	-0.361628
C40	C	1.600014	0.438737	-0.951919
C41	C	1.600040	0.438699	-1.061643
C42	C	1.464393	0.573062	-1.061593
C43	C	1.464363	0.573094	-0.951871
C44	C	1.678332	0.361166	-0.951949
C45	C	1.678357	0.361128	-1.061673
C46	C	1.532061	0.506114	-0.233259
C47	C	1.532235	0.505863	-0.116483
H48	H	1.123876	0.342685	-0.444085
H49	H	1.123472	0.679156	-0.532957
C50	C	1.789271	0.390581	-1.101913
N51	N	1.872808	0.412767	-1.132222
H52	H	1.409177	0.627741	-1.106252
H53	H	0.943059	0.640173	-0.394106
C54	C	1.389763	1.120760	-0.647271
N55	N	1.333585	1.166216	-0.702900
C56	C	1.648650	0.251250	-0.911743
N57	N	1.626291	0.168464	-0.881460
H58	H	1.409122	0.627808	-0.907189
H59	H	1.756301	0.390336	-0.917917
C60	C	1.638722	0.256670	-1.107673
N61	N	1.608880	0.177989	-1.142322
H62	H	0.942685	0.537391	-0.677682
C63	C	0.931405	0.313335	-0.450814
N64	N	0.901408	0.229567	-0.469893
H65	H	0.942060	0.679144	-0.531688
H66	H	1.124958	0.641029	-0.395529
H67	H	1.756328	1.094361	-0.390845
C68	C	0.929926	0.370841	-0.654643
N69	N	0.898493	0.290141	-0.682614
C70	C	1.133566	0.365465	-0.647677
N71	N	1.163168	0.282582	-0.670875
C72	C	1.135678	0.549921	-0.702539
N73	N	1.166865	0.605983	-0.767061
H74	H	0.940374	0.442943	-0.343551
H75	H	1.656393	1.090277	-0.280246
H76	H	1.123060	0.443360	-0.342711
H77	H	1.648874	0.916743	-0.284268
C78	C	1.389684	0.890343	-0.647265
N79	N	1.333507	0.844894	-0.702930
C80	C	1.789141	0.910352	-0.391125
N81	N	1.872653	0.879968	-0.413367
