data_functionalizedCrystal
_audit_creation_method	'MofGen! by Chris Wilmer'
_symmetry_space_group_name_H-M	'P1'
_symmetry_Int_Tables_number	1
_symmetry_cell_setting	triclinic
loop_
_symmetry_equiv_pos_as_xyz
  x,y,z
_cell_length_a	11.792241
_cell_length_b	10.654550
_cell_length_c	10.268362
_cell_angle_alpha	90.001331
_cell_angle_beta	89.994572
_cell_angle_gamma	95.660827
loop_
_atom_site_label
_atom_site_type_symbol
_atom_site_fract_x
_atom_site_fract_y
_atom_site_fract_z
O1	O	0.159421	-1.667390	-0.108204
O2	O	0.492754	-1.334057	0.225130
O3	O	0.826088	-1.000724	0.558463
O4	O	0.174609	-1.301869	-0.108228
O5	O	0.507943	-0.968536	0.225106
O6	O	0.841276	-0.635202	0.558439
O7	O	0.001865	-1.493500	-0.108206
O8	O	0.335198	-1.160166	0.225127
O9	O	0.668532	-0.826833	0.558461
O10	O	0.332165	-1.475759	-0.108225
O11	O	0.665499	-1.142426	0.225108
O12	O	0.998832	-0.809093	0.558441
O13	O	0.001858	-1.493483	0.108395
O14	O	0.335191	-1.160150	0.441728
O15	O	0.668525	-0.826816	0.775061
O16	O	0.174602	-1.301852	0.108373
O17	O	0.507935	-0.968519	0.441706
O18	O	0.841269	-0.635185	0.775040
O19	O	0.159414	-1.667374	0.108397
O20	O	0.492747	-1.334040	0.441730
O21	O	0.826080	-1.000707	0.775064
Cu22	Cu	0.167007	-1.484611	0.128162
Cu23	Cu	0.500341	-1.151278	0.461496
Cu24	Cu	0.833674	-0.817945	0.794829
Cu25	Cu	0.167016	-1.484631	-0.127993
Cu26	Cu	0.500349	-1.151298	0.205340
Cu27	Cu	0.833683	-0.817964	0.538674
O28	O	0.332158	-1.475743	0.108375
O29	O	0.665491	-1.142409	0.441709
O30	O	0.998825	-0.809076	0.775042
C31	C	-0.040432	-1.492377	0.000094
C32	C	0.292901	-1.159044	0.333427
C33	C	0.626235	-0.825710	0.666761
C34	C	-0.166453	-1.489042	0.000092
C35	C	0.166880	-1.155708	0.333426
C36	C	0.500213	-0.822375	0.666759
C37	C	0.173491	-1.255066	0.000070
C38	C	0.506824	-0.921732	0.333403
C39	C	0.840157	-0.588399	0.666736
C40	C	0.170154	-1.115632	0.000061
C41	C	0.503487	-0.782299	0.333394
C42	C	0.836821	-0.448965	0.666727
C43	C	0.160533	-1.714177	0.000097
C44	C	0.493866	-1.380843	0.333430
C45	C	0.827199	-1.047510	0.666763
C46	C	0.163869	-1.853611	0.000097
C47	C	0.497202	-1.520277	0.333431
C48	C	0.830536	-1.186944	0.666764
C49	C	-0.397180	-1.482908	0.000070
C50	C	-0.063846	-1.149575	0.333404
C51	C	0.269487	-0.816242	0.666737
C52	C	-0.268787	-1.486316	0.000082
C53	C	0.064547	-1.152983	0.333416
C54	C	0.397880	-0.819649	0.666749
C55	C	0.374455	-1.476865	0.000073
C56	C	0.707788	-1.143532	0.333406
C57	C	1.041122	-0.810199	0.666739
C58	C	0.500477	-1.480201	0.000066
C59	C	0.833810	-1.146867	0.333399
C60	C	1.167143	-0.813534	0.666732
N61	N	0.167001	-1.484606	0.308328
N62	N	0.500334	-1.151273	0.641662
N63	N	0.833667	-0.817940	0.974995
C64	C	0.271863	-1.035859	0.000059
C65	C	0.605196	-0.702525	0.333392
C66	C	0.938530	-0.369192	0.666725
C67	C	0.268721	-0.904847	0.000081
C68	C	0.602055	-0.571513	0.333415
C69	C	0.935388	-0.238180	0.666748
C70	C	0.062152	-0.933394	0.000103
C71	C	0.395486	-0.600061	0.333437
C72	C	0.728819	-0.266727	0.666770
C73	C	0.065295	-1.064403	0.000090
C74	C	0.398629	-0.731070	0.333423
C75	C	0.731962	-0.397737	0.666756
N76	N	0.167014	-1.484646	-0.308159
N77	N	0.500347	-1.151312	0.025174
N78	N	0.833680	-0.817979	0.358508
C79	C	0.167014	-1.484625	0.573999
C80	C	0.500347	-1.151291	0.907332
C81	C	0.833680	-0.817958	1.240665
C82	C	0.167010	-1.484611	0.426161
C83	C	0.500343	-1.151277	0.759494
C84	C	0.833676	-0.817944	1.092828
H85	H	0.357246	-1.077564	0.000045
H86	H	0.690579	-0.744231	0.333378
H87	H	1.023912	-0.410897	0.666711
O88	O	-0.050943	-0.878143	0.000125
O89	O	0.282390	-0.544809	0.333459
O90	O	0.615723	-0.211476	0.666792
H91	H	-0.036044	-0.773641	0.000122
H92	H	0.297289	-0.440308	0.333455
H93	H	0.630623	-0.106974	0.666789
O94	O	0.378426	-0.818810	0.000084
O95	O	0.711760	-0.485477	0.333417
O96	O	1.045093	-0.152144	0.666750
H97	H	0.358630	-0.719103	0.000115
H98	H	0.691963	-0.385770	0.333449
H99	H	1.025297	-0.052436	0.666782
O100	O	-0.044409	-1.150460	0.000095
O101	O	0.288924	-0.817127	0.333428
O102	O	0.622257	-0.483794	0.666762
H103	H	-0.117852	-1.092831	0.000100
H104	H	0.215481	-0.759498	0.333433
H105	H	0.548814	-0.426164	0.666766
