data_functionalizedCrystal
_audit_creation_method	'MofGen! by Chris Wilmer'
_symmetry_space_group_name_H-M	'P1'
_symmetry_Int_Tables_number	1
_symmetry_cell_setting	triclinic
loop_
_symmetry_equiv_pos_as_xyz
  x,y,z
_cell_length_a	12.594509
_cell_length_b	19.805407
_cell_length_c	19.805405
_cell_angle_alpha	89.977124
_cell_angle_beta	89.967983
_cell_angle_gamma	90.021584
loop_
_atom_site_label
_atom_site_type_symbol
_atom_site_fract_x
_atom_site_fract_y
_atom_site_fract_z
Zn1	Zn	-0.601839	-1.034750	-0.269512
Zn2	Zn	-0.423849	-1.034660	-0.382711
Zn3	Zn	-0.423867	-0.921560	-0.269534
Zn4	Zn	-0.601778	-0.921528	-0.382657
O5	O	-0.512833	-0.978124	-0.326104
O6	O	-0.578246	-1.129455	-0.284542
O7	O	-0.274906	-1.019632	-0.367730
O8	O	-0.447509	-0.936626	-0.174815
O9	O	-0.447478	-1.129388	-0.367709
O10	O	-0.578264	-1.019787	-0.174799
O11	O	-0.274919	-0.936539	-0.284579
O12	O	-0.447450	-0.826839	-0.284526
O13	O	-0.750732	-0.936571	-0.367616
O14	O	-0.578160	-0.826815	-0.367637
O15	O	-0.750777	-1.019755	-0.284489
O16	O	-0.447418	-1.019601	-0.477421
O17	O	-0.578142	-0.936483	-0.477381
C18	C	-0.512801	-0.802268	-0.326079
C19	C	-0.512812	-0.727036	-0.326085
C20	C	-0.581006	-0.691727	-0.282856
C21	C	-0.581007	-0.621039	-0.282858
C22	C	-0.512820	-0.585661	-0.326093
C23	C	-0.444619	-0.620975	-0.369324
C24	C	-0.444613	-0.691662	-0.369318
C25	C	-0.444640	-0.335901	-0.369348
C26	C	-0.444654	-0.265209	-0.369353
C27	C	-0.581035	-0.265279	-0.282888
C28	C	-0.581029	-0.335966	-0.282882
C29	C	-0.512824	-0.371273	-0.326110
C30	C	-0.512822	-0.447922	-0.326107
C31	C	-0.512826	-0.509014	-0.326100
C32	C	-0.790454	-0.978170	-0.326044
C33	C	-0.908760	-0.978189	-0.326019
C34	C	-0.977989	-0.932959	-0.371206
C35	C	-1.048778	-0.994717	-0.387748
C36	C	-1.048770	-0.916480	-0.309436
C37	C	-0.977991	-1.039978	-0.342593
C38	C	-0.977977	-0.961700	-0.264253
C39	C	-1.048734	-1.023500	-0.280771
C40	C	-0.236292	-0.978118	-0.326114
C41	C	-0.117988	-0.978230	-0.325948
C42	C	-0.512795	-0.978047	-0.501960
C43	C	-0.512814	-0.978076	-0.577192
C44	C	-0.512857	-0.154667	-0.326124
C45	C	-0.512843	-0.229899	-0.326120
C46	C	-0.580952	-1.021352	-0.612469
C47	C	-0.580971	-1.021377	-0.683158
C48	C	-0.512847	-0.978128	-0.718567
C49	C	-0.444707	-0.934847	-0.683285
C50	C	-0.444693	-0.934820	-0.612598
C51	C	-0.444761	-0.934956	-0.968358
C52	C	-0.444778	-0.934988	-1.039050
C53	C	-0.581040	-1.021513	-1.038918
C54	C	-0.581026	-1.021485	-0.968231
C55	C	-0.512890	-0.978202	-0.932955
C56	C	-0.512871	-0.978175	-0.856306
C57	C	-0.512861	-0.978158	-0.795214
C58	C	-0.512895	-0.978220	-0.149561
C59	C	-0.512922	-0.978261	-0.074329
H60	H	-0.636566	-0.236523	-0.247687
H61	H	-1.079600	-1.061811	-0.242528
C62	C	-0.715826	-0.628208	-0.197395
C63	C	-0.655971	-0.582228	-0.235340
H64	H	-0.762110	-0.604246	-0.168062
H65	H	-0.669525	-0.655774	-0.171468
H66	H	-0.756451	-0.655779	-0.226925
H67	H	-0.615339	-0.554659	-0.205811
H68	H	-0.702278	-0.554650	-0.261270
C69	C	-0.971608	-0.878121	-0.176574
C70	C	-0.935944	-0.942819	-0.193803
H71	H	-0.945649	-0.866459	-0.133083
H72	H	-1.047015	-0.877595	-0.176133
H73	H	-0.946327	-0.846432	-0.208818
H74	H	-0.961231	-0.974509	-0.161562
H75	H	-0.860521	-0.943350	-0.194239
H76	H	-0.636558	-0.364767	-0.247678
H77	H	-0.389123	-0.236406	-0.404562
H78	H	-0.389082	-0.720409	-0.404519
C79	C	-0.429891	-0.843981	-1.118630
C80	C	-0.369900	-0.887440	-1.077975
H81	H	-0.383665	-0.814632	-1.142663
H82	H	-0.476215	-0.818068	-1.091054
H83	H	-0.470466	-0.869772	-1.149752
H84	H	-0.329331	-0.861650	-1.046849
H85	H	-0.323557	-0.913356	-1.105553
C86	C	-0.309836	-0.328722	-0.454819
C87	C	-0.369677	-0.374705	-0.416868
H88	H	-0.263560	-0.352682	-0.484159
H89	H	-0.269214	-0.301150	-0.425299
H90	H	-0.356155	-0.301157	-0.480746
H91	H	-0.323358	-0.402268	-0.390937
H92	H	-0.410302	-0.402289	-0.446392
H93	H	-1.079878	-1.008685	-0.439952
H94	H	-1.079861	-0.864276	-0.295440
C95	C	-0.384076	-0.512587	-0.407731
C96	C	-0.369666	-0.582088	-0.416850
H97	H	-0.337807	-0.488583	-0.437077
H98	H	-0.368624	-0.501015	-0.362249
H99	H	-0.455567	-0.501027	-0.417695
H100	H	-0.298176	-0.593649	-0.406882
H101	H	-0.385111	-0.593665	-0.462343
H102	H	-0.389281	-0.899715	-0.939641
H103	H	-0.946927	-0.894740	-0.409479
H104	H	-0.947031	-1.092197	-0.356649
C105	C	-0.633075	-1.136116	-1.060568
C106	C	-0.655955	-1.069083	-1.077694
H107	H	-0.679321	-1.165482	-1.084508
H108	H	-0.642810	-1.142283	-1.013407
H109	H	-0.561578	-1.146045	-1.072186
H110	H	-0.727450	-1.059152	-1.066071
H111	H	-0.646229	-1.062913	-1.124865
H112	H	-0.636448	-1.056621	-0.711878
C113	C	-0.715659	-1.106875	-0.619447
C114	C	-0.655843	-1.068889	-0.573551
H115	H	-0.761902	-1.136217	-0.595420
H116	H	-0.669331	-1.132794	-0.647013
H117	H	-0.756326	-1.077371	-0.647026
H118	H	-0.615170	-1.098393	-0.545975
H119	H	-0.702178	-1.042968	-0.545972
C120	C	-0.761302	-1.054378	-0.946358
C121	C	-0.655913	-1.069023	-0.929308
H122	H	-0.807535	-1.083722	-0.922326
H123	H	-0.771055	-1.060592	-0.993500
H124	H	-0.776792	-1.008888	-0.934801
H125	H	-0.640420	-1.114511	-0.940871
H126	H	-0.646154	-1.062814	-0.882156
C127	C	-0.429799	-0.843842	-0.762864
C128	C	-0.369823	-0.887309	-0.722207
H129	H	-0.383563	-0.814498	-0.786895
H130	H	-0.476119	-0.817924	-0.735290
H131	H	-0.470378	-0.869628	-0.793988
H132	H	-0.329250	-0.861523	-0.691080
H133	H	-0.323484	-0.913229	-0.749784
C134	C	-0.724206	-0.771260	-0.273557
C135	C	-0.655963	-0.730612	-0.235331
H136	H	-0.770485	-0.795260	-0.244214
H137	H	-0.683593	-0.802404	-0.299295
H138	H	-0.764835	-0.743677	-0.303078
H139	H	-0.615328	-0.758195	-0.205813
H140	H	-0.696581	-0.699464	-0.209581
C141	C	-0.310000	-0.849295	-0.619823
C142	C	-0.369794	-0.887249	-0.573818
H143	H	-0.263759	-0.819927	-0.595881
H144	H	-0.356342	-0.823403	-0.647395
H145	H	-0.269332	-0.878817	-0.647388
H146	H	-0.410469	-0.857728	-0.546257
H147	H	-0.323446	-0.913143	-0.546235
