data_functionalizedCrystal
_audit_creation_method	'MofGen! by Chris Wilmer'
_symmetry_space_group_name_H-M	'P1'
_symmetry_Int_Tables_number	1
_symmetry_cell_setting	triclinic
loop_
_symmetry_equiv_pos_as_xyz
  x,y,z
_cell_length_a	8.559649
_cell_length_b	17.699083
_cell_length_c	16.176319
_cell_angle_alpha	90.001389
_cell_angle_beta	89.994559
_cell_angle_gamma	103.469160
loop_
_atom_site_label
_atom_site_type_symbol
_atom_site_fract_x
_atom_site_fract_y
_atom_site_fract_z
O1	O	0.202110	-0.992507	-0.068628
O2	O	0.702110	-0.492507	0.431372
O3	O	0.228405	-0.770623	-0.068655
O4	O	0.728405	-0.270623	0.431345
O5	O	-0.017421	-0.901113	-0.068638
O6	O	0.482579	-0.401113	0.431362
O7	O	0.447935	-0.862017	-0.068645
O8	O	0.947935	-0.362017	0.431355
O9	O	-0.017436	-0.901098	0.068855
O10	O	0.482564	-0.401098	0.568855
O11	O	0.228389	-0.770608	0.068838
O12	O	0.728389	-0.270608	0.568838
O13	O	0.202094	-0.992492	0.068865
O14	O	0.702094	-0.492492	0.568865
Cu15	Cu	0.215240	-0.881549	0.081406
Cu16	Cu	0.715240	-0.381549	0.581406
Cu17	Cu	0.215259	-0.881566	-0.081196
Cu18	Cu	0.715259	-0.381566	0.418804
O19	O	0.447920	-0.862002	0.068849
O20	O	0.947920	-0.362002	0.568849
C21	C	0.227455	-0.742473	0.000088
C22	C	0.727455	-0.242473	0.500088
C23	C	0.224628	-0.658616	0.000078
C24	C	0.724628	-0.158616	0.500078
C25	C	-0.076970	-0.904069	0.000107
C26	C	0.423030	-0.404069	0.500107
C27	C	-0.254384	-0.912888	0.000104
C28	C	0.245616	-0.412888	0.500104
C29	C	0.203044	-1.020643	0.000120
C30	C	0.703044	-0.520643	0.500120
C31	C	0.205871	-1.104499	0.000125
C32	C	0.705871	-0.604499	0.500125
C33	C	0.507469	-0.859047	0.000101
C34	C	1.007469	-0.359047	0.500101
C35	C	0.684883	-0.850227	0.000099
C36	C	1.184883	-0.350227	0.500099
N37	N	0.215226	-0.881542	0.195771
N38	N	0.715226	-0.381542	0.695771
C39	C	0.368922	-0.601734	0.000076
C40	C	0.868922	-0.101734	0.500076
C41	C	0.366257	-0.522943	0.000087
C42	C	0.866257	-0.022943	0.500087
C43	C	0.219296	-0.501037	0.000094
C44	C	0.719296	-0.001037	0.500094
C45	C	0.074990	-0.557926	0.000098
C46	C	0.574990	-0.057926	0.500098
C47	C	0.077657	-0.636715	0.000093
C48	C	0.577657	-0.136715	0.500093
C49	C	0.064231	-0.240179	0.000118
C50	C	0.564231	0.259821	0.500118
C51	C	0.061575	-0.161383	0.000121
C52	C	0.561575	0.338617	0.500121
C53	C	0.352831	-0.126407	0.000112
C54	C	0.852831	0.373593	0.500112
C55	C	0.355498	-0.205196	0.000108
C56	C	0.855498	0.294804	0.500108
C57	C	0.211193	-0.262078	0.000116
C58	C	0.711193	0.237922	0.500116
C59	C	0.214085	-0.347512	0.000106
C60	C	0.714085	0.152488	0.500106
C61	C	0.216402	-0.415605	0.000098
C62	C	0.716402	0.084395	0.500098
N63	N	0.215260	-0.881580	-0.195561
N64	N	0.715260	-0.381580	0.304439
C65	C	0.106419	-0.939336	0.239043
C66	C	0.606419	-0.439336	0.739043
C67	C	0.106417	-0.939340	0.325590
C68	C	0.606417	-0.439340	0.825590
C69	C	0.215232	-0.881552	0.368864
C70	C	0.715232	-0.381552	0.868864
C71	C	0.324044	-0.823752	0.325586
C72	C	0.824044	-0.323752	0.825586
C73	C	0.324037	-0.823746	0.239041
C74	C	0.824037	-0.323746	0.739041
C75	C	0.324074	-0.823776	0.674614
C76	C	0.824074	-0.323776	1.174614
C77	C	0.324076	-0.823789	0.761166
C78	C	0.824076	-0.323789	1.261166
C79	C	0.106455	-0.939370	0.761164
C80	C	0.606455	-0.439370	1.261164
C81	C	0.106447	-0.939364	0.674618
C82	C	0.606447	-0.439364	1.174618
C83	C	0.215253	-0.881562	0.631348
C84	C	0.715253	-0.381562	1.131348
C85	C	0.215252	-0.881558	0.537504
C86	C	0.715252	-0.381558	1.037504
C87	C	0.215242	-0.881559	0.462706
C88	C	0.715242	-0.381559	0.962706
H89	H	-0.231386	-0.789834	0.000095
H90	H	0.268614	-0.289834	0.500095
N91	N	-0.010883	-1.001697	0.372262
N92	N	0.489117	-0.501697	0.872262
H93	H	-0.079791	-1.038314	0.331716
H94	H	0.420209	-0.538314	0.831716
H95	H	0.050285	-1.031585	0.408146
H96	H	0.550285	-0.531585	0.908146
H97	H	-0.338124	-0.973285	0.000118
H98	H	0.161876	-0.473285	0.500118
N99	N	0.527440	-0.625352	0.000062
N100	N	1.027440	-0.125352	0.500062
H101	H	0.590638	-0.603996	0.051030
H102	H	1.090638	-0.103996	0.551030
H103	H	0.507112	-0.683898	0.000025
H104	H	1.007112	-0.183898	0.500025
N105	N	-0.091416	-0.301516	0.000128
N106	N	0.408584	0.198484	0.500128
H107	H	-0.155540	-0.295447	-0.050839
H108	H	0.344460	0.204553	0.449161
H109	H	-0.067320	-0.354728	0.000161
H110	H	0.432680	0.145272	0.500161
N111	N	0.441436	-0.761448	0.627943
N112	N	0.941436	-0.261448	1.127943
H113	H	0.380449	-0.731480	0.592046
H114	H	0.880449	-0.231480	1.092046
H115	H	0.510352	-0.724895	0.668538
H116	H	1.010352	-0.224895	1.168538
N117	N	0.441397	-0.761423	0.372262
N118	N	0.941397	-0.261423	0.872262
H119	H	0.512091	-0.786235	0.408159
H120	H	1.012091	-0.286235	0.908159
H121	H	0.510216	-0.724826	0.331666
H122	H	1.010216	-0.224826	0.831666
N123	N	-0.010911	-1.001688	0.627938
N124	N	0.489089	-0.501688	1.127938
H125	H	0.007347	-1.054343	0.642988
H126	H	0.507347	-0.554343	1.142988
H127	H	-0.124268	-0.999497	0.643025
H128	H	0.375732	-0.499497	1.143025
N129	N	0.521888	-0.461590	0.000179
N130	N	1.021888	0.038410	0.500179
H131	H	0.615391	-0.487424	0.000199
H132	H	1.115391	0.012576	0.500199
H133	H	0.527250	-0.428086	-0.050758
H134	H	1.027250	0.071914	0.449242
N135	N	0.514004	-0.228824	0.000089
N136	N	1.014004	0.271176	0.500089
H137	H	0.605013	-0.180833	0.000090
H138	H	1.105013	0.319167	0.500090
H139	H	0.521454	-0.260756	0.051056
H140	H	1.021454	0.239244	0.551056
N141	N	-0.010908	-1.001711	0.807838
N142	N	0.489092	-0.501711	1.307838
H143	H	-0.124321	-0.999596	0.792783
H144	H	0.375679	-0.499596	1.292783
H145	H	0.007512	-1.054326	0.792747
H146	H	0.507512	-0.554326	1.292747
H147	H	0.470330	-0.080083	0.000110
H148	H	0.970330	0.419917	0.500110
H149	H	-0.058106	-0.143552	0.000127
H150	H	0.441894	0.356448	0.500127
H151	H	-0.044668	-0.540084	0.000115
H152	H	0.455332	-0.040084	0.500115
H153	H	0.017817	-0.986396	0.203815
H154	H	0.517817	-0.486396	0.703815
H155	H	0.412636	-0.776683	0.203810
H156	H	0.912636	-0.276683	0.703810
N157	N	-0.077973	-0.698071	0.000101
N158	N	0.422027	-0.198071	0.500101
H159	H	-0.171479	-0.672239	0.000106
H160	H	0.328521	-0.172239	0.500106
H161	H	-0.083212	-0.731524	-0.050869
H162	H	0.416788	-0.231524	0.449131
H163	H	0.412689	-0.776728	0.796398
H164	H	0.912689	-0.276728	1.296398
