data_functionalizedCrystal
_audit_creation_method	'MofGen! by Chris Wilmer'
_symmetry_space_group_name_H-M	'P1'
_symmetry_Int_Tables_number	1
_symmetry_cell_setting	triclinic
loop_
_symmetry_equiv_pos_as_xyz
  x,y,z
_cell_length_a	12.759401
_cell_length_b	18.215405
_cell_length_c	12.759393
_cell_angle_alpha	89.962381
_cell_angle_beta	89.980163
_cell_angle_gamma	90.026410
loop_
_atom_site_label
_atom_site_type_symbol
_atom_site_fract_x
_atom_site_fract_y
_atom_site_fract_z
Zn1	Zn	1.606181	-0.292911	-0.593976
Zn2	Zn	1.606044	-0.415997	-0.418278
Zn3	Zn	1.430483	-0.292952	-0.418311
Zn4	Zn	1.430440	-0.415943	-0.593915
O5	O	1.518287	-0.354451	-0.506120
O6	O	1.753183	-0.309243	-0.570681
O7	O	1.582716	-0.399715	-0.271261
O8	O	1.453865	-0.189962	-0.441653
O9	O	1.753083	-0.399674	-0.441596
O10	O	1.582949	-0.189932	-0.570714
O11	O	1.453732	-0.309314	-0.271286
O12	O	1.283456	-0.309262	-0.441594
O13	O	1.453792	-0.399583	-0.740944
O14	O	1.283425	-0.399623	-0.570609
O15	O	1.582908	-0.309191	-0.740989
O16	O	1.582674	-0.518974	-0.441537
O17	O	1.453659	-0.518935	-0.570577
C18	C	1.245319	-0.354442	-0.506099
C19	C	1.128543	-0.354456	-0.506115
C20	C	1.073692	-0.401578	-0.573188
C21	C	0.963968	-0.401581	-0.573209
C22	C	0.963955	-0.307337	-0.439076
C23	C	1.073677	-0.307331	-0.439061
C24	C	1.518176	-0.545657	-0.506070
C25	C	1.518224	-0.627456	-0.506083
C26	C	1.585561	-0.815646	-0.439016
C27	C	1.585608	-0.892505	-0.439041
C28	C	1.451147	-0.892503	-0.573300
C29	C	1.451107	-0.815646	-0.573279
C30	C	1.518312	-0.777219	-0.506131
C31	C	1.518399	-0.930935	-0.506178
C32	C	1.518450	-1.014269	-0.506206
C33	C	1.518263	-0.693880	-0.506104
C34	C	1.792320	-0.354460	-0.506142
C35	C	1.909097	-0.354464	-0.506151
C36	C	1.518360	-0.354376	-0.780154
C37	C	1.518391	-0.354345	-0.896930
C38	C	1.518427	-0.162498	-0.506194
C39	C	1.518486	-0.080699	-0.506225
C40	C	1.451254	-0.307264	-0.951805
C41	C	1.451278	-0.307242	-1.061529
C42	C	1.585587	-0.401382	-1.061495
C43	C	1.585557	-0.401407	-0.951773
C44	C	1.518274	-0.354472	-0.233153
C45	C	1.518446	-0.354296	-0.116377
H46	H	0.919313	-0.439952	-0.627827
C47	C	0.903593	-0.255506	-0.365314
N48	N	0.858129	-0.216468	-0.309752
C49	C	1.134017	-0.255490	-0.365272
N50	N	1.179464	-0.216444	-0.309697
H51	H	1.640272	-0.439698	-1.106161
C52	C	1.659437	-0.453188	-0.891407
N53	N	1.715086	-0.492184	-0.845940
H54	H	1.118360	-0.439949	-0.627791
C55	C	1.377361	-0.255500	-0.891482
N56	N	1.321700	-0.216512	-0.846050
H57	H	1.640370	-0.923788	-0.384391
H58	H	1.640284	-0.784361	-0.384341
H59	H	1.396430	-0.923800	-0.627968
H60	H	1.396344	-0.784357	-0.627938
H61	H	1.396607	-0.268905	-1.106203
