data_functionalizedCrystal
_audit_creation_method	'MofGen! by Chris Wilmer'
_symmetry_space_group_name_H-M	'P1'
_symmetry_Int_Tables_number	1
_symmetry_cell_setting	triclinic
loop_
_symmetry_equiv_pos_as_xyz
  x,y,z
_cell_length_a	6.817900
_cell_length_b	11.168121
_cell_length_c	11.102193
_cell_angle_alpha	91.985837
_cell_angle_beta	108.604059
_cell_angle_gamma	108.508496
loop_
_atom_site_label
_atom_site_type_symbol
_atom_site_fract_x
_atom_site_fract_y
_atom_site_fract_z
V1	V	-4.111009	-0.174714	-0.396268
O2	O	-4.070572	0.008386	-0.388714
O3	O	-4.087289	-0.346419	-0.393568
O4	O	-4.087791	-0.172030	-0.569089
O5	O	-4.070066	-0.167209	-0.211978
V6	V	-4.588176	-0.152812	-0.374224
O7	O	-4.386209	-0.222756	-0.444623
O8	O	-4.763172	-0.104770	-0.325869
O9	O	-4.388689	0.018893	-0.376924
O10	O	-4.746009	-0.335912	-0.381778
O11	O	-4.746515	-0.160317	-0.558515
O12	O	-4.388187	-0.155496	-0.201403
C13	C	-3.937478	-0.388277	-0.387320
C14	C	-3.999539	-0.528648	-0.386264
C15	C	-4.202064	-0.597341	-0.391822
C16	C	-4.266211	-0.742422	-0.390731
C17	C	-3.938117	-0.165825	-0.611213
C18	C	-4.000581	-0.164767	-0.752495
C19	C	-4.120240	-0.396044	-0.788836
C20	C	-4.209406	-0.511180	-0.873379
C21	C	-4.268095	-0.510179	-1.006125
C22	C	-4.237619	-0.394029	-1.054329
C23	C	-4.148453	-0.278893	-0.969786
C24	C	-4.089763	-0.279907	-0.837039
C25	C	-4.028810	-0.047620	-0.933446
C26	C	-3.970105	-0.048618	-0.800699
C27	C	-3.998334	0.068529	-0.981650
C28	C	-3.909152	0.183668	-0.897106
C29	C	-3.850459	0.182663	-0.764353
C30	C	-3.880939	0.066518	-0.716156
C31	C	-4.201842	0.060744	-0.383169
C32	C	-4.119021	0.201114	-0.384233
C33	C	-4.201202	-0.161705	-0.159273
C34	C	-4.117976	-0.162756	-0.017989
H35	H	-3.945518	-0.739842	-0.379471
C36	C	-3.816381	0.065413	-0.570141
H37	H	-3.758901	0.150616	-0.526689
H38	H	-3.942910	0.018433	-0.550963
H39	H	-3.707468	0.026521	-0.542683
C40	C	-4.366182	-0.636820	-1.099130
H41	H	-4.396780	-0.619582	-1.185090
H42	H	-4.263443	-0.680467	-1.080705
H43	H	-4.498876	-0.688535	-1.088985
H44	H	-4.439699	-0.801470	-0.395474
C45	C	-3.829440	-0.594281	-0.378748
H46	H	-3.694064	-0.532371	-0.375411
H47	H	-3.806192	-0.633941	-0.303646
H48	H	-3.883112	-0.657009	-0.452571
C49	C	-4.055695	-0.397151	-0.642821
H50	H	-4.086630	-0.482811	-0.626221
H51	H	-3.902616	-0.350627	-0.601932
H52	H	-4.138068	-0.358716	-0.610232
C53	C	-4.242945	-0.638938	-0.820359
H54	H	-4.304476	-0.707364	-0.889724
H55	H	-4.104835	-0.640108	-0.765187
H56	H	-4.340269	-0.648170	-0.773476
C57	C	-4.372155	-0.531702	-0.399337
H58	H	-4.306722	-0.442800	-0.399075
H59	H	-4.495794	-0.567437	-0.476238
H60	H	-4.418859	-0.544360	-0.327313
C61	C	-4.062884	0.069632	-1.127666
H62	H	-4.120331	-0.015570	-1.171115
H63	H	-4.171777	0.108529	-1.155132
H64	H	-3.936332	0.116609	-1.146836
C65	C	-4.302191	-0.392930	-1.200346
H66	H	-4.359655	-0.478135	-1.243792
H67	H	-4.411079	-0.354029	-1.227803
H68	H	-4.175648	-0.345961	-1.219528
H69	H	-3.884361	0.278227	-0.936367
C70	C	-3.752377	0.309315	-0.671365
H71	H	-3.742625	0.378625	-0.719091
H72	H	-3.844697	0.309694	-0.622960
H73	H	-3.609265	0.317772	-0.614691
