data_functionalizedCrystal
_audit_creation_method	'MofGen! by Chris Wilmer'
_symmetry_space_group_name_H-M	'P1'
_symmetry_Int_Tables_number	1
_symmetry_cell_setting	triclinic
loop_
_symmetry_equiv_pos_as_xyz
  x,y,z
_cell_length_a	14.809374
_cell_length_b	23.096457
_cell_length_c	14.809374
_cell_angle_alpha	52.846202
_cell_angle_beta	60.797835
_cell_angle_gamma	67.427461
loop_
_atom_site_label
_atom_site_type_symbol
_atom_site_fract_x
_atom_site_fract_y
_atom_site_fract_z
Zr1	Zr	0.684434	0.048299	1.076796
O2	O	0.740460	0.155795	0.919555
O3	O	0.549746	0.008094	1.110269
O4	O	0.549753	0.128885	1.110262
O5	O	0.874122	-0.052029	0.936324
O6	O	0.532996	0.115907	1.277451
O7	O	0.740452	0.035004	0.919562
O8	O	0.532983	-0.100166	1.277463
O9	O	0.874135	0.164044	0.936311
O10	O	0.621773	-0.009977	1.267112
O11	O	0.734035	-0.065243	1.154850
O12	O	0.734044	0.076972	1.154842
O13	O	0.846306	0.021706	1.042580
Zr14	Zr	0.870896	-0.111207	1.370176
Zr15	Zr	0.657708	0.027601	1.343443
Zr16	Zr	0.897622	-0.090509	1.103529
Zr17	Zr	0.897631	0.061455	1.103520
Zr18	Zr	0.657699	-0.124363	1.343452
O19	O	1.005584	-0.071002	1.336704
O20	O	0.702459	0.126364	1.298693
O21	O	1.043585	-0.041572	0.957566
O22	O	0.814870	-0.218703	1.527417
O23	O	0.511745	-0.021336	1.489406
O24	O	0.852871	-0.189272	1.148280
O25	O	0.681208	-0.010879	1.510649
O26	O	1.005577	-0.191793	1.336711
O27	O	1.022334	-0.178815	1.169522
O28	O	0.814877	-0.097912	1.527410
O29	O	0.852891	0.147591	1.148260
O30	O	0.702438	-0.210499	1.298712
O31	O	0.681195	-0.226952	1.510661
O32	O	0.511739	-0.116618	1.489412
O33	O	1.043591	0.053710	0.957561
O34	O	1.022347	0.037258	1.169509
O35	O	0.821286	-0.139880	1.292131
O36	O	0.709024	-0.084614	1.404393
O37	O	0.821294	0.002335	1.292122
O38	O	0.933556	-0.052931	1.179860
C39	C	0.510988	-0.047910	1.190059
C40	C	0.420481	-0.053496	1.178713
C41	C	0.324440	-0.028570	1.229345
C42	C	0.230894	-0.034342	1.217621
C43	C	0.777654	-0.221537	1.223497
C44	C	0.777650	-0.286050	1.223501
C45	C	0.860529	-0.304659	1.140632
C46	C	0.860532	-0.365271	1.140620
C47	C	0.777660	-0.407281	1.223498
C48	C	0.694767	-0.388664	1.306373
C49	C	0.694762	-0.328049	1.306375
N50	N	0.744420	-0.535488	1.329930
N51	N	0.744432	-0.593070	1.329924
C52	C	0.777670	-0.589912	1.223496
N53	N	0.810916	-0.527000	1.117070
N54	N	0.810910	-0.469414	1.117077
C55	C	0.777656	-0.473009	1.223505
C56	C	0.860557	-0.674242	1.140608
C57	C	0.860553	-0.734853	1.140594
C58	C	0.694791	-0.758249	1.306358
C59	C	0.694792	-0.697635	1.306361
C60	C	0.777680	-0.655636	1.223487
C61	C	1.044342	-0.014998	1.256914
C62	C	1.134849	-0.009412	1.268259
C63	C	0.811095	-0.005564	0.889952
C64	C	0.822441	0.003223	0.776753
C65	C	0.777676	0.158629	1.223475
C66	C	0.777680	0.223142	1.223471
C67	C	0.771806	-0.035992	0.781979
C68	C	0.783531	-0.026911	0.664984
C69	C	0.744235	-0.057345	1.557021
C70	C	0.732889	-0.066132	1.670219
C71	C	0.511000	0.142173	1.190047
C72	C	0.420496	0.201100	1.178699
C73	C	0.477558	-0.073801	1.523593
C74	C	0.375704	-0.088173	1.625447
C75	C	0.744223	-0.247428	1.557032
C76	C	0.732873	-0.320728	1.670234
C77	C	0.811106	0.184520	0.889941
C78	C	0.822456	0.257819	0.776738
C79	C	1.077772	0.010893	0.923379
C80	C	1.179625	0.025265	0.821526
C81	C	1.044330	-0.205081	1.256925
C82	C	1.134834	-0.264008	1.268274
C83	C	0.436598	0.274166	1.114765
C84	C	0.351568	0.329541	1.104108
C85	C	0.250437	0.311848	1.157378
C86	C	0.234336	0.238775	1.221319
C87	C	0.319364	0.183401	1.231983
C88	C	0.282320	-0.055957	1.601618
C89	C	0.186611	-0.069447	1.697309
C90	C	0.184288	-0.115157	1.816828
C91	C	0.277682	-0.147373	1.840655
C92	C	0.373390	-0.133879	1.744965
C93	C	0.668943	-0.326302	1.782006
C94	C	0.658281	-0.395170	1.888383
C95	C	0.711545	-0.458462	1.882984
C96	C	0.775484	-0.452885	1.771200
C97	C	0.786150	-0.384018	1.664827
C98	C	0.886397	0.263395	0.664968
C99	C	0.897085	0.332264	0.558595
C100	C	0.843826	0.395556	0.563994
C101	C	0.779882	0.389979	0.675777
C102	C	0.769200	0.321111	0.782148
C103	C	1.273010	-0.006945	0.845354
C104	C	1.368719	0.006561	0.749663
C105	C	1.371042	0.052274	0.630145
C106	C	1.277647	0.084488	0.606318
C107	C	1.181940	0.070985	0.702008
C108	C	1.235950	-0.246293	1.214989
C109	C	1.320998	-0.301654	1.225629
C110	C	1.304928	-0.374729	1.289560
C111	C	1.203802	-0.392444	1.342846
C112	C	1.118757	-0.337083	1.332199
H113	H	0.433450	-0.079111	1.126689
Cl114	Cl	0.274745	-0.204840	1.990915
Cl115	Cl	0.866520	-0.377022	1.524318
Cl116	Cl	0.490781	-0.174392	1.774942
Cl117	Cl	0.371834	0.421398	1.023714
H118	H	0.949153	0.336791	0.467587
H119	H	0.284192	-0.018728	1.504307
Cl120	Cl	0.698123	-0.545034	2.016722
Cl121	Cl	0.063960	-0.132115	1.937112
Cl122	Cl	0.964728	-0.251861	1.036443
Cl123	Cl	0.601979	-0.246744	1.788826
Cl124	Cl	0.964753	-0.758244	1.036403
H125	H	0.627310	-0.792449	1.373829
H126	H	0.627290	-0.422871	1.373850
H127	H	0.311467	-0.002960	1.281379
Cl128	Cl	0.964730	-0.388670	1.036432
Cl129	Cl	0.250936	-0.073895	1.137295
Cl130	Cl	0.114803	0.030128	1.348605
Cl131	Cl	0.691491	-0.098223	0.922612
Cl132	Cl	0.577893	-0.402164	2.028893
Cl133	Cl	1.491370	0.069239	0.509861
H134	H	1.105907	0.097214	0.682589
H135	H	0.736520	0.441520	0.680159
Cl136	Cl	0.842436	-0.532460	1.764433
Cl137	Cl	0.563724	0.296426	1.047801
H138	H	0.929765	0.211866	0.660548
Cl139	Cl	0.857262	0.482129	0.430257
H140	H	0.717128	0.316579	0.873153
H141	H	0.306239	0.123909	1.284039
Cl142	Cl	0.964753	-0.621437	1.036419
Cl143	Cl	0.590562	-0.304654	1.410563
H144	H	1.271138	-0.044172	0.942665
H145	H	0.151983	0.224379	1.264689
Cl146	Cl	1.486114	-0.033946	0.779645
Cl147	Cl	0.069216	-0.028943	1.667328
H148	H	0.627305	-0.682487	1.373846
H149	H	1.279555	0.121708	0.508993
Cl150	Cl	0.902783	0.065436	0.636124
Cl151	Cl	0.143554	0.381471	1.143957
H152	H	1.249054	-0.186795	1.162929
H153	H	0.835568	0.013387	0.573895
H154	H	1.403331	-0.287216	1.182236
Cl155	Cl	1.411855	-0.444318	1.302937
Cl156	Cl	1.183617	-0.484315	1.423217
H157	H	0.680858	-0.106434	0.761309
H158	H	1.036426	-0.351518	1.375598
