data_functionalizedCrystal
_audit_creation_method	'MofGen! by Chris Wilmer'
_symmetry_space_group_name_H-M	'P1'
_symmetry_Int_Tables_number	1
_symmetry_cell_setting	triclinic
loop_
_symmetry_equiv_pos_as_xyz
  x,y,z
_cell_length_a	8.559649
_cell_length_b	10.540539
_cell_length_c	7.088929
_cell_angle_alpha	83.715612
_cell_angle_beta	95.325015
_cell_angle_gamma	77.152078
loop_
_atom_site_label
_atom_site_type_symbol
_atom_site_fract_x
_atom_site_fract_y
_atom_site_fract_z
O1	O	2.103404	-0.028386	-0.158958
O2	O	1.638947	0.037097	-0.158965
O3	O	1.881772	-0.181461	-0.158959
O4	O	1.860579	0.190172	-0.158964
O5	O	1.914223	-0.210727	0.159017
O6	O	1.671397	0.007830	0.159011
O7	O	2.135855	-0.057653	0.159018
Cu8	Cu	1.906589	-0.027584	0.188048
Cu9	Cu	1.868213	0.007028	-0.187995
O10	O	1.893030	0.160905	0.159012
C11	C	1.595699	0.027426	0.000022
C12	C	1.418487	0.042198	0.000019
C13	C	1.896408	-0.243230	0.000025
C14	C	1.891652	-0.383680	0.000015
C15	C	1.709377	-0.547965	-0.000701
C16	C	1.714270	-0.401917	0.000014
C17	C	1.995547	-0.470987	0.181596
C18	C	1.989509	-0.616912	0.181749
C19	C	1.956214	-0.584526	-0.179849
C20	C	1.957603	-0.437494	-0.182250
C21	C	2.179103	-0.047981	0.000027
C22	C	2.356313	-0.062752	0.000017
C23	C	1.878394	0.222675	0.000023
C24	C	1.883148	0.363125	0.000021
N25	N	1.933593	-0.051929	0.452537
N26	N	1.841222	0.031362	-0.452484
H27	H	1.336134	0.143358	0.000007
H28	H	2.085809	-0.425804	-0.193212
H29	H	1.633817	-0.340301	-0.130150
H30	H	1.626018	-0.557244	-0.130916
H31	H	1.745490	0.117677	0.465867
C32	C	1.860681	-0.601470	-0.363311
C33	C	1.700318	-0.531239	-0.371072
C34	C	1.612254	-0.546800	-0.540049
H35	H	1.863745	-0.691901	-0.365834
H36	H	1.906649	-0.569207	-0.470159
H37	H	1.654362	-0.563507	-0.264253
H38	H	1.697205	-0.440802	-0.368581
H39	H	1.658223	-0.514538	-0.646897
H40	H	1.615331	-0.637234	-0.542557
H41	H	1.503443	-0.499142	-0.545346
H42	H	2.084212	-0.645054	-0.181068
C43	C	2.061397	-0.167073	0.561057
C44	C	2.142269	-0.239964	0.430748
C45	C	2.260021	-0.346032	0.530646
H46	H	2.011387	-0.221475	0.639165
H47	H	2.136449	-0.135170	0.639090
H48	H	2.067230	-0.271867	0.352748
H49	H	2.192314	-0.185600	0.352636
H50	H	2.335073	-0.314129	0.608679
H51	H	2.209997	-0.400423	0.608751
H52	H	2.314917	-0.395494	0.442247
C53	C	2.160849	-0.699487	0.192868
C54	C	2.269345	-0.617889	0.199413
C55	C	2.427195	-0.693906	0.209693
H56	H	2.171323	-0.743845	0.083421
H57	H	2.183865	-0.762038	0.304881
H58	H	2.246338	-0.555362	0.087412
H59	H	2.258923	-0.573530	0.308855
H60	H	2.450211	-0.756457	0.321706
H61	H	2.437652	-0.738261	0.100244
H62	H	2.500830	-0.638555	0.214153
H63	H	1.438655	-0.163903	0.000009
H64	H	1.659936	-0.365080	0.130394
H65	H	1.652806	-0.582784	0.128782
H66	H	1.881434	-0.377733	-0.316578
H67	H	2.126500	-0.462893	0.188350
H68	H	1.940273	-0.651000	0.317483
H69	H	1.950038	-0.434617	0.316721
