data_functionalizedCrystal
_audit_creation_method	'MofGen! by Chris Wilmer'
_symmetry_space_group_name_H-M	'P1'
_symmetry_Int_Tables_number	1
_symmetry_cell_setting	triclinic
loop_
_symmetry_equiv_pos_as_xyz
  x,y,z
_cell_length_a	13.897448
_cell_length_b	13.897449
_cell_length_c	18.215399
_cell_angle_alpha	89.979342
_cell_angle_beta	90.026328
_cell_angle_gamma	89.982475
loop_
_atom_site_label
_atom_site_type_symbol
_atom_site_fract_x
_atom_site_fract_y
_atom_site_fract_z
Zn1	Zn	-0.384029	-1.474682	0.416140
Zn2	Zn	0.115971	-0.974682	0.916140
Zn3	Zn	-0.545339	-1.474582	0.293078
Zn4	Zn	-0.045339	-0.974582	0.793078
Zn5	Zn	-0.384059	-1.313377	0.293086
Zn6	Zn	0.115941	-0.813377	0.793086
Zn7	Zn	-0.545283	-1.313353	0.416101
Zn8	Zn	-0.045283	-0.813353	0.916101
O9	O	-0.464678	-1.393998	0.354601
O10	O	0.035322	-0.893998	0.854601
O11	O	-0.405438	-1.609650	0.399829
O12	O	0.094562	-1.109650	0.899829
O13	O	-0.523980	-1.453166	0.190094
O14	O	-0.023980	-0.953166	0.690094
O15	O	-0.249073	-1.334826	0.309430
O16	O	0.250927	-0.834826	0.809430
O17	O	-0.523951	-1.609577	0.309415
O18	O	-0.023951	-1.109577	0.809415
O19	O	-0.249051	-1.453336	0.399837
O20	O	0.250949	-0.953336	0.899837
O21	O	-0.405489	-1.334730	0.190101
O22	O	0.094511	-0.834730	0.690101
O23	O	-0.405435	-1.178392	0.309391
O24	O	0.094565	-0.678392	0.809391
O25	O	-0.523857	-1.334785	0.519090
O26	O	-0.023857	-0.834785	1.019090
O27	O	-0.523886	-1.178374	0.399769
O28	O	-0.023886	-0.678374	0.899769
O29	O	-0.405384	-1.453313	0.519119
O30	O	0.094616	-0.953313	1.019119
O31	O	-0.680313	-1.453142	0.309377
O32	O	-0.180313	-0.953142	0.809377
O33	O	-0.680272	-1.334688	0.399761
O34	O	-0.180272	-0.834688	0.899761
C35	C	-0.464658	-1.143384	0.354577
C36	C	0.035342	-0.643384	0.854577
C37	C	-0.464673	-1.036170	0.354585
C38	C	0.035327	-0.536170	0.854585
C39	C	-0.715292	-1.393928	0.354580
C40	C	-0.215292	-0.893928	0.854580
C41	C	-0.822506	-1.393986	0.354595
C42	C	-0.322506	-0.893986	0.854595
C43	C	-0.464672	-0.839875	0.354598
C44	C	0.035328	-0.339875	0.854598
C45	C	-0.464670	-0.949107	0.354589
C46	C	0.035330	-0.449107	0.854589
C47	C	-1.018801	-1.394087	0.354642
C48	C	-0.518801	-0.894087	0.854642
C49	C	-0.909568	-1.394028	0.354618
C50	C	-0.409568	-0.894028	0.854618
C51	C	-0.213085	-1.394095	0.354639
C52	C	0.286915	-0.894095	0.854639
C53	C	-0.105871	-1.394137	0.354655
C54	C	0.394129	-0.894137	0.854655
C55	C	-0.464611	-1.394057	0.546554
C56	C	0.035389	-0.894057	1.046554
C57	C	-0.464583	-1.394082	0.628353
C58	C	0.035417	-0.894082	1.128353
C59	C	-0.464691	-0.645591	0.354618
C60	C	0.035309	-0.145591	0.854618
C61	C	-0.464681	-0.752805	0.354608
C62	C	0.035319	-0.252805	0.854608
C63	C	-0.464674	-1.393995	0.163395
C64	C	0.035326	-0.893995	0.663395
C65	C	-0.464431	-1.394157	0.081596
C66	C	0.035569	-0.894157	0.581596
C67	C	-0.402836	-1.455822	0.816563
C68	C	0.097164	-0.955822	1.316563
C69	C	-0.402808	-1.455833	0.893422
C70	C	0.097192	-0.955833	1.393422
C71	C	-0.526180	-1.332411	0.893381
C72	C	-0.026180	-0.832411	1.393381
C73	C	-0.526202	-1.332395	0.816523
C74	C	-0.026202	-0.832395	1.316523
C75	C	-0.464532	-1.394106	0.778117
C76	C	0.035468	-0.894106	1.278117
C77	C	-0.464481	-1.394133	0.931833
C78	C	0.035519	-0.894133	1.431833
C79	C	-0.464451	-1.394145	1.015167
C80	C	0.035549	-0.894145	1.515167
C81	C	-0.464561	-1.394093	0.694778
C82	C	0.035439	-0.894093	1.194778
H83	H	-0.352617	-1.506068	0.785295
H84	H	0.147383	-1.006068	1.285295
Br85	Br	-0.609875	-1.248668	0.945508
Br86	Br	-0.109875	-0.748668	1.445508
Br87	Br	-0.319081	-1.539601	0.945598
Br88	Br	0.180919	-1.039601	1.445598
Br89	Br	-0.609930	-1.248623	0.764340
Br90	Br	-0.109930	-0.748623	1.264340
