data_functionalizedCrystal
_audit_creation_method	'MofGen! by Chris Wilmer'
_symmetry_space_group_name_H-M	'P1'
_symmetry_Int_Tables_number	1
_symmetry_cell_setting	triclinic
loop_
_symmetry_equiv_pos_as_xyz
  x,y,z
_cell_length_a	19.851628
_cell_length_b	23.196402
_cell_length_c	23.196401
_cell_angle_alpha	59.997774
_cell_angle_beta	90.009271
_cell_angle_gamma	60.002583
loop_
_atom_site_label
_atom_site_type_symbol
_atom_site_fract_x
_atom_site_fract_y
_atom_site_fract_z
Zr1	Zr	0.649035	0.630924	-0.075569
O2	O	0.541463	0.751212	-0.167635
O3	O	0.682002	0.510655	-0.047349
O4	O	0.681990	0.630937	-0.167625
O5	O	0.541495	0.630914	0.047519
O6	O	0.792852	0.630925	-0.167613
O7	O	0.541475	0.630930	-0.047359
O8	O	0.792873	0.415763	0.047537
O9	O	0.541474	0.846076	-0.167631
O10	O	0.778809	0.560108	-0.035302
O11	O	0.696089	0.560104	0.035497
O12	O	0.696075	0.701721	-0.106112
O13	O	0.613356	0.701717	-0.035313
Zr14	Zr	0.825880	0.630880	0.075770
Zr15	Zr	0.825847	0.630906	-0.075551
Zr16	Zr	0.649068	0.630898	0.075752
Zr17	Zr	0.649053	0.782221	-0.075564
Zr18	Zr	0.825862	0.479583	0.075764
O19	O	0.792913	0.751150	0.047550
O20	O	0.792866	0.751187	-0.167609
O21	O	0.541509	0.751175	0.047524
O22	O	0.933452	0.510593	0.167835
O23	O	0.933406	0.510630	-0.047323
O24	O	0.682049	0.510618	0.167809
O25	O	0.933420	0.630891	-0.047319
O26	O	0.792925	0.630868	0.167825
O27	O	0.682063	0.630879	0.167814
O28	O	0.933440	0.630874	0.047560
O29	O	0.682016	0.846062	-0.167617
O30	O	0.792899	0.415743	0.167817
O31	O	0.933441	0.415728	0.167832
O32	O	0.933415	0.415749	0.047552
O33	O	0.541500	0.846055	-0.047351
O34	O	0.682042	0.846041	-0.047337
O35	O	0.778839	0.560084	0.106312
O36	O	0.861559	0.560088	0.035514
O37	O	0.778826	0.701700	-0.035296
O38	O	0.696106	0.701696	0.035502
C39	C	0.737435	0.441652	0.000093
C40	C	0.737428	0.377423	0.000091
C41	C	0.798514	0.294979	0.052362
C42	C	0.798520	0.234619	0.052368
C43	C	0.737445	0.256707	0.000093
C44	C	0.676348	0.339165	-0.052183
C45	C	0.676339	0.399523	-0.052184
C46	C	0.718415	0.201132	-0.063706
C47	C	0.718429	0.140773	-0.063705
C48	C	0.737467	0.070545	0.000096
C49	C	0.756509	0.060674	0.063901
C50	C	0.756500	0.121031	0.063900
C51	C	0.737447	0.191265	0.000088
C52	C	0.798563	-0.077352	0.052378
C53	C	0.798564	-0.137711	0.052385
C54	C	0.676394	-0.033163	-0.052172
C55	C	0.676391	0.027194	-0.052173
C56	C	0.737480	0.005094	0.000102
C57	C	0.516293	0.630924	0.000077
C58	C	0.441232	0.630932	0.000070
C59	C	0.214777	0.708127	-0.038516
C60	C	0.192405	0.669539	-0.066494
C61	C	0.303825	0.630911	0.000090
C62	C	0.192456	0.669504	0.028056
C63	C	0.171093	0.630896	0.000109
C64	C	0.282442	0.592322	-0.027928
C65	C	0.282491	0.592299	0.066659
C66	C	0.260172	0.553654	0.038697
C67	C	0.380287	0.630922	0.000077
C68	C	0.094636	0.630879	0.000120
C69	C	0.958622	0.630880	0.000123
C70	C	1.033683	0.630872	0.000131
C71	C	0.737417	0.630935	-0.189179
C72	C	0.737403	0.630946	-0.253418
C73	C	0.737480	0.820152	0.000107
C74	C	0.737487	0.884382	0.000110
C75	C	0.798479	0.630941	-0.283575
C76	C	0.798498	0.630925	-0.343922
C77	C	0.737426	0.630929	-0.374118
C78	C	0.676345	0.630929	-0.343951
C79	C	0.676333	0.630938	-0.283602
C80	C	0.662898	0.678430	-0.493505
C81	C	0.662910	0.678427	-0.553856
C82	C	0.737463	0.630900	-0.560254
C83	C	0.812010	0.583388	-0.506298
C84	C	0.811998	0.583396	-0.445949
C85	C	0.737433	0.630920	-0.439556
C86	C	0.798564	0.630877	-0.655845
C87	C	0.798583	0.630855	-0.716190
C88	C	0.676424	0.630868	-0.716222
C89	C	0.676411	0.630881	-0.655874
C90	C	0.737481	0.630890	-0.625691
C91	C	0.737498	0.630870	0.189380
C92	C	0.737512	0.630859	0.253619
C93	C	0.958600	0.441630	0.000116
C94	C	1.033653	0.377393	0.000122
C95	C	0.737476	0.441620	0.189372
C96	C	0.737482	0.377379	0.253610
C97	C	0.958641	0.441598	0.189395
C98	C	1.033708	0.377349	0.253640
C99	C	0.516274	0.820207	-0.189195
C100	C	0.441207	0.884455	-0.253440
C101	C	0.516315	0.820174	0.000084
C102	C	0.441262	0.884411	0.000079
C103	C	0.737439	0.820185	-0.189172
C104	C	0.737433	0.884425	-0.253409
C105	C	1.025705	0.347237	-0.036847
C106	C	1.096219	0.286888	-0.036856
C107	C	1.174681	0.256691	0.000108
C108	C	1.182628	0.286853	0.037078
C109	C	1.112115	0.347205	0.037083
C110	C	0.780680	0.347200	0.320747
C111	C	0.780683	0.286848	0.381111
C112	C	0.737492	0.256671	0.374335
C113	C	0.694289	0.286856	0.307190
C114	C	0.694282	0.347211	0.246828
C115	C	1.112147	0.347180	0.246855
C116	C	1.182687	0.286820	0.307214
C117	C	1.174788	0.256627	0.374358
C118	C	1.096341	0.286803	0.381143
C119	C	1.025802	0.347165	0.320784
C120	C	0.362768	0.914632	-0.246654
C121	C	0.292227	0.975010	-0.307013
C122	C	0.300127	1.005207	-0.374158
C123	C	0.378574	0.975027	-0.380942
C124	C	0.449113	0.914654	-0.320584
C125	C	0.449210	0.914574	0.037042
C126	C	0.378696	0.974940	0.037034
C127	C	0.300234	1.005138	0.000067
C128	C	0.292287	0.974974	-0.036900
C129	C	0.362800	0.914613	-0.036896
C130	C	0.780632	0.914583	-0.246610
C131	C	0.780642	0.974936	-0.306962
C132	C	0.737448	1.005134	-0.374112
C133	C	0.694247	0.974971	-0.380909
C134	C	0.694242	0.914615	-0.320558
H135	H	0.848265	0.167481	0.094936
H136	H	1.232232	0.207476	0.423500
H137	H	1.118598	0.371750	0.067191
F138	F	0.863507	0.630920	-0.376022
H139	H	0.815867	0.262279	0.435777
H140	H	0.228359	0.999572	-0.301475
F141	F	0.826656	0.379304	0.327975
H142	H	1.089921	0.262211	0.435820
F143	F	0.583548	0.729063	-0.486728
H144	H	0.321307	0.559685	0.122936
F145	F	0.141665	0.712202	-0.140067
F146	F	1.249721	0.192457	0.000098
H147	H	0.242683	1.054366	-0.423300
H148	H	0.513092	0.889990	0.067149
H149	H	0.737505	0.207526	0.423491
F150	F	0.208775	1.007120	-0.076238
F151	F	0.942323	0.379264	0.328017
F152	F	0.698164	0.151285	-0.131611
H153	H	0.356317	0.890057	-0.066993
F154	F	0.776789	-0.014075	0.131809
H155	H	0.385183	0.999489	0.067140
H156	H	0.321128	0.559718	-0.051636
H157	H	0.242824	1.054288	0.000070
F158	F	1.087743	0.254796	-0.076204
F159	F	0.826608	0.882454	-0.175150
F160	F	0.648326	0.254731	0.299990
F161	F	1.120573	0.379306	0.175400
F162	F	0.863577	-0.100870	0.108014
F163	F	0.942206	0.379366	-0.076195
F164	F	0.826619	1.007031	-0.299714
H165	H	0.278777	0.488311	0.071345
H166	H	0.848307	-0.204844	0.094955
H167	H	0.384997	0.999621	-0.435618
H168	H	1.246556	0.262257	0.301677
F169	F	0.532592	0.882539	-0.327817
H170	H	0.737458	1.054280	-0.423248
F171	F	0.354342	0.882504	-0.175199
H172	H	0.659080	0.999567	-0.435591
F173	F	0.891333	0.532826	-0.388526
F174	F	1.266140	0.254705	0.076417
H175	H	0.848257	0.276978	0.094929
F176	F	0.776764	0.110525	0.131803
H177	H	0.659061	0.890067	-0.326103
H178	H	0.626665	-0.015177	-0.094735
F179	F	0.611376	0.114942	-0.107809
H180	H	0.702903	0.258318	-0.115665
H181	H	0.659108	0.371775	0.192164
H182	H	0.626619	0.357145	-0.094745
H183	H	0.153664	0.702147	0.051699
H184	H	0.196326	0.773417	-0.071209
F185	F	0.863477	0.630945	-0.251451
F186	F	0.611319	0.487272	-0.107820
H187	H	0.872718	0.544687	-0.511503
F188	F	0.863563	0.630881	-0.623719
H189	H	0.848323	0.630846	-0.740742
H190	H	0.626701	0.630867	-0.740805
H191	H	0.602210	0.717118	-0.597786
F192	F	0.611350	0.630930	-0.376086
F193	F	0.611402	0.630892	-0.623779
H194	H	0.626596	0.630941	-0.259047
