data_functionalizedCrystal
_audit_creation_method	'MofGen! by Chris Wilmer'
_symmetry_space_group_name_H-M	'P1'
_symmetry_Int_Tables_number	1
_symmetry_cell_setting	triclinic
loop_
_symmetry_equiv_pos_as_xyz
  x,y,z
_cell_length_a	12.759401
_cell_length_b	16.625546
_cell_length_c	12.759393
_cell_angle_alpha	90.036194
_cell_angle_beta	90.018496
_cell_angle_gamma	90.022629
loop_
_atom_site_label
_atom_site_type_symbol
_atom_site_fract_x
_atom_site_fract_y
_atom_site_fract_z
Zn1	Zn	1.606199	-0.320951	0.593948
Zn2	Zn	1.606069	-0.455807	0.418253
Zn3	Zn	1.430501	-0.320993	0.418287
Zn4	Zn	1.430465	-0.455745	0.593895
O5	O	1.518308	-0.388374	0.506096
O6	O	1.753203	-0.338848	0.570649
O7	O	1.582740	-0.437968	0.271237
O8	O	1.453876	-0.208155	0.441625
O9	O	1.753107	-0.437927	0.441568
O10	O	1.582961	-0.208124	0.570682
O11	O	1.453751	-0.338920	0.271261
O12	O	1.283475	-0.338860	0.441574
O13	O	1.453816	-0.437821	0.740923
O14	O	1.283449	-0.437862	0.570592
O15	O	1.582927	-0.338788	0.740962
O16	O	1.582706	-0.568632	0.441517
O17	O	1.453691	-0.568586	0.570560
C18	C	1.245341	-0.388359	0.506081
C19	C	1.128564	-0.388372	0.506100
C20	C	1.073717	-0.440005	0.573169
C21	C	0.963992	-0.440015	0.573180
C22	C	0.963974	-0.336758	0.439045
C23	C	1.073696	-0.336744	0.439040
C24	C	1.073726	-0.499623	0.650608
C25	C	0.964002	-0.499633	0.650619
C26	C	1.518209	-0.597865	0.506052
C27	C	1.518263	-0.687486	0.506068
C28	C	1.518446	-1.015662	0.506177
C29	C	1.518392	-0.924353	0.506150
C30	C	1.518353	-0.851577	0.506122
C31	C	1.518301	-0.760262	0.506096
C32	C	1.792342	-0.388390	0.506111
C33	C	1.909118	-0.388396	0.506117
C34	C	1.518382	-0.388293	0.780129
C35	C	1.518413	-0.388258	0.896906
C36	C	1.518437	-0.178065	0.506163
C37	C	1.518492	-0.088444	0.506191
C38	C	1.518296	-0.388397	0.233128
C39	C	1.518468	-0.388204	0.116352
C40	C	1.585650	-0.336687	0.951790
C41	C	1.585675	-0.336657	1.061514
C42	C	1.451223	-0.439778	1.061461
C43	C	1.451194	-0.439803	0.951739
C44	C	1.663279	-0.277153	0.951821
C45	C	1.663304	-0.277124	1.061546
H46	H	0.930008	-0.477343	0.727974
O47	O	0.910835	-0.286536	0.373868
C48	C	0.922399	-0.184154	0.240776
C49	C	0.982705	-0.240975	0.314556
H50	H	0.980480	-0.147315	0.192787
H51	H	0.871093	-0.141988	0.289065
H52	H	0.870966	-0.221140	0.185802
H53	H	1.034195	-0.204053	0.369544
H54	H	1.033945	-0.283143	0.266201
O55	O	1.109124	-0.479706	0.747770
C56	C	1.063383	-0.443536	0.924847
C57	C	1.023153	-0.466063	0.814859
H58	H	0.993896	-0.432516	0.979125
H59	H	1.112996	-0.386630	0.919739
H60	H	1.113053	-0.494847	0.957121
H61	H	0.973440	-0.414805	0.782521
H62	H	0.973597	-0.522994	0.820034
H63	H	1.107730	-0.558911	0.621317
H64	H	0.934196	-0.562065	0.628680
O65	O	1.628618	-0.206278	1.102009
C66	C	1.563266	-0.073223	1.065646
C67	C	1.602552	-0.153402	1.019680
H68	H	1.542161	-0.030457	0.999105
H69	H	1.627491	-0.045151	1.115914
H70	H	1.490987	-0.084727	1.115960
H71	H	1.674812	-0.141967	0.969318
H72	H	1.538264	-0.181449	0.969472
O73	O	1.385830	-0.489962	0.898586
C74	C	1.252396	-0.592180	0.910117
C75	C	1.326394	-0.535432	0.970442
H76	H	1.204307	-0.628945	0.968186
H77	H	1.300520	-0.634418	0.858752
H78	H	1.197526	-0.555141	0.858741
H79	H	1.381280	-0.572407	1.021875
H80	H	1.278205	-0.493192	1.021740
H81	H	1.744671	-0.293849	1.091322
O82	O	1.127089	-0.286694	0.373844
C83	C	1.250865	-0.275687	0.231972
C84	C	1.190484	-0.332462	0.305760
H85	H	1.302118	-0.312668	0.176894
H86	H	1.302335	-0.233579	0.280253
H87	H	1.192776	-0.238775	0.184096
H88	H	1.248497	-0.369426	0.353652
H89	H	1.138999	-0.374517	0.257420
H90	H	1.396493	-0.481742	1.106119
H91	H	1.641521	-0.214709	0.922072
H92	H	1.740546	-0.299539	0.917783
