data_functionalizedCrystal
_audit_creation_method	'MofGen! by Chris Wilmer'
_symmetry_space_group_name_H-M	'P1'
_symmetry_Int_Tables_number	1
_symmetry_cell_setting	triclinic
loop_
_symmetry_equiv_pos_as_xyz
  x,y,z
_cell_length_a	10.654541
_cell_length_b	19.188930
_cell_length_c	9.730217
_cell_angle_alpha	89.991643
_cell_angle_beta	89.999932
_cell_angle_gamma	83.814355
loop_
_atom_site_label
_atom_site_type_symbol
_atom_site_fract_x
_atom_site_fract_y
_atom_site_fract_z
O1	O	1.665764	0.098053	-0.114265
O2	O	1.300087	0.107397	-0.114279
O3	O	1.493478	0.001138	-0.114245
O4	O	1.472373	0.204312	-0.114299
O5	O	1.493472	0.001137	0.114335
O6	O	1.300081	0.107396	0.114301
O7	O	1.665758	0.098052	0.114315
Zn8	Zn	1.482918	0.102724	0.150600
Zn9	Zn	1.482926	0.102725	-0.150564
O10	O	1.472367	0.204311	0.114281
C11	C	1.253300	0.106711	0.000010
C12	C	1.113900	0.104659	0.000006
C13	C	1.083241	0.231721	-0.000045
C14	C	1.002423	0.294284	-0.000076
C15	C	0.871446	0.292352	-0.000077
C16	C	0.821285	0.227849	-0.000043
C17	C	0.902103	0.165286	-0.000012
C18	C	1.033082	0.167225	-0.000015
C19	C	0.932762	0.038226	0.000049
C20	C	1.063740	0.040156	0.000040
C21	C	0.882602	-0.026277	0.000083
C22	C	0.963421	-0.088842	0.000104
C23	C	1.094405	-0.086908	0.000104
C24	C	1.144558	-0.022408	0.000071
C25	C	1.492792	-0.024878	0.000049
C26	C	1.490740	-0.102396	0.000061
C27	C	1.604215	-0.146578	0.000072
C28	C	1.602288	-0.219414	0.000050
C29	C	1.486878	-0.248065	0.000044
C30	C	1.373388	-0.203873	0.000026
C31	C	1.375319	-0.131038	0.000034
N32	N	1.398660	-0.356647	0.077831
N33	N	1.396833	-0.425838	0.077826
C34	C	1.481054	-0.467512	0.000016
N35	N	1.567190	-0.437383	-0.077771
N36	N	1.569020	-0.368186	-0.077760
C37	C	1.484772	-0.327041	0.000034
C38	C	1.592448	-0.590672	0.000001
C39	C	1.590515	-0.663510	-0.000029
C40	C	1.361612	-0.647967	-0.000039
C41	C	1.363548	-0.575131	-0.000023
C42	C	1.478969	-0.546488	0.000004
C43	C	1.712544	0.098738	0.000023
C44	C	1.851944	0.100790	0.000018
C45	C	1.473053	0.230327	-0.000016
C46	C	1.475105	0.307845	-0.000037
N47	N	1.482922	0.102723	0.356137
N48	N	1.482932	0.102721	-0.356101
C49	C	1.654239	0.008658	0.356157
C50	C	1.739906	-0.038372	0.428108
C51	C	1.739919	-0.038373	0.571987
C52	C	1.654253	0.008661	0.643920
C53	C	1.568586	0.055691	0.571970
C54	C	1.568585	0.055688	0.428087
C55	C	1.397265	0.149751	0.571949
C56	C	1.397257	0.149756	0.428069
C57	C	1.311600	0.196785	0.643882
C58	C	1.225937	0.243819	0.571932
C59	C	1.225928	0.243818	0.428043
C60	C	1.311590	0.196786	0.356119
H61	H	0.922569	-0.141356	0.000131
H62	H	1.160201	-0.137855	0.000134
H63	H	1.251205	-0.020826	0.000054
H64	H	0.775953	-0.027846	0.000090
C65	C	1.799919	-0.137396	-0.117418
C66	C	1.731086	-0.115095	0.000084
H67	H	1.878240	-0.117955	-0.117413
H68	H	1.815001	-0.187091	-0.117409
H69	H	1.753203	-0.122253	-0.197122
H70	H	1.777798	-0.130243	0.079789
H71	H	1.716007	-0.065389	0.000088
C72	C	1.732921	-0.310335	-0.117436
C73	C	1.727028	-0.267992	0.000070
H74	H	1.809934	-0.340320	-0.117423
H75	H	1.663915	-0.337814	-0.117440
H76	H	1.728933	-0.281585	-0.197137
H77	H	1.731007	-0.296742	0.079772
H78	H	1.796053	-0.240510	0.000086
C79	C	1.056583	0.336797	0.442488
C80	C	1.131761	0.295518	0.348961
H81	H	0.998454	0.368717	0.393667
H82	H	1.011588	0.307496	0.498612
H83	H	1.108724	0.362181	0.498602
H84	H	1.079620	0.270130	0.292853
H85	H	1.176759	0.324823	0.292814
H86	H	1.279421	-0.227205	0.000018
C87	C	0.854280	0.418147	-0.000149
C88	C	0.782603	0.361122	-0.000118
H89	H	0.799430	0.460601	-0.000184
H90	H	0.905995	0.416267	0.079561
H91	H	0.906013	0.416250	-0.079861
H92	H	0.730877	0.363016	0.079599
H93	H	0.730866	0.363003	-0.079837
H94	H	1.686430	-0.567350	0.000017
H95	H	1.267643	-0.671293	-0.000050
H96	H	1.282910	-0.095064	0.000026
H97	H	1.682925	-0.699483	-0.000028
C98	C	1.137101	-0.567086	-0.000013
C99	C	1.238810	-0.526561	-0.000010
H100	H	1.060091	-0.537099	0.000001
H101	H	1.141106	-0.595806	-0.079725
H102	H	1.141119	-0.595830	0.079698
H103	H	1.234797	-0.497821	-0.079727
H104	H	1.234803	-0.497829	0.079709
H105	H	1.654248	0.008659	0.239003
H106	H	1.156188	0.282108	0.630508
H107	H	1.043278	0.346802	-0.000101
H108	H	1.311595	0.196784	0.238965
H109	H	1.809672	-0.076671	0.630570
C110	C	1.262511	0.269074	-0.117585
C111	C	1.227212	0.233846	-0.000059
H112	H	1.351392	0.270390	-0.117588
H113	H	1.238541	0.245164	-0.197264
H114	H	1.221550	0.315564	-0.117594
H115	H	1.268166	0.187354	-0.000056
H116	H	1.251195	0.257755	0.079640
H117	H	1.654259	0.008652	0.761075
H118	H	0.714635	0.226282	-0.000027
H119	H	1.809652	-0.076668	0.369528
H120	H	1.311608	0.196779	0.761037
