data_functionalizedCrystal
_audit_creation_method	'MofGen! by Chris Wilmer'
_symmetry_space_group_name_H-M	'P1'
_symmetry_Int_Tables_number	1
_symmetry_cell_setting	triclinic
loop_
_symmetry_equiv_pos_as_xyz
  x,y,z
_cell_length_a	11.026607
_cell_length_b	9.065218
_cell_length_c	8.140239
_cell_angle_alpha	90.001686
_cell_angle_beta	89.997756
_cell_angle_gamma	83.199049
loop_
_atom_site_label
_atom_site_type_symbol
_atom_site_fract_x
_atom_site_fract_y
_atom_site_fract_z
O1	O	1.616970	-0.619585	-0.136603
O2	O	1.262889	-0.549033	-0.136606
O3	O	1.447248	-0.371492	-0.136601
O4	O	1.432611	-0.797126	-0.136608
O5	O	1.447238	-0.371487	0.136626
O6	O	1.262878	-0.549028	0.136621
O7	O	1.616960	-0.619580	0.136625
Zn8	Zn	1.439918	-0.584303	0.180003
Zn9	Zn	1.439931	-0.584310	-0.179985
O10	O	1.432600	-0.797121	0.136619
C11	C	1.217530	-0.536015	0.000007
C12	C	1.082389	-0.497214	0.000006
C13	C	1.445836	-0.316152	0.000010
C14	C	1.441630	-0.151260	0.000002
N15	N	1.439917	-0.584300	0.425686
C16	C	1.009761	-0.604348	0.000003
C17	C	0.870086	-0.564249	0.000001
C18	C	1.662319	-0.632598	0.000008
C19	C	1.797460	-0.671399	-0.000001
C20	C	1.434012	-0.852461	0.000005
C21	C	1.438219	-1.017353	0.000002
N22	N	1.439941	-0.584304	-0.425668
H23	H	1.050987	-0.725756	0.000010
O24	O	0.815503	-0.403415	0.000004
H25	H	0.714363	-0.397157	-0.000007
O26	O	1.027790	-0.336392	0.000021
H27	H	1.102238	-0.264013	0.000038
H28	H	0.838678	-0.792815	0.000007
