data_functionalizedCrystal
_audit_creation_method	'MofGen! by Chris Wilmer'
_symmetry_space_group_name_H-M	'P1'
_symmetry_Int_Tables_number	1
_symmetry_cell_setting	triclinic
loop_
_symmetry_equiv_pos_as_xyz
  x,y,z
_cell_length_a	11.792241
_cell_length_b	13.339070
_cell_length_c	12.376593
_cell_angle_alpha	80.988514
_cell_angle_beta	77.409642
_cell_angle_gamma	99.911355
loop_
_atom_site_label
_atom_site_type_symbol
_atom_site_fract_x
_atom_site_fract_y
_atom_site_fract_z
O1	O	-1.574563	-0.156321	0.093886
O2	O	-1.248638	-0.170641	0.093912
O3	O	-1.374194	-0.016012	0.093898
O4	O	-1.449007	-0.310950	0.093899
O5	O	-1.324371	0.018889	-0.094108
O6	O	-1.198815	-0.135740	-0.094095
O7	O	-1.524740	-0.121421	-0.094120
Zn8	Zn	-1.353868	-0.123039	-0.123957
Zn9	Zn	-1.419510	-0.169022	0.123749
O10	O	-1.399184	-0.276049	-0.094107
C11	C	-1.336646	0.039196	-0.000102
C12	C	-1.298979	0.151703	-0.000095
C13	C	-1.181159	-0.152292	-0.000088
C14	C	-1.054319	-0.149602	-0.000078
C15	C	-1.592219	-0.139770	-0.000118
C16	C	-1.719061	-0.142461	-0.000121
C17	C	-0.822074	-0.144647	-0.000111
C18	C	-0.951311	-0.147400	-0.000093
C19	C	-1.436733	-0.331258	-0.000104
C20	C	-1.474402	-0.443766	-0.000104
N21	N	-1.309076	-0.091656	-0.293011
C22	C	-1.591866	0.514894	-0.000118
C23	C	-1.627258	0.409190	-0.000132
C24	C	-1.545192	0.344813	-0.000122
C25	C	-1.427727	0.386151	-0.000100
C26	C	-1.392329	0.491867	-0.000095
C27	C	-1.345654	0.321786	-0.000099
C28	C	-1.228189	0.363124	-0.000077
C29	C	-1.192797	0.468830	-0.000071
C30	C	-1.274864	0.533207	-0.000081
C31	C	-1.381052	0.216070	-0.000103
C32	C	-1.181514	0.193043	-0.000080
C33	C	-1.146122	0.298747	-0.000067
C34	C	-1.568297	-0.273264	-0.648026
C35	C	-1.599640	-0.295240	-0.529690
C36	C	-1.527002	-0.244345	-0.470514
C37	C	-1.423015	-0.171472	-0.529686
C38	C	-1.391665	-0.149500	-0.648034
C39	C	-1.350369	-0.120581	-0.470522
C40	C	-1.246383	-0.047708	-0.529694
C41	C	-1.215038	-0.025739	-0.648031
C42	C	-1.287676	-0.076634	-0.707206
C43	C	-1.381720	-0.142553	-0.352174
C44	C	-1.205088	-0.018789	-0.352183
C45	C	-1.173745	0.003186	-0.470519
N46	N	-1.464308	-0.200397	0.292802
H47	H	-1.574015	0.258744	-0.000133
H48	H	-1.658670	0.567320	-0.000135
H49	H	-1.246055	0.619280	-0.000066
H50	H	-1.145936	0.022650	-0.304002
H51	H	-1.722897	0.375540	-0.000151
H52	H	-1.050480	0.332420	-0.000049
C53	C	-1.065224	0.513509	-0.000002
C54	C	-1.000934	0.434505	0.000035
C55	C	-0.883414	0.475620	0.000113
H56	H	-1.029741	0.566423	-0.065544
H57	H	-1.064599	0.542063	0.065588
H58	H	-1.001552	0.405967	-0.065549
H59	H	-1.036380	0.381586	0.065572
H60	H	-0.882790	0.504174	0.065703
H61	H	-0.847943	0.528533	-0.065431
H62	H	-0.839782	0.422021	0.000148
C63	C	-1.092516	0.123066	0.000168
C64	C	-1.132629	0.043764	0.096907
C65	C	-1.050675	-0.020714	0.097179
H66	H	-1.084742	0.093411	-0.065317
H67	H	-1.017483	0.162780	0.000235
H68	H	-1.207641	0.004057	0.096829
H69	H	-1.140397	0.073390	0.162408
H70	H	-0.975642	0.018999	0.097247
H71	H	-1.042907	-0.050362	0.031690
H72	H	-1.077875	-0.074522	0.162820
C73	C	-1.712614	-0.374343	-0.465653
C74	C	-1.769536	-0.414190	-0.542801
C75	C	-1.873627	-0.487055	-0.483851
H76	H	-1.693079	-0.429357	-0.419486
H77	H	-1.764159	-0.341716	-0.419510
H78	H	-1.718002	-0.446818	-0.588924
H79	H	-1.789100	-0.359202	-0.588970
H80	H	-1.925172	-0.454428	-0.437708
H81	H	-1.854081	-0.542062	-0.437686
H82	H	-1.912267	-0.514093	-0.536186
H83	H	-1.466385	-0.201889	-0.304008
H84	H	-1.552527	-0.262243	-0.374159
H85	H	-1.627423	-0.314699	-0.696217
C86	C	-1.102119	0.053444	-0.712078
C87	C	-1.045224	0.093338	-0.634938
C88	C	-0.941209	0.166293	-0.693896
H89	H	-1.050506	0.020911	-0.758249
H90	H	-1.121776	0.108419	-0.758217
H91	H	-1.025563	0.038373	-0.588818
H92	H	-1.096803	0.125890	-0.588764
H93	H	-0.960867	0.221268	-0.740035
H94	H	-0.889606	0.133752	-0.740066
H95	H	-0.902599	0.193378	-0.641566
H96	H	-1.089077	0.062520	-0.518714
C97	C	-1.508657	0.171206	0.000116
C98	C	-1.585866	0.185889	0.096852
C99	C	-1.703432	0.144563	0.097104
H100	H	-1.526641	0.205392	-0.065371
H101	H	-1.518055	0.099014	0.000177
H102	H	-1.576474	0.258068	0.096781
H103	H	-1.567921	0.151702	0.162355
H104	H	-1.712830	0.072371	0.097165
H105	H	-1.721403	0.178753	0.031612
H106	H	-1.755831	0.154511	0.162743
H107	H	-1.262163	-0.058743	-0.803565
