data_functionalizedCrystal
_audit_creation_method	'MofGen! by Chris Wilmer'
_symmetry_space_group_name_H-M	'P1'
_symmetry_Int_Tables_number	1
_symmetry_cell_setting	triclinic
loop_
_symmetry_equiv_pos_as_xyz
  x,y,z
_cell_length_a	14.853566
_cell_length_b	14.853559
_cell_length_c	9.730223
_cell_angle_alpha	90.000855
_cell_angle_beta	90.002641
_cell_angle_gamma	83.632934
loop_
_atom_site_label
_atom_site_type_symbol
_atom_site_fract_x
_atom_site_fract_y
_atom_site_fract_z
O1	O	1.196357	0.117695	-0.114192
O2	O	0.933897	0.131718	-0.114214
O3	O	1.072141	-0.006524	-0.114201
O4	O	1.058112	0.255937	-0.114205
O5	O	1.072140	-0.006520	0.114379
O6	O	0.933895	0.131721	0.114366
O7	O	1.196355	0.117699	0.114388
Zn8	Zn	1.065125	0.124711	0.150669
Zn9	Zn	1.065127	0.124706	-0.150495
O10	O	1.058110	0.255940	0.114375
C11	C	0.900307	0.131085	0.000073
C12	C	0.800223	0.129181	0.000064
C13	C	0.377040	0.121129	-0.124510
C14	C	0.377059	0.121133	0.124696
C15	C	0.471093	0.122920	0.124692
C16	C	0.518105	0.123813	0.000085
C17	C	0.471082	0.122919	-0.124518
C18	C	0.518122	0.123824	0.249293
C19	C	0.612161	0.125613	0.249294
C20	C	0.659175	0.126499	0.124685
C21	C	0.612147	0.125604	0.000077
C22	C	0.659158	0.126496	-0.124531
C23	C	0.612133	0.125594	-0.249140
C24	C	0.518096	0.123805	-0.249127
C25	C	0.753212	0.128288	0.124672
C26	C	0.753201	0.128287	-0.124539
C27	C	1.071506	-0.040111	0.000086
C28	C	1.069605	-0.140195	0.000078
C29	C	1.061543	-0.563372	-0.124521
C30	C	1.061541	-0.563363	0.124685
C31	C	1.063334	-0.469329	0.124687
C32	C	1.064230	-0.422313	0.000082
C33	C	1.063333	-0.469329	-0.124524
C34	C	1.064222	-0.422305	0.249290
C35	C	1.066015	-0.328265	0.249297
C36	C	1.066917	-0.281248	0.124690
C37	C	1.066021	-0.328270	0.000080
C38	C	1.066918	-0.281254	-0.124525
C39	C	1.066028	-0.328276	-0.249138
C40	C	1.064236	-0.422312	-0.249130
C41	C	1.068709	-0.187211	0.124683
C42	C	1.068708	-0.187211	-0.124528
C43	C	1.229945	0.118332	0.000098
C44	C	1.330028	0.120236	0.000097
C45	C	1.058745	0.289528	0.000084
C46	C	1.060646	0.389612	0.000083
N47	N	1.065130	0.124713	0.356205
N48	N	1.065129	0.124696	-0.356032
C49	C	1.126360	0.063521	0.428137
C50	C	1.126358	0.063510	0.572020
C51	C	1.003892	0.185892	0.572027
C52	C	1.003891	0.185898	0.428146
C53	C	1.187600	0.002336	0.356196
C54	C	1.248836	-0.058861	0.428128
C55	C	1.248833	-0.058872	0.572011
C56	C	1.187595	0.002314	0.643962
H57	H	0.791471	0.129011	-0.226011
O58	O	0.472478	0.122783	-0.370201
C59	C	0.505573	0.045217	-0.446034
H60	H	0.538494	-0.008830	-0.373140
H61	H	0.447118	0.017863	-0.502554
H62	H	0.557868	0.063893	-0.523730
H63	H	1.066751	-0.289981	-0.350590
H64	H	1.187609	0.002341	0.239039
H65	H	0.954035	0.235708	0.630619
H66	H	0.650421	0.126328	-0.350596
O67	O	1.308348	-0.118195	0.642039
C68	C	1.364032	-0.069812	0.725254
H69	H	1.328205	0.000666	0.746820
H70	H	1.378252	-0.107423	0.826425
H71	H	1.430665	-0.063556	0.669810
H72	H	1.069413	-0.148928	0.226140
O73	O	0.331302	0.120414	-0.245514
C74	C	0.266772	0.197382	-0.252953
H75	H	0.288041	0.252454	-0.182247
H76	H	0.262302	0.223548	-0.363158
H77	H	0.197793	0.178384	-0.219473
O78	O	1.187591	0.002134	0.783730
C79	C	1.169143	-0.083475	0.831777
H80	H	1.187562	-0.136552	0.748855
H81	H	1.210935	-0.101860	0.928040
H82	H	1.094018	-0.081239	0.857288
O83	O	1.069409	-0.141574	-0.245619
C84	C	0.990963	-0.154481	-0.321422
H85	H	0.935948	-0.173254	-0.248501
H86	H	0.965942	-0.089256	-0.377969
H87	H	1.007565	-0.211367	-0.399092
O88	O	1.308252	-0.118241	0.358028
C89	C	1.295095	-0.105143	0.215610
H90	H	1.261528	-0.033513	0.195950
H91	H	1.363343	-0.115100	0.160909
H92	H	1.249776	-0.156226	0.174808
H93	H	1.063487	-0.460592	0.350736
H94	H	1.063511	-0.460605	-0.350583
O95	O	1.060508	-0.609072	-0.245519
C96	C	0.981465	-0.653369	-0.252941
H97	H	0.927479	-0.617951	-0.182237
H98	H	0.955251	-0.651054	-0.363144
H99	H	0.997749	-0.726921	-0.219447
O100	O	0.944505	0.245466	0.358322
C101	C	0.959245	0.334740	0.393509
H102	H	1.031420	0.335317	0.433072
H103	H	0.948930	0.379967	0.298887
H104	H	0.909305	0.361128	0.477019
O105	O	0.331509	0.120148	0.245818
C106	C	0.364585	0.042555	0.321606
H107	H	0.436234	0.017841	0.286177
H108	H	0.365531	0.060163	0.435596
H109	H	0.318740	-0.013081	0.304330
O110	O	0.657952	0.126360	0.370247
C111	C	0.722441	0.049360	0.377711
H112	H	0.739895	0.023620	0.269524
H113	H	0.786298	0.068157	0.430448
H114	H	0.693279	-0.005959	0.439197
O115	O	0.472481	0.123120	0.370367
C116	C	0.485363	0.201568	0.446176
H117	H	0.504135	0.256589	0.373262
H118	H	0.420128	0.226578	0.502701
H119	H	0.542241	0.184975	0.523865
O120	O	1.067010	-0.282509	0.370249
C121	C	1.146079	-0.238256	0.377720
H122	H	1.172356	-0.227546	0.269535
H123	H	1.129799	-0.169851	0.430452
H124	H	1.200018	-0.281584	0.439212
O125	O	0.798910	0.129326	0.245666
C126	C	0.843213	0.208366	0.253096
H127	H	0.807803	0.262354	0.182382
H128	H	0.840890	0.234580	0.363297
H129	H	0.916767	0.192078	0.219618
O130	O	1.060793	-0.608943	0.245810
C131	C	1.139263	-0.596098	0.321595
H132	H	1.166575	-0.531197	0.286158
H133	H	1.121781	-0.590599	0.435585
H134	H	1.192883	-0.656110	0.304327
