data_functionalizedCrystal
_audit_creation_method	'MofGen! by Chris Wilmer'
_symmetry_space_group_name_H-M	'P1'
_symmetry_Int_Tables_number	1
_symmetry_cell_setting	triclinic
loop_
_symmetry_equiv_pos_as_xyz
  x,y,z
_cell_length_a	18.215407
_cell_length_b	16.959453
_cell_length_c	18.215399
_cell_angle_alpha	89.969567
_cell_angle_beta	89.985640
_cell_angle_gamma	90.017431
loop_
_atom_site_label
_atom_site_type_symbol
_atom_site_fract_x
_atom_site_fract_y
_atom_site_fract_z
Zn1	Zn	1.125075	-0.314725	-0.416067
Zn2	Zn	1.125001	-0.446916	-0.293001
Zn3	Zn	1.002014	-0.314749	-0.293020
Zn4	Zn	1.001984	-0.446859	-0.416031
O5	O	1.063518	-0.380812	-0.354530
O6	O	1.228049	-0.332274	-0.399749
O7	O	1.108667	-0.429418	-0.190019
O8	O	1.018382	-0.204135	-0.309365
O9	O	1.227995	-0.429394	-0.309333
O10	O	1.108795	-0.204117	-0.399768
O11	O	1.018310	-0.332315	-0.190033
O12	O	0.899026	-0.332261	-0.309330
O13	O	1.018331	-0.429298	-0.519020
O14	O	0.899004	-0.429321	-0.399706
O15	O	1.108765	-0.332219	-0.519047
O16	O	1.108638	-0.557519	-0.309298
O17	O	1.018259	-0.557478	-0.399687
C18	C	0.872312	-0.380788	-0.354517
C19	C	0.790513	-0.380797	-0.354529
C20	C	0.602347	-0.330330	-0.401683
C21	C	0.525488	-0.330337	-0.401685
C22	C	0.525442	-0.431317	-0.307389
C23	C	0.602299	-0.431305	-0.307384
C24	C	0.640750	-0.380813	-0.354535
C25	C	0.487034	-0.380831	-0.354543
C26	C	0.403700	-0.380839	-0.354545
C27	C	0.724089	-0.380804	-0.354531
C28	C	1.063457	-0.586179	-0.354503
C29	C	1.063498	-0.674035	-0.354516
C30	C	1.110656	-1.045443	-0.401691
C31	C	1.016586	-1.045579	-0.307478
C32	C	1.016559	-0.963033	-0.307461
C33	C	1.063580	-0.921688	-0.354560
C34	C	1.110629	-0.962889	-0.401677
C35	C	0.969506	-0.921825	-0.260350
C36	C	0.969476	-0.839274	-0.260332
C37	C	1.016502	-0.797928	-0.307429
C38	C	1.063553	-0.839135	-0.354546
C39	C	1.110574	-0.797790	-0.401646
C40	C	1.157630	-0.838995	-0.448761
C41	C	1.157655	-0.921543	-0.448774
C42	C	1.016477	-0.715380	-0.307416
C43	C	1.110547	-0.715236	-0.401632
C44	C	1.255471	-0.380837	-0.354543
C45	C	1.337270	-0.380848	-0.354549
C46	C	1.063553	-0.380749	-0.546483
C47	C	1.063568	-0.380722	-0.628282
C48	C	1.063600	-0.174644	-0.354573
C49	C	1.063635	-0.086787	-0.354591
C50	C	1.016559	-0.330127	-0.816484
C51	C	1.016571	-0.330111	-0.893343
C52	C	1.110665	-0.431223	-0.893317
C53	C	1.110648	-0.431243	-0.816460
C54	C	1.063596	-0.380690	-0.778045
C55	C	1.063626	-0.380655	-0.931761
C56	C	1.063640	-0.380638	-1.015095
C57	C	1.063581	-0.380708	-0.694706
C58	C	1.063526	-0.380818	-0.163323
C59	C	1.063654	-0.380622	-0.081525
H60	H	1.148841	-0.681579	-0.439984
C61	C	0.483146	-0.486861	-0.255530
C62	C	0.493706	-0.576724	-0.261388
C63	C	0.451412	-0.632273	-0.209528
C64	C	0.398559	-0.597958	-0.151810
C65	C	0.387997	-0.508090	-0.145950
C66	C	0.430290	-0.452542	-0.197809
H67	H	0.532833	-0.602130	-0.304117
H68	H	0.459231	-0.698799	-0.213867
H69	H	0.367251	-0.639078	-0.113421
H70	H	0.348870	-0.482684	-0.103221
H71	H	0.422471	-0.386016	-0.193470
H72	H	0.978300	-1.079246	-0.269134
C73	C	0.964797	-0.274527	-0.774226
C74	C	0.970832	-0.184668	-0.784821
C75	C	0.919067	-0.129069	-0.742566
C76	C	0.861267	-0.163329	-0.689716
C77	C	0.855229	-0.253193	-0.679119
C78	C	0.906994	-0.308793	-0.721374
H79	H	1.013621	-0.159302	-0.823946
H80	H	0.923537	-0.062545	-0.750411
H81	H	0.822947	-0.122171	-0.658436
H82	H	0.812440	-0.278559	-0.639994
H83	H	0.902525	-0.375316	-0.713529
C84	C	0.644548	-0.486842	-0.255518
C85	C	0.633955	-0.480286	-0.171867
C86	C	0.676203	-0.535818	-0.120002
C87	C	0.729045	-0.597904	-0.151787
C88	C	0.739640	-0.604462	-0.235442
C89	C	0.697392	-0.548931	-0.287308
H90	H	0.594836	-0.434324	-0.148334
H91	H	0.668360	-0.530963	-0.058075
H92	H	0.760320	-0.639012	-0.113394
H93	H	0.778759	-0.650425	-0.258976
H94	H	0.705235	-0.553786	-0.349235
C95	C	0.644643	-0.274785	-0.453541
C96	C	0.602397	-0.219251	-0.505400
C97	C	0.644691	-0.163701	-0.557258
C98	C	0.729231	-0.163686	-0.557258
C99	C	0.771482	-0.219222	-0.505397
C100	C	0.729188	-0.274771	-0.453539
H101	H	0.539811	-0.219261	-0.505402
H102	H	0.613414	-0.122590	-0.595649
H103	H	0.760540	-0.122565	-0.595647
H104	H	0.834068	-0.219212	-0.505395
H105	H	0.760465	-0.315882	-0.415148
C106	C	0.483247	-0.274807	-0.453553
C107	C	0.493840	-0.281371	-0.537203
C108	C	0.451600	-0.225838	-0.589073
C109	C	0.398767	-0.163740	-0.557293
C110	C	0.388171	-0.157173	-0.473639
C111	C	0.430411	-0.212707	-0.421769
H112	H	0.532953	-0.327342	-0.560732
H113	H	0.459444	-0.230699	-0.651000
H114	H	0.367498	-0.122631	-0.595691
H115	H	0.349058	-0.111203	-0.450110
H116	H	0.422567	-0.207845	-0.359842
C117	C	1.209352	-0.793510	-0.500570
C118	C	1.267123	-0.736735	-0.468719
C119	C	1.318842	-0.691246	-0.520526
C120	C	1.312791	-0.702532	-0.604185
C121	C	1.255017	-0.759309	-0.636041
C122	C	1.203298	-0.804798	-0.584234
H123	H	1.271604	-0.728379	-0.406785
H124	H	1.361610	-0.649216	-0.496944
H125	H	1.351077	-0.668859	-0.642537
H126	H	1.250536	-0.767666	-0.697975
H127	H	1.160530	-0.846828	-0.607816
H128	H	1.195964	-0.955100	-0.487133
H129	H	0.978268	-0.288938	-0.924636
H130	H	1.148970	-1.078995	-0.440049
C131	C	0.917787	-0.967309	-0.208545
C132	C	0.949739	-1.024078	-0.150807
C133	C	0.898021	-1.069568	-0.098999
C134	C	0.814350	-1.058289	-0.104930
C135	C	0.782393	-1.001517	-0.162671
C136	C	0.834111	-0.956027	-0.214478
H137	H	1.011682	-1.032429	-0.146415
H138	H	0.921678	-1.111594	-0.056256
H139	H	0.776064	-1.091963	-0.066579
H140	H	0.720451	-0.993165	-0.167063
H141	H	0.810454	-0.914001	-0.257222
C142	C	0.917724	-0.793955	-0.208499
C143	C	0.949638	-0.737233	-0.150738
C144	C	0.897889	-0.691914	-0.098901
C145	C	0.814226	-0.703316	-0.104827
C146	C	0.782308	-0.760040	-0.162591
C147	C	0.834057	-0.805360	-0.214427
H148	H	1.011574	-0.728791	-0.146349
H149	H	0.921518	-0.649923	-0.056140
H150	H	0.775919	-0.669767	-0.066454
H151	H	0.720372	-0.768483	-0.166979
H152	H	0.810429	-0.847351	-0.257188
C153	C	1.162427	-0.486822	-0.935575
C154	C	1.162452	-0.486801	-1.020115
C155	C	1.214217	-0.542399	-1.062372
C156	C	1.265957	-0.598019	-1.020088
C157	C	1.265934	-0.598043	-0.935543
C158	C	1.214169	-0.542445	-0.893287
H159	H	1.124150	-0.445625	-1.051421
H160	H	1.214234	-0.542381	-1.124958
H161	H	1.304276	-0.639176	-1.051368
H162	H	1.304236	-0.639218	-0.904238
H163	H	1.214152	-0.542462	-0.830701
C164	C	1.162397	-0.486865	-0.774175
C165	C	1.246063	-0.480417	-0.784745
C166	C	1.297807	-0.536039	-0.742461
C167	C	1.265885	-0.598108	-0.689607
C168	C	1.182215	-0.604558	-0.679034
C169	C	1.130470	-0.548937	-0.721318
H170	H	1.269698	-0.434467	-0.823873
H171	H	1.359746	-0.531263	-0.750288
H172	H	1.304190	-0.639282	-0.658305
H173	H	1.158580	-0.650508	-0.639906
H174	H	1.068531	-0.553712	-0.713491
H175	H	0.978161	-0.681835	-0.269059
