data_functionalizedCrystal
_audit_creation_method	'MofGen! by Chris Wilmer'
_symmetry_space_group_name_H-M	'P1'
_symmetry_Int_Tables_number	1
_symmetry_cell_setting	triclinic
loop_
_symmetry_equiv_pos_as_xyz
  x,y,z
_cell_length_a	16.959455
_cell_length_b	21.295411
_cell_length_c	16.959453
_cell_angle_alpha	90.017517
_cell_angle_beta	89.983065
_cell_angle_gamma	89.976585
loop_
_atom_site_label
_atom_site_type_symbol
_atom_site_fract_x
_atom_site_fract_y
_atom_site_fract_z
Zn1	Zn	1.208455	-0.355910	0.314836
Zn2	Zn	1.708455	0.144090	0.814836
Zn3	Zn	1.208357	-0.250643	0.446997
Zn4	Zn	1.708357	0.249357	0.946997
Zn5	Zn	1.076263	-0.250657	0.314830
Zn6	Zn	1.576263	0.249343	0.814830
Zn7	Zn	1.076248	-0.355877	0.446969
Zn8	Zn	1.576248	0.144123	0.946969
O9	O	1.142331	-0.303272	0.380908
O10	O	1.642331	0.196728	0.880908
O11	O	1.319053	-0.341954	0.332382
O12	O	1.819053	0.158046	0.832382
O13	O	1.190799	-0.162556	0.429474
O14	O	1.690799	0.337444	0.929474
O15	O	1.093845	-0.264639	0.204220
O16	O	1.593845	0.235361	0.704220
O17	O	1.318981	-0.264615	0.429480
O18	O	1.818981	0.235385	0.929480
O19	O	1.190967	-0.341968	0.204224
O20	O	1.690967	0.158032	0.704224
O21	O	1.093750	-0.162566	0.332371
O22	O	1.593750	0.337434	0.832371
O23	O	0.965650	-0.264607	0.332344
O24	O	1.465650	0.235393	0.832344
O25	O	1.093821	-0.443971	0.429433
O26	O	1.593821	0.056029	0.929433
O27	O	0.965639	-0.341911	0.429426
O28	O	1.465639	0.158089	0.929426
O29	O	1.190953	-0.443995	0.332355
O30	O	1.690953	0.056005	0.832355
O31	O	1.190785	-0.264583	0.557604
O32	O	1.690785	0.235417	1.057604
O33	O	1.093726	-0.341898	0.557584
O34	O	1.593726	0.158102	1.057584
C35	C	0.936965	-0.303258	0.380882
C36	C	1.436965	0.196742	0.880882
C37	C	0.849108	-0.303266	0.380890
C38	C	1.349108	0.196734	0.880890
C39	C	0.477613	-0.263104	0.330316
C40	C	0.977613	0.236896	0.830316
C41	C	0.477651	-0.343476	0.431565
C42	C	0.977651	0.156524	0.931565
C43	C	0.560197	-0.343472	0.431554
C44	C	1.060197	0.156528	0.931554
C45	C	0.601455	-0.303283	0.380924
C46	C	1.101455	0.196717	0.880924
C47	C	0.560167	-0.263097	0.330305
C48	C	1.060167	0.236903	0.830305
C49	C	0.601491	-0.383653	0.482178
C50	C	1.101491	0.116347	0.982178
C51	C	0.684042	-0.383650	0.482169
C52	C	1.184042	0.116350	0.982169
C53	C	0.725302	-0.343463	0.431534
C54	C	1.225302	0.156537	0.931534
C55	C	0.684008	-0.303277	0.380912
C56	C	1.184008	0.196723	0.880912
C57	C	0.725266	-0.263087	0.330282
C58	C	1.225266	0.236913	0.830282
C59	C	0.683975	-0.222903	0.279656
C60	C	1.183975	0.277097	0.779656
C61	C	0.601426	-0.222910	0.279670
C62	C	1.101426	0.277090	0.779670
C63	C	0.807850	-0.343456	0.431520
C64	C	1.307850	0.156544	0.931520
C65	C	0.807820	-0.263081	0.330271
C66	C	1.307820	0.236919	0.830271
C67	C	1.142396	-0.467462	0.380891
C68	C	1.642396	0.032538	0.880891
C69	C	1.142424	-0.537430	0.380884
C70	C	1.642424	-0.037430	0.880884
C71	C	1.192999	-0.570311	0.330334
C72	C	1.692999	-0.070311	0.830334
C73	C	1.192998	-0.636053	0.330299
C74	C	1.692998	-0.136053	0.830299
C75	C	1.142430	-0.668913	0.380830
C76	C	1.642430	-0.168913	0.880830
C77	C	1.091846	-0.636025	0.431384
C78	C	1.591846	-0.136025	0.931384
C79	C	1.091843	-0.570283	0.431411
C80	C	1.591843	-0.070283	0.931411
N81	N	1.136345	-0.772132	0.449976
N82	N	1.636345	-0.272132	0.949976
N83	N	1.136352	-0.834584	0.449948
N84	N	1.636352	-0.334584	0.949948
C85	C	1.142435	-0.866988	0.380750
C86	C	1.642435	-0.366988	0.880750
N87	N	1.148526	-0.834581	0.311579
N88	N	1.648526	-0.334581	0.811579
N89	N	1.148523	-0.772124	0.311608
N90	N	1.648523	-0.272124	0.811608
C91	C	1.142428	-0.740198	0.380806
C92	C	1.642428	-0.240198	0.880806
C93	C	1.193011	-0.971154	0.330158
C94	C	1.693011	-0.471154	0.830158
C95	C	1.193005	-1.036898	0.330122
C96	C	1.693005	-0.536898	0.830122
C97	C	1.091858	-1.036868	0.431214
C98	C	1.591858	-0.536868	0.931214
C99	C	1.091860	-0.971125	0.431242
C100	C	1.591860	-0.471125	0.931242
C101	C	1.142441	-0.938272	0.380715
C102	C	1.642441	-0.438272	0.880715
C103	C	1.348499	-0.303287	0.380935
C104	C	1.848499	0.196713	0.880935
C105	C	1.436356	-0.303293	0.380946
C106	C	1.936356	0.196707	0.880946
C107	C	1.142265	-0.303249	0.586274
C108	C	1.642265	0.196751	1.086274
C109	C	1.142309	-0.303260	0.674131
C110	C	1.642309	0.196740	1.174131
C111	C	1.142311	-0.139720	0.380868
C112	C	1.642311	0.360280	0.880868
C113	C	1.142436	-0.069753	0.380652
C114	C	1.642436	0.430247	0.880652
C115	C	1.142418	-0.303309	0.174740
C116	C	1.642418	0.196691	0.674740
C117	C	1.142456	-0.303325	0.086883
C118	C	1.642456	0.196675	0.586883
C119	C	1.192967	-0.343613	1.045550
C120	C	1.692967	0.156387	1.545550
C121	C	1.091916	-0.263024	1.045662
C122	C	1.591916	0.236976	1.545662
C123	C	1.091886	-0.263010	0.963117
C124	C	1.591886	0.236990	1.463117
C125	C	1.142397	-0.303298	0.921784
C126	C	1.642397	0.196702	1.421784
C127	C	1.192937	-0.343601	0.962997
C128	C	1.692937	0.156399	1.462997
C129	C	1.041342	-0.222712	0.921897
C130	C	1.541342	0.277288	1.421897
C131	C	1.041310	-0.222697	0.839346
C132	C	1.541310	0.277303	1.339346
C133	C	1.091825	-0.262982	0.798012
C134	C	1.591825	0.237018	1.298012
C135	C	1.142368	-0.303286	0.839230
C136	C	1.642368	0.196714	1.339230
C137	C	1.192878	-0.343575	0.797897
C138	C	1.692878	0.156425	1.297897
C139	C	1.243426	-0.383876	0.839114
C140	C	1.743426	0.116124	1.339114
C141	C	1.243452	-0.383887	0.921663
C142	C	1.743452	0.116113	1.421663
C143	C	1.091798	-0.262972	0.715464
C144	C	1.591798	0.237028	1.215464
C145	C	1.192849	-0.343563	0.715344
C146	C	1.692849	0.156437	1.215344
H147	H	1.234185	-0.543566	0.289189
H148	H	1.734185	-0.043566	0.789189
H149	H	0.717655	-0.416371	0.523392
H150	H	1.217655	0.083629	1.023392
C151	C	1.036826	-0.219328	0.670670
C152	C	1.536826	0.280672	1.170670
C153	C	0.986118	-0.254932	0.623303
C154	C	1.486118	0.245068	1.123303
C155	C	0.935458	-0.214748	0.582037
C156	C	1.435458	0.285252	1.082037
H157	H	1.066975	-0.191903	0.638401
H158	H	1.566975	0.308097	1.138401
H159	H	1.006698	-0.195348	0.707083
H160	H	1.506698	0.304652	1.207083
H161	H	1.016243	-0.278901	0.586895
H162	H	1.516243	0.221099	1.086895
H163	H	0.955952	-0.282356	0.655553
H164	H	1.455952	0.217644	1.155553
H165	H	0.905330	-0.190768	0.618449
H166	H	1.405330	0.309232	1.118449
H167	H	0.965613	-0.187325	0.549772
H168	H	1.465613	0.312675	1.049772
H169	H	0.901042	-0.238900	0.549899
H170	H	1.401042	0.261100	1.049899
H171	H	1.234123	-0.376424	1.079113
H172	H	1.734123	0.123576	1.579113
C173	C	1.247999	-0.671649	0.275386
C174	C	1.747999	-0.171649	0.775386
C175	C	1.292307	-0.628806	0.231156
C176	C	1.792307	-0.128806	0.731156
C177	C	1.342990	-0.661571	0.180571
C178	C	1.842990	-0.161571	0.680571
H179	H	1.217871	-0.697289	0.240860
H180	H	1.717871	-0.197289	0.740860
H181	H	1.282466	-0.697290	0.305606
H182	H	1.782466	-0.197290	0.805606
H183	H	1.257845	-0.603176	0.200938
H184	H	1.757845	-0.103176	0.700938
H185	H	1.322452	-0.603165	0.265661
H186	H	1.822452	-0.103165	0.765661
H187	H	1.377457	-0.687213	0.210791
H188	H	1.877457	-0.187213	0.710791
H189	H	1.312855	-0.687211	0.146050
H190	H	1.812855	-0.187211	0.646050
H191	H	1.373064	-0.632508	0.150560
H192	H	1.873064	-0.132508	0.650560
H193	H	1.050672	-0.662783	0.472524
H194	H	1.550672	-0.162783	0.972524
H195	H	0.567893	-0.416369	0.523404
H196	H	1.067893	0.083631	1.023404
H197	H	0.444054	-0.376193	0.472791
H198	H	0.944054	0.123807	0.972791
H199	H	1.050789	-0.230226	1.079321
H200	H	1.550789	0.269774	1.579321
C201	C	0.852713	-0.219408	0.275428
C202	C	1.352713	0.280592	0.775428
C203	C	0.900083	-0.179002	0.320102
C204	C	1.400083	0.320998	0.820102
C205	C	0.941457	-0.138768	0.269609
C206	C	1.441457	0.361232	0.769609
H207	H	0.816389	-0.195418	0.245262
H208	H	1.316389	0.304582	0.745262
H209	H	0.884985	-0.243516	0.241042
H210	H	1.384985	0.256484	0.741042
H211	H	0.867814	-0.154895	0.354474
H212	H	1.367814	0.345105	0.854474
H213	H	0.936422	-0.202974	0.350266
H214	H	1.436422	0.297026	0.850266
H215	H	0.973729	-0.162877	0.235223
H216	H	1.473729	0.337123	0.735223
H217	H	0.905127	-0.114783	0.239446
H218	H	1.405127	0.385217	0.739446
H219	H	0.973608	-0.111352	0.299912
H220	H	1.473608	0.388648	0.799912
C221	C	1.036908	-0.534694	0.486391
C222	C	1.536908	-0.034694	0.986391
C223	C	0.992633	-0.577539	0.530652
C224	C	1.492633	-0.077539	1.030652
C225	C	0.942028	-0.544776	0.581318
C226	C	1.442028	-0.044776	1.081318
H227	H	1.002411	-0.509032	0.456252
H228	H	1.502411	-0.009032	0.956252
H229	H	1.067116	-0.509075	0.520889
H230	H	1.567116	-0.009075	1.020889
H231	H	0.962427	-0.603147	0.496159
H232	H	1.462427	-0.103147	0.996159
H233	H	1.027109	-0.603203	0.560806
H234	H	1.527109	-0.103203	1.060806
H235	H	0.972237	-0.519157	0.615815
H236	H	1.472237	-0.019157	1.115815
H237	H	0.907537	-0.519114	0.551172
H238	H	1.407537	-0.019114	1.051172
H239	H	0.911988	-0.573840	0.611359
H240	H	1.411988	-0.073840	1.111359
C241	C	0.852823	-0.387010	0.486450
C242	C	1.352823	0.112990	0.986450
C243	C	0.933947	-0.378394	0.475616
C244	C	1.433947	0.121606	0.975616
C245	C	0.975400	-0.418502	0.526214
C246	C	1.475400	0.081498	1.026214
H247	H	0.839417	-0.429348	0.475018
H248	H	1.339417	0.070652	0.975018
H249	H	0.839328	-0.377712	0.539560
H250	H	1.339328	0.122288	1.039560
H251	H	0.947437	-0.387696	0.422519
H252	H	1.447437	0.112304	0.922519
H253	H	0.947376	-0.336064	0.487055
H254	H	1.447376	0.163936	0.987055
H255	H	0.961904	-0.409204	0.579324
H256	H	1.461904	0.090796	1.079324
H257	H	0.961987	-0.460838	0.514777
H258	H	1.461987	0.039162	1.014777
H259	H	1.030446	-0.412657	0.518875
H260	H	1.530446	0.087343	1.018875
H261	H	1.233984	-0.376369	0.681696
H262	H	1.733984	0.123631	1.181696
C263	C	0.986596	-0.178993	0.966914
C264	C	1.486596	0.321007	1.466914
C265	C	0.997463	-0.187614	1.048028
C266	C	1.497463	0.312386	1.548028
C267	C	0.947054	-0.147340	1.089526
C268	C	1.447054	0.352660	1.589526
H269	H	0.933442	-0.188122	0.953518
H270	H	1.433442	0.311878	1.453518
H271	H	0.998197	-0.136692	0.953445
H272	H	1.498197	0.363308	1.453445
H273	H	0.985856	-0.229906	1.061491
H274	H	1.485856	0.270094	1.561491
H275	H	1.050607	-0.178481	1.061447
H276	H	1.550607	0.321519	1.561447
H277	H	0.958655	-0.105039	1.076057
H278	H	1.458655	0.394961	1.576057
H279	H	0.893903	-0.156472	1.076123
H280	H	1.393903	0.343528	1.576123
H281	H	0.954425	-0.153180	1.144565
H282	H	1.454425	0.346820	1.644565
C283	C	1.036867	-1.072422	0.486106
C284	C	1.536867	-0.572422	0.986106
C285	C	0.992563	-1.029551	0.530373
C286	C	1.492563	-0.529551	1.030373
C287	C	0.941886	-1.062284	0.580939
C288	C	1.441886	-0.562284	1.080939
H289	H	1.067000	-1.098081	0.520609
H290	H	1.567000	-0.598081	1.020609
H291	H	1.002398	-1.098042	0.455870
H292	H	1.502398	-0.598042	0.955870
H293	H	1.027028	-1.003942	0.560607
H294	H	1.527028	-0.503942	1.060607
H295	H	0.962414	-1.003891	0.495891
H296	H	1.462414	-0.503891	0.995891
H297	H	0.907417	-1.087903	0.550703
H298	H	1.407417	-0.587903	1.050703
H299	H	0.972026	-1.087942	0.615437
H300	H	1.472026	-0.587942	1.115437
H301	H	0.911815	-1.033201	0.610975
H302	H	1.411815	-0.533201	1.110975
C303	C	0.728876	-0.179232	0.224817
C304	C	1.228876	0.320768	0.724817
C305	C	0.776245	-0.138830	0.269499
C306	C	1.276245	0.361170	0.769499
C307	C	0.817631	-0.098599	0.219012
C308	C	1.317631	0.401401	0.719012
H309	H	0.692559	-0.155240	0.194647
H310	H	1.192559	0.344760	0.694647
H311	H	0.761150	-0.203343	0.190436
H312	H	1.261150	0.296657	0.690436
H313	H	0.743974	-0.114722	0.303866
H314	H	1.243974	0.385278	0.803866
H315	H	0.812577	-0.162805	0.299667
H316	H	1.312577	0.337195	0.799667
H317	H	0.849905	-0.122710	0.184630
H318	H	1.349905	0.377290	0.684630
H319	H	0.781308	-0.074611	0.188844
H320	H	1.281308	0.425389	0.688844
H321	H	0.849781	-0.071186	0.249320
H322	H	1.349781	0.428814	0.749320
C323	C	1.247947	-0.935593	0.275208
C324	C	1.747947	-0.435593	0.775208
C325	C	1.292219	-0.978463	0.230908
C326	C	1.792219	-0.478463	0.730908
C327	C	1.342826	-0.945730	0.180273
C328	C	1.842826	-0.445730	0.680273
H329	H	1.282446	-0.909958	0.305371
H330	H	1.782446	-0.409958	0.805371
H331	H	1.217741	-0.909950	0.240735
H332	H	1.717741	-0.409950	0.740735
H333	H	1.322423	-1.004096	0.265377
H334	H	1.822423	-0.504096	0.765377
H335	H	1.257741	-1.004100	0.200729
H336	H	1.757741	-0.504100	0.700729
H337	H	1.312619	-0.920087	0.145799
H338	H	1.812619	-0.420087	0.645799
H339	H	1.377319	-0.920096	0.210442
H340	H	1.877319	-0.420096	0.710442
H341	H	1.372865	-0.974812	0.150204
H342	H	1.872865	-0.474812	0.650204
H343	H	1.000153	-0.189881	0.805793
H344	H	1.500153	0.310119	1.305793
C345	C	1.247782	-1.072629	0.275129
C346	C	1.747782	-0.572629	0.775129
C347	C	1.203047	-1.110338	0.224425
C348	C	1.703047	-0.610338	0.724425
C349	C	1.253479	-1.143255	0.173745
C350	C	1.753479	-0.643255	0.673745
H351	H	1.282225	-1.098341	0.305263
H352	H	1.782225	-0.598341	0.805263
H353	H	1.277887	-1.043662	0.244998
H354	H	1.777887	-0.543662	0.744998
H355	H	1.172956	-1.139301	0.254552
H356	H	1.672956	-0.639301	0.754552
H357	H	1.168606	-1.084641	0.194274
H358	H	1.668606	-0.584641	0.694274
H359	H	1.283584	-1.114288	0.143614
H360	H	1.783584	-0.614288	0.643614
H361	H	1.287920	-1.168964	0.203885
H362	H	1.787920	-0.668964	0.703885
H363	H	1.223134	-1.168840	0.139331
H364	H	1.723134	-0.668840	0.639331
H365	H	1.050682	-0.944354	0.472411
H366	H	1.550682	-0.444354	0.972411
C367	C	1.298234	-0.427549	0.794091
C368	C	1.798234	0.072451	1.294091
C369	C	1.287394	-0.418901	0.712978
C370	C	1.787394	0.081099	1.212978
C371	C	1.337874	-0.459114	0.671476
C372	C	1.837874	0.040886	1.171476
H373	H	1.286698	-0.469864	0.807506
H374	H	1.786698	0.030136	1.307506
H375	H	1.351372	-0.418370	0.807537
H376	H	1.851372	0.081630	1.307537
H377	H	1.234268	-0.428085	0.699538
H378	H	1.734268	0.071915	1.199538
H379	H	1.298935	-0.376594	0.699540
H380	H	1.798935	0.123406	1.199540
H381	H	1.391012	-0.449935	0.684922
H382	H	1.891012	0.050065	1.184922
H383	H	1.326334	-0.501427	0.684897
H384	H	1.826334	-0.001427	1.184897
H385	H	1.330532	-0.453248	0.616437
H386	H	1.830532	0.046752	1.116437
H387	H	1.284605	-0.416699	0.955229
H388	H	1.784605	0.083301	1.455229
H389	H	0.443990	-0.230388	0.289095
H390	H	0.943990	0.269612	0.789095
C391	C	0.556452	-0.179313	0.224789
C392	C	1.056452	0.320687	0.724789
C393	C	0.475330	-0.187912	0.235651
C394	C	0.975330	0.312088	0.735651
C395	C	0.433873	-0.147758	0.185114
C396	C	0.933873	0.352242	0.685114
H397	H	0.569901	-0.188566	0.171665
H398	H	1.069901	0.311434	0.671665
H399	H	0.569903	-0.136984	0.236276
H400	H	1.069903	0.363016	0.736276
H401	H	0.461885	-0.230231	0.224158
H402	H	0.961885	0.269769	0.724158
H403	H	0.461858	-0.178654	0.288764
H404	H	0.961858	0.321346	0.788764
H405	H	0.447323	-0.105429	0.196602
H406	H	0.947323	0.394571	0.696602
H407	H	0.447327	-0.157014	0.131994
H408	H	0.947327	0.342986	0.631994
H409	H	0.378827	-0.153582	0.192482
H410	H	0.878827	0.346418	0.692482
