data_functionalizedCrystal
_audit_creation_method	'MofGen! by Chris Wilmer'
_symmetry_space_group_name_H-M	'P1'
_symmetry_Int_Tables_number	1
_symmetry_cell_setting	triclinic
loop_
_symmetry_equiv_pos_as_xyz
  x,y,z
_cell_length_a	15.944551
_cell_length_b	10.654550
_cell_length_c	9.130313
_cell_angle_alpha	89.999890
_cell_angle_beta	90.004256
_cell_angle_gamma	83.991821
loop_
_atom_site_label
_atom_site_type_symbol
_atom_site_fract_x
_atom_site_fract_y
_atom_site_fract_z
O1	O	1.115457	0.161961	-0.121643
O2	O	0.871023	0.181929	-0.121679
O3	O	0.998860	-0.010867	-0.121654
O4	O	0.987620	0.354757	-0.121667
O5	O	0.998858	-0.010862	0.121944
O6	O	0.871021	0.181935	0.121920
O7	O	1.115455	0.161966	0.121956
Cu8	Cu	0.993238	0.171951	0.144181
Cu9	Cu	0.993240	0.171945	-0.143903
O10	O	0.987618	0.354762	0.121932
C11	C	0.998034	-0.057652	0.000143
C12	C	0.995565	-0.197063	0.000138
C13	C	0.839723	0.181103	0.000116
C14	C	0.746463	0.178618	0.000102
C15	C	1.070833	-0.277522	0.000153
C16	C	1.068508	-0.408513	0.000143
C17	C	0.915639	-0.378572	0.000107
C18	C	0.917965	-0.247584	0.000107
C19	C	1.159090	-0.294810	0.000180
C20	C	1.156765	-0.425801	0.000169
C21	C	0.530880	0.053173	0.000135
C22	C	0.470198	0.111423	-0.119974
C23	C	0.575711	0.174122	0.000120
C24	C	0.470219	0.111457	0.120195
C25	C	0.410773	0.169770	0.000143
C26	C	0.516257	0.232405	-0.120088
C27	C	0.516284	0.232421	0.120189
C28	C	0.455620	0.290759	0.000050
C29	C	0.670728	0.176625	0.000105
C30	C	0.315757	0.167276	0.000147
C31	C	1.146755	0.162792	0.000158
C32	C	1.240015	0.165278	0.000162
C33	C	0.988444	0.401547	0.000131
C34	C	0.990913	0.540958	0.000127
N35	N	0.993243	0.171954	0.346803
N36	N	0.993242	0.171931	-0.346526
C37	C	1.049864	0.086613	0.423466
C38	C	1.049861	0.086598	0.576803
C39	C	0.936615	0.257277	0.576801
C40	C	0.936614	0.257285	0.423467
C41	C	1.115248	-0.011924	0.423468
C42	C	1.115246	-0.011939	0.576805
H43	H	0.852460	-0.419722	0.000081
N44	N	0.841080	-0.165397	0.000049
N45	N	0.789654	-0.170007	-0.102657
H46	H	0.735349	-0.111963	-0.102701
H47	H	1.094839	-0.102897	0.624352
H48	H	0.536711	0.283537	0.221734
N49	N	1.196211	0.014019	0.629048
N50	N	1.202705	0.108491	0.707781
H51	H	1.259884	0.126821	0.744682
N52	N	1.202402	-0.258553	-0.127692
N53	N	1.231003	-0.340427	-0.217791
H54	H	1.261592	-0.314821	-0.308099
N55	N	1.194343	-0.250577	0.132140
N56	N	1.218799	-0.326990	0.230960
H57	H	1.243695	-0.295751	0.324160
H58	H	1.183439	-0.471791	-0.105006
H59	H	0.536541	0.283520	-0.221742
H60	H	1.190019	-0.467989	0.102118
N61	N	0.571927	-0.072772	-0.000017
N62	N	0.559930	-0.145797	-0.103305
H63	H	0.588919	-0.234744	-0.103419
N64	N	1.191756	0.025472	0.363846
N65	N	1.260642	-0.036760	0.392596
H66	H	1.314675	-0.010336	0.350495
H67	H	0.449792	0.060264	-0.221514
H68	H	0.423043	0.391240	-0.000020
H69	H	0.449836	0.060280	0.221735
N70	N	0.878758	0.344447	0.345179
N71	N	0.828201	0.420621	0.413651
H72	H	0.787336	0.482181	0.358362
H73	H	0.890508	0.326750	0.639237
H74	H	1.100907	-0.108271	0.381849
