data_functionalizedCrystal
_audit_creation_method	'MofGen! by Chris Wilmer'
_symmetry_space_group_name_H-M	'P1'
_symmetry_Int_Tables_number	1
_symmetry_cell_setting	triclinic
loop_
_symmetry_equiv_pos_as_xyz
  x,y,z
_cell_length_a	15.944551
_cell_length_b	11.792254
_cell_length_c	10.268362
_cell_angle_alpha	89.994545
_cell_angle_beta	89.999906
_cell_angle_gamma	83.848668
loop_
_atom_site_label
_atom_site_type_symbol
_atom_site_fract_x
_atom_site_fract_y
_atom_site_fract_z
O1	O	1.115190	0.146380	-0.108165
O2	O	1.365190	0.396380	0.141835
O3	O	1.615190	0.646380	0.391835
O4	O	1.865190	0.896380	0.641835
O5	O	0.870722	0.164427	-0.108197
O6	O	1.120722	0.414427	0.141803
O7	O	1.370722	0.664427	0.391803
O8	O	1.620722	0.914427	0.641803
O9	O	0.998883	-0.009815	-0.108171
O10	O	1.248883	0.240185	0.141829
O11	O	1.498883	0.490185	0.391829
O12	O	1.748883	0.740185	0.641829
O13	O	0.987029	0.320622	-0.108191
O14	O	1.237029	0.570622	0.141809
O15	O	1.487029	0.820622	0.391809
O16	O	1.737029	1.070622	0.641809
O17	O	0.998872	-0.009822	0.108429
O18	O	1.248872	0.240178	0.358429
O19	O	1.498872	0.490178	0.608429
O20	O	1.748872	0.740178	0.858429
O21	O	0.870711	0.164420	0.108403
O22	O	1.120711	0.414420	0.358403
O23	O	1.370711	0.664420	0.608403
O24	O	1.620711	0.914420	0.858403
O25	O	1.115178	0.146373	0.108436
O26	O	1.365178	0.396373	0.358436
O27	O	1.615178	0.646373	0.608436
O28	O	1.865178	0.896373	0.858436
Cu29	Cu	0.992944	0.155395	0.128197
Cu30	Cu	1.242944	0.405395	0.378197
Cu31	Cu	1.492944	0.655395	0.628197
Cu32	Cu	1.742944	0.905395	0.878197
Cu33	Cu	0.992957	0.155404	-0.127959
Cu34	Cu	1.242957	0.405404	0.122041
Cu35	Cu	1.492957	0.655404	0.372041
Cu36	Cu	1.742957	0.905404	0.622041
O37	O	0.987018	0.320615	0.108409
O38	O	1.237018	0.570615	0.358409
O39	O	1.487018	0.820615	0.608409
O40	O	1.737018	1.070615	0.858409
C41	C	0.998131	-0.052103	0.000129
C42	C	1.248131	0.197897	0.250129
C43	C	1.498131	0.447897	0.500129
C44	C	1.748131	0.697897	0.750129
C45	C	0.995895	-0.178098	0.000127
C46	C	1.245895	0.071902	0.250127
C47	C	1.495895	0.321902	0.500127
C48	C	1.745895	0.571902	0.750127
C49	C	0.839419	0.163674	0.000099
C50	C	1.089419	0.413674	0.250099
C51	C	1.339419	0.663674	0.500099
C52	C	1.589419	0.913674	0.750099
C53	C	0.746163	0.161428	0.000087
C54	C	0.996163	0.411428	0.250087
C55	C	1.246163	0.661428	0.500087
C56	C	1.496163	0.911428	0.750087
C57	C	0.994079	-0.280420	0.000122
C58	C	1.244079	-0.030420	0.250122
C59	C	1.494079	0.219580	0.500122
C60	C	1.744079	0.469580	0.750122
C61	C	0.991809	-0.408787	0.000110
C62	C	1.241809	-0.158787	0.250110
C63	C	1.491809	0.091213	0.500110
C64	C	1.741809	0.341213	0.750110
C65	C	0.530791	0.048056	0.000119
C66	C	0.780791	0.298056	0.250119
C67	C	1.030791	0.548056	0.500119
C68	C	1.280791	0.798056	0.750119
C69	C	0.470015	0.100705	-0.106680
C70	C	0.720015	0.350705	0.143320
C71	C	0.970015	0.600705	0.393320
C72	C	1.220015	0.850705	0.643320
C73	C	0.575418	0.157364	0.000102
C74	C	0.825418	0.407364	0.250102
C75	C	1.075418	0.657364	0.500102
C76	C	1.325418	0.907364	0.750102
C77	C	0.470027	0.100724	0.106871
C78	C	0.720027	0.350724	0.356871
C79	C	0.970027	0.600724	0.606871
C80	C	1.220027	0.850724	0.856871
C81	C	0.410488	0.153431	0.000123
C82	C	0.660488	0.403431	0.250123
C83	C	0.910488	0.653431	0.500123
C84	C	1.160488	0.903431	0.750123
C85	C	0.515872	0.210044	-0.106785
C86	C	0.765872	0.460044	0.143215
C87	C	1.015872	0.710044	0.393215
C88	C	1.265872	0.960044	0.643215
C89	C	0.515889	0.210048	0.106863
C90	C	0.765889	0.460048	0.356863
C91	C	1.015889	0.710048	0.606863
C92	C	1.265889	0.960048	0.856863
C93	C	0.455132	0.262777	0.000038
C94	C	0.705132	0.512777	0.250038
C95	C	0.955132	0.762777	0.500038
C96	C	1.205132	1.012777	0.750038
C97	C	0.670431	0.159627	0.000089
C98	C	0.920431	0.409627	0.250089
C99	C	1.170431	0.659627	0.500089
C100	C	1.420431	0.909627	0.750089
C101	C	0.315477	0.151177	0.000127
C102	C	0.565477	0.401177	0.250127
C103	C	0.815477	0.651177	0.500127
C104	C	1.065477	0.901177	0.750127
C105	C	1.146481	0.147125	0.000137
C106	C	1.396481	0.397125	0.250137
C107	C	1.646481	0.647125	0.500137
C108	C	1.896481	0.897125	0.750137
C109	C	1.239738	0.149371	0.000140
C110	C	1.489738	0.399371	0.250140
C111	C	1.739738	0.649371	0.500140
C112	C	1.989738	0.899371	0.750140
C113	C	0.987770	0.362903	0.000107
C114	C	1.237770	0.612903	0.250107
C115	C	1.487770	0.862903	0.500107
C116	C	1.737770	1.112903	0.750107
C117	C	0.990005	0.488897	0.000100
C118	C	1.240005	0.738897	0.250100
C119	C	1.490005	0.988897	0.500100
C120	C	1.740005	1.238897	0.750100
N121	N	0.992940	0.155389	0.308363
N122	N	1.242940	0.405389	0.558363
N123	N	1.492940	0.655389	0.808363
N124	N	1.742940	0.905389	1.058363
N125	N	0.992967	0.155402	-0.308124
N126	N	1.242967	0.405402	-0.058124
N127	N	1.492967	0.655402	0.191876
N128	N	1.742967	0.905402	0.441876
C129	C	0.992953	0.155402	0.574033
C130	C	1.242953	0.405402	0.824033
C131	C	1.492953	0.655402	1.074033
C132	C	1.742953	0.905402	1.324033
C133	C	0.992943	0.155398	0.426195
C134	C	1.242943	0.405398	0.676195
C135	C	1.492943	0.655398	0.926195
C136	C	1.742943	0.905398	1.176195
H137	H	0.563711	-0.042661	-0.000008
H138	H	0.813711	0.207339	0.249992
H139	H	1.063711	0.457339	0.499992
H140	H	1.313711	0.707339	0.749992
H141	H	0.536074	0.256246	-0.197173
H142	H	0.786074	0.506246	0.052827
H143	H	1.036074	0.756246	0.302827
H144	H	1.286074	1.006246	0.552827
H145	H	0.422386	0.353588	-0.000027
H146	H	0.672386	0.603588	0.249973
H147	H	0.922386	0.853588	0.499973
H148	H	1.172386	1.103588	0.749973
H149	H	0.449700	0.054475	-0.196965
H150	H	0.699700	0.304475	0.053035
H151	H	0.949700	0.554475	0.303035
H152	H	1.199700	0.804475	0.553035
H153	H	0.536226	0.256240	0.197152
H154	H	0.786226	0.506240	0.447152
H155	H	1.036226	0.756240	0.697152
H156	H	1.286226	1.006240	0.947152
H157	H	0.449726	0.054468	0.197158
H158	H	0.699726	0.304468	0.447158
H159	H	0.949726	0.554468	0.697158
H160	H	1.199726	0.804468	0.947158
