data_functionalizedCrystal
_audit_creation_method	'MofGen! by Chris Wilmer'
_symmetry_space_group_name_H-M	'P1'
_symmetry_Int_Tables_number	1
_symmetry_cell_setting	triclinic
loop_
_symmetry_equiv_pos_as_xyz
  x,y,z
_cell_length_a	17.077404
_cell_length_b	18.101395
_cell_length_c	17.077396
_cell_angle_alpha	89.970929
_cell_angle_beta	89.982940
_cell_angle_gamma	90.031329
loop_
_atom_site_label
_atom_site_type_symbol
_atom_site_fract_x
_atom_site_fract_y
_atom_site_fract_z
Zn1	Zn	1.199991	-0.294813	-0.443848
Zn2	Zn	1.699991	0.205187	0.056152
Zn3	Zn	1.199885	-0.418666	-0.312585
Zn4	Zn	1.699885	0.081334	0.187415
Zn5	Zn	1.068728	-0.294843	-0.312596
Zn6	Zn	1.568728	0.205157	0.187404
Zn7	Zn	1.068672	-0.418618	-0.443808
Zn8	Zn	1.568672	0.081382	0.056192
O9	O	1.134319	-0.356735	-0.378209
O10	O	1.634319	0.143265	0.121791
O11	O	1.309824	-0.311250	-0.426448
O12	O	1.809824	0.188750	0.073552
O13	O	1.182466	-0.402272	-0.202739
O14	O	1.682466	0.097728	0.297261
O15	O	1.086209	-0.191206	-0.330029
O16	O	1.586209	0.308794	0.169971
O17	O	1.309746	-0.402244	-0.330009
O18	O	1.809746	0.097756	0.169991
O19	O	1.182647	-0.191184	-0.426459
O20	O	1.682647	0.308816	0.073541
O21	O	1.086106	-0.311300	-0.202748
O22	O	1.586106	0.188700	0.297252
O23	O	0.958874	-0.311254	-0.329990
O24	O	1.458874	0.188746	0.170010
O25	O	1.086112	-0.402163	-0.553660
O26	O	1.586112	0.097837	-0.053660
O27	O	0.958832	-0.402192	-0.426391
O28	O	1.458832	0.097808	0.073609
O29	O	1.182592	-0.311204	-0.553690
O30	O	1.682592	0.188796	-0.053690
O31	O	1.182411	-0.522292	-0.329970
O32	O	1.682411	-0.022292	0.170030
O33	O	1.086010	-0.522257	-0.426379
O34	O	1.586010	-0.022257	0.073621
C35	C	0.930371	-0.356722	-0.378188
C36	C	1.430371	0.143278	0.121812
C37	C	0.843121	-0.356734	-0.378197
C38	C	1.343121	0.143266	0.121803
C39	C	0.802130	-0.404156	-0.428312
C40	C	1.302130	0.095844	0.071688
C41	C	0.720150	-0.404158	-0.428325
C42	C	1.220150	0.095842	0.071675
C43	C	0.679162	-0.356740	-0.378218
C44	C	1.179162	0.143260	0.121782
C45	C	0.720159	-0.309312	-0.328100
C46	C	1.220159	0.190688	0.171900
C47	C	0.802138	-0.309308	-0.328092
C48	C	1.302138	0.190692	0.171908
C49	C	0.549289	-0.309327	-0.328119
C50	C	1.049289	0.190673	0.171881
C51	C	0.467304	-0.309333	-0.328126
C52	C	0.967304	0.190667	0.171874
C53	C	0.467301	-0.404177	-0.428352
C54	C	0.967301	0.095823	0.071648
C55	C	0.549280	-0.404172	-0.428344
C56	C	1.049280	0.095828	0.071656
C57	C	0.590271	-0.356745	-0.378225
C58	C	1.090271	0.143255	0.121775
C59	C	1.134214	-0.549146	-0.378186
C60	C	1.634214	-0.049146	0.121814
C61	C	1.134241	-0.631460	-0.378203
C62	C	1.634241	-0.131460	0.121797
C63	C	1.134413	-0.930551	-0.378245
C64	C	1.634413	-0.430551	0.121755
C65	C	1.073900	-0.899234	-0.439054
C66	C	1.573900	-0.399234	0.060946
C67	C	1.073613	-0.813616	-0.438863
C68	C	1.573613	-0.313616	0.061137
C69	C	1.134328	-0.782168	-0.378225
C70	C	1.634328	-0.282168	0.121775
C71	C	1.111934	-0.813322	-0.295495
C72	C	1.611934	-0.313322	0.204505
C73	C	1.111544	-0.898967	-0.295859
C74	C	1.611544	-0.398967	0.204141
C75	C	1.217452	-0.898893	-0.399437
C76	C	1.717452	-0.398893	0.100563
C77	C	1.216963	-0.813242	-0.401252
C78	C	1.716963	-0.313242	0.098748
C79	C	1.134281	-0.698309	-0.378208
C80	C	1.634281	-0.198309	0.121792
C81	C	1.134458	-1.014410	-0.378256
C82	C	1.634458	-0.514410	0.121744
C83	C	1.339063	-0.356749	-0.378231
C84	C	1.839063	0.143251	0.121769
C85	C	1.426313	-0.356755	-0.378241
C86	C	1.926313	0.143245	0.121759
C87	C	1.134358	-0.356675	-0.582954
C88	C	1.634358	0.143325	-0.082954
C89	C	1.134374	-0.356650	-0.670203
C90	C	1.634374	0.143350	-0.170203
C91	C	1.134446	-0.163573	-0.378250
C92	C	1.634446	0.336427	0.121750
C93	C	1.134500	-0.081259	-0.378267
C94	C	1.634500	0.418741	0.121733
C95	C	1.184620	-0.403932	-1.046016
C96	C	1.684620	0.096068	-0.546016
C97	C	1.184600	-0.403954	-0.964036
C98	C	1.684600	0.096046	-0.464036
C99	C	1.134425	-0.356597	-0.923053
C100	C	1.634425	0.143403	-0.423053
C101	C	1.084260	-0.309221	-0.964054
C102	C	1.584260	0.190779	-0.464054
C103	C	1.084277	-0.309204	-1.046033
C104	C	1.584277	0.190796	-0.546033
C105	C	1.084231	-0.309259	-0.793184
C106	C	1.584231	0.190741	-0.293184
C107	C	1.084215	-0.309275	-0.711200
C108	C	1.584215	0.190725	-0.211200
C109	C	1.184555	-0.404010	-0.711186
C110	C	1.684555	0.095990	-0.211186
C111	C	1.184571	-0.403992	-0.793165
C112	C	1.684571	0.096008	-0.293165
C113	C	1.134407	-0.356615	-0.834161
C114	C	1.634407	0.143385	-0.334161
C115	C	1.134326	-0.356741	-0.174261
C116	C	1.634326	0.143259	0.325739
C117	C	1.134461	-0.356558	-0.087012
C118	C	1.634461	0.143442	0.412988
H119	H	0.835512	-0.270688	-0.287287
H120	H	1.335512	0.229312	0.212713
Cl121	Cl	0.668621	-0.463777	-0.491330
Cl122	Cl	1.168621	0.036223	0.008670
H123	H	1.225436	-0.442540	-0.930660
H124	H	1.725436	0.057460	-0.430660
H125	H	0.582661	-0.270700	-0.287314
H126	H	1.082661	0.229300	0.212686
H127	H	1.043433	-0.270626	-1.079411
H128	H	1.543433	0.229374	-0.579411
Cl129	Cl	1.095239	-0.781089	-0.533573
Cl130	Cl	1.595239	-0.281089	-0.033573
Cl131	Cl	1.247707	-0.463466	-1.097529
Cl132	Cl	1.747707	0.036534	-0.597529
Cl133	Cl	1.177839	-0.781876	-0.223633
Cl134	Cl	1.677839	-0.281876	0.276367
H135	H	0.433922	-0.442792	-0.469163
H136	H	0.933922	0.057208	0.030837
H137	H	1.225432	-0.442551	-0.826532
H138	H	1.725432	0.057449	-0.326532
H139	H	1.225400	-0.442586	-0.677803
H140	H	1.725400	0.057414	-0.177803
H141	H	1.264433	-0.791831	-0.360190
H142	H	1.764433	-0.291831	0.139810
H143	H	1.051876	-0.791938	-0.277221
H144	H	1.551876	-0.291938	0.222779
Cl145	Cl	1.095310	-0.930958	-0.534073
Cl146	Cl	1.595310	-0.430958	-0.034073
H147	H	1.262536	-0.919144	-0.355148
H148	H	1.762536	-0.419144	0.144852
Cl149	Cl	1.021134	-0.249743	-0.659679
Cl150	Cl	1.521134	0.250257	-0.159679
H151	H	0.835496	-0.442772	-0.469113
H152	H	1.335496	0.057228	0.030887
Cl153	Cl	1.021192	-0.249676	-0.912533
Cl154	Cl	1.521192	0.250324	-0.412533
Cl155	Cl	1.243039	-0.781801	-0.495253
Cl156	Cl	1.743039	-0.281801	0.004747
H157	H	1.012063	-0.793194	-0.424826
H158	H	1.512063	-0.293194	0.075174
H159	H	0.582650	-0.442788	-0.469141
H160	H	1.082650	0.057212	0.030859
H161	H	1.237869	-0.920440	-0.458736
H162	H	1.737869	-0.420440	0.041264
H163	H	1.012724	-0.920821	-0.425192
H164	H	1.512724	-0.420821	0.074808
Cl165	Cl	0.668631	-0.249696	-0.265112
Cl166	Cl	1.168631	0.250304	0.234888
Cl167	Cl	0.415778	-0.249724	-0.265129
Cl168	Cl	0.915778	0.250276	0.234871
Cl169	Cl	1.017827	-0.929916	-0.268144
Cl170	Cl	1.517827	-0.429916	0.231856
H171	H	1.043382	-0.270680	-0.826561
H172	H	1.543382	0.229320	-0.326561
Cl173	Cl	1.176630	-0.930959	-0.223517
Cl174	Cl	1.676630	-0.430959	0.276483
