data_functionalizedCrystal
_audit_creation_method	'MofGen! by Chris Wilmer'
_symmetry_space_group_name_H-M	'P1'
_symmetry_Int_Tables_number	1
_symmetry_cell_setting	triclinic
loop_
_symmetry_equiv_pos_as_xyz
  x,y,z
_cell_length_a	21.295420
_cell_length_b	21.295418
_cell_length_c	19.805399
_cell_angle_alpha	90.029354
_cell_angle_beta	89.983906
_cell_angle_gamma	89.968030
loop_
_atom_site_label
_atom_site_type_symbol
_atom_site_fract_x
_atom_site_fract_y
_atom_site_fract_z
Zn1	Zn	0.962288	0.250644	-0.382704
Zn2	Zn	1.295621	0.583978	-0.049370
Zn3	Zn	1.628955	0.917311	0.283963
Zn4	Zn	0.962200	0.355916	-0.269515
Zn5	Zn	1.295534	0.689249	0.063819
Zn6	Zn	1.628867	1.022582	0.397152
Zn7	Zn	0.857027	0.250661	-0.269530
Zn8	Zn	1.190360	0.583995	0.063804
Zn9	Zn	1.523694	0.917328	0.397137
Zn10	Zn	0.856975	0.355877	-0.382663
Zn11	Zn	1.190308	0.689210	-0.049330
Zn12	Zn	1.523641	1.022543	0.284004
O13	O	0.909622	0.303274	-0.326103
O14	O	1.242956	0.636608	0.007231
O15	O	1.576289	0.969941	0.340564
O16	O	1.050366	0.264618	-0.367700
O17	O	1.383699	0.597952	-0.034366
O18	O	1.717032	0.931285	0.298967
O19	O	0.948234	0.341977	-0.174800
O20	O	1.281567	0.675310	0.158533
O21	O	1.614901	1.008644	0.491867
O22	O	0.871049	0.162570	-0.284566
O23	O	1.204382	0.495903	0.048767
O24	O	1.537715	0.829236	0.382101
O25	O	1.050301	0.341961	-0.284540
O26	O	1.383635	0.675294	0.048793
O27	O	1.716968	1.008627	0.382127
O28	O	0.948383	0.162557	-0.367714
O29	O	1.281717	0.495891	-0.034381
O30	O	1.615050	0.829224	0.298952
O31	O	0.870964	0.264647	-0.174811
O32	O	1.204297	0.597980	0.158522
O33	O	1.537630	0.931314	0.491856
O34	O	0.768931	0.264609	-0.284526
O35	O	1.102264	0.597942	0.048807
O36	O	1.435597	0.931275	0.382140
O37	O	0.870959	0.341894	-0.477385
O38	O	1.204293	0.675227	-0.144052
O39	O	1.537626	1.008560	0.189282
O40	O	0.768892	0.341910	-0.367645
O41	O	1.102226	0.675243	-0.034312
O42	O	1.435559	1.008577	0.299022
O43	O	0.948333	0.264580	-0.477415
O44	O	1.281666	0.597914	-0.144081
O45	O	1.614999	0.931247	0.189252
O46	O	0.948183	0.444000	-0.284501
O47	O	1.281517	0.777333	0.048833
O48	O	1.614850	1.110667	0.382166
O49	O	0.870874	0.443971	-0.367630
O50	O	1.204208	0.777304	-0.034297
O51	O	1.537541	1.110638	0.299036
C52	C	0.746071	0.303257	-0.326083
C53	C	1.079404	0.636591	0.007250
C54	C	1.412737	0.969924	0.340583
C55	C	0.676103	0.303265	-0.326091
C56	C	1.009436	0.636599	0.007242
C57	C	1.342769	0.969932	0.340576
C58	C	0.909531	0.466826	-0.326074
C59	C	1.242864	0.800159	0.007259
C60	C	1.576197	1.133493	0.340593
C61	C	0.909549	0.536794	-0.326085
C62	C	1.242882	0.870128	0.007249
C63	C	1.576216	1.203461	0.340582
C64	C	0.176641	0.343599	-0.369340
C65	C	0.509975	0.676933	-0.036007
C66	C	0.843308	1.010266	0.297326
C67	C	0.242384	0.343600	-0.369333
C68	C	0.575717	0.676933	-0.036000
C69	C	0.909050	1.010266	0.297333
C70	C	0.275263	0.303289	-0.326124
C71	C	0.608597	0.636622	0.007209
C72	C	0.941930	0.969955	0.340543
C73	C	0.242395	0.262986	-0.282906
C74	C	0.575728	0.596319	0.050427
C75	C	0.909061	0.929653	0.383760
C76	C	0.176654	0.262991	-0.282910
C77	C	0.509987	0.596325	0.050424
C78	C	0.843320	0.929658	0.383757
N79	N	0.378508	0.248172	-0.321032
N80	N	0.711841	0.581505	0.012301
N81	N	1.045174	0.914839	0.345634
N82	N	0.440959	0.248169	-0.321033
N83	N	0.774293	0.581502	0.012300
N84	N	1.107626	0.914836	0.345634
C85	C	0.473338	0.303271	-0.326110
C86	C	0.806671	0.636604	0.007224
C87	C	1.140005	0.969938	0.340557
N88	N	0.440906	0.358378	-0.331199
N89	N	0.774239	0.691711	0.002134
N90	N	1.107573	1.025045	0.335468
N91	N	0.378449	0.358381	-0.331202
N92	N	0.711782	0.691714	0.002131
N93	N	1.045115	1.025047	0.335465
C94	C	0.346549	0.303279	-0.326115
C95	C	0.679882	0.636612	0.007218
C96	C	1.013215	0.969945	0.340552
C97	C	0.577484	0.343574	-0.369314
C98	C	0.910817	0.676908	-0.035980
C99	C	1.244151	1.010241	0.297353
C100	C	0.643228	0.343576	-0.369302
C101	C	0.976561	0.676909	-0.035968
C102	C	1.309894	1.010242	0.297365
C103	C	0.643238	0.262957	-0.282878
C104	C	0.976571	0.596290	0.050455
C105	C	1.309904	0.929623	0.383789
C106	C	0.577495	0.262961	-0.282886
C107	C	0.910828	0.596294	0.050447
C108	C	1.244162	0.929628	0.383780
C109	C	0.544622	0.303269	-0.326108
C110	C	0.877956	0.636602	0.007226
C111	C	1.211289	0.969936	0.340559
C112	C	0.949901	1.036192	-0.369467
C113	C	1.283234	1.369526	-0.036134
C114	C	1.616567	1.702859	0.297199
C115	C	0.949888	0.970450	-0.369458
C116	C	1.283222	1.303783	-0.036125
C117	C	1.616555	1.637117	0.297208
C118	C	0.909649	0.937634	-0.326130
C119	C	1.242982	1.270967	0.007203
C120	C	1.576316	1.604300	0.340537
C121	C	0.869431	0.970565	-0.282795
C122	C	1.202764	1.303898	0.050538
C123	C	1.536097	1.637232	0.383872
C124	C	0.869449	1.036306	-0.282801
C125	C	1.202782	1.369640	0.050533
C126	C	1.536115	1.702973	0.383866
N127	N	0.854522	0.834462	-0.320874
N128	N	1.187855	1.167796	0.012460
N129	N	1.521189	1.501129	0.345793
N130	N	0.854507	0.772011	-0.320872
N131	N	1.187840	1.105344	0.012461
N132	N	1.521174	1.438678	0.345794
C133	C	0.909594	0.739559	-0.326109
C134	C	1.242927	1.072892	0.007224
C135	C	1.576260	1.406226	0.340557
N136	N	0.964697	0.771918	-0.331361
N137	N	1.298031	1.105251	0.001972
N138	N	1.631364	1.438584	0.335306
N139	N	0.964712	0.834375	-0.331366
N140	N	1.298045	1.167708	0.001967
N141	N	1.631379	1.501041	0.335301
C142	C	0.909625	0.866348	-0.326119
C143	C	1.242959	1.199682	0.007215
C144	C	1.576292	1.533015	0.340548
C145	C	0.949799	0.635350	-0.369428
C146	C	1.283133	0.968683	-0.036095
C147	C	1.616466	1.302016	0.297239
C148	C	0.949788	0.569606	-0.369414
C149	C	1.283121	0.902939	-0.036081
C150	C	1.616455	1.236273	0.297252
C151	C	0.869325	0.569722	-0.282755
C152	C	1.202658	0.903056	0.050579
C153	C	1.535991	1.236389	0.383912
C154	C	0.869341	0.635465	-0.282765
C155	C	1.202675	0.968798	0.050568
C156	C	1.536008	1.302132	0.383902
C157	C	0.909578	0.668275	-0.326105
C158	C	1.242911	1.001608	0.007228
C159	C	1.576245	1.334941	0.340561
C160	C	1.073813	0.303292	-0.326123
C161	C	1.407146	0.636625	0.007211
C162	C	1.740479	0.969959	0.340544
C163	C	1.143781	0.303300	-0.326131
C164	C	1.477114	0.636633	0.007202
C165	C	1.810447	0.969966	0.340536
C166	C	0.909708	1.139084	-0.326140
C167	C	1.243042	1.472418	0.007193
C168	C	1.576375	1.805751	0.340526
C169	C	0.909685	1.069116	-0.326141
C170	C	1.243018	1.402449	0.007192
C171	C	1.576352	1.735783	0.340526
C172	C	0.909650	0.303231	-0.502646
C173	C	1.242983	0.636564	-0.169312
C174	C	1.576317	0.969897	0.164021
C175	C	0.909662	0.303212	-0.577878
C176	C	1.242995	0.636546	-0.244544
C177	C	1.576328	0.969879	0.088789
C178	C	0.869439	0.262943	-0.613227
C179	C	1.202772	0.596276	-0.279894
C180	C	1.536105	0.929609	0.053440
C181	C	0.869447	0.262930	-0.683915
C182	C	1.202781	0.596264	-0.350582
C183	C	1.536114	0.929597	-0.017249
C184	C	0.909683	0.303185	-0.719253
C185	C	1.243016	0.636518	-0.385920
C186	C	1.576349	0.969852	-0.052587
C187	C	0.949908	0.343459	-0.683899
C188	C	1.283241	0.676792	-0.350565
C189	C	1.616574	1.010126	-0.017232
C190	C	0.949895	0.343474	-0.613212
C191	C	1.283229	0.676807	-0.279878
C192	C	1.616562	1.010141	0.053455
C193	C	0.949958	0.343400	-0.968972
C194	C	1.283291	0.676733	-0.635639
C195	C	1.616624	1.010067	-0.302306
C196	C	0.949968	0.343381	-1.039664
C197	C	1.283302	0.676714	-0.706331
C198	C	1.616635	1.010047	-0.372998
C199	C	0.869509	0.262857	-1.039676
C200	C	1.202843	0.596190	-0.706343
C201	C	1.536176	0.929523	-0.373009
C202	C	0.869497	0.262871	-0.968989
C203	C	1.202830	0.596205	-0.635656
C204	C	1.536164	0.929538	-0.302322
C205	C	0.909719	0.303148	-0.933641
C206	C	1.243053	0.636481	-0.600307
C207	C	1.576386	0.969814	-0.266974
C208	C	0.909709	0.303161	-0.856992
C209	C	1.243042	0.636495	-0.523659
C210	C	1.576375	0.969828	-0.190326
C211	C	0.909697	0.303169	-0.795900
C212	C	1.243030	0.636502	-0.462567
C213	C	1.576364	0.969835	-0.129234
C214	C	0.909631	0.303273	-0.150247
C215	C	1.242964	0.636606	0.183087
C216	C	1.576298	0.969939	0.516420
C217	C	0.909741	0.303114	-0.075015
C218	C	1.243075	0.636447	0.258318
C219	C	1.576408	0.969780	0.591652
H220	H	0.269144	0.376416	-0.404522
H221	H	0.602477	0.709750	-0.071189
H222	H	0.935811	1.043083	0.262145
C223	C	0.994226	0.387666	-1.078535
C224	C	1.327560	0.720999	-0.745202
C225	C	1.660893	1.054333	-0.411868
H226	H	1.018176	0.411659	-1.047359
H227	H	1.351509	0.744993	-0.714026
H228	H	1.684842	1.078326	-0.380693
H229	H	1.021676	0.363584	-1.106119
H230	H	1.355009	0.696917	-0.772786
H231	H	1.688343	1.030251	-0.439453
H232	H	0.970125	0.415083	-1.106100
H233	H	1.303458	0.748416	-0.772766
H234	H	1.636792	1.081750	-0.439433
H235	H	0.982540	0.542799	-0.404694
H236	H	1.315873	0.876132	-0.071360
H237	H	1.649207	1.209466	0.261973
H238	H	0.550740	0.230142	-0.247703
H239	H	0.884073	0.563476	0.085631
H240	H	1.217406	0.896809	0.418964
C241	C	0.994060	0.671446	-0.417093
C242	C	1.327393	1.004779	-0.083760
C243	C	1.660727	1.338113	0.249573
H244	H	0.988305	0.715315	-0.410899
H245	H	1.321638	1.048648	-0.077565
H246	H	1.654971	1.381982	0.255768
H247	H	1.036359	0.660645	-0.407231
H248	H	1.369692	0.993979	-0.073898
H249	H	1.703026	1.327312	0.259435
H250	H	0.984811	0.660652	-0.462562
H251	H	1.318145	0.993985	-0.129228
H252	H	1.651478	1.327318	0.204105
C253	C	0.825060	0.533632	-0.235096
C254	C	1.158393	0.866966	0.098238
C255	C	1.491727	1.200299	0.431571
H256	H	0.830806	0.489763	-0.241300
H257	H	1.164139	0.823097	0.092033
H258	H	1.497472	1.156430	0.425367
H259	H	0.834301	0.544424	-0.189629
H260	H	1.167635	0.877757	0.143705
H261	H	1.500968	1.211091	0.477038
H262	H	0.782760	0.544436	-0.244966
H263	H	1.116093	0.877770	0.088368
H264	H	1.449427	1.211103	0.421701
C265	C	0.278559	0.218643	-0.235380
C266	C	0.611893	0.551977	0.097954
C267	C	0.945226	0.885310	0.431287
H268	H	0.322419	0.224407	-0.241571
H269	H	0.655753	0.557740	0.091763
H270	H	0.989086	0.891073	0.425096
H271	H	0.267769	0.227803	-0.189885
H272	H	0.601103	0.561136	0.143448
H273	H	0.934436	0.894470	0.476782
H274	H	0.267807	0.176359	-0.245371
H275	H	0.601140	0.509692	0.087963
H276	H	0.934473	0.843025	0.421296
C277	C	0.140506	0.218655	-0.235382
C278	C	0.473839	0.551988	0.097951
C279	C	0.807172	0.885322	0.431284
H280	H	0.169501	0.194644	-0.209649
H281	H	0.502834	0.527977	0.123685
H282	H	0.836167	0.861311	0.457018
H283	H	0.114835	0.242701	-0.205849
H284	H	0.448169	0.576034	0.127484
H285	H	0.781502	0.909367	0.460817
H286	H	0.114885	0.191256	-0.261335
H287	H	0.448219	0.524590	0.071999
H288	H	0.781552	0.857923	0.405332
C289	C	0.825255	0.218562	-1.078561
C290	C	1.158589	0.551896	-0.745228
C291	C	1.491922	0.885229	-0.411894
H292	H	0.831017	0.224323	-1.125721
H293	H	1.164350	0.557656	-0.792387
H294	H	1.497683	0.890989	-0.459054
H295	H	0.834492	0.176270	-1.066993
H296	H	1.167825	0.509603	-0.733659
H297	H	1.501158	0.842937	-0.400326
H298	H	0.782951	0.227780	-1.066964
H299	H	1.116285	0.561113	-0.733631
H300	H	1.449618	0.894446	-0.400297
C301	C	0.825166	0.934473	-0.235135
C302	C	1.158499	1.267806	0.098198
C303	C	1.491833	1.601140	0.431531
H304	H	0.801219	0.963500	-0.209328
H305	H	1.134553	1.296833	0.124005
H306	H	1.467886	1.630166	0.457339
H307	H	0.797714	0.908837	-0.260996
H308	H	1.131047	1.242170	0.072337
H309	H	1.464381	1.575503	0.405671
H310	H	0.849262	0.908823	-0.205665
H311	H	1.182595	1.242157	0.127668
H312	H	1.515928	1.575490	0.461001
C313	C	0.825096	0.671683	-0.235113
C314	C	1.158430	1.005016	0.098220
C315	C	1.491763	1.338349	0.431554
H316	H	0.801125	0.642725	-0.209310
H317	H	1.134458	0.976058	0.124023
H318	H	1.467792	1.309391	0.457357
H319	H	0.849200	0.697327	-0.205649
H320	H	1.182533	1.030660	0.127684
H321	H	1.515866	1.363993	0.461018
H322	H	0.797657	0.697335	-0.260985
H323	H	1.130990	1.030668	0.072349
H324	H	1.464324	1.364001	0.405682
C325	C	0.541321	0.387874	-0.416893
C326	C	0.874655	0.721208	-0.083559
C327	C	1.207988	1.054541	0.249774
H328	H	0.570310	0.411870	-0.442633
H329	H	0.903644	0.745204	-0.109300
H330	H	1.236977	1.078537	0.224033
H331	H	0.515720	0.363791	-0.446417
H332	H	0.849053	0.697125	-0.113084
H333	H	1.182386	1.030458	0.220250
H334	H	0.515632	0.415289	-0.390989
H335	H	0.848965	0.748622	-0.057656
H336	H	1.182298	1.081956	0.275677
C337	C	0.825174	0.218667	-0.574362
C338	C	1.158507	0.552000	-0.241028
C339	C	1.491840	0.885334	0.092305
H340	H	0.801214	0.194688	-0.605541
H341	H	1.134547	0.528022	-0.272208
H342	H	1.467881	0.861355	0.061125
H343	H	0.849260	0.191245	-0.546794
H344	H	1.182594	0.524579	-0.213460
H345	H	1.515927	0.857912	0.119873
H346	H	0.797724	0.242759	-0.546781
H347	H	1.131058	0.576092	-0.213447
H348	H	1.464391	0.909426	0.119886
H349	H	0.982702	0.376202	-0.940200
H350	H	1.316036	0.709536	-0.606867
H351	H	1.649369	1.042869	-0.273534
H352	H	0.982665	0.376238	-0.712676
H353	H	1.315998	0.709572	-0.379343
H354	H	1.649332	1.042905	-0.046010
C355	C	0.825205	0.218630	-0.722797
C356	C	1.158539	0.551963	-0.389464
C357	C	1.491872	0.885297	-0.056130
H358	H	0.801248	0.194652	-0.691627
H359	H	1.134581	0.527985	-0.358294
H360	H	1.467914	0.861319	-0.024961
H361	H	0.797763	0.242697	-0.750362
H362	H	1.131097	0.576030	-0.417029
H363	H	1.464430	0.909364	-0.083695
H364	H	0.849315	0.191199	-0.750382
H365	H	1.182649	0.524532	-0.417049
H366	H	1.515982	0.857866	-0.083715
H367	H	0.669982	0.376397	-0.404486
H368	H	1.003315	0.709730	-0.071153
H369	H	1.336648	1.043064	0.262181
H370	H	0.836735	0.230090	-0.940220
H371	H	1.170069	0.563423	-0.606887
H372	H	1.503402	0.896756	-0.273554
C373	C	0.994141	0.387771	-0.574327
C374	C	1.327474	0.721104	-0.240994
C375	C	1.660807	1.054437	0.092339
H376	H	1.018109	0.411739	-0.605496
H377	H	1.351442	0.745073	-0.272163
H378	H	1.684776	1.078406	0.061171
H379	H	0.970036	0.415200	-0.546742
H380	H	1.303369	0.748534	-0.213409
H381	H	1.636702	1.081867	0.119924
H382	H	1.021583	0.363698	-0.546762
H383	H	1.354916	0.697031	-0.213428
H384	H	1.688250	1.030364	0.119905
H385	H	0.149880	0.376424	-0.404532
H386	H	0.483213	0.709757	-0.071199
H387	H	0.816547	1.043090	0.262134
H388	H	0.982670	1.062902	-0.404753
H389	H	1.316003	1.396235	-0.071420
H390	H	1.649336	1.729569	0.261913
H391	H	0.670007	0.230137	-0.247694
H392	H	1.003341	0.563470	0.085640
H393	H	1.336674	0.896804	0.418973
H394	H	0.982638	0.943639	-0.404741
H395	H	1.315972	1.276972	-0.071408
H396	H	1.649305	1.610305	0.261926
C397	C	0.825204	1.072524	-0.235145
C398	C	1.158538	1.405857	0.098189
C399	C	1.491871	1.739191	0.431522
H400	H	0.801234	1.043566	-0.209340
H401	H	1.134568	1.376900	0.123994
H402	H	1.467901	1.710233	0.457327
H403	H	0.849308	1.098170	-0.205683
H404	H	1.182641	1.431503	0.127650
H405	H	1.515975	1.764836	0.460984
H406	H	0.797764	1.098174	-0.261018
H407	H	1.131098	1.431507	0.072316
H408	H	1.464431	1.764840	0.405649
