data_functionalizedCrystal
_audit_creation_method	'MofGen! by Chris Wilmer'
_symmetry_space_group_name_H-M	'P1'
_symmetry_Int_Tables_number	1
_symmetry_cell_setting	triclinic
loop_
_symmetry_equiv_pos_as_xyz
  x,y,z
_cell_length_a	16.109301
_cell_length_b	17.699083
_cell_length_c	14.586319
_cell_angle_alpha	89.995320
_cell_angle_beta	89.999213
_cell_angle_gamma	83.372248
loop_
_atom_site_label
_atom_site_type_symbol
_atom_site_fract_x
_atom_site_fract_y
_atom_site_fract_z
O1	O	1.102963	0.097285	-0.076184
O2	O	0.860880	0.109391	-0.076199
O3	O	0.988761	-0.006841	-0.076183
O4	O	0.975082	0.213517	-0.076200
O5	O	0.988752	-0.006843	0.076298
O6	O	0.860872	0.109390	0.076282
O7	O	1.102954	0.097283	0.076297
Cu8	Cu	0.981912	0.103336	0.090212
Cu9	Cu	0.981923	0.103338	-0.090114
O10	O	0.975074	0.213516	0.076281
C11	C	0.829902	0.108900	0.000040
C12	C	0.737609	0.107430	0.000034
C13	C	0.988267	-0.035040	0.000057
C14	C	0.986796	-0.119060	0.000058
C15	C	0.515224	0.172981	0.000040
C16	C	0.428506	0.171594	0.000046
C17	C	0.448618	0.033688	0.000053
C18	C	0.535334	0.035076	0.000053
C19	C	0.568635	0.104725	0.000042
C20	C	0.395200	0.101949	0.000047
C21	C	0.301177	0.100445	0.000054
C22	C	0.662664	0.106230	0.000037
C23	C	1.061860	-0.167574	0.000064
C24	C	1.060473	-0.246519	0.000055
C25	C	0.984022	-0.276949	0.000048
C26	C	0.908953	-0.228429	0.000039
C27	C	0.910341	-0.149485	0.000041
C28	C	0.903356	-0.546800	0.000031
C29	C	0.901974	-0.625750	0.000033
C30	C	1.053488	-0.643834	0.000046
C31	C	1.054876	-0.564890	0.000048
C32	C	0.979807	-0.516377	0.000034
C33	C	0.981312	-0.430776	0.000041
C34	C	0.982517	-0.362549	0.000047
C35	C	1.133933	0.097774	0.000056
C36	C	1.226226	0.099244	0.000055
C37	C	0.975568	0.241714	0.000038
C38	C	0.977039	0.325734	0.000032
N39	N	0.981911	0.103334	0.217044
N40	N	0.981931	0.103334	-0.216946
C41	C	1.038555	0.051884	0.452057
C42	C	1.038558	0.051882	0.548038
C43	C	0.925280	0.154787	0.548034
C44	C	0.925274	0.154785	0.452054
C45	C	0.981917	0.103334	0.404068
C46	C	0.981925	0.103334	0.596029
C47	C	0.981927	0.103333	0.700096
C48	C	0.981914	0.103334	0.299995
H49	H	0.542334	0.229694	0.000038
O50	O	1.093618	0.001990	0.405381
C51	C	1.144815	0.042504	0.349805
H52	H	1.146156	0.102188	0.378719
H53	H	1.118751	0.046480	0.277081
C54	C	1.232492	-0.072542	0.312766
C55	C	1.234144	0.000762	0.348283
H56	H	1.287593	-0.098291	0.311823
H57	H	1.197998	-0.099837	0.350206
H58	H	1.210768	-0.069218	0.252166
H59	H	1.255858	-0.002563	0.408886
H60	H	1.268644	0.028056	0.310854
O61	O	1.093658	0.001876	0.594512
C62	C	1.143632	-0.043547	0.531573
H63	H	1.144503	-0.012514	0.463153
H64	H	1.116754	-0.099780	0.521372
C65	C	1.232281	-0.097238	0.653061
C66	C	1.233357	-0.059120	0.569029
H67	H	1.287626	-0.106847	0.676166
H68	H	1.198611	-0.066638	0.695466
H69	H	1.209878	-0.144094	0.644549
H70	H	1.255749	-0.012260	0.577544
H71	H	1.267032	-0.089712	0.526627
H72	H	0.879165	0.196679	0.587113
O73	O	0.870222	0.204841	0.405574
C74	C	0.820220	0.250245	0.468506
H75	H	0.854305	0.251114	0.536922
H76	H	0.758512	0.225653	0.478723
C77	C	0.761050	0.330819	0.347002
C78	C	0.802918	0.331892	0.431029
H79	H	0.750374	0.381182	0.323884
H80	H	0.794735	0.300228	0.304602
H81	H	0.709632	0.310322	0.355528
H82	H	0.854339	0.352380	0.422500
H83	H	0.769241	0.362489	0.473427
O84	O	0.416365	-0.034012	-0.000069
C85	C	0.443658	-0.075606	-0.079051
H86	H	0.503763	-0.054992	-0.105376
H87	H	0.393462	-0.066824	-0.134353
C88	C	0.386267	-0.186072	-0.022732
C89	C	0.460092	-0.160757	-0.055059
H90	H	0.396401	-0.238598	-0.007935
H91	H	0.367876	-0.158049	0.030478
H92	H	0.344444	-0.178747	-0.068822
H93	H	0.501910	-0.168074	-0.008966
H94	H	0.478491	-0.188784	-0.108262
H95	H	0.385022	0.227175	0.000046
H96	H	0.846705	-0.253211	0.000027
O97	O	0.587307	-0.031183	-0.000069
C98	C	0.638057	-0.034509	-0.079051
H99	H	0.642314	0.025567	-0.105381
H100	H	0.609603	-0.069071	-0.134349
C101	C	0.720949	-0.146396	-0.022719
C102	C	0.726184	-0.072609	-0.055054
H103	H	0.775310	-0.169900	-0.007920
H104	H	0.686757	-0.144157	0.030490
H105	H	0.697234	-0.175187	-0.068807
H106	H	0.749889	-0.043816	-0.008964
H107	H	0.760383	-0.074844	-0.108256
H108	H	1.124115	-0.142805	0.000075
H109	H	0.842230	-0.507310	0.000021
H110	H	1.117130	-0.540119	0.000058
O111	O	1.133467	-0.293537	0.000108
C112	C	1.201241	-0.249751	0.000100
H113	H	1.180014	-0.190828	0.028966
H114	H	1.224694	-0.244130	-0.073048
C115	C	1.298337	-0.361479	0.024456
C116	C	1.272267	-0.289111	0.059917
H117	H	1.342152	-0.385759	0.061350
H118	H	1.252677	-0.390980	0.024458
H119	H	1.317876	-0.356785	-0.036500
H120	H	1.252720	-0.293807	0.120867
H121	H	1.317926	-0.259612	0.059927
H122	H	1.114613	-0.683343	0.000052
H123	H	0.839715	-0.650523	0.000028
H124	H	0.849216	-0.109986	0.000036
