data_functionalizedCrystal
_audit_creation_method	'MofGen! by Chris Wilmer'
_symmetry_space_group_name_H-M	'P1'
_symmetry_Int_Tables_number	1
_symmetry_cell_setting	triclinic
loop_
_symmetry_equiv_pos_as_xyz
  x,y,z
_cell_length_a	12.837942
_cell_length_b	12.837943
_cell_length_c	11.295483
_cell_angle_alpha	94.538773
_cell_angle_beta	94.530417
_cell_angle_gamma	85.171060
loop_
_atom_site_label
_atom_site_type_symbol
_atom_site_fract_x
_atom_site_fract_y
_atom_site_fract_z
O1	O	0.265788	-1.408689	-0.099003
O2	O	0.252345	-1.105556	-0.099010
O3	O	0.107500	-1.250401	-0.098999
O4	O	0.410633	-1.263845	-0.099013
O5	O	0.120201	-1.237676	0.099051
O6	O	0.265045	-1.092832	0.099040
O7	O	0.278489	-1.395965	0.099047
Cu8	Cu	0.272927	-1.243237	0.117127
Cu9	Cu	0.257907	-1.258285	-0.117090
O10	O	0.423333	-1.251121	0.099037
C11	C	0.254153	-1.060125	0.000014
C12	C	0.240609	-0.943710	0.000012
N13	N	0.283491	-1.232661	0.281863
C14	C	0.074781	-1.239497	0.000025
C15	C	-0.041634	-1.225953	0.000023
C16	C	-0.266509	-1.388784	0.000002
C17	C	-0.375892	-1.376062	-0.000000
C18	C	-0.369784	-1.187791	0.000008
C19	C	-0.260402	-1.200512	0.000010
C20	C	-0.208768	-1.301011	0.000009
C21	C	-0.099383	-1.313731	0.000020
C22	C	-0.093278	-1.125461	0.000019
C23	C	-0.202660	-1.112740	0.000017
C24	C	0.456052	-1.262024	0.000010
C25	C	0.572467	-1.275569	0.000004
C26	C	0.276680	-1.441396	0.000021
C27	C	0.290224	-1.557812	0.000015
C28	C	0.403439	-0.718835	0.000021
C29	C	0.390717	-0.609453	0.000020
C30	C	0.202446	-0.615561	0.000016
C31	C	0.215167	-0.724943	0.000017
C32	C	0.315667	-0.776576	0.000018
C33	C	0.328387	-0.885961	0.000011
C34	C	0.140117	-0.892066	0.000016
C35	C	0.127396	-0.782684	0.000015
N36	N	0.247335	-1.268868	-0.281825
C37	C	0.171231	-1.344996	0.531161
C38	C	0.179223	-1.337012	0.655824
C39	C	0.307459	-1.208702	0.655854
C40	C	0.299467	-1.216687	0.531191
C41	C	0.231353	-1.284837	0.468849
C42	C	0.223367	-1.292826	0.344183
C43	C	0.351597	-1.164512	0.344216
C44	C	0.359589	-1.156528	0.468879
H45	H	-0.224468	-1.470613	0.000013
H46	H	0.400555	-1.115530	0.293468
O47	O	0.476086	-0.553525	-0.000035
C48	C	0.664173	-0.559011	0.000038
C49	C	0.567577	-0.622478	0.000071
H50	H	0.738169	-0.614730	0.000150
H51	H	0.657687	-0.513002	-0.082866
H52	H	0.668174	-0.502297	0.082901
H53	H	0.563517	-0.679247	-0.082735
H54	H	0.574103	-0.668416	0.083031
H55	H	0.120630	-0.573495	0.000114
H56	H	-0.244716	-1.030916	0.000013
H57	H	-0.422901	-1.447536	-0.000010
H58	H	-0.046252	-1.053990	0.000034
H59	H	0.415044	-1.101038	0.519653
H60	H	0.068646	-0.939091	0.000006
O61	O	0.029846	-0.732361	-0.000041
C62	C	-0.073188	-0.566555	0.000028
C63	C	0.037345	-0.623410	0.000067
H64	H	-0.067161	-0.478457	0.000140
H65	H	-0.122440	-0.594813	-0.082879
H66	H	-0.111794	-0.584309	0.082888
H67	H	0.076042	-0.605681	-0.082737
H68	H	0.086521	-0.595145	0.083029
O69	O	0.373624	-1.142408	0.716240
C70	C	0.499994	-1.016003	0.703131
C71	C	0.425094	-1.091029	0.634596
H72	H	0.541644	-0.974459	0.637152
H73	H	0.453370	-0.955444	0.761461
H74	H	0.560477	-1.062626	0.761532
H75	H	0.364596	-1.044494	0.576131
H76	H	0.471788	-1.151589	0.576342
H77	H	-0.057344	-1.395563	0.000023
H78	H	-0.411844	-1.105969	-0.000004
H79	H	0.167908	-1.348320	0.293425
O80	O	0.426085	-0.935953	0.000067
C81	C	0.611476	-0.918349	0.000008
C82	C	0.500893	-0.861604	-0.000031
H83	H	0.671988	-0.858265	-0.000096
H84	H	0.627517	-0.964050	0.082912
H85	H	0.616780	-0.974759	-0.082855
H86	H	0.495510	-0.805143	0.082776
H87	H	0.484900	-0.815971	-0.082989
H88	H	0.485269	-0.760876	0.000020
H89	H	0.115777	-1.400494	0.480401
O90	O	0.120779	-1.395558	0.716169
C91	C	-0.007312	-1.523611	0.702978
C92	C	0.058839	-1.457387	0.634489
H93	H	-0.057423	-1.573600	0.636970
H94	H	0.046765	-1.576707	0.761298
H95	H	-0.060306	-1.469488	0.761385
H96	H	0.111840	-1.511430	0.576018
H97	H	0.004702	-1.404281	0.576245
