data_functionalizedCrystal
_audit_creation_method	'MofGen! by Chris Wilmer'
_symmetry_space_group_name_H-M	'P1'
_symmetry_Int_Tables_number	1
_symmetry_cell_setting	triclinic
loop_
_symmetry_equiv_pos_as_xyz
  x,y,z
_cell_length_a	18.215407
_cell_length_b	29.839131
_cell_length_c	18.215399
_cell_angle_alpha	89.969127
_cell_angle_beta	89.980167
_cell_angle_gamma	90.041868
loop_
_atom_site_label
_atom_site_type_symbol
_atom_site_fract_x
_atom_site_fract_y
_atom_site_fract_z
Zn1	Zn	1.124987	-0.178853	-0.416101
Zn2	Zn	1.124860	-0.253982	-0.293028
Zn3	Zn	1.001920	-0.178867	-0.293048
Zn4	Zn	1.001850	-0.253957	-0.416053
O5	O	1.063404	-0.216415	-0.354558
O6	O	1.227955	-0.188823	-0.399787
O7	O	1.108528	-0.244034	-0.190047
O8	O	1.018327	-0.115998	-0.309400
O9	O	1.227861	-0.244020	-0.309366
O10	O	1.108745	-0.115987	-0.399806
O11	O	1.018204	-0.188848	-0.190061
O12	O	0.898926	-0.188824	-0.309354
O13	O	1.018209	-0.243978	-0.519044
O14	O	0.898875	-0.243992	-0.399725
O15	O	1.108677	-0.188799	-0.519079
O16	O	1.108460	-0.316846	-0.309320
O17	O	1.018086	-0.316827	-0.399705
C18	C	0.872198	-0.216407	-0.354537
C19	C	0.790399	-0.216414	-0.354545
C20	C	0.602198	-0.245186	-0.401542
C21	C	0.525339	-0.245187	-0.401551
C22	C	0.525363	-0.187652	-0.307589
C23	C	0.602220	-0.187648	-0.307584
C24	C	0.640636	-0.216418	-0.354560
C25	C	0.486920	-0.216423	-0.354574
C26	C	0.403586	-0.216424	-0.354583
C27	C	0.723975	-0.216416	-0.354551
C28	C	1.063272	-0.333137	-0.354521
C29	C	1.063282	-0.383072	-0.354530
C30	C	1.110548	-0.692712	-0.307563
C31	C	1.110639	-0.880385	-0.307591
O32	O	1.150721	-0.904647	-0.267629
N33	N	1.063557	-0.903857	-0.354613
C34	C	1.016452	-0.880407	-0.401635
O35	O	0.976414	-0.904678	-0.441636
C36	C	1.016366	-0.692735	-0.401609
C37	C	1.063446	-0.669266	-0.354579
C38	C	1.157625	-0.669243	-0.260536
C39	C	1.157599	-0.622327	-0.260527
C40	C	1.110496	-0.598881	-0.307544
C41	C	1.063420	-0.622350	-0.354570
C42	C	0.969265	-0.669287	-0.448634
C43	C	0.969249	-0.622365	-0.448625
C44	C	1.016329	-0.598896	-0.401595
C45	C	1.016291	-0.551989	-0.401577
N46	N	1.063373	-0.528517	-0.354554
C47	C	1.110476	-0.551963	-0.307538
C48	C	1.016500	-0.978938	-0.401644
C49	C	1.016521	-1.025856	-0.401649
C50	C	1.110709	-1.025830	-0.307606
C51	C	1.110684	-0.978911	-0.307598
C52	C	1.063582	-0.955466	-0.354622
C53	C	1.110417	-0.453437	-0.307521
C54	C	1.110385	-0.406518	-0.307514
C55	C	1.016200	-0.406547	-0.401559
C56	C	1.016229	-0.453463	-0.401564
C57	C	1.063344	-0.476907	-0.354543
O58	O	0.976236	-0.527698	-0.441523
O59	O	1.150520	-0.527685	-0.267554
C60	C	1.110574	-0.739627	-0.307572
C61	C	1.063498	-0.763097	-0.354598
C62	C	1.016395	-0.739651	-0.401615
C63	C	1.063518	-0.810015	-0.354604
C64	C	1.110621	-0.833461	-0.307587
C65	C	1.157703	-0.809989	-0.260565
C66	C	1.157677	-0.763074	-0.260555
C67	C	0.969313	-0.763122	-0.448637
C68	C	0.969342	-0.810038	-0.448642
C69	C	1.016445	-0.833484	-0.401625
C70	C	1.255357	-0.216423	-0.354579
C71	C	1.337156	-0.216426	-0.354589
C72	C	1.063449	-0.216384	-0.546511
C73	C	1.063468	-0.216370	-0.628310
C74	C	1.063558	-0.099236	-0.354610
C75	C	1.063623	-0.049302	-0.354633
C76	C	1.110592	-0.187612	-0.816523
C77	C	1.110601	-0.187599	-0.893382
C78	C	1.016397	-0.245059	-0.893334
C79	C	1.016385	-0.245070	-0.816477
C80	C	1.063487	-0.216347	-0.778073
C81	C	1.063507	-0.216323	-0.931789
C82	C	1.063517	-0.216309	-1.015123
C83	C	1.063477	-0.216360	-0.694734
C84	C	1.063402	-0.216413	-0.163351
C85	C	1.063526	-0.216300	-0.081553
H86	H	0.633517	-0.164220	-0.269325
H87	H	1.148958	-0.164199	-0.924684
H88	H	0.978177	-1.044960	-0.439939
C89	C	0.965344	-0.276229	-0.935164
C90	C	0.975450	-0.270079	-1.010703
C91	C	0.928440	-0.298790	-1.049257
H92	H	0.915873	-0.269683	-0.922652
H93	H	0.976082	-0.306425	-0.922596
H94	H	0.964707	-0.239889	-1.023265
H95	H	1.024911	-0.276628	-1.023237
H96	H	0.939178	-0.328987	-1.036689
H97	H	0.878973	-0.292242	-1.036739
H98	H	0.935296	-0.294624	-1.100514
H99	H	1.148944	-0.164223	-0.785257
H100	H	1.148723	-0.387411	-0.269213
C101	C	0.965212	-0.276320	-0.774858
C102	C	0.923983	-0.301484	-0.824938
C103	C	0.876843	-0.330277	-0.786626
H104	H	0.933099	-0.259188	-0.744876
H105	H	0.993320	-0.295922	-0.744887
H106	H	0.895877	-0.281884	-0.854897
H107	H	0.956077	-0.318625	-0.854922
H108	H	0.904951	-0.349879	-0.756655
H109	H	0.844735	-0.313141	-0.756645
H110	H	0.848869	-0.347357	-0.820599
H111	H	0.494076	-0.164229	-0.269342
C112	C	0.483513	-0.276448	-0.452441
C113	C	0.439323	-0.305204	-0.410692
C114	C	0.400775	-0.334004	-0.457549
H115	H	0.517317	-0.293623	-0.480432
H116	H	0.453522	-0.259301	-0.484549
H117	H	0.469311	-0.322349	-0.378596
H118	H	0.405505	-0.288041	-0.382702
H119	H	0.370785	-0.316857	-0.489658
H120	H	0.434585	-0.351176	-0.485538
H121	H	0.370783	-0.353515	-0.429230
C122	C	1.161594	-0.478805	-0.256386
C123	C	1.202796	-0.448202	-0.215191
C124	C	1.249936	-0.471554	-0.168068
H125	H	1.193723	-0.497078	-0.284481
H126	H	1.133486	-0.497128	-0.224256
H127	H	1.230901	-0.429887	-0.247317
H128	H	1.170686	-0.429928	-0.187081
H129	H	1.221828	-0.489877	-0.135938
H130	H	1.282060	-0.489826	-0.196169
H131	H	1.277892	-0.450793	-0.140107
H132	H	1.195985	-0.688328	-0.222250
C133	C	0.643774	-0.276433	-0.452629
C134	C	0.593658	-0.301617	-0.493791
C135	C	0.631928	-0.330402	-0.540871
H136	H	0.673727	-0.296026	-0.424504
H137	H	0.673772	-0.259280	-0.484782
H138	H	0.563673	-0.318770	-0.461643
H139	H	0.563703	-0.282036	-0.521932
H140	H	0.661926	-0.313249	-0.573023
H141	H	0.661880	-0.349992	-0.512739
H142	H	0.597930	-0.347490	-0.568809
H143	H	0.930924	-0.688387	-0.486928
C144	C	1.208682	-0.596909	-0.209353
C145	C	1.192723	-0.608371	-0.136526
C146	C	1.239779	-0.584974	-0.089365
H147	H	1.201980	-0.565600	-0.215974
H148	H	1.258135	-0.604578	-0.220134
H149	H	1.143283	-0.600699	-0.125749
H150	H	1.199431	-0.639676	-0.129882
H151	H	1.289232	-0.592643	-0.100146
H152	H	1.233072	-0.553666	-0.095993
H153	H	1.228962	-0.592751	-0.039948
C154	C	1.161883	-0.953514	-0.256511
C155	C	1.203144	-0.984095	-0.215351
C156	C	1.250326	-0.960718	-0.168288
H157	H	1.133826	-0.935238	-0.224351
H158	H	1.193967	-0.935192	-0.284672
H159	H	1.171064	-1.002409	-0.187193
H160	H	1.231216	-1.002372	-0.247492
H161	H	1.282410	-0.942396	-0.196449
H162	H	1.222263	-0.942443	-0.136134
H163	H	1.278332	-0.981463	-0.140361
H164	H	1.149062	-1.044928	-0.269324
H165	H	0.978143	-0.959852	-0.439938
H166	H	0.977847	-0.387450	-0.439837
H167	H	1.196014	-0.743968	-0.222259
H168	H	0.930894	-0.603279	-0.486920
H169	H	0.977895	-0.472573	-0.439862
H170	H	1.196053	-0.829087	-0.222280
H171	H	0.930998	-0.829142	-0.486939
C172	C	0.918084	-0.737752	-0.499709
C173	C	0.876848	-0.768354	-0.540872
C174	C	0.829634	-0.745002	-0.587920
H175	H	0.946116	-0.719415	-0.531868
H176	H	0.885984	-0.719493	-0.471538
H177	H	0.908944	-0.786605	-0.569041
H178	H	0.848802	-0.786692	-0.508733
H179	H	0.797534	-0.726743	-0.559748
H180	H	0.857672	-0.726666	-0.620074
H181	H	0.801646	-0.765762	-0.615849
