data_functionalizedCrystal
_audit_creation_method	'MofGen! by Chris Wilmer'
_symmetry_space_group_name_H-M	'P1'
_symmetry_Int_Tables_number	1
_symmetry_cell_setting	triclinic
loop_
_symmetry_equiv_pos_as_xyz
  x,y,z
_cell_length_a	15.297476
_cell_length_b	12.645330
_cell_length_c	15.296720
_cell_angle_alpha	80.350659
_cell_angle_beta	88.383492
_cell_angle_gamma	80.321590
loop_
_atom_site_label
_atom_site_type_symbol
_atom_site_fract_x
_atom_site_fract_y
_atom_site_fract_z
Zn1	Zn	1.253446	-0.825054	0.726659
Zn2	Zn	1.278718	-0.977705	0.580184
Zn3	Zn	1.132321	-0.765500	0.554895
Zn4	Zn	1.106944	-0.967286	0.701310
O5	O	1.192857	-0.883886	0.640762
O6	O	1.379378	-0.874588	0.728421
O7	O	1.280494	-0.928992	0.454254
O8	O	1.148433	-0.625067	0.577705
O9	O	1.397945	-0.986740	0.620806
O10	O	1.237423	-0.668821	0.703899
O11	O	1.172937	-0.773086	0.435674
O12	O	1.006375	-0.762983	0.553126
O13	O	1.105181	-0.968982	0.827249
O14	O	0.987731	-0.911235	0.660696
O15	O	1.212816	-0.864485	0.845872
O16	O	1.255887	-1.124656	0.596227
O17	O	1.129686	-1.117001	0.685218
C18	C	0.965269	-0.829517	0.601416
C19	C	0.867903	-0.806286	0.584605
C20	C	0.831830	-0.718084	0.520786
C21	C	0.740349	-0.696255	0.504989
C22	C	0.684932	-0.762621	0.553014
C23	C	0.721004	-0.850821	0.616839
C24	C	0.812494	-0.872657	0.632633
C25	C	0.665596	-0.917195	0.664861
C26	C	0.701668	-1.005394	0.728686
C27	C	0.793149	-1.027226	0.744477
C28	C	0.848567	-0.960860	0.696452
C29	C	0.574105	-0.895358	0.649067
C30	C	0.554770	-1.049932	0.760914
C31	C	0.646250	-1.071761	0.776711
C32	C	1.192795	-1.159299	0.640739
C33	C	1.192844	-1.277146	0.640772
C34	C	1.113693	-1.440040	0.697013
C35	C	1.113387	-1.317361	0.696736
C36	C	1.183841	-1.300259	0.544146
C37	C	1.183358	-1.422828	0.544487
C38	C	1.281539	-1.470372	0.680480
C39	C	1.280621	-1.347968	0.682400
C40	C	1.421334	-0.938469	0.680262
C41	C	1.518697	-0.961729	0.697095
C42	C	1.153349	-0.922214	0.869232
C43	C	1.136512	-0.938548	0.966592
C44	C	1.192940	-0.607407	0.640809
C45	C	1.192975	-0.489589	0.640829
C46	C	1.232262	-0.845643	0.413191
C47	C	1.249268	-0.829052	0.315860
C48	C	1.313221	-0.766973	1.279820
C49	C	1.329044	-0.751631	1.188346
C50	C	1.280913	-0.798358	1.132903
C51	C	1.216955	-0.860432	1.168943
C52	C	1.201134	-0.875783	1.260426
C53	C	1.168826	-0.907168	1.113509
C54	C	1.104868	-0.969241	1.149549
C55	C	1.089050	-0.984589	1.241023
C56	C	1.137182	-0.937862	1.296466
C57	C	1.184647	-0.891817	1.022026
C58	C	1.072560	-1.000626	1.002632
C59	C	1.056736	-1.015969	1.094106
H60	H	0.876959	-0.664063	0.481686
H61	H	1.047406	-1.269091	0.669204
H62	H	1.119093	-1.431980	0.512756
H63	H	1.120344	-1.250215	0.512175
C64	C	1.425602	-0.657890	1.289816
C65	C	1.366125	-0.715620	1.340762
H66	H	1.458269	-0.626192	1.327442
H67	H	1.393622	-0.602236	1.247551
H68	H	1.465262	-0.706100	1.259915
H69	H	1.326460	-0.667408	1.370658
H70	H	1.398107	-0.771281	1.383043
H71	H	1.004661	-1.066509	1.123462
H72	H	1.292876	-1.517780	0.750586
H73	H	1.117167	-1.302444	0.767883
C74	C	0.955072	-1.411777	0.710818
C75	C	1.025150	-1.456240	0.660226
H76	H	0.900412	-1.421789	0.688109
H77	H	0.955643	-1.336278	0.707931
H78	H	0.961628	-1.447126	0.770725
H79	H	1.018598	-1.420885	0.600321
H80	H	1.024577	-1.531754	0.663105
H81	H	1.340410	-1.503068	0.639753
C82	C	0.994005	-1.004996	0.635700
C83	C	0.949129	-0.984855	0.713809
H84	H	1.056088	-1.019812	0.646415
H85	H	0.980445	-0.942968	0.590831
H86	H	0.975924	-1.065880	0.616889
H87	H	0.967204	-0.923966	0.732616
H88	H	0.962695	-1.046889	0.758692
H89	H	1.236721	-0.841275	0.992692
H90	H	0.610444	-0.744842	0.540148
H91	H	1.287701	-1.334735	0.753591
H92	H	0.675633	-1.143574	0.828678
H93	H	1.293801	-0.785862	1.058422
C94	C	1.136813	-1.066012	1.431355
C95	C	1.119789	-0.954728	1.397020
H96	H	1.126071	-1.076420	1.493433
H97	H	1.196908	-1.094362	1.420434
H98	H	1.098991	-1.102720	1.403494
H99	H	1.157615	-0.918020	1.424876
H100	H	1.059684	-0.926364	1.407949
C101	C	1.341255	-1.321900	0.520720
C102	C	1.260287	-1.264466	0.485155
H103	H	1.388453	-1.299798	0.484310
H104	H	1.342267	-1.397642	0.523129
H105	H	1.347961	-1.307196	0.578837
H106	H	1.253578	-1.279177	0.427040
H107	H	1.259274	-1.188707	0.482736
C108	C	1.359009	-0.594670	1.087628
C109	C	1.399321	-0.683364	1.148743
H110	H	1.402395	-0.552517	1.063179
H111	H	1.314679	-0.551027	1.116733
H112	H	1.332628	-0.620317	1.041514
H113	H	1.425697	-0.657716	1.194861
H114	H	1.443667	-0.727014	1.119637
C115	C	0.795709	-1.110745	0.897596
C116	C	0.832801	-1.124179	0.814631
H117	H	0.820192	-1.170598	0.940906
H118	H	0.733303	-1.107243	0.895058
H119	H	0.808493	-1.045289	0.913096
H120	H	0.820012	-1.189632	0.799127
H121	H	0.895222	-1.127693	0.817167
C122	C	0.639515	-0.527116	0.475201
C123	C	0.700678	-0.599350	0.434812
H124	H	0.615015	-0.467304	0.431865
H125	H	0.668601	-0.501515	0.519554
H126	H	0.593441	-0.563540	0.501564
H127	H	0.746756	-0.562928	0.408455
H128	H	0.671592	-0.624952	0.390444
C129	C	0.405945	-1.085090	0.786378
C130	C	0.493862	-1.122886	0.813713
H131	H	0.368341	-1.130124	0.818974
H132	H	0.401119	-1.087037	0.724919
H133	H	0.388747	-1.012479	0.796716
H134	H	0.511063	-1.195494	0.803368
H135	H	0.498692	-1.120950	0.875186
H136	H	1.036978	-1.035144	1.270364
H137	H	1.033369	-1.038678	0.957490
C138	C	1.192846	-1.582783	0.803409
C139	C	1.118536	-1.500325	0.793329
H140	H	1.195830	-1.620010	0.862870
H141	H	1.244974	-1.551698	0.789848
H142	H	1.188121	-1.632571	0.764351
H143	H	1.123264	-1.450532	0.832382
H144	H	1.066395	-1.531410	0.806900
H145	H	0.544745	-0.823543	0.597102
C146	C	1.223873	-1.506531	0.416155
C147	C	1.259103	-1.466211	0.484910
H148	H	1.270638	-1.533325	0.379386
H149	H	1.184190	-1.449830	0.381952
H150	H	1.192911	-1.563798	0.440502
H151	H	1.290060	-1.408939	0.460564
H152	H	1.298802	-1.522918	0.519119
H153	H	1.341520	-1.322264	0.645730
