data_functionalizedCrystal
_audit_creation_method	'MofGen! by Chris Wilmer'
_symmetry_space_group_name_H-M	'P1'
_symmetry_Int_Tables_number	1
_symmetry_cell_setting	triclinic
loop_
_symmetry_equiv_pos_as_xyz
  x,y,z
_cell_length_a	15.944551
_cell_length_b	16.109301
_cell_length_c	15.186229
_cell_angle_alpha	90.000638
_cell_angle_beta	89.995303
_cell_angle_gamma	96.519891
loop_
_atom_site_label
_atom_site_type_symbol
_atom_site_fract_x
_atom_site_fract_y
_atom_site_fract_z
O1	O	0.107966	-1.103166	-0.073175
O2	O	0.357966	-0.853166	0.176825
O3	O	0.607966	-0.603166	0.426825
O4	O	0.857966	-0.353166	0.676825
O5	O	0.121402	-0.861108	-0.073189
O6	O	0.371402	-0.611108	0.176811
O7	O	0.621402	-0.361108	0.426811
O8	O	0.871402	-0.111108	0.676811
O9	O	-0.007593	-0.988747	-0.073174
O10	O	0.242407	-0.738747	0.176826
O11	O	0.492407	-0.488747	0.426826
O12	O	0.742407	-0.238747	0.676826
O13	O	0.236961	-0.975527	-0.073190
O14	O	0.486961	-0.725527	0.176810
O15	O	0.736961	-0.475527	0.426810
O16	O	0.986961	-0.225527	0.676810
O17	O	-0.007594	-0.988738	0.073284
O18	O	0.242406	-0.738738	0.323284
O19	O	0.492406	-0.488738	0.573284
O20	O	0.742406	-0.238738	0.823284
O21	O	0.121401	-0.861099	0.073268
O22	O	0.371401	-0.611099	0.323268
O23	O	0.621401	-0.361099	0.573268
O24	O	0.871401	-0.111099	0.823268
O25	O	0.107964	-1.103157	0.073282
O26	O	0.357964	-0.853157	0.323282
O27	O	0.607964	-0.603157	0.573282
O28	O	0.857964	-0.353157	0.823282
Zn29	Zn	0.114682	-0.982127	0.096529
Zn30	Zn	0.364682	-0.732127	0.346529
Zn31	Zn	0.614682	-0.482127	0.596529
Zn32	Zn	0.864682	-0.232127	0.846529
Zn33	Zn	0.114685	-0.982138	-0.096435
Zn34	Zn	0.364685	-0.732138	0.153565
Zn35	Zn	0.614685	-0.482138	0.403565
Zn36	Zn	0.864685	-0.232138	0.653565
O37	O	0.236960	-0.975518	0.073267
O38	O	0.486960	-0.725518	0.323267
O39	O	0.736960	-0.475518	0.573267
O40	O	0.986960	-0.225518	0.823267
C41	C	0.120857	-0.830129	0.000038
C42	C	0.370857	-0.580129	0.250038
C43	C	0.620857	-0.330129	0.500038
C44	C	0.870857	-0.080129	0.750038
C45	C	0.119226	-0.737833	0.000033
C46	C	0.369226	-0.487833	0.250033
C47	C	0.619226	-0.237833	0.500033
C48	C	0.869226	0.012167	0.750033
C49	C	-0.038887	-0.988194	0.000055
C50	C	0.211113	-0.738194	0.250055
C51	C	0.461113	-0.488194	0.500055
C52	C	0.711113	-0.238194	0.750055
C53	C	-0.132133	-0.986548	0.000056
C54	C	0.117867	-0.736548	0.250056
C55	C	0.367867	-0.486548	0.500056
C56	C	0.617867	-0.236548	0.750056
C57	C	0.108510	-1.134136	0.000054
C58	C	0.358510	-0.884136	0.250054
C59	C	0.608510	-0.634136	0.500054
C60	C	0.858510	-0.384136	0.750054
C61	C	0.110141	-1.226432	0.000053
C62	C	0.360141	-0.976432	0.250053
C63	C	0.610141	-0.726432	0.500053
C64	C	0.860141	-0.476432	0.750053
C65	C	-0.346962	-0.903499	0.000039
C66	C	-0.096962	-0.653499	0.250039
C67	C	0.153038	-0.403499	0.500039
C68	C	0.403038	-0.153499	0.750039
C69	C	-0.407993	-0.942060	0.072253
C70	C	-0.157993	-0.692060	0.322253
C71	C	0.092007	-0.442060	0.572253
C72	C	0.342007	-0.192060	0.822253
C73	C	-0.302858	-0.983572	0.000049
C74	C	-0.052858	-0.733572	0.250049
C75	C	0.197142	-0.483572	0.500049
C76	C	0.447142	-0.233572	0.750049
C77	C	-0.407975	-0.942087	-0.072142
C78	C	-0.157975	-0.692087	0.177858
C79	C	0.092025	-0.442087	0.427858
C80	C	0.342025	-0.192087	0.677858
C81	C	-0.467769	-0.980691	0.000038
C82	C	-0.217769	-0.730691	0.250038
C83	C	0.032231	-0.480691	0.500038
C84	C	0.282231	-0.230691	0.750038
C85	C	-0.362660	-1.022155	0.072323
C86	C	-0.112660	-0.772155	0.322323
C87	C	0.137340	-0.522155	0.572323
C88	C	0.387340	-0.272155	0.822323
C89	C	-0.362636	-1.022171	-0.072137
C90	C	-0.112636	-0.772171	0.177863
C91	C	0.137364	-0.522171	0.427863
C92	C	0.387364	-0.272171	0.677863
C93	C	-0.423649	-1.060790	0.000095
C94	C	-0.173649	-0.810790	0.250095
C95	C	0.076351	-0.560790	0.500095
C96	C	0.326351	-0.310790	0.750095
C97	C	-0.207856	-0.985229	0.000055
C98	C	0.042144	-0.735229	0.250055
C99	C	0.292144	-0.485229	0.500055
C100	C	0.542144	-0.235229	0.750055
C101	C	-0.562770	-0.979039	0.000038
C102	C	-0.312770	-0.729039	0.250038
C103	C	-0.062770	-0.479039	0.500038
C104	C	0.187230	-0.229039	0.750038
C105	C	0.268254	-0.976071	0.000036
C106	C	0.518254	-0.726071	0.250036
C107	C	0.768254	-0.476071	0.500036
C108	C	1.018254	-0.226071	0.750036
C109	C	0.361500	-0.977717	0.000030
C110	C	0.611500	-0.727717	0.250030
C111	C	0.861500	-0.477717	0.500030
C112	C	1.111500	-0.227717	0.750030
N113	N	0.114680	-0.982125	0.228221
N114	N	0.364680	-0.732125	0.478221
N115	N	0.614680	-0.482125	0.728221
N116	N	0.864680	-0.232125	0.978221
C117	C	0.191975	-0.515584	0.000038
C118	C	0.441975	-0.265584	0.250038
C119	C	0.691975	-0.015584	0.500038
C120	C	0.941975	0.234416	0.750038
C121	C	0.190435	-0.428863	0.000044
C122	C	0.440435	-0.178863	0.250044
C123	C	0.690435	0.071137	0.500044
C124	C	0.940435	0.321137	0.750044
C125	C	0.037387	-0.448688	0.000050
C126	C	0.287387	-0.198688	0.250050
C127	C	0.537387	0.051312	0.500050
C128	C	0.787387	0.301312	0.750050
C129	C	0.038927	-0.535407	0.000051
C130	C	0.288927	-0.285407	0.250051
C131	C	0.538927	-0.035407	0.500051
C132	C	0.788927	0.214593	0.750051
C133	C	0.116224	-0.568853	0.000040
C134	C	0.366224	-0.318853	0.250040
C135	C	0.616224	-0.068853	0.500040
C136	C	0.866224	0.181147	0.750040
C137	C	0.113143	-0.395412	0.000045
C138	C	0.363143	-0.145412	0.250045
C139	C	0.613143	0.104588	0.500045
C140	C	0.863143	0.354588	0.750045
C141	C	0.111473	-0.301386	0.000052
C142	C	0.361473	-0.051386	0.250052
C143	C	0.611473	0.198614	0.500052
C144	C	0.861473	0.448614	0.750052
C145	C	0.117894	-0.662885	0.000036
C146	C	0.367894	-0.412885	0.250036
C147	C	0.617894	-0.162885	0.500036
C148	C	0.867894	0.087115	0.750036
N149	N	0.114680	-0.982146	-0.228128
N150	N	0.364680	-0.732146	0.021872
N151	N	0.614680	-0.482146	0.271872
N152	N	0.864680	-0.232146	0.521872
C153	C	0.057580	-1.038663	0.453951
C154	C	0.307580	-0.788663	0.703951
C155	C	0.557580	-0.538663	0.953951
C156	C	0.807580	-0.288663	1.203951
C157	C	0.057578	-1.038666	0.546141
C158	C	0.307578	-0.788666	0.796141
C159	C	0.557578	-0.538666	1.046141
C160	C	0.807578	-0.288666	1.296141
C161	C	0.171783	-0.925603	0.546136
C162	C	0.421783	-0.675603	0.796136
C163	C	0.671783	-0.425603	1.046136
C164	C	0.921783	-0.175603	1.296136
C165	C	0.171780	-0.925597	0.453948
C166	C	0.421780	-0.675597	0.703948
C167	C	0.671780	-0.425597	0.953948
C168	C	0.921780	-0.175597	1.203948
C169	C	0.114680	-0.982132	0.407858
C170	C	0.364680	-0.732132	0.657858
C171	C	0.614680	-0.482132	0.907858
C172	C	0.864680	-0.232132	1.157858
C173	C	0.114680	-0.982140	0.592236
C174	C	0.364680	-0.732140	0.842236
C175	C	0.614680	-0.482140	1.092236
C176	C	0.864680	-0.232140	1.342236
C177	C	0.114679	-0.982143	0.692192
C178	C	0.364679	-0.732143	0.942192
C179	C	0.614679	-0.482143	1.192192
C180	C	0.864679	-0.232143	1.442192
C181	C	0.114680	-0.982128	0.307895
C182	C	0.364680	-0.732128	0.557895
C183	C	0.614680	-0.482128	0.807895
C184	C	0.864680	-0.232128	1.057895
H185	H	-0.313632	-0.837035	0.000107
H186	H	-0.063632	-0.587035	0.250107
H187	H	0.186368	-0.337035	0.500107
H188	H	0.436368	-0.087035	0.750107
H189	H	-0.428040	-0.908213	-0.133198
H190	H	-0.178040	-0.658213	0.116802
H191	H	0.071960	-0.408213	0.366802
H192	H	0.321960	-0.158213	0.616802
H193	H	-0.342516	-1.056013	-0.133188
H194	H	-0.092516	-0.806013	0.116812
H195	H	0.157484	-0.556013	0.366812
H196	H	0.407484	-0.306013	0.616812
H197	H	0.254914	-0.542812	0.000036
H198	H	0.504914	-0.292812	0.250036
H199	H	0.754914	-0.042812	0.500036
H200	H	1.004914	0.207188	0.750036
H201	H	0.252119	-0.385495	0.000044
H202	H	0.502119	-0.135495	0.250044
H203	H	0.752119	0.114505	0.500044
H204	H	1.002119	0.364505	0.750044
H205	H	0.011085	-1.084696	0.416427
H206	H	0.261085	-0.834696	0.666427
H207	H	0.511085	-0.584696	0.916427
H208	H	0.761085	-0.334696	1.166427
H209	H	0.011082	-1.084698	0.583667
H210	H	0.261082	-0.834698	0.833667
H211	H	0.511082	-0.584698	1.083667
H212	H	0.761082	-0.334698	1.333667
H213	H	-0.025546	-0.421446	0.000064
H214	H	0.224454	-0.171446	0.250064
H215	H	0.474454	0.078554	0.500064
H216	H	0.724454	0.328554	0.750064
H217	H	-0.456830	-1.127313	0.000139
H218	H	-0.206830	-0.877313	0.250139
H219	H	0.043170	-0.627313	0.500139
H220	H	0.293170	-0.377313	0.750139
H221	H	0.218278	-0.879558	0.416417
H222	H	0.468278	-0.629558	0.666417
H223	H	0.718278	-0.379558	0.916417
H224	H	0.968278	-0.129558	1.166417
H225	H	-0.428091	-0.908189	0.133301
H226	H	-0.178091	-0.658189	0.383301
H227	H	0.071909	-0.408189	0.633301
H228	H	0.321909	-0.158189	0.883301
H229	H	-0.022762	-0.578781	0.000055
H230	H	0.227238	-0.328781	0.250055
H231	H	0.477238	-0.078781	0.500055
H232	H	0.727238	0.171219	0.750055
H233	H	0.218274	-0.879574	0.583672
H234	H	0.468274	-0.629574	0.833672
H235	H	0.718274	-0.379574	1.083672
H236	H	0.968274	-0.129574	1.333672
H237	H	-0.342682	-1.055990	0.133442
H238	H	-0.092682	-0.805990	0.383442
H239	H	0.157318	-0.555990	0.633442
H240	H	0.407318	-0.305990	0.883442
