data_functionalizedCrystal
_audit_creation_method	'MofGen! by Chris Wilmer'
_symmetry_space_group_name_H-M	'P1'
_symmetry_Int_Tables_number	1
_symmetry_cell_setting	triclinic
loop_
_symmetry_equiv_pos_as_xyz
  x,y,z
_cell_length_a	10.540539
_cell_length_b	10.540510
_cell_length_c	14.586319
_cell_angle_alpha	89.998684
_cell_angle_beta	89.998549
_cell_angle_gamma	84.519401
loop_
_atom_site_label
_atom_site_type_symbol
_atom_site_fract_x
_atom_site_fract_y
_atom_site_fract_z
O1	O	1.685867	0.178901	-0.076192
O2	O	1.316452	0.195757	-0.076202
O3	O	1.509607	0.002620	-0.076196
O4	O	1.492711	0.372038	-0.076198
O5	O	1.509593	0.002617	0.076284
O6	O	1.316438	0.195754	0.076278
O7	O	1.685853	0.178898	0.076289
Cu8	Cu	1.501144	0.187326	0.090206
Cu9	Cu	1.501160	0.187330	-0.090120
O10	O	1.492698	0.372035	0.076283
C11	C	1.269142	0.194492	0.000037
C12	C	1.128194	0.190710	0.000032
C13	C	0.944783	0.045791	0.000389
C14	C	1.091401	0.049624	0.000036
C15	C	1.066522	0.258608	-0.087039
C16	C	0.919978	0.253793	-0.087102
C17	C	0.919474	0.256659	0.086297
C18	C	1.066456	0.257959	0.087439
C19	C	1.508341	-0.044685	0.000042
C20	C	1.504574	-0.185635	0.000036
C21	C	1.638758	-0.403090	0.000390
C22	C	1.642776	-0.256495	0.000041
C23	C	1.433836	-0.230392	-0.087038
C24	C	1.430797	-0.377153	-0.087106
C25	C	1.427903	-0.376965	0.086293
C26	C	1.434458	-0.230623	0.087439
C27	C	1.733163	0.180164	0.000048
C28	C	1.874110	0.183946	0.000046
C29	C	1.493964	0.419340	0.000043
C30	C	1.497731	0.560290	0.000042
N31	N	1.501142	0.187323	0.217038
N32	N	1.501172	0.187323	-0.216951
C33	C	1.586700	0.101831	0.452047
C34	C	1.586704	0.101828	0.548029
C35	C	1.415605	0.272819	0.548033
C36	C	1.415597	0.272815	0.452053
C37	C	1.501151	0.187322	0.404063
C38	C	1.501164	0.187323	0.596024
C39	C	1.501167	0.187321	0.700091
C40	C	1.501147	0.187323	0.299989
H41	H	0.891779	0.203612	-0.152188
H42	H	1.698457	-0.228088	-0.062481
H43	H	1.109121	0.211444	-0.151838
C44	C	1.148989	-0.022559	0.084346
C45	C	1.247004	-0.139199	0.071498
C46	C	1.304589	-0.211392	0.155808
C47	C	1.264161	-0.166945	0.252967
C48	C	1.166142	-0.050299	0.265820
C49	C	1.108556	0.021895	0.181510
H50	H	1.276936	-0.172107	-0.000429
H51	H	1.377150	-0.297742	0.146293
H52	H	1.306789	-0.220387	0.315379
H53	H	1.136209	-0.017391	0.337747
H54	H	1.035995	0.108244	0.191025
H55	H	1.090671	0.360819	0.092695
H56	H	1.088864	0.362217	-0.090279
C57	C	1.287728	-0.406889	0.087093
C58	C	1.236172	-0.480219	0.168167
C59	C	1.096003	-0.510152	0.168959
C60	C	1.007389	-0.466754	0.088676
C61	C	1.058943	-0.393419	0.007596
C62	C	1.199113	-0.363487	0.006804
H63	H	1.301770	-0.512349	0.227602
H64	H	1.057840	-0.564439	0.228981
H65	H	0.903628	-0.488912	0.089263
H66	H	0.993345	-0.361290	-0.051839
H67	H	1.237276	-0.309200	-0.053218
H68	H	0.916198	-0.009947	0.062832
H69	H	1.656362	0.032216	0.412976
H70	H	0.887927	0.210999	0.152296
C71	C	1.321508	0.366867	0.600822
C72	C	1.321580	0.366953	0.706396
C73	C	1.227483	0.461008	0.759182
C74	C	1.133313	0.554977	0.706395
C75	C	1.133236	0.554895	0.600816
C76	C	1.227334	0.460840	0.548029
H77	H	1.391294	0.297388	0.745478
H78	H	1.227540	0.461068	0.837340
H79	H	1.063656	0.624603	0.745471
H80	H	1.063522	0.624460	0.561734
H81	H	1.227277	0.460780	0.469872
H82	H	1.133157	-0.004174	-0.062488
H83	H	1.692595	-0.445047	0.062835
C84	C	1.503978	-0.191966	0.174468
C85	C	1.623849	-0.119887	0.166250
C86	C	1.693372	-0.081220	0.253276
C87	C	1.643022	-0.114632	0.348521
C88	C	1.523145	-0.186714	0.356743
C89	C	1.453622	-0.225381	0.269716
H90	H	1.661127	-0.095151	0.095740
H91	H	1.782113	-0.027860	0.247189
H92	H	1.694487	-0.086008	0.412943
H93	H	1.485867	-0.211451	0.427252
H94	H	1.364881	-0.278741	0.275803
H95	H	0.914587	-0.009709	-0.061707
H96	H	0.871999	0.355259	-0.091054
C97	C	1.680813	0.007790	0.600813
C98	C	1.774926	-0.086234	0.548023
C99	C	1.869038	-0.180277	0.600807
C100	C	1.869035	-0.180297	0.706381
C101	C	1.774918	-0.086270	0.759176
C102	C	1.680807	0.007774	0.706392
H103	H	1.774931	-0.086222	0.469866
H104	H	1.938710	-0.249882	0.561724
H105	H	1.938702	-0.249913	0.745455
H106	H	1.774913	-0.086281	0.837334
H107	H	1.611135	0.077379	0.745475
H108	H	1.107418	0.208357	0.151853
H109	H	0.872236	0.358564	0.086885
H110	H	1.698125	-0.227152	0.062458
C111	C	1.496128	-0.431492	-0.175027
C112	C	1.550695	-0.341301	-0.244688
C113	C	1.616031	-0.395633	-0.332610
C114	C	1.626800	-0.540155	-0.350871
C115	C	1.572231	-0.630355	-0.281208
C116	C	1.506895	-0.576023	-0.193286
H117	H	1.542725	-0.234309	-0.231172
H118	H	1.656427	-0.328860	-0.384179
H119	H	1.675166	-0.580375	-0.415957
H120	H	1.580201	-0.737347	-0.294725
H121	H	1.466500	-0.642795	-0.141717
H122	H	1.692295	-0.446595	-0.061700
H123	H	1.327430	-0.400148	-0.091054
H124	H	1.332094	-0.183003	-0.090279
H125	H	1.471816	-0.419148	0.152295
H126	H	1.482972	-0.199534	-0.151835
H127	H	1.333559	-0.181557	0.092694
H128	H	1.345926	0.342432	0.412982
