data_functionalizedCrystal
_audit_creation_method	'MofGen! by Chris Wilmer'
_symmetry_space_group_name_H-M	'P1'
_symmetry_Int_Tables_number	1
_symmetry_cell_setting	triclinic
loop_
_symmetry_equiv_pos_as_xyz
  x,y,z
_cell_length_a	10.686220
_cell_length_b	12.827892
_cell_length_c	10.686551
_cell_angle_alpha	85.594922
_cell_angle_beta	90.308082
_cell_angle_gamma	94.396976
loop_
_atom_site_label
_atom_site_type_symbol
_atom_site_fract_x
_atom_site_fract_y
_atom_site_fract_z
Zn1	Zn	1.972286	-0.254771	-0.562389
Zn2	Zn	2.472286	0.245229	-0.062389
Zn3	Zn	1.956055	-0.443915	-0.352633
Zn4	Zn	2.456055	0.056085	0.147367
Zn5	Zn	1.746404	-0.281503	-0.368707
Zn6	Zn	2.246404	0.218497	0.131293
Zn7	Zn	1.762485	-0.441797	-0.578411
Zn8	Zn	2.262485	0.058203	-0.078411
O9	O	1.859307	-0.355496	-0.465535
O10	O	2.359307	0.144504	0.034465
O11	O	2.145674	-0.269560	-0.521133
O12	O	2.645674	0.230440	-0.021133
O13	O	1.914721	-0.434445	-0.179220
O14	O	2.414721	0.065555	0.320780
O15	O	1.776430	-0.131715	-0.394421
O16	O	2.276430	0.368285	0.105579
O17	O	2.133750	-0.408523	-0.367026
O18	O	2.633750	0.091477	0.132974
O19	O	1.942384	-0.112075	-0.536719
O20	O	2.442384	0.387925	-0.036719
O21	O	1.760692	-0.315121	-0.191029
O22	O	2.260692	0.184879	0.308971
O23	O	1.572995	-0.313068	-0.409957
O24	O	2.072995	0.186932	0.090043
O25	O	1.803838	-0.404914	-0.751831
O26	O	2.303838	0.095086	-0.251831
O27	O	1.584810	-0.430835	-0.564025
O28	O	2.084810	0.069165	-0.064025
O29	O	1.957978	-0.267506	-0.740060
O30	O	2.457978	0.232494	-0.240060
O31	O	1.930315	-0.589876	-0.382561
O32	O	2.430315	-0.089876	0.117439
O33	O	1.788100	-0.588320	-0.548439
O34	O	2.288100	-0.088320	-0.048439
C35	C	1.533386	-0.374623	-0.490474
C36	C	2.033386	0.125377	0.009526
C37	C	1.393958	-0.382829	-0.501173
C38	C	1.893958	0.117171	-0.001173
C39	C	1.859227	-0.627013	-0.465519
C40	C	2.359227	-0.127013	0.034481
C41	C	1.859311	-0.743159	-0.465545
C42	C	2.359311	-0.243159	0.034455
C43	C	1.929780	-0.795668	-0.383541
C44	C	2.429780	-0.295668	0.116459
C45	C	1.929868	-0.915711	-0.383567
C46	C	2.429868	-0.415711	0.116433
C47	C	2.186501	-0.336296	-0.440499
C48	C	2.686501	0.163704	0.059501
C49	C	2.325931	-0.328114	-0.429830
C50	C	2.825931	0.171886	0.070170
C51	C	1.884512	-0.332992	-0.792735
C52	C	2.384512	0.167008	-0.292735
C53	C	1.895253	-0.323402	-0.932168
C54	C	2.395253	0.176598	-0.432168
C55	C	1.859424	-0.082916	-0.465576
C56	C	2.359424	0.417084	0.034424
C57	C	1.859474	0.033241	-0.465594
C58	C	2.359474	0.533241	0.034406
C59	C	1.834273	-0.377834	-0.139602
C60	C	2.334273	0.122166	0.360398
C61	C	1.823775	-0.387115	-0.000151
C62	C	2.323775	0.112885	0.499849
H63	H	1.345526	-0.435960	-0.570436
H64	H	1.845526	0.064040	-0.070436
F65	F	1.733050	-0.468009	-0.936804
F66	F	2.233050	0.031991	-0.436804
F67	F	2.008563	-0.738270	-0.291755
F68	F	2.508563	-0.238270	0.208245
F69	F	1.389224	-0.258680	-0.339291
F70	F	1.889224	0.241320	0.160709
F71	F	2.008722	-0.974727	-0.291792
F72	F	2.508722	-0.474727	0.208208
F73	F	1.985996	-0.242513	-0.995520
F74	F	2.485996	0.257487	-0.495520
F75	F	1.780603	-0.907751	-0.557360
F76	F	2.280603	-0.407751	-0.057360
F77	F	1.780542	-0.800554	-0.557344
F78	F	2.280542	-0.300554	-0.057344
