data_functionalizedCrystal
_audit_creation_method	'MofGen! by Chris Wilmer'
_symmetry_space_group_name_H-M	'P1'
_symmetry_Int_Tables_number	1
_symmetry_cell_setting	triclinic
loop_
_symmetry_equiv_pos_as_xyz
  x,y,z
_cell_length_a	14.519731
_cell_length_b	9.065218
_cell_length_c	12.996460
_cell_angle_alpha	90.006701
_cell_angle_beta	90.005861
_cell_angle_gamma	95.647631
loop_
_atom_site_label
_atom_site_type_symbol
_atom_site_fract_x
_atom_site_fract_y
_atom_site_fract_z
O1	O	0.135227	-1.957859	0.085572
O2	O	0.146319	-1.528368	0.085574
O3	O	0.006619	-1.754485	0.085564
O4	O	0.274927	-1.731743	0.085582
O5	O	0.006611	-1.754514	-0.085570
O6	O	0.146311	-1.528397	-0.085560
O7	O	0.135219	-1.957889	-0.085562
Cu8	Cu	0.140764	-1.743146	-0.101187
Cu9	Cu	0.140774	-1.743111	0.101199
O10	O	0.274919	-1.731772	-0.085551
C11	C	0.145249	-1.473416	0.000007
C12	C	0.142062	-1.309632	0.000007
N13	N	0.140757	-1.743181	-0.243534
C14	C	-0.027752	-1.753434	-0.000003
C15	C	-0.130156	-1.750241	-0.000004
C16	C	-0.213319	-1.747646	-0.000002
C17	C	-0.317651	-1.744404	0.000006
C18	C	-0.400809	-1.741831	0.000013
C19	C	-0.505148	-1.738589	0.000019
C20	C	0.309290	-1.732823	0.000018
C21	C	0.411694	-1.736016	0.000025
C22	C	0.136289	-2.012841	0.000007
C23	C	0.139476	-2.176624	0.000014
N24	N	0.140773	-1.743088	0.243546
C25	C	0.140775	-1.743092	0.336652
C26	C	0.140773	-1.743113	0.453457
C27	C	0.140767	-1.743137	0.546555
C28	C	0.140763	-1.743156	0.663368
