data_functionalizedCrystal
_audit_creation_method	'MofGen! by Chris Wilmer'
_symmetry_space_group_name_H-M	'P1'
_symmetry_Int_Tables_number	1
_symmetry_cell_setting	triclinic
loop_
_symmetry_equiv_pos_as_xyz
  x,y,z
_cell_length_a	14.908571
_cell_length_b	19.121063
_cell_length_c	14.908858
_cell_angle_alpha	88.966316
_cell_angle_beta	89.795097
_cell_angle_gamma	89.303906
loop_
_atom_site_label
_atom_site_type_symbol
_atom_site_fract_x
_atom_site_fract_y
_atom_site_fract_z
Zn1	Zn	1.327238	-0.312193	-0.603624
Zn2	Zn	1.328631	-0.436186	-0.459626
Zn3	Zn	1.185501	-0.312987	-0.444659
Zn4	Zn	1.170446	-0.422689	-0.600588
O5	O	1.252954	-0.371014	-0.527124
O6	O	1.452942	-0.333957	-0.592057
O7	O	1.316527	-0.425824	-0.332120
O8	O	1.210021	-0.215078	-0.460752
O9	O	1.453964	-0.425055	-0.486262
O10	O	1.314154	-0.214495	-0.577543
O11	O	1.211371	-0.335310	-0.321123
O12	O	1.057986	-0.322223	-0.457809
O13	O	1.184362	-0.402051	-0.726512
O14	O	1.046925	-0.402821	-0.572370
O15	O	1.299557	-0.320869	-0.728742
O16	O	1.301929	-0.532199	-0.483319
O17	O	1.185712	-0.522283	-0.586883
C18	C	1.019910	-0.361144	-0.513136
C19	C	0.920210	-0.356937	-0.507174
C20	C	0.721395	-0.433105	-0.615116
C21	C	0.627718	-0.429155	-0.609517
C22	C	0.639177	-0.345082	-0.490383
C23	C	0.732854	-0.349033	-0.495982
C24	C	0.773960	-0.393046	-0.558349
C25	C	0.867639	-0.397000	-0.563943
C26	C	0.879096	-0.312925	-0.444814
C27	C	0.785419	-0.308974	-0.439215
C28	C	1.242361	-0.552600	-0.536417
C29	C	1.237910	-0.630285	-0.540427
C30	C	1.296369	-0.671921	-0.488441
C31	C	1.292188	-0.744915	-0.492218
C32	C	1.229543	-0.776271	-0.547977
C33	C	1.171081	-0.734629	-0.599970
C34	C	1.175267	-0.661637	-0.596196
C35	C	1.213878	-0.996402	-0.562069
C36	C	1.209694	-1.069399	-0.565836
C37	C	1.330803	-1.079680	-0.458086
C38	C	1.334980	-1.006686	-0.454314
C39	C	1.276521	-0.965051	-0.506309
C40	C	1.225265	-0.850881	-0.551838
C41	C	1.280803	-0.890441	-0.502453
C42	C	1.486909	-0.380923	-0.541168
C43	C	1.586606	-0.385145	-0.547152
C44	C	1.240125	-0.359866	-0.761083
C45	C	1.234657	-0.355116	-0.860782
C46	C	1.263612	-0.188719	-0.517817
C47	C	1.268153	-0.111035	-0.513850
C48	C	1.172209	-0.301296	-0.995578
C49	C	1.177342	-0.305758	-0.901902
C50	C	1.286845	-0.400013	-0.913346
C51	C	1.281712	-0.395551	-1.007023
C52	C	1.224391	-0.346192	-1.048135
C53	C	1.219253	-0.341733	-1.141814
C54	C	1.328760	-0.435984	-1.153257
C55	C	1.333894	-0.440446	-1.059580
C56	C	1.265788	-0.382070	-0.294076
C57	C	1.271441	-0.386631	-0.194378
H58	H	1.347378	-0.646397	-0.443032
C59	C	1.438319	-0.441872	-0.895351
C60	C	1.349847	-0.454269	-0.868151
H61	H	1.477211	-0.475368	-0.867446
H62	H	1.442722	-0.445643	-0.958656
H63	H	1.455027	-0.396200	-0.878384
H64	H	1.333136	-0.499940	-0.885124
H65	H	1.345440	-0.450505	-0.804832
H66	H	1.380565	-0.480632	-1.026094
H67	H	1.371255	-0.472538	-1.196060
H68	H	0.605693	-0.309244	-0.439612
H69	H	0.921904	-0.280307	-0.398588
C70	C	1.115713	-0.252612	-1.134099
C71	C	1.109199	-0.247046	-1.040777
H72	H	1.076808	-0.219123	-1.161999
H73	H	1.175728	-0.244199	-1.152537
H74	H	1.099004	-0.298288	-1.151050
H75	H	1.125915	-0.201372	-1.023825
H76	H	1.049171	-0.255454	-1.022331
H77	H	1.378397	-1.113587	-0.415755
C78	C	1.029027	-0.266662	-0.862210
C79	C	1.119978	-0.256413	-0.844127
H80	H	0.993613	-0.236199	-0.826537
H81	H	1.017774	-0.256937	-0.923877
H82	H	1.014010	-0.313799	-0.848465
H83	H	1.134997	-0.209277	-0.857879
H84	H	1.131236	-0.266132	-0.782446
C85	C	0.846899	-0.479696	-0.681149
C86	C	0.912825	-0.445375	-0.632501
H87	H	0.874795	-0.509556	-0.723479
H88	H	0.810949	-0.506710	-0.641198
H89	H	0.810252	-0.446097	-0.711773
H90	H	0.949468	-0.478974	-0.601871
H91	H	0.948789	-0.418359	-0.672457
H92	H	1.174258	-0.876420	-0.597235
C93	C	0.625805	-0.512653	-0.727837
C94	C	0.569938	-0.473189	-0.671916
H95	H	0.590132	-0.539841	-0.766357
H96	H	0.662233	-0.482145	-0.762832
H97	H	0.662929	-0.542747	-0.692242
H98	H	0.532819	-0.443091	-0.707510
H99	H	0.533495	-0.503701	-0.636917
H100	H	1.172578	-0.301543	-1.175286
C101	C	0.687225	-0.300426	-0.311781
C102	C	0.740229	-0.260596	-0.370664
H103	H	0.659334	-0.270558	-0.269457
H104	H	0.642517	-0.323711	-0.344790
H105	H	0.723885	-0.334014	-0.281151
H106	H	0.703568	-0.227011	-0.401299
H107	H	0.784943	-0.237300	-0.337650
C108	C	1.412305	-0.747744	-0.385322
C109	C	1.356443	-0.790681	-0.435068
H110	H	1.451971	-0.776000	-0.350035
H111	H	1.446075	-0.718827	-0.425011
H112	H	1.376752	-0.719295	-0.347171
H113	H	1.391996	-0.819127	-0.473224
H114	H	1.322671	-0.819610	-0.395374
H115	H	1.385990	-0.981158	-0.408910
H116	H	1.158691	-1.094926	-0.611258
H117	H	0.754864	-0.468947	-0.665894
H118	H	1.166277	-0.962508	-0.604404
C119	C	1.110882	-0.841954	-0.653589
C120	C	1.102217	-0.769094	-0.661259
H121	H	1.068361	-0.863229	-0.691422
H122	H	1.169723	-0.855792	-0.671001
H123	H	1.100421	-0.856255	-0.593142
H124	H	1.112684	-0.754792	-0.721706
H125	H	1.043362	-0.755251	-0.643852
H126	H	1.127665	-0.627737	-0.638530
H127	H	1.331813	-0.864909	-0.457058
