data_functionalizedCrystal
_audit_creation_method	'MofGen! by Chris Wilmer'
_symmetry_space_group_name_H-M	'P1'
_symmetry_Int_Tables_number	1
_symmetry_cell_setting	triclinic
loop_
_symmetry_equiv_pos_as_xyz
  x,y,z
_cell_length_a	14.971486
_cell_length_b	23.532407
_cell_length_c	13.448316
_cell_angle_alpha	89.988737
_cell_angle_beta	89.998199
_cell_angle_gamma	83.231404
loop_
_atom_site_label
_atom_site_type_symbol
_atom_site_fract_x
_atom_site_fract_y
_atom_site_fract_z
O1	O	1.186163	0.074216	-0.082588
O2	O	1.686163	0.574216	0.417412
O3	O	0.925669	0.083104	-0.082616
O4	O	1.425669	0.583104	0.417384
O5	O	1.063771	-0.004238	-0.082583
O6	O	1.563771	0.495762	0.417417
O7	O	1.048061	0.161558	-0.082621
O8	O	1.548061	0.661558	0.417379
O9	O	1.063754	-0.004243	0.082801
O10	O	1.563754	0.495757	0.582801
O11	O	0.925652	0.083099	0.082767
O12	O	1.425652	0.583099	0.582767
O13	O	1.186146	0.074211	0.082796
O14	O	1.686146	0.574211	0.582796
Cu15	Cu	1.055897	0.078654	0.097882
Cu16	Cu	1.555897	0.578654	0.597882
Cu17	Cu	1.055918	0.078661	-0.097703
Cu18	Cu	1.555918	0.578661	0.402297
O19	O	1.048044	0.161553	0.082763
O20	O	1.548044	0.661553	0.582763
C21	C	0.892340	0.082704	0.000072
C22	C	1.392340	0.582704	0.500072
C23	C	0.793056	0.081513	0.000062
C24	C	1.293056	0.581513	0.500062
C25	C	0.735288	0.132824	0.000052
C26	C	1.235288	0.632824	0.500052
C27	C	0.642001	0.131701	0.000067
C28	C	1.142001	0.631701	0.500067
C29	C	0.606482	0.079267	0.000085
C30	C	1.106482	0.579267	0.500085
C31	C	0.664257	0.027952	0.000099
C32	C	1.164257	0.527952	0.500099
C33	C	0.757543	0.029075	0.000091
C34	C	1.257543	0.529075	0.500091
C35	C	0.469819	0.025615	0.000113
C36	C	0.969819	0.525615	0.500113
C37	C	0.376527	0.024491	0.000119
C38	C	0.876527	0.524491	0.500119
C39	C	0.354277	0.128241	0.000089
C40	C	0.854277	0.628241	0.500089
C41	C	0.447563	0.129364	0.000081
C42	C	0.947563	0.629364	0.500081
C43	C	0.505331	0.078049	0.000093
C44	C	1.005331	0.578049	0.500093
C45	C	1.063363	-0.025458	0.000111
C46	C	1.563363	0.474542	0.500111
C47	C	1.062160	-0.088680	0.000119
C48	C	1.562160	0.411320	0.500119
C49	C	1.136342	-0.487466	0.000072
C50	C	1.636342	0.012534	0.500072
C51	C	1.135224	-0.546871	0.000065
C52	C	1.635224	-0.046871	0.500065
O53	O	1.203992	-0.583321	0.000035
O54	O	1.703992	-0.083321	0.500035
N55	N	1.053123	-0.569849	0.000056
N56	N	1.553123	-0.069849	0.500056
C57	C	0.972133	-0.533418	0.000046
C58	C	1.472133	-0.033418	0.500046
O59	O	0.902196	-0.558417	0.000037
O60	O	1.402196	-0.058417	0.500037
C61	C	0.973251	-0.474014	0.000046
C62	C	1.473251	0.025986	0.500046
C63	C	1.055358	-0.451040	0.000065
C64	C	1.555358	0.048960	0.500065
C65	C	1.218442	-0.464491	0.000090
C66	C	1.718442	0.035509	0.500090
C67	C	1.219559	-0.405090	0.000099
C68	C	1.719559	0.094910	0.500099
C69	C	1.138576	-0.368664	0.000091
C70	C	1.638576	0.131336	0.500091
C71	C	1.056475	-0.391639	0.000074
C72	C	1.556475	0.108361	0.500074
C73	C	0.892263	-0.437584	0.000029
C74	C	1.392263	0.062416	0.500029
C75	C	0.893388	-0.378177	0.000028
C76	C	1.393388	0.121823	0.500028
C77	C	0.975495	-0.355203	0.000047
C78	C	1.475495	0.144797	0.500047
C79	C	0.976609	-0.295812	0.000076
C80	C	1.476609	0.204188	0.500076
N81	N	1.058711	-0.272834	0.000084
N82	N	1.558711	0.227166	0.500084
C83	C	1.139694	-0.309260	0.000092
C84	C	1.639694	0.190740	0.500092
C85	C	0.969791	-0.658170	0.000043
C86	C	1.469791	-0.158170	0.500043
C87	C	0.968671	-0.717573	0.000049
C88	C	1.468671	-0.217573	0.500049
C89	C	1.131763	-0.731022	0.000066
C90	C	1.631763	-0.231022	0.500066
C91	C	1.132882	-0.671618	0.000067
C92	C	1.632882	-0.171618	0.500067
C93	C	1.051892	-0.635193	0.000051
C94	C	1.551892	-0.135193	0.500051
C95	C	1.142034	-0.184513	0.000113
C96	C	1.642034	0.315487	0.500113
C97	C	1.143143	-0.125106	0.000126
C98	C	1.643143	0.374894	0.500126
C99	C	0.980052	-0.111663	0.000104
C100	C	1.480052	0.388337	0.500104
C101	C	0.978942	-0.171064	0.000096
C102	C	1.478942	0.328936	0.500096
C103	C	1.059940	-0.207489	0.000097
C104	C	1.559940	0.292511	0.500097
O105	O	0.907878	-0.259327	0.000101
O106	O	1.407878	0.240673	0.500101
O107	O	1.209619	-0.284253	0.000087
O108	O	1.709619	0.215747	0.500087
C109	C	1.219475	0.074611	0.000105
C110	C	1.719475	0.574611	0.500105
C111	C	1.318760	0.075802	0.000109
C112	C	1.818760	0.575802	0.500109
C113	C	1.048453	0.182773	0.000066
C114	C	1.548453	0.682773	0.500066
C115	C	1.049655	0.245996	0.000052
C116	C	1.549655	0.745996	0.500052
N117	N	1.055890	0.078650	0.235447
N118	N	1.555890	0.578650	0.735447
N119	N	1.055933	0.078661	-0.235267
N120	N	1.555933	0.578661	0.264733
C121	C	1.117060	0.039991	0.287502
C122	C	1.617060	0.539991	0.787502
C123	C	1.117066	0.039990	0.391605
C124	C	1.617066	0.539990	0.891605
C125	C	1.055904	0.078652	0.443651
C126	C	1.555904	0.578652	0.943651
C127	C	0.994728	0.117313	0.391589
C128	C	1.494728	0.617313	0.891589
C129	C	0.994718	0.117310	0.287488
C130	C	1.494718	0.617310	0.787488
C131	C	0.994752	0.117317	0.608569
C132	C	1.494752	0.617317	1.108569
C133	C	0.994762	0.117320	0.712678
C134	C	1.494762	0.617320	1.212678
C135	C	1.117100	0.039997	0.712686
C136	C	1.617100	0.539997	1.212686
C137	C	1.117090	0.039994	0.608585
C138	C	1.617090	0.539994	1.108585
C139	C	1.055914	0.078656	0.556530
C140	C	1.555914	0.578656	1.056530
H141	H	0.516853	-0.016172	0.000124
H142	H	1.016853	0.483828	0.500124
H143	H	1.166897	0.008515	0.566209
H144	H	1.666897	0.508515	1.066209
Cl145	Cl	1.322785	-0.376217	0.000094
Cl146	Cl	1.822785	0.123783	0.500094
H147	H	0.944933	0.148797	0.566189
H148	H	1.444933	0.648797	1.066189
H149	H	1.284392	-0.494144	0.000092
H150	H	1.784392	0.005856	0.500092
H151	H	1.199740	-0.652917	0.000081
H152	H	1.699740	-0.152917	0.500081
Cl153	Cl	1.246371	-0.096229	0.000147
Cl154	Cl	1.746371	0.403771	0.500147
Cl155	Cl	0.830166	-0.035433	0.000108
Cl156	Cl	1.330166	0.464567	0.500108
H157	H	0.827435	-0.348522	0.000014
H158	H	1.327435	0.151478	0.500014
Cl159	Cl	1.194006	-0.008605	0.778131
Cl160	Cl	1.694006	0.491395	1.278131
H161	H	0.476478	0.172060	0.000057
H162	H	0.976478	0.672060	0.500057
H163	H	1.197704	-0.760691	0.000069
H164	H	1.697704	-0.260691	0.500069
Cl165	Cl	0.619605	-0.037966	0.000128
Cl166	Cl	1.119605	0.462034	0.500128
H167	H	1.207990	-0.214164	0.000110
H168	H	1.707990	0.285836	0.500110
Cl169	Cl	0.281655	0.192751	0.000077
Cl170	Cl	0.781655	0.692751	0.500077
H171	H	0.901812	-0.736273	0.000052
H172	H	1.401812	-0.236273	0.500052
Cl173	Cl	0.789036	-0.466451	-0.000001
Cl174	Cl	1.289036	0.033549	0.499999
H175	H	0.903835	-0.628515	0.000038
H176	H	1.403835	-0.128515	0.500038
H177	H	0.912084	-0.189771	0.000109
H178	H	1.412084	0.310229	0.500109
H179	H	0.594969	0.173484	0.000057
H180	H	1.094969	0.673484	0.500057
Cl181	Cl	0.917868	0.165925	0.778099
Cl182	Cl	1.417868	0.665925	1.278099
H183	H	0.914118	-0.081994	0.000101
H184	H	1.414118	0.418006	0.500101
Cl185	Cl	1.193958	-0.008613	0.222083
Cl186	Cl	1.693958	0.491387	0.722083
Cl187	Cl	1.193966	-0.008611	0.457048
Cl188	Cl	1.693966	0.491389	0.957048
Cl189	Cl	0.917833	0.165914	0.457016
Cl190	Cl	1.417833	0.665914	0.957016
H191	H	0.944906	0.148789	0.245105
H192	H	1.444906	0.648789	0.745105
Cl193	Cl	0.779930	0.198745	0.000022
Cl194	Cl	1.279930	0.698745	0.500022
H195	H	0.347612	-0.018205	0.000135
H196	H	0.847612	0.481795	0.500135
