data_functionalizedCrystal
_audit_creation_method	'MofGen! by Chris Wilmer'
_symmetry_space_group_name_H-M	'P1'
_symmetry_Int_Tables_number	1
_symmetry_cell_setting	triclinic
loop_
_symmetry_equiv_pos_as_xyz
  x,y,z
_cell_length_a	12.784905
_cell_length_b	11.892113
_cell_length_c	16.109301
_cell_angle_alpha	94.370065
_cell_angle_beta	78.284400
_cell_angle_gamma	94.703417
loop_
_atom_site_label
_atom_site_type_symbol
_atom_site_fract_x
_atom_site_fract_y
_atom_site_fract_z
O1	O	1.416374	0.094011	0.009513
O2	O	1.106907	0.094013	0.045119
O3	O	1.270142	0.094000	-0.094328
O4	O	1.253140	0.094023	0.148961
O5	O	1.258005	-0.094008	-0.102938
O6	O	1.094771	-0.093995	0.036509
O7	O	1.404238	-0.093997	0.000903
Zn8	Zn	1.247578	-0.123847	0.017339
Zn9	Zn	1.263568	0.123862	0.028683
O10	O	1.241004	-0.093985	0.140350
C11	C	1.061239	0.000009	0.043130
C12	C	0.943243	0.000009	0.050020
N13	N	1.236673	-0.292902	0.009596
C14	C	0.746908	0.000016	-0.090360
C15	C	0.636041	0.000016	-0.083890
C16	C	0.610640	0.000019	0.069430
C17	C	0.721507	0.000018	0.062960
C18	C	0.789638	0.000015	-0.016938
C19	C	0.900506	0.000007	-0.023407
C20	C	0.875104	0.000017	0.129912
C21	C	0.764237	0.000017	0.136382
C22	C	1.350351	-0.529542	0.090343
C23	C	1.342737	-0.647885	0.084922
C24	C	1.213837	-0.647931	-0.006669
C25	C	1.221451	-0.529588	-0.001249
C26	C	1.289709	-0.470398	0.047260
C27	C	1.297317	-0.352054	0.052684
C28	C	1.168424	-0.352102	-0.038912
C29	C	1.160810	-0.470444	-0.044332
C30	C	1.449907	0.000009	0.002892
C31	C	1.567903	0.000016	-0.003998
C32	C	1.263385	-0.000004	-0.129558
C33	C	1.261320	-0.000006	-0.221705
N34	N	1.274481	0.292917	0.036419
C35	C	1.353380	0.000011	-0.450612
C36	C	1.351432	0.000021	-0.537192
C37	C	1.157759	0.000017	-0.503357
C38	C	1.159709	0.000016	-0.416779
C39	C	1.257522	0.000007	-0.390410
C40	C	1.253625	0.000018	-0.563567
C41	C	1.251512	0.000028	-0.657441
C42	C	1.259635	-0.000001	-0.296531
C43	C	1.247761	0.000022	0.175581
C44	C	1.249827	0.000031	0.267728
H45	H	0.955977	0.000002	-0.088464
O46	O	1.448335	0.000165	-0.424884
C47	C	1.461548	0.097551	-0.371367
H48	H	1.379857	0.130006	-0.342220
H49	H	1.512978	0.165738	-0.409955
C50	C	1.617191	0.028115	-0.335955
C51	C	1.516856	0.067971	-0.300150
H52	H	1.651312	0.009872	-0.292026
H53	H	1.608293	-0.037494	-0.372012
H54	H	1.660036	0.084944	-0.368110
H55	H	1.474008	0.011137	-0.268004
H56	H	1.525748	0.133570	-0.264085
O57	O	1.444644	-0.000029	-0.595563
C58	C	1.531390	-0.000007	-0.553717
H59	H	1.502091	-0.035605	-0.488676
H60	H	1.567194	0.090189	-0.545571
C61	C	1.653343	-0.030012	-0.686757
C62	C	1.617360	-0.073744	-0.606874
H63	H	1.706377	-0.075492	-0.719547
H64	H	1.594902	-0.030023	-0.714950
H65	H	1.683173	0.045150	-0.679957
H66	H	1.587520	-0.148899	-0.613674
H67	H	1.675798	-0.073747	-0.578683
H68	H	1.078123	0.000022	-0.524839
O69	O	0.544295	-0.000027	0.146968
C70	C	0.437282	0.000008	0.136930
H71	H	0.430763	-0.035584	0.070299
H72	H	0.411045	0.090208	0.146533
C73	C	0.372643	-0.030004	0.284839
C74	C	0.364635	-0.073728	0.203003
H75	H	0.327829	-0.075483	0.325597
H76	H	0.444740	-0.030023	0.291603
H77	H	0.350781	0.045161	0.292829
H78	H	0.386510	-0.148886	0.195010
H79	H	0.292540	-0.073722	0.196239
O80	O	1.066484	-0.000038	-0.358406
C81	C	0.979735	-0.000012	-0.400242
H82	H	1.004431	-0.035607	-0.468550
H83	H	0.955574	0.090185	-0.400112
C84	C	0.853921	-0.030022	-0.269949
C85	C	0.884250	-0.073750	-0.353844
H86	H	0.795019	-0.075502	-0.241327
H87	H	0.912365	-0.030036	-0.241762
H88	H	0.833794	0.045142	-0.269852
H89	H	0.904389	-0.148906	-0.353939
H90	H	0.825807	-0.073750	-0.382030
O91	O	1.363464	-0.294503	0.099912
C92	C	1.303047	-0.226036	0.164428
H93	H	1.216172	-0.261717	0.177803
H94	H	1.307031	-0.136350	0.142974
C95	C	1.455723	-0.180374	0.229387
C96	C	1.349023	-0.224204	0.245820
H97	H	1.484086	-0.179239	0.279593
H98	H	1.496429	-0.226498	0.185920
H99	H	1.459030	-0.105640	0.211508
H100	H	1.345720	-0.298942	0.263688
H101	H	1.308318	-0.178092	0.289292
H102	H	1.405919	-0.481349	0.129849
O103	O	0.916793	0.000090	0.201158
C104	C	1.029256	0.000068	0.178318
H105	H	1.057607	0.035640	0.113177
H106	H	1.054299	-0.090125	0.175998
C107	C	1.045153	0.030136	0.324505
C108	C	1.079976	0.073836	0.244501
H109	H	1.076440	0.075634	0.365331
H110	H	0.969384	0.030147	0.339894
H111	H	1.066025	-0.045024	0.322559
H112	H	1.059092	0.148988	0.246445
H113	H	1.155742	0.073839	0.229114
O114	O	1.401681	-0.705162	0.126858
C115	C	1.463578	-0.627537	0.170813
H116	H	1.425003	-0.543189	0.182692
H117	H	1.547829	-0.614937	0.131140
C118	C	1.516868	-0.777306	0.241786
C119	C	1.469484	-0.673710	0.256381
H120	H	1.520516	-0.805787	0.294566
H121	H	1.475170	-0.829604	0.212170
H122	H	1.587072	-0.766791	0.208723
H123	H	1.399277	-0.684228	0.289434
H124	H	1.511171	-0.621414	0.286004
H125	H	0.802381	0.000006	-0.155416
H126	H	0.601256	0.000019	-0.143678
H127	H	1.158277	-0.696144	-0.046172
H128	H	1.119039	-0.303935	-0.073988
H129	H	0.708751	0.000024	0.201433
H130	H	1.105240	-0.518653	-0.083829
