data_functionalizedCrystal
_audit_creation_method	'MofGen! by Chris Wilmer'
_symmetry_space_group_name_H-M	'P1'
_symmetry_Int_Tables_number	1
_symmetry_cell_setting	triclinic
loop_
_symmetry_equiv_pos_as_xyz
  x,y,z
_cell_length_a	27.440280
_cell_length_b	27.440280
_cell_length_c	27.440280
_cell_angle_alpha	60.004742
_cell_angle_beta	90.008003
_cell_angle_gamma	60.004534
loop_
_atom_site_label
_atom_site_type_symbol
_atom_site_fract_x
_atom_site_fract_y
_atom_site_fract_z
Zr1	Zr	0.469569	0.533327	-0.063884
O2	O	0.391762	0.634989	-0.141703
O3	O	0.493412	0.431666	-0.040030
O4	O	0.493424	0.533315	-0.141691
O5	O	0.391752	0.533349	0.040152
O6	O	0.573627	0.533306	-0.141681
O7	O	0.391751	0.533339	-0.040041
O8	O	0.573606	0.351473	0.040173
O9	O	0.391773	0.715181	-0.141702
O10	O	0.563446	0.473473	-0.029848
O11	O	0.503593	0.473488	0.029992
O12	O	0.503607	0.593167	-0.089701
O13	O	0.443753	0.593181	-0.029861
Zr14	Zr	0.597485	0.533327	0.064031
Zr15	Zr	0.597483	0.533312	-0.063868
Zr16	Zr	0.469571	0.533342	0.064015
Zr17	Zr	0.469586	0.661225	-0.063883
Zr18	Zr	0.597469	0.405430	0.064029
O19	O	0.573642	0.634989	0.040176
O20	O	0.573640	0.634968	-0.141680
O21	O	0.391765	0.635010	0.040153
O22	O	0.675292	0.431666	0.141849
O23	O	0.675290	0.431644	-0.040007
O24	O	0.493415	0.431687	0.141826
O25	O	0.675303	0.533306	-0.040006
O26	O	0.573631	0.533339	0.141838
O27	O	0.493428	0.533349	0.141828
O28	O	0.675304	0.533315	0.040188
O29	O	0.493447	0.715169	-0.141689
O30	O	0.573607	0.351485	0.141835
O31	O	0.675282	0.351473	0.141848
O32	O	0.675281	0.351461	0.040185
O33	O	0.391774	0.715193	-0.040039
O34	O	0.493449	0.715181	-0.040026
O35	O	0.563448	0.473488	0.089847
O36	O	0.623302	0.473473	0.030007
O37	O	0.563462	0.593167	-0.029846
O38	O	0.503608	0.593181	0.029994
C39	C	0.533507	0.373347	0.000071
C40	C	0.533500	0.319051	0.000071
C41	C	0.373526	0.533346	0.000053
C42	C	0.319223	0.533352	0.000046
C43	C	0.564787	-0.017698	-0.031157
C44	C	0.564792	-0.068722	-0.031156
O45	O	0.591381	-0.095135	-0.057702
N46	N	0.533549	-0.094231	0.000079
C47	C	0.502303	-0.068718	0.031319
O48	O	0.475729	-0.095101	0.057887
C49	C	0.502301	-0.017699	0.031320
C50	C	0.533542	0.007812	0.000079
C51	C	0.596025	0.007812	-0.062396
C52	C	0.596019	0.058833	-0.062398
C53	C	0.564774	0.084344	-0.031162
C54	C	0.533535	0.058833	0.000076
C55	C	0.471059	0.007809	0.062563
C56	C	0.471061	0.058832	0.062563
C57	C	0.502301	0.084343	0.031321
C58	C	0.502284	0.135365	0.031310
N59	N	0.533527	0.160874	0.000075
C60	C	0.564772	0.135364	-0.031161
C61	C	0.502309	-0.175864	0.031314
C62	C	0.502307	-0.226879	0.031309
C63	C	0.564798	-0.226880	-0.031164
C64	C	0.564796	-0.175861	-0.031163
C65	C	0.533553	-0.150355	0.000079
C66	C	0.564756	0.242512	-0.031164
C67	C	0.564745	0.293540	-0.031166
C68	C	0.502257	0.293534	0.031311
C69	C	0.502265	0.242514	0.031310
C70	C	0.533519	0.217002	0.000072
O71	O	0.475710	0.161808	0.057845
O72	O	0.591348	0.161746	-0.057718
C73	C	0.013761	0.470837	0.031332
C74	C	-0.037257	0.470833	0.031338
O75	O	-0.037080	0.417698	0.057927
N76	N	-0.094010	0.533311	0.000094
C77	C	-0.099743	0.595797	-0.031152
O78	O	-0.152700	0.648939	-0.057726
C79	C	-0.048725	0.595800	-0.031153
C80	C	0.008027	0.533318	0.000088
C81	C	0.070511	0.408360	0.062571
C82	C	0.121525	0.408364	0.062565
C83	C	0.115791	0.470845	0.031320
C84	C	0.059042	0.533322	0.000081
C85	C	-0.054459	0.658286	-0.062395
C86	C	-0.003435	0.658283	-0.062393
C87	C	0.053317	0.595801	-0.031153
C88	C	0.104322	0.595807	-0.031170
N89	N	0.161074	0.533329	0.000073
C90	C	0.166809	0.470848	0.031318
C91	C	-0.206882	0.595786	-0.031145
C92	C	-0.257899	0.595784	-0.031148
C93	C	-0.195409	0.470819	0.031343
C94	C	-0.144392	0.470823	0.031341
C95	C	-0.150129	0.533308	0.000098
C96	C	0.273941	0.470862	0.031302
C97	C	0.324958	0.470871	0.031291
C98	C	0.262464	0.595835	-0.031196
C99	C	0.211452	0.595826	-0.031188
C100	C	0.217194	0.533334	0.000066
O101	O	0.104191	0.648916	-0.057744
O102	O	0.219768	0.417715	0.057894
C103	C	0.693528	0.533308	0.000093
C104	C	0.747831	0.533302	0.000100
C105	C	0.533525	0.533308	-0.159909
C106	C	0.533524	0.533302	-0.214206
C107	C	0.533548	0.693308	0.000075
C108	C	0.533555	0.747604	0.000076
C109	C	0.502297	0.595817	-0.582183
C110	C	0.502299	0.595821	-0.633205
O111	O	0.475752	0.648957	-0.686164
N112	N	0.533533	0.533343	-0.627480
C113	C	0.564773	0.470857	-0.570727
O114	O	0.591341	0.417715	-0.570542
C115	C	0.564774	0.470854	-0.519706
C116	C	0.533533	0.533336	-0.525436
C117	C	0.471058	0.658294	-0.587911
C118	C	0.471056	0.658290	-0.536892
C119	C	0.502292	0.595809	-0.480145
C120	C	0.533530	0.533332	-0.474418
C121	C	0.596018	0.408369	-0.462955
C122	C	0.596017	0.408371	-0.411933
C123	C	0.564775	0.470853	-0.417663
C124	C	0.564764	0.470847	-0.366652
N125	N	0.533529	0.533325	-0.372378
C126	C	0.502293	0.595806	-0.429124
C127	C	0.564769	0.470868	-0.677877
C128	C	0.564764	0.470871	-0.728897
C129	C	0.502290	0.595835	-0.791371
C130	C	0.502292	0.595832	-0.740350
C131	C	0.533534	0.533346	-0.683603
C132	C	0.502290	0.595793	-0.321979
C133	C	0.502288	0.595783	-0.270952
C134	C	0.564764	0.470819	-0.208482
C135	C	0.564764	0.470829	-0.259504
C136	C	0.533525	0.533321	-0.316253
O137	O	0.591299	0.417738	-0.313675
O138	O	0.475736	0.648939	-0.429298
C139	C	0.533530	0.533346	0.160056
C140	C	0.533530	0.533352	0.214352
C141	C	0.693508	0.373328	0.000091
C142	C	0.747804	0.319026	0.000097
C143	C	0.533509	0.373365	0.160054
C144	C	0.533503	0.319076	0.214350
C145	C	0.693510	0.373347	0.160074
C146	C	0.747807	0.319051	0.214376
C147	C	0.373544	0.693308	-0.159927
C148	C	0.319248	0.747604	-0.214230
C149	C	0.373547	0.693326	0.000055
C150	C	0.319251	0.747629	0.000049
C151	C	0.533546	0.693289	-0.159907
C152	C	0.533552	0.747579	-0.214203
C153	C	0.742058	0.293525	-0.031149
C154	C	0.793070	0.242509	-0.031155
C155	C	0.849827	0.216992	0.000089
C156	C	0.855572	0.242498	0.031336
C157	C	0.804560	0.293516	0.031338
C158	C	0.564744	0.293581	0.271096
C159	C	0.564736	0.242577	0.322118
C160	C	0.533490	0.217066	0.316392
C161	C	0.502245	0.242566	0.259639
C162	C	0.502250	0.293572	0.208618
C163	C	0.804553	0.293546	0.208642
C164	C	0.855576	0.242536	0.259660
C165	C	0.849850	0.217029	0.316412
C166	C	0.793098	0.242539	0.322146
C167	C	0.742077	0.293551	0.271128
C168	C	0.262501	0.773115	-0.208495
C169	C	0.211479	0.824141	-0.259514
C170	C	0.217204	0.849650	-0.316266
C171	C	0.273957	0.824137	-0.322000
C172	C	0.324978	0.773116	-0.270982
C173	C	0.324997	0.773135	0.031290
C174	C	0.273985	0.824165	0.031282
C175	C	0.217228	0.849684	0.000036
C176	C	0.211483	0.824176	-0.031209
C177	C	0.262494	0.773150	-0.031204
C178	C	0.564804	0.773074	-0.208458
C179	C	0.564821	0.824078	-0.259469
C180	C	0.533583	0.849589	-0.316227
C181	C	0.502330	0.824089	-0.321971
C182	C	0.502316	0.773082	-0.270960
H183	H	0.590184	0.314311	-0.056608
C184	C	0.161118	0.905809	0.000038
C185	C	0.098683	0.933883	-0.034326
C186	C	0.042576	0.990005	-0.034319
C187	C	0.048904	1.018053	0.000052
C188	C	0.111341	0.989979	0.034419
C189	C	0.167448	0.933856	0.034412
H190	H	0.093996	0.913120	-0.059772
H191	H	-0.003644	1.010788	-0.059760
H192	H	0.007370	1.059598	0.000057
H193	H	0.116028	1.010742	0.059864
H194	H	0.213669	0.913074	0.059853
H195	H	0.533490	0.175534	0.357941
C196	C	0.467890	0.321606	0.146197
C197	C	0.467890	0.377708	0.090069
C198	C	0.433528	0.405738	0.027649
C199	C	0.399165	0.377667	0.021357
C200	C	0.399163	0.321562	0.077487
C201	C	0.433526	0.293532	0.139907
H202	H	0.493329	0.398491	0.094724
H203	H	0.433530	0.447271	-0.013903
H204	H	0.373728	0.398417	-0.024850
H205	H	0.373725	0.300779	0.072831
H206	H	0.433524	0.251999	0.181459
H207	H	0.278626	0.419974	0.056753
H208	H	0.809247	0.314272	0.056786
H209	H	0.590194	0.419949	-0.162271
C210	C	0.599113	0.214529	0.384541
C211	C	0.599112	0.158426	0.440669
C212	C	0.633490	0.130378	0.503089
C213	C	0.667868	0.158434	0.509383
C214	C	0.667869	0.214540	0.453253
C215	C	0.633492	0.242587	0.390833
H216	H	0.573663	0.137655	0.436012
H217	H	0.633489	0.088845	0.544640
H218	H	0.693316	0.137671	0.555590
H219	H	0.693319	0.235311	0.457910
H220	H	0.633493	0.284121	0.349282
C221	C	0.599131	0.214458	-0.065530
C222	C	0.582812	0.263563	-0.133391
C223	C	0.617183	0.235513	-0.167760
C224	C	0.667872	0.158359	-0.134268
C225	C	0.684193	0.109249	-0.066403
C226	C	0.649823	0.137299	-0.032034
H227	H	0.545287	0.320681	-0.158187
H228	H	0.605101	0.271867	-0.217999
H229	H	0.693315	0.137594	-0.159710
H230	H	0.721719	0.052131	-0.041606
H231	H	0.661905	0.100945	0.018205
C232	C	0.149048	0.852244	-0.065573
C233	C	0.130276	0.803150	-0.049254
C234	C	0.067840	0.831216	-0.083614
C235	C	0.024176	0.908375	-0.134292
C236	C	0.042947	0.957473	-0.150613
C237	C	0.105383	0.929408	-0.116253
H238	H	0.162600	0.746029	-0.011737
H239	H	0.053945	0.794869	-0.071532
H240	H	-0.022042	0.929150	-0.159727
H241	H	0.010624	1.014595	-0.188130
H242	H	0.119278	0.965754	-0.128335
H243	H	0.257828	0.752348	-0.162289
H244	H	0.167732	0.357485	0.088002
C245	C	0.256168	0.745088	-0.065563
C246	C	0.193734	0.773157	-0.099924
C247	C	0.187402	0.745097	-0.134284
C248	C	0.243504	0.688967	-0.134282
C249	C	0.305943	0.660894	-0.099920
C250	C	0.312275	0.688954	-0.065560
H251	H	0.152199	0.814711	-0.099926
H252	H	0.141181	0.765879	-0.159721
H253	H	0.238817	0.668195	-0.159718
H254	H	0.347477	0.619341	-0.099918
H255	H	0.358496	0.668173	-0.040122
C256	C	0.149056	0.852192	-0.253197
C257	C	0.130311	0.887247	-0.220392
C258	C	0.067891	0.915295	-0.214074
C259	C	0.024216	0.908288	-0.240560
C260	C	0.042960	0.873232	-0.273368
C261	C	0.105380	0.845183	-0.279686
H262	H	0.162643	0.892435	-0.200783
H263	H	0.054016	0.941247	-0.189787
H264	H	-0.021991	0.929051	-0.235883
H265	H	0.010628	0.868043	-0.292977
H266	H	0.119256	0.819232	-0.303972
H267	H	-0.098185	0.419944	0.056785
H268	H	0.476852	0.646710	-0.745022
C269	C	0.161077	0.905770	-0.372383
C270	C	0.098658	0.933793	-0.366068
C271	C	0.042529	0.989910	-0.422183
C272	C	0.048818	1.018005	-0.484612
C273	C	0.111240	0.989982	-0.490929
C274	C	0.167369	0.933865	-0.434815
H275	H	0.094000	0.912995	-0.319852
H276	H	-0.003679	1.010654	-0.417506
H277	H	0.007268	1.059547	-0.526151
H278	H	0.115898	1.010780	-0.537146
H279	H	0.213577	0.913121	-0.439492
H280	H	0.371207	0.752361	0.056737
C281	C	0.918007	0.214416	0.065711
C282	C	0.974113	0.158289	0.065712
C283	C	1.036550	0.130200	0.100092
C284	C	1.042882	0.158238	0.134472
C285	C	0.986775	0.214368	0.134472
C286	C	0.924338	0.242457	0.100092
H287	H	0.969427	0.137531	0.040261
H288	H	1.078084	0.088649	0.100091
H289	H	1.089101	0.137445	0.159922
H290	H	0.991460	0.235125	0.159923
H291	H	0.882803	0.284008	0.100092
C292	C	0.467929	0.745048	-0.277286
C293	C	0.433566	0.773120	-0.339720
C294	C	0.399176	0.745089	-0.346051
C295	C	0.399150	0.688987	-0.289949
C296	C	0.433515	0.660912	-0.227511
C297	C	0.467904	0.688943	-0.221179
H298	H	0.433584	0.814653	-0.381254
H299	H	0.373737	0.765872	-0.392273
H300	H	0.373693	0.668237	-0.294636
H301	H	0.433497	0.619379	-0.185976
H302	H	0.493343	0.668160	-0.174958
H303	H	0.533599	0.891122	-0.357758
H304	H	0.476897	0.844868	-0.368189
H305	H	0.891400	0.175491	0.357949
C306	C	0.436693	0.727024	-0.543203
C307	C	0.453020	0.778560	-0.575984
C308	C	0.418657	0.847298	-0.582302
C309	C	0.367967	0.864500	-0.555838
C310	C	0.351638	0.812963	-0.523054
C311	C	0.386001	0.744225	-0.516736
H312	H	0.490546	0.765827	-0.595577
H313	H	0.430745	0.885449	-0.606572
H314	H	0.342530	0.915384	-0.560515
H315	H	0.314113	0.825696	-0.503462
H316	H	0.373913	0.706074	-0.492467
C317	C	0.630396	-0.020240	-0.096762
C318	C	0.614077	0.028870	-0.164623
C319	C	0.648446	0.000827	-0.198997
C320	C	0.699134	-0.076327	-0.165510
C321	C	0.715455	-0.125442	-0.097646
C322	C	0.681087	-0.097399	-0.063272
H323	H	0.576552	0.085988	-0.189415
H324	H	0.636363	0.037186	-0.249235
H325	H	0.724575	-0.097086	-0.190956
H326	H	0.752980	-0.182561	-0.072854
H327	H	0.693169	-0.133758	-0.013034
H328	H	0.476845	0.646666	-0.275625
H329	H	0.278612	0.844913	-0.368214
H330	H	0.590242	0.752310	-0.162248
H331	H	0.788445	0.221764	0.368361
H332	H	0.590188	0.314347	0.275771
C333	C	0.467879	0.214495	0.253348
C334	C	0.501380	0.137331	0.279846
C335	C	0.467017	0.109255	0.273558
C336	C	0.399154	0.158343	0.240771
C337	C	0.365649	0.235512	0.214270
C338	C	0.400012	0.263588	0.220558
H339	H	0.551620	0.100989	0.304119
H340	H	0.491820	0.052129	0.293176
H341	H	0.373717	0.137560	0.236116
H342	H	0.315410	0.271855	0.189997
H343	H	0.375209	0.320714	0.200940
H344	H	0.809227	0.314306	0.162436
C345	C	0.280314	0.852210	0.065659
C346	C	0.313128	0.887255	0.049362
C347	C	0.319459	0.915296	0.083741
C348	C	0.292976	0.908293	0.134417
C349	C	0.260160	0.873247	0.150716
C350	C	0.253829	0.845205	0.116337
H351	H	0.332734	0.892440	0.011847
H352	H	0.343752	0.941240	0.071675
H353	H	0.297663	0.929051	0.159866
H354	H	0.240554	0.868062	0.188232
H355	H	0.229536	0.819262	0.128404
H356	H	0.621460	0.079600	-0.087836
H357	H	0.901782	0.221771	0.254981
H358	H	0.075190	0.357478	0.088018
H359	H	0.371182	0.752345	-0.275658
C360	C	0.436689	0.086891	0.096928
C361	C	0.453002	0.037794	0.164789
C362	C	0.418630	0.065854	0.199152
C363	C	0.367945	0.143010	0.165654
C364	C	0.351630	0.192112	0.097788
C365	C	0.386002	0.164052	0.063425
H366	H	0.490524	-0.019326	0.189591
H367	H	0.430708	0.029505	0.249391
H368	H	0.342501	0.163782	0.191091
H369	H	0.314107	0.249232	0.072987
H370	H	0.373924	0.200401	0.013187
C371	C	0.599172	-0.254951	-0.065522
C372	C	0.599174	-0.311075	-0.065516
C373	C	0.633546	-0.339147	-0.099872
C374	C	0.667914	-0.311095	-0.134234
C375	C	0.667913	-0.254969	-0.134242
C376	C	0.633542	-0.226897	-0.099885
H377	H	0.573731	-0.331843	-0.040078
H378	H	0.633546	-0.380696	-0.099867
H379	H	0.693358	-0.331876	-0.159667
H380	H	0.693356	-0.234200	-0.159680
H381	H	0.633541	-0.185348	-0.099891
C382	C	0.599196	0.852126	-0.253141
C383	C	0.667055	0.803014	-0.220327
C384	C	0.701429	0.831060	-0.213996
C385	C	0.667944	0.908219	-0.240479
C386	C	0.600081	0.957335	-0.273295
C387	C	0.565707	0.929289	-0.279625
H388	H	0.691846	0.745892	-0.200721
H389	H	0.751666	0.794701	-0.189704
H390	H	0.693390	0.928980	-0.235793
H391	H	0.575290	1.014457	-0.292901
H392	H	0.515471	0.965648	-0.303918
H393	H	0.590235	-0.155093	-0.056602
C394	C	0.630394	0.339632	-0.456634
C395	C	0.698255	0.288098	-0.423830
C396	C	0.732638	0.219355	-0.417503
C397	C	0.699161	0.202144	-0.443980
C398	C	0.631296	0.253679	-0.476786
C399	C	0.596913	0.322423	-0.483113
H400	H	0.723041	0.300837	-0.404229
H401	H	0.782876	0.181205	-0.393217
H402	H	0.724613	0.151256	-0.439296
H403	H	0.606511	0.240940	-0.496387
H404	H	0.546675	0.360572	-0.507399
H405	H	0.476860	-0.247638	0.056742
H406	H	0.476861	-0.155095	0.056752
C407	C	0.630382	0.339634	-0.349510
C408	C	0.681065	0.322441	-0.305831
C409	C	0.715429	0.253706	-0.243409
C410	C	0.699110	0.202163	-0.224666
C411	C	0.648424	0.219355	-0.268345
C412	C	0.614061	0.288091	-0.330767
H413	H	0.693148	0.360597	-0.319706
H414	H	0.752950	0.240979	-0.211075
H415	H	0.724548	0.151281	-0.178457
H416	H	0.636342	0.181200	-0.254471
H417	H	0.576540	0.300817	-0.363101
H418	H	0.891359	0.175449	0.000083
C419	C	-0.009748	0.727020	-0.096764
C420	C	0.016723	0.744208	-0.147449
C421	C	0.010410	0.812944	-0.181820
C422	C	-0.022375	0.864491	-0.165505
C423	C	-0.048849	0.847304	-0.114818
C424	C	-0.042535	0.778569	-0.080447
H425	H	0.040994	0.706048	-0.159528
H426	H	0.030007	0.825666	-0.219342
H427	H	-0.027049	0.915373	-0.190949
H428	H	-0.073120	0.885464	-0.102739
H429	H	-0.062133	0.765846	-0.042925
C430	C	0.436698	-0.020247	0.096936
C431	C	0.470196	-0.097403	0.147624
C432	C	0.435834	-0.125460	0.182001
C433	C	0.367973	-0.076361	0.165691
C434	C	0.334471	0.000800	0.115001
C435	C	0.368833	0.028856	0.080623
H436	H	0.520434	-0.133753	0.159700
H437	H	0.460635	-0.182579	0.219525
H438	H	0.342536	-0.097130	0.191139
H439	H	0.284232	0.037150	0.102925
H440	H	0.344032	0.085976	0.043099
H441	H	0.476819	0.221749	0.056741
H442	H	0.476816	0.314316	0.056740
H443	H	0.371168	0.419989	0.056733
H444	H	0.695848	0.314300	-0.056598
C445	C	0.467940	0.664567	-0.853800
C446	C	0.467951	0.664564	-0.909918
C447	C	0.433605	0.733291	-0.972346
C448	C	0.399248	0.802022	-0.978656
C449	C	0.399236	0.802028	-0.922537
C450	C	0.433581	0.733300	-0.860109
H451	H	0.493385	0.613682	-0.905248
H452	H	0.433615	0.733286	-1.013889
H453	H	0.373823	0.852898	-1.024869
H454	H	0.373801	0.852909	-0.927206
H455	H	0.433572	0.733305	-0.818565
H456	H	-0.190748	0.419944	0.056782
H457	H	-0.304105	0.646663	-0.056595
C458	C	0.786741	0.214453	-0.065522
C459	C	0.724308	0.242514	-0.099876
C460	C	0.717978	0.214459	-0.134242
C461	C	0.774081	0.158342	-0.134252
C462	C	0.836519	0.130277	-0.099897
C463	C	0.842849	0.158333	-0.065531
H464	H	0.682773	0.284058	-0.099870
H465	H	0.671757	0.235234	-0.159674
H466	H	0.769395	0.137574	-0.159692
H467	H	0.878054	0.088733	-0.099903
H468	H	0.889070	0.137557	-0.040099
H469	H	-0.100661	0.709165	-0.087834
H470	H	-0.211562	0.646672	-0.056590
H471	H	0.165241	0.646704	-0.056635
H472	H	0.257805	0.646706	-0.056637
H473	H	0.476853	0.646680	-0.368181
H474	H	0.590196	0.419991	-0.724224
H475	H	0.445622	0.709177	-0.634113
H476	H	0.590207	0.419982	-0.631671
H477	H	0.590195	0.419951	-0.254837
H478	H	0.695873	0.314311	0.275806
