data_functionalizedCrystal
_audit_creation_method	'MofGen! by Chris Wilmer'
_symmetry_space_group_name_H-M	'P1'
_symmetry_Int_Tables_number	1
_symmetry_cell_setting	triclinic
loop_
_symmetry_equiv_pos_as_xyz
  x,y,z
_cell_length_a	10.723023
_cell_length_b	10.723023
_cell_length_c	9.730223
_cell_angle_alpha	89.996605
_cell_angle_beta	89.997177
_cell_angle_gamma	84.467548
loop_
_atom_site_label
_atom_site_type_symbol
_atom_site_fract_x
_atom_site_fract_y
_atom_site_fract_z
O1	O	1.657186	0.175022	-0.114273
O2	O	1.294034	0.191777	-0.114278
O3	O	1.483987	0.001823	-0.114270
O4	O	1.467233	0.364976	-0.114281
O5	O	1.483975	0.001818	0.114310
O6	O	1.294022	0.191771	0.114302
O7	O	1.657174	0.175017	0.114307
Zn8	Zn	1.475596	0.183393	0.150597
Zn9	Zn	1.475612	0.183400	-0.150567
O10	O	1.467221	0.364970	0.114299
C11	C	1.247528	0.190555	0.000011
C12	C	1.108974	0.186908	0.000009
C13	C	1.482762	-0.044679	0.000019
C14	C	1.479115	-0.183233	0.000014
C15	C	1.047195	0.185279	0.118419
C16	C	0.903992	0.181509	0.118420
C17	C	1.473713	-0.388210	0.118416
C18	C	1.477482	-0.245007	0.118423
C19	C	1.703680	0.176239	0.000015
C20	C	1.842234	0.179886	0.000008
C21	C	1.468446	0.411473	0.000007
C22	C	1.472093	0.550027	0.000003
N23	N	1.475594	0.183388	0.356133
N24	N	1.475624	0.183396	-0.356104
C25	C	1.559734	0.099312	0.428063
C26	C	1.559747	0.099313	0.571946
C27	C	1.391475	0.267475	0.571956
C28	C	1.391457	0.267468	0.428076
H29	H	0.850863	0.180115	0.219795
O30	O	1.479356	-0.181738	0.239411
C31	C	1.586383	-0.226697	0.315284
H32	H	1.660859	-0.271790	0.242434
H33	H	1.624842	-0.145457	0.371697
H34	H	1.559995	-0.299198	0.393074
O35	O	1.471872	-0.451713	0.239270
C36	C	1.361987	-0.513794	0.246634
H37	H	1.325507	-0.528754	0.138422
H38	H	1.383842	-0.608379	0.299230
H39	H	1.287758	-0.454454	0.308205
H40	H	1.473487	-0.396832	-0.101370
O41	O	1.641499	0.017513	0.358389
C42	C	1.715785	-0.056674	0.452737
H43	H	1.664622	-0.058544	0.555310
H44	H	1.733969	-0.156164	0.411178
H45	H	1.808830	-0.015305	0.468015
H46	H	1.628260	0.030849	0.630507
H47	H	1.055848	0.185508	-0.101366
O48	O	1.477277	-0.246428	-0.121024
C49	C	1.370203	-0.201510	-0.196843
H50	H	1.336731	-0.102542	-0.161547
H51	H	1.394572	-0.200157	-0.310843
H52	H	1.292724	-0.265505	-0.179451
O53	O	1.309877	0.349109	0.642058
C54	C	1.327914	0.331071	0.784476
H55	H	1.426729	0.285338	0.804112
H56	H	1.314842	0.425454	0.839144
H57	H	1.256757	0.267837	0.825333
H58	H	1.322934	0.335933	0.369507
H59	H	0.895353	0.181294	-0.101372
O60	O	1.110722	0.186781	0.239277
C61	C	1.199219	0.080857	0.246645
H62	H	1.223001	0.045398	0.138433
H63	H	1.287855	0.107531	0.299246
H64	H	1.158364	0.003990	0.308211
