data_functionalizedCrystal
_audit_creation_method	'MofGen! by Chris Wilmer'
_symmetry_space_group_name_H-M	'P1'
_symmetry_Int_Tables_number	1
_symmetry_cell_setting	triclinic
loop_
_symmetry_equiv_pos_as_xyz
  x,y,z
_cell_length_a	19.805407
_cell_length_b	16.120484
_cell_length_c	19.805399
_cell_angle_alpha	92.871043
_cell_angle_beta	89.980427
_cell_angle_gamma	92.925608
loop_
_atom_site_label
_atom_site_type_symbol
_atom_site_fract_x
_atom_site_fract_y
_atom_site_fract_z
Zn1	Zn	1.021075	-0.331927	-0.396377
Zn2	Zn	1.521075	0.168073	0.103623
Zn3	Zn	1.015252	-0.471346	-0.288925
Zn4	Zn	1.515252	0.028654	0.211075
Zn5	Zn	0.907889	-0.331950	-0.283203
Zn6	Zn	1.407889	0.168050	0.216797
Zn7	Zn	0.902117	-0.471302	-0.402070
Zn8	Zn	1.402117	0.028698	0.097930
O9	O	0.961584	-0.401631	-0.342644
O10	O	1.461584	0.098369	0.157356
O11	O	1.115019	-0.350431	-0.382136
O12	O	1.615019	0.149569	0.117864
O13	O	1.000989	-0.452883	-0.193451
O14	O	1.500989	0.047117	0.306549
O15	O	0.927756	-0.215281	-0.293438
O16	O	1.427756	0.284719	0.206562
O17	O	1.110741	-0.452861	-0.303191
O18	O	1.610741	0.047139	0.196809
O19	O	1.010913	-0.215264	-0.376587
O20	O	1.510913	0.284736	0.123413
O21	O	0.922109	-0.350470	-0.189246
O22	O	1.422109	0.149530	0.310754
O23	O	0.812407	-0.350427	-0.298958
O24	O	1.312407	0.149573	0.201042
O25	O	0.917919	-0.452785	-0.496030
O26	O	1.417919	0.047215	0.003970
O27	O	0.808167	-0.452807	-0.386290
O28	O	1.308167	0.047193	0.113710
O29	O	1.005317	-0.350388	-0.491848
O30	O	1.505317	0.149612	0.008152
O31	O	0.995392	-0.588006	-0.308712
O32	O	1.495392	-0.088006	0.191288
O33	O	0.912273	-0.587974	-0.391839
O34	O	1.412273	-0.087974	0.108161
C35	C	0.785728	-0.401615	-0.342621
C36	C	1.285728	0.098385	0.157379
C37	C	0.710496	-0.401629	-0.342628
C38	C	1.210496	0.098371	0.157372
C39	C	0.672958	-0.455019	-0.388035
C40	C	1.172958	0.044981	0.111965
C41	C	0.602269	-0.455020	-0.388045
C42	C	1.102269	0.044980	0.111955
C43	C	0.569120	-0.401635	-0.342644
C44	C	1.069120	0.098365	0.157356
C45	C	0.606663	-0.348239	-0.297235
C46	C	1.106663	0.151761	0.202765
C47	C	0.677350	-0.348234	-0.297229
C48	C	1.177350	0.151766	0.202771
C49	C	0.321589	-0.348258	-0.297258
C50	C	0.821589	0.151742	0.202742
C51	C	0.250896	-0.348269	-0.297266
C52	C	0.750896	0.151731	0.202734
C53	C	0.246508	-0.455043	-0.388074
C54	C	0.746508	0.044957	0.111926
C55	C	0.317195	-0.455038	-0.388068
C56	C	0.817195	0.044962	0.111932
C57	C	0.354732	-0.401640	-0.342662
C58	C	0.854732	0.098360	0.157338
C59	C	0.431381	-0.401638	-0.342653
C60	C	0.931381	0.098362	0.157347
C61	C	0.492472	-0.401641	-0.342649
C62	C	0.992472	0.098359	0.157351
C63	C	0.952593	-0.618240	-0.351529
C64	C	1.452593	-0.118240	0.148471
C65	C	0.948809	-0.710906	-0.355353
C66	C	1.448809	-0.210906	0.144647
C67	C	0.941903	-0.880568	-0.362347
C68	C	1.441903	-0.380568	0.137653
C69	C	0.981385	-0.921854	-0.322951
C70	C	1.481385	-0.421854	0.177049
C71	C	0.977543	-1.016260	-0.326843
C72	C	1.477543	-0.516260	0.173157
C73	C	0.945745	-0.786154	-0.358456
C74	C	1.445745	-0.286154	0.141544
C75	C	1.138126	-0.401648	-0.342667
C76	C	1.638126	0.098352	0.157333
C77	C	1.213357	-0.401655	-0.342677
C78	C	1.713357	0.098345	0.157323
C79	C	0.961624	-0.401579	-0.519184
C80	C	1.461624	0.098421	-0.019184
C81	C	0.961641	-0.401556	-0.594416
C82	C	1.461641	0.098444	-0.094416
C83	C	0.970628	-0.184177	-0.333739
C84	C	1.470628	0.315823	0.166261
C85	C	0.974482	-0.091511	-0.329944
C86	C	1.474482	0.408489	0.170056
C87	C	1.007150	-0.348235	-0.627583
C88	C	1.507150	0.151765	-0.127583
C89	C	1.007158	-0.348211	-0.698270
C90	C	1.507158	0.151789	-0.198270
C91	C	0.961659	-0.401513	-0.735789
C92	C	1.461659	0.098487	-0.235789
C93	C	0.916145	-0.454836	-0.702617
C94	C	1.416145	0.045164	-0.202617
C95	C	0.916135	-0.454856	-0.631931
C96	C	1.416135	0.045144	-0.131931
C97	C	0.916187	-0.454759	-0.987688
C98	C	1.416187	0.045241	-0.487688
C99	C	0.916202	-0.454737	-1.058379
C100	C	1.416202	0.045263	-0.558379
C101	C	1.007210	-0.348114	-1.054027
C102	C	1.507210	0.151886	-0.554027
C103	C	1.007199	-0.348133	-0.983340
C104	C	1.507199	0.151867	-0.483340
C105	C	0.961683	-0.401453	-0.950174
C106	C	1.461683	0.098547	-0.450174
C107	C	0.961674	-0.401478	-0.873527
C108	C	1.461674	0.098522	-0.373527
C109	C	0.961671	-0.401493	-0.812436
C110	C	1.461671	0.098507	-0.312436
C111	C	0.961585	-0.401623	-0.166787
C112	C	1.461585	0.098377	0.333213
C113	C	0.961709	-0.401411	-0.091547
C114	C	1.461709	0.098589	0.408453
H115	H	1.018071	-0.886299	-0.286299
H116	H	1.518071	-0.386299	0.213701
C117	C	0.898106	-1.014146	-0.406137
C118	C	1.398106	-0.514146	0.093863
C119	C	0.892373	-0.928559	-0.411817
C120	C	1.392373	-0.428559	0.088183
H121	H	0.867523	-1.043779	-0.436673
H122	H	1.367523	-0.543779	0.063327
H123	H	0.943006	-1.028302	-0.416665
H124	H	1.443006	-0.528302	0.083335
H125	H	0.887665	-1.028402	-0.361222
H126	H	1.387665	-0.528402	0.138778
H127	H	0.902819	-0.914302	-0.456731
H128	H	1.402819	-0.414302	0.043269
H129	H	0.847463	-0.914398	-0.401294
H130	H	1.347463	-0.414398	0.098706
H131	H	1.044202	-0.304833	-0.597039
H132	H	1.544202	0.195167	-0.097039
C133	C	1.097126	-0.242832	-0.686869
C134	C	1.597126	0.257168	-0.186869
C135	C	1.057187	-0.289605	-0.734728
C136	C	1.557187	0.210395	-0.234728
H137	H	1.128015	-0.206653	-0.709378
H138	H	1.628015	0.293347	-0.209378
H139	H	1.068961	-0.210945	-0.657988
H140	H	1.568961	0.289055	-0.157988
H141	H	1.121495	-0.279180	-0.660791
H142	H	1.621495	0.220820	-0.160791
H143	H	1.032814	-0.253257	-0.760803
H144	H	1.532814	0.246743	-0.260803
H145	H	1.085356	-0.321494	-0.763620
H146	H	1.585356	0.178506	-0.263620
C147	C	0.752006	-0.466742	-0.479536
C148	C	1.252006	0.033258	0.020464
C149	C	0.709395	-0.513700	-0.437942
C150	C	1.209395	-0.013700	0.062058
H151	H	0.774502	-0.502972	-0.510345
H152	H	1.274502	-0.002972	-0.010345
H153	H	0.725946	-0.430470	-0.503986
H154	H	1.225946	0.069530	-0.003986
H155	H	0.784478	-0.434950	-0.452484
H156	H	1.284478	0.065050	0.047516
H157	H	0.676920	-0.545488	-0.464994
H158	H	1.176920	-0.045488	0.035006
H159	H	0.735458	-0.549988	-0.413490
H160	H	1.235458	-0.049988	0.086510
H161	H	1.044251	-0.304733	-0.952796
H162	H	1.544251	0.195267	-0.452796
C163	C	1.047636	-0.300720	-1.160451
C164	C	1.547636	0.199280	-0.660451
C165	C	1.057236	-0.289492	-1.090485
C166	C	1.557236	0.210508	-0.590485
H167	H	1.078518	-0.264527	-1.182956
H168	H	1.578518	0.235473	-0.682956
H169	H	1.055216	-0.356726	-1.174330
H170	H	1.555216	0.143274	-0.674330
H171	H	1.002667	-0.288509	-1.171519
H172	H	1.502667	0.211491	-0.671519
H173	H	1.102204	-0.301709	-1.079417
H174	H	1.602204	0.198291	-0.579417
H175	H	1.049661	-0.233473	-1.076600
H176	H	1.549661	0.266527	-0.576600
H177	H	0.879149	-0.498143	-1.088925
H178	H	1.379149	0.001857	-0.588925
H179	H	0.571709	-0.498496	-0.425019
H180	H	1.071709	0.001504	0.074981
H181	H	0.879134	-0.498187	-0.960693
H182	H	1.379134	0.001813	-0.460693
C183	C	0.826193	-0.560272	-0.643329
C184	C	1.326193	-0.060272	-0.143329
C185	C	0.866121	-0.513482	-0.595472
C186	C	1.366121	-0.013482	-0.095472
H187	H	0.795320	-0.596471	-0.620820
H188	H	1.295320	-0.096471	-0.120820
H189	H	0.801811	-0.523942	-0.669401
H190	H	1.301811	-0.023942	-0.169401
H191	H	0.854372	-0.592146	-0.672216
H192	H	1.354372	-0.092146	-0.172216
H193	H	0.837943	-0.481604	-0.566588
H194	H	1.337943	0.018396	-0.066588
H195	H	0.890505	-0.549817	-0.569388
H196	H	1.390505	-0.049817	-0.069388
C197	C	0.875753	-0.502155	-0.812906
C198	C	1.375753	-0.002155	-0.312906
C199	C	0.866132	-0.513427	-0.743857
C200	C	1.366132	-0.013427	-0.243857
H201	H	0.844879	-0.538333	-0.838363
H202	H	1.344879	-0.038333	-0.338363
H203	H	0.868178	-0.446142	-0.822192
H204	H	1.368178	0.053858	-0.322192
H205	H	0.920726	-0.514361	-0.824991
H206	H	1.420726	-0.014361	-0.324991
H207	H	0.821160	-0.501216	-0.731771
H208	H	1.321160	-0.001216	-0.231771
H209	H	0.873702	-0.569453	-0.734566
H210	H	1.373702	-0.069453	-0.234566
C211	C	0.405721	-0.236088	-0.283396
C212	C	0.905721	0.263912	0.216604
C213	C	0.362846	-0.289570	-0.247346
C214	C	0.862846	0.210430	0.252654
H215	H	0.431190	-0.199853	-0.252579
H216	H	0.931190	0.300147	0.247421
H217	H	0.435576	-0.267880	-0.310429
H218	H	0.935576	0.232120	0.189571
H219	H	0.379469	-0.204251	-0.311621
H220	H	0.879469	0.295749	0.188379
H221	H	0.389098	-0.321412	-0.219124
H222	H	0.889098	0.178588	0.280876
H223	H	0.332987	-0.257775	-0.220301
H224	H	0.832987	0.242225	0.279699
C225	C	0.337319	-0.495825	-0.504297
C226	C	0.837319	0.004175	-0.004297
C227	C	0.353633	-0.513717	-0.437976
C228	C	0.853633	-0.013717	0.062024
H229	H	0.359817	-0.532047	-0.535109
H230	H	0.859817	-0.032047	-0.035109
H231	H	0.289854	-0.503473	-0.510795
H232	H	0.789854	-0.003473	-0.010795
H233	H	0.351233	-0.439821	-0.511968
H234	H	0.851233	0.060179	-0.011968
H235	H	0.339715	-0.569719	-0.430304
H236	H	0.839715	-0.069719	0.069696
H237	H	0.401109	-0.506075	-0.431476
H238	H	0.901109	-0.006075	0.068524
C239	C	0.136200	-0.502464	-0.428419
C240	C	0.636200	-0.002464	0.071581
C241	C	0.205246	-0.513733	-0.437994
C242	C	0.705246	-0.013733	0.062006
H243	H	0.110730	-0.538693	-0.459239
H244	H	0.610730	-0.038693	0.040761
H245	H	0.124094	-0.514593	-0.383430
H246	H	0.624094	-0.014593	0.116570
H247	H	0.126951	-0.446462	-0.436106
H248	H	0.626951	0.053538	0.063894
H249	H	0.214496	-0.569733	-0.430301
H250	H	0.714496	-0.069733	0.069699
H251	H	0.217356	-0.501610	-0.482993
H252	H	0.717356	-0.001610	0.017007
C253	C	0.262331	-0.242701	-0.207509
C254	C	0.762331	0.257299	0.292491
C255	C	0.214457	-0.289577	-0.247363
C256	C	0.714457	0.210423	0.252637
H257	H	0.239833	-0.206467	-0.176706
H258	H	0.739833	0.293533	0.323294
H259	H	0.288385	-0.278975	-0.183053
H260	H	0.788385	0.221025	0.316947
H261	H	0.291235	-0.210861	-0.235743
H262	H	0.791235	0.289139	0.264257
H263	H	0.185555	-0.321422	-0.219129
H264	H	0.685555	0.178578	0.280871
H265	H	0.188391	-0.253299	-0.271821
H266	H	0.688391	0.246701	0.228179
H267	H	0.579667	-0.304769	-0.260272
H268	H	1.079667	0.195231	0.239728
H269	H	0.707913	-0.304754	-0.260258
H270	H	1.207913	0.195246	0.239742
