data_functionalizedCrystal
_audit_creation_method	'MofGen! by Chris Wilmer'
_symmetry_space_group_name_H-M	'P1'
_symmetry_Int_Tables_number	1
_symmetry_cell_setting	triclinic
loop_
_symmetry_equiv_pos_as_xyz
  x,y,z
_cell_length_a	19.188879
_cell_length_b	19.188925
_cell_length_c	17.666332
_cell_angle_alpha	90.000135
_cell_angle_beta	89.982473
_cell_angle_gamma	96.866687
loop_
_atom_site_label
_atom_site_type_symbol
_atom_site_fract_x
_atom_site_fract_y
_atom_site_fract_z
O1	O	-0.087155	0.926126	0.062981
O2	O	0.246178	1.259459	0.396314
O3	O	0.579511	1.592792	0.729647
O4	O	-0.098894	0.722812	0.062981
O5	O	0.234440	1.056145	0.396314
O6	O	0.567773	1.389478	0.729648
O7	O	0.008634	0.830354	0.062957
O8	O	0.341967	1.163688	0.396290
O9	O	0.675300	1.497021	0.729624
O10	O	-0.194683	0.818583	0.063005
O11	O	0.138651	1.151916	0.396338
O12	O	0.471984	1.485250	0.729671
O13	O	0.008644	0.830357	-0.062940
O14	O	0.341978	1.163690	0.270394
O15	O	0.675311	1.497023	0.603727
O16	O	-0.098883	0.722814	-0.062916
O17	O	0.234450	1.056147	0.270418
O18	O	0.567784	1.389481	0.603751
O19	O	-0.087145	0.926128	-0.062916
O20	O	0.246189	1.259461	0.270417
O21	O	0.579522	1.592795	0.603751
Cu22	Cu	-0.093013	0.824471	-0.074411
Cu23	Cu	0.240320	1.157804	0.258922
Cu24	Cu	0.573654	1.491138	0.592255
Cu25	Cu	-0.093026	0.824468	0.074476
Cu26	Cu	0.240308	1.157802	0.407810
Cu27	Cu	0.573641	1.491135	0.741143
O28	O	-0.194672	0.818585	-0.062892
O29	O	0.138661	1.151919	0.270441
O30	O	0.471995	1.485252	0.603775
C31	C	-0.098509	0.696802	0.000032
C32	C	0.234824	1.030135	0.333366
C33	C	0.568158	1.363468	0.666699
C34	C	-0.097370	0.619297	0.000031
C35	C	0.235964	0.952631	0.333364
C36	C	0.569297	1.285964	0.666698
C37	C	-0.152835	0.057517	0.000046
C38	C	0.180498	0.390850	0.333379
C39	C	0.513832	0.724184	0.666712
C40	C	-0.153912	0.130340	0.000050
C41	C	0.179422	0.463673	0.333383
C42	C	0.512755	0.797007	0.666717
C43	C	-0.090818	0.175286	0.000034
C44	C	0.242515	0.508619	0.333367
C45	C	0.575849	0.841953	0.666701
C46	C	-0.026643	0.147403	0.000033
C47	C	0.306690	0.480737	0.333366
C48	C	0.640024	0.814070	0.666700
C49	C	-0.025568	0.074582	0.000036
C50	C	0.307765	0.407915	0.333370
C51	C	0.641098	0.741248	0.666703
N52	N	-0.045137	0.295972	-0.042833
N53	N	0.288196	0.629305	0.290501
N54	N	0.621530	0.962639	0.623834
N55	N	-0.046162	0.365149	-0.042837
N56	N	0.287171	0.698483	0.290496
N57	N	0.620504	1.031816	0.623829
C58	C	-0.094052	0.394694	0.000026
C59	C	0.239281	0.728028	0.333359
C60	C	0.572615	1.061361	0.666693
N61	N	-0.140889	0.352448	0.042885
N62	N	0.192445	0.685781	0.376218
N63	N	0.525778	1.019114	0.709551
N64	N	-0.139865	0.283264	0.042886
N65	N	0.193468	0.616597	0.376219
N66	N	0.526801	0.949931	0.709553
C67	C	-0.091976	0.254250	0.000031
C68	C	0.241357	0.587583	0.333364
C69	C	0.574690	0.920917	0.666698
C70	C	-0.159390	0.501532	0.000037
C71	C	0.173943	0.834865	0.333370
C72	C	0.507276	1.168198	0.666704
C73	C	-0.160464	0.574356	0.000046
C74	C	0.172869	0.907690	0.333379
C75	C	0.506203	1.241023	0.666713
C76	C	-0.033194	0.591419	0.000021
C77	C	0.300140	0.924752	0.333355
C78	C	0.633473	1.258085	0.666688
C79	C	-0.032122	0.518595	0.000020
C80	C	0.301212	0.851928	0.333353
C81	C	0.634545	1.185262	0.666686
C82	C	-0.095222	0.473656	0.000024
C83	C	0.238111	0.806989	0.333357
C84	C	0.571445	1.140322	0.666691
C85	C	-0.220689	0.818959	0.000062
C86	C	0.112644	1.152293	0.333396
C87	C	0.445978	1.485626	0.666729
C88	C	-0.298195	0.820086	0.000081
C89	C	0.035138	1.153419	0.333414
C90	C	0.368471	1.486753	0.666747
C91	C	-0.334572	0.820634	-0.068549
C92	C	-0.001239	1.153967	0.264784
C93	C	0.332095	1.487301	0.598117
C94	C	-0.407395	0.821712	-0.068563
C95	C	-0.074062	1.155045	0.264771
C96	C	0.259272	1.488378	0.598104
C97	C	-0.443837	0.822255	0.000058
C98	C	-0.110503	1.155589	0.333392
C99	C	0.222830	1.488922	0.666725
C100	C	-0.407452	0.821703	0.068698
C101	C	-0.074119	1.155037	0.402031
C102	C	0.259215	1.488370	0.735364
C103	C	-0.334631	0.820619	0.068709
C104	C	-0.001298	1.153952	0.402042
C105	C	0.332035	1.487285	0.735375
N106	N	-0.552860	0.863691	0.051121
N107	N	-0.219527	1.197024	0.384455
N108	N	0.113807	1.530358	0.717788
N109	N	-0.622037	0.864723	0.051106
N110	N	-0.288703	1.198056	0.384439
N111	N	0.044630	1.531390	0.717773
C112	C	-0.663241	0.825522	0.000029
C113	C	-0.329908	1.158855	0.333362
C114	C	0.003425	1.492189	0.666695
N115	N	-0.632656	0.785259	-0.051044
N116	N	-0.299322	1.118592	0.282289
N117	N	0.034011	1.451926	0.615622
N118	N	-0.563472	0.784230	-0.051031
N119	N	-0.230139	1.117564	0.282302
N120	N	0.103194	1.450897	0.615635
C121	C	-0.522799	0.823431	0.000054
C122	C	-0.189465	1.156764	0.333387
C123	C	0.143868	1.490098	0.666720
C124	C	-0.778581	0.827238	-0.068620
C125	C	-0.445248	1.160571	0.264713
C126	C	-0.111914	1.493904	0.598046
C127	C	-0.851406	0.828311	-0.068631
C128	C	-0.518073	1.161644	0.264703
C129	C	-0.184739	1.494978	0.598036
C130	C	-0.851461	0.828310	0.068631
C131	C	-0.518127	1.161643	0.401965
C132	C	-0.184794	1.494976	0.735298
C133	C	-0.778638	0.827229	0.068640
C134	C	-0.445305	1.160563	0.401973
C135	C	-0.111971	1.493896	0.735306
C136	C	-0.742202	0.826697	0.000012
C137	C	-0.408869	1.160030	0.333345
C138	C	-0.075536	1.493363	0.666678
C139	C	0.034651	0.829980	0.000004
C140	C	0.367984	1.163313	0.333338
C141	C	0.701317	1.496647	0.666671
C142	C	0.112157	0.828854	-0.000009
C143	C	0.445490	1.162187	0.333324
C144	C	0.778824	1.495520	0.666658
C145	C	-0.087529	0.952138	0.000034
C146	C	0.245804	1.285471	0.333368
C147	C	0.579137	1.618804	0.666701
C148	C	-0.088669	1.029642	0.000041
C149	C	0.244665	1.362976	0.333374
C150	C	0.577998	1.696309	0.666707
N151	N	-0.093029	0.824467	0.179196
N152	N	0.240304	1.157800	0.512529
N153	N	0.573637	1.491133	0.845862
N154	N	-0.093003	0.824478	-0.179131
N155	N	0.240330	1.157812	0.154203
N156	N	0.573663	1.491145	0.487536
C157	C	-0.045509	0.872171	0.218795
C158	C	0.287824	1.205505	0.552128
C159	C	0.621158	1.538838	0.885462
C160	C	-0.045508	0.872177	0.298043
C161	C	0.287826	1.205511	0.631376
C162	C	0.621159	1.538844	0.964709
C163	C	-0.093020	0.824467	0.337688
C164	C	0.240313	1.157801	0.671021
C165	C	0.573646	1.491134	1.004354
C166	C	-0.140550	0.776759	0.298079
C167	C	0.192784	1.110092	0.631412
C168	C	0.526117	1.443426	0.964746
C169	C	-0.140554	0.776759	0.218833
C170	C	0.192779	1.110092	0.552166
C171	C	0.526112	1.443426	0.885500
N172	N	-0.101948	0.762658	0.462115
N173	N	0.231385	1.095992	0.795448
N174	N	0.564719	1.429325	1.128781
N175	N	-0.101940	0.762661	0.537395
N176	N	0.231394	1.095994	0.870728
N177	N	0.564727	1.429327	1.204062
C178	C	-0.093010	0.824466	0.576452
C179	C	0.240323	1.157799	0.909785
C180	C	0.573656	1.491133	1.243119
N181	N	-0.084076	0.886271	0.537384
N182	N	0.249257	1.219604	0.870718
N183	N	0.582590	1.552937	1.204051
N184	N	-0.084081	0.886268	0.462097
N185	N	0.249252	1.219601	0.795430
N186	N	0.582585	1.552934	1.128763
C187	C	-0.093021	0.824462	0.423617
C188	C	0.240312	1.157796	0.756950
C189	C	0.573646	1.491129	1.090284
C190	C	-0.045486	0.872181	0.701980
C191	C	0.287847	1.205514	1.035314
C192	C	0.621181	1.538848	1.368647
C193	C	-0.045490	0.872188	0.781229
C194	C	0.287844	1.205522	1.114563
C195	C	0.621177	1.538855	1.447896
C196	C	-0.140528	0.776764	0.781264
C197	C	0.192805	1.110097	1.114598
C198	C	0.526138	1.443430	1.447931
C199	C	-0.140528	0.776763	0.702017
C200	C	0.192805	1.110096	1.035350
C201	C	0.526139	1.443429	1.368684
C202	C	-0.093003	0.824471	0.662380
C203	C	0.240330	1.157804	0.995713
C204	C	0.573664	1.491137	1.329046
H205	H	-0.210770	0.464940	0.000042
H206	H	0.122563	0.798273	0.333375
H207	H	0.455896	1.131606	0.666708
H208	H	-0.006810	0.911026	0.330290
H209	H	0.326524	1.244359	0.663623
H210	H	0.659857	1.577692	0.996957
H211	H	-0.179252	0.737911	0.186591
H212	H	0.154081	1.071245	0.519924
H213	H	0.487415	1.404578	0.853257
F214	F	-0.191118	0.725984	0.340273
F215	F	0.142215	1.059318	0.673606
F216	F	0.475548	1.392651	1.006939
H217	H	-0.748914	0.826798	-0.124502
H218	H	-0.415581	1.160131	0.208832
H219	H	-0.082248	1.493465	0.542165
F220	F	0.033956	0.639249	0.000014
F221	F	0.367289	0.972582	0.333347
F222	F	0.700623	1.305915	0.666680
F223	F	-0.219993	0.009693	0.000058
F224	F	0.113341	0.343026	0.333391
F225	F	0.446674	0.676360	0.666725
H226	H	-0.437020	0.822145	-0.124451
H227	H	-0.103687	1.155478	0.208882
H228	H	0.229646	1.488812	0.542215
F229	F	0.005091	0.922959	0.659795
F230	F	0.338425	1.256292	0.993128
F231	F	0.671758	1.589625	1.326461
H232	H	-0.749019	0.826788	0.124526
H233	H	-0.415686	1.160121	0.457859
H234	H	-0.082353	1.493454	0.791193
F235	F	-0.191099	0.725991	0.823454
F236	F	0.142234	1.059325	1.156787
F237	F	0.475568	1.392658	1.490121
F238	F	-0.890122	0.828883	-0.141681
F239	F	-0.556789	1.162217	0.191653
F240	F	-0.223455	1.495550	0.524986
H241	H	-0.881132	0.828744	0.124504
H242	H	-0.547799	1.162077	0.457837
H243	H	-0.214465	1.495411	0.791171
F244	F	0.005086	0.922968	0.823376
F245	F	0.338420	1.256301	1.156709
F246	F	0.671753	1.589634	1.490042
F247	F	-0.446236	0.822284	0.141729
F248	F	-0.112903	1.155618	0.475062
F249	F	0.220430	1.488951	0.808395
H250	H	-0.179221	0.737914	0.669773
H251	H	0.154112	1.071248	1.003106
H252	H	0.487446	1.404581	1.336440
H253	H	-0.006813	0.911019	0.186525
H254	H	0.326520	1.244353	0.519858
H255	H	0.659854	1.577686	0.853191
H256	H	-0.304911	0.820200	-0.124432
H257	H	0.028423	1.153533	0.208902
H258	H	0.361756	1.486866	0.542235
F259	F	0.036174	0.488928	0.000016
F260	F	0.369507	0.822261	0.333349
F261	F	0.702841	1.155595	0.666683
F262	F	-0.222209	0.160013	0.000055
F263	F	0.111124	0.493347	0.333388
F264	F	0.444458	0.826680	0.666721
H265	H	0.024728	0.184003	0.000022
H266	H	0.358062	0.517337	0.333355
H267	H	0.691395	0.850670	0.666689
F268	F	-0.295915	0.820036	0.141758
F269	F	0.037418	1.153369	0.475091
F270	F	0.370751	1.486702	0.808424
H271	H	0.026685	0.051888	0.000032
H272	H	0.360019	0.385221	0.333365
H273	H	0.693352	0.718554	0.666699
H274	H	-0.212718	0.597049	0.000057
H275	H	0.120615	0.930383	0.333390
H276	H	0.453948	1.263716	0.666723
