data_functionalizedCrystal
_audit_creation_method	'MofGen! by Chris Wilmer'
_symmetry_space_group_name_H-M	'P1'
_symmetry_Int_Tables_number	1
_symmetry_cell_setting	triclinic
loop_
_symmetry_equiv_pos_as_xyz
  x,y,z
_cell_length_a	16.992694
_cell_length_b	26.809956
_cell_length_c	16.992700
_cell_angle_alpha	89.997521
_cell_angle_beta	89.332302
_cell_angle_gamma	90.003736
loop_
_atom_site_label
_atom_site_type_symbol
_atom_site_fract_x
_atom_site_fract_y
_atom_site_fract_z
O1	O	1.050855	0.041430	-0.166906
O2	O	0.822455	0.041445	-0.165075
O3	O	0.935740	0.041425	-0.051790
O4	O	0.937569	0.041450	-0.280190
O5	O	0.935718	-0.041534	-0.051807
O6	O	0.822433	-0.041514	-0.165092
O7	O	1.050833	-0.041529	-0.166923
Zn8	Zn	0.936629	-0.054693	-0.166010
Zn9	Zn	0.936658	0.054609	-0.165988
O10	O	0.937547	-0.041509	-0.280207
C11	C	0.793084	-0.000033	-0.162727
C12	C	0.705599	-0.000028	-0.155699
N13	N	0.936616	-0.129289	-0.166025
C14	C	0.659608	-0.000021	-0.223517
C15	C	0.577407	-0.000029	-0.216908
C16	C	0.541199	-0.000040	-0.142480
C17	C	0.587197	-0.000048	-0.074657
C18	C	0.669396	-0.000044	-0.081267
C19	C	0.295885	-0.000056	-0.115086
C20	C	0.213680	-0.000059	-0.108481
C21	C	0.203896	-0.000040	-0.250732
C22	C	0.286097	-0.000033	-0.257335
C23	C	0.332087	-0.000044	-0.189512
N24	N	0.457177	-0.000046	-0.135723
N25	N	0.416108	-0.000041	-0.196270
C26	C	0.986815	-0.473924	-0.115838
C27	C	0.986833	-0.682802	-0.115827
O28	O	1.029482	-0.709813	-0.073159
N29	N	0.936661	-0.708916	-0.165970
C30	C	0.886478	-0.682808	-0.216116
O31	O	0.843799	-0.709813	-0.258760
C32	C	0.886457	-0.473932	-0.216123
C33	C	0.936637	-0.447820	-0.165982
C34	C	1.036990	-0.447812	-0.065701
C35	C	1.036989	-0.395596	-0.065707
C36	C	0.986811	-0.369491	-0.115851
C37	C	0.936635	-0.395603	-0.165988
C38	C	0.836270	-0.447824	-0.266264
C39	C	0.836268	-0.395602	-0.266259
C40	C	0.886448	-0.369490	-0.216119
C41	C	0.886456	-0.317283	-0.216138
N42	N	0.936627	-0.291168	-0.165995
C43	C	0.986805	-0.317273	-0.115851
C44	C	0.886494	-0.792472	-0.216111
C45	C	0.886500	-0.844691	-0.216110
C46	C	0.986854	-0.844680	-0.115820
C47	C	0.986851	-0.792461	-0.115825
C48	C	0.936665	-0.766357	-0.165967
C49	C	0.986797	-0.207615	-0.115868
C50	C	0.986793	-0.155394	-0.115881
C51	C	0.886437	-0.155408	-0.216168
C52	C	0.886444	-0.207625	-0.216159
C53	C	0.936626	-0.233726	-0.166002
O54	O	0.843822	-0.290239	-0.258777
O55	O	1.029465	-0.290259	-0.073201
C56	C	0.986817	-0.526140	-0.115832
C57	C	0.936641	-0.552252	-0.165969
C58	C	0.886463	-0.526148	-0.216113
C59	C	0.936647	-0.604471	-0.165969
C60	C	0.986825	-0.630576	-0.115825
C61	C	1.036996	-0.604461	-0.065682
C62	C	1.036994	-0.552245	-0.065688
C63	C	0.836292	-0.552262	-0.266256
C64	C	0.836298	-0.604479	-0.266246
C65	C	0.886476	-0.630583	-0.216103
C66	C	1.080204	-0.000050	-0.169270
C67	C	1.167688	-0.000052	-0.176299
C68	C	0.933374	-0.000057	-0.022439
C69	C	0.926346	-0.000063	0.065046
N70	N	0.936678	0.129205	-0.165967
C71	C	0.939914	-0.000026	-0.309559
C72	C	0.946942	-0.000017	-0.397043
C73	C	0.879124	-0.000014	0.556965
C74	C	0.885734	-0.000020	0.474764
C75	C	0.960162	-0.000031	0.438557
C76	C	1.027984	-0.000032	0.484555
C77	C	1.021374	-0.000023	0.566754
C78	C	0.987558	-0.000055	0.193243
C79	C	0.994163	-0.000065	0.111038
C80	C	0.851912	-0.000052	0.101253
C81	C	0.845308	-0.000046	0.183454
C82	C	0.913131	-0.000045	0.229445
N83	N	0.966919	-0.000038	0.354535
N84	N	0.906372	-0.000034	0.313465
H85	H	0.689081	-0.000012	-0.284123
Br86	Br	0.164541	-0.000084	-0.007465
Br87	Br	0.744295	-0.000030	0.232586
H88	H	0.795437	-0.625735	-0.307084
Br89	Br	0.358291	-0.000073	-0.023039
H90	H	0.818517	-0.000011	0.586438
Br91	Br	1.054903	-0.243030	-0.047798
H92	H	0.796695	-0.000052	0.063798
H93	H	0.830509	-0.000016	0.437320
Br94	Br	1.113416	-0.000022	0.629173
H95	H	1.027712	-0.771203	-0.074995
Br96	Br	1.105096	-0.483231	0.002362
H97	H	0.315571	-0.000018	-0.317942
Br98	Br	1.095179	-0.000098	0.061900
Br99	Br	0.514992	-0.000017	-0.308951
Br100	Br	1.079604	-0.000057	0.255649
H101	H	1.088585	-0.000043	0.455069
H102	H	1.027659	-0.134135	-0.075051
H103	H	0.166442	-0.000032	-0.305950
H104	H	0.557710	-0.000065	-0.014056
Br105	Br	0.731814	-0.000058	0.010776
H106	H	1.077847	-0.374339	-0.024876
H107	H	0.845647	-0.865947	-0.256948
Br108	Br	1.054952	-0.880118	-0.047769
Br109	Br	0.768151	-0.360179	-0.334311
Br110	Br	0.768165	-0.483251	-0.334315
Br111	Br	0.818351	-0.243061	-0.284220
Br112	Br	0.818380	-0.757051	-0.284168
H113	H	1.077856	-0.625724	-0.024856
Br114	Br	0.818343	-0.119973	-0.284221
H115	H	0.795430	-0.531012	-0.307088
H116	H	1.077856	-0.530988	-0.024859
