data_functionalizedCrystal
_audit_creation_method	'MofGen! by Chris Wilmer'
_symmetry_space_group_name_H-M	'P1'
_symmetry_Int_Tables_number	1
_symmetry_cell_setting	triclinic
loop_
_symmetry_equiv_pos_as_xyz
  x,y,z
_cell_length_a	11.026644
_cell_length_b	10.065875
_cell_length_c	14.853576
_cell_angle_alpha	81.214094
_cell_angle_beta	96.111316
_cell_angle_gamma	100.713683
loop_
_atom_site_label
_atom_site_type_symbol
_atom_site_fract_x
_atom_site_fract_y
_atom_site_fract_z
O1	O	-1.593017	0.113519	-0.387944
O2	O	-1.239639	0.113516	-0.344948
O3	O	-1.425763	0.113512	-0.236738
O4	O	-1.406894	0.113523	-0.496154
O5	O	-1.461319	-0.113477	-0.216057
O6	O	-1.275195	-0.113474	-0.324267
O7	O	-1.628573	-0.113470	-0.367263
Zn8	Zn	-1.457530	-0.149511	-0.342481
Zn9	Zn	-1.410683	0.149557	-0.369730
O10	O	-1.442450	-0.113467	-0.475472
C11	C	-1.212193	0.000020	-0.326675
C12	C	-1.077439	0.000019	-0.303029
C13	C	-0.864469	0.000022	-0.343892
C14	C	-1.003745	0.000022	-0.368333
N15	N	-1.489510	-0.353618	-0.323885
C16	C	-1.442684	0.000019	-0.192671
C17	C	-1.440116	0.000024	-0.092174
C18	C	-0.656020	0.000025	-0.385537
C19	C	-0.790773	0.000025	-0.409186
N20	N	-1.378712	0.353663	-0.388320
C21	C	-1.446414	0.421441	-0.348956
C22	C	-1.421799	0.578608	-0.363255
C23	C	-1.425528	0.000030	-0.519540
C24	C	-1.428095	0.000034	-0.620038
C25	C	-1.419525	0.123762	-0.056238
C26	C	-1.458304	-0.123711	-0.033679
C27	C	-1.455898	-0.123711	0.060743
C28	C	-1.435307	0.000027	0.096679
C29	C	-1.417122	0.123765	0.038192
C30	C	-1.474095	-0.247447	0.119236
C31	C	-1.471691	-0.247452	0.213664
C32	C	-1.451091	-0.123713	0.249602
C33	C	-1.432904	0.000031	0.191109
C34	C	-1.412313	0.123769	0.227045
C35	C	-1.394117	0.247513	0.168555
C36	C	-1.396522	0.247505	0.074130
C37	C	-1.448686	-0.123704	0.344026
C38	C	-1.409910	0.123772	0.321476
H39	H	-1.043755	0.000017	-0.442332
H40	H	-1.565704	0.588060	-0.279599
H41	H	-0.824457	-0.000002	-0.269894
H42	H	-1.302532	0.411991	-0.432611
H43	H	-1.404706	0.224512	-0.103865
H44	H	-1.037417	0.000106	-0.229036
H45	H	-1.377360	0.348261	0.197825
H46	H	-0.830790	0.000020	-0.483181
H47	H	-1.522603	0.363115	-0.304673
H48	H	-1.345613	0.636931	-0.407549
H49	H	-1.393134	0.224536	0.350727
H50	H	-1.381713	0.348251	0.026499
H51	H	-1.475077	-0.224453	-0.062945
H52	H	-1.490868	-0.348188	0.089969
H53	H	-1.486506	-0.348213	0.261280
H54	H	-1.463505	-0.224455	0.391645
