data_functionalizedCrystal
_audit_creation_method	'MofGen! by Chris Wilmer'
_symmetry_space_group_name_H-M	'P1'
_symmetry_Int_Tables_number	1
_symmetry_cell_setting	triclinic
loop_
_symmetry_equiv_pos_as_xyz
  x,y,z
_cell_length_a	10.685980
_cell_length_b	16.120531
_cell_length_c	10.686551
_cell_angle_alpha	91.295135
_cell_angle_beta	81.591741
_cell_angle_gamma	82.492862
loop_
_atom_site_label
_atom_site_type_symbol
_atom_site_fract_x
_atom_site_fract_y
_atom_site_fract_z
Zn1	Zn	1.982379	0.186870	-0.879971
Zn2	Zn	1.955119	0.337907	-0.678431
Zn3	Zn	1.752141	0.210075	-0.653083
Zn4	Zn	1.759249	0.337826	-0.874335
O5	O	1.862222	0.268169	-0.771455
O6	O	2.157091	0.197228	-0.866203
O7	O	1.913811	0.330695	-0.498128
O8	O	1.791117	0.090323	-0.674931
O9	O	2.137063	0.308194	-0.718132
O10	O	1.960272	0.073274	-0.841624
O11	O	1.764684	0.236777	-0.479505
O12	O	1.574756	0.236698	-0.669466
O13	O	1.803230	0.308056	-1.052023
O14	O	1.579978	0.330557	-0.832019
O15	O	1.967163	0.197150	-1.056164
O16	O	1.920702	0.454570	-0.712667
O17	O	1.776797	0.454511	-0.856598
C18	C	1.531129	0.286137	-0.747381
C19	C	1.389486	0.293843	-0.737113
C20	C	1.846600	0.484789	-0.786802
C21	C	1.840036	0.577452	-0.793418
C22	C	1.828063	0.747105	-0.805523
C23	C	1.896423	0.788395	-0.737318
C24	C	1.889761	0.882796	-0.744054
C25	C	1.834723	0.652695	-0.798789
C26	C	2.194608	0.250132	-0.795624
C27	C	2.336252	0.242445	-0.805923
C28	C	1.889030	0.250006	-1.101255
C29	C	1.900455	0.242265	-1.241796
C30	C	1.877895	1.050704	-0.756052
C31	C	1.884453	0.958043	-0.749421
C32	C	1.835596	0.286199	-0.442939
C33	C	1.824435	0.293691	-0.302400
H34	H	1.399036	0.192543	-0.872686
H35	H	1.974288	0.192316	-1.297435
H36	H	1.959951	0.752847	-0.673867
H37	H	1.326695	0.343744	-0.670337
Br38	Br	1.722182	0.806350	-0.911273
Br39	Br	1.701394	0.376952	-1.209682
