data_functionalizedCrystal
_audit_creation_method	'MofGen! by Chris Wilmer'
_symmetry_space_group_name_H-M	'P1'
_symmetry_Int_Tables_number	1
_symmetry_cell_setting	triclinic
loop_
_symmetry_equiv_pos_as_xyz
  x,y,z
_cell_length_a	12.645331
_cell_length_b	12.645330
_cell_length_c	15.297022
_cell_angle_alpha	80.317097
_cell_angle_beta	99.698746
_cell_angle_gamma	90.012599
loop_
_atom_site_label
_atom_site_type_symbol
_atom_site_fract_x
_atom_site_fract_y
_atom_site_fract_z
Zn1	Zn	1.516579	-0.318509	-0.510197
Zn2	Zn	1.547287	-0.526408	-0.359326
Zn3	Zn	1.370103	-0.349158	-0.359331
Zn4	Zn	1.339300	-0.495740	-0.510156
O5	O	1.443317	-0.422454	-0.434753
O6	O	1.668997	-0.346095	-0.490198
O7	O	1.549526	-0.528557	-0.233066
O8	O	1.389573	-0.196741	-0.379363
O9	O	1.691558	-0.498837	-0.379354
O10	O	1.497188	-0.174223	-0.490203
O11	O	1.419350	-0.398332	-0.233070
O12	O	1.217673	-0.368595	-0.379324
O13	O	1.337073	-0.446568	-0.636422
O14	O	1.195042	-0.476287	-0.490134
O15	O	1.467319	-0.316357	-0.636452
O16	O	1.519658	-0.670691	-0.379315
O17	O	1.366850	-0.648159	-0.490129
C18	C	1.167893	-0.422440	-0.434726
C19	C	1.050061	-0.422455	-0.434736
C20	C	1.019357	-0.354555	-0.365139
C21	C	0.896749	-0.354204	-0.365377
C22	C	0.862778	-0.373338	-0.529983
C23	C	0.985464	-0.372813	-0.529548
C24	C	1.009911	-0.539535	-0.409985
C25	C	0.887724	-0.539368	-0.407921
C26	C	1.443269	-0.697886	-0.434737
C27	C	1.443339	-0.815712	-0.434760
C28	C	1.539551	-0.874712	-0.365107
C29	C	1.539414	-0.997322	-0.364858
C30	C	1.336840	-0.988903	-0.409209
C31	C	1.337370	-0.866413	-0.408678
C32	C	1.452713	-0.841429	-0.530192
C33	C	1.455330	-0.964132	-0.529708
C34	C	1.719817	-0.422468	-0.434780
C35	C	1.837645	-0.422474	-0.434791
C36	C	1.395335	-0.374623	-0.670091
C37	C	1.374888	-0.354240	-0.770378
C38	C	1.443391	-0.145941	-0.434788
C39	C	1.443422	-0.028108	-0.434803
C40	C	1.491174	-0.470022	-0.200330
C41	C	1.511826	-0.490106	-0.100043
C42	C	1.589805	-0.566860	-0.052886
C43	C	1.609200	-0.585743	0.041339
C44	C	1.550624	-0.527869	0.088414
C45	C	1.472649	-0.451108	0.041256
C46	C	1.453246	-0.432228	-0.052977
C47	C	1.414065	-0.393238	0.088323
C48	C	1.336090	-0.316477	0.041165
C49	C	1.316691	-0.297600	-0.053059
C50	C	1.375267	-0.355474	-0.100135
C51	C	1.433468	-0.412117	0.182556
C52	C	1.296909	-0.277486	0.182464
C53	C	1.277514	-0.258602	0.088240
H54	H	0.822799	-0.420447	-0.583279
O55	O	1.367276	-0.989981	-0.602129
H56	H	1.378089	-0.943516	-0.668193
O57	O	1.693298	-0.668530	0.092195
H58	H	1.696940	-0.671945	0.165626
H59	H	1.566419	-0.543250	0.165136
H60	H	1.063223	-0.387314	-0.294328
O61	O	1.359611	-0.789030	-0.598957
H62	H	1.283184	-0.820259	-0.579817
H63	H	1.264275	-0.826887	-0.457218
O64	O	1.233736	-0.215045	0.233228
H65	H	1.146974	-0.230238	0.215325
H66	H	0.827741	-0.288029	-0.551278
O67	O	1.055793	-0.240830	-0.386611
H68	H	1.095670	-0.232455	-0.446640
H69	H	1.359482	-0.340101	-0.176860
O70	O	1.069244	-0.593955	-0.319563
H71	H	1.128019	-0.538153	-0.291251
H72	H	1.253189	-0.235106	-0.091453
O73	O	1.533232	-1.055281	-0.271212
H74	H	1.533123	-1.143157	-0.270705
H75	H	1.214025	-0.196103	0.049831
H76	H	1.009802	-0.286671	-0.550469
H77	H	0.864075	-0.267843	-0.381814
O78	O	0.875899	-0.397799	-0.271898
H79	H	0.953500	-0.419321	-0.226112
O80	O	1.652965	-0.629280	-0.103663
H81	H	1.710442	-0.685833	-0.055045
O82	O	1.010333	-0.434107	-0.600616
H83	H	0.934757	-0.463985	-0.635147
H84	H	0.872895	-0.576078	-0.337864
H85	H	1.028604	-0.590353	-0.460677
O86	O	0.834521	-0.611996	-0.470139
H87	H	0.771277	-0.565702	-0.521419
O88	O	1.644892	-1.032795	-0.386040
H89	H	1.711583	-1.013855	-0.334385
O90	O	1.645403	-0.831309	-0.386001
H91	H	1.630575	-0.767219	-0.446250
H92	H	1.535017	-0.858240	-0.294800
O93	O	1.322626	-1.048207	-0.317842
H94	H	1.246994	-1.019791	-0.300494
O95	O	1.323911	-0.847374	-0.316283
H96	H	1.317091	-0.925569	-0.272400
H97	H	1.264069	-1.008059	-0.458394
H98	H	1.528065	-0.805697	-0.553516
H99	H	1.496962	-0.474611	0.220943
H100	H	1.533670	-0.989225	-0.549011
