data_functionalizedCrystal
_audit_creation_method	'MofGen! by Chris Wilmer'
_symmetry_space_group_name_H-M	'P1'
_symmetry_Int_Tables_number	1
_symmetry_cell_setting	triclinic
loop_
_symmetry_equiv_pos_as_xyz
  x,y,z
_cell_length_a	15.944551
_cell_length_b	10.654550
_cell_length_c	9.130313
_cell_angle_alpha	90.000276
_cell_angle_beta	89.994529
_cell_angle_gamma	96.008166
loop_
_atom_site_label
_atom_site_type_symbol
_atom_site_fract_x
_atom_site_fract_y
_atom_site_fract_z
O1	O	0.117977	-1.666313	-0.121694
O2	O	0.617977	-1.166313	0.378306
O3	O	0.129217	-1.300689	-0.121721
O4	O	0.629217	-0.800689	0.378279
O5	O	0.001379	-1.493485	-0.121693
O6	O	0.501379	-0.993485	0.378307
O7	O	0.245814	-1.473517	-0.121721
O8	O	0.745814	-0.973517	0.378279
O9	O	0.001376	-1.493472	0.121906
O10	O	0.501376	-0.993472	0.621906
O11	O	0.129213	-1.300676	0.121878
O12	O	0.629213	-0.800676	0.621878
O13	O	0.117973	-1.666300	0.121905
O14	O	0.617973	-1.166300	0.621905
Cu15	Cu	0.123592	-1.483487	0.144134
Cu16	Cu	0.623592	-0.983487	0.644134
Cu17	Cu	0.123597	-1.483502	-0.143950
Cu18	Cu	0.623597	-0.983502	0.356050
O19	O	0.245810	-1.473503	0.121878
O20	O	0.745810	-0.973503	0.621878
C21	C	0.128389	-1.253895	0.000075
C22	C	0.628389	-0.753895	0.500075
C23	C	0.125920	-1.114484	0.000065
C24	C	0.625920	-0.614484	0.500065
C25	C	-0.029921	-1.492650	0.000106
C26	C	0.470079	-0.992650	0.500106
C27	C	-0.123182	-1.490165	0.000107
C28	C	0.376818	-0.990165	0.500107
N29	N	0.123589	-1.483485	0.346757
N30	N	0.623589	-0.983485	0.846757
C31	C	-0.338764	-1.364720	0.000077
C32	C	0.161236	-0.864720	0.500077
C33	C	-0.399446	-1.422966	0.120191
C34	C	0.100554	-0.922966	0.620191
C35	C	-0.293933	-1.485668	0.000095
C36	C	0.206067	-0.985668	0.500095
C37	C	-0.399426	-1.423007	-0.119979
C38	C	0.100574	-0.923007	0.380021
C39	C	-0.458871	-1.481317	0.000078
C40	C	0.041129	-0.981317	0.500078
C41	C	-0.353387	-1.543947	0.120308
C42	C	0.146613	-1.043947	0.620308
C43	C	-0.353360	-1.543972	-0.119969
C44	C	0.146640	-1.043972	0.380031
C45	C	-0.414024	-1.602306	0.000173
C46	C	0.085976	-1.102306	0.500173
C47	C	-0.198917	-1.488172	0.000107
C48	C	0.301083	-0.988172	0.500107
C49	C	-0.553887	-1.478822	0.000077
C50	C	-0.053887	-0.978822	0.500077
C51	C	0.277110	-1.474339	0.000075
C52	C	0.777110	-0.974339	0.500075
C53	C	0.370371	-1.476824	0.000065
C54	C	0.870371	-0.976824	0.500065
C55	C	0.118800	-1.713094	0.000106
C56	C	0.618800	-1.213094	0.500106
C57	C	0.121269	-1.852505	0.000106
C58	C	0.621269	-1.352505	0.500106
C59	C	0.201189	-1.034024	0.000061
C60	C	0.701189	-0.534024	0.500061
C61	C	0.198863	-0.903034	0.000087
C62	C	0.698863	-0.403034	0.500087
C63	C	0.045995	-0.932975	0.000115
C64	C	0.545995	-0.432975	0.500115
C65	C	0.048321	-1.063963	0.000100
C66	C	0.548321	-0.563963	0.500100
N67	N	0.123594	-1.483514	-0.346572
N68	N	0.623594	-0.983514	0.153428
C69	C	0.067007	-1.568884	0.423421
C70	C	0.567007	-1.068884	0.923421
C71	C	0.067007	-1.568896	0.576758
C72	C	0.567007	-1.068896	1.076758
C73	C	0.180179	-1.398106	0.576753
C74	C	0.680179	-0.898106	1.076753
C75	C	0.180174	-1.398089	0.423419
C76	C	0.680174	-0.898089	0.923419
H77	H	-0.306038	-1.264327	0.000190
H78	H	0.193962	-0.764327	0.500190
Br79	Br	-0.433457	-1.337699	0.289433
Br80	Br	0.066543	-0.837699	0.789433
H81	H	-0.333102	-1.595055	0.221966
H82	H	0.166898	-1.095055	0.721966
Br83	Br	-0.468324	-1.769778	0.000288
Br84	Br	0.031676	-1.269778	0.500288
H85	H	-0.332933	-1.595090	-0.221513
H86	H	0.167067	-1.095090	0.278487
H87	H	0.226250	-1.328580	0.639186
H88	H	0.726250	-0.828580	1.139186
H89	H	0.260155	-0.837528	0.000086
H90	H	0.760155	-0.337528	0.500086
Br91	Br	-0.009790	-1.684792	0.680799
Br92	Br	0.490210	-1.184792	1.180799
Br93	Br	-0.059313	-0.864402	0.000156
Br94	Br	0.440687	-0.364402	0.500156
Br95	Br	-0.009789	-1.684775	0.319385
Br96	Br	0.490211	-1.184775	0.819385
Br97	Br	0.256963	-1.282173	0.319362
Br98	Br	0.756963	-0.782173	0.819362
H99	H	-0.419797	-1.371841	-0.221532
H100	H	0.080203	-0.871841	0.278468
H101	H	0.264375	-1.075154	0.000044
H102	H	0.764375	-0.575154	0.500044
Br103	Br	-0.053837	-1.173168	0.000124
Br104	Br	0.446163	-0.673168	0.500124
