data_functionalizedCrystal
_audit_creation_method	'MofGen! by Chris Wilmer'
_symmetry_space_group_name_H-M	'P1'
_symmetry_Int_Tables_number	1
_symmetry_cell_setting	triclinic
loop_
_symmetry_equiv_pos_as_xyz
  x,y,z
_cell_length_a	15.995300
_cell_length_b	15.995350
_cell_length_c	8.140239
_cell_angle_alpha	89.999087
_cell_angle_beta	90.003055
_cell_angle_gamma	96.517909
loop_
_atom_site_label
_atom_site_type_symbol
_atom_site_fract_x
_atom_site_fract_y
_atom_site_fract_z
O1	O	1.111008	-0.107724	0.136665
O2	O	0.867227	-0.121096	0.136654
O3	O	0.995782	0.007479	0.136659
O4	O	0.982454	-0.236299	0.136661
O5	O	0.995778	0.007480	-0.136568
O6	O	0.867223	-0.121095	-0.136573
O7	O	1.111004	-0.107723	-0.136562
Zn8	Zn	0.989113	-0.114409	-0.179948
Zn9	Zn	0.989118	-0.114410	0.180041
O10	O	0.982450	-0.236298	-0.136566
C11	C	0.836030	-0.120550	0.000040
C12	C	0.743077	-0.118915	0.000036
C13	C	0.572894	-0.115896	0.000048
C14	C	0.525428	-0.207443	0.000045
C15	C	0.428740	-0.205773	0.000670
C16	C	0.405337	-0.112924	0.000059
C17	C	0.446473	-0.067504	0.155777
C18	C	0.543106	-0.069821	0.155903
C19	C	0.543380	-0.068464	-0.154818
C20	C	0.446436	-0.068473	-0.156860
C21	C	0.310642	-0.111239	0.000070
C22	C	0.667590	-0.117577	0.000048
C23	C	0.995229	0.038674	0.000048
C24	C	0.993577	0.131624	0.000057
C25	C	1.142202	-0.108269	0.000057
C26	C	1.235154	-0.109904	0.000071
C27	C	0.983003	-0.267493	0.000048
C28	C	0.984655	-0.360443	0.000050
C29	C	0.987644	0.469370	0.000052
C30	C	0.896090	0.421920	0.000660
C31	C	0.897743	0.325230	0.000045
C32	C	0.990587	0.301810	0.000056
C33	C	1.035742	0.342896	-0.155966
C34	C	1.033442	0.439532	-0.156096
C35	C	1.035338	0.439889	0.154614
C36	C	1.035317	0.342944	0.156676
C37	C	0.992255	0.207113	0.000052
C38	C	0.985979	0.564068	0.000044
N39	N	0.989115	-0.114408	-0.425630
N40	N	0.989123	-0.114405	0.425723
H41	H	0.561427	-0.102555	0.272746
C42	C	0.551916	-0.256407	0.150680
N43	N	0.571867	-0.293283	0.264143
C44	C	0.425708	0.022978	-0.170199
N45	N	0.410095	0.091861	-0.180236
H46	H	1.100660	0.471792	-0.163168
C47	C	1.127886	0.323814	-0.163821
N48	N	1.197287	0.309433	-0.169741
H49	H	0.543918	-0.244234	-0.111603
C50	C	0.994899	0.467625	0.314372
N51	N	0.964430	0.488514	0.434695
C52	C	0.990758	0.306076	0.312610
N53	N	0.957188	0.278309	0.430057
H54	H	0.859658	0.441508	-0.110605
H55	H	1.103023	0.327594	0.166105
C56	C	0.586708	0.020995	0.164896
N57	N	0.619545	0.089395	0.171685
C58	C	0.427421	0.024662	0.163020
N59	N	0.413068	0.094081	0.168474
C60	C	0.846649	0.446954	0.151801
N61	N	0.809408	0.465819	0.265642
C62	C	0.849466	0.287574	-0.151316
N63	N	0.813103	0.259213	-0.265329
H64	H	0.400894	-0.241309	0.112946
H65	H	1.102841	0.471662	0.155670
H66	H	0.400275	-0.241462	-0.110930
C67	C	0.988945	0.464250	-0.313656
N68	N	0.955425	0.482862	-0.432330
C69	C	0.408124	-0.109566	0.312926
N70	N	0.379226	-0.141239	0.431288
C71	C	0.571067	-0.109186	-0.314317
N72	N	0.591919	-0.139866	-0.434445
H73	H	0.419094	-0.101641	-0.272063
H74	H	0.575161	-0.000967	-0.156316
H75	H	0.862247	0.296801	0.111886
C76	C	0.993365	0.304555	-0.312832
N77	N	0.961440	0.275677	-0.430981
