data_functionalizedCrystal
_audit_creation_method	'MofGen! by Chris Wilmer'
_symmetry_space_group_name_H-M	'P1'
_symmetry_Int_Tables_number	1
_symmetry_cell_setting	triclinic
loop_
_symmetry_equiv_pos_as_xyz
  x,y,z
_cell_length_a	21.395362
_cell_length_b	15.297327
_cell_length_c	15.297738
_cell_angle_alpha	110.757659
_cell_angle_beta	80.281572
_cell_angle_gamma	99.725883
loop_
_atom_site_label
_atom_site_type_symbol
_atom_site_fract_x
_atom_site_fract_y
_atom_site_fract_z
Zn1	Zn	0.973361	-0.460950	-0.590291
Zn2	Zn	1.473361	0.039050	-0.090291
Zn3	Zn	0.942368	-0.589572	-0.461664
Zn4	Zn	1.442368	-0.089572	0.038336
Zn5	Zn	0.853125	-0.434106	-0.434747
Zn6	Zn	1.353125	0.065894	0.065253
Zn7	Zn	0.853080	-0.616454	-0.617079
Zn8	Zn	1.353080	-0.116454	-0.117079
O9	O	0.905483	-0.525271	-0.525945
O10	O	1.405483	-0.025271	-0.025945
O11	O	1.056936	-0.477996	-0.573282
O12	O	1.556936	0.022004	-0.073282
O13	O	0.917577	-0.546465	-0.327955
O14	O	1.417577	-0.046465	0.172045
O15	O	0.882063	-0.307524	-0.432904
O16	O	1.382063	0.192476	0.067096
O17	O	1.034165	-0.572494	-0.478780
O18	O	1.534165	-0.072494	0.021220
O19	O	0.970400	-0.327246	-0.547182
O20	O	1.470400	0.172754	-0.047182
O21	O	0.852011	-0.432244	-0.308180
O22	O	1.352011	0.067756	0.191820
O23	O	0.765432	-0.458311	-0.458880
O24	O	1.265432	0.041689	0.041120
O25	O	0.881988	-0.618311	-0.743663
O26	O	1.381988	-0.118311	-0.243663
O27	O	0.765400	-0.592282	-0.592838
O28	O	1.265400	-0.092282	-0.092838
O29	O	0.970357	-0.504062	-0.723982
O30	O	1.470357	-0.004062	-0.223982
O31	O	0.917535	-0.723281	-0.504755
O32	O	1.417535	-0.223281	-0.004755
O33	O	0.851936	-0.743031	-0.618938
O34	O	1.351936	-0.243031	-0.118938
C35	C	0.742680	-0.525301	-0.525846
C36	C	1.242680	-0.025301	-0.025846
C37	C	0.673032	-0.525340	-0.525829
C38	C	1.173032	-0.025340	-0.025829
C39	C	0.640302	-0.595162	-0.595506
C40	C	1.140302	-0.095162	-0.095506
C41	C	0.574873	-0.595147	-0.595543
C42	C	1.074873	-0.095147	-0.095543
C43	C	0.542174	-0.525316	-0.525889
C44	C	1.042174	-0.025316	-0.025889
C45	C	0.574913	-0.455482	-0.456206
C46	C	1.074913	0.044518	0.043794
C47	C	0.640342	-0.455494	-0.456176
C48	C	1.140342	0.044506	0.043824
C49	C	0.430880	-0.503352	-0.440872
C50	C	0.930880	-0.003352	0.059128
C51	C	0.365451	-0.503346	-0.440901
C52	C	0.865451	-0.003346	0.059099
C53	C	0.340369	-0.525273	-0.525981
C54	C	0.840369	-0.025273	-0.025981
C55	C	0.380723	-0.547226	-0.611038
C56	C	0.880723	-0.047226	-0.111038
C57	C	0.446152	-0.547238	-0.611008
C58	C	0.946152	-0.047238	-0.111008
C59	C	0.471227	-0.525295	-0.525914
C60	C	0.971227	-0.025295	-0.025914
C61	C	0.236694	-0.595082	-0.595704
C62	C	0.736694	-0.095082	-0.095704
C63	C	0.171264	-0.595060	-0.595742
C64	C	0.671264	-0.095060	-0.095742
C65	C	0.171304	-0.455399	-0.456398
C66	C	0.671304	0.044601	0.043602
C67	C	0.236734	-0.455417	-0.456367
C68	C	0.736734	0.044583	0.043633
C69	C	0.269424	-0.525264	-0.526020
C70	C	0.769424	-0.025264	-0.026020
C71	C	0.881386	-0.766904	-0.567695
C72	C	1.381386	-0.266904	-0.067695
C73	C	0.871138	-0.870281	-0.585587
C74	C	1.371138	-0.370281	-0.085587
C75	C	0.979020	-1.120455	-0.398386
C76	C	1.479020	-0.620455	0.101614
C77	C	0.988648	-1.023327	-0.381571
C78	C	1.488648	-0.523327	0.118429
C79	C	0.959272	-0.985060	-0.432574
C80	C	1.459272	-0.485060	0.067426
C81	C	0.920265	-1.043933	-0.500394
C82	C	1.420265	-0.543933	-0.000394
C83	C	0.910632	-1.141070	-0.517206
C84	C	1.410632	-0.641070	-0.017206
C85	C	0.890883	-1.005675	-0.551393
C86	C	1.390883	-0.505675	-0.051393
C87	C	0.851877	-1.064548	-0.619213
C88	C	1.351877	-0.564548	-0.119213
C89	C	0.842246	-1.161675	-0.636022
C90	C	1.342246	-0.661675	-0.136022
C91	C	0.871622	-1.199941	-0.585020
C92	C	1.371622	-0.699941	-0.085020
C93	C	0.900517	-0.908538	-0.534582
C94	C	1.400517	-0.408538	-0.034582
C95	C	0.832128	-0.929153	-0.653401
C96	C	1.332128	-0.429153	-0.153401
C97	C	0.822500	-1.026281	-0.670216
C98	C	1.322500	-0.526281	-0.170216
C99	C	1.068922	-0.525241	-0.526045
C100	C	1.568922	-0.025241	-0.026045
C101	C	1.138570	-0.525228	-0.526088
C102	C	1.638570	-0.025228	-0.026088
C103	C	0.929625	-0.567179	-0.768509
C104	C	1.429625	-0.067179	-0.268509
C105	C	0.939912	-0.585039	-0.871875
C106	C	1.439912	-0.085039	-0.371875
C107	C	0.929694	-0.282697	-0.484052
C108	C	1.429694	0.217303	0.015948
C109	C	0.940011	-0.179327	-0.466200
C110	C	1.440011	0.320673	0.033800
C111	C	0.978882	-0.652899	-0.930735
C112	C	1.478882	-0.152899	-0.430735
C113	C	0.988553	-0.669670	-1.027851
C114	C	1.488553	-0.169670	-0.527851
C115	C	0.959250	-0.618589	-1.066119
C116	C	1.459250	-0.118589	-0.566119
C117	C	0.920275	-0.550732	-1.007260
C118	C	1.420275	-0.050732	-0.507260
C119	C	0.910608	-0.533953	-0.910133
C120	C	1.410608	-0.033953	-0.410133
C121	C	0.890976	-0.499643	-1.045517
C122	C	1.390976	0.000357	-0.545517
C123	C	0.852001	-0.431786	-0.986659
C124	C	1.352001	0.068214	-0.486659
C125	C	0.842335	-0.415011	-0.889542
C126	C	1.342335	0.084989	-0.389542
C127	C	0.871638	-0.466093	-0.851274
C128	C	1.371638	0.033907	-0.351274
C129	C	0.900643	-0.516422	-1.142644
C130	C	1.400643	-0.016422	-0.642644
C131	C	0.832368	-0.397476	-1.122043
C132	C	1.332368	0.102524	-0.622043
C133	C	0.822698	-0.380705	-1.024926
C134	C	1.322698	0.119295	-0.524926
C135	C	0.881479	-0.483458	-0.284313
C136	C	1.381479	0.016542	0.215687
C137	C	0.871338	-0.465337	-0.180902
C138	C	1.371338	0.034663	0.319098
H139	H	0.666914	-0.652036	-0.652224
H140	H	1.166914	-0.152036	-0.152224
Cl141	Cl	0.793348	-0.329694	-0.815548
Cl142	Cl	1.293348	0.170306	-0.315548
H143	H	0.863787	-1.279031	-0.598709
H144	H	1.363787	-0.779031	-0.098709
Cl145	Cl	0.773712	-0.295391	-0.950920
Cl146	Cl	1.273712	0.204609	-0.450920
H147	H	0.863767	-0.452441	-0.772194
H148	H	1.363767	0.047559	-0.272194
Cl149	Cl	0.949637	-0.601725	-1.216626
Cl150	Cl	1.449637	-0.101725	-0.716626
Cl151	Cl	0.130205	-0.367606	-0.368836
Cl152	Cl	0.630205	0.132394	0.131164
H153	H	0.808510	-0.355879	-1.153199
H154	H	1.308510	0.144121	-0.653199
Cl155	Cl	0.533717	-0.682930	-0.683144
Cl156	Cl	1.033717	-0.182930	-0.183144
H157	H	0.479005	-0.565110	-0.680263
H158	H	0.979005	-0.065110	-0.180263
H159	H	0.263312	-0.651951	-0.652424
H160	H	0.763312	-0.151951	-0.152424
H161	H	0.144617	-0.651917	-0.652487
H162	H	0.644617	-0.151917	-0.152487
Cl163	Cl	0.971405	-0.639678	-1.188211
Cl164	Cl	1.471405	-0.139678	-0.688211
Cl165	Cl	0.462403	-0.475788	-0.333904
Cl166	Cl	0.962403	0.024212	0.166096
Cl167	Cl	1.015725	-0.717095	-0.882620
Cl168	Cl	1.515725	-0.217095	-0.382620
H169	H	0.360304	-0.565079	-0.680318
H170	H	0.860304	-0.065079	-0.180318
Cl171	Cl	1.037542	-0.754978	-1.101838
Cl172	Cl	1.537542	-0.254978	-0.601838
H173	H	0.548286	-0.398624	-0.399495
H174	H	1.048286	0.101376	0.100505
Cl175	Cl	0.277882	-0.367638	-0.368766
Cl176	Cl	0.777882	0.132362	0.131234
H177	H	0.332600	-0.485477	-0.371644
H178	H	0.832600	0.014523	0.128356
H179	H	0.666991	-0.398634	-0.399436
H180	H	1.166991	0.101366	0.100564
H181	H	0.967113	-0.905973	-0.418878
H182	H	1.467113	-0.405973	0.081122
H183	H	0.932276	-0.860612	-0.479361
H184	H	1.432276	-0.360612	0.020639
H185	H	1.020406	-0.975396	-0.326351
H186	H	1.520406	-0.475396	0.173649
H187	H	1.002930	-1.151621	-0.356861
H188	H	1.502930	-0.651621	0.143139
H189	H	0.790740	-1.074229	-0.725436
H190	H	1.290740	-0.574229	-0.225436
Cl191	Cl	0.793206	-1.235683	-0.721278
Cl192	Cl	1.293206	-0.735683	-0.221278
Cl193	Cl	0.795191	-0.881053	-0.717516
Cl194	Cl	1.295191	-0.381053	-0.217516
