data_functionalizedCrystal
_audit_creation_method	'MofGen! by Chris Wilmer'
_symmetry_space_group_name_H-M	'P1'
_symmetry_Int_Tables_number	1
_symmetry_cell_setting	triclinic
loop_
_symmetry_equiv_pos_as_xyz
  x,y,z
_cell_length_a	19.188930
_cell_length_b	19.188925
_cell_length_c	17.666332
_cell_angle_alpha	89.993867
_cell_angle_beta	89.976766
_cell_angle_gamma	83.143665
loop_
_atom_site_label
_atom_site_type_symbol
_atom_site_fract_x
_atom_site_fract_y
_atom_site_fract_z
O1	O	0.926148	0.087169	-0.063191
O2	O	0.722836	0.098903	-0.063139
O3	O	0.830361	-0.008620	-0.063162
O4	O	0.818623	0.194692	-0.063168
O5	O	0.830342	-0.008625	0.062734
O6	O	0.722818	0.098898	0.062758
O7	O	0.926129	0.087163	0.062706
Cu8	Cu	0.824472	0.093030	0.074227
Cu9	Cu	0.824494	0.093037	-0.074660
O10	O	0.818604	0.194686	0.062729
C11	C	0.696816	0.098520	-0.000184
C12	C	0.619311	0.097380	-0.000164
C13	C	0.829972	-0.034634	-0.000214
C14	C	0.828833	-0.112138	-0.000216
C15	C	0.884297	-0.673909	-0.000249
C16	C	0.885374	-0.601085	-0.000242
C17	C	0.822282	-0.556151	-0.000226
C18	C	0.758108	-0.584045	-0.000198
C19	C	0.757033	-0.656867	-0.000197
N20	N	0.776612	-0.435468	-0.043067
N21	N	0.777637	-0.366291	-0.043069
C22	C	0.825516	-0.336742	-0.000228
N23	N	0.872341	-0.378984	0.042607
N24	N	0.871318	-0.448168	0.042606
C25	C	0.823440	-0.477187	-0.000227
C26	C	0.890852	-0.229893	-0.000244
C27	C	0.891926	-0.157068	-0.000233
C28	C	0.764659	-0.140029	-0.000196
C29	C	0.763587	-0.212852	-0.000199
C30	C	0.826685	-0.257780	-0.000227
C31	C	0.574386	0.160471	-0.000178
C32	C	0.501563	0.159399	-0.000186
C33	C	0.473667	0.095233	-0.000196
C34	C	0.518602	0.032134	-0.000178
C35	C	0.591424	0.033207	-0.000162
N36	N	0.365694	0.046188	-0.043073
N37	N	0.296516	0.045172	-0.043090
C38	C	0.254259	0.091995	-0.000242
N39	N	0.283792	0.139882	0.042613
N40	N	0.352977	0.140899	0.042627
C41	C	0.394705	0.094062	-0.000213
C42	C	0.130369	0.153928	-0.000264
C43	C	0.057544	0.152854	-0.000267
C44	C	0.074586	0.025586	-0.000267
C45	C	0.147409	0.026663	-0.000256
C46	C	0.175296	0.090835	-0.000258
C47	C	0.952150	0.087546	-0.000251
C48	C	1.029654	0.088687	-0.000276
C49	C	0.818993	0.220700	-0.000221
C50	C	0.820132	0.298205	-0.000224
N51	N	0.824461	0.093025	0.178946
N52	N	0.824510	0.093036	-0.179380
C53	C	0.872088	0.045437	0.218546
C54	C	0.872093	0.045433	0.297794
C55	C	0.824476	0.093030	0.337439
C56	C	0.776840	0.140622	0.297830
C57	C	0.776832	0.140619	0.218584
N58	N	0.815398	0.154838	0.461857
N59	N	0.815410	0.154838	0.537137
C60	C	0.824494	0.093040	0.576203
N61	N	0.833581	0.031239	0.537143
N62	N	0.833573	0.031240	0.461856
C63	C	0.824478	0.093038	0.423368
C64	C	0.872129	0.045444	0.701731
C65	C	0.872128	0.045440	0.780980
C66	C	0.776878	0.140634	0.781015
C67	C	0.776876	0.140633	0.701767
C68	C	0.824505	0.093038	0.662130
H69	H	0.935677	-0.710485	-0.000267
H70	H	0.464977	0.210777	-0.000195
C71	C	0.924514	-0.006916	0.658128
N72	N	0.963971	-0.046356	0.625288
H73	H	0.713288	-0.103444	-0.000176
H74	H	0.738047	0.179372	0.186341
C75	C	0.924475	-0.006925	0.174950
N76	N	0.963931	-0.046367	0.142112
H77	H	0.910910	0.006684	0.813223
H78	H	0.910878	0.006680	0.330041
H79	H	0.738068	0.179375	0.330113
H80	H	0.738105	0.179386	0.813293
H81	H	0.597087	0.212725	-0.000181
C82	C	0.487916	-0.038450	-0.000190
N83	N	0.464803	-0.091615	-0.000196
C84	C	0.692999	-0.243528	-0.000182
N85	N	0.639829	-0.266632	-0.000168
H86	H	0.738096	0.179386	0.669523
C87	C	0.686444	-0.687542	-0.000175
N88	N	0.633275	-0.710648	-0.000162
C89	C	0.962516	-0.126394	-0.000256
N90	N	1.015686	-0.103290	-0.000275
C91	C	0.161047	0.224519	-0.000256
N92	N	0.184152	0.277688	-0.000249
H93	H	0.937626	-0.578376	-0.000262
H94	H	0.628003	-0.018171	-0.000152
C95	C	0.688707	-0.534616	-0.000183
N96	N	0.636431	-0.497385	-0.000171
H97	H	0.942231	-0.266475	-0.000266
H98	H	0.051874	-0.026659	-0.000322
C99	C	0.196829	-0.042744	-0.000250
N100	N	0.234052	-0.095024	-0.000244
H101	H	0.020966	0.204232	-0.000274
