data_functionalizedCrystal
_audit_creation_method	'MofGen! by Chris Wilmer'
_symmetry_space_group_name_H-M	'P1'
_symmetry_Int_Tables_number	1
_symmetry_cell_setting	triclinic
loop_
_symmetry_equiv_pos_as_xyz
  x,y,z
_cell_length_a	17.699083
_cell_length_b	16.776229
_cell_length_c	17.699083
_cell_angle_alpha	90.007545
_cell_angle_beta	83.283015
_cell_angle_gamma	90.001114
loop_
_atom_site_label
_atom_site_type_symbol
_atom_site_fract_x
_atom_site_fract_y
_atom_site_fract_z
O1	O	1.004078	0.066178	0.095713
O2	O	0.783700	0.066204	0.108165
O3	O	0.900116	0.066183	-0.008250
O4	O	0.887663	0.066199	0.212128
O5	O	0.900100	-0.066393	-0.008257
O6	O	0.783685	-0.066372	0.108158
O7	O	1.004063	-0.066398	0.095706
Zn8	Zn	0.893871	-0.087435	0.101931
Zn9	Zn	0.893892	0.087241	0.101940
O10	O	0.887648	-0.066378	0.212121
C11	C	0.755495	-0.000081	0.107716
C12	C	0.671477	-0.000071	0.106377
N13	N	0.893863	-0.206646	0.101924
C14	C	0.622856	-0.000066	0.174710
C15	C	0.543913	-0.000077	0.173448
C16	C	0.513592	-0.000086	0.103852
C17	C	0.562219	-0.000093	0.035513
C18	C	0.641161	-0.000088	0.036776
C19	C	0.243856	-0.000113	0.030418
C20	C	0.164908	-0.000115	0.029160
C21	C	0.146608	-0.000101	0.167090
C22	C	0.225550	-0.000097	0.168353
C23	C	0.274170	-0.000108	0.100015
C24	C	0.359769	-0.000098	0.101384
C25	C	0.427995	-0.000090	0.102481
C26	C	0.945428	-0.248372	0.050396
C27	C	0.945432	-0.331824	0.050396
C28	C	0.893875	-0.373549	0.101927
C29	C	0.842305	-0.331817	0.153457
C30	C	0.842297	-0.248366	0.153454
C31	C	0.842332	-0.668364	0.153472
C32	C	0.842345	-0.751820	0.153473
C33	C	0.945466	-0.751822	0.050414
C34	C	0.945459	-0.668372	0.050411
C35	C	0.893887	-0.626647	0.101938
C36	C	0.893882	-0.536158	0.101937
C37	C	0.893882	-0.464036	0.101932
C38	C	1.032268	-0.000112	0.096156
C39	C	1.116286	-0.000116	0.097494
N40	N	0.893906	0.206452	0.101941
C41	C	0.899662	-0.000105	-0.036451
C42	C	0.898323	-0.000105	-0.120469
C43	C	0.966656	-0.000114	-0.169090
C44	C	0.965394	-0.000107	-0.248033
C45	C	0.895798	-0.000096	-0.278354
C46	C	0.827459	-0.000085	-0.229727
C47	C	0.828722	-0.000086	-0.150785
C48	C	0.822364	-0.000078	-0.548090
C49	C	0.821106	-0.000078	-0.627038
C50	C	0.959036	-0.000099	-0.645338
C51	C	0.960299	-0.000100	-0.566396
C52	C	0.891961	-0.000084	-0.517776
C53	C	0.893330	-0.000090	-0.432177
C54	C	0.894427	-0.000096	-0.363951
C55	C	0.888102	-0.000087	0.240322
C56	C	0.889440	-0.000082	0.324340
H57	H	0.647537	-0.000058	0.231384
Br58	Br	0.733005	-0.000057	-0.270875
H59	H	0.800308	-0.214393	0.195412
Br60	Br	0.266696	-0.000077	0.262808
Br61	Br	1.051783	-0.000120	-0.711327
Br62	Br	0.309831	-0.000130	-0.062327
Br63	Br	1.061114	-0.000140	-0.127948
H64	H	1.021038	-0.000116	-0.287618
Br65	Br	1.015410	-0.388456	-0.019538
H66	H	1.016971	-0.000113	-0.541714
H67	H	0.987457	-0.785804	0.008456
Br68	Br	0.477929	-0.000068	0.266191
Br69	Br	1.015435	-0.611748	-0.019522
Br70	Br	0.726647	-0.000065	-0.668186
Br71	Br	0.123759	-0.000125	-0.065299
Br72	Br	0.521071	-0.000113	-0.058941
Br73	Br	0.707148	-0.000101	-0.055966
H74	H	0.987414	-0.214406	0.008437
Br75	Br	0.772370	-0.808447	0.223414
Br76	Br	0.729619	-0.000051	-0.482115
H77	H	0.773078	-0.000078	-0.111198
H78	H	0.800322	-0.365793	0.195412
Br79	Br	0.772345	-0.611742	0.223401
H80	H	0.107012	-0.000097	0.222734
