data_functionalizedCrystal
_audit_creation_method	'MofGen! by Chris Wilmer'
_symmetry_space_group_name_H-M	'P1'
_symmetry_Int_Tables_number	1
_symmetry_cell_setting	triclinic
loop_
_symmetry_equiv_pos_as_xyz
  x,y,z
_cell_length_a	12.759401
_cell_length_b	18.050590
_cell_length_c	18.050583
_cell_angle_alpha	89.962959
_cell_angle_beta	89.987110
_cell_angle_gamma	90.017597
loop_
_atom_site_label
_atom_site_type_symbol
_atom_site_fract_x
_atom_site_fract_y
_atom_site_fract_z
Zn1	Zn	1.606168	-0.295625	-0.419847
Zn2	Zn	1.606068	-0.419838	-0.295655
Zn3	Zn	1.430488	-0.295664	-0.295677
Zn4	Zn	1.430447	-0.419776	-0.419810
O5	O	1.518293	-0.357726	-0.357747
O6	O	1.753176	-0.312112	-0.403378
O7	O	1.582752	-0.403409	-0.191733
O8	O	1.453851	-0.191735	-0.312173
O9	O	1.753103	-0.403371	-0.312135
O10	O	1.582923	-0.191706	-0.403400
O11	O	1.453754	-0.312179	-0.191750
O12	O	1.283461	-0.312118	-0.312138
O13	O	1.453782	-0.403264	-0.523740
O14	O	1.283432	-0.403302	-0.403338
O15	O	1.582884	-0.312051	-0.523766
O16	O	1.582713	-0.523754	-0.312100
O17	O	1.453685	-0.523709	-0.403316
C18	C	1.245326	-0.357708	-0.357737
C19	C	1.128549	-0.357719	-0.357750
C20	C	1.073718	-0.310290	-0.405334
C21	C	0.963994	-0.310304	-0.405339
C22	C	0.963941	-0.405182	-0.310174
C23	C	1.073663	-0.405164	-0.310166
C24	C	1.073748	-0.255515	-0.460279
C25	C	0.964024	-0.255529	-0.460284
C26	C	1.518212	-0.550678	-0.357718
C27	C	1.518274	-0.633224	-0.357730
C28	C	1.588585	-0.832672	-0.308196
C29	C	1.614243	-0.881995	-0.375975
C30	C	1.518333	-0.784354	-0.357760
C31	C	1.492782	-0.882113	-0.290011
C32	C	1.518393	-0.930339	-0.357782
C33	C	1.544040	-0.832590	-0.425574
C34	C	1.422535	-0.832703	-0.339565
C35	C	1.448157	-0.882004	-0.407390
C36	C	1.518302	-0.700256	-0.357745
C37	C	1.518424	-1.014436	-0.357804
C38	C	1.792326	-0.357744	-0.357758
C39	C	1.909103	-0.357752	-0.357763
C40	C	1.518339	-0.357647	-0.551453
C41	C	1.518359	-0.357613	-0.633999
C42	C	1.518403	-0.164020	-0.357793
C43	C	1.518449	-0.081474	-0.357813
C44	C	1.588635	-0.307987	-0.833464
C45	C	1.492809	-0.289810	-0.882863
C46	C	1.518401	-0.357600	-0.785129
C47	C	1.614266	-0.375730	-0.882812
C48	C	1.518450	-0.357586	-0.931114
C49	C	1.422524	-0.339388	-0.833441
C50	C	1.544046	-0.425340	-0.833386
C51	C	1.448154	-0.407188	-0.882762
C52	C	1.518374	-0.357606	-0.701031
C53	C	1.518466	-0.357580	-1.015211
C54	C	1.518307	-0.357751	-0.164795
C55	C	1.518491	-0.357576	-0.082250
H56	H	1.107804	-0.276177	-0.514875
O57	O	1.463995	-0.910796	-0.214081
H58	H	1.391532	-0.944602	-0.218003
H59	H	0.919240	-0.443811	-0.271432
O60	O	1.315225	-0.803984	-0.319137
H61	H	1.294166	-0.823782	-0.262838
H62	H	1.647932	-0.266005	-0.811815
H63	H	1.118302	-0.443778	-0.271411
H64	H	1.695283	-0.903649	-0.391379
H65	H	0.929990	-0.200869	-0.439789
H66	H	0.934269	-0.271005	-0.517777
O67	O	1.464089	-0.213926	-0.911659
H68	H	1.522480	-0.172845	-0.891923
O69	O	1.369496	-0.910521	-0.462984
H70	H	1.290229	-0.889893	-0.448309
O71	O	1.667296	-0.803967	-0.252732
H72	H	1.746781	-0.823707	-0.268027
H73	H	1.341450	-0.323981	-0.811845
H74	H	1.565596	-0.810929	-0.482927
H75	H	1.388712	-0.449138	-0.904272
H76	H	1.565751	-0.482615	-0.811639
O77	O	1.721620	-0.396061	-0.911545
H78	H	1.775264	-0.405678	-0.864108
O79	O	1.113204	-0.179304	-0.439998
H80	H	1.045503	-0.142008	-0.430068
