data_functionalizedCrystal
_audit_creation_method	'MofGen! by Chris Wilmer'
_symmetry_space_group_name_H-M	'P1'
_symmetry_Int_Tables_number	1
_symmetry_cell_setting	triclinic
loop_
_symmetry_equiv_pos_as_xyz
  x,y,z
_cell_length_a	27.731994
_cell_length_b	27.731996
_cell_length_c	26.210047
_cell_angle_alpha	89.989354
_cell_angle_beta	89.989666
_cell_angle_gamma	82.620961
loop_
_atom_site_label
_atom_site_type_symbol
_atom_site_fract_x
_atom_site_fract_y
_atom_site_fract_z
O1	O	0.640942	0.057393	-0.042363
O2	O	1.140942	0.557393	0.457637
O3	O	0.500143	0.066166	-0.042381
O4	O	1.000143	0.566166	0.457619
O5	O	0.574929	-0.008620	-0.042360
O6	O	1.074929	0.491380	0.457640
O7	O	0.566157	0.132179	-0.042383
O8	O	1.066157	0.632179	0.457617
O9	O	0.574905	-0.008620	0.042498
O10	O	1.074905	0.491380	0.542498
O11	O	0.500120	0.066166	0.042477
O12	O	1.000120	0.566166	0.542477
O13	O	0.640919	0.057393	0.042495
O14	O	1.140919	0.557393	0.542495
Cu15	Cu	0.570517	0.061779	0.050235
Cu16	Cu	1.070517	0.561779	0.550235
Cu17	Cu	0.570545	0.061779	-0.050120
Cu18	Cu	1.070545	0.561779	0.449880
O19	O	0.566133	0.132179	0.042475
O20	O	1.066133	0.632179	0.542475
C21	C	0.482124	0.065986	0.000046
C22	C	0.982124	0.565986	0.500046
C23	C	0.428468	0.065443	0.000040
C24	C	0.928468	0.565443	0.500040
C25	C	0.095737	0.062027	0.046316
C26	C	0.595737	0.562027	0.546316
C27	C	-0.105920	0.059966	0.046322
C28	C	0.394080	0.559966	0.546322
O29	O	-0.132004	0.059678	0.085661
O30	O	0.367996	0.559678	0.585661
N31	N	-0.131122	0.059710	0.000066
N32	N	0.368878	0.559710	0.500066
C33	C	-0.105906	0.059966	-0.046195
C34	C	0.394094	0.559966	0.453805
O35	O	-0.131969	0.059696	-0.085538
O36	O	0.368031	0.559696	0.414462
C37	C	0.095751	0.062024	-0.046200
C38	C	0.595751	0.562024	0.453800
C39	C	0.120950	0.062285	0.000059
C40	C	0.620950	0.562285	0.500059
C41	C	0.120936	0.062288	0.092572
C42	C	0.620936	0.562288	0.592572
C43	C	0.171347	0.062806	0.092570
C44	C	0.671347	0.562806	0.592570
C45	C	0.196560	0.063064	0.046312
C46	C	0.696560	0.563064	0.546312
C47	C	0.171361	0.062803	0.000057
C48	C	0.671361	0.562803	0.500057
C49	C	0.120966	0.062277	-0.092460
C50	C	0.620966	0.562277	0.407540
C51	C	0.171384	0.062790	-0.092458
C52	C	0.671384	0.562790	0.407542
C53	C	0.196583	0.063051	-0.046199
C54	C	0.696583	0.563051	0.453801
C55	C	0.246984	0.063579	-0.046202
C56	C	0.746984	0.563579	0.453798
N57	N	0.272186	0.063835	0.000054
N58	N	0.772186	0.563835	0.500054
C59	C	0.246974	0.063577	0.046311
C60	C	0.746974	0.563577	0.546311
C61	C	-0.211780	0.058886	-0.046188
C62	C	0.288220	0.558886	0.453812
C63	C	-0.262194	0.058373	-0.046187
C64	C	0.237806	0.558373	0.453813
C65	C	-0.262204	0.058372	0.046330
C66	C	0.237796	0.558372	0.546330
C67	C	-0.211789	0.058889	0.046328
C68	C	0.288211	0.558889	0.546328
C69	C	-0.186578	0.059142	0.000068
C70	C	0.313422	0.559142	0.500068
C71	C	0.352841	0.064666	0.046303
C72	C	0.852841	0.564666	0.546303
C73	C	0.403256	0.065186	0.046297
C74	C	0.903256	0.565186	0.546297
C75	C	0.403262	0.065184	-0.046220
C76	C	0.903262	0.565184	0.453780
C77	C	0.352851	0.064667	-0.046214
C78	C	0.852851	0.564667	0.453786
C79	C	0.327642	0.064406	0.000052
C80	C	0.827642	0.564406	0.500052
O81	O	0.273099	0.063861	-0.085521
O82	O	0.773099	0.563861	0.414479
O83	O	0.273046	0.063837	0.085649
O84	O	0.773046	0.563837	0.585649
C85	C	0.045326	0.061509	0.046318
C86	C	0.545326	0.561509	0.546318
C87	C	0.020127	0.061249	0.000063
C88	C	0.520127	0.561249	0.500063
C89	C	0.045340	0.061507	-0.046194
C90	C	0.545340	0.561507	0.453806
C91	C	-0.030287	0.060735	0.000064
C92	C	0.469713	0.560735	0.500064
C93	C	-0.055499	0.060478	0.046322
C94	C	0.444501	0.560478	0.546322
C95	C	-0.030297	0.060734	0.092578
C96	C	0.469703	0.560734	0.592578
C97	C	0.020114	0.061252	0.092576
C98	C	0.520114	0.561252	0.592576
C99	C	0.020138	0.061251	-0.092450
C100	C	0.520138	0.561251	0.407550
C101	C	-0.030274	0.060733	-0.092445
C102	C	0.469726	0.560733	0.407555
C103	C	-0.055486	0.060475	-0.046187
C104	C	0.444514	0.560475	0.453813
C105	C	0.574737	-0.026628	0.000071
C106	C	1.074737	0.473372	0.500071
C107	C	0.574194	-0.080284	0.000076
C108	C	1.074194	0.419716	0.500076
C109	C	0.570792	-0.412999	-0.046206
C110	C	1.070792	0.087001	0.453794
C111	C	0.568731	-0.614657	-0.046215
C112	C	1.068731	-0.114657	0.453785
O113	O	0.568454	-0.640728	-0.085554
O114	O	1.068454	-0.140728	0.414446
N115	N	0.568462	-0.639874	0.000041
N116	N	1.068462	-0.139874	0.500041
C117	C	0.568706	-0.614673	0.046302
C118	C	1.068706	-0.114673	0.546302
O119	O	0.568425	-0.640748	0.085645
O120	O	1.068425	-0.140748	0.585645
C121	C	0.570763	-0.413016	0.046311
C122	C	1.070763	0.086984	0.546311
C123	C	0.571037	-0.387802	0.000052
C124	C	1.071037	0.112198	0.500052
C125	C	0.571065	-0.387785	-0.092461
C126	C	1.071065	0.112215	0.407539
C127	C	0.571583	-0.337374	-0.092458
C128	C	1.071583	0.162626	0.407542
C129	C	0.571828	-0.312177	-0.046200
C130	C	1.071828	0.187823	0.453800
C131	C	0.571555	-0.337391	0.000055
C132	C	1.071555	0.162609	0.500055
C133	C	0.571003	-0.387816	0.092571
C134	C	1.071003	0.112184	0.592571
C135	C	0.571516	-0.337398	0.092569
C136	C	1.071516	0.162602	0.592569
C137	C	0.571790	-0.312184	0.046311
C138	C	1.071790	0.187816	0.546311
C139	C	0.572317	-0.261783	0.046315
C140	C	1.072317	0.238217	0.546315
N141	N	0.572586	-0.236566	0.000060
N142	N	1.072586	0.263434	0.500060
C143	C	0.572341	-0.261763	-0.046198
C144	C	1.072341	0.238237	0.453802
C145	C	0.567626	-0.720547	0.046294
C146	C	1.067626	-0.220547	0.546294
C147	C	0.567113	-0.770961	0.046292
C148	C	1.067113	-0.270961	0.546292
C149	C	0.567137	-0.770941	-0.046225
C150	C	1.067137	-0.270941	0.453775
C151	C	0.567654	-0.720526	-0.046222
C152	C	1.067654	-0.220526	0.453778
C153	C	0.567895	-0.695329	0.000038
C154	C	1.067895	-0.195329	0.500038
C155	C	0.573429	-0.155896	-0.046189
C156	C	1.073429	0.344104	0.453811
C157	C	0.573949	-0.105481	-0.046182
C158	C	1.073949	0.394519	0.453818
C159	C	0.573922	-0.105505	0.046335
C160	C	1.073922	0.394495	0.546335
C161	C	0.573405	-0.155916	0.046328
C162	C	1.073405	0.344084	0.546328
C163	C	0.573157	-0.181110	0.000062
C164	C	1.073157	0.318890	0.500062
O165	O	0.572589	-0.235680	0.085634
O166	O	1.072589	0.264320	0.585634
O167	O	0.572611	-0.235678	-0.085535
O168	O	1.072611	0.264322	0.414465
C169	C	0.570274	-0.463410	-0.046209
C170	C	1.070274	0.036590	0.453791
C171	C	0.570001	-0.488624	0.000046
C172	C	1.070001	0.011376	0.500046
C173	C	0.570246	-0.463427	0.046304
C174	C	1.070246	0.036573	0.546304
C175	C	0.569487	-0.539039	0.000044
C176	C	1.069487	-0.039039	0.500044
C177	C	0.569243	-0.564236	-0.046213
C178	C	1.069243	-0.064236	0.453787
C179	C	0.569511	-0.539019	-0.092469
C180	C	1.069511	-0.039019	0.407531
C181	C	0.570029	-0.488608	-0.092466
C182	C	1.070029	0.011392	0.407534
C183	C	0.569977	-0.488644	0.092560
C184	C	1.069977	0.011356	0.592560
C185	C	0.569460	-0.539055	0.092553
C186	C	1.069460	-0.039055	0.592553
C187	C	0.569215	-0.564253	0.046296
C188	C	1.069215	-0.064253	0.546296
C189	C	0.658938	0.057573	0.000067
C190	C	1.158938	0.557573	0.500067
C191	C	0.712594	0.058115	0.000070
C192	C	1.212594	0.558115	0.500070
C193	C	0.566325	0.150186	0.000043
C194	C	1.066325	0.650186	0.500043
C195	C	0.566868	0.203842	0.000034
C196	C	1.066868	0.703842	0.500034
N197	N	0.570501	0.061779	0.120818
N198	N	1.070501	0.561779	0.620818
N199	N	0.570565	0.061776	-0.120704
N200	N	1.070565	0.561776	0.379296
C201	C	0.599632	0.090885	0.473331
C202	C	1.099632	0.590885	0.973331
C203	C	0.599646	0.090885	0.686990
C204	C	1.099646	0.590885	1.186990
O205	O	0.624403	0.115626	0.714611
O206	O	1.124403	0.615626	1.214611
N207	N	0.570556	0.061774	0.713712
N208	N	1.070556	0.561774	1.213712
C209	C	0.541463	0.032659	0.687017
C210	C	1.041463	0.532659	1.187017
O211	O	0.516724	0.007895	0.714648
O212	O	1.016724	0.507895	1.214648
C213	C	0.541452	0.032658	0.473359
C214	C	1.041452	0.532658	0.973359
C215	C	0.570540	0.061774	0.446640
C216	C	1.070540	0.561774	0.946640
C217	C	0.628718	0.119998	0.446612
C218	C	1.128718	0.619998	0.946612
C219	C	0.628713	0.120000	0.393200
C220	C	1.128713	0.620000	0.893200
C221	C	0.599620	0.090889	0.366509
C222	C	1.099620	0.590889	0.866509
C223	C	0.570534	0.061775	0.393228
C224	C	1.070534	0.561775	0.893228
C225	C	0.512361	0.003541	0.446665
C226	C	1.012361	0.503541	0.946665
C227	C	0.512362	0.003542	0.393247
C228	C	1.012362	0.503542	0.893247
C229	C	0.541450	0.032658	0.366527
C230	C	1.041450	0.532658	0.866527
C231	C	0.541436	0.032666	0.313125
C232	C	1.041436	0.532666	0.813125
N233	N	0.570526	0.061776	0.286403
N234	N	1.070526	0.561776	0.786403
C235	C	0.599618	0.090888	0.313094
C236	C	1.099618	0.590888	0.813094
C237	C	0.541470	0.032663	0.799190
C238	C	1.041470	0.532663	1.299190
C239	C	0.541472	0.032664	0.852604
C240	C	1.041472	0.532664	1.352604
C241	C	0.599657	0.090889	0.852574
C242	C	1.099657	0.590889	1.352574
C243	C	0.599652	0.090890	0.799159
C244	C	1.099652	0.590890	1.299159
C245	C	0.570560	0.061774	0.772468
C246	C	1.070560	0.561774	1.272468
C247	C	0.599603	0.090890	0.200926
C248	C	1.099603	0.590890	0.700926
C249	C	0.599593	0.090890	0.147510
C250	C	1.099593	0.590890	0.647510
C251	C	0.541411	0.032664	0.147545
C252	C	1.041411	0.532664	0.647545
C253	C	0.541419	0.032665	0.200957
C254	C	1.041419	0.532665	0.700957
C255	C	0.570519	0.061779	0.227646
C256	C	1.070519	0.561779	0.727646
O257	O	0.516696	0.007933	0.285471
O258	O	1.016696	0.507933	0.785471
O259	O	0.624361	0.115640	0.285454
O260	O	1.124361	0.615640	0.785454
C261	C	0.599638	0.090883	0.526743
C262	C	1.099638	0.590883	1.026743
C263	C	0.570552	0.061770	0.553463
C264	C	1.070552	0.561770	1.053463
C265	C	0.541459	0.032659	0.526771
C266	C	1.041459	0.532659	1.026771
C267	C	0.570554	0.061771	0.606877
C268	C	1.070554	0.561771	1.106877
C269	C	0.599646	0.090882	0.633569
C270	C	1.099646	0.590882	1.133569
C271	C	0.628736	0.119993	0.606846
C272	C	1.128736	0.619993	1.106846
C273	C	0.628730	0.119995	0.553435
C274	C	1.128730	0.619995	1.053435
C275	C	0.512369	0.003548	0.553493
C276	C	1.012369	0.503548	1.053493
C277	C	0.512377	0.003549	0.606905
C278	C	1.012377	0.503549	1.106905
C279	C	0.541469	0.032661	0.633596
C280	C	1.041469	0.532661	1.133596
H281	H	0.100414	0.062077	0.130242
H282	H	0.600414	0.562077	0.630242
H283	H	-0.050834	0.060526	0.130242
H284	H	0.449166	0.560526	0.630242
Br285	Br	0.639131	0.130404	0.762902
Br286	Br	1.139131	0.630404	1.262902
H287	H	0.488679	-0.020159	0.531766
H288	H	0.988679	0.479841	1.031766
H289	H	0.517780	0.008961	0.874355
H290	H	1.017780	0.508961	1.374355
H291	H	0.569241	-0.559581	0.130225
H292	H	1.069241	-0.059581	0.630225
Br293	Br	0.501976	-0.006846	0.762974
Br294	Br	1.001976	0.493154	1.262974
Br295	Br	0.318650	0.064322	-0.108994
Br296	Br	0.818650	0.564322	0.391006
H297	H	0.517727	0.008963	0.222713
H298	H	1.017727	0.508963	0.722713
H299	H	0.623343	0.114594	0.874315
H300	H	1.123343	0.614594	1.374315
H301	H	0.191860	0.063015	0.130239
H302	H	0.691860	0.563015	0.630239
H303	H	0.573225	-0.176403	-0.083863
H304	H	1.073225	0.323597	0.416137
H305	H	0.623300	0.114597	0.222651
H306	H	1.123300	0.614597	0.722651
H307	H	0.488675	-0.020169	0.468411
H308	H	0.988675	0.479831	0.968411
H309	H	0.423799	0.065396	-0.083881
H310	H	0.923799	0.565396	0.416119
Br311	Br	0.566803	-0.805146	-0.109003
Br312	Br	1.066803	-0.305146	0.390997
H313	H	0.652411	0.143704	0.468339
H314	H	1.152411	0.643704	0.968339
Br315	Br	0.668215	0.159504	0.643081
Br316	Br	1.168215	0.659504	1.143081
Br317	Br	0.054346	0.061599	-0.155235
Br318	Br	0.554346	0.561599	0.344765
Br319	Br	-0.296388	0.058030	-0.108970
Br320	Br	0.203612	0.558030	0.391030
Br321	Br	0.437451	0.065543	0.109082
Br322	Br	0.937451	0.565543	0.609082
Br323	Br	0.472884	-0.035981	0.357027
Br324	Br	0.972884	0.464019	0.857027
Br325	Br	0.574256	-0.071299	0.109110
Br326	Br	1.074256	0.428701	0.609110
Br327	Br	0.566753	-0.805175	0.109074
Br328	Br	1.066753	-0.305175	0.609074
Br329	Br	0.318636	0.064310	0.109093
Br330	Br	0.818636	0.564310	0.609093
Br331	Br	0.472892	-0.035966	0.643160
Br332	Br	0.972892	0.464034	1.143160
H333	H	-0.191276	0.059102	0.083997
H334	H	0.308724	0.559102	0.583997
H335	H	0.570781	-0.408336	0.130240
H336	H	1.070781	0.091664	0.630240
H337	H	0.571804	-0.316850	-0.130126
H338	H	1.071804	0.183150	0.369874
Br339	Br	0.574323	-0.071266	-0.108966
Br340	Br	1.074323	0.428734	0.391034
Br341	Br	-0.064466	0.060383	-0.155231
Br342	Br	0.435534	0.560383	0.344769
H343	H	0.570252	-0.468083	-0.130135
H344	H	1.070252	0.031917	0.369865
H345	H	0.517724	0.008964	0.125803
H346	H	1.017724	0.508964	0.625803
H347	H	0.652417	0.143704	0.531684
H348	H	1.152417	0.643704	1.031684
Br349	Br	-0.296430	0.058022	0.109108
Br350	Br	0.203570	0.558022	0.609108
Br351	Br	0.569183	-0.573225	-0.155247
Br352	Br	1.069183	-0.073225	0.344753
H353	H	0.100458	0.062064	-0.130130
H354	H	0.600458	0.562064	0.369870
Br355	Br	0.668182	0.159526	0.356946
Br356	Br	1.168182	0.659526	0.856946
H357	H	-0.191257	0.059092	-0.083861
H358	H	0.308743	0.559092	0.416139
Br359	Br	0.573045	-0.190137	0.109108
Br360	Br	1.073045	0.309863	0.609108
H361	H	0.623280	0.114602	0.125758
H362	H	1.123280	0.614602	0.625758
Br363	Br	0.205598	0.063132	-0.155244
Br364	Br	0.705598	0.563132	0.344756
H365	H	0.040627	0.061464	0.130245
H366	H	0.540627	0.561464	0.630245
H367	H	0.570864	-0.408295	-0.130131
H368	H	1.070864	0.091705	0.369869
H369	H	0.571705	-0.316884	0.130242
H370	H	1.071705	0.183116	0.630242
H371	H	0.567825	-0.700036	0.083967
H372	H	1.067825	-0.200036	0.583967
Br373	Br	0.568025	-0.686313	-0.109004
Br374	Br	1.068025	-0.186313	0.390996
H375	H	0.570177	-0.468134	0.130229
H376	H	1.070177	0.031866	0.630229
