data_functionalizedCrystal
_audit_creation_method	'MofGen! by Chris Wilmer'
_symmetry_space_group_name_H-M	'P1'
_symmetry_Int_Tables_number	1
_symmetry_cell_setting	triclinic
loop_
_symmetry_equiv_pos_as_xyz
  x,y,z
_cell_length_a	16.109301
_cell_length_b	8.559649
_cell_length_c	14.586319
_cell_angle_alpha	89.997976
_cell_angle_beta	89.999213
_cell_angle_gamma	76.620073
loop_
_atom_site_label
_atom_site_type_symbol
_atom_site_fract_x
_atom_site_fract_y
_atom_site_fract_z
O1	O	1.090046	0.205389	-0.076179
O2	O	0.846355	0.230950	-0.076193
O3	O	0.989670	-0.014444	-0.076183
O4	O	0.946731	0.450783	-0.076188
O5	O	0.989661	-0.014447	0.076297
O6	O	0.846347	0.230946	0.076288
O7	O	1.090037	0.205386	0.076302
Cu8	Cu	0.968191	0.218165	0.090218
Cu9	Cu	0.968201	0.218170	-0.090108
O10	O	0.946722	0.450779	0.076293
C11	C	0.815442	0.229912	0.000046
C12	C	0.723344	0.226808	0.000040
C13	C	0.492255	0.365202	0.000050
C14	C	0.405721	0.362273	0.000056
C15	C	0.444145	0.071122	0.000054
C16	C	0.530677	0.074053	0.000055
C17	C	0.554729	0.221098	0.000048
C18	C	0.381663	0.215238	0.000053
C19	C	0.287840	0.212061	0.000060
C20	C	0.648558	0.224275	0.000043
C21	C	0.992919	-0.073977	0.000055
C22	C	1.002605	-0.251362	0.000051
C23	C	1.120950	0.206423	0.000062
C24	C	1.213048	0.209527	0.000061
C25	C	0.943473	0.510312	0.000052
C26	C	0.933787	0.687697	0.000051
N27	N	0.968190	0.218161	0.217050
N28	N	0.968210	0.218161	-0.216940
C29	C	1.031666	0.109538	0.452060
C30	C	1.031669	0.109534	0.548041
C31	C	0.904727	0.326790	0.548043
C32	C	0.904722	0.326785	0.452063
C33	C	0.968196	0.218161	0.404074
C34	C	0.968204	0.218162	0.596035
C35	C	0.968206	0.218158	0.700102
C36	C	0.968193	0.218162	0.300001
H37	H	0.424550	-0.048597	0.000066
H38	H	0.354857	0.479618	0.000059
C39	C	0.599405	-0.084474	0.000053
C40	C	0.664174	-0.122497	0.079236
C41	C	0.732902	-0.281015	0.079238
C42	C	0.736861	-0.401510	0.000058
C43	C	0.672090	-0.363491	-0.079131
C44	C	0.603362	-0.204972	-0.079133
H45	H	0.661245	-0.033296	0.137855
H46	H	0.780850	-0.309159	0.137859
H47	H	0.787737	-0.518855	0.000060
H48	H	0.675019	-0.452691	-0.137750
H49	H	0.555415	-0.176828	-0.137754
H50	H	1.083349	0.021087	0.412990
H51	H	0.867458	-0.228771	0.000050
C52	C	1.092220	-0.364205	0.000060
C53	C	1.119566	-0.484057	0.079247
C54	C	1.209179	-0.596899	0.079256
C55	C	1.271447	-0.589888	0.000080
C56	C	1.244102	-0.470031	-0.079112
C57	C	1.154489	-0.357190	-0.079122
H58	H	1.073470	-0.489251	0.137863
H59	H	1.229420	-0.685625	0.137880
H60	H	1.337783	-0.673421	0.000087
H61	H	1.290198	-0.464838	-0.137729
H62	H	1.134248	-0.268464	-0.137746
H63	H	0.853049	0.415232	0.587125
H64	H	0.853033	0.415240	0.412990
H65	H	1.083351	0.021081	0.587109
H66	H	0.511835	0.484935	0.000051
