data_functionalizedCrystal
_audit_creation_method	'MofGen! by Chris Wilmer'
_symmetry_space_group_name_H-M	'P1'
_symmetry_Int_Tables_number	1
_symmetry_cell_setting	triclinic
loop_
_symmetry_equiv_pos_as_xyz
  x,y,z
_cell_length_a	12.645330
_cell_length_b	16.959455
_cell_length_c	16.959447
_cell_angle_alpha	90.014322
_cell_angle_beta	89.973930
_cell_angle_gamma	89.985361
loop_
_atom_site_label
_atom_site_type_symbol
_atom_site_fract_x
_atom_site_fract_y
_atom_site_fract_z
Zn1	Zn	-0.422105	-1.208397	-0.446932
Zn2	Zn	-0.599396	-1.208325	-0.314763
Zn3	Zn	-0.422138	-1.076225	-0.314770
Zn4	Zn	-0.599317	-1.076195	-0.446902
O5	O	-0.510739	-1.142286	-0.380842
O6	O	-0.445642	-1.318998	-0.429410
O7	O	-0.575930	-1.190784	-0.204153
O8	O	-0.273786	-1.093801	-0.332316
O9	O	-0.575898	-1.318945	-0.332306
O10	O	-0.273762	-1.190907	-0.429416
O11	O	-0.445699	-1.093731	-0.204158
O12	O	-0.445622	-0.965610	-0.332287
O13	O	-0.575763	-1.093750	-0.557517
O14	O	-0.575795	-0.965589	-0.429364
O15	O	-0.445565	-1.190878	-0.557539
O16	O	-0.747733	-1.190755	-0.332277
O17	O	-0.747675	-1.093680	-0.429358
C18	C	-0.510704	-0.936919	-0.380824
C19	C	-0.510715	-0.849063	-0.380835
C20	C	-0.786169	-1.142228	-0.380831
C21	C	-0.903999	-1.142276	-0.380852
C22	C	-0.510651	-1.142319	-0.587010
C23	C	-0.510614	-1.142333	-0.674867
C24	C	-1.071570	-1.081458	-0.442115
C25	C	-0.949011	-1.081147	-0.441918
C26	C	-0.948594	-1.119734	-0.297551
C27	C	-1.071192	-1.119363	-0.297922
C28	C	-1.071094	-1.226007	-0.402216
C29	C	-0.948487	-1.225494	-0.404038
C30	C	-0.234234	-1.142365	-0.380870
C31	C	-0.116404	-1.142399	-0.380882
C32	C	-0.510775	-1.348454	-0.380860
C33	C	-0.510790	-1.436310	-0.380868
C34	C	-0.442903	-0.477574	-0.330399
C35	C	-0.578663	-0.477600	-0.431329
C36	C	-0.578648	-0.560146	-0.431325
C37	C	-0.510760	-0.601410	-0.380855
C38	C	-0.442888	-0.560128	-0.330391
C39	C	-0.646526	-0.601434	-0.481782
C40	C	-0.646515	-0.683985	-0.481779
C41	C	-0.578621	-0.725251	-0.431313
C42	C	-0.510745	-0.683963	-0.380847
C43	C	-0.442857	-0.725227	-0.330378
C44	C	-0.374975	-0.683941	-0.279916
C45	C	-0.374994	-0.601393	-0.279925
C46	C	-0.578602	-0.807799	-0.431304
C47	C	-0.442842	-0.807781	-0.330370
C48	C	-0.578290	-1.091857	-1.046333
C49	C	-0.442715	-1.192997	-1.046352
C50	C	-0.442737	-1.192976	-0.963806
C51	C	-0.510538	-1.142395	-0.922520
C52	C	-0.578317	-1.091836	-0.963780
C53	C	-0.374967	-1.243540	-0.922539
C54	C	-0.374988	-1.243522	-0.839988
C55	C	-0.442784	-1.192937	-0.798701
C56	C	-0.510565	-1.142375	-0.839966
C57	C	-0.578366	-1.091794	-0.798680
C58	C	-0.646142	-1.041227	-0.839944
C59	C	-0.646113	-1.041251	-0.922492
C60	C	-0.442813	-1.192913	-0.716153
C61	C	-0.578393	-1.091773	-0.716127
C62	C	-0.510750	-1.142298	-0.175475
C63	C	-0.510489	-1.142437	-0.087619
H64	H	-0.918856	-1.095249	-0.503685
H65	H	-0.633874	-0.841410	-0.472387
H66	H	-0.701350	-1.000048	-0.806318
H67	H	-1.101937	-1.246571	-0.461927
H68	H	-0.701296	-1.000085	-0.956097
Br69	Br	-0.350773	-0.421548	-0.261924
H70	H	-0.633940	-0.443998	-0.472414
Br71	Br	-0.283007	-1.312145	-0.783995
Br72	Br	-0.670261	-1.023230	-1.102330
Br73	Br	-0.670405	-1.023118	-0.660102
Br74	Br	-0.897575	-1.018927	-0.266880
H75	H	-1.100982	-1.095430	-0.504085
Br76	Br	-0.899905	-1.253831	-0.506219
H77	H	-0.387520	-1.234182	-1.079971
H78	H	-0.319774	-1.284725	-0.956160
H79	H	-0.387634	-1.234086	-0.682559
H80	H	-0.319706	-0.717549	-0.238821
H81	H	-0.701804	-0.567831	-0.522866
H82	H	-0.701788	-0.717593	-0.522869
H83	H	-1.102467	-1.019862	-0.428161
H84	H	-0.387553	-0.841372	-0.289276
H85	H	-0.919440	-1.162714	-0.250681
Br86	Br	-0.897400	-1.305161	-0.335124
Br87	Br	-1.120637	-1.190125	-0.219284
Br88	Br	-1.119013	-1.017497	-0.267799
Br89	Br	-1.119437	-1.301686	-0.327897
Br90	Br	-0.282875	-0.545358	-0.211448
Br91	Br	-0.900268	-0.977835	-0.418367
