data_functionalizedCrystal
_audit_creation_method	'MofGen! by Chris Wilmer'
_symmetry_space_group_name_H-M	'P1'
_symmetry_Int_Tables_number	1
_symmetry_cell_setting	triclinic
loop_
_symmetry_equiv_pos_as_xyz
  x,y,z
_cell_length_a	18.101398
_cell_length_b	18.101395
_cell_length_c	16.959447
_cell_angle_alpha	90.029468
_cell_angle_beta	90.020773
_cell_angle_gamma	90.026371
loop_
_atom_site_label
_atom_site_type_symbol
_atom_site_fract_x
_atom_site_fract_y
_atom_site_fract_z
Zn1	Zn	1.132095	-0.294908	0.447049
Zn2	Zn	1.632095	0.205092	0.947049
Zn3	Zn	1.131999	-0.418761	0.314873
Zn4	Zn	1.631999	0.081239	0.814873
Zn5	Zn	1.008262	-0.294928	0.314872
Zn6	Zn	1.508262	0.205072	0.814872
Zn7	Zn	1.008205	-0.418702	0.446996
Zn8	Zn	1.508205	0.081298	0.946996
O9	O	1.070140	-0.356825	0.380948
O10	O	1.570140	0.143175	0.880948
O11	O	1.235715	-0.311354	0.429538
O12	O	1.735715	0.188646	0.929538
O13	O	1.115568	-0.402368	0.204262
O14	O	1.615568	0.097632	0.704262
O15	O	1.024753	-0.191293	0.332427
O16	O	1.524753	0.308707	0.832427
O17	O	1.235644	-0.402349	0.332429
O18	O	1.735644	0.097651	0.832429
O19	O	1.115732	-0.191278	0.429538
O20	O	1.615732	0.308722	0.929538
O21	O	1.024659	-0.311388	0.204261
O22	O	1.524659	0.188612	0.704261
O23	O	0.904621	-0.311331	0.332376
O24	O	1.404621	0.188669	0.832376
O25	O	1.024656	-0.402248	0.557614
O26	O	1.524656	0.097752	1.057614
O27	O	0.904579	-0.402267	0.429447
O28	O	1.404579	0.097733	0.929447
O29	O	1.115677	-0.311297	0.557653
O30	O	1.615677	0.188703	1.057653
O31	O	1.115513	-0.522387	0.332377
O32	O	1.615513	-0.022387	0.832377
O33	O	1.024562	-0.522343	0.429448
O34	O	1.524562	-0.022343	0.929448
C35	C	0.877729	-0.356795	0.380906
C36	C	1.377729	0.143205	0.880906
C37	C	0.795415	-0.356800	0.380908
C38	C	1.295415	0.143200	0.880908
C39	C	1.070041	-0.549236	0.380924
C40	C	1.570041	-0.049236	0.880924
C41	C	1.070066	-0.631550	0.380941
C42	C	1.570066	-0.131550	0.880941
C43	C	0.496324	-0.356846	0.380974
C44	C	0.996324	0.143154	0.880974
C45	C	0.527651	-0.299345	0.320197
C46	C	1.027651	0.200655	0.820197
C47	C	0.613269	-0.299500	0.319938
C48	C	1.113269	0.200500	0.819938
C49	C	0.644707	-0.356823	0.380941
C50	C	1.144707	0.143177	0.880941
C51	C	0.613590	-0.434835	0.358183
C52	C	1.113590	0.065165	0.858183
C53	C	0.527945	-0.434516	0.357760
C54	C	1.027945	0.065484	0.857760
C55	C	0.527934	-0.337013	0.464652
C56	C	1.027934	0.162987	0.964652
C57	C	0.613585	-0.335275	0.464195
C58	C	1.113585	0.164725	0.964195
C59	C	0.728566	-0.356814	0.380924
C60	C	1.228566	0.143186	0.880924
C61	C	0.412465	-0.356860	0.380989
C62	C	0.912465	0.143140	0.880989
C63	C	1.070229	-0.930641	0.380983
C64	C	1.570229	-0.430641	0.880983
C65	C	1.013138	-0.899319	0.442209
C66	C	1.513138	-0.399319	0.942209
C67	C	1.012866	-0.813701	0.442018
C68	C	1.512866	-0.313701	0.942018
C69	C	1.070148	-0.782258	0.380963
C70	C	1.570148	-0.282258	0.880963
C71	C	1.049024	-0.813411	0.297656
C72	C	1.549024	-0.313411	0.797656
C73	C	1.048656	-0.899056	0.298022
C74	C	1.548656	-0.399056	0.798022
C75	C	1.148569	-0.898990	0.402331
C76	C	1.648569	-0.398990	0.902331
C77	C	1.148108	-0.813339	0.404158
C78	C	1.648108	-0.313339	0.904158
C79	C	1.070104	-0.698399	0.380946
C80	C	1.570104	-0.198399	0.880946
C81	C	1.070271	-1.014500	0.380995
C82	C	1.570271	-0.514500	0.880995
C83	C	1.263302	-0.356856	0.380990
C84	C	1.763302	0.143144	0.880990
C85	C	1.345616	-0.356869	0.381007
C86	C	1.845616	0.143131	0.881007
C87	C	1.070171	-0.356764	0.587116
C88	C	1.570171	0.143236	1.087116
C89	C	1.070184	-0.356738	0.674973
C90	C	1.570184	0.143262	1.174973
C91	C	1.070260	-0.163663	0.380988
C92	C	1.570260	0.336337	0.880988
C93	C	1.070311	-0.081349	0.381006
C94	C	1.570311	0.418651	0.881006
C95	C	1.070152	-0.356833	0.175581
C96	C	1.570152	0.143167	0.675581
C97	C	1.070282	-0.356650	0.087725
C98	C	1.570282	0.143350	0.587725
C99	C	1.022882	-0.404014	1.046431
C100	C	1.522882	0.095986	1.546431
C101	C	1.117663	-0.309306	1.046466
C102	C	1.617663	0.190694	1.546466
C103	C	1.117644	-0.309321	0.963920
C104	C	1.617644	0.190679	1.463920
C105	C	1.070243	-0.356685	0.922626
C106	C	1.570243	0.143315	1.422626
C107	C	1.022862	-0.404032	0.963877
C108	C	1.522862	0.095968	1.463877
C109	C	1.165029	-0.261980	0.922663
C110	C	1.665029	0.238020	1.422663
C111	C	1.165012	-0.261994	0.840112
C112	C	1.665012	0.238006	1.340112
C113	C	1.117607	-0.309354	0.798816
C114	C	1.617607	0.190646	1.298816
C115	C	1.070223	-0.356703	0.840072
C116	C	1.570223	0.143297	1.340072
C117	C	1.022823	-0.404067	0.798778
C118	C	1.522823	0.095933	1.298778
C119	C	0.975435	-0.451412	0.840033
C120	C	1.475435	0.048588	1.340033
C121	C	0.975457	-0.451392	0.922581
C122	C	1.475457	0.048608	1.422581
C123	C	1.117585	-0.309374	0.716267
C124	C	1.617585	0.190626	1.216267
C125	C	1.022803	-0.404085	0.716224
C126	C	1.522803	0.095915	1.216224
H127	H	0.634309	-0.241650	0.334203
H128	H	1.134309	0.258350	0.834203
H129	H	1.192894	-0.791932	0.362815
H130	H	1.692894	-0.291932	0.862815
H131	H	0.506105	-0.312309	0.258554
H132	H	1.006105	0.187691	0.758554
Cl133	Cl	0.924032	-0.932656	0.420669
Cl134	Cl	1.424032	-0.432656	0.920669
Cl135	Cl	0.495891	-0.209754	0.341975
Cl136	Cl	0.995891	0.290246	0.841975
Cl137	Cl	0.963206	-0.463627	0.664318
Cl138	Cl	1.463206	0.036373	1.164318
Cl139	Cl	0.963310	-0.463529	1.098291
Cl140	Cl	1.463310	0.036471	1.598291
Cl141	Cl	0.644859	-0.319740	0.224207
Cl142	Cl	1.144859	0.180260	0.724207
Cl143	Cl	1.110062	-0.931053	0.225184
Cl144	Cl	1.610062	-0.431053	0.725184
H145	H	0.936845	-0.489979	0.806400
H146	H	1.436845	0.010021	1.306400
Cl147	Cl	0.923213	-0.782157	0.420188
Cl148	Cl	1.423213	-0.282157	0.920188
Cl149	Cl	1.224581	-0.202472	0.788256
Cl150	Cl	1.724581	0.297528	1.288256
H151	H	1.203625	-0.223424	0.956291
H152	H	1.703625	0.276576	1.456291
Cl153	Cl	1.111202	-0.781971	0.225300
Cl154	Cl	1.611202	-0.281971	0.725300
H155	H	0.992364	-0.792022	0.279249
H156	H	1.492364	-0.292022	0.779249
H157	H	0.936879	-0.489941	0.956178
H158	H	1.436879	0.010059	1.456178
H159	H	0.633928	-0.277867	0.481355
H160	H	1.133928	0.222133	0.981355
Cl161	Cl	1.177157	-0.249864	0.664407
Cl162	Cl	1.677157	0.250136	1.164407
H163	H	1.167830	-0.920538	0.462044
H164	H	1.667830	-0.420538	0.962044
H165	H	1.026082	-0.792636	0.503789
H166	H	1.526082	-0.292636	1.003789
Cl167	Cl	0.646653	-0.461256	0.264756
Cl168	Cl	1.146653	0.038744	0.764756
Cl169	Cl	1.172707	-0.781900	0.498815
Cl170	Cl	1.672707	-0.281900	0.998815
H171	H	0.507937	-0.451335	0.296588
H172	H	1.007937	0.048665	0.796588
H173	H	0.633952	-0.478826	0.401064
H174	H	1.133952	0.021174	0.901064
Cl175	Cl	0.495944	-0.502904	0.423117
Cl176	Cl	0.995944	-0.002904	0.923117
Cl177	Cl	0.494631	-0.250710	0.496597
Cl178	Cl	0.994631	0.249290	0.996597
Cl179	Cl	0.646622	-0.395227	0.537858
Cl180	Cl	1.146622	0.104773	1.037858
Cl181	Cl	1.033333	-0.931044	0.537891
Cl182	Cl	1.533333	-0.431044	1.037891
Cl183	Cl	0.960241	-0.929998	0.270105
Cl184	Cl	1.460241	-0.429998	0.770105
Cl185	Cl	1.177255	-0.249772	1.098380
Cl186	Cl	1.677255	0.250228	1.598380
H187	H	0.507675	-0.378894	0.509936
H188	H	1.007675	0.121106	1.009936
Cl189	Cl	1.214244	-0.930277	0.333497
Cl190	Cl	1.714244	-0.430277	0.833497
