data_functionalizedCrystal
_audit_creation_method	'MofGen! by Chris Wilmer'
_symmetry_space_group_name_H-M	'P1'
_symmetry_Int_Tables_number	1
_symmetry_cell_setting	triclinic
loop_
_symmetry_equiv_pos_as_xyz
  x,y,z
_cell_length_a	33.510554
_cell_length_b	33.509711
_cell_length_c	33.506470
_cell_angle_alpha	60.004186
_cell_angle_beta	60.008358
_cell_angle_gamma	59.994760
loop_
_atom_site_label
_atom_site_type_symbol
_atom_site_fract_x
_atom_site_fract_y
_atom_site_fract_z
O1	O	0.055430	-0.583081	0.487524
O2	O	0.388763	-0.249748	0.820857
O3	O	0.722096	0.083586	1.154191
O4	O	0.020931	-0.453975	0.392819
O5	O	0.354265	-0.120642	0.726153
O6	O	0.687598	0.212691	1.059486
O7	O	0.102693	-0.535652	0.392731
O8	O	0.436026	-0.202319	0.726064
O9	O	0.769359	0.131015	1.059397
O10	O	-0.026332	-0.501404	0.487613
O11	O	0.307002	-0.168071	0.820946
O12	O	0.640335	0.165262	1.154279
O13	O	0.129823	-0.508526	0.419767
O14	O	0.463157	-0.175193	0.753101
O15	O	0.796490	0.158140	1.086434
O16	O	0.048062	-0.426850	0.419856
O17	O	0.381395	-0.093516	0.753189
O18	O	0.714729	0.239817	1.086523
O19	O	0.082561	-0.555956	0.514561
O20	O	0.415894	-0.222622	0.847894
O21	O	0.749227	0.110711	1.181227
Cu22	Cu	0.067789	-0.488926	0.469677
Cu23	Cu	0.401122	-0.155593	0.803010
Cu24	Cu	0.734455	0.177741	1.136344
Cu25	Cu	0.035703	-0.521005	0.437703
Cu26	Cu	0.369037	-0.187672	0.771036
Cu27	Cu	0.702370	0.145662	1.104370
O28	O	0.000799	-0.474279	0.514649
O29	O	0.334133	-0.140946	0.847983
O30	O	0.667466	0.192388	1.181316
N31	N	0.090357	-0.466366	0.492168
N32	N	0.423690	-0.133033	0.825502
N33	N	0.757023	0.200300	1.158835
N34	N	0.013139	-0.543569	0.415212
N35	N	0.346473	-0.210235	0.748545
N36	N	0.679806	0.123098	1.081878
C37	C	0.143028	-0.279707	0.544737
C38	C	0.476361	0.053626	0.878070
C39	C	0.809695	0.386959	1.211403
C40	C	0.143165	-0.413746	0.678712
C41	C	0.476499	-0.080412	1.012045
C42	C	0.809832	0.252921	1.345379
C43	C	0.143043	-0.413725	0.544739
C44	C	0.476377	-0.080392	0.878072
C45	C	0.809710	0.252941	1.211405
C46	C	0.277090	-0.413694	0.544637
C47	C	0.610423	-0.080360	0.877970
C48	C	0.943756	0.252973	1.211303
C49	C	0.157791	-0.323929	0.559462
C50	C	0.491125	0.009404	0.892795
C51	C	0.824458	0.342737	1.226129
C52	C	0.157869	-0.398994	0.634489
C53	C	0.491203	-0.065660	0.967823
C54	C	0.824536	0.267673	1.301156
C55	C	0.232865	-0.398963	0.559407
C56	C	0.566199	-0.065630	0.892741
C57	C	0.899532	0.267704	1.226074
C58	C	0.157801	-0.398982	0.559463
C59	C	0.491135	-0.065648	0.892797
C60	C	0.824468	0.267685	1.226130
C61	C	0.124237	-0.223419	0.525994
C62	C	0.457570	0.109914	0.859327
C63	C	0.790904	0.443248	1.192660
C64	C	0.124262	-0.432490	0.525997
C65	C	0.457595	-0.099156	0.859330
C66	C	0.790928	0.234177	1.192664
C67	C	0.176583	-0.380217	0.578205
C68	C	0.509916	-0.046884	0.911538
C69	C	0.843249	0.286449	1.244872
C70	C	0.358938	-0.399566	0.501510
C71	C	0.692271	-0.066233	0.834843
C72	C	1.025604	0.267101	1.168177
C73	C	0.410104	-0.416609	0.484423
C74	C	0.743438	-0.083275	0.817756
C75	C	1.076771	0.250058	1.151089
C76	C	0.410135	-0.499402	0.515995
C77	C	0.743468	-0.166069	0.849329
C78	C	1.076801	0.167264	1.182662
C79	C	0.358969	-0.482358	0.533084
C80	C	0.692303	-0.149025	0.866417
C81	C	1.025636	0.184308	1.199751
C82	C	0.136554	-0.197822	0.475693
C83	C	0.469887	0.135511	0.809027
C84	C	0.803220	0.468844	1.142360
C85	C	0.119469	-0.146653	0.458657
C86	C	0.452802	0.186681	0.791990
C87	C	0.786135	0.520014	1.125323
C88	C	0.077755	-0.146680	0.542223
C89	C	0.411089	0.186654	0.875556
C90	C	0.744422	0.519987	1.208890
C91	C	0.094840	-0.197850	0.559260
C92	C	0.428173	0.135484	0.892593
C93	C	0.761507	0.468817	1.225926
C94	C	0.073954	-0.420144	0.538396
C95	C	0.407287	-0.086811	0.871729
C96	C	0.740620	0.246522	1.205062
C97	C	0.056884	-0.437203	0.521352
C98	C	0.390218	-0.103869	0.854686
C99	C	0.723551	0.229464	1.188019
C100	C	0.140427	-0.478952	0.479524
C101	C	0.473760	-0.145619	0.812857
C102	C	0.807094	0.187715	1.146190
C103	C	0.157498	-0.461894	0.496561
C104	C	0.490832	-0.128560	0.829894
C105	C	0.824165	0.204773	1.163228
C106	C	0.074158	-0.420182	0.760618
C107	C	0.407491	-0.086849	1.093951
C108	C	0.740825	0.246484	1.427284
C109	C	0.057149	-0.437256	0.811786
C110	C	0.390482	-0.103922	1.145119
C111	C	0.723815	0.229411	1.478453
C112	C	0.140732	-0.479014	0.811717
C113	C	0.474065	-0.145681	1.145050
C114	C	0.807399	0.187652	1.478384
C115	C	0.157740	-0.461942	0.760547
C116	C	0.491073	-0.128609	1.093881
C117	C	0.824407	0.204724	1.427214
C118	C	0.124452	-0.432525	0.734999
C119	C	0.457785	-0.099192	1.068332
C120	C	0.791119	0.234142	1.401666
C121	C	0.333372	-0.432439	0.525839
C122	C	0.666706	-0.099106	0.859172
C123	C	1.000039	0.234227	1.192506
C124	C	-0.020612	-0.577650	0.170305
C125	C	0.312721	-0.244317	0.503639
C126	C	0.646054	0.089017	0.836972
C127	C	-0.020943	-0.788098	0.380897
C128	C	0.312390	-0.454764	0.714231
C129	C	0.645724	-0.121431	1.047564
C130	C	-0.020912	-0.577638	0.380991
C131	C	0.312422	-0.244304	0.714324
C132	C	0.645755	0.089029	1.047657
C133	C	-0.231336	-0.577418	0.380585
C134	C	0.101997	-0.244084	0.713918
C135	C	0.435330	0.089249	1.047252
C136	C	-0.129735	-0.611383	0.346870
C137	C	0.203599	-0.278049	0.680203
C138	C	0.536932	0.055284	1.013537
C139	C	-0.054722	-0.611464	0.347017
C140	C	0.278611	-0.278130	0.680350
C141	C	0.611944	0.055203	1.013684
C142	C	-0.073450	-0.630202	0.328195
C143	C	0.259883	-0.296868	0.661528
C144	C	0.593216	0.036465	0.994862
C145	C	-0.087616	-0.712029	0.371239
C146	C	0.245717	-0.378696	0.704572
C147	C	0.579050	-0.045362	1.037905
C148	C	-0.070599	-0.763199	0.388315
C149	C	0.262735	-0.429866	0.721648
C150	C	0.596068	-0.096532	1.054982
C151	C	0.012191	-0.763282	0.356872
C152	C	0.345525	-0.429948	0.690205
C153	C	0.678858	-0.096615	1.023539
C154	C	-0.004828	-0.712113	0.339795
C155	C	0.328506	-0.378779	0.673128
C156	C	0.661839	-0.045446	1.006461
C157	C	-0.155381	-0.623711	0.397158
C158	C	0.177952	-0.290378	0.730491
C159	C	0.511286	0.042956	1.063825
C160	C	-0.206547	-0.606601	0.414133
C161	C	0.126786	-0.273268	0.747466
C162	C	0.460119	0.060066	1.080800
C163	C	-0.206417	-0.564839	0.330529
C164	C	0.126916	-0.231506	0.663862
C165	C	0.460249	0.101828	0.997196
C166	C	-0.155251	-0.581949	0.313554
C167	C	0.178082	-0.248616	0.646887
C168	C	0.511416	0.084718	0.980221
C169	C	-0.067051	-0.561160	0.334643
C170	C	0.266282	-0.227827	0.667976
C171	C	0.599615	0.105506	1.001309
C172	C	-0.050026	-0.544131	0.351759
C173	C	0.283307	-0.210797	0.685092
C174	C	0.616641	0.122536	1.018426
C175	C	-0.008343	-0.627704	0.393612
C176	C	0.324990	-0.294371	0.726945
C177	C	0.658323	0.038963	1.060279
C178	C	-0.025368	-0.644736	0.376502
C179	C	0.307965	-0.311402	0.709835
C180	C	0.641298	0.021931	1.043168
C181	C	-0.066922	-0.561168	0.246303
C182	C	0.266411	-0.227835	0.579636
C183	C	0.599744	0.105499	0.912969
C184	C	-0.049794	-0.544141	0.195134
C185	C	0.283539	-0.210807	0.528468
C186	C	0.616872	0.122526	0.861801
C187	C	-0.008048	-0.627719	0.195183
C188	C	0.325285	-0.294386	0.528516
C189	C	0.658618	0.038948	0.861849
C190	C	-0.025175	-0.644745	0.246352
C191	C	0.308158	-0.311412	0.579686
C192	C	0.641491	0.021922	0.913019
C193	C	-0.054614	-0.611468	0.271911
C194	C	0.278720	-0.278135	0.605244
C195	C	0.612053	0.055198	0.938578
C196	C	-0.054732	-0.686488	0.346980
C197	C	0.278601	-0.353155	0.680314
C198	C	0.611934	-0.019821	1.013647
C199	C	-0.002117	-0.558258	0.114025
C200	C	0.331217	-0.224925	0.447359
C201	C	0.664550	0.108409	0.780692
C202	C	-0.002879	-0.844379	0.399940
C203	C	0.330454	-0.511046	0.733274
C204	C	0.663788	-0.177712	1.066607
C205	C	-0.002504	-0.558243	0.399473
C206	C	0.330829	-0.224909	0.732806
C207	C	0.664163	0.108424	1.066139
C208	C	-0.287615	-0.558285	0.398601
C209	C	0.045718	-0.224951	0.731935
C210	C	0.379052	0.108382	1.065268
N211	N	0.434975	-0.466279	0.491900
N212	N	0.768308	-0.132945	0.825233
N213	N	1.101642	0.200388	1.158566
O214	O	0.591199	-0.470749	0.375150
O215	O	0.924533	-0.137415	0.708483
O216	O	1.257866	0.195918	1.041816
O217	O	0.591395	-0.565767	0.504116
O218	O	0.924728	-0.232433	0.837450
O219	O	1.258061	0.100900	1.170783
O220	O	0.591311	-0.565550	0.422329
O221	O	0.924644	-0.232217	0.755662
O222	O	1.257977	0.101117	1.088995
O223	O	0.591283	-0.470966	0.456937
O224	O	0.924617	-0.137632	0.790271
O225	O	1.257950	0.195701	1.123604
O226	O	0.510024	-0.538522	0.449509
O227	O	0.843357	-0.205189	0.782842
O228	O	1.176691	0.128144	1.116175
O229	O	0.510108	-0.538739	0.531297
O230	O	0.843442	-0.205406	0.864630
O231	O	1.176775	0.127928	1.197963
O232	O	0.509913	-0.443721	0.402330
O233	O	0.843246	-0.110388	0.735663
O234	O	1.176579	0.222946	1.068996
Cu235	Cu	0.502588	-0.488762	0.469295
Cu236	Cu	0.835922	-0.155429	0.802628
Cu237	Cu	1.169255	0.177904	1.135962
Cu238	Cu	0.598719	-0.520726	0.437151
Cu239	Cu	0.932052	-0.187392	0.770485
Cu240	Cu	1.265386	0.145941	1.103818
O241	O	0.509997	-0.443938	0.484117
O242	O	0.843330	-0.110605	0.817451
O243	O	1.176663	0.222729	1.150784
N244	N	0.666332	-0.543209	0.414541
N245	N	0.999666	-0.209876	0.747875
N246	N	1.332999	0.123457	1.081208
N247	N	0.090323	-0.121809	0.492157
N248	N	0.423656	0.211524	0.825490
N249	N	0.756990	0.544857	1.158824
O250	O	-0.026342	0.034503	0.487582
O251	O	0.306991	0.367837	0.820915
O252	O	0.640324	0.701170	1.154248
O253	O	0.102626	0.034543	0.392540
O254	O	0.435960	0.367876	0.725873
O255	O	0.769293	0.701209	1.059207
O256	O	0.020797	0.034507	0.392812
O257	O	0.354131	0.367840	0.726145
O258	O	0.687464	0.701174	1.059478
O259	O	0.055487	0.034539	0.487310
O260	O	0.388820	0.367872	0.820644
O261	O	0.722153	0.701206	1.153977
O262	O	0.047933	-0.046785	0.419900
O263	O	0.381267	0.286548	0.753233
O264	O	0.714600	0.619882	1.086566
O265	O	0.129763	-0.046749	0.419628
O266	O	0.463096	0.286584	0.752962
O267	O	0.796429	0.619917	1.086295
O268	O	0.000794	-0.046789	0.514670
O269	O	0.334127	0.286545	0.848003
O270	O	0.667460	0.619878	1.181337
Cu271	Cu	0.067756	-0.054192	0.469623
Cu272	Cu	0.401089	0.279142	0.802956
Cu273	Cu	0.734422	0.612475	1.136289
Cu274	Cu	0.035664	0.041946	0.437588
Cu275	Cu	0.368998	0.375279	0.770921
Cu276	Cu	0.702331	0.708612	1.104254
O277	O	0.082623	-0.046753	0.514399
O278	O	0.415956	0.286580	0.847732
O279	O	0.749289	0.619914	1.181065
N280	N	0.013091	0.109564	0.415054
N281	N	0.346424	0.442897	0.748387
N282	N	0.679758	0.776230	1.081721
N283	N	0.090671	-0.466416	0.836606
N284	N	0.424004	-0.133083	1.169939
N285	N	0.757337	0.200251	1.503273
O286	O	0.086120	-0.583065	0.992910
O287	O	0.419453	-0.249731	1.326244
O288	O	0.752786	0.083602	1.659577
O289	O	-0.008880	-0.454051	0.992954
O290	O	0.324453	-0.120718	1.326288
O291	O	0.657787	0.212615	1.659621
O292	O	-0.008658	-0.535864	0.992931
O293	O	0.324675	-0.202531	1.326265
O294	O	0.658009	0.130802	1.659598
O295	O	0.085897	-0.501252	0.992933
O296	O	0.419231	-0.167918	1.326267
O297	O	0.752564	0.165415	1.659600
O298	O	0.018407	-0.508749	0.911642
O299	O	0.351740	-0.175415	1.244976
O300	O	0.685074	0.157918	1.578309
O301	O	0.018185	-0.426936	0.911665
O302	O	0.351518	-0.093602	1.244999
O303	O	0.684852	0.239731	1.578332
O304	O	0.113185	-0.555949	0.911621
O305	O	0.446518	-0.222616	1.244955
O306	O	0.779851	0.110717	1.578288
Cu307	Cu	0.068156	-0.488967	0.904221
Cu308	Cu	0.401489	-0.155633	1.237554
Cu309	Cu	0.734823	0.177700	1.570888
Cu310	Cu	0.036148	-0.521034	1.000355
Cu311	Cu	0.369482	-0.187700	1.333688
Cu312	Cu	0.702815	0.145633	1.667021
O313	O	0.112963	-0.474136	0.911644
O314	O	0.446296	-0.140803	1.244978
O315	O	0.779629	0.192530	1.578311
N316	N	0.013633	-0.543590	1.067970
N317	N	0.346966	-0.210256	1.401303
N318	N	0.680300	0.123077	1.734636
C319	C	0.031262	-0.424144	0.393290
C320	C	0.364596	-0.090811	0.726623
C321	C	0.697929	0.242523	1.059957
C322	C	0.132513	-0.525291	0.393180
C323	C	0.465847	-0.191957	0.726513
C324	C	0.799180	0.141376	1.059846
C325	C	0.072229	-0.585787	0.514090
C326	C	0.405562	-0.252454	0.847423
C327	C	0.738896	0.080879	1.180756
C328	C	-0.029022	-0.484640	0.514200
C329	C	0.304311	-0.151307	0.847533
C330	C	0.637645	0.182026	1.180867
C331	C	0.550775	-0.565338	0.533954
C332	C	0.884108	-0.232004	0.867288
C333	C	1.217442	0.101329	1.200621
C334	C	0.550672	-0.565070	0.432670
C335	C	0.884006	-0.231736	0.766003
C336	C	1.217339	0.101597	1.099337
C337	C	0.550530	-0.444149	0.372492
C338	C	0.883863	-0.110816	0.705826
C339	C	1.217196	0.222517	1.039159
C340	C	0.550635	-0.444418	0.473776
C341	C	0.883969	-0.111085	0.807109
C342	C	1.217302	0.222248	1.140443
C343	C	0.132408	-0.005998	0.392963
C344	C	0.465741	0.327335	0.726297
C345	C	0.799074	0.660668	1.059630
C346	C	0.031106	-0.006142	0.393333
C347	C	0.364439	0.327191	0.726666
C348	C	0.697773	0.660524	1.059999
C349	C	-0.029021	-0.006147	0.514213
C350	C	0.304312	0.327186	0.847547
C351	C	0.637645	0.660520	1.180880
C352	C	0.072314	-0.006104	0.513878
C353	C	0.405648	0.327229	0.847211
C354	C	0.738981	0.660562	1.180544
C355	C	-0.008430	-0.424240	0.952316
C356	C	0.324903	-0.090907	1.285649
C357	C	0.658236	0.242426	1.618982
C358	C	-0.008150	-0.525550	0.952271
C359	C	0.325183	-0.192217	1.285605
C360	C	0.658517	0.141116	1.618938
C361	C	0.112735	-0.585760	0.952260
C362	C	0.446068	-0.252427	1.285593
C363	C	0.779402	0.080906	1.618927
C364	C	0.112461	-0.484444	0.952286
C365	C	0.445794	-0.151111	1.285620
C366	C	0.779127	0.182222	1.618953
H367	H	0.047048	-0.396226	0.739820
H368	H	0.380381	-0.062892	1.073154
H369	H	0.713715	0.270441	1.406487
H370	H	-0.038255	-0.387188	0.952329
H371	H	0.295078	-0.053854	1.285663
H372	H	0.628411	0.279479	1.618996
H373	H	0.550467	-0.414317	0.335455
H374	H	0.883801	-0.080984	0.668788
H375	H	1.217134	0.252350	1.002122
H376	H	-0.134369	-0.571905	0.272603
H377	H	0.198964	-0.238572	0.605936
H378	H	0.532298	0.094762	0.939270
O379	O	-0.078084	-0.006157	0.553733
O380	O	0.255249	0.327176	0.887066
O381	O	0.588583	0.660510	1.220399
H382	H	-0.073025	-0.039290	0.586167
H383	H	0.260308	0.294043	0.919500
H384	H	0.593642	0.627377	1.252834
H385	H	0.169570	-0.532590	0.363385
H386	H	0.502903	-0.199257	0.696718
H387	H	0.836237	0.134076	1.030051
H388	H	0.079744	-0.006095	0.543566
H389	H	0.413077	0.327239	0.876899
H390	H	0.746411	0.660572	1.210232
O391	O	-0.047483	-0.535335	0.952217
O392	O	0.285850	-0.202002	1.285550
O393	O	0.619184	0.131331	1.618884
H394	H	-0.033492	-0.573148	0.952188
H395	H	0.299841	-0.239815	1.285521
H396	H	0.633175	0.093518	1.618855
O397	O	0.152243	-0.634841	0.952253
O398	O	0.485576	-0.301508	1.285586
O399	O	0.818909	0.031825	1.618919
H400	H	0.138423	-0.658816	0.952254
H401	H	0.471756	-0.325483	1.285587
H402	H	0.805090	0.007850	1.618920
O403	O	-0.063279	-0.489883	0.338421
O404	O	0.270054	-0.156549	0.671754
O405	O	0.603388	0.176784	1.005087
H406	H	-0.029411	-0.480205	0.318213
H407	H	0.303922	-0.146872	0.651547
H408	H	0.637255	0.186462	0.984880
O409	O	0.550620	-0.405056	0.483579
O410	O	0.883953	-0.071722	0.816912
O411	O	1.217287	0.261611	1.150246
H412	H	0.550665	-0.419041	0.521386
H413	H	0.883998	-0.085708	0.854720
H414	H	1.217332	0.247625	1.188053
H415	H	0.023891	-0.387055	0.363546
H416	H	0.357224	-0.053722	0.696879
H417	H	0.690557	0.279611	1.030213
O418	O	0.151814	-0.474639	0.952279
O419	O	0.485147	-0.141305	1.285613
O420	O	0.818481	0.192028	1.618946
H421	H	0.137830	-0.436818	0.952287
H422	H	0.471164	-0.103485	1.285620
H423	H	0.804497	0.229848	1.618953
O424	O	0.081990	-0.634911	0.553495
O425	O	0.415324	-0.301578	0.886829
O426	O	0.748657	0.031756	1.220162
H427	H	0.091027	-0.663916	0.540326
H428	H	0.424361	-0.330583	0.873659
H429	H	0.757694	0.002750	1.206993
O430	O	0.002901	-0.423930	0.839415
O431	O	0.336234	-0.090597	1.172749
O432	O	0.669568	0.242737	1.506082
H433	H	-0.017385	-0.400600	0.813050
H434	H	0.315948	-0.067266	1.146384
H435	H	0.649282	0.266067	1.479717
O436	O	0.181364	-0.005679	0.353336
O437	O	0.514697	0.327654	0.686670
O438	O	0.848030	0.660988	1.020003
H439	H	0.205325	-0.005588	0.367108
H440	H	0.538658	0.327745	0.700442
H441	H	0.871992	0.661079	1.033775
H442	H	0.023675	-0.006147	0.363643
H443	H	0.357008	0.327187	0.696976
H444	H	0.690341	0.660520	1.030310
H445	H	0.198696	-0.471996	0.739692
H446	H	0.532029	-0.138663	1.073025
H447	H	0.865362	0.194670	1.406358
O448	O	0.176634	-0.510739	0.839275
O449	O	0.509967	-0.177406	1.172608
O450	O	0.843300	0.155928	1.505942
H451	H	0.214465	-0.516456	0.812865
H452	H	0.547798	-0.183123	1.146198
H453	H	0.881131	0.150211	1.479531
H454	H	0.550685	-0.594783	0.425263
H455	H	0.884019	-0.261449	0.758597
H456	H	1.217352	0.071884	1.091930
H457	H	0.046887	-0.396202	0.562361
H458	H	0.380221	-0.062868	0.895695
H459	H	0.713554	0.270465	1.229028
O460	O	-0.078106	-0.474976	0.553669
O461	O	0.255227	-0.141643	0.887002
O462	O	0.588560	0.191690	1.220336
H463	H	-0.107138	-0.465946	0.540539
H464	H	0.226195	-0.132613	0.873872
H465	H	0.559528	0.200720	1.207206
O466	O	0.002624	-0.423895	0.534724
O467	O	0.335957	-0.090561	0.868057
O468	O	0.669290	0.242772	1.201391
H469	H	-0.017621	-0.400590	0.558063
H470	H	0.315712	-0.067257	0.891396
H471	H	0.649045	0.266076	1.224730
O472	O	0.550842	-0.604854	0.583018
O473	O	0.884176	-0.271520	0.916351
O474	O	1.217509	0.061813	1.249684
H475	H	0.583990	-0.613794	0.589924
H476	H	0.917323	-0.280461	0.923257
H477	H	1.250657	0.052872	1.256590
O478	O	0.176260	-0.510657	0.447761
O479	O	0.509594	-0.177323	0.781095
O480	O	0.842927	0.156010	1.114428
H481	H	0.199606	-0.544461	0.468027
H482	H	0.532940	-0.211127	0.801361
H483	H	0.866273	0.122206	1.134694
O484	O	0.211759	-0.475211	0.483196
O485	O	0.545093	-0.141878	0.816530
O486	O	0.878426	0.191456	1.149863
H487	H	0.232003	-0.498527	0.459870
H488	H	0.565336	-0.165194	0.793203
H489	H	0.898669	0.168139	1.126536
H490	H	0.338156	-0.509129	0.552896
H491	H	0.671489	-0.175796	0.886229
H492	H	1.004823	0.157537	1.219563
H493	H	-0.227429	-0.616637	0.455084
H494	H	0.105904	-0.283304	0.788417
H495	H	0.439237	0.050030	1.121751
O496	O	0.437741	-0.553244	0.523814
O497	O	0.771074	-0.219911	0.857148
O498	O	1.104408	0.113423	1.190481
H499	H	0.427901	-0.565586	0.505756
H500	H	0.761234	-0.232253	0.839089
H501	H	1.094568	0.101080	1.172423
O502	O	0.437684	-0.381154	0.458182
O503	O	0.771018	-0.047821	0.791515
O504	O	1.104351	0.285512	1.124848
H505	H	0.427835	-0.353794	0.424975
H506	H	0.761168	-0.020461	0.758309
H507	H	1.094502	0.312873	1.091642
O508	O	0.331327	-0.345724	0.493704
O509	O	0.664661	-0.012391	0.827037
O510	O	0.997994	0.320943	1.160371
H511	H	0.341118	-0.324901	0.453942
H512	H	0.674451	0.008432	0.787275
H513	H	1.007785	0.341766	1.120608
O514	O	0.168258	-0.225402	0.439815
O515	O	0.501591	0.107932	0.773148
O516	O	0.834925	0.441265	1.106482
H517	H	0.173945	-0.199005	0.401974
H518	H	0.507278	0.134329	0.735308
H519	H	0.840612	0.467662	1.068641
H520	H	0.129496	-0.125810	0.417697
H521	H	0.462830	0.207523	0.751030
H522	H	0.796163	0.540856	1.084364
H523	H	0.053825	-0.125861	0.569312
H524	H	0.387158	0.207472	0.902646
H525	H	0.720491	0.540806	1.235979
H526	H	0.084809	-0.218687	0.600218
H527	H	0.418142	0.114646	0.933551
H528	H	0.751476	0.447980	1.266884
H529	H	-0.059824	-0.503179	0.174290
H530	H	0.273509	-0.169846	0.507624
H531	H	0.606842	0.163487	0.840957
H532	H	-0.090896	-0.534066	0.267110
H533	H	0.242438	-0.200733	0.600444
H534	H	0.575771	0.132600	0.933777
H535	H	0.015913	-0.654818	0.174378
H536	H	0.349246	-0.321485	0.507711
H537	H	0.682579	0.011848	0.841045
H538	H	-0.090949	-0.534065	0.310634
H539	H	0.242384	-0.200732	0.643967
H540	H	0.575717	0.132601	0.977300
O541	O	-0.011896	-0.699001	0.273974
O542	O	0.321437	-0.365668	0.607307
O543	O	0.654770	-0.032334	0.940641
H544	H	-0.025643	-0.715744	0.264117
H545	H	0.307690	-0.382411	0.597450
H546	H	0.641023	-0.049077	0.930783
O547	O	0.023314	-0.663593	0.425413
O548	O	0.356648	-0.330260	0.758747
O549	O	0.689981	0.003074	1.092080
H550	H	0.057118	-0.686933	0.405145
H551	H	0.390451	-0.353600	0.738478
H552	H	0.723784	-0.020266	1.071811
O553	O	-0.012068	-0.698991	0.389833
O554	O	0.321265	-0.365657	0.723166
O555	O	0.654598	-0.032324	1.056500
H556	H	-0.025880	-0.715740	0.430172
H557	H	0.307453	-0.382406	0.763505
H558	H	0.640786	-0.049073	1.096839
O559	O	0.030640	-0.684561	0.313634
O560	O	0.363973	-0.351228	0.646967
O561	O	0.697307	-0.017895	0.980301
H562	H	0.068200	-0.710978	0.311515
H563	H	0.401533	-0.377645	0.644848
H564	H	0.734866	-0.044312	0.978182
O565	O	0.066017	-0.790926	0.349126
O566	O	0.399351	-0.457592	0.682459
O567	O	0.732684	-0.124259	1.015792
H568	H	0.086027	-0.764569	0.329384
H569	H	0.419360	-0.431235	0.662717
H570	H	0.752694	-0.097902	0.996050
H571	H	-0.128252	-0.691169	0.377093
H572	H	0.205081	-0.357836	0.710427
H573	H	0.538415	-0.024503	1.043760
O574	O	-0.106065	-0.790751	0.414484
O575	O	0.227268	-0.457417	0.747817
O576	O	0.560602	-0.124084	1.081151
H577	H	-0.143627	-0.764335	0.416616
H578	H	0.189706	-0.431002	0.749950
H579	H	0.523040	-0.097668	1.083283
H580	H	-0.134607	-0.647683	0.424287
H581	H	0.198727	-0.314350	0.757620
H582	H	0.532060	0.018984	1.090953
H583	H	-0.227194	-0.540877	0.303400
H584	H	0.106140	-0.207544	0.636733
H585	H	0.439473	0.125790	0.970067
