data_functionalizedCrystal
_audit_creation_method	'MofGen! by Chris Wilmer'
_symmetry_space_group_name_H-M	'P1'
_symmetry_Int_Tables_number	1
_symmetry_cell_setting	triclinic
loop_
_symmetry_equiv_pos_as_xyz
  x,y,z
_cell_length_a	31.640172
_cell_length_b	20.919309
_cell_length_c	31.640172
_cell_angle_alpha	57.453156
_cell_angle_beta	90.011976
_cell_angle_gamma	62.590278
loop_
_atom_site_label
_atom_site_type_symbol
_atom_site_fract_x
_atom_site_fract_y
_atom_site_fract_z
Zr1	Zr	0.425210	0.700661	-0.073424
Zr2	Zr	0.925210	1.200661	0.426576
O3	O	0.361155	0.834214	-0.144346
O4	O	0.861155	1.334214	0.355654
O5	O	0.442463	0.567103	-0.049300
O6	O	0.942463	1.067103	0.450700
O7	O	0.445896	0.700637	-0.140899
O8	O	0.945896	1.200637	0.359101
O9	O	0.357725	0.700701	0.016798
O10	O	0.857725	1.200701	0.516798
O11	O	0.515453	0.700623	-0.140889
O12	O	1.015453	1.200623	0.359111
O13	O	0.357722	0.700680	-0.052747
O14	O	0.857722	1.200680	0.447253
O15	O	0.509312	0.461755	0.022964
O16	O	1.009312	0.961755	0.522964
O17	O	0.363866	0.939569	-0.147056
O18	O	0.863866	1.439569	0.352944
O19	O	0.504610	0.622029	-0.041883
O20	O	1.004610	1.122029	0.458117
O21	O	0.452703	0.622055	0.010011
O22	O	0.952703	1.122055	0.510011
O23	O	0.456745	0.779274	-0.097835
O24	O	0.956745	1.279274	0.402165
O25	O	0.404838	0.779299	-0.045941
O26	O	0.904838	1.279299	0.454059
Zr27	Zr	0.536150	0.700673	0.037508
Zr28	Zr	1.036150	1.200673	0.537508
Zr29	Zr	0.536145	0.700640	-0.073408
Zr30	Zr	1.036145	1.200640	0.426592
Zr31	Zr	0.425215	0.700695	0.037493
Zr32	Zr	0.925215	1.200695	0.537493
Zr33	Zr	0.429534	0.868690	-0.077745
Zr34	Zr	0.929534	1.368690	0.422255
Zr35	Zr	0.531826	0.532644	0.041829
Zr36	Zr	1.031826	1.032644	0.541829
O37	O	0.518897	0.834232	0.013385
O38	O	1.018897	1.334232	0.513385
O39	O	0.518890	0.834184	-0.144324
O40	O	1.018890	1.334184	0.355676
O41	O	0.361162	0.834262	0.013363
O42	O	0.861162	1.334262	0.513363
O43	O	0.600206	0.567120	0.108430
O44	O	1.100206	1.067120	0.608430
O45	O	0.600198	0.567072	-0.049279
O46	O	1.100198	1.067072	0.450721
O47	O	0.442471	0.567150	0.108409
O48	O	0.942471	1.067150	0.608409
O49	O	0.603635	0.700633	-0.052713
O50	O	1.103635	1.200633	0.447287
O51	O	0.515464	0.700698	0.104983
O52	O	1.015464	1.200698	0.604983
O53	O	0.445908	0.700711	0.104974
O54	O	0.945908	1.200711	0.604974
O55	O	0.603639	0.700654	0.016832
O56	O	1.103639	1.200654	0.516832
O57	O	0.452044	0.939552	-0.147043
O58	O	0.952044	1.439552	0.352957
O59	O	0.509316	0.461782	0.111128
O60	O	1.009316	0.961782	0.611128
O61	O	0.597495	0.461765	0.111140
O62	O	1.097495	0.961765	0.611140
O63	O	0.597491	0.461738	0.022976
O64	O	1.097491	0.961738	0.522976
O65	O	0.363870	0.939596	-0.058892
O66	O	0.863870	1.439596	0.441108
O67	O	0.452048	0.939579	-0.058880
O68	O	0.952048	1.439579	0.441120
O69	O	0.504615	0.622060	0.061919
O70	O	1.004615	1.122060	0.561919
O71	O	0.556522	0.622035	0.010025
O72	O	1.056522	1.122035	0.510025
O73	O	0.508657	0.779280	-0.045927
O74	O	1.008657	1.279280	0.454073
O75	O	0.456750	0.779305	0.005967
O76	O	0.956750	1.279305	0.505967
C77	C	0.475272	0.490488	-0.012553
C78	C	0.975272	0.990488	0.487447
C79	C	0.473436	0.419156	-0.010718
C80	C	0.973436	0.919156	0.489282
C81	C	0.341918	0.700694	-0.017977
C82	C	0.841918	1.200694	0.482023
C83	C	0.294823	0.700703	-0.017984
C84	C	0.794823	1.200703	0.482016
C85	C	0.499667	0.385630	-0.036944
C86	C	0.999667	0.885630	0.463056
C87	C	0.497944	0.318601	-0.035215
C88	C	0.997944	0.818601	0.464785
C89	C	0.469986	0.285102	-0.007263
C90	C	0.969986	0.785102	0.492737
C91	C	0.443754	0.318631	0.018966
C92	C	0.943754	0.818631	0.518966
C93	C	0.445481	0.385654	0.017240
C94	C	0.945481	0.885654	0.517240
C95	C	0.463419	0.082731	-0.000694
C96	C	0.963419	0.582731	0.499306
C97	C	0.461693	0.015704	0.001028
C98	C	0.961693	0.515704	0.501028
C99	C	0.515884	0.015677	-0.053152
C100	C	1.015884	0.515677	0.446848
C101	C	0.517606	0.082706	-0.054878
C102	C	1.017606	0.582706	0.445122
C103	C	0.491376	0.116225	-0.028647
C104	C	0.991376	0.616225	0.471353
C105	C	0.468222	0.216590	-0.005497
C106	C	0.968222	0.716590	0.494503
C107	C	0.493143	0.184733	-0.030410
C108	C	0.993143	0.684733	0.469590
C109	C	0.027801	0.618578	0.011259
C110	C	0.527801	1.118578	0.511259
C111	C	-0.149185	0.618563	0.011270
C112	C	0.350815	1.118563	0.511270
O113	O	-0.150822	0.548756	0.036128
O114	O	0.349178	1.048756	0.536128
N115	N	-0.196300	0.700642	-0.017937
N116	N	0.303700	1.200642	0.482063
C117	C	-0.199167	0.782732	-0.047146
C118	C	0.300833	1.282732	0.452854
O119	O	-0.243302	0.852545	-0.071984
O120	O	0.256698	1.352545	0.428016
C121	C	-0.022182	0.782746	-0.047154
C122	C	0.477818	1.282746	0.452846
C123	C	0.024932	0.700661	-0.017949
C124	C	0.524932	1.200661	0.482051
C125	C	0.074913	0.536500	0.040462
C126	C	0.574913	1.036500	0.540462
C127	C	0.119157	0.536505	0.040457
C128	C	0.619157	1.036505	0.540457
C129	C	0.116288	0.618588	0.011249
C130	C	0.616288	1.118588	0.511249
C131	C	0.069176	0.700666	-0.017954
C132	C	0.569176	1.200666	0.482046
C133	C	-0.025050	0.864835	-0.076359
C134	C	0.474950	1.364835	0.423641
C135	C	0.019201	0.864831	-0.076357
C136	C	0.519201	1.364831	0.423643
C137	C	0.066315	0.782746	-0.047153
C138	C	0.566315	1.282746	0.452847
C139	C	0.110550	0.782754	-0.047167
C140	C	0.610550	1.282754	0.452833
N141	N	0.157665	0.700674	-0.017960
N142	N	0.657665	1.200674	0.482040
C143	C	0.160534	0.618591	0.011248
C144	C	0.660534	1.118591	0.511248
C145	C	-0.292085	0.782718	-0.047141
C146	C	0.207915	1.282718	0.452859
C147	C	-0.336331	0.782715	-0.047140
C148	C	0.163669	1.282715	0.452860
C149	C	-0.286345	0.618545	0.011277
C150	C	0.213655	1.118545	0.511277
C151	C	-0.242099	0.618550	0.011272
C152	C	0.257901	1.118550	0.511272
C153	C	-0.244970	0.700639	-0.017934
C154	C	0.255030	1.200639	0.482066
C155	C	0.253446	0.618608	0.011234
C156	C	0.753446	1.118608	0.511234
C157	C	0.297692	0.618620	0.011225
C158	C	0.797692	1.118620	0.511225
C159	C	0.247702	0.782788	-0.047190
C160	C	0.747702	1.282788	0.452810
C161	C	0.203461	0.782777	-0.047183
C162	C	0.703461	1.282777	0.452817
C163	C	0.206336	0.700679	-0.017967
C164	C	0.706336	1.200679	0.482033
O165	O	0.112226	0.852524	-0.072007
O166	O	0.612226	1.352524	0.427993
O167	O	0.204673	0.548789	0.036091
O168	O	0.704673	1.048789	0.536091
C169	C	-0.016443	0.618574	0.011264
C170	C	0.483557	1.118574	0.511264
C171	C	-0.063555	0.700652	-0.017938
C172	C	0.436445	1.200652	0.482062
C173	C	-0.066424	0.782735	-0.047146
C174	C	0.433576	1.282735	0.452854
C175	C	-0.107801	0.700649	-0.017937
C176	C	0.392199	1.200649	0.482063
C177	C	-0.104932	0.618566	0.011271
C178	C	0.395068	1.118566	0.511271
C179	C	-0.057817	0.536486	0.040478
C180	C	0.442183	1.036486	0.540478
C181	C	-0.013574	0.536491	0.040473
C182	C	0.486426	1.036491	0.540473
C183	C	-0.113539	0.864815	-0.076353
C184	C	0.386461	1.364815	0.423647
C185	C	-0.157780	0.864803	-0.076346
C186	C	0.342220	1.364803	0.423654
C187	C	-0.154911	0.782720	-0.047138
C188	C	0.345089	1.282720	0.452862
C189	C	0.619443	0.700641	-0.017939
C190	C	1.119443	1.200641	0.482061
C191	C	0.666538	0.700632	-0.017932
C192	C	1.166538	1.200632	0.482068
C193	C	0.480674	0.700625	-0.156698
C194	C	0.980674	1.200625	0.343302
C195	C	0.480672	0.700611	-0.203784
C196	C	0.980672	1.200611	0.296216
C197	C	0.486089	0.910846	-0.023363
C198	C	0.986089	1.410846	0.476637
C199	C	0.487924	0.982179	-0.025198
C200	C	0.987924	1.482179	0.474802
C201	C	0.505677	0.618580	-0.510885
C202	C	1.005677	1.118580	-0.010885
C203	C	0.505668	0.618553	-0.333885
C204	C	1.005668	1.118553	0.166115
O205	O	0.526932	0.548744	-0.286162
O206	O	1.026932	1.048744	0.213838
N207	N	0.480681	0.700631	-0.340958
N208	N	0.980681	1.200631	0.159042
C209	C	0.455698	0.782722	-0.392285
C210	C	0.955698	1.282722	0.107715
O211	O	0.434449	0.852533	-0.394239
O212	O	0.934449	1.352533	0.105761
C213	C	0.455709	0.782748	-0.569284
C214	C	0.955709	1.282748	-0.069284
C215	C	0.480694	0.700664	-0.562207
C216	C	0.980694	1.200664	-0.062207
C217	C	0.530659	0.536503	-0.503811
C218	C	1.030659	1.036503	-0.003811
C219	C	0.530659	0.536511	-0.548058
C220	C	1.030659	1.036511	-0.048058
C221	C	0.505676	0.618595	-0.599380
C222	C	1.005676	1.118595	-0.099380
C223	C	0.480693	0.700672	-0.606455
C224	C	0.980693	1.200672	-0.106455
C225	C	0.430729	0.864838	-0.620610
C226	C	0.930729	1.364838	-0.120610
C227	C	0.430735	0.864837	-0.664860
C228	C	0.930735	1.364837	-0.164860
C229	C	0.455720	0.782753	-0.657783
C230	C	0.955720	1.282753	-0.157783
C231	C	0.455710	0.782764	-0.702024
C232	C	0.955710	1.282764	-0.202024
N233	N	0.480697	0.700686	-0.694952
N234	N	0.980697	1.200686	-0.194952
C235	C	0.505679	0.618602	-0.643630
C236	C	1.005679	1.118602	-0.143630
C237	C	0.455692	0.782702	-0.299356
C238	C	0.955692	1.282702	0.200644
C239	C	0.455689	0.782696	-0.255107
C240	C	0.955689	1.282696	0.244893
C241	C	0.505660	0.618526	-0.196709
C242	C	1.005660	1.118526	0.303291
C243	C	0.505660	0.618534	-0.240960
C244	C	1.005660	1.118534	0.259040
C245	C	0.480679	0.700624	-0.292283
C246	C	0.980679	1.200624	0.207717
C247	C	0.505676	0.618624	-0.736555
C248	C	1.005676	1.118624	-0.236555
C249	C	0.505672	0.618639	-0.780809
C250	C	1.005672	1.118639	-0.280809
C251	C	0.455703	0.782807	-0.839202
C252	C	0.955703	1.282807	-0.339202
C253	C	0.455705	0.782793	-0.794952
C254	C	0.955705	1.282793	-0.294952
C255	C	0.480695	0.700694	-0.743627
C256	C	0.980695	1.200694	-0.243627
O257	O	0.434461	0.852536	-0.749761
O258	O	0.934461	1.352536	-0.249761
O259	O	0.526934	0.548800	-0.641687
O260	O	1.026934	1.048800	-0.141687
C261	C	0.505677	0.618572	-0.466637
C262	C	1.005677	1.118572	0.033363
C263	C	0.480694	0.700649	-0.473712
C264	C	0.980694	1.200649	0.026288
C265	C	0.455711	0.782734	-0.525034
C266	C	0.955711	1.282734	-0.025034
C267	C	0.480691	0.700643	-0.429462
C268	C	0.980691	1.200643	0.070538
C269	C	0.505674	0.618558	-0.378140
C270	C	1.005674	1.118558	0.121860
C271	C	0.530660	0.536480	-0.371068
C272	C	1.030660	1.036480	0.128932
C273	C	0.530660	0.536488	-0.415315
C274	C	1.030660	1.036488	0.084685
C275	C	0.430725	0.864812	-0.532106
C276	C	0.930725	1.364812	-0.032106
C277	C	0.430727	0.864797	-0.487856
C278	C	0.930727	1.364797	0.012144
C279	C	0.455710	0.782713	-0.436534
C280	C	0.955710	1.282713	0.063466
C281	C	0.480687	0.700709	0.120782
C282	C	0.980687	1.200709	0.620782
C283	C	0.480689	0.700723	0.167869
C284	C	0.980689	1.200723	0.667869
C285	C	0.614034	0.490462	-0.012533
C286	C	1.114034	0.990462	0.487467
C287	C	0.659293	0.419120	-0.010692
C288	C	1.159293	0.919120	0.489308
C289	C	0.475278	0.490530	0.126187
C290	C	0.975278	0.990530	0.626187
C291	C	0.473445	0.419212	0.175109
C292	C	0.973445	0.919212	0.675109
C293	C	0.614041	0.490504	0.126206
C294	C	1.114041	0.990504	0.626206
C295	C	0.659302	0.419176	0.175134
C296	C	1.159302	0.919176	0.675134
C297	C	0.347320	0.910831	-0.162122
C298	C	0.847320	1.410831	0.337878
C299	C	0.302058	0.982158	-0.211050
C300	C	0.802058	1.482158	0.288950
C301	C	0.347326	0.910872	-0.023382
C302	C	0.847326	1.410872	0.476618
C303	C	0.302067	0.982214	-0.025223
C304	C	0.802067	1.482214	0.474777
C305	C	0.486082	0.910804	-0.162103
C306	C	0.986082	1.410804	0.337897
C307	C	0.487916	0.982123	-0.211024
C308	C	0.987916	1.482123	0.288976
C309	C	0.653450	0.385614	-0.036928
C310	C	1.153450	0.885614	0.463072
C311	C	0.695972	0.318590	-0.035209
C312	C	1.195972	0.818590	0.464791
C313	C	0.744336	0.285069	-0.007250
C314	C	1.244336	0.785069	0.492750
C315	C	0.750179	0.318582	0.018986
C316	C	1.250179	0.818582	0.518986
C317	C	0.707658	0.385609	0.017263
C318	C	1.207658	0.885609	0.517263
C319	C	0.499681	0.385723	0.225183
C320	C	0.999681	0.885723	0.725183
C321	C	0.497957	0.318721	0.271154
C322	C	0.997957	0.818721	0.771154
C323	C	0.469998	0.285204	0.267049
C324	C	0.969998	0.785204	0.767049
C325	C	0.443759	0.318700	0.216970
C326	C	0.943759	0.818700	0.716970
C327	C	0.445481	0.385705	0.171000
C328	C	0.945481	0.885705	0.671000
C329	C	0.707657	0.385667	0.171023
C330	C	1.207657	0.885667	0.671023
C331	C	0.750189	0.318656	0.216992
C332	C	1.250189	0.818656	0.716992
C333	C	0.744366	0.285152	0.267071
C334	C	1.244366	0.785152	0.767071
C335	C	0.696006	0.318668	0.271181
C336	C	1.196006	0.818668	0.771181
C337	C	0.653475	0.385682	0.225213
C338	C	1.153475	0.885682	0.725213
C339	C	0.253704	1.015676	-0.206939
C340	C	0.753704	1.515676	0.293061
C341	C	0.211172	1.082707	-0.252908
C342	C	0.711172	1.582707	0.247092
C343	C	0.216996	1.116215	-0.302988
C344	C	0.716996	1.616215	0.197012
C345	C	0.265355	1.082694	-0.307097
C346	C	0.765355	1.582694	0.192903
C347	C	0.307886	1.015669	-0.261129
C348	C	0.807886	1.515669	0.238871
C349	C	0.307911	1.015727	0.001007
C350	C	0.807911	1.515727	0.501007
C351	C	0.265389	1.082769	-0.000725
C352	C	0.765389	1.582769	0.499275
C353	C	0.217025	1.116293	-0.028684
C354	C	0.717025	1.616293	0.471316
C355	C	0.211182	1.082778	-0.054918
C356	C	0.711182	1.582778	0.445082
C357	C	0.253703	1.015741	-0.053189
C358	C	0.753703	1.515741	0.446811
C359	C	0.515879	1.015618	-0.206903
C360	C	1.015879	1.515618	0.293097
C361	C	0.517611	1.082620	-0.252865
C362	C	1.017611	1.582620	0.247135
C363	C	0.491378	1.116131	-0.302949
C364	C	0.991378	1.616131	0.197051
C365	C	0.463414	1.082629	-0.307069
C366	C	0.963414	1.582629	0.192931
C367	C	0.461684	1.015623	-0.261107
C368	C	0.961684	1.515623	0.238893
H369	H	0.522431	0.412904	-0.059708
H370	H	1.022431	0.912904	0.440292
H371	H	0.519303	0.291304	-0.056570
H372	H	1.019303	0.791304	0.443430
H373	H	0.519326	0.291457	0.311926
H374	H	1.019326	0.791457	0.811926
H375	H	0.336054	0.551773	0.035008
H376	H	0.836054	1.051773	0.535008
H377	H	0.270091	1.109985	-0.347877
H378	H	0.770091	1.609985	0.152123
H379	H	0.347258	0.988379	-0.264482
H380	H	0.847258	1.488379	0.235518
H381	H	0.347287	0.988437	0.023779
H382	H	0.847287	1.488437	0.523779
Br383	Br	0.587852	0.431147	0.230801
Br384	Br	1.087852	0.931147	0.730801
Br385	Br	0.273330	1.128238	0.034883
Br386	Br	0.773330	1.628238	0.534883
H387	H	0.182360	1.170791	-0.340414
H388	H	0.682360	1.670791	0.159586
H389	H	0.492790	1.170692	-0.340370
H390	H	0.992790	1.670692	0.159630
H391	H	0.438912	0.988359	-0.264470
H392	H	0.938912	1.488359	0.235530
Br393	Br	0.467667	0.194268	0.329443
Br394	Br	0.967667	0.694268	0.829443
Br395	Br	0.430289	0.171109	0.032447
Br396	Br	0.930289	0.671109	0.532447
H397	H	0.691271	0.291379	0.311961
H398	H	1.191271	0.791379	0.811961
Br399	Br	0.688031	0.273122	-0.070816
Br400	Br	1.188031	0.773122	0.429184
H401	H	0.540371	0.109979	-0.077639
H402	H	1.040371	0.609979	0.422361
H403	H	0.182406	1.170879	-0.030088
H404	H	0.682406	1.670879	0.469912
H405	H	0.778956	0.230490	-0.005852
H406	H	1.278956	0.730490	0.494148
H407	H	0.712408	0.412936	0.130251
H408	H	1.212408	0.912936	0.630251
Br409	Br	0.537631	0.431190	0.230768
Br410	Br	1.037631	0.931190	0.730768
Br411	Br	0.257356	0.507189	0.050884
Br412	Br	0.757356	1.007189	0.550884
Br413	Br	0.551480	-0.029817	-0.088749
Br414	Br	1.051480	0.470183	0.411251
Br415	Br	0.539578	0.507232	-0.771200
Br416	Br	1.039578	1.007232	-0.271200
H417	H	0.614073	0.412907	-0.059701
H418	H	1.114073	0.912907	0.440299
Br419	Br	0.245786	0.970213	-0.138981
Br420	Br	0.745786	1.470213	0.361019
H421	H	0.420996	0.291401	0.213636
H422	H	0.920996	0.791401	0.713636
H423	H	0.157516	0.469663	0.064236
H424	H	0.657516	0.969663	0.564236
Br425	Br	0.409872	0.431143	0.103044
Br426	Br	0.909872	0.931143	0.603044
H427	H	0.171800	1.109988	-0.249552
H428	H	0.671800	1.609988	0.250448
H429	H	0.424119	0.412952	0.038595
H430	H	0.924119	0.912952	0.538595
Br431	Br	0.245764	0.970263	-0.088789
Br432	Br	0.745764	1.470263	0.411211
H433	H	0.171798	1.110083	-0.077683
H434	H	0.671798	1.610083	0.422317
H435	H	0.515909	0.212005	-0.053167
H436	H	1.015909	0.712005	0.446833
H437	H	0.537242	0.988344	-0.166127
H438	H	1.037242	1.488344	0.333873
H439	H	0.789562	0.291374	0.213636
H440	H	1.289562	0.791374	0.713636
H441	H	0.442063	0.110011	0.020668
H442	H	0.942063	0.610011	0.520668
Br443	Br	0.078819	0.425086	0.080110
Br444	Br	0.578819	0.925086	0.580110
Br445	Br	0.396815	0.976224	-0.601755
Br446	Br	0.896815	1.476224	-0.101755
H447	H	0.779001	0.230585	0.304497
H448	H	1.279001	0.730585	0.804497
H449	H	0.410386	0.931679	-0.626383
H450	H	0.910386	1.431679	-0.126383
Br451	Br	0.555562	1.128076	-0.247261
Br452	Br	1.055562	1.628076	0.252739
Br453	Br	0.815820	0.273076	0.056929
Br454	Br	1.315820	0.773076	0.556929
Br455	Br	0.427809	1.128125	-0.375044
Br456	Br	0.927809	1.628125	0.124956
Br457	Br	0.423745	-0.029752	0.038962
Br458	Br	0.923745	0.470248	0.538962
H459	H	-0.203739	0.551709	0.035058
H460	H	0.296261	1.051709	0.535058
Br461	Br	0.405820	0.273154	0.056912
Br462	Br	0.905820	0.773154	0.556912
H463	H	-0.284016	0.551710	0.035056
H464	H	0.215984	1.051710	0.535056
H465	H	-0.374690	0.849556	-0.070928
H466	H	0.125310	1.349556	0.429072
Br467	Br	-0.295992	0.894136	-0.086783
Br468	Br	0.204008	1.394136	0.413217
H469	H	-0.063406	0.931677	-0.100140
H470	H	0.436594	1.431677	0.399860
H471	H	0.016857	0.931679	-0.100135
H472	H	0.516857	1.431679	0.399865
H473	H	0.245375	0.849618	-0.070972
H474	H	0.745375	1.349618	0.429028
Br475	Br	0.139519	0.894178	-0.086830
Br476	Br	0.639519	1.394178	0.413170
H477	H	0.024785	0.469649	0.064255
H478	H	0.524785	0.969649	0.564255
H479	H	-0.055488	0.469651	0.064257
H480	H	0.444512	0.969651	0.564257
H481	H	-0.115882	0.931658	-0.100140
H482	H	0.384118	1.431658	0.399860
Br483	Br	-0.221719	0.976215	-0.115988
Br484	Br	0.278281	1.476215	0.384012
Br485	Br	0.539595	0.507203	-0.666906
Br486	Br	1.039595	1.007203	-0.166906
H487	H	0.551006	0.469656	-0.462024
H488	H	1.051006	0.969656	0.037976
Br489	Br	0.564569	0.425106	-0.538445
Br490	Br	1.064569	0.925106	-0.038445
Br491	Br	0.564568	0.425083	-0.405702
Br492	Br	1.064568	0.925083	0.094298
Br493	Br	0.539569	0.507131	-0.231350
Br494	Br	1.039569	1.007131	0.268650
H495	H	0.410393	0.931686	-0.706649
H496	H	0.910393	1.431686	-0.206649
H497	H	0.526000	0.551690	-0.154914
H498	H	1.026000	1.051690	0.345086
H499	H	0.435348	0.849553	-0.341144
H500	H	0.935348	1.349553	0.158856
Br501	Br	0.421766	0.894099	-0.264718
Br502	Br	0.921766	1.394099	0.235282
H503	H	0.435353	0.849632	-0.800715
H504	H	0.935353	1.349632	-0.300715
H505	H	0.435361	0.849639	-0.880996
H506	H	0.935361	1.349639	-0.380996
Br507	Br	0.396807	0.976207	-0.497470
Br508	Br	0.896807	1.476207	0.002530
Br509	Br	0.564562	0.425081	-0.301408
Br510	Br	1.064562	0.925081	0.198592
H511	H	0.712422	0.412881	0.038630
H512	H	1.212422	0.912881	0.538630
