data_functionalizedCrystal
_audit_creation_method	'MofGen! by Chris Wilmer'
_symmetry_space_group_name_H-M	'P1'
_symmetry_Int_Tables_number	1
_symmetry_cell_setting	triclinic
loop_
_symmetry_equiv_pos_as_xyz
  x,y,z
_cell_length_a	19.805407
_cell_length_b	13.897448
_cell_length_c	19.805399
_cell_angle_alpha	89.974981
_cell_angle_beta	89.975799
_cell_angle_gamma	90.016939
loop_
_atom_site_label
_atom_site_type_symbol
_atom_site_fract_x
_atom_site_fract_y
_atom_site_fract_z
Zn1	Zn	1.034777	-0.384057	-0.382815
Zn2	Zn	1.534777	0.115943	0.117185
Zn3	Zn	1.034709	-0.545363	-0.269632
Zn4	Zn	1.534709	-0.045363	0.230368
Zn5	Zn	0.921591	-0.384081	-0.269631
Zn6	Zn	1.421591	0.115919	0.230369
Zn7	Zn	0.921572	-0.545309	-0.382770
Zn8	Zn	1.421572	-0.045309	0.117230
O9	O	0.978162	-0.464702	-0.326212
O10	O	1.478162	0.035298	0.173788
O11	O	1.129484	-0.405466	-0.367821
O12	O	1.629484	0.094534	0.132179
O13	O	1.019683	-0.524001	-0.174915
O14	O	1.519683	-0.024001	0.325085
O15	O	0.936642	-0.249096	-0.284663
O16	O	1.436642	0.250904	0.215337
O17	O	1.129434	-0.523977	-0.284666
O18	O	1.629434	-0.023977	0.215334
O19	O	1.019799	-0.249078	-0.367820
O20	O	1.519799	0.250922	0.132180
O21	O	0.936576	-0.405508	-0.174914
O22	O	1.436576	0.094492	0.325086
O23	O	0.826872	-0.405456	-0.284619
O24	O	1.326872	0.094544	0.215381
O25	O	0.936609	-0.523886	-0.477492
O26	O	1.436609	-0.023886	0.022508
O27	O	0.826858	-0.523910	-0.367742
O28	O	1.326858	-0.023910	0.132258
O29	O	1.019780	-0.405414	-0.477526
O30	O	1.519780	0.094586	0.022474
O31	O	1.019664	-0.680337	-0.284622
O32	O	1.519664	-0.180337	0.215378
O33	O	0.936543	-0.680298	-0.367743
O34	O	1.436543	-0.180298	0.132257
C35	C	0.802306	-0.464681	-0.326176
C36	C	1.302306	0.035319	0.173824
C37	C	0.727074	-0.464695	-0.326176
C38	C	1.227074	0.035305	0.173824
C39	C	0.265294	-0.526497	-0.369469
C40	C	0.765294	-0.026497	0.130531
C41	C	0.335982	-0.526495	-0.369455
C42	C	0.835982	-0.026495	0.130545
C43	C	0.371313	-0.464726	-0.326238
C44	C	0.871313	0.035274	0.173762
C45	C	0.335951	-0.402960	-0.283028
C46	C	0.835951	0.097040	0.216972
C47	C	0.265264	-0.402967	-0.283040
C48	C	0.765264	0.097033	0.216960
C49	C	0.621024	-0.402931	-0.282981
C50	C	1.121024	0.097069	0.217019
C51	C	0.691716	-0.402926	-0.282974
C52	C	1.191716	0.097074	0.217026
C53	C	0.691742	-0.526459	-0.369396
C54	C	1.191742	-0.026459	0.130604
C55	C	0.621055	-0.526466	-0.369407
C56	C	1.121055	-0.026466	0.130593
C57	C	0.585700	-0.464705	-0.326195
C58	C	1.085700	0.035295	0.173805
C59	C	0.509051	-0.464708	-0.326210
C60	C	1.009051	0.035292	0.173790
C61	C	0.447960	-0.464716	-0.326226
C62	C	0.947960	0.035284	0.173774
C63	C	0.978113	-0.715317	-0.326192
C64	C	1.478113	-0.215317	0.173808
C65	C	0.978154	-0.822531	-0.326207
C66	C	1.478154	-0.322531	0.173793
C67	C	0.978225	-1.018826	-0.326249
C68	C	1.478225	-0.518826	0.173751
C69	C	0.978183	-0.909593	-0.326228
C70	C	1.478183	-0.409593	0.173772
C71	C	1.154705	-0.464725	-0.326249
C72	C	1.654705	0.035275	0.173751
C73	C	1.229937	-0.464734	-0.326264
C74	C	1.729937	0.035266	0.173736
C75	C	0.978200	-0.464642	-0.502755
C76	C	1.478200	0.035358	-0.002755
C77	C	0.978216	-0.464616	-0.577987
C78	C	1.478216	0.035384	-0.077987
C79	C	0.978230	-0.213109	-0.326246
C80	C	1.478230	0.286891	0.173754
C81	C	0.978259	-0.105895	-0.326261
C82	C	1.478259	0.394105	0.173739
C83	C	1.021524	-0.402924	-0.613349
C84	C	1.521524	0.097076	-0.113349
C85	C	1.021531	-0.402896	-0.684038
C86	C	1.521531	0.097104	-0.184038
C87	C	0.978233	-0.464565	-0.719362
C88	C	1.478233	0.035435	-0.219362
C89	C	0.934920	-0.526259	-0.683995
C90	C	1.434920	-0.026259	-0.183995
C91	C	0.934910	-0.526282	-0.613308
C92	C	1.434910	-0.026282	-0.113308
C93	C	0.934959	-0.526169	-0.969068
C94	C	1.434959	-0.026169	-0.469068
C95	C	0.934973	-0.526144	-1.039760
C96	C	1.434973	-0.026144	-0.539760
C97	C	1.021579	-0.402784	-1.039799
C98	C	1.521579	0.097216	-0.539799
C99	C	1.021570	-0.402807	-0.969111
C100	C	1.521570	0.097193	-0.469111
C101	C	0.978255	-0.464496	-0.933750
C102	C	1.478255	0.035504	-0.433750
C103	C	0.978247	-0.464525	-0.857101
C104	C	1.478247	0.035475	-0.357101
C105	C	0.978244	-0.464543	-0.796010
C106	C	1.478244	0.035457	-0.296010
C107	C	0.978163	-0.464693	-0.150356
C108	C	1.478163	0.035307	0.349644
C109	C	0.978278	-0.464447	-0.075124
C110	C	1.478278	0.035553	0.424876
H111	H	0.236477	-0.352671	-0.247860
H112	H	0.736477	0.147329	0.252140
H113	H	0.899664	-0.576468	-0.712762
H114	H	1.399664	-0.076468	-0.212762
H115	H	1.056846	-0.352550	-1.068598
H116	H	1.556846	0.147450	-0.568598
H117	H	0.899712	-0.576364	-1.068520
H118	H	1.399712	-0.076364	-0.568520
H119	H	0.899699	-0.576415	-0.940285
H120	H	1.399699	-0.076415	-0.440285
N121	N	0.890663	-0.589298	-0.577194
N122	N	1.390663	-0.089298	-0.077194
N123	N	0.852005	-0.644353	-0.608739
N124	N	1.352005	-0.144353	-0.108739
H125	H	0.820751	-0.688857	-0.583235
H126	H	1.320751	-0.188857	-0.083235
N127	N	0.584969	-0.589582	-0.413540
N128	N	1.084969	-0.089582	0.086460
N129	N	0.545506	-0.651008	-0.389650
N130	N	1.045506	-0.151008	0.110350
H131	H	0.520021	-0.695590	-0.420817
H132	H	1.020021	-0.195590	0.079183
N133	N	0.229218	-0.589594	-0.413624
N134	N	0.729218	-0.089594	0.086376
N135	N	0.260798	-0.644735	-0.452196
N136	N	0.760798	-0.144735	0.047804
H137	H	0.235322	-0.689301	-0.483382
H138	H	0.735322	-0.189301	0.016618
H139	H	0.592246	-0.352645	-0.247792
H140	H	1.092246	0.147355	0.252208
H141	H	0.364723	-0.352670	-0.247838
H142	H	0.864723	0.147330	0.252162
N143	N	0.727796	-0.339816	-0.238825
N144	N	1.227796	0.160184	0.261175
N145	N	0.696222	-0.284676	-0.200248
N146	N	1.196222	0.215324	0.299752
H147	H	0.721703	-0.240104	-0.169070
H148	H	1.221703	0.259896	0.330930
N149	N	0.372087	-0.589594	-0.413590
N150	N	0.872087	-0.089594	0.086410
N151	N	0.340534	-0.644737	-0.452175
N152	N	0.840534	-0.144737	0.047825
H153	H	0.366033	-0.689305	-0.483348
H154	H	0.866033	-0.189305	0.016652
H155	H	1.056785	-0.352709	-0.584593
H156	H	1.556785	0.147291	-0.084593
N157	N	0.727869	-0.589558	-0.413523
N158	N	1.227869	-0.089558	0.086477
N159	N	0.767287	-0.650979	-0.389627
N160	N	1.267287	-0.150979	0.110373
H161	H	0.792802	-0.695540	-0.420791
H162	H	1.292802	-0.195540	0.079209
N163	N	1.065774	-0.339874	-0.720149
N164	N	1.565774	0.160126	-0.220149
N165	N	1.104433	-0.284823	-0.688602
N166	N	1.604433	0.215177	-0.188602
H167	H	1.135682	-0.240310	-0.714105
H168	H	1.635682	0.259690	-0.214105
N169	N	1.065807	-0.339814	-0.933040
N170	N	1.565807	0.160186	-0.433040
N171	N	1.104472	-0.284735	-0.964622
N172	N	1.604472	0.215265	-0.464622
H173	H	1.135715	-0.240243	-0.939148
H174	H	1.635715	0.259757	-0.439148
