data_functionalizedCrystal
_audit_creation_method	'MofGen! by Chris Wilmer'
_symmetry_space_group_name_H-M	'P1'
_symmetry_Int_Tables_number	1
_symmetry_cell_setting	triclinic
loop_
_symmetry_equiv_pos_as_xyz
  x,y,z
_cell_length_a	14.628931
_cell_length_b	14.628931
_cell_length_c	20.016444
_cell_angle_alpha	59.997602
_cell_angle_beta	89.998167
_cell_angle_gamma	59.999836
loop_
_atom_site_label
_atom_site_type_symbol
_atom_site_fract_x
_atom_site_fract_y
_atom_site_fract_z
Zr1	Zr	0.880618	1.000583	-0.087675
O2	O	0.734659	1.191295	-0.194352
O3	O	0.925363	0.809875	-0.054973
O4	O	0.925365	1.000588	-0.194352
O5	O	0.734655	1.000576	0.054972
O6	O	1.075797	1.000588	-0.194352
O7	O	0.734657	1.000581	-0.054973
O8	O	1.075794	0.659436	0.054972
O9	O	0.734659	1.341727	-0.194353
O10	O	1.056712	0.888314	-0.041025
O11	O	0.944444	0.888310	0.041025
O12	O	0.944447	1.112850	-0.123076
O13	O	0.832180	1.112846	-0.041026
Zr14	Zr	1.120537	1.000573	0.087674
Zr15	Zr	1.120540	1.000582	-0.087675
Zr16	Zr	0.880615	1.000573	0.087674
Zr17	Zr	0.880618	1.240505	-0.087675
Zr18	Zr	1.120538	0.760651	0.087675
O19	O	1.075793	1.191281	0.054972
O20	O	1.075797	1.191294	-0.194352
O21	O	0.734655	1.191282	0.054971
O22	O	1.266497	0.809861	0.194351
O23	O	1.266501	0.809874	-0.054972
O24	O	0.925359	0.809862	0.194351
O25	O	1.266501	1.000580	-0.054972
O26	O	1.075791	1.000567	0.194351
O27	O	0.925358	1.000568	0.194351
O28	O	1.266499	1.000574	0.054972
O29	O	0.925365	1.341726	-0.194352
O30	O	1.075791	0.659429	0.194351
O31	O	1.266497	0.659428	0.194352
O32	O	1.266500	0.659436	0.054973
O33	O	0.734656	1.341719	-0.054974
O34	O	0.925362	1.341719	-0.054973
O35	O	1.056709	0.888305	0.123075
O36	O	1.168976	0.888309	0.041025
O37	O	1.056711	1.112845	-0.041026
O38	O	0.944444	1.112841	0.041025
C39	C	1.000578	0.700472	0.000000
C40	C	1.000579	0.598619	0.000000
C41	C	0.921820	0.631972	-0.057562
C42	C	0.921818	0.526703	-0.057563
C43	C	0.700472	1.000578	-0.000001
C44	C	0.598619	1.000579	-0.000001
C45	C	0.608901	0.889194	0.040702
C46	C	0.503632	0.889191	0.040703
C47	C	1.300684	1.000577	-0.000000
C48	C	1.402537	1.000576	-0.000000
C49	C	1.000582	1.000589	-0.219335
C50	C	1.000583	1.000593	-0.293775
C51	C	1.000577	1.300683	-0.000001
C52	C	1.000577	1.402537	-0.000001
C53	C	1.083456	1.000577	-0.465031
C54	C	1.083457	1.000568	-0.534971
C55	C	0.917695	1.000575	-0.534964
C56	C	0.917700	1.000574	-0.465022
C57	C	1.000580	1.000582	-0.430059
C58	C	1.000576	1.000574	-0.569941
C59	C	1.000576	1.000564	-0.645774
C60	C	1.000581	1.000589	-0.354222
C61	C	1.000574	1.000566	0.219334
C62	C	1.000573	1.000562	0.293775
C63	C	1.300684	0.700471	0.000000
C64	C	1.402537	0.598617	0.000001
C65	C	1.000575	0.700460	0.219335
C66	C	1.000574	0.598603	0.293775
C67	C	1.300680	0.700459	0.219335
C68	C	1.402532	0.598602	0.293776
C69	C	0.700475	1.300696	-0.219336
C70	C	0.598623	1.402553	-0.293777
C71	C	0.700472	1.300684	-0.000001
C72	C	0.598618	1.402538	-0.000001
C73	C	1.000581	1.300695	-0.219336
C74	C	1.000582	1.402552	-0.293776
C75	C	1.059174	0.550768	0.371570
C76	C	1.059169	0.455075	0.441521
C77	C	1.000569	0.407214	0.433676
C78	C	0.941961	0.455059	0.355873
C79	C	0.941961	0.550756	0.285923
C80	C	1.508976	0.550771	0.285904
C81	C	1.604686	0.455078	0.355842
C82	C	1.593950	0.407212	0.433651
C83	C	1.487495	0.455053	0.441521
C84	C	1.391788	0.550750	0.371583
C85	C	0.492180	1.450396	-0.285905
C86	C	0.396470	1.546118	-0.355843
C87	C	0.407206	1.593989	-0.433652
C88	C	0.513660	1.546143	-0.441522
C89	C	0.609368	1.450429	-0.371584
C90	C	1.059193	1.450383	-0.285905
C91	C	1.059216	1.546076	-0.355842
C92	C	1.000621	1.593943	-0.433651
C93	C	0.942008	1.546102	-0.441521
C94	C	0.941992	1.450404	-0.371584
C95	C	1.392256	0.553210	-0.040702
C96	C	1.497526	0.447939	-0.040703
H97	H	1.068007	0.492130	0.049279
H98	H	1.150944	1.000562	-0.563442
N99	N	1.122387	0.403479	0.525430
H100	H	1.159517	0.448315	0.519779
H101	H	1.181300	0.307407	0.556320
H102	H	1.305121	0.589682	0.378004
H103	H	1.106944	1.585018	-0.349419
H104	H	0.850214	1.000571	-0.563438
H105	H	1.000578	0.329292	0.490640
H106	H	0.850211	1.000574	-0.436544
N107	N	0.723785	0.762871	0.086867
H108	H	0.782702	0.780778	0.080323
H109	H	0.732711	0.711660	0.064388
N110	N	1.277371	0.604932	-0.086857
H111	H	1.268352	0.531956	-0.064398
H112	H	1.268414	0.644702	-0.146775
N113	N	1.000655	1.697147	-0.509080
H114	H	1.046681	1.720176	-0.492279
H115	H	0.921263	1.776506	-0.542722
N116	N	0.483733	1.126899	-0.046166
H117	H	0.491334	1.201233	-0.073329
H118	H	0.441505	1.131931	-0.006812
N119	N	1.475936	0.403403	0.525448
H120	H	1.433672	0.363682	0.532007
H121	H	1.433695	0.476457	0.531965
N122	N	0.878757	1.398833	-0.380076
H123	H	0.932487	1.302765	-0.352970
H124	H	0.841640	1.443777	-0.439995
H125	H	0.309800	1.585059	-0.349419
N126	N	0.480585	1.398771	-0.201989
H127	H	0.398624	1.443618	-0.207627
H128	H	0.517745	1.415414	-0.171100
H129	H	0.894251	0.416076	0.349497
N130	N	0.515076	0.762866	0.086855
H131	H	0.438253	0.780771	0.080311
H132	H	0.557362	0.711644	0.146764
H133	H	0.329265	1.671925	-0.490593
H134	H	1.607257	0.441567	0.034855
N135	N	0.878811	1.597736	-0.525445
H136	H	0.887718	1.665621	-0.568549
H137	H	0.796855	1.637385	-0.531930
H138	H	1.150944	1.000580	-0.436565
N139	N	0.525231	1.597780	-0.525446
H140	H	0.448443	1.665668	-0.568550
H141	H	0.567536	1.524698	-0.531932
N142	N	0.878686	0.602412	0.202017
H143	H	0.841546	0.557586	0.207669
H144	H	0.932437	0.585798	0.171087
N145	N	0.832503	0.773027	-0.122839
H146	H	0.756395	0.792675	-0.120209
H147	H	0.836198	0.792588	-0.178430
H148	H	0.696036	1.411476	-0.378003
H149	H	0.393900	1.095942	-0.034852
H150	H	1.517738	0.589729	0.222555
H151	H	1.489274	0.559561	0.034844
H152	H	1.106893	0.589726	0.377974
H153	H	1.691357	0.416136	0.349420
H154	H	1.488898	0.408886	-0.075547
N155	N	1.697182	0.303996	0.509080
H156	H	1.766239	0.280962	0.492279
H157	H	1.697136	0.224643	0.542715
H158	H	1.106909	1.411425	-0.222555
H159	H	0.854388	0.555084	-0.106843
H160	H	1.068005	0.374146	0.049286
