data_functionalizedCrystal
_audit_creation_method	'MofGen! by Chris Wilmer'
_symmetry_space_group_name_H-M	'P1'
_symmetry_Int_Tables_number	1
_symmetry_cell_setting	triclinic
loop_
_symmetry_equiv_pos_as_xyz
  x,y,z
_cell_length_a	14.853567
_cell_length_b	13.930277
_cell_length_c	14.853567
_cell_angle_alpha	89.999243
_cell_angle_beta	96.365070
_cell_angle_gamma	90.004245
loop_
_atom_site_label
_atom_site_type_symbol
_atom_site_fract_x
_atom_site_fract_y
_atom_site_fract_z
O1	O	1.196368	0.079756	-0.117704
O2	O	0.933909	0.079772	-0.131725
O3	O	1.072149	0.079767	0.006516
O4	O	1.058128	0.079762	-0.255944
O5	O	1.072130	-0.079895	0.006519
O6	O	0.933890	-0.079890	-0.131722
O7	O	1.196349	-0.079905	-0.117701
Zn8	Zn	1.065116	-0.105247	-0.124711
Zn9	Zn	1.065142	0.105114	-0.124715
O10	O	1.058109	-0.079900	-0.255941
C11	C	0.900311	-0.000057	-0.131088
C12	C	0.800227	-0.000051	-0.129184
N13	N	1.065106	-0.248814	-0.124708
C14	C	0.387693	-0.000070	-0.039019
C15	C	0.366412	-0.000073	-0.203251
C16	C	0.460446	-0.000070	-0.205042
C17	C	0.518108	-0.000066	-0.123819
C18	C	0.481736	-0.000065	-0.040806
C19	C	0.496825	-0.000061	-0.288053
C20	C	0.590864	-0.000057	-0.289846
C21	C	0.648528	-0.000060	-0.208623
C22	C	0.612150	-0.000060	-0.125607
C23	C	0.669812	-0.000056	-0.044384
C24	C	0.633437	-0.000063	0.038633
C25	C	0.539399	-0.000067	0.040417
C26	C	0.742565	-0.000055	-0.210407
C27	C	0.763855	-0.000050	-0.046172
C28	C	1.003926	-0.701081	-0.185904
C29	C	1.126382	-0.701055	-0.063519
C30	C	1.126371	-0.600559	-0.063516
C31	C	1.065138	-0.550319	-0.124709
C32	C	1.003916	-0.600576	-0.185904
C33	C	1.187598	-0.550295	-0.002328
C34	C	1.187591	-0.449793	-0.002323
C35	C	1.126353	-0.399552	-0.063512
C36	C	1.065127	-0.449814	-0.124710
C37	C	1.003894	-0.399575	-0.185902
C38	C	0.942664	-0.449835	-0.247096
C39	C	0.942677	-0.550334	-0.247094
C40	C	1.126339	-0.299053	-0.063515
C41	C	1.003883	-0.299070	-0.185903
C42	C	1.229947	-0.000075	-0.118337
C43	C	1.330031	-0.000075	-0.120241
C44	C	1.071504	-0.000061	0.040106
C45	C	1.069601	-0.000053	0.140189
N46	N	1.065160	0.248680	-0.124711
C47	C	1.058754	-0.000070	-0.289531
C48	C	1.060657	-0.000072	-0.389615
C49	C	0.979435	-0.000066	0.552723
C50	C	1.143668	-0.000076	0.574004
C51	C	1.145458	-0.000070	0.479971
C52	C	1.064235	-0.000064	0.422309
C53	C	0.981223	-0.000063	0.458680
C54	C	1.228469	-0.000080	0.443591
C55	C	1.230262	-0.000076	0.349552
C56	C	1.149039	-0.000063	0.291889
C57	C	1.066023	-0.000061	0.328266
C58	C	0.984800	-0.000055	0.270604
C59	C	0.901783	-0.000047	0.306979
C60	C	0.899999	-0.000050	0.401017
C61	C	1.150823	-0.000059	0.197851
C62	C	0.986588	-0.000052	0.176561
H63	H	0.810798	-0.000050	0.019971
H64	H	1.176196	-0.258136	-0.013696
C65	C	0.881271	-0.814120	-0.205238
C66	C	0.936626	-0.756325	-0.253165
H67	H	0.839727	-0.848230	-0.246764
H68	H	0.848798	-0.774917	-0.167661
H69	H	0.917749	-0.858420	-0.168797
H70	H	0.900149	-0.712020	-0.289601
H71	H	0.969101	-0.795532	-0.290758
C72	C	0.684278	-0.082111	-0.387135
C73	C	0.630855	-0.000043	-0.381090
H74	H	0.708973	-0.082095	-0.443461
H75	H	0.648033	-0.137782	-0.383039
H76	H	0.732069	-0.082104	-0.339009
H77	H	0.583059	-0.000054	-0.429212
H78	H	0.667102	0.055642	-0.385194
H79	H	0.358072	-0.000080	0.028572
C80	C	0.449714	0.082025	-0.427476
C81	C	0.433439	-0.000058	-0.377325
H82	H	0.410573	0.082027	-0.482587
H83	H	0.510915	0.082025	-0.440427
H84	H	0.438677	0.137692	-0.393427
H85	H	0.444483	-0.055725	-0.411371
H86	H	0.372224	-0.000066	-0.364376
H87	H	0.772178	-0.000051	-0.277998
C88	C	1.321740	0.081988	0.561691
C89	C	1.317743	-0.000090	0.506974
H90	H	1.376859	0.081983	0.600821
H91	H	1.272049	0.081987	0.596804
H92	H	1.319038	0.137658	0.524553
H93	H	1.320438	-0.055761	0.544112
H94	H	1.367448	-0.000098	0.471858
C95	C	0.881205	-0.186074	-0.205250
C96	C	0.936573	-0.243850	-0.253170
H97	H	0.839648	-0.151989	-0.246780
H98	H	0.917666	-0.141761	-0.168819
H99	H	0.848739	-0.225294	-0.167663
H100	H	0.969044	-0.204629	-0.290753
H101	H	0.900107	-0.288168	-0.289617
C102	C	1.248099	-0.082144	0.104447
C103	C	1.242068	-0.000070	0.157870
H104	H	1.304436	-0.082151	0.079772
H105	H	1.199991	-0.082127	0.056651
H106	H	1.243975	-0.137817	0.140695
H107	H	1.246185	0.055603	0.121620
H108	H	1.290189	-0.000079	0.205673
H109	H	0.832411	-0.000044	0.430643
H110	H	0.892811	-0.408919	-0.296924
H111	H	0.911844	-0.000055	0.582344
H112	H	1.297860	-0.000082	0.319944
C113	C	1.236937	0.081989	0.692107
C114	C	1.232944	-0.000083	0.637384
H115	H	1.292059	0.081986	0.731233
H116	H	1.187249	0.081980	0.727224
H117	H	1.234228	0.137663	0.654973
H118	H	1.235647	-0.055757	0.674517
H119	H	1.282646	-0.000082	0.602264
H120	H	0.892827	-0.591263	-0.296916
C121	C	1.145795	-0.814075	0.059132
C122	C	1.193682	-0.756280	0.003742
H123	H	1.187345	-0.848168	0.100662
H124	H	1.109345	-0.858381	0.022682
H125	H	1.108230	-0.774867	0.091628
H126	H	1.231242	-0.795489	-0.028759
H127	H	1.230148	-0.711969	0.040197
C128	C	0.824067	-0.000041	0.164972
C129	C	0.897303	-0.000047	0.113182
H130	H	0.768948	-0.000044	0.125843
H131	H	0.826794	0.055634	0.202089
H132	H	0.826784	-0.055722	0.202097
H133	H	0.894589	0.055638	0.076062
H134	H	0.894575	-0.055728	0.076049
H135	H	1.237457	-0.591203	0.047489
H136	H	0.680397	-0.000053	0.104764
C137	C	1.240222	-0.419114	0.153692
C138	C	1.254883	-0.394670	0.065045
H139	H	1.281761	-0.385113	0.195312
H140	H	1.248925	-0.486173	0.162336
H141	H	1.180040	-0.402618	0.163549
H142	H	1.315064	-0.411173	0.055186
H143	H	1.246187	-0.327597	0.056397
C144	C	0.404697	-0.000061	0.116077
C145	C	0.499413	-0.000064	0.131663
H146	H	0.380011	-0.000051	0.172409
H147	H	0.384917	-0.055737	0.082639
H148	H	0.384929	0.055619	0.082625
H149	H	0.519182	-0.055748	0.165110
H150	H	0.519201	0.055617	0.165116
H151	H	0.835652	-0.000048	0.260019
C152	C	0.319320	-0.082147	-0.342685
C153	C	0.303038	-0.000072	-0.292531
H154	H	0.280196	-0.082142	-0.397808
H155	H	0.308271	-0.137813	-0.308652
H156	H	0.380534	-0.082137	-0.355621
H157	H	0.241825	-0.000085	-0.279589
H158	H	0.314079	0.055609	-0.326571
