data_functionalizedCrystal
_audit_creation_method	'MofGen! by Chris Wilmer'
_symmetry_space_group_name_H-M	'P1'
_symmetry_Int_Tables_number	1
_symmetry_cell_setting	triclinic
loop_
_symmetry_equiv_pos_as_xyz
  x,y,z
_cell_length_a	12.759401
_cell_length_b	19.077068
_cell_length_c	19.076919
_cell_angle_alpha	85.529249
_cell_angle_beta	87.717292
_cell_angle_gamma	92.328499
loop_
_atom_site_label
_atom_site_type_symbol
_atom_site_fract_x
_atom_site_fract_y
_atom_site_fract_z
Zn1	Zn	-1.563742	0.296654	-0.409816
Zn2	Zn	-1.063742	0.796654	0.090184
Zn3	Zn	-1.563612	0.409807	-0.296661
Zn4	Zn	-1.063612	0.909807	0.203339
Zn5	Zn	-1.395411	0.291941	-0.291950
Zn6	Zn	-0.895411	0.791941	0.208050
Zn7	Zn	-1.380644	0.414507	-0.414508
Zn8	Zn	-0.880644	0.914507	0.085492
O9	O	-1.475852	0.353227	-0.353234
O10	O	-0.975852	0.853227	0.146766
O11	O	-1.710745	0.311669	-0.394814
O12	O	-1.210745	0.811669	0.105186
O13	O	-1.547425	0.390233	-0.197389
O14	O	-1.047425	0.890233	0.302611
O15	O	-1.423974	0.193917	-0.303650
O16	O	-0.923974	0.693917	0.196350
O17	O	-1.710650	0.394802	-0.311679
O18	O	-1.210650	0.894802	0.188321
O19	O	-1.547647	0.197379	-0.390246
O20	O	-1.047647	0.697379	0.109754
O21	O	-1.423848	0.303637	-0.193928
O22	O	-0.923848	0.803637	0.306072
O23	O	-1.246431	0.308194	-0.308200
O24	O	-0.746431	0.808194	0.191800
O25	O	-1.398807	0.402813	-0.512533
O26	O	-0.898807	0.902813	-0.012533
O27	O	-1.235583	0.398243	-0.398243
O28	O	-0.735583	0.898243	0.101757
O29	O	-1.533328	0.316226	-0.509086
O30	O	-1.033328	0.816226	-0.009086
O31	O	-1.533107	0.509080	-0.316229
O32	O	-1.033107	1.009080	0.183771
O33	O	-1.398681	0.512533	-0.402811
O34	O	-0.898681	1.012533	0.097189
C35	C	-1.202886	0.353218	-0.353220
C36	C	-0.702886	0.853218	0.146780
C37	C	-1.086108	0.353232	-0.353231
C38	C	-0.586108	0.853232	0.146769
C39	C	-1.464305	0.536386	-0.360556
C40	C	-0.964305	1.036386	0.139444
C41	C	-1.459460	0.614743	-0.363712
C42	C	-0.959460	1.114743	0.136288
C43	C	-1.749884	0.353237	-0.353249
C44	C	-1.249884	0.853237	0.146751
C45	C	-1.866660	0.353241	-0.353255
C46	C	-1.366660	0.853241	0.146745
C47	C	-1.025625	0.400186	-0.400048
C48	C	-0.525625	0.900186	0.099952
C49	C	-0.915900	0.400189	-0.400062
C50	C	-0.415900	0.900189	0.099938
C51	C	-0.927151	0.306282	-0.306436
C52	C	-0.427151	0.806282	0.193564
C53	C	-1.036874	0.306276	-0.306425
C54	C	-0.536874	0.806276	0.193575
C55	C	-0.759220	0.428834	-0.484184
C56	C	-0.259220	0.928834	0.015816
C57	C	-0.698732	0.475799	-0.530995
C58	C	-0.198732	0.975799	-0.030995
C59	C	-0.729347	0.545027	-0.544452
C60	C	-0.229347	1.045027	-0.044452
C61	C	-0.820446	0.567305	-0.511087
C62	C	-0.320446	1.067305	-0.011087
C63	C	-0.880928	0.520344	-0.464270
C64	C	-0.380928	1.020344	0.035730
C65	C	-0.850315	0.451106	-0.450827
C66	C	-0.350315	0.951106	0.049173
C67	C	-1.193556	0.277638	-0.222303
C68	C	-0.693556	0.777638	0.277697
C69	C	-1.254040	0.230680	-0.175483
C70	C	-0.754040	0.730680	0.324517
C71	C	-1.223428	0.161450	-0.162019
C72	C	-0.723428	0.661450	0.337981
C73	C	-1.132326	0.139174	-0.195371
C74	C	-0.632326	0.639174	0.304629
C75	C	-1.071842	0.186133	-0.242192
C76	C	-0.571842	0.686133	0.257808
C77	C	-1.102461	0.255362	-0.255657
C78	C	-0.602461	0.755362	0.244343
C79	C	-1.464435	0.360570	-0.537103
C80	C	-0.964435	0.860570	-0.037103
C81	C	-1.459570	0.363699	-0.615457
C82	C	-0.959570	0.863699	-0.115457
C83	C	-1.487472	0.169354	-0.345899
C84	C	-0.987472	0.669354	0.154101
C85	C	-1.492424	0.090998	-0.342773
C86	C	-0.992424	0.590998	0.157227
C87	C	-1.527222	0.649735	-0.320153
C88	C	-1.027222	1.149735	0.179847
C89	C	-1.522670	0.723360	-0.323125
C90	C	-1.022670	1.223360	0.176875
C91	C	-1.450351	0.761991	-0.369653
C92	C	-0.950351	1.261991	0.130347
C93	C	-1.382587	0.726994	-0.413217
C94	C	-0.882587	1.226994	0.086783
C95	C	-1.387144	0.653370	-0.410247
C96	C	-0.887144	1.153370	0.089753
C97	C	-1.429216	0.982377	-0.383367
C98	C	-0.929216	1.482377	0.116633
C99	C	-1.424662	1.056006	-0.386332
C100	C	-0.924662	1.556006	0.113668
C101	C	-1.564748	1.052367	-0.296241
C102	C	-1.064748	1.552367	0.203759
C103	C	-1.569294	0.978742	-0.293273
C104	C	-1.069294	1.478742	0.206727
C105	C	-1.501533	0.943751	-0.336839
C106	C	-1.001533	1.443751	0.163161
N107	N	-1.445695	0.837248	-0.372691
N108	N	-0.945695	1.337248	0.127309
N109	N	-1.506195	0.868496	-0.333804
N110	N	-1.006195	1.368496	0.166196
C111	C	-1.527319	0.320090	-0.650474
C112	C	-1.027319	0.820090	-0.150474
C113	C	-1.522734	0.323027	-0.724096
C114	C	-1.022734	0.823027	-0.224096
C115	C	-1.450406	0.369577	-0.762699
C116	C	-0.950406	0.869577	-0.262699
C117	C	-1.382650	0.413188	-0.727677
C118	C	-0.882650	0.913188	-0.227677
C119	C	-1.387230	0.410246	-0.654056
C120	C	-0.887230	0.910246	-0.154056
C121	C	-1.429194	0.383204	-0.983074
C122	C	-0.929194	0.883204	-0.483074
C123	C	-1.424621	0.386144	-1.056699
C124	C	-0.924621	0.886144	-0.556699
C125	C	-1.564705	0.295982	-1.053113
C126	C	-1.064705	0.795982	-0.553113
C127	C	-1.569283	0.293048	-0.979492
C128	C	-1.069283	0.793048	-0.479492
C129	C	-1.501523	0.336656	-0.944475
C130	C	-1.001523	0.836656	-0.444475
N131	N	-1.445721	0.372582	-0.837953
N132	N	-0.945721	0.872582	-0.337953
N133	N	-1.506204	0.333646	-0.869223
N134	N	-1.006204	0.833646	-0.369223
C135	C	-1.487289	0.345862	-0.170078
C136	C	-0.987289	0.845862	0.329922
C137	C	-1.492370	0.342535	-0.091717
C138	C	-0.992370	0.842535	0.408283
H139	H	-1.065707	0.438419	-0.438162
H140	H	-0.565707	0.938419	0.061838
Br141	Br	-1.614643	0.770848	-0.264012
Br142	Br	-1.114643	1.270848	0.235988
Br143	Br	-1.284482	0.476360	-0.780066
Br144	Br	-0.784482	0.976360	-0.280066
H145	H	-0.845358	0.623681	-0.522041
H146	H	-0.345358	1.123681	-0.022041
H147	H	-1.628183	0.255143	-0.948066
H148	H	-1.128183	0.755143	-0.448066
Br149	Br	-1.284446	0.779421	-0.476369
Br150	Br	-0.784446	1.279421	0.023631
Br151	Br	-1.667458	0.926320	-0.230134
Br152	Br	-1.167458	1.426320	0.269866
Br153	Br	-1.656658	0.236801	-1.100639
Br154	Br	-1.156658	0.736801	-0.600639
H155	H	-1.365719	0.424052	-1.088128
H156	H	-0.865719	0.924052	-0.588128
Br157	Br	-0.647258	0.608763	-0.607985
Br158	Br	-0.147258	1.108763	-0.107985
Br159	Br	-1.625364	0.597314	-0.256998
Br160	Br	-1.125364	1.097314	0.243002
H161	H	-1.365783	1.087458	-0.424233
H162	H	-0.865783	1.587458	0.075767
Br163	Br	-1.337232	0.442386	-0.935561
Br164	Br	-0.837232	0.942386	-0.435561
H165	H	-0.955099	0.538482	-0.437105
H166	H	-0.455099	1.038482	0.062895
Br167	Br	-1.295275	0.469428	-0.606532
Br168	Br	-0.795275	0.969428	-0.106532
H169	H	-0.624560	0.457654	-0.558161
H170	H	-0.124560	0.957654	-0.058161
Br171	Br	-1.656709	1.099859	-0.237123
Br172	Br	-1.156709	1.599859	0.262877
H173	H	-0.734292	0.372460	-0.473238
H174	H	-0.234292	0.872460	0.026762
Br175	Br	-0.860328	0.242559	-0.242917
Br176	Br	-0.360328	0.742559	0.257083
H177	H	-0.997667	0.167989	-0.269354
H178	H	-0.497667	0.667989	0.230646
Br179	Br	-1.090766	0.045219	-0.177093
Br180	Br	-0.590766	0.545219	0.322907
H181	H	-1.577905	0.287518	-0.752604
H182	H	-1.077905	0.787518	-0.252604
H183	H	-1.272680	0.123218	-0.123888
H184	H	-0.772680	0.623218	0.376112
Br185	Br	-1.377668	0.260916	-0.130204
Br186	Br	-0.877668	0.760916	0.369796
H187	H	-1.218495	0.334010	-0.233268
H188	H	-0.718495	0.834010	0.266732
Br189	Br	-1.295184	0.605879	-0.469369
Br190	Br	-0.795184	1.105879	0.030631
Br191	Br	-1.337255	0.934899	-0.442493
Br192	Br	-0.837255	1.434899	0.057507
H193	H	-1.586219	0.282186	-0.619048
H194	H	-1.086219	0.782186	-0.119048
