data_functionalizedCrystal
_audit_creation_method	'MofGen! by Chris Wilmer'
_symmetry_space_group_name_H-M	'P1'
_symmetry_Int_Tables_number	1
_symmetry_cell_setting	triclinic
loop_
_symmetry_equiv_pos_as_xyz
  x,y,z
_cell_length_a	12.503572
_cell_length_b	17.699083
_cell_length_c	17.699083
_cell_angle_alpha	83.283015
_cell_angle_beta	93.515225
_cell_angle_gamma	86.494917
loop_
_atom_site_label
_atom_site_type_symbol
_atom_site_fract_x
_atom_site_fract_y
_atom_site_fract_z
O1	O	0.089171	-1.008441	-0.091332
O2	O	0.089207	-0.788064	-0.103783
O3	O	0.089179	-0.904478	0.012631
O4	O	0.089200	-0.892027	-0.207746
O5	O	-0.089461	-0.895723	0.003862
O6	O	-0.089433	-0.779309	-0.112552
O7	O	-0.089468	-0.999686	-0.100101
Cu8	Cu	-0.105762	-0.888698	-0.107128
Cu9	Cu	0.105500	-0.899052	-0.096757
O10	O	-0.089440	-0.883272	-0.216516
C11	C	-0.000109	-0.755490	-0.107721
C12	C	-0.000095	-0.671473	-0.106382
N13	N	-0.254352	-0.881421	-0.114421
C14	C	-0.000141	-0.899655	0.036444
C15	C	-0.000142	-0.898316	0.120462
C16	C	-0.473465	-0.870717	-0.125157
C17	C	-0.526803	-0.917037	-0.078723
C18	C	-0.648725	-0.911081	-0.084697
C19	C	-0.351532	-0.876672	-0.119185
N20	N	0.254091	-0.906335	-0.089457
C21	C	-0.000151	-1.032260	-0.096163
C22	C	-0.000157	-1.116278	-0.097502
C23	C	-0.000089	-0.622852	-0.174715
C24	C	-0.000103	-0.543908	-0.173453
C25	C	-0.000116	-0.513587	-0.103857
C26	C	-0.000125	-0.562213	-0.035519
C27	C	-0.000119	-0.641155	-0.036782
C28	C	-0.000152	-0.243849	-0.030425
C29	C	-0.000155	-0.164901	-0.029168
C30	C	-0.000137	-0.146602	-0.167097
C31	C	-0.000130	-0.225544	-0.168359
C32	C	-0.000145	-0.274163	-0.100022
C33	C	-0.000132	-0.359763	-0.101391
C34	C	-0.000121	-0.427989	-0.102487
C35	C	-0.000118	-0.888096	-0.240328
C36	C	-0.000111	-0.889435	-0.324345
C37	C	-0.000154	-0.966649	0.169082
C38	C	-0.000144	-0.965387	0.248026
C39	C	-0.000130	-0.895791	0.278347
C40	C	-0.000114	-0.827453	0.229721
C41	C	-0.000116	-0.828716	0.150779
C42	C	-0.000105	-0.822359	0.548084
C43	C	-0.000106	-0.821101	0.627032
C44	C	-0.000133	-0.959029	0.645331
C45	C	-0.000135	-0.960292	0.566389
C46	C	-0.000113	-0.891955	0.517770
C47	C	-0.000122	-0.893324	0.432171
C48	C	-0.000129	-0.894421	0.363945
H49	H	-0.480901	-0.961167	-0.034484
O50	O	-0.000131	-0.496569	-0.239764
C51	C	-0.000113	-0.420392	-0.223728
H52	H	-0.033956	-0.415818	-0.165951
H53	H	-0.051961	-0.382008	-0.269847
H54	H	0.085590	-0.401749	-0.222420
O55	O	-0.528336	-0.818041	-0.177838
C56	C	-0.593375	-0.768206	-0.140592
H57	H	-0.610083	-0.797556	-0.082090
H58	H	-0.672513	-0.752430	-0.176028
H59	H	-0.550123	-0.714337	-0.133540
H60	H	-0.000165	-0.283426	0.025219
O61	O	-0.000123	-0.652175	-0.242390
C62	C	-0.000096	-0.592330	-0.302430
H63	H	-0.033923	-0.537087	-0.282970
H64	H	-0.051953	-0.606200	-0.353576
H65	H	0.085608	-0.585309	-0.319294
H66	H	-0.000115	-0.250227	-0.225031
O67	O	-0.000272	-0.753502	0.656515
C68	C	-0.092776	-0.744113	0.697108
H69	H	-0.157456	-0.780451	0.675335
H70	H	-0.123809	-0.681578	0.688391
H71	H	-0.071865	-0.762717	0.760421
H72	H	-0.000095	-0.770788	0.254415
H73	H	-0.000130	-0.107005	-0.222741
O74	O	-0.000152	-0.762266	0.103652
C75	C	-0.000111	-0.700568	0.147342
H76	H	-0.033939	-0.718226	0.204637
H77	H	-0.051961	-0.650155	0.115586
H78	H	0.085597	-0.683433	0.157129
O79	O	-0.000032	-0.135542	0.038496
C80	C	0.092491	-0.164909	0.084686
H81	H	0.123342	-0.221136	0.065680
H82	H	0.071666	-0.174960	0.146711
H83	H	0.157277	-0.122381	0.079018
O84	O	-0.000092	-0.532638	0.032023
C85	C	-0.000120	-0.452534	0.018485
H86	H	0.033708	-0.435540	-0.038952
H87	H	0.051737	-0.430914	0.065557
H88	H	-0.085824	-0.426374	0.017905
O89	O	-0.000168	-0.688494	0.029525
C90	C	-0.000135	-0.764673	0.013489
H91	H	-0.033947	-0.765934	-0.047615
H92	H	-0.052003	-0.797984	0.054507
H93	H	0.085568	-0.791700	0.020608
O94	O	-0.000024	-1.034215	0.139548
C95	C	0.092507	-1.043614	0.098985
H96	H	0.123359	-0.985436	0.080725
H97	H	0.071694	-1.072672	0.046327
H98	H	0.157289	-1.080335	0.137103
H99	H	-0.000157	-1.021031	0.287610
H100	H	-0.000152	-1.016964	0.541706
O101	O	-0.000094	-1.025348	0.692672
C102	C	-0.000111	-1.009314	0.768850
H103	H	0.033724	-0.951531	0.773428
H104	H	0.051746	-1.055425	0.807237
H105	H	-0.085812	-1.008023	0.787486
H106	H	-0.000087	-0.766714	0.508508
