data_functionalizedCrystal
_audit_creation_method	'MofGen! by Chris Wilmer'
_symmetry_space_group_name_H-M	'P1'
_symmetry_Int_Tables_number	1
_symmetry_cell_setting	triclinic
loop_
_symmetry_equiv_pos_as_xyz
  x,y,z
_cell_length_a	23.532407
_cell_length_b	23.532407
_cell_length_c	22.610064
_cell_angle_alpha	89.984707
_cell_angle_beta	89.987421
_cell_angle_gamma	97.151322
loop_
_atom_site_label
_atom_site_type_symbol
_atom_site_fract_x
_atom_site_fract_y
_atom_site_fract_z
O1	O	0.755249	-0.069141	0.049117
O2	O	1.088582	0.264192	0.382450
O3	O	1.421916	0.597526	0.715783
O4	O	0.589386	-0.079144	0.049135
O5	O	0.922719	0.254189	0.382468
O6	O	1.256052	0.587522	0.715802
O7	O	0.677319	0.008789	0.049114
O8	O	1.010652	0.342122	0.382448
O9	O	1.343986	0.675456	0.715781
O10	O	0.667316	-0.157074	0.049137
O11	O	1.000649	0.176259	0.382471
O12	O	1.333982	0.509592	0.715804
O13	O	0.677332	0.008804	-0.049255
O14	O	1.010666	0.342137	0.284079
O15	O	1.343999	0.675471	0.617412
O16	O	0.589399	-0.079129	-0.049234
O17	O	0.922732	0.254204	0.284099
O18	O	1.256066	0.587537	0.617432
O19	O	0.755262	-0.069126	-0.049252
O20	O	1.088596	0.264207	0.284081
O21	O	1.421929	0.597541	0.617414
Zn22	Zn	0.672333	-0.074125	-0.064862
Zn23	Zn	1.005666	0.259208	0.268472
Zn24	Zn	1.339000	0.592541	0.601805
Zn25	Zn	0.672315	-0.074145	0.064744
Zn26	Zn	1.005649	0.259188	0.398077
Zn27	Zn	1.338982	0.592522	0.731411
O28	O	0.667329	-0.157059	-0.049232
O29	O	1.000662	0.176274	0.284101
O30	O	1.333996	0.509607	0.617435
C31	C	0.677071	0.030013	-0.000072
C32	C	1.010404	0.363346	0.333262
C33	C	1.343738	0.696679	0.666595
C34	C	0.676305	0.093230	-0.000076
C35	C	1.009638	0.426563	0.333257
C36	C	1.342972	0.759896	0.666591
C37	C	0.568176	-0.078882	-0.000048
C38	C	0.901510	0.254451	0.333286
C39	C	1.234843	0.587785	0.666619
C40	C	0.504959	-0.078116	-0.000041
C41	C	0.838293	0.255217	0.333292
C42	C	1.171626	0.588551	0.666626
N43	N	0.672304	-0.074154	0.153196
N44	N	1.005637	0.259179	0.486530
N45	N	1.338970	0.592512	0.819863
C46	C	0.105856	-0.125350	-0.000061
C47	C	0.439190	0.207984	0.333272
C48	C	0.772523	0.541317	0.666605
C49	C	0.046456	-0.124638	-0.000065
C50	C	0.379789	0.208695	0.333268
C51	C	0.713123	0.542029	0.666602
O52	O	0.009711	-0.168424	-0.000081
O53	O	0.343045	0.164909	0.333253
O54	O	0.676378	0.498243	0.666586
N55	N	0.023830	-0.072362	-0.000071
N56	N	0.357163	0.260972	0.333262
N57	N	0.690496	0.594305	0.666595
C58	C	0.060607	-0.020794	-0.000080
C59	C	0.393941	0.312540	0.333254
C60	C	0.727274	0.645873	0.666587
O61	O	0.035908	0.023737	-0.000086
O62	O	0.369241	0.357070	0.333247
O63	O	0.702574	0.690404	0.666581
C64	C	0.120006	-0.021506	-0.000080
C65	C	0.453340	0.311828	0.333253
C66	C	0.786673	0.645161	0.666586
C67	C	0.142629	-0.073785	-0.000068
C68	C	0.475962	0.259548	0.333265
C69	C	0.809296	0.592881	0.666599
C70	C	0.128479	-0.177625	-0.000050
C71	C	0.461813	0.155708	0.333284
C72	C	0.795146	0.489042	0.666617
C73	C	0.187876	-0.178336	-0.000045
C74	C	0.521209	0.154997	0.333288
C75	C	0.854542	0.488330	0.666622
C76	C	0.224649	-0.126772	-0.000052
C77	C	0.557982	0.206561	0.333282
C78	C	0.891315	0.539895	0.666615
C79	C	0.202025	-0.074496	-0.000063
C80	C	0.535359	0.258837	0.333270
C81	C	0.868692	0.592170	0.666603
C82	C	0.156783	0.030062	-0.000093
C83	C	0.490116	0.363395	0.333240
C84	C	0.823450	0.696729	0.666574
C85	C	0.216185	0.029345	-0.000094
C86	C	0.549519	0.362679	0.333239
C87	C	0.882852	0.696012	0.666573
C88	C	0.238808	-0.022934	-0.000082
C89	C	0.572141	0.310399	0.333252
C90	C	0.905475	0.643732	0.666585
C91	C	0.298194	-0.023643	-0.000065
C92	C	0.631528	0.309690	0.333268
C93	C	0.964861	0.643023	0.666602
N94	N	0.320820	-0.075920	-0.000059
N95	N	0.654154	0.257414	0.333274
N96	N	0.987487	0.590747	0.666608
C97	C	0.284048	-0.127484	-0.000052
C98	C	0.617381	0.205849	0.333281
C99	C	0.950714	0.539183	0.666614
C100	C	-0.064135	-0.019302	-0.000080
C101	C	0.269198	0.314031	0.333254
C102	C	0.602532	0.647365	0.666587
C103	C	-0.123533	-0.018589	-0.000075
C104	C	0.209800	0.314744	0.333258
C105	C	0.543134	0.648077	0.666592
C106	C	-0.137680	-0.122434	-0.000061
C107	C	0.195653	0.210899	0.333272
C108	C	0.528986	0.544232	0.666605
C109	C	-0.078281	-0.123146	-0.000062
C110	C	0.255052	0.210187	0.333271
C111	C	0.588385	0.543520	0.666605
C112	C	-0.041509	-0.071578	-0.000074
C113	C	0.291824	0.261755	0.333260
C114	C	0.625158	0.595088	0.666593
C115	C	0.408784	-0.128974	-0.000042
C116	C	0.742118	0.204360	0.333292
C117	C	1.075451	0.537693	0.666625
C118	C	0.468186	-0.129680	-0.000034
C119	C	0.801520	0.203653	0.333299
C120	C	1.134853	0.536986	0.666632
C121	C	0.482329	-0.025836	-0.000051
C122	C	0.815662	0.307497	0.333282
C123	C	1.148995	0.640831	0.666616
C124	C	0.422932	-0.025129	-0.000055
C125	C	0.756265	0.308204	0.333278
C126	C	1.089598	0.641538	0.666611
C127	C	0.386160	-0.076702	-0.000052
C128	C	0.719494	0.256631	0.333281
C129	C	1.052827	0.589964	0.666614
O130	O	0.334974	0.020119	-0.000052
O131	O	0.668307	0.353453	0.333281
O132	O	1.001640	0.686786	0.666615
O133	O	0.308755	-0.172007	-0.000054
O134	O	0.642089	0.161326	0.333279
O135	O	0.975422	0.494660	0.666613
C136	C	0.776472	-0.069388	-0.000069
C137	C	1.109805	0.263945	0.333265
C138	C	1.443138	0.597278	0.666598
C139	C	0.839689	-0.070154	-0.000071
C140	C	1.173022	0.263179	0.333262
C141	C	1.506355	0.596513	0.666595
C142	C	0.667577	-0.178283	-0.000045
C143	C	1.000911	0.155051	0.333289
C144	C	1.334244	0.488384	0.666622
C145	C	0.668343	-0.241500	-0.000036
C146	C	1.001676	0.091834	0.333297
C147	C	1.335010	0.425167	0.666630
C148	C	0.723539	0.492333	-0.000049
C149	C	1.056872	0.825666	0.333284
C150	C	1.390205	1.158999	0.666618
C151	C	0.722827	0.551733	-0.000044
C152	C	1.056160	0.885066	0.333289
C153	C	1.389494	1.218400	0.666622
O154	O	0.766613	0.588478	-0.000027
O155	O	1.099946	0.921811	0.333306
O156	O	1.433280	1.255144	0.666639
N157	N	0.670551	0.574359	-0.000039
N158	N	1.003884	0.907693	0.333294
N159	N	1.337217	1.241026	0.666628
C160	C	0.618983	0.537582	-0.000032
C161	C	0.952316	0.870915	0.333301
C162	C	1.285649	1.204248	0.666634
O163	O	0.574452	0.562281	-0.000027
O164	O	0.907785	0.895615	0.333307
O165	O	1.241119	1.228948	0.666640
C166	C	0.619695	0.478182	-0.000033
C167	C	0.953028	0.811516	0.333301
C168	C	1.286361	1.144849	0.666634
C169	C	0.671974	0.455560	-0.000044
C170	C	1.005308	0.788893	0.333289
C171	C	1.338641	1.122227	0.666623
C172	C	0.775814	0.469710	-0.000060
C173	C	1.109147	0.803043	0.333274
C174	C	1.442481	1.136376	0.666607
C175	C	0.776525	0.410313	-0.000065
C176	C	1.109859	0.743647	0.333268
C177	C	1.443192	1.076980	0.666601
C178	C	0.724961	0.373540	-0.000060
C179	C	1.058294	0.706874	0.333273
C180	C	1.391628	1.040207	0.666606
C181	C	0.672685	0.396164	-0.000050
C182	C	1.006019	0.729497	0.333284
C183	C	1.339352	1.062830	0.666617
C184	C	0.568127	0.441406	-0.000022
C185	C	0.901460	0.774739	0.333312
C186	C	1.234794	1.108073	0.666645
C187	C	0.568844	0.382004	-0.000021
C188	C	0.902177	0.715337	0.333312
C189	C	1.235510	1.048670	0.666645
C190	C	0.621123	0.359381	-0.000033
C191	C	0.954457	0.692714	0.333301
C192	C	1.287790	1.026048	0.666634
C193	C	0.621832	0.299995	-0.000050
C194	C	0.955166	0.633328	0.333283
C195	C	1.288499	0.966661	0.666616
N196	N	0.674109	0.277369	-0.000056
N197	N	1.007442	0.610702	0.333278
N198	N	1.340775	0.944035	0.666611
C199	C	0.725673	0.314141	-0.000061
C200	C	1.059006	0.647475	0.333273
C201	C	1.392340	0.980808	0.666606
C202	C	0.617491	0.662324	-0.000031
C203	C	0.950824	0.995657	0.333303
C204	C	1.284158	1.328991	0.666636
C205	C	0.616778	0.721722	-0.000034
C206	C	0.950112	1.055055	0.333299
C207	C	1.283445	1.388389	0.666632
C208	C	0.720623	0.735869	-0.000045
C209	C	1.053957	1.069203	0.333288
C210	C	1.387290	1.402536	0.666621
C211	C	0.721335	0.676470	-0.000046
C212	C	1.054669	1.009804	0.333288
C213	C	1.388002	1.343137	0.666621
C214	C	0.669767	0.639698	-0.000036
C215	C	1.003101	0.973031	0.333298
C216	C	1.336434	1.306365	0.666631
C217	C	0.727163	0.189405	-0.000073
C218	C	1.060496	0.522738	0.333260
C219	C	1.393829	0.856071	0.666594
C220	C	0.727869	0.130003	-0.000081
C221	C	1.061203	0.463336	0.333252
C222	C	1.394536	0.796669	0.666586
C223	C	0.624025	0.115860	-0.000067
C224	C	0.957358	0.449194	0.333266
C225	C	1.290692	0.782527	0.666600
C226	C	0.623318	0.175257	-0.000062
C227	C	0.956651	0.508591	0.333271
C228	C	1.289985	0.841924	0.666605
C229	C	0.674891	0.212029	-0.000063
C230	C	1.008225	0.545362	0.333270
C231	C	1.341558	0.878695	0.666604
O232	O	0.578070	0.263215	-0.000065
O233	O	0.911403	0.596549	0.333268
O234	O	1.244736	0.929882	0.666602
O235	O	0.770196	0.289434	-0.000058
O236	O	1.103529	0.622767	0.333275
O237	O	1.436863	0.956100	0.666608
N238	N	0.672349	-0.074111	-0.153314
N239	N	1.005682	0.259222	0.180019
N240	N	1.339016	0.592555	0.513353
C241	C	0.711350	-0.035273	0.561829
C242	C	1.044683	0.298060	0.895162
C243	C	1.378017	0.631393	1.228496
C244	C	0.711354	-0.035270	0.623749
C245	C	1.044688	0.298063	0.957082
C246	C	1.378021	0.631396	1.290415
O247	O	0.744544	-0.002236	0.655760
O248	O	1.077877	0.331097	0.989093
O249	O	1.411211	0.664431	1.322426
N250	N	0.672345	-0.074126	0.654734
N251	N	1.005678	0.259208	0.988067
N252	N	1.339011	0.592541	1.321400
C253	C	0.633332	-0.112990	0.623795
C254	C	0.966665	0.220343	0.957129
C255	C	1.299999	0.553677	1.290462
O256	O	0.600152	-0.146040	0.655836
O257	O	0.933485	0.187294	0.989170
O258	O	1.266819	0.520627	1.322503
C259	C	0.633331	-0.112995	0.561877
C260	C	0.966664	0.220338	0.895210
C261	C	1.299997	0.553672	1.228543
C262	C	0.672339	-0.074133	0.530895
C263	C	1.005673	0.259200	0.864228
C264	C	1.339006	0.592533	1.197562
C265	C	0.750356	0.003585	0.530847
C266	C	1.083689	0.336918	0.864180
C267	C	1.417023	0.670252	1.197514
C268	C	0.750351	0.003583	0.468931
C269	C	1.083684	0.336916	0.802265
C270	C	1.417017	0.670249	1.135598
C271	C	0.711340	-0.035278	0.437998
C272	C	1.044673	0.298056	0.771331
C273	C	1.378007	0.631389	1.104664
C274	C	0.672334	-0.074136	0.468979
C275	C	1.005667	0.259198	0.802313
C276	C	1.339001	0.592531	1.135646
C277	C	0.594321	-0.151862	0.530940
C278	C	0.927655	0.181472	0.864273
C279	C	1.260988	0.514805	1.197606
C280	C	0.594324	-0.151864	0.469017
C281	C	0.927657	0.181470	0.802350
C282	C	1.260990	0.514803	1.135683
C283	C	0.633332	-0.113002	0.438035
C284	C	0.966666	0.220331	0.771368
C285	C	1.299999	0.553665	1.104702
C286	C	0.633318	-0.112998	0.376130
C287	C	0.966651	0.220335	0.709463
C288	C	1.299985	0.553669	1.042796
N289	N	0.672328	-0.074143	0.345145
N290	N	1.005661	0.259190	0.678478
N291	N	1.338995	0.592524	1.011812
C292	C	0.711339	-0.035283	0.376079
C293	C	1.044672	0.298051	0.709412
C294	C	1.378005	0.631384	1.042745
C295	C	0.633338	-0.112977	0.753829
C296	C	0.966671	0.220356	1.087162
C297	C	1.300005	0.553690	1.420496
C298	C	0.633336	-0.112970	0.815747
C299	C	0.966669	0.220363	1.149080
C300	C	1.300003	0.553697	1.482413
C301	C	0.711359	-0.035251	0.815696
C302	C	1.044693	0.298083	1.149029
C303	C	1.378026	0.631416	1.482362
C304	C	0.711358	-0.035256	0.753777
C305	C	1.044691	0.298078	1.087110
C306	C	1.378025	0.631411	1.420444
C307	C	0.672348	-0.074122	0.722844
C308	C	1.005681	0.259211	1.056177
C309	C	1.339014	0.592545	1.389511
C310	C	0.711325	-0.035290	0.246051
C311	C	1.044658	0.298043	0.579385
C312	C	1.377991	0.631377	0.912718
C313	C	0.711314	-0.035294	0.184130
C314	C	1.044648	0.298039	0.517464
C315	C	1.377981	0.631373	0.850797
C316	C	0.633293	-0.113015	0.184187
C317	C	0.966627	0.220319	0.517520
C318	C	1.299960	0.553652	0.850853
C319	C	0.633301	-0.113009	0.246102
C320	C	0.966635	0.220324	0.579436
C321	C	1.299968	0.553658	0.912769
C322	C	0.672322	-0.074144	0.277033
C323	C	1.005655	0.259189	0.610367
C324	C	1.338988	0.592522	0.943700
O325	O	0.600147	-0.146017	0.344079
O326	O	0.933480	0.187316	0.677413
O327	O	1.266814	0.520649	1.010746
O328	O	0.744518	-0.002244	0.344030
O329	O	1.077852	0.331090	0.677364
O330	O	1.411185	0.664423	1.010697
H331	H	0.486602	-0.172255	-0.000024
H332	H	0.819935	0.161079	0.333309
H333	H	1.153269	0.494412	0.666643
H334	H	0.526850	0.352066	-0.000013
H335	H	0.860183	0.685399	0.333321
H336	H	1.193516	1.018732	0.666654
N337	N	0.591224	-0.154920	0.279519
N338	N	0.924558	0.178413	0.612852
N339	N	1.257891	0.511746	0.946186
H340	H	0.612792	-0.180074	0.305208
H341	H	0.946125	0.153259	0.638541
H342	H	1.279459	0.486592	0.971875
H343	H	0.566193	-0.133191	0.305178
H344	H	0.899526	0.200142	0.638512
H345	H	1.232860	0.533475	0.971845
H346	H	-0.167632	-0.164421	-0.000059
H347	H	0.165701	0.168913	0.333275
H348	H	0.499035	0.502246	0.666608
H349	H	0.512280	0.016146	-0.000054
H350	H	0.845613	0.349480	0.333279
H351	H	1.178946	0.682813	0.666612
N352	N	0.753396	0.006618	0.150717
N353	N	1.086729	0.339952	0.484050
N354	N	1.420062	0.673285	0.817383
H355	H	0.747476	0.000723	0.106797
H356	H	1.080809	0.334057	0.440130
H357	H	1.414142	0.667390	0.773463
H358	H	0.747128	0.047010	0.161530
H359	H	1.080461	0.380343	0.494864
H360	H	1.413795	0.713676	0.828197
N361	N	-0.147930	0.037797	-0.000077
N362	N	0.185403	0.371131	0.333256
N363	N	0.518737	0.704464	0.666589
H364	H	-0.115616	0.070352	-0.000081
H365	H	0.217717	0.403685	0.333253
H366	H	0.551050	0.737019	0.666586
H367	H	-0.172255	0.040363	-0.036546
H368	H	0.161078	0.373697	0.296787
H369	H	0.494411	0.707030	0.630121
N370	N	0.792429	0.045510	0.564203
N371	N	1.125762	0.378844	0.897537
N372	N	1.459096	0.712177	1.230870
H373	H	0.786517	0.039627	0.608132
H374	H	1.119850	0.372960	0.941465
H375	H	1.453184	0.706294	1.274799
H376	H	0.832770	0.039062	0.553371
H377	H	1.166104	0.372396	0.886705
H378	H	1.499437	0.705729	1.220038
N379	N	0.777722	0.652072	-0.000054
N380	N	1.111055	0.985405	0.333280
N381	N	1.444388	1.318739	0.666613
H382	H	0.780338	0.627754	-0.036520
H383	H	1.113671	0.961087	0.296813
H384	H	1.447005	1.294421	0.630147
H385	H	0.810243	0.684417	-0.000037
H386	H	1.143576	1.017751	0.333297
H387	H	1.476909	1.351084	0.666630
H388	H	0.562557	-0.183515	0.443834
H389	H	0.895891	0.149818	0.777167
H390	H	1.229224	0.483152	1.110501
H391	H	0.770444	0.111587	-0.000092
H392	H	1.103777	0.444920	0.333241
H393	H	1.437110	0.778254	0.666575
N394	N	0.753410	0.006626	0.279407
N395	N	1.086744	0.339960	0.612741
N396	N	1.420077	0.673293	0.946074
H397	H	0.778116	0.031240	0.250377
H398	H	1.111449	0.364573	0.583711
H399	H	1.444782	0.697907	0.917044
H400	H	0.731808	0.031744	0.305096
H401	H	1.065141	0.365078	0.638429
H402	H	1.398474	0.698411	0.971762
N403	N	0.561868	0.622664	-0.000025
N404	N	0.895201	0.955997	0.333308
N405	N	1.228535	1.289330	0.666642
H406	H	0.528647	0.646015	-0.000023
H407	H	0.861980	0.979349	0.333311
H408	H	1.195314	1.312682	0.666644
H409	H	0.559904	0.597721	-0.036492
H410	H	0.893238	0.931055	0.296841
H411	H	1.226571	1.264388	0.630174
H412	H	0.574207	0.740136	-0.000035
H413	H	0.907540	1.073469	0.333298
H414	H	1.240874	1.406802	0.666631
N415	N	0.511739	0.465797	-0.000017
N416	N	0.845072	0.799130	0.333316
N417	N	1.178406	1.132463	0.666650
H418	H	0.479187	0.433480	-0.000013
H419	H	0.812520	0.766813	0.333321
H420	H	1.145854	1.100147	0.666654
H421	H	0.509171	0.490122	0.036450
H422	H	0.842505	0.823456	0.369783
H423	H	1.175838	1.156789	0.703117
H424	H	0.743122	-0.003612	0.728555
H425	H	1.076456	0.329722	1.061889
H426	H	1.409789	0.663055	1.395222
H427	H	0.743125	-0.003609	0.840893
H428	H	1.076458	0.329724	1.174227
H429	H	1.409792	0.663057	1.507560
H430	H	0.580748	0.193677	-0.000069
H431	H	0.914081	0.527011	0.333264
H432	H	1.247414	0.860344	0.666597
N433	N	0.369129	-0.184598	-0.000053
N434	N	0.702463	0.148736	0.333281
N435	N	1.035796	0.482069	0.666614
H436	H	0.392482	-0.217818	-0.000048
H437	H	0.725815	0.115516	0.333285
H438	H	1.059149	0.448849	0.666619
H439	H	0.344160	-0.186581	0.036409
H440	H	0.677493	0.146752	0.369742
H441	H	1.010826	0.480086	0.703075
N442	N	0.832910	0.385913	-0.000063
N443	N	1.166244	0.719247	0.333271
N444	N	1.499577	1.052580	0.666604
H445	H	0.835534	0.361594	-0.036527
H446	H	1.168867	0.694927	0.296806
H447	H	1.502201	1.028261	0.630140
H448	H	0.865433	0.418257	-0.000039
H449	H	1.198766	0.751590	0.333294
H450	H	1.532100	1.084924	0.666628
H451	H	0.769159	0.219337	-0.000071
H452	H	1.102492	0.552671	0.333262
H453	H	1.435826	0.886004	0.666595
H454	H	0.246123	0.071339	-0.000104
H455	H	0.579457	0.404673	0.333229
H456	H	0.912790	0.738006	0.666563
N457	N	-0.024475	0.036321	-0.000089
N458	N	0.308859	0.369654	0.333244
N459	N	0.642192	0.702988	0.666577
H460	H	-0.047826	0.069542	-0.000093
H461	H	0.285507	0.402875	0.333240
H462	H	0.618840	0.736209	0.666574
H463	H	0.000471	0.038286	0.036377
H464	H	0.333804	0.371619	0.369710
H465	H	0.667137	0.704952	0.703044
N466	N	0.792439	0.045489	0.435527
N467	N	1.125772	0.378822	0.768860
N468	N	1.459106	0.712156	1.102194
H469	H	0.770889	0.070652	0.409831
H470	H	1.104222	0.403986	0.743164
H471	H	1.437556	0.737319	1.076497
H472	H	0.817138	0.070057	0.464571
H473	H	1.150471	0.403391	0.797904
H474	H	1.483805	0.736724	1.131237
H475	H	0.817806	0.499645	-0.000061
H476	H	1.151140	0.832978	0.333272
H477	H	1.484473	1.166312	0.666605
N478	N	0.132392	0.086450	-0.000109
N479	N	0.465726	0.419783	0.333224
N480	N	0.799059	0.753117	0.666558
H481	H	0.164709	0.119002	-0.000118
H482	H	0.498042	0.452335	0.333216
H483	H	0.831376	0.785669	0.666549
H484	H	0.108068	0.089011	-0.036579
H485	H	0.441401	0.422345	0.296754
H486	H	0.774734	0.755678	0.630088
N487	N	0.398527	0.031256	-0.000057
N488	N	0.731860	0.364590	0.333276
N489	N	1.065194	0.697923	0.666610
H490	H	0.430838	0.063814	-0.000058
H491	H	0.764172	0.397147	0.333276
H492	H	1.097505	0.730480	0.666609
H493	H	0.374204	0.033821	-0.036528
H494	H	0.707537	0.367154	0.296806
H495	H	1.040870	0.700487	0.630139
N496	N	0.776241	0.775538	-0.000051
N497	N	1.109575	1.108871	0.333283
N498	N	1.442908	1.442204	0.666616
H499	H	0.767853	0.816598	-0.000047
H500	H	1.101186	1.149931	0.333286
H501	H	1.434520	1.483265	0.666620
H502	H	0.799034	0.768236	0.036413
H503	H	1.132367	1.101569	0.369747
H504	H	1.465701	1.434902	0.703080
N505	N	0.568411	0.076193	-0.000078
N506	N	0.901744	0.409526	0.333256
N507	N	1.235078	0.742860	0.666589
H508	H	0.576799	0.035133	-0.000085
H509	H	0.910133	0.368466	0.333249
H510	H	1.243466	0.701799	0.666582
H511	H	0.545602	0.083466	0.036390
H512	H	0.878935	0.416799	0.369723
H513	H	1.212268	0.750132	0.703057
N514	N	0.591254	-0.154875	0.849159
N515	N	0.924587	0.178458	1.182493
N516	N	1.257920	0.511791	1.515826
H517	H	0.566541	-0.179490	0.820161
H518	H	0.899874	0.153843	1.153495
H519	H	1.233207	0.487177	1.486828
H520	H	0.612856	-0.179992	0.874852
H521	H	0.946189	0.153341	1.208186
H522	H	1.279523	0.486674	1.541519
H523	H	0.601529	-0.144653	0.158991
H524	H	0.934863	0.188681	0.492324
H525	H	1.268196	0.522014	0.825657
H526	H	0.562557	-0.183507	0.556156
H527	H	0.895891	0.149827	0.889490
H528	H	1.229224	0.483160	1.222823
N529	N	0.591253	-0.154892	0.720468
N530	N	0.924586	0.178441	1.053801
N531	N	1.257919	0.511774	1.387134
H532	H	0.566541	-0.179501	0.749496
H533	H	0.899875	0.153832	1.082830
H534	H	1.233208	0.487165	1.416163
H535	H	0.566247	-0.133162	0.694779
H536	H	0.899581	0.200171	1.028112
H537	H	1.232914	0.533504	1.361445
H538	H	0.098544	-0.219617	-0.000046
H539	H	0.431877	0.113716	0.333287
H540	H	0.765211	0.447049	0.666620
N541	N	0.212264	-0.234728	-0.000032
N542	N	0.545598	0.098606	0.333301
N543	N	0.878931	0.431939	0.666635
H544	H	0.198838	-0.257294	-0.036495
H545	H	0.532171	0.076039	0.296838
H546	H	0.865505	0.409372	0.630172
H547	H	0.255470	-0.227320	-0.000008
H548	H	0.588803	0.106014	0.333325
H549	H	0.922137	0.439347	0.666658
N550	N	-0.053883	-0.179533	-0.000047
N551	N	0.279450	0.153801	0.333287
N552	N	0.612784	0.487134	0.666620
H553	H	-0.086197	-0.212087	-0.000040
H554	H	0.247136	0.121246	0.333293
H555	H	0.580470	0.454579	0.666627
H556	H	-0.029539	-0.182090	-0.036513
H557	H	0.303794	0.151244	0.296820
H558	H	0.637127	0.484577	0.630153
