data_functionalizedCrystal
_audit_creation_method	'MofGen! by Chris Wilmer'
_symmetry_space_group_name_H-M	'P1'
_symmetry_Int_Tables_number	1
_symmetry_cell_setting	triclinic
loop_
_symmetry_equiv_pos_as_xyz
  x,y,z
_cell_length_a	16.959455
_cell_length_b	16.120444
_cell_length_c	16.120297
_cell_angle_alpha	84.384883
_cell_angle_beta	87.120459
_cell_angle_gamma	92.923490
loop_
_atom_site_label
_atom_site_type_symbol
_atom_site_fract_x
_atom_site_fract_y
_atom_site_fract_z
Zn1	Zn	1.167696	-0.356814	0.489439
Zn2	Zn	1.167594	-0.489505	0.356752
Zn3	Zn	1.042574	-0.349743	0.349687
Zn4	Zn	1.028419	-0.496538	0.496477
O5	O	1.101571	-0.423150	0.423089
O6	O	1.278292	-0.374432	0.471849
O7	O	1.156891	-0.465062	0.238853
O8	O	1.065138	-0.233716	0.362324
O9	O	1.278218	-0.471919	0.374364
O10	O	1.157065	-0.238911	0.465000
O11	O	1.065039	-0.362380	0.233663
O12	O	0.930087	-0.369200	0.369148
O13	O	1.041013	-0.483906	0.612505
O14	O	0.919687	-0.477050	0.476993
O15	O	1.143340	-0.381252	0.607335
O16	O	1.143166	-0.607403	0.381188
O17	O	1.040914	-0.612571	0.483843
C18	C	0.896207	-0.423122	0.423068
C19	C	0.808349	-0.423131	0.423080
C20	C	0.442260	-0.366955	0.367043
C21	C	0.431479	-0.479417	0.479186
C22	C	0.514026	-0.479405	0.479180
C23	C	0.560694	-0.423167	0.423104
C24	C	0.524814	-0.366943	0.367034
C25	C	0.549912	-0.535634	0.535243
C26	C	0.632463	-0.535625	0.535239
C27	C	0.679132	-0.479383	0.479167
C28	C	0.643248	-0.423155	0.423095
C29	C	0.689916	-0.366918	0.367019
C30	C	0.654033	-0.310686	0.310951
C31	C	0.571483	-0.310701	0.310961
C32	C	0.761682	-0.479368	0.479156
C33	C	0.772470	-0.366906	0.367010
C34	C	1.090514	-0.640316	0.434064
C35	C	1.085854	-0.733221	0.438787
C36	C	1.125927	-0.942134	0.398767
C37	C	1.077361	-0.903316	0.447419
C38	C	1.082088	-0.808667	0.442615
C39	C	1.121201	-1.036792	0.403570
C40	C	1.307737	-0.423179	0.423110
C41	C	1.395592	-0.423192	0.423119
C42	C	1.090609	-0.434152	0.641095
C43	C	1.085938	-0.438841	0.733996
C44	C	1.112692	-0.205138	0.412089
C45	C	1.117431	-0.112234	0.407402
C46	C	1.112539	-0.412130	0.205928
C47	C	1.117375	-0.407207	0.113015
C48	C	1.077381	-0.447382	0.904087
C49	C	1.125929	-0.398668	0.942930
C50	C	1.121168	-0.403420	1.037574
C51	C	1.082141	-0.442631	0.809434
H52	H	0.393478	-0.525207	0.524835
O53	O	0.504464	-0.590180	0.589679
C54	C	0.372509	-0.640068	0.639356
C55	C	0.423888	-0.578235	0.577673
H56	H	0.307353	-0.630443	0.629659
H57	H	0.386042	-0.628899	0.706057
H58	H	0.386103	-0.706686	0.627977
H59	H	0.410323	-0.511593	0.588976
H60	H	0.410348	-0.589476	0.510993
O61	O	1.023622	-0.948558	0.501460
C62	C	1.002387	-1.052866	0.619235
C63	C	1.063329	-1.001696	0.558083
H64	H	1.034467	-1.095829	0.665042
H65	H	0.961024	-1.091912	0.582903
H66	H	0.966549	-1.008689	0.655068
H67	H	1.099222	-1.045813	0.522235
H68	H	1.104638	-0.962641	0.594462
H69	H	1.171051	-0.904286	0.353509
O70	O	1.179706	-0.344534	0.897851
C71	C	1.226695	-0.201041	0.863817
C72	C	1.165735	-0.262250	0.914900
H73	H	1.215430	-0.134502	0.877597
H74	H	1.220999	-0.206701	0.794404
H75	H	1.288827	-0.216619	0.881679
H76	H	1.103576	-0.246711	0.897111
H77	H	1.171500	-0.256578	0.984302
H78	H	1.032246	-0.492654	0.941909
H79	H	0.810462	-0.321105	0.321351
H80	H	0.692040	-0.264901	0.265290
H81	H	0.542260	-0.264920	0.265313
H82	H	0.661672	-0.581412	0.580894
O83	O	0.407281	-0.312413	0.312612
C84	C	0.284892	-0.262540	0.262961
C85	C	0.324402	-0.324368	0.324635
H86	H	0.217878	-0.272173	0.272672
H87	H	0.303701	-0.273708	0.196257
H88	H	0.303855	-0.195920	0.274336
H89	H	0.305458	-0.391011	0.313336
H90	H	0.305594	-0.313127	0.391318
O91	O	0.796411	-0.534015	0.533694
C92	C	0.777002	-0.645604	0.644887
C93	C	0.737571	-0.583746	0.583176
H94	H	0.729448	-0.685840	0.684897
H95	H	0.815372	-0.609544	0.686775
H96	H	0.815388	-0.687263	0.608627
H97	H	0.699146	-0.542072	0.619367
H98	H	0.699248	-0.619858	0.541288
