data_functionalizedCrystal
_audit_creation_method	'MofGen! by Chris Wilmer'
_symmetry_space_group_name_H-M	'P1'
_symmetry_Int_Tables_number	1
_symmetry_cell_setting	triclinic
loop_
_symmetry_equiv_pos_as_xyz
  x,y,z
_cell_length_a	12.759401
_cell_length_b	15.299816
_cell_length_c	12.759393
_cell_angle_alpha	99.651000
_cell_angle_beta	89.980404
_cell_angle_gamma	80.350595
loop_
_atom_site_label
_atom_site_type_symbol
_atom_site_fract_x
_atom_site_fract_y
_atom_site_fract_z
Zn1	Zn	1.678558	-0.359005	-0.666399
Zn2	Zn	1.708823	-0.509846	-0.521146
Zn3	Zn	1.502865	-0.359050	-0.490747
Zn4	Zn	1.533209	-0.509780	-0.696774
O5	O	1.605864	-0.434420	-0.593766
O6	O	1.829595	-0.379024	-0.647141
O7	O	1.681469	-0.489889	-0.370101
O8	O	1.500806	-0.232836	-0.488614
O9	O	1.851831	-0.489846	-0.540424
O10	O	1.629887	-0.232803	-0.617664
O11	O	1.530153	-0.379100	-0.347768
O12	O	1.359868	-0.379035	-0.518067
O13	O	1.552523	-0.489733	-0.839756
O14	O	1.382161	-0.489776	-0.669434
O15	O	1.659310	-0.378959	-0.817440
O16	O	1.710892	-0.636046	-0.569877
O17	O	1.581870	-0.635997	-0.698910
C18	C	1.332893	-0.434404	-0.593749
C19	C	1.216119	-0.434419	-0.593770
C20	C	1.652986	-0.668746	-0.641011
C21	C	1.673242	-0.768991	-0.661258
C22	C	1.063182	-0.492183	-0.672509
C23	C	1.172904	-0.492173	-0.672496
C24	C	1.149607	-0.376678	-0.515046
C25	C	1.039888	-0.376693	-0.515056
C26	C	1.461784	-1.051933	-0.449417
C27	C	1.442748	-0.957748	-0.430397
C28	C	1.500370	-0.910554	-0.488110
C29	C	1.577031	-0.957555	-0.564848
C30	C	1.596064	-1.051750	-0.583876
C31	C	1.634649	-0.910370	-0.622568
C32	C	1.711310	-0.957371	-0.699306
C33	C	1.730340	-1.051557	-0.718330
C34	C	1.672718	-1.098751	-0.660617
C35	C	1.615617	-0.816176	-0.603541
C36	C	1.749896	-0.815992	-0.737999
C37	C	1.768932	-0.910178	-0.757019
C38	C	1.879900	-0.434437	-0.593785
C39	C	1.996678	-0.434444	-0.593793
C40	C	1.605925	-0.434334	-0.867782
C41	C	1.605951	-0.434297	-0.984552
C42	C	1.558586	-0.199180	-0.546360
C43	C	1.538439	-0.098934	-0.526158
C44	C	1.661558	-0.376608	-1.027793
C45	C	1.661568	-0.376569	-1.137510
C46	C	1.550362	-0.491916	-1.160734
C47	C	1.550347	-0.491949	-1.051019
C48	C	1.605850	-0.434441	-0.320803
C49	C	1.605976	-0.434224	-0.203983
H50	H	1.227049	-0.539190	-0.736594
H51	H	1.184802	-0.329657	-0.450943
N52	N	0.968154	-0.314418	-0.430144
H53	H	0.974283	-0.249990	-0.433589
H54	H	0.892127	-0.323273	-0.442144
N55	N	1.851601	-0.960868	-0.839800
H56	H	1.923357	-0.944436	-0.820233
H57	H	1.854820	-1.027681	-0.843063
H58	H	1.796815	-0.777568	-0.784996
H59	H	1.792758	-1.089823	-0.780819
N60	N	1.721531	-0.314428	-0.956107
H61	H	1.777582	-0.351104	-0.917990
H62	H	1.756691	-0.277894	-1.000229
H63	H	1.706847	-0.329591	-1.172711
H64	H	1.553198	-0.777916	-0.541061
H65	H	1.484867	-0.833864	-0.472618
H66	H	1.380330	-0.919483	-0.367919
H67	H	1.505094	-0.538856	-1.214865
H68	H	1.414872	-1.090367	-0.402441
H69	H	1.505057	-0.538926	-1.015812
H70	H	1.028005	-0.539208	-0.736621
H71	H	1.688217	-1.175444	-0.676095
