data_functionalizedCrystal
_audit_creation_method	'MofGen! by Chris Wilmer'
_symmetry_space_group_name_H-M	'P1'
_symmetry_Int_Tables_number	1
_symmetry_cell_setting	triclinic
loop_
_symmetry_equiv_pos_as_xyz
  x,y,z
_cell_length_a	10.654562
_cell_length_b	10.654550
_cell_length_c	17.766277
_cell_angle_alpha	89.994852
_cell_angle_beta	89.987841
_cell_angle_gamma	84.487503
loop_
_atom_site_label
_atom_site_type_symbol
_atom_site_fract_x
_atom_site_fract_y
_atom_site_fract_z
O1	O	1.667841	0.176477	-0.062642
O2	O	2.167841	0.676477	0.437358
O3	O	1.302364	0.193266	-0.062632
O4	O	1.802364	0.693266	0.437368
O5	O	1.493505	0.002133	-0.062634
O6	O	1.993505	0.502133	0.437366
O7	O	1.476699	0.367610	-0.062639
O8	O	1.976699	0.867610	0.437361
O9	O	1.493471	0.002122	0.062554
O10	O	1.993471	0.502122	0.562554
O11	O	1.302330	0.193256	0.062556
O12	O	1.802330	0.693256	0.562556
O13	O	1.667807	0.176467	0.062547
O14	O	2.167807	0.676467	0.562547
Cu15	Cu	1.485065	0.184860	0.073982
Cu16	Cu	1.985065	0.684860	0.573982
Cu17	Cu	1.485105	0.184872	-0.074068
Cu18	Cu	1.985105	0.684872	0.425932
O19	O	1.476665	0.367600	0.062549
O20	O	1.976665	0.867600	0.562549
C21	C	1.255549	0.192025	-0.000037
C22	C	1.755549	0.692025	0.499963
C23	C	1.116107	0.188327	-0.000033
C24	C	1.616107	0.688327	0.499967
C25	C	1.050558	0.186596	0.068201
C26	C	1.550558	0.686596	0.568201
C27	C	0.919535	0.183131	0.068189
C28	C	1.419535	0.683131	0.568189
C29	C	0.919623	0.183133	-0.068299
C30	C	1.419623	0.683133	0.431701
C31	C	1.050644	0.186589	-0.068285
C32	C	1.550644	0.686589	0.431715
C33	C	1.050506	0.186601	0.147001
C34	C	1.550506	0.686601	0.647001
C35	C	0.919483	0.183136	0.146989
C36	C	1.419483	0.683136	0.646989
C37	C	1.492254	-0.044671	-0.000041
C38	C	1.992254	0.455329	0.499959
C39	C	1.488563	-0.184114	-0.000043
C40	C	1.988563	0.315886	0.499957
C41	C	1.601103	-0.263595	-0.000044
C42	C	2.101103	0.236405	0.499956
C43	C	1.597627	-0.394615	-0.000049
C44	C	2.097627	0.105385	0.499951
C45	C	1.369059	-0.366662	-0.000050
C46	C	1.869059	0.133338	0.499950
C47	C	1.372537	-0.235644	-0.000050
C48	C	1.872537	0.264356	0.499950
C49	C	1.733066	-0.279734	-0.000041
C50	C	2.233066	0.220266	0.499959
C51	C	1.729589	-0.410755	-0.000046
C52	C	2.229589	0.089245	0.499954
C53	C	1.714621	0.177708	-0.000050
C54	C	2.214621	0.677708	0.499950
C55	C	1.854064	0.181406	-0.000059
C56	C	2.354064	0.681406	0.499941
C57	C	1.477916	0.414403	-0.000046
C58	C	1.977916	0.914403	0.499954
C59	C	1.481608	0.553847	-0.000048
C60	C	1.981608	1.053847	0.499952
N61	N	1.485046	0.184851	0.178113
N62	N	1.985046	0.684851	0.678113
N63	N	1.485134	0.184872	-0.178198
N64	N	1.985134	0.684872	0.321802
C65	C	1.569712	0.100259	0.217499
C66	C	2.069712	0.600259	0.717499
C67	C	1.569719	0.100254	0.296300
C68	C	2.069719	0.600254	0.796300
C69	C	1.485073	0.184862	0.335713
C70	C	1.985073	0.684862	0.835713
C71	C	1.400391	0.269460	0.296318
C72	C	1.900391	0.769460	0.796318
C73	C	1.400378	0.269454	0.217517
C74	C	1.900378	0.769454	0.717517
C75	C	1.469613	0.299099	0.460550
C76	C	1.969613	0.799099	0.960550
C77	C	1.469635	0.299106	0.539349
C78	C	1.969635	0.799106	1.039349
C79	C	1.485106	0.184877	0.578760
C80	C	1.985106	0.684877	1.078760
C81	C	1.500582	0.070637	0.539362
C82	C	2.000582	0.570637	1.039362
C83	C	1.500569	0.070632	0.460562
C84	C	2.000569	0.570632	0.960562
C85	C	1.485077	0.184876	0.421159
C86	C	1.985077	0.684876	0.921159
C87	C	1.569784	0.100272	0.703591
C88	C	2.069784	0.600272	1.203591
C89	C	1.569783	0.100264	0.782395
C90	C	2.069783	0.600264	1.282395
C91	C	1.400461	0.269481	0.782411
C92	C	1.900461	0.769481	1.282411
C93	C	1.400457	0.269478	0.703609
C94	C	1.900457	0.769478	1.203609
C95	C	1.485125	0.184875	0.664204
C96	C	1.985125	0.684875	1.164204
H97	H	0.873189	0.269930	0.177239
H98	H	1.373189	0.769930	0.677239
Br99	Br	1.803051	-0.220341	0.090056
Br100	Br	2.303051	0.279659	0.590056
H101	H	0.889889	0.091540	0.171442
H102	H	1.389889	0.591540	0.671442
H103	H	1.080074	0.278194	0.171450
H104	H	1.580074	0.778194	0.671450
H105	H	0.866306	0.181718	-0.123867
H106	H	1.366306	0.681718	0.376133
Br107	Br	1.219797	-0.127779	-0.000073
Br108	Br	1.719797	0.372221	0.499927
H109	H	1.638724	0.031373	0.814463
H110	H	2.138724	0.531373	1.314463
Br111	Br	1.127606	0.041943	0.197441
Br112	Br	1.627606	0.541943	0.697441
H113	H	1.779296	-0.452517	0.052343
H114	H	2.279296	0.047483	0.552343
Br115	Br	1.211602	-0.436605	-0.000064
Br116	Br	1.711602	0.063395	0.499936
Br117	Br	1.521558	-0.084400	0.407095
Br118	Br	2.021558	0.415600	0.907095
Br119	Br	1.139605	0.188902	-0.160893
Br120	Br	1.639605	0.688902	0.339107
H121	H	1.769484	-0.456392	-0.054100
H122	H	2.269484	0.043608	0.445900
Br123	Br	1.819117	-0.230778	-0.087354
Br124	Br	2.319117	0.269222	0.412646
Br125	Br	1.684610	-0.014560	0.164020
Br126	Br	2.184610	0.485440	0.664020
H127	H	1.638666	0.031366	0.328374
H128	H	2.138666	0.531366	0.828374
Br129	Br	1.521595	-0.084399	0.592837
Br130	Br	2.021595	0.415601	1.092837
H131	H	1.638723	0.031379	0.671507
H132	H	2.138723	0.531379	1.171507
Br133	Br	1.285504	0.384277	0.349803
Br134	Br	1.785504	0.884277	0.849803
Br135	Br	1.285570	0.384294	0.835893
Br136	Br	1.785570	0.884294	1.335893
H137	H	1.331519	0.338366	0.671539
H138	H	1.831519	0.838366	1.171539
H139	H	1.457042	0.392127	0.571420
H140	H	1.957042	0.892127	1.071420
Br141	Br	1.448742	0.454143	0.407072
Br142	Br	1.948742	0.954143	0.907072
H143	H	1.331432	0.338340	0.185449
H144	H	1.831432	0.838340	0.685449
