data_functionalizedCrystal
_audit_creation_method	'MofGen! by Chris Wilmer'
_symmetry_space_group_name_H-M	'P1'
_symmetry_Int_Tables_number	1
_symmetry_cell_setting	triclinic
loop_
_symmetry_equiv_pos_as_xyz
  x,y,z
_cell_length_a	29.839134
_cell_length_b	29.839134
_cell_length_c	21.395355
_cell_angle_alpha	89.963393
_cell_angle_beta	89.999064
_cell_angle_gamma	90.007368
loop_
_atom_site_label
_atom_site_type_symbol
_atom_site_fract_x
_atom_site_fract_y
_atom_site_fract_z
Zn1	Zn	0.178992	0.686904	-0.354548
Zn2	Zn	0.678992	1.186904	0.145452
Zn3	Zn	0.254107	0.686874	-0.249806
Zn4	Zn	0.754107	1.186874	0.250194
Zn5	Zn	0.178983	0.611771	-0.249762
Zn6	Zn	0.678983	1.111771	0.250238
Zn7	Zn	0.254086	0.611789	-0.354524
Zn8	Zn	0.754086	1.111789	0.145476
O9	O	0.216542	0.649334	-0.302160
O10	O	0.716542	1.149334	0.197840
O11	O	0.188969	0.749767	-0.340682
O12	O	0.688969	1.249767	0.159318
O13	O	0.244147	0.676892	-0.162122
O14	O	0.744147	1.176892	0.337878
O15	O	0.116117	0.621742	-0.263654
O16	O	0.616117	1.121742	0.236346
O17	O	0.244156	0.749745	-0.263728
O18	O	0.744156	1.249745	0.236272
O19	O	0.116124	0.676942	-0.340639
O20	O	0.616124	1.176942	0.159361
O21	O	0.188953	0.621713	-0.162090
O22	O	0.688953	1.121713	0.337910
O23	O	0.188933	0.548906	-0.263631
O24	O	0.688933	1.048906	0.236369
O25	O	0.244120	0.621773	-0.442205
O26	O	0.744120	1.121773	0.057795
O27	O	0.244111	0.548919	-0.340599
O28	O	0.744111	1.048919	0.159401
O29	O	0.188949	0.676960	-0.442222
O30	O	0.688949	1.176960	0.057778
O31	O	0.316972	0.676909	-0.263705
O32	O	0.816972	1.176909	0.236295
O33	O	0.316956	0.621744	-0.340641
O34	O	0.816956	1.121744	0.159359
C35	C	0.216519	0.532612	-0.302108
C36	C	0.716519	1.032612	0.197892
C37	C	0.216520	0.482677	-0.302101
C38	C	0.716520	0.982677	0.197899
C39	C	0.099364	0.649343	-0.302145
C40	C	0.599364	1.149343	0.197855
C41	C	0.049429	0.649347	-0.302138
C42	C	0.549429	1.149347	0.197862
C43	C	0.187768	0.126071	-0.262165
C44	C	0.687768	0.626071	0.237835
C45	C	0.187756	0.313744	-0.262127
C46	C	0.687756	0.813744	0.237873
O47	O	0.163272	0.337992	-0.228113
O48	O	0.663272	0.837992	0.271887
N49	N	0.216527	0.337232	-0.302132
N50	N	0.716527	0.837232	0.197868
C51	C	0.245301	0.313800	-0.342153
C52	C	0.745301	0.813800	0.157847
O53	O	0.269769	0.338084	-0.376184
O54	O	0.769769	0.838084	0.123816
C55	C	0.245311	0.126127	-0.342194
C56	C	0.745311	0.626127	0.157806
C57	C	0.216542	0.102641	-0.302181
C58	C	0.716542	0.602641	0.197819
C59	C	0.159001	0.102585	-0.222155
C60	C	0.659001	0.602585	0.277845
C61	C	0.159006	0.055669	-0.222163
C62	C	0.659006	0.555669	0.277837
C63	C	0.187779	0.032240	-0.262180
C64	C	0.687779	0.532240	0.237820
C65	C	0.216547	0.055726	-0.302189
C66	C	0.716547	0.555726	0.197811
C67	C	0.274083	0.102696	-0.382218
C68	C	0.774083	0.602696	0.117782
C69	C	0.274082	0.055775	-0.382226
C70	C	0.774082	0.555775	0.117774
C71	C	0.245312	0.032289	-0.342213
C72	C	0.745312	0.532289	0.157787
C73	C	0.245325	-0.014619	-0.342213
C74	C	0.745325	0.485381	0.157787
N75	N	0.216554	-0.038107	-0.302207
N76	N	0.716554	0.461893	0.197793
C77	C	0.187781	-0.014678	-0.262190
C78	C	0.687781	0.485322	0.237810
C79	C	0.245295	0.412330	-0.342128
C80	C	0.745295	0.912330	0.157872
C81	C	0.245293	0.459248	-0.342117
C82	C	0.745293	0.959248	0.157883
C83	C	0.187746	0.459189	-0.262091
C84	C	0.687746	0.959189	0.237909
C85	C	0.187751	0.412270	-0.262099
C86	C	0.687751	0.912270	0.237901
C87	C	0.216523	0.388842	-0.302123
C88	C	0.716523	0.888842	0.197877
C89	C	0.187794	-0.113204	-0.262209
C90	C	0.687794	0.386796	0.237791
C91	C	0.187803	-0.160123	-0.262218
C92	C	0.687803	0.339877	0.237782
C93	C	0.245347	-0.160060	-0.342246
C94	C	0.745347	0.339940	0.157754
C95	C	0.245340	-0.113145	-0.342235
C96	C	0.745340	0.386855	0.157765
C97	C	0.216560	-0.089718	-0.302214
C98	C	0.716560	0.410282	0.197786
O99	O	0.269792	-0.038896	-0.376214
O100	O	0.769792	0.461104	0.123786
O101	O	0.163309	-0.038971	-0.228174
O102	O	0.663309	0.461029	0.271826
C103	C	0.187763	0.172986	-0.262157
C104	C	0.687763	0.672986	0.237843
C105	C	0.216531	0.196472	-0.302166
C106	C	0.716531	0.696472	0.197834
C107	C	0.245304	0.173043	-0.342183
C108	C	0.745304	0.673043	0.157817
C109	C	0.216529	0.243390	-0.302155
C110	C	0.716529	0.743390	0.197845
C111	C	0.187756	0.266820	-0.262139
C112	C	0.687756	0.766820	0.237861
C113	C	0.158985	0.243331	-0.222133
C114	C	0.658985	0.743331	0.277867
C115	C	0.158990	0.196416	-0.222140
C116	C	0.658990	0.696416	0.277860
C117	C	0.274075	0.196531	-0.382189
C118	C	0.774075	0.696531	0.117811
C119	C	0.274068	0.243447	-0.382177
C120	C	0.774068	0.743447	0.117823
C121	C	0.245295	0.266876	-0.342161
C122	C	0.745295	0.766876	0.157839
C123	C	-0.260225	0.620644	-0.342247
C124	C	0.239775	1.120644	0.157753
C125	C	-0.447898	0.620654	-0.342266
C126	C	0.052102	1.120654	0.157734
O127	O	-0.472172	0.596243	-0.376353
O128	O	0.027828	1.096243	0.123647
N129	N	-0.471356	0.649375	-0.302211
N130	N	0.028644	1.149375	0.197789
C131	C	-0.447892	0.678098	-0.262151
C132	C	0.052108	1.178098	0.237849
O133	O	-0.472151	0.702531	-0.228086
O134	O	0.027849	1.202531	0.271914
C135	C	-0.260220	0.678091	-0.262135
C136	C	0.239780	1.178091	0.237865
C137	C	-0.236765	0.649364	-0.302189
C138	C	0.263235	1.149364	0.197811
C139	C	-0.236769	0.591921	-0.382298
C140	C	0.263231	1.091921	0.117702
C141	C	-0.189854	0.591917	-0.382290
C142	C	0.310146	1.091917	0.117710
C143	C	-0.166394	0.620637	-0.342232
C144	C	0.333606	1.120637	0.157768
C145	C	-0.189849	0.649360	-0.302181
C146	C	0.310151	1.149360	0.197819
C147	C	-0.236758	0.706816	-0.222079
C148	C	0.263242	1.206816	0.277921
C149	C	-0.189837	0.706812	-0.222079
C150	C	0.310163	1.206812	0.277921
C151	C	-0.166381	0.678086	-0.262133
C152	C	0.333619	1.178086	0.237867
C153	C	-0.119474	0.678077	-0.262115
C154	C	0.380526	1.178077	0.237885
N155	N	-0.096016	0.649355	-0.302171
N156	N	0.403984	1.149355	0.197829
C157	C	-0.119476	0.620635	-0.342229
C158	C	0.380524	1.120635	0.157771
C159	C	-0.546423	0.678099	-0.262161
C160	C	-0.046423	1.178099	0.237839
C161	C	-0.593341	0.678101	-0.262164
C162	C	-0.093341	1.178101	0.237836
C163	C	-0.593343	0.620657	-0.342280
C164	C	-0.093343	1.120657	0.157720
C165	C	-0.546424	0.620653	-0.342274
C166	C	-0.046424	1.120653	0.157726
C167	C	-0.522965	0.649378	-0.302216
C168	C	-0.022965	1.149378	0.197784
C169	C	-0.020950	0.620629	-0.342209
C170	C	0.479050	1.120629	0.157791
C171	C	0.025969	0.620627	-0.342196
C172	C	0.525969	1.120627	0.157804
C173	C	0.025968	0.678072	-0.262083
C174	C	0.525968	1.178072	0.237917
C175	C	-0.020948	0.678073	-0.262093
C176	C	0.479052	1.178073	0.237907
C177	C	-0.044406	0.649350	-0.302161
C178	C	0.455594	1.149350	0.197839
O179	O	-0.095171	0.702478	-0.228052
O180	O	0.404829	1.202478	0.271948
O181	O	-0.095209	0.596213	-0.376298
O182	O	0.404791	1.096213	0.123702
C183	C	-0.307140	0.620648	-0.342255
C184	C	0.192860	1.120648	0.157745
C185	C	-0.330596	0.649372	-0.302204
C186	C	0.169404	1.149372	0.197796
C187	C	-0.307136	0.678092	-0.262146
C188	C	0.192864	1.178092	0.237854
C189	C	-0.377513	0.649373	-0.302207
C190	C	0.122487	1.149373	0.197793
C191	C	-0.400974	0.620653	-0.342265
C192	C	0.099026	1.120653	0.157735
C193	C	-0.377516	0.591932	-0.382321
C194	C	0.122484	1.091932	0.117679
C195	C	-0.330600	0.591928	-0.382313
C196	C	0.169400	1.091928	0.117687
C197	C	-0.330593	0.706813	-0.222090
C198	C	0.169407	1.206813	0.277910
C199	C	-0.377509	0.706814	-0.222101
C200	C	0.122491	1.206814	0.277899
C201	C	-0.400969	0.678094	-0.262159
C202	C	0.099031	1.178094	0.237841
C203	C	0.333265	0.649338	-0.302189
C204	C	0.833265	1.149338	0.197811
C205	C	0.383199	0.649381	-0.302222
C206	C	0.883199	1.149381	0.197778
C207	C	0.216533	0.649372	-0.465583
C208	C	0.716533	1.149372	0.034417
C209	C	0.216529	0.649388	-0.535225
C210	C	0.716529	1.149388	-0.035225
C211	C	0.216566	0.766513	-0.302212
C212	C	0.716566	1.266513	0.197788
C213	C	0.216576	0.816447	-0.302235
C214	C	0.716576	1.316447	0.197765
C215	C	0.187800	0.678122	-0.567948
C216	C	0.687800	1.178122	-0.067948
C217	C	0.187781	0.678121	-0.633383
C218	C	0.687781	1.178121	-0.133383
C219	C	0.216499	0.649391	-0.666093
C220	C	0.716499	1.149391	-0.166093
C221	C	0.245230	0.620651	-0.633362
C222	C	0.745230	1.120651	-0.133362
C223	C	0.245245	0.620649	-0.567928
C224	C	0.745245	1.120649	-0.067928
C225	C	0.256949	0.645845	-0.769777
C226	C	0.756949	1.145845	-0.269777
C227	C	0.256935	0.645850	-0.835210
C228	C	0.756935	1.145850	-0.335210
C229	C	0.216451	0.649394	-0.867914
C230	C	0.716451	1.149394	-0.367914
C231	C	0.175981	0.652942	-0.835177
C232	C	0.675981	1.152942	-0.335177
C233	C	0.175996	0.652941	-0.769743
C234	C	0.675996	1.152941	-0.269743
C235	C	0.216485	0.649390	-0.737045
C236	C	0.716485	1.149390	-0.237045
C237	C	0.187699	0.678129	-0.971590
C238	C	0.687699	1.178129	-0.471590
C239	C	0.187679	0.678125	-1.037026
C240	C	0.687679	1.178125	-0.537026
C241	C	0.245131	0.620657	-1.037004
C242	C	0.745131	1.120657	-0.537004
C243	C	0.245147	0.620659	-0.971568
C244	C	0.745147	1.120659	-0.471568
C245	C	0.216432	0.649397	-0.938865
C246	C	0.716432	1.149397	-0.438865
C247	C	0.216519	0.649323	-0.139372
C248	C	0.716519	1.149323	0.360628
C249	C	0.216396	0.649394	-0.069731
C250	C	0.716396	1.149394	0.430269
H251	H	0.164374	-0.179244	-0.229633
H252	H	0.664374	0.320756	0.270367
H253	H	0.045077	0.701454	-0.229466
H254	H	0.545077	1.201454	0.270534
H255	H	0.268726	0.393259	-0.374721
H256	H	0.768726	0.893259	0.125279
H257	H	0.164356	-0.094135	-0.229623
H258	H	0.664356	0.405865	0.270377
H259	H	0.268639	0.597248	-0.541285
H260	H	0.768639	1.097248	-0.041285
C261	C	0.305779	-0.060362	-0.350816
C262	C	0.805779	0.439638	0.149184
C263	C	0.276969	-0.087328	-0.386213
C264	C	0.776969	0.412672	0.113787
H265	H	0.325305	-0.044429	-0.377971
H266	H	0.825305	0.455571	0.122029
H267	H	0.288642	-0.039693	-0.326993
H268	H	0.788642	0.460307	0.173007
H269	H	0.322936	-0.078679	-0.323486
H270	H	0.822936	0.421321	0.176514
H271	H	0.259810	-0.069011	-0.413540
H272	H	0.759810	0.430989	0.086460
H273	H	0.294108	-0.108000	-0.410046
H274	H	0.794108	0.392000	0.089954
H275	H	0.143015	0.655829	-0.861803
H276	H	0.643015	1.155829	-0.361803
C277	C	0.078717	0.560188	-0.350875
C278	C	0.578717	1.060188	0.149125
C279	C	0.051751	0.589050	-0.386229
C280	C	0.551751	1.089050	0.113771
H281	H	0.094630	0.540694	-0.378060
H282	H	0.594630	1.040694	0.121940
H283	H	0.099405	0.577290	-0.327024
H284	H	0.599405	1.077290	0.172976
H285	H	0.060404	0.543000	-0.323574
H286	H	0.560404	1.043000	0.176426
H287	H	0.070065	0.606240	-0.413527
H288	H	0.570065	1.106240	0.086473
H289	H	0.031061	0.571946	-0.410091
H290	H	0.531061	1.071946	0.089909
C291	C	-0.232047	0.535136	-0.461478
C292	C	0.267953	1.035136	0.038522
C293	C	-0.262551	0.560345	-0.426332
C294	C	0.237449	1.060345	0.073668
H295	H	-0.247962	0.515638	-0.488658
H296	H	0.252038	1.015638	0.011342
H297	H	-0.213746	0.554717	-0.485451
H298	H	0.286254	1.054717	0.014549
H299	H	-0.213749	0.517952	-0.434158
H300	H	0.286251	1.017952	0.065842
H301	H	-0.280847	0.577532	-0.453652
H302	H	0.219153	1.077532	0.046348
H303	H	-0.280860	0.540762	-0.402356
H304	H	0.219140	1.040762	0.097644
C305	C	-0.449443	0.566439	-0.417899
C306	C	0.050557	1.066439	0.082101
C307	C	-0.403309	0.560364	-0.426357
C308	C	0.096691	1.060364	0.073643
H309	H	-0.465367	0.546954	-0.445089
H310	H	0.034633	1.046954	0.054911
H311	H	-0.457132	0.559852	-0.375805
H312	H	0.042868	1.059852	0.124195
H313	H	-0.457117	0.596630	-0.427080
H314	H	0.042883	1.096630	0.072920
H315	H	-0.395635	0.530174	-0.417171
H316	H	0.104365	1.030174	0.082829
H317	H	-0.395617	0.566947	-0.468461
H318	H	0.104383	1.066947	0.031539
C319	C	-0.073698	0.738507	-0.253418
C320	C	0.426302	1.238507	0.246582
C321	C	-0.046732	0.709646	-0.218062
C322	C	0.453268	1.209646	0.281938
H323	H	-0.089615	0.757999	-0.226236
H324	H	0.410385	1.257999	0.273764
H325	H	-0.055386	0.755693	-0.280715
H326	H	0.444614	1.255693	0.219285
H327	H	-0.094385	0.721401	-0.277275
H328	H	0.405615	1.221401	0.222725
H329	H	-0.026042	0.726753	-0.194208
H330	H	0.473958	1.226753	0.305792
H331	H	-0.065045	0.692459	-0.190754
H332	H	0.434955	1.192459	0.309246
C333	C	0.102120	0.060338	-0.143070
C334	C	0.602120	0.560338	0.356930
C335	C	0.127375	0.029857	-0.178187
C336	C	0.627375	0.529857	0.321813
H337	H	0.082589	0.044404	-0.115924
H338	H	0.582589	0.544404	0.384076
H339	H	0.121669	0.078625	-0.119061
H340	H	0.621669	0.578625	0.380939
H341	H	0.084969	0.078652	-0.170410
H342	H	0.584969	0.578652	0.329590
H343	H	0.144529	0.011546	-0.150846
H344	H	0.644529	0.511546	0.349154
H345	H	0.107824	0.011563	-0.202198
H346	H	0.607824	0.511563	0.297802
H347	H	0.164384	0.701520	-0.660032
H348	H	0.664384	1.201520	-0.160032
H349	H	-0.040044	0.597241	-0.374838
H350	H	0.459956	1.097241	0.125162
H351	H	0.164322	0.393151	-0.229520
H352	H	0.664322	0.893151	0.270480
C353	C	0.330953	0.098021	-0.461332
C354	C	0.830953	0.598021	0.038668
C355	C	0.305705	0.128503	-0.426207
C356	C	0.805705	0.628503	0.073793
H357	H	0.350474	0.113954	-0.488494
H358	H	0.850474	0.613954	0.011506
H359	H	0.348111	0.079713	-0.434002
H360	H	0.848111	0.579713	0.065998
H361	H	0.311396	0.079729	-0.485330
H362	H	0.811396	0.579729	0.014670
H363	H	0.325263	0.146793	-0.402205
H364	H	0.825263	0.646793	0.097795
H365	H	0.288546	0.146819	-0.453540
H366	H	0.788546	0.646819	0.046460
C367	C	0.307319	0.679880	-0.696260
C368	C	0.807319	1.179880	-0.196260
C369	C	0.301463	0.641936	-0.733858
C370	C	0.801463	1.141936	-0.233858
H371	H	0.334800	0.677459	-0.674092
H372	H	0.834800	1.177459	-0.174092
H373	H	0.307899	0.705921	-0.721801
H374	H	0.807899	1.205921	-0.221801
H375	H	0.283231	0.681988	-0.667381
H376	H	0.783231	1.181988	-0.167381
H377	H	0.325549	0.639830	-0.762740
H378	H	0.825549	1.139830	-0.262740
H379	H	0.300886	0.615888	-0.708315
H380	H	0.800886	1.115888	-0.208315
C381	C	0.152669	0.155290	-0.137869
C382	C	0.652669	0.655290	0.362131
C383	C	0.127372	0.128334	-0.178162
C384	C	0.627372	0.628334	0.321838
H385	H	0.133142	0.171186	-0.110708
H386	H	0.633142	0.671186	0.389292
H387	H	0.172218	0.136975	-0.113878
H388	H	0.672218	0.636975	0.386122
H389	H	0.169797	0.175997	-0.161699
H390	H	0.669797	0.675997	0.338301
H391	H	0.110246	0.107626	-0.154333
H392	H	0.610246	0.607626	0.345667
H393	H	0.107815	0.146651	-0.202155
H394	H	0.607815	0.646651	0.297845
C395	C	-0.289513	0.713059	-0.137796
C396	C	0.210487	1.213059	0.362204
C397	C	-0.262530	0.738396	-0.178051
C398	C	0.237470	1.238396	0.321949
H399	H	-0.305420	0.732558	-0.110612
H400	H	0.194580	1.232558	0.389388
H401	H	-0.310205	0.695961	-0.161647
H402	H	0.189795	1.195961	0.338353
H403	H	-0.271212	0.693479	-0.113822
H404	H	0.228788	1.193479	0.386178
H405	H	-0.280831	0.757974	-0.202029
H406	H	0.219169	1.257974	0.297971
H407	H	-0.241835	0.755501	-0.154198
H408	H	0.258165	1.255501	0.345802
H409	H	-0.396603	0.730206	-0.189479
H410	H	0.103397	1.230206	0.310521
H411	H	-0.527330	0.597264	-0.374892
H412	H	-0.027330	1.097264	0.125108
H413	H	-0.311507	0.568537	-0.414930
H414	H	0.188493	1.068537	0.085070
H415	H	0.297511	0.036702	-0.414820
H416	H	0.797511	0.536702	0.085180
H417	H	0.164319	0.478273	-0.229507
H418	H	0.664319	0.978273	0.270493
C419	C	-0.551144	0.734876	-0.182964
C420	C	-0.051144	1.234876	0.317036
C421	C	-0.520640	0.709672	-0.218120
C422	C	-0.020640	1.209672	0.281880
H423	H	-0.535227	0.754364	-0.155771
H424	H	-0.035227	1.254364	0.344229
H425	H	-0.569437	0.752066	-0.210273
H426	H	-0.069437	1.252066	0.289727
H427	H	-0.569449	0.715289	-0.158998
H428	H	-0.069449	1.215289	0.341002
H429	H	-0.502337	0.729259	-0.242089
H430	H	-0.002337	1.229259	0.257911
H431	H	-0.502339	0.692480	-0.190807
H432	H	-0.002339	1.192480	0.309193
C433	C	0.131009	0.734926	-0.574548
C434	C	0.631009	1.234926	-0.074548
C435	C	0.156232	0.709706	-0.532002
C436	C	0.656232	1.209706	-0.032002
H437	H	0.111518	0.754421	-0.552354
H438	H	0.611518	1.254421	-0.052354
H439	H	0.150581	0.752109	-0.600090
H440	H	0.650581	1.252109	-0.100090
H441	H	0.113817	0.715349	-0.600048
H442	H	0.613817	1.215349	-0.100048
H443	H	0.173426	0.729283	-0.506504
H444	H	0.673426	1.229283	-0.006504
H445	H	0.136657	0.692521	-0.506449
H446	H	0.636657	1.192521	-0.006449
H447	H	-0.311497	0.730201	-0.189470
H448	H	0.188503	1.230201	0.310530
H449	H	0.268725	0.478366	-0.374693
H450	H	0.768725	0.978366	0.125307
H451	H	0.268775	-0.179145	-0.374825
H452	H	0.768775	0.320855	0.125175
C453	C	0.133430	0.315231	-0.186598
C454	C	0.633430	0.815231	0.313402
C455	C	0.127355	0.269091	-0.178148
C456	C	0.627355	0.769091	0.321852
H457	H	0.113901	0.331134	-0.159449
H458	H	0.613901	0.831134	0.340551
H459	H	0.163602	0.322917	-0.177364
H460	H	0.663602	0.822917	0.322636
H461	H	0.126900	0.322933	-0.228712
H462	H	0.626900	0.822933	0.271288
H463	H	0.133888	0.261388	-0.136035
H464	H	0.633888	0.761388	0.363965
H465	H	0.097177	0.261402	-0.187377
H466	H	0.597177	0.761402	0.312623
C467	C	0.330946	0.238781	-0.461291
C468	C	0.830946	0.738781	0.038709
C469	C	0.305694	0.269260	-0.426166
C470	C	0.805694	0.769260	0.073834
H471	H	0.350465	0.254716	-0.488451
H472	H	0.850465	0.754716	0.011549
H473	H	0.348106	0.220474	-0.433961
H474	H	0.848106	0.720474	0.066039
H475	H	0.311391	0.220487	-0.485290
H476	H	0.811391	0.720487	0.014710
H477	H	0.325249	0.287552	-0.402163
H478	H	0.825249	0.787552	0.097837
H479	H	0.288534	0.287574	-0.453499
H480	H	0.788534	0.787574	0.046501
C481	C	0.095974	0.659944	-0.776275
C482	C	0.595974	1.159944	-0.276275
C483	C	0.131514	0.656834	-0.733758
C484	C	0.631514	1.156834	-0.233758
H485	H	0.068512	0.662343	-0.754058
H486	H	0.568512	1.162343	-0.254058
H487	H	0.099919	0.685691	-0.801817
H488	H	0.599919	1.185691	-0.301817
H489	H	0.095384	0.633902	-0.801778
H490	H	0.595384	1.133902	-0.301778
H491	H	0.132105	0.682877	-0.708258
H492	H	0.632105	1.182877	-0.208258
H493	H	0.127568	0.631085	-0.708205
H494	H	0.627568	1.131085	-0.208205
C495	C	0.130904	0.734929	-0.978182
C496	C	0.630904	1.234929	-0.478182
C497	C	0.156130	0.709712	-0.935637
C498	C	0.656130	1.209712	-0.435637
H499	H	0.111413	0.754424	-0.955986
H500	H	0.611413	1.254424	-0.455986
H501	H	0.150473	0.752113	-1.003727
H502	H	0.650473	1.252113	-0.503727
H503	H	0.113711	0.715351	-1.003679
H504	H	0.613711	1.215351	-0.503679
H505	H	0.173326	0.729290	-0.910143
H506	H	0.673326	1.229290	-0.410143
H507	H	0.136558	0.692527	-0.910081
H508	H	0.636558	1.192527	-0.410081
C509	C	-0.137094	0.585694	-0.466570
C510	C	0.362906	1.085694	0.033430
C511	C	-0.164076	0.560345	-0.426327
C512	C	0.335924	1.060345	0.073673
H513	H	-0.121181	0.566202	-0.493757
H514	H	0.378819	1.066202	0.006243
H515	H	-0.155394	0.605273	-0.490537
H516	H	0.344606	1.105273	0.009463
H517	H	-0.116403	0.602792	-0.442708
H518	H	0.383597	1.102792	0.057292
H519	H	-0.184769	0.543250	-0.450190
H520	H	0.315231	1.043250	0.049810
H521	H	-0.145774	0.540758	-0.402358
H522	H	0.354226	1.040758	0.097642
H523	H	0.297506	0.177460	-0.414776
H524	H	0.797506	0.677460	0.085224
H525	H	-0.170739	0.730205	-0.189461
H526	H	0.329261	1.230205	0.310539
H527	H	0.268509	0.597260	-1.063635
H528	H	0.768509	1.097260	-0.563635
H529	H	0.164282	0.701524	-1.063668
H530	H	0.664282	1.201524	-0.563668
H531	H	-0.612452	0.597271	-0.374897
H532	H	-0.112452	1.097271	0.125103
C533	C	-0.646101	0.684328	-0.177880
C534	C	-0.146101	1.184328	0.322120
C535	C	-0.619119	0.709673	-0.218129
C536	C	-0.119119	1.209673	0.281871
H537	H	-0.662011	0.703822	-0.150694
H538	H	-0.162011	1.203822	0.349306
H539	H	-0.666789	0.667230	-0.201735
H540	H	-0.166789	1.167230	0.298265
H541	H	-0.627797	0.664748	-0.153908
H542	H	-0.127797	1.164748	0.346092
H543	H	-0.637423	0.729251	-0.242104
H544	H	-0.137423	1.229251	0.257896
H545	H	-0.598428	0.726779	-0.194271
H546	H	-0.098428	1.226779	0.305729
C547	C	0.301935	0.563858	-0.978121
C548	C	0.801935	1.063858	-0.478121
C549	C	0.276731	0.589076	-0.935595
C550	C	0.776731	1.089076	-0.435595
H551	H	0.321435	0.544360	-0.955911
H552	H	0.821435	1.044360	-0.455911
H553	H	0.282352	0.546677	-1.003617
H554	H	0.782352	1.046677	-0.503617
H555	H	0.319117	0.583435	-1.003668
H556	H	0.819117	1.083435	-0.503668
H557	H	0.259546	0.569498	-0.910050
H558	H	0.759546	1.069498	-0.410050
H559	H	0.296317	0.606258	-0.910087
H560	H	0.796317	1.106258	-0.410087
H561	H	0.289888	0.642963	-0.861859
H562	H	0.789888	1.142963	-0.361859
H563	H	0.268610	0.597257	-0.659998
H564	H	0.768610	1.097257	-0.159998
H565	H	0.135562	0.177297	-0.189558
H566	H	0.635562	0.677297	0.310442
