data_functionalizedCrystal
_audit_creation_method	'MofGen! by Chris Wilmer'
_symmetry_space_group_name_H-M	'P1'
_symmetry_Int_Tables_number	1
_symmetry_cell_setting	triclinic
loop_
_symmetry_equiv_pos_as_xyz
  x,y,z
_cell_length_a	12.759401
_cell_length_b	12.594516
_cell_length_c	12.594509
_cell_angle_alpha	89.973801
_cell_angle_beta	89.982105
_cell_angle_gamma	90.015097
loop_
_atom_site_label
_atom_site_type_symbol
_atom_site_fract_x
_atom_site_fract_y
_atom_site_fract_z
Zn1	Zn	1.606239	-0.423737	-0.601778
Zn2	Zn	1.606131	-0.601747	-0.423805
Zn3	Zn	1.430543	-0.423780	-0.423817
Zn4	Zn	1.430525	-0.601671	-0.601746
O5	O	1.518359	-0.512734	-0.512787
O6	O	1.753245	-0.447365	-0.578178
O7	O	1.582801	-0.578190	-0.274861
O8	O	1.453901	-0.274829	-0.447442
O9	O	1.753166	-0.578148	-0.447422
O10	O	1.582985	-0.274797	-0.578189
O11	O	1.453797	-0.447438	-0.274870
O12	O	1.283519	-0.447364	-0.447411
O13	O	1.453872	-0.578018	-0.750696
O14	O	1.283506	-0.578060	-0.578135
O15	O	1.582967	-0.447291	-0.750719
O16	O	1.582784	-0.750683	-0.447391
O17	O	1.453767	-0.750627	-0.578124
C18	C	1.245392	-0.512709	-0.512772
C19	C	1.128615	-0.512724	-0.512791
C20	C	1.073787	-0.444754	-0.580981
C21	C	0.964063	-0.444774	-0.580987
C22	C	0.964005	-0.580744	-0.444611
C23	C	1.073727	-0.580718	-0.444600
C24	C	1.073821	-0.366255	-0.659719
C25	C	0.964096	-0.366276	-0.659726
C26	C	1.518290	-0.789275	-0.512776
C27	C	1.518357	-0.907580	-0.512807
C28	C	1.448178	-0.976842	-0.583863
C29	C	1.422580	-1.047707	-0.486741
C30	C	1.544051	-1.047514	-0.609945
C31	C	1.492708	-0.976887	-0.415634
C32	C	1.614224	-0.976689	-0.538904
C33	C	1.588662	-1.047522	-0.441716
C34	C	1.792392	-0.512760	-0.512802
C35	C	1.909169	-0.512771	-0.512809
C36	C	1.518430	-0.512641	-0.790408
C37	C	1.518460	-0.512601	-0.908713
C38	C	1.518457	-0.235113	-0.512820
C39	C	1.518499	-0.116808	-0.512835
C40	C	1.448266	-0.583663	-0.977954
C41	C	1.544132	-0.609671	-1.048739
C42	C	1.422669	-0.486529	-1.048727
C43	C	1.614375	-0.538660	-0.977940
C44	C	1.492848	-0.415473	-0.977922
C45	C	1.588779	-0.441444	-1.048675
C46	C	1.518350	-0.512750	-0.236246
C47	C	1.518523	-0.512490	-0.117941
H48	H	0.930057	-0.287934	-0.630344
H49	H	1.648235	-0.381301	-1.079532
H50	H	1.471122	-0.333405	-0.946792
H51	H	1.341633	-0.464524	-1.079821
H52	H	1.118363	-0.636056	-0.389063
H53	H	0.934350	-0.388462	-0.742128
N54	N	1.715814	-0.937494	-0.566612
N55	N	1.765506	-0.880708	-0.502681
H56	H	1.837253	-0.853020	-0.522259
N57	N	1.373589	-0.937915	-0.659131
N58	N	1.278735	-0.960727	-0.649267
H59	H	1.226053	-0.933235	-0.702421
H60	H	1.341573	-1.078924	-0.464690
H61	H	0.919301	-0.636103	-0.389093
N62	N	1.571268	-1.086439	-0.712976
N63	N	1.650840	-1.143116	-0.724677
H64	H	1.670056	-1.170606	-0.797443
N65	N	1.465369	-0.938130	-0.312574
N66	N	1.386170	-0.880893	-0.301009
H67	H	1.366852	-0.853520	-0.228226
N68	N	1.111178	-0.262798	-0.632216
N69	N	1.087533	-0.184592	-0.688449
H70	H	1.113917	-0.111527	-0.669027
N71	N	1.116557	-0.403430	-0.757875
N72	N	1.095999	-0.495092	-0.789690
H73	H	1.126180	-0.521353	-0.859012
N74	N	1.663186	-1.086204	-0.366257
N75	N	1.653604	-1.063361	-0.270171
H76	H	1.706232	-1.090681	-0.216874
N77	N	1.373862	-0.659174	-0.939005
N78	N	1.383491	-0.755280	-0.961727
H79	H	1.330947	-0.808612	-0.934220
H80	H	1.565829	-0.691763	-1.079846
H81	H	1.695434	-0.560758	-0.946977
