data_functionalizedCrystal
_audit_creation_method	'MofGen! by Chris Wilmer'
_symmetry_space_group_name_H-M	'P1'
_symmetry_Int_Tables_number	1
_symmetry_cell_setting	triclinic
loop_
_symmetry_equiv_pos_as_xyz
  x,y,z
_cell_length_a	18.101395
_cell_length_b	18.101398
_cell_length_c	17.639306
_cell_angle_alpha	78.771019
_cell_angle_beta	101.187880
_cell_angle_gamma	90.026371
loop_
_atom_site_label
_atom_site_type_symbol
_atom_site_fract_x
_atom_site_fract_y
_atom_site_fract_z
Zn1	Zn	-0.379607	1.216733	-0.447033
Zn2	Zn	0.120393	1.716733	0.052967
Zn3	Zn	-0.478418	1.191612	-0.314861
Zn4	Zn	0.021582	1.691612	0.185139
Zn5	Zn	-0.354584	1.067875	-0.314860
Zn6	Zn	0.145416	1.567875	0.185140
Zn7	Zn	-0.503391	1.092833	-0.446980
Zn8	Zn	-0.003391	1.592833	0.053020
O9	O	-0.429000	1.142263	-0.380934
O10	O	0.071000	1.642263	0.119066
O11	O	-0.392735	1.317038	-0.429523
O12	O	0.107265	1.817038	0.070477
O13	O	-0.441067	1.154240	-0.204254
O14	O	0.058933	1.654240	0.295746
O15	O	-0.254275	1.087690	-0.332415
O16	O	0.245725	1.587690	0.167585
O17	O	-0.465331	1.298582	-0.332417
O18	O	0.034669	1.798582	0.167583
O19	O	-0.272659	1.197055	-0.429522
O20	O	0.227341	1.697055	0.070478
O21	O	-0.350087	1.063331	-0.204254
O22	O	0.149913	1.563331	0.295746
O23	O	-0.374303	0.967549	-0.332364
O24	O	0.125697	1.467549	0.167636
O25	O	-0.507895	1.130226	-0.557594
O26	O	-0.007895	1.630226	-0.057594
O27	O	-0.483631	0.985885	-0.429432
O28	O	0.016369	1.485885	0.070568
O29	O	-0.416951	1.221255	-0.557633
O30	O	0.083049	1.721255	-0.057633
O31	O	-0.585359	1.178440	-0.332365
O32	O	-0.085359	1.678440	0.167635
O33	O	-0.603707	1.105868	-0.429432
O34	O	-0.103707	1.605868	0.070568
C35	C	-0.428962	0.949845	-0.380892
C36	C	0.071038	1.449845	0.119108
C37	C	-0.428967	0.867531	-0.380894
C38	C	0.071033	1.367531	0.119106
C39	C	-0.621406	1.142160	-0.380910
C40	C	-0.121406	1.642160	0.119090
C41	C	-0.703723	1.142188	-0.380927
C42	C	-0.203723	1.642188	0.119073
C43	C	-1.002822	1.142359	-0.380970
C44	C	-0.502822	1.642359	0.119030
C45	C	-0.983101	1.096859	-0.442193
C46	C	-0.483101	1.596859	0.057807
C47	C	-0.897447	1.096552	-0.442002
C48	C	-0.397447	1.596552	0.057998
C49	C	-0.854436	1.142274	-0.380949
C50	C	-0.354436	1.642274	0.119051
C51	C	-0.869805	1.105378	-0.297645
C52	C	-0.369805	1.605378	0.202355
C53	C	-0.955520	1.105079	-0.298012
C54	C	-0.455520	1.605079	0.201988
C55	C	-0.975216	1.224741	-0.402317
C56	C	-0.475216	1.724741	0.097683
C57	C	-0.889911	1.224626	-0.404143
C58	C	-0.389911	1.724626	0.095857
C59	C	-0.770573	1.142227	-0.380932
C60	C	-0.270573	1.642227	0.119068
C61	C	-1.086684	1.142403	-0.380981
C62	C	-0.586684	1.642403	0.119019
C63	C	-0.429026	0.568453	-0.380960
C64	C	0.070974	1.068453	0.119040
C65	C	-0.360010	0.588273	-0.320186
C66	C	0.139990	1.088273	0.179814
C67	C	-0.360116	0.673842	-0.319926
C68	C	0.139884	1.173842	0.180074
C69	C	-0.428996	0.716829	-0.380927
C70	C	0.071004	1.216829	0.119073
C71	C	-0.502697	0.681403	-0.358170
C72	C	-0.002697	1.181403	0.141830
C73	C	-0.502298	0.595678	-0.357747
C74	C	-0.002298	1.095678	0.142253
C75	C	-0.425046	0.615905	-0.464635
C76	C	0.074954	1.115905	0.035365
C77	C	-0.423222	0.701469	-0.464178
C78	C	0.076778	1.201469	0.035822
C79	C	-0.428985	0.800685	-0.380910
C80	C	0.071015	1.300685	0.119090
C81	C	-0.429043	0.484596	-0.380975
C82	C	0.070957	0.984596	0.119025
C83	C	-0.235846	1.142390	-0.380974
C84	C	0.264154	1.642390	0.119026
C85	C	-0.153535	1.142445	-0.380992
C86	C	0.346465	1.642445	0.119008
C87	C	-0.468000	1.181327	-0.587094
C88	C	0.032000	1.681327	-0.087094
C89	C	-0.484619	1.197974	-0.674948
C90	C	0.015381	1.697974	-0.174948
C91	C	-0.429039	1.335433	-0.380976
C92	C	0.070961	1.835433	0.119024
C93	C	-0.429055	1.417750	-0.380993
C94	C	0.070945	1.917750	0.119007
C95	C	-0.302469	1.016088	-0.963909
C96	C	0.197531	1.516088	-0.463909
C97	C	-0.318101	1.031747	-1.046461
C98	C	0.181899	1.531747	-0.546461
C99	C	-0.412828	1.126401	-1.046441
C100	C	0.087172	1.626401	-0.546441
C101	C	-0.397202	1.110753	-0.963888
C102	C	0.102798	1.610753	-0.463888
C103	C	-0.342022	1.055595	-0.922628
C104	C	0.157978	1.555595	-0.422628
C105	C	-0.436755	1.150259	-0.922607
C106	C	0.063245	1.650259	-0.422607
C107	C	-0.421132	1.134609	-0.840061
C108	C	0.078868	1.634609	-0.340061
C109	C	-0.365956	1.079453	-0.798796
C110	C	0.134044	1.579453	-0.298796
C111	C	-0.326399	1.039945	-0.840082
C112	C	0.173601	1.539945	-0.340082
C113	C	-0.491938	1.205413	-0.963868
C114	C	0.008062	1.705413	-0.463868
C115	C	-0.531491	1.244920	-0.922588
C116	C	-0.031491	1.744920	-0.422588
C117	C	-0.515865	1.229274	-0.840040
C118	C	-0.015865	1.729274	-0.340040
C119	C	-0.460689	1.174117	-0.798775
C120	C	0.039311	1.674117	-0.298775
C121	C	-0.555422	1.268781	-0.798754
C122	C	-0.055422	1.768781	-0.298754
C123	C	-0.539799	1.253131	-0.716208
C124	C	-0.039799	1.753131	-0.216208
C125	C	-0.445066	1.158467	-0.716229
C126	C	0.054934	1.658467	-0.216229
C127	C	-0.390099	1.103394	-0.175575
C128	C	0.109901	1.603394	0.324425
C129	C	-0.373271	1.086891	-0.087722
C130	C	0.126729	1.586891	0.412278
H131	H	-0.888085	1.121462	-0.503770
H132	H	-0.388085	1.621462	-0.003770
H133	H	-0.554612	0.582969	-0.400082
H134	H	-0.054612	1.082969	0.099918
H135	H	-0.475507	0.604219	-0.509917
H136	H	0.024493	1.104219	-0.009917
H137	H	-0.967304	1.135927	-0.250839
H138	H	-0.467304	1.635927	0.249161
H139	H	-0.457758	1.171308	-1.080046
H140	H	0.042242	1.671308	-0.580046
H141	H	-0.373070	0.598249	-0.485326
H142	H	0.126930	1.098249	0.014674
H143	H	-0.600354	1.313685	-0.832360
H144	H	-0.100354	1.813685	-0.332360
H145	H	-0.400125	1.113560	-0.682633
H146	H	0.099875	1.613560	-0.182633
H147	H	-0.972133	1.044389	-0.279929
H148	H	-0.472133	1.544389	0.220071
H149	H	-0.844929	1.045233	-0.279239
H150	H	-0.344929	1.545233	0.220761
H151	H	-1.008077	1.255306	-0.462027
H152	H	-0.508077	1.755306	0.037973
H153	H	-0.304969	0.697582	-0.334191
H154	H	0.195031	1.197582	0.165809
H155	H	-0.571997	1.285312	-0.682596
H156	H	-0.071997	1.785312	-0.182596
N157	N	-0.355290	0.731068	-0.485720
N158	N	0.144710	1.231068	0.014280
N159	N	-0.358339	0.780523	-0.546668
N160	N	0.141661	1.280523	-0.046668
H161	H	-0.310360	0.801430	-0.561882
H162	H	0.189640	1.301430	-0.061882
H163	H	-0.507527	0.564088	-0.296577
H164	H	-0.007527	1.064088	0.203423
N165	N	-0.568071	0.717133	-0.411967
N166	N	-0.068071	1.217133	0.088033
N167	N	-0.561055	0.769230	-0.467812
N168	N	-0.061055	1.269230	0.032188
H169	H	-0.607224	0.794466	-0.505808
H170	H	-0.107224	1.294466	-0.005808
N171	N	-0.507931	1.221338	-1.048188
N172	N	-0.007931	1.721338	-0.548188
N173	N	-0.572671	1.212749	-1.084966
N174	N	-0.072671	1.712749	-0.584966
H175	H	-0.583974	1.223971	-1.144516
H176	H	-0.083974	1.723971	-0.644516
H177	H	-0.281458	0.995038	-0.806486
H178	H	0.218542	1.495038	-0.306486
H179	H	-0.508344	0.691365	-0.297660
H180	H	-0.008344	1.191365	0.202340
H181	H	-0.471090	0.731904	-0.511886
H182	H	0.028910	1.231904	-0.011886
N183	N	-0.349998	1.063479	-0.714477
N184	N	0.150002	1.563479	-0.214477
N185	N	-0.327557	1.114274	-0.677644
N186	N	0.172443	1.614274	-0.177644
H187	H	-0.316286	1.102994	-0.618093
H188	H	0.183714	1.602994	-0.118093
N189	N	-0.246084	0.959760	-0.921768
N190	N	0.253916	1.459760	-0.421768
N191	N	-0.210760	0.924499	-0.958633
N192	N	0.289240	1.424499	-0.458633
H193	H	-0.170937	0.884722	-0.928871
H194	H	0.329063	1.384722	-0.428871
N195	N	-0.277690	0.991379	-1.088616
N196	N	0.222310	1.491379	-0.588616
N197	N	-0.228428	0.942133	-1.051764
N198	N	0.271572	1.442133	-0.551764
H199	H	-0.199890	0.913622	-1.081536
H200	H	0.300110	1.413622	-0.581536
H201	H	-0.576421	1.289826	-0.956193
H202	H	-0.076421	1.789826	-0.456193
H203	H	-0.860671	1.261584	-0.362802
H204	H	-0.360671	1.761584	0.137198
H205	H	-0.987023	1.258833	-0.357725
H206	H	-0.487023	1.758833	0.142275
N207	N	-1.023558	1.128037	-0.519941
N208	N	-0.523558	1.628037	-0.019941
N209	N	-1.067406	1.184150	-0.531139
N210	N	-0.567406	1.684150	-0.031139
H211	H	-1.095966	1.206187	-0.586054
H212	H	-0.595966	1.706187	-0.086054
N213	N	-1.006847	1.021135	-0.424696
N214	N	-0.506847	1.521135	0.075304
N215	N	-1.053809	0.996336	-0.474609
N216	N	-0.553809	1.496336	0.025391
H217	H	-1.070579	0.942855	-0.462252
H218	H	-0.570579	1.442855	0.037748
H219	H	-0.881163	1.252163	-0.465450
H220	H	-0.381163	1.752163	0.034550
H221	H	-0.304657	0.570373	-0.334293
H222	H	0.195343	1.070373	0.165707
H223	H	-0.840561	1.136780	-0.250785
H224	H	-0.340561	1.636780	0.249215
H225	H	-0.361480	0.682560	-0.257924
H226	H	0.138520	1.182560	0.242076
N227	N	-0.868465	1.020345	-0.424265
N228	N	-0.368465	1.520345	0.075735
N229	N	-0.911510	0.967221	-0.411982
N230	N	-0.411510	1.467221	0.088018
H231	H	-0.891043	0.913396	-0.399453
H232	H	-0.391043	1.413396	0.100547
H233	H	-0.361295	0.555056	-0.258544
H234	H	0.138705	1.055056	0.241456
