data_functionalizedCrystal
_audit_creation_method	'MofGen! by Chris Wilmer'
_symmetry_space_group_name_H-M	'P1'
_symmetry_Int_Tables_number	1
_symmetry_cell_setting	triclinic
loop_
_symmetry_equiv_pos_as_xyz
  x,y,z
_cell_length_a	19.077236
_cell_length_b	12.645329
_cell_length_c	19.076919
_cell_angle_alpha	87.725138
_cell_angle_beta	90.112677
_cell_angle_gamma	92.310890
loop_
_atom_site_label
_atom_site_type_symbol
_atom_site_fract_x
_atom_site_fract_y
_atom_site_fract_z
Zn1	Zn	1.058320	-0.384817	0.440556
Zn2	Zn	1.558320	0.115183	0.940556
Zn3	Zn	1.062972	-0.554705	0.323056
Zn4	Zn	1.562972	-0.054705	0.823056
Zn5	Zn	0.945535	-0.384261	0.318336
Zn6	Zn	1.445535	0.115739	0.818336
Zn7	Zn	0.940793	-0.568847	0.435795
Zn8	Zn	1.440793	-0.068847	0.935795
O9	O	1.001905	-0.473158	0.379436
O10	O	1.501905	0.026842	0.879436
O11	O	1.157270	-0.401667	0.428938
O12	O	1.657270	0.098333	0.928938
O13	O	1.051326	-0.525943	0.224099
O14	O	1.551326	-0.025943	0.724099
O15	O	0.960534	-0.235986	0.334567
O16	O	1.460534	0.264014	0.834567
O17	O	1.160688	-0.526482	0.342611
O18	O	1.660688	-0.026482	0.842611
O19	O	1.043396	-0.236395	0.424361
O20	O	1.543396	0.263605	0.924361
O21	O	0.965045	-0.400719	0.220632
O22	O	1.465045	0.099281	0.720632
O23	O	0.846573	-0.414433	0.329950
O24	O	1.346573	0.085567	0.829950
O25	O	0.952451	-0.550587	0.534758
O26	O	1.452451	-0.050587	1.034758
O27	O	0.843088	-0.550048	0.416246
O28	O	1.343088	-0.050048	0.916246
O29	O	1.038798	-0.415380	0.538256
O30	O	1.538798	0.084620	1.038256
O31	O	1.046727	-0.704929	0.337994
O32	O	1.546727	-0.204929	0.837994
O33	O	0.956962	-0.715320	0.420822
O34	O	1.456962	-0.215320	0.920822
C35	C	0.819334	-0.483716	0.372069
C36	C	1.319334	0.016284	0.872069
C37	C	0.741228	-0.488259	0.368934
C38	C	1.241228	0.011741	0.868934
C39	C	0.702753	-0.425521	0.412476
C40	C	1.202753	0.074479	0.912476
C41	C	0.629365	-0.429784	0.409525
C42	C	1.129365	0.070216	0.909525
C43	C	0.594453	-0.496792	0.363034
C44	C	1.094453	0.003208	0.863034
C45	C	0.632935	-0.559533	0.319488
C46	C	1.132935	-0.059533	0.819488
C47	C	0.706322	-0.555263	0.322436
C48	C	1.206322	-0.055263	0.822436
C49	C	0.375162	-0.516514	0.349386
C50	C	0.875162	-0.016514	0.849386
C51	C	0.301769	-0.520781	0.346442
C52	C	0.801769	-0.020781	0.846442
C53	C	0.298204	-0.391030	0.436478
C54	C	0.798204	0.108970	0.936478
C55	C	0.371593	-0.386771	0.439425
C56	C	0.871593	0.113229	0.939425
C57	C	0.410068	-0.449507	0.395876
C58	C	0.910068	0.050493	0.895876
N59	N	0.519439	-0.501154	0.360018
N60	N	1.019439	-0.001154	0.860018
N61	N	0.485081	-0.445139	0.398890
N62	N	0.985081	0.054861	0.898890
C63	C	1.001853	-0.748589	0.379420
C64	C	1.501853	-0.248589	0.879420
C65	C	1.001895	-0.866418	0.379439
C66	C	1.501895	-0.366418	0.879439
C67	C	0.945399	-0.917881	0.431514
C68	C	1.445399	-0.417881	0.931514
C69	C	0.945615	-1.040442	0.431758
C70	C	1.445615	-0.540442	0.931758
C71	C	1.075281	-1.031144	0.402380
C72	C	1.575281	-0.531144	0.902380
C73	C	1.074886	-0.908591	0.402736
C74	C	1.574886	-0.408591	0.902736
C75	C	0.985791	-0.908132	0.304365
C76	C	1.485791	-0.408132	0.804365
C77	C	0.984205	-1.030858	0.304721
C78	C	1.484205	-0.530858	0.804721
C79	C	1.185189	-0.462559	0.386832
C80	C	1.685189	0.037441	0.886832
C81	C	1.263294	-0.458043	0.389984
C82	C	1.763294	0.041957	0.889984
C83	C	0.994576	-0.484623	0.562716
C84	C	1.494576	0.015377	1.062716
C85	C	0.991453	-0.489509	0.640819
C86	C	1.491453	0.010491	1.140819
C87	C	1.001975	-0.196650	0.379469
C88	C	1.501975	0.303350	0.879469
C89	C	1.002005	-0.078819	0.379482
C90	C	1.502005	0.421181	0.879482
C91	C	1.009246	-0.461658	0.196871
C92	C	1.509246	0.038342	0.696871
C93	C	1.012505	-0.456465	0.118774
C94	C	1.512505	0.043535	0.618774
C95	C	1.034940	-0.421413	0.679334
C96	C	1.534940	0.078587	1.179334
C97	C	1.031997	-0.426001	0.752720
C98	C	1.531997	0.073999	1.252720
C99	C	0.985570	-0.498690	0.787589
C100	C	1.485570	0.001310	1.287589
C101	C	0.942079	-0.566789	0.749068
C102	C	1.442079	-0.066789	1.249068
C103	C	0.945019	-0.562196	0.675684
C104	C	1.445019	-0.062196	1.175684
C105	C	0.971953	-0.519971	1.006869
C106	C	1.471953	-0.019971	1.506869
C107	C	0.969018	-0.524561	1.080259
C108	C	1.469018	-0.024561	1.580259
C109	C	1.058935	-0.383771	1.083905
C110	C	1.558935	0.116229	1.583905
C111	C	1.061874	-0.379188	1.010519
C112	C	1.561874	0.120812	1.510519
C113	C	1.018380	-0.447283	0.972005
C114	C	1.518380	0.052717	1.472005
N115	N	0.982562	-0.503383	0.862601
N116	N	1.482562	-0.003383	1.362601
N117	N	1.021385	-0.442585	0.896994
N118	N	1.521385	0.057415	1.396994
H119	H	0.406479	-0.567599	0.313926
H120	H	0.906479	-0.067599	0.813926
H121	H	1.072747	-0.362225	0.650949
H122	H	1.572747	0.137775	1.150949
C123	C	1.079837	-0.351091	0.795083
C124	C	1.579837	0.148909	1.295083
N125	N	1.115872	-0.294665	0.826991
N126	N	1.615872	0.205335	1.326991
C127	C	0.924106	-0.594875	0.964513
C128	C	1.424106	-0.094875	1.464513
N129	N	0.888064	-0.651295	0.932607
N130	N	1.388064	-0.151295	1.432607
C131	C	0.741148	-0.351805	0.463619
C132	C	1.241148	0.148195	0.963619
N133	N	0.770065	-0.296276	0.502139
N134	N	1.270065	0.203724	1.002139
H135	H	0.904275	-0.625970	0.777464
H136	H	1.404275	-0.125970	1.277464
C137	C	0.917941	-0.604525	1.118613
C138	C	1.417941	-0.104525	1.618613
N139	N	0.879472	-0.664752	1.147501
N140	N	1.379472	-0.164752	1.647501
H141	H	1.022603	-1.056662	0.263629
H142	H	1.522603	-0.556662	0.763629
H143	H	1.088863	-0.882403	0.457698
H144	H	1.588863	-0.382403	0.957698
C145	C	0.897181	-0.637109	0.633317
C146	C	1.397181	-0.137109	1.133317
N147	N	0.861147	-0.693534	0.601407
N148	N	1.361147	-0.193534	1.101407
H149	H	1.099682	-0.320000	0.982134
H150	H	1.599682	0.180000	1.482134
C151	C	0.594530	-0.633241	0.268347
C152	C	1.094530	-0.133241	0.768347
N153	N	0.565604	-0.688763	0.229829
N154	N	1.065604	-0.188763	0.729829
H155	H	0.598040	-0.378698	0.444982
H156	H	1.098040	0.121302	0.944982
C157	C	1.106767	-0.308859	1.126276
C158	C	1.606767	0.191141	1.626276
N159	N	1.142792	-0.252427	1.158190
N160	N	1.642792	0.247573	1.658190
C161	C	0.409989	-0.313046	0.490562
C162	C	0.909989	0.186954	0.990562
N163	N	0.438910	-0.257515	0.529078
N164	N	0.938910	0.242485	1.029078
C165	C	0.871592	-0.881451	0.411893
C166	C	1.371592	-0.381451	0.911893
N167	N	0.815998	-0.854001	0.397116
N168	N	1.315998	-0.354001	0.897116
H169	H	0.266870	-0.339952	0.471932
H170	H	0.766870	0.160048	0.971932
C171	C	0.263369	-0.594499	0.295297
C172	C	0.763369	-0.094499	0.795297
N173	N	0.234446	-0.650022	0.256778
N174	N	0.734446	-0.150022	0.756778
H175	H	0.737648	-0.606351	0.286980
H176	H	1.237648	-0.106351	0.786980
H177	H	0.955697	-0.889728	0.486762
H178	H	1.455697	-0.389728	0.986762
C179	C	0.872089	-1.084468	0.411965
C180	C	1.372089	-0.584468	0.911965
N181	N	0.816706	-1.117623	0.397061
N182	N	1.316706	-0.617623	0.897061
C183	C	0.959792	-1.083661	0.506837
C184	C	1.459792	-0.583661	1.006837
N185	N	0.970485	-1.116212	0.563387
N186	N	1.470485	-0.616212	1.063387
C187	C	1.133502	-0.861958	0.353945
C188	C	1.633502	-0.361958	0.853945
N189	N	1.177657	-0.826839	0.317204
N190	N	1.677657	-0.326839	0.817204
C191	C	0.914998	-0.869122	0.276928
C192	C	1.414998	-0.369122	0.776928
N193	N	0.861673	-0.839742	0.256270
N194	N	1.361673	-0.339742	0.756270
H195	H	1.026972	-0.874246	0.265531
H196	H	1.526972	-0.374246	0.765531
H197	H	1.118426	-1.055426	0.365760
H198	H	1.618426	-0.555426	0.865760
H199	H	1.089593	-1.064200	0.456769
H200	H	1.589593	-0.564200	0.956769
C201	C	0.911368	-1.073266	0.281464
C202	C	1.411368	-0.573266	0.781464
N203	N	0.856504	-1.105210	0.263950
N204	N	1.356504	-0.605210	0.763950
