data_functionalizedCrystal
_audit_creation_method	'MofGen! by Chris Wilmer'
_symmetry_space_group_name_H-M	'P1'
_symmetry_Int_Tables_number	1
_symmetry_cell_setting	triclinic
loop_
_symmetry_equiv_pos_as_xyz
  x,y,z
_cell_length_a	15.995350
_cell_length_b	10.654541
_cell_length_c	9.130307
_cell_angle_alpha	89.996917
_cell_angle_beta	90.002128
_cell_angle_gamma	83.988152
loop_
_atom_site_label
_atom_site_type_symbol
_atom_site_fract_x
_atom_site_fract_y
_atom_site_fract_z
O1	O	-1.111921	-0.161871	0.121675
O2	O	-0.868262	-0.181860	0.121705
O3	O	-0.995695	0.010947	0.121680
O4	O	-0.984488	-0.354679	0.121699
O5	O	-0.995691	0.010949	-0.121919
O6	O	-0.868258	-0.181859	-0.121894
O7	O	-1.111917	-0.161869	-0.121924
Cu8	Cu	-0.990087	-0.171864	-0.144152
Cu9	Cu	-0.990092	-0.171866	0.143932
O10	O	-0.984484	-0.354677	-0.121900
C11	C	-0.837060	-0.181033	-0.000091
C12	C	-0.744095	-0.178556	-0.000080
C13	C	-0.994870	0.057735	-0.000119
C14	C	-0.992410	0.197146	-0.000116
C15	C	-1.143119	-0.162697	-0.000125
C16	C	-1.236083	-0.165174	-0.000127
C17	C	-0.406296	-0.169658	-0.000111
C18	C	-0.452934	-0.032344	-0.000661
C19	C	-0.549638	-0.034822	-0.000102
C20	C	-0.573882	-0.174072	-0.000096
C21	C	-0.533191	-0.241800	0.139008
C22	C	-0.436535	-0.238351	0.139115
C23	C	-0.436208	-0.241186	-0.137903
C24	C	-0.533153	-0.241153	-0.139731
C25	C	-0.668594	-0.176573	-0.000083
C26	C	-0.311584	-0.167161	-0.000114
C27	C	-0.985309	-0.401465	-0.000098
C28	C	-0.987769	-0.540876	-0.000091
N29	N	-0.990090	-0.171862	-0.346775
C30	C	-1.144790	0.227108	-0.000153
C31	C	-1.219821	0.307582	-0.000175
C32	C	-1.217504	0.438570	-0.000170
C33	C	-1.140148	0.489085	-0.000139
C34	C	-1.065117	0.408610	-0.000118
C35	C	-1.067442	0.277621	-0.000127
C36	C	-0.912738	0.378649	-0.000070
C37	C	-0.915053	0.247661	-0.000085
C38	C	-0.835382	0.429164	-0.000039
C39	C	-0.760349	0.348689	-0.000028
C40	C	-0.762670	0.217694	-0.000034
C41	C	-0.840023	0.167187	-0.000064
C42	C	-1.102978	-0.001180	-0.346787
C43	C	-1.159428	0.084158	-0.423459
C44	C	-1.159436	0.084158	-0.576793
C45	C	-1.102987	-0.001185	-0.653457
C46	C	-1.046537	-0.086522	-0.576784
C47	C	-1.046537	-0.086516	-0.423447
C48	C	-0.933646	-0.257196	-0.576772
C49	C	-0.933640	-0.257205	-0.423439
C50	C	-0.877197	-0.342539	-0.653437
C51	C	-0.820750	-0.427884	-0.576764
C52	C	-0.820745	-0.427883	-0.423421
C53	C	-0.877191	-0.342542	-0.346766
N54	N	-0.990096	-0.171858	0.346555
H55	H	-0.434092	0.022544	-0.100419
H56	H	-0.841919	0.060531	-0.000078
N57	N	-0.586902	0.035713	-0.132164
H58	H	-0.617334	-0.023091	-0.194768
H59	H	-0.540470	0.068696	-0.191168
N60	N	-0.586140	0.036174	0.132199
H61	H	-0.539400	0.069196	0.190388
H62	H	-0.616329	-0.022427	0.195484
N63	N	-1.303252	0.253099	-0.000229
H64	H	-1.307625	0.199406	0.090061
H65	H	-1.307542	0.199495	-0.090603
N66	N	-1.102996	-0.001183	-0.818837
H67	H	-1.058675	-0.068196	-0.855769
H68	H	-1.090356	0.084201	-0.855659
H69	H	-0.547909	-0.344103	0.144185
H70	H	-1.278601	0.504094	-0.000176
N71	N	-0.394608	-0.371895	0.147492
H72	H	-0.358782	-0.382077	0.238669
H73	H	-0.358059	-0.390283	0.058257
H74	H	-0.560181	-0.191712	-0.242640
N75	N	-1.137646	0.630363	-0.000111
H76	H	-1.196915	0.673678	-0.000121
H77	H	-1.107131	0.655939	-0.090406
N78	N	-0.832878	0.570441	-0.000026
H79	H	-0.892146	0.613759	-0.000049
H80	H	-0.802358	0.596005	-0.090321
H81	H	-1.102984	-0.001182	-0.221934
H82	H	-0.433025	0.022290	0.098541
H83	H	-0.549107	-0.342698	-0.148129
H84	H	-0.417942	-0.188962	0.243095
N85	N	-0.676923	0.403170	0.000017
H86	H	-0.686841	0.498360	0.000028
H87	H	-0.644051	0.373749	-0.090283
N88	N	-0.877205	-0.342553	-0.818817
H89	H	-0.820218	-0.324224	-0.855761
H90	H	-0.921570	-0.275556	-0.855642
N91	N	-0.570410	-0.179501	0.276142
H92	H	-0.613620	-0.107419	0.248477
H93	H	-0.524343	-0.146170	0.335744
N94	N	-0.681742	0.130899	0.000002
H95	H	-0.632391	0.182781	0.000025
H96	H	-0.679374	0.075905	-0.090306
H97	H	-0.415410	-0.196294	-0.243341
N98	N	-0.394919	-0.375290	-0.139173
H99	H	-0.410869	-0.420110	-0.047441
H100	H	-0.331858	-0.374728	-0.143039
N101	N	-1.220290	0.176233	-0.340774
H102	H	-1.211718	0.163294	-0.232003
H103	H	-1.279776	0.161690	-0.367556
H104	H	-1.205399	0.153652	-0.639220
H105	H	-1.146685	0.120452	-0.000177
H106	H	-0.774789	-0.497359	-0.639194
H107	H	-0.774773	-0.497370	-0.361002
H108	H	-0.877194	-0.342537	-0.221914
