data_functionalizedCrystal
_audit_creation_method	'MofGen! by Chris Wilmer'
_symmetry_space_group_name_H-M	'P1'
_symmetry_Int_Tables_number	1
_symmetry_cell_setting	triclinic
loop_
_symmetry_equiv_pos_as_xyz
  x,y,z
_cell_length_a	14.472310
_cell_length_b	12.837943
_cell_length_c	12.837942
_cell_angle_alpha	85.171060
_cell_angle_beta	89.999573
_cell_angle_gamma	89.987748
loop_
_atom_site_label
_atom_site_type_symbol
_atom_site_fract_x
_atom_site_fract_y
_atom_site_fract_z
O1	O	0.076824	-1.402349	0.272135
O2	O	0.076829	-1.099215	0.258691
O3	O	0.076821	-1.244060	0.113846
O4	O	0.076832	-1.257504	0.416980
O5	O	-0.076861	-1.244020	0.113851
O6	O	-0.076853	-1.099175	0.258697
O7	O	-0.076858	-1.402308	0.272140
Cu8	Cu	-0.090888	-1.250738	0.265419
Cu9	Cu	0.090859	-1.250786	0.265412
O10	O	-0.076850	-1.257463	0.416985
C11	C	-0.000011	-1.060126	0.254153
C12	C	-0.000009	-0.943711	0.240608
N13	N	-0.218719	-1.250712	0.265423
C14	C	-0.000020	-1.239499	0.074780
C15	C	-0.000018	-1.225954	-0.041635
C16	C	-0.592810	-1.250784	0.265408
C17	C	-0.553640	-1.172963	0.342595
C18	C	-0.446552	-1.173193	0.342927
C19	C	-0.407219	-1.250747	0.265416
C20	C	-0.446057	-1.362331	0.300062
C21	C	-0.553179	-1.361907	0.300623
C22	C	-0.553343	-1.217970	0.153417
C23	C	-0.446216	-1.215537	0.153902
C24	C	-0.302331	-1.250733	0.265418
C25	C	-0.697698	-1.250805	0.265408
N26	N	0.218690	-1.250819	0.265401
C27	C	-0.000016	-1.441398	0.276679
C28	C	-0.000012	-1.557813	0.290223
C29	C	-0.000016	-0.718837	0.403437
C30	C	-0.000015	-0.609454	0.390716
C31	C	-0.000012	-0.615562	0.202445
C32	C	-0.000014	-0.724944	0.215166
C33	C	-0.000014	-0.776578	0.315666
C34	C	-0.000009	-0.885962	0.328386
C35	C	-0.000012	-0.892067	0.140116
C36	C	-0.000011	-0.782685	0.127395
C37	C	-0.000001	-1.388784	-0.266510
C38	C	0.000000	-1.376062	-0.375892
C39	C	-0.000006	-1.187791	-0.369785
C40	C	-0.000008	-1.200513	-0.260402
C41	C	-0.000007	-1.301012	-0.208769
C42	C	-0.000015	-1.313732	-0.099384
C43	C	-0.000015	-1.125462	-0.093279
C44	C	-0.000013	-1.112741	-0.202661
C45	C	-0.000008	-1.262025	0.456052
C46	C	-0.000003	-1.275569	0.572467
H47	H	-0.420295	-1.090599	0.320693
F48	F	-0.585823	-1.397547	0.407808
H49	H	-0.000020	-0.562446	0.462189
H50	H	-0.000088	-0.573502	0.120623
H51	H	0.000008	-1.447536	-0.422901
F52	F	-0.587047	-1.440516	0.230581
H53	H	-0.000016	-0.760878	0.485268
F54	F	-0.000020	-1.420691	-0.044433
H55	H	0.000003	-1.105969	-0.411844
H56	H	-0.420577	-1.422072	0.245790
H57	H	-0.000010	-1.030917	-0.244717
H58	H	-0.000027	-1.053992	-0.046254
F59	F	-0.410977	-1.398463	0.406113
F60	F	-0.000020	-1.495741	-0.211555
H61	H	-0.580410	-1.137785	0.122780
H62	H	-0.000011	-0.928000	0.410218
H63	H	-0.000004	-0.939092	0.068646
F64	F	-0.587327	-1.064685	0.313793
F65	F	-0.413040	-1.108177	0.119861
F66	F	-0.411235	-1.283734	0.074215
H67	H	-0.578673	-1.274595	0.095850
H68	H	-0.420915	-1.195270	0.425809
F69	F	-0.588793	-1.201516	0.450308
F70	F	-0.000014	-0.727721	0.020442
