data_functionalizedCrystal
_audit_creation_method	'MofGen! by Chris Wilmer'
_symmetry_space_group_name_H-M	'P1'
_symmetry_Int_Tables_number	1
_symmetry_cell_setting	triclinic
loop_
_symmetry_equiv_pos_as_xyz
  x,y,z
_cell_length_a	16.120490
_cell_length_b	16.120444
_cell_length_c	16.120256
_cell_angle_alpha	84.383140
_cell_angle_beta	89.870193
_cell_angle_gamma	90.165174
loop_
_atom_site_label
_atom_site_type_symbol
_atom_site_fract_x
_atom_site_fract_y
_atom_site_fract_z
Zn1	Zn	1.224981	-0.422349	0.554795
Zn2	Zn	1.558314	-0.089016	0.888128
Zn3	Zn	1.891648	0.244317	1.221462
Zn4	Zn	1.224874	-0.555030	0.422101
Zn5	Zn	1.558208	-0.221696	0.755434
Zn6	Zn	1.891541	0.111637	1.088767
Zn7	Zn	1.093720	-0.408253	0.408039
Zn8	Zn	1.427054	-0.074920	0.741373
Zn9	Zn	1.760387	0.258413	1.074706
Zn10	Zn	1.078871	-0.554258	0.554037
Zn11	Zn	1.412204	-0.220925	0.887370
Zn12	Zn	1.745537	0.112408	1.220704
O13	O	1.155612	-0.484973	0.484743
O14	O	1.488945	-0.151639	0.818076
O15	O	1.822278	0.181694	1.151410
O16	O	1.341003	-0.446172	0.543395
O17	O	1.674336	-0.112838	0.876728
O18	O	2.007669	0.220495	1.210061
O19	O	1.213646	-0.529983	0.303602
O20	O	1.546980	-0.196650	0.636935
O21	O	1.880313	0.136683	0.970269
O22	O	1.117392	-0.293492	0.421939
O23	O	1.450725	0.039841	0.755273
O24	O	1.784058	0.373174	1.088606
O25	O	1.340924	-0.543652	0.445905
O26	O	1.674258	-0.210318	0.779238
O27	O	2.007591	0.123015	1.112571
O28	O	1.213828	-0.303849	0.529760
O29	O	1.547162	0.029485	0.863093
O30	O	1.880495	0.362818	1.196427
O31	O	1.117288	-0.422147	0.293271
O32	O	1.450622	-0.088814	0.626605
O33	O	1.783955	0.244519	0.959938
O34	O	0.975715	-0.421399	0.421205
O35	O	1.309048	-0.088066	0.754538
O36	O	1.642381	0.245267	1.087871
O37	O	1.092083	-0.542337	0.670771
O38	O	1.425416	-0.209003	1.004105
O39	O	1.758749	0.124330	1.337438
O40	O	0.964805	-0.528668	0.528468
O41	O	1.298138	-0.195335	0.861802
O42	O	1.631471	0.137998	1.195135
O43	O	1.199429	-0.445424	0.671328
O44	O	1.532762	-0.112090	1.004661
O45	O	1.866096	0.221243	1.337995
O46	O	1.199247	-0.671558	0.445170
O47	O	1.532581	-0.338225	0.778503
O48	O	1.865914	-0.004892	1.111837
O49	O	1.091979	-0.670992	0.542103
O50	O	1.425313	-0.337658	0.875436
O51	O	1.758646	-0.004325	1.208770
C52	C	1.144012	-0.701518	0.495099
C53	C	1.477345	-0.368185	0.828433
C54	C	1.810679	-0.034851	1.161766
C55	C	1.139124	-0.794163	0.499562
C56	C	1.472457	-0.460829	0.832895
C57	C	1.805790	-0.127496	1.166229
C58	C	0.940173	-0.473421	0.473229
C59	C	1.273506	-0.140088	0.806562
C60	C	1.606839	0.193246	1.139896
C61	C	0.848005	-0.468500	0.468324
C62	C	1.181338	-0.135167	0.801657
C63	C	1.514672	0.198166	1.134990
C64	C	1.181162	-1.005322	0.461784
C65	C	1.514495	-0.671989	0.795118
C66	C	1.847829	-0.338655	1.128451
C67	C	1.130214	-0.963781	0.507719
C68	C	1.463548	-0.630448	0.841052
C69	C	1.796881	-0.297114	1.174385
C70	C	1.135173	-0.869396	0.503179
C71	C	1.468506	-0.536063	0.836512
C72	C	1.801840	-0.202730	1.169846
C73	C	1.176204	-1.099715	0.466323
C74	C	1.509538	-0.766382	0.799656
C75	C	1.842871	-0.433048	1.132990
C76	C	0.632810	-0.510491	0.510188
C77	C	0.966143	-0.177158	0.843521
C78	C	1.299476	0.156175	1.176854
C79	C	0.679258	-0.459524	0.459368
C80	C	1.012591	-0.126190	0.792701
C81	C	1.345924	0.207143	1.126034
C82	C	0.773157	-0.464520	0.464352
C83	C	1.106491	-0.131187	0.797686
C84	C	1.439824	0.202147	1.131019
C85	C	0.538901	-0.505496	0.505204
C86	C	0.872235	-0.172163	0.838537
C87	C	1.205568	0.161170	1.171871
C88	C	1.371892	-0.496570	0.496303
C89	C	1.705225	-0.163237	0.829636
C90	C	2.038558	0.170097	1.162969
C91	C	1.464057	-0.501512	0.501229
C92	C	1.797391	-0.168179	0.834562
C93	C	2.130724	0.165155	1.167896
C94	C	1.144111	-0.495366	0.702137
C95	C	1.477445	-0.162033	1.035470
C96	C	1.810778	0.171300	1.368804
C97	C	1.139211	-0.499796	0.794777
C98	C	1.472544	-0.166462	1.128111
C99	C	1.805877	0.166871	1.461444
C100	C	1.167278	-0.267584	0.474366
C101	C	1.500612	0.065750	0.807699
C102	C	1.833945	0.399083	1.141032
C103	C	1.172250	-0.174946	0.469944
C104	C	1.505583	0.158388	0.803277
C105	C	1.838917	0.491721	1.136610
C106	C	1.167118	-0.474562	0.268195
C107	C	1.500451	-0.141228	0.601528
C108	C	1.833785	0.192105	0.934861
C109	C	1.172192	-0.469906	0.175552
C110	C	1.505525	-0.136573	0.508885
C111	C	1.838859	0.196760	0.842219
C112	C	1.181168	-0.461853	1.005940
C113	C	1.514501	-0.128520	1.339274
C114	C	1.847835	0.204813	1.672607
C115	C	1.130237	-0.507846	0.964384
C116	C	1.463571	-0.174513	1.297717
C117	C	1.796904	0.158820	1.631050
C118	C	1.135232	-0.503366	0.870006
C119	C	1.468565	-0.170032	1.203339
C120	C	1.801898	0.163301	1.536673
C121	C	1.176175	-0.466333	1.100327
C122	C	1.509508	-0.133000	1.433660
C123	C	1.842841	0.200334	1.766993
H124	H	1.228500	-0.970005	0.419051
H125	H	1.561834	-0.636672	0.752384
H126	H	1.895167	-0.303339	1.085718
H127	H	0.663563	-0.557875	0.557436
H128	H	0.996896	-0.224542	0.890769
H129	H	1.330230	0.108792	1.224102
N130	N	1.067502	-1.010558	0.564328
N131	N	1.400835	-0.677225	0.897661
N132	N	1.734169	-0.343891	1.230995
H133	H	1.072802	-1.072330	0.559587
H134	H	1.406136	-0.738996	0.892921
H135	H	1.739469	-0.405663	1.226254
H136	H	1.009760	-0.991662	0.547425
H137	H	1.343093	-0.658328	0.880759
H138	H	1.676427	-0.324995	1.214092
N139	N	0.638528	-0.396753	0.396774
N140	N	0.971862	-0.063419	0.730107
N141	N	1.305195	0.269914	1.063441
H142	H	0.576250	-0.402036	0.402039
H143	H	0.909583	-0.068703	0.735372
H144	H	1.242917	0.264630	1.068705
H145	H	0.656066	-0.407577	0.338630
H146	H	0.989399	-0.074244	0.671963
H147	H	1.322733	0.259090	1.005296
N148	N	1.067510	-0.564464	1.011137
N149	N	1.400843	-0.231131	1.344470
N150	N	1.734177	0.102203	1.677803
H151	H	1.072789	-0.559682	1.072907
H152	H	1.406123	-0.226349	1.406241
H153	H	1.739456	0.106985	1.739574
H154	H	1.078013	-0.623974	0.999519
H155	H	1.411346	-0.290641	1.332852
H156	H	1.744680	0.042693	1.666185
N157	N	1.243912	-0.405264	0.959190
N158	N	1.577246	-0.071931	1.292523
N159	N	1.910579	0.261403	1.625857
H160	H	1.238638	-0.410060	0.897421
H161	H	1.571972	-0.076727	1.230755
H162	H	1.905305	0.256606	1.564088
H163	H	1.301639	-0.422145	0.978161
H164	H	1.634972	-0.088812	1.311495
H165	H	1.968305	0.244521	1.644828
