data_functionalizedCrystal
_audit_creation_method	'MofGen! by Chris Wilmer'
_symmetry_space_group_name_H-M	'P1'
_symmetry_Int_Tables_number	1
_symmetry_cell_setting	triclinic
loop_
_symmetry_equiv_pos_as_xyz
  x,y,z
_cell_length_a	14.853566
_cell_length_b	10.723024
_cell_length_c	9.798715
_cell_angle_alpha	90.002227
_cell_angle_beta	90.000853
_cell_angle_gamma	84.051142
loop_
_atom_site_label
_atom_site_type_symbol
_atom_site_fract_x
_atom_site_fract_y
_atom_site_fract_z
O1	O	1.197225	0.162907	0.113397
O2	O	0.934868	0.182315	0.113419
O3	O	1.072098	-0.009026	0.113403
O4	O	1.059994	0.354248	0.113414
O5	O	1.072088	-0.009028	-0.113579
O6	O	0.934857	0.182314	-0.113563
O7	O	1.197214	0.162905	-0.113585
Zn8	Zn	1.066034	0.172610	-0.149612
Zn9	Zn	1.066048	0.172611	0.149447
O10	O	1.059984	0.354247	-0.113568
C11	C	1.071212	-0.055518	-0.000087
C12	C	1.068577	-0.194045	-0.000082
C13	C	0.901269	0.181436	-0.000069
C14	C	0.801171	0.178801	-0.000060
C15	C	1.145364	-0.269805	-0.000086
C16	C	1.142642	-0.412981	-0.000081
C17	C	0.377933	0.167659	0.123643
C18	C	0.377944	0.167658	-0.123821
C19	C	0.471991	0.170132	-0.123817
C20	C	0.519013	0.171371	-0.000081
C21	C	0.471989	0.170137	0.123651
C22	C	0.519021	0.171380	-0.247547
C23	C	0.613074	0.173855	-0.247548
C24	C	0.660099	0.175086	-0.123810
C25	C	0.613069	0.173849	-0.000073
C26	C	0.660091	0.175089	0.123664
C27	C	0.613064	0.173843	0.247402
C28	C	0.519014	0.171367	0.247389
C29	C	0.754149	0.177562	-0.123797
C30	C	0.754147	0.177567	0.123672
C31	C	1.230813	0.163785	-0.000094
C32	C	1.330911	0.166420	-0.000093
C33	C	1.060870	0.400739	-0.000076
C34	C	1.063505	0.539266	-0.000072
N35	N	1.066032	0.172608	-0.353712
C36	C	1.118600	0.244437	-0.421492
C37	C	1.118615	0.244435	-0.578655
N38	N	1.066058	0.172603	0.353546
H39	H	1.213119	-0.228669	-0.000100
H40	H	1.000822	-0.235182	-0.000067
C41	C	1.231451	-0.500922	-0.000087
N42	N	1.298345	-0.567164	-0.000090
C43	C	0.805865	0.178925	0.259795
N44	N	0.844818	0.179948	0.362323
C45	C	0.664801	0.175207	0.383508
N46	N	0.703773	0.176232	0.486020
H47	H	1.021045	0.111111	-0.588173
C48	C	0.326203	0.166288	0.259749
N49	N	0.287238	0.165257	0.362266
C50	C	0.326215	0.166300	-0.259924
N51	N	0.287250	0.165273	-0.362441
C52	C	0.467290	0.170022	-0.383648
N53	N	0.428322	0.168997	-0.486163
H54	H	1.021039	0.111108	-0.412035
H55	H	0.480716	0.170352	0.348130
C56	C	0.805875	0.178932	-0.259901
N57	N	0.844834	0.179961	-0.362422
C58	C	1.179418	0.327516	-0.657397
N59	N	1.225218	0.390094	-0.716709
H60	H	0.651356	0.174866	-0.348303
C61	C	1.179397	0.327508	-0.342707
N62	N	1.225193	0.390078	-0.283367
C63	C	0.974692	-0.372800	-0.000065
N64	N	0.907798	-0.306559	-0.000057
