data_functionalizedCrystal
_audit_creation_method	'MofGen! by Chris Wilmer'
_symmetry_space_group_name_H-M	'P1'
_symmetry_Int_Tables_number	1
_symmetry_cell_setting	triclinic
loop_
_symmetry_equiv_pos_as_xyz
  x,y,z
_cell_length_a	10.540539
_cell_length_b	14.044220
_cell_length_c	12.503572
_cell_angle_alpha	93.835250
_cell_angle_beta	93.560877
_cell_angle_gamma	91.142815
loop_
_atom_site_label
_atom_site_type_symbol
_atom_site_fract_x
_atom_site_fract_y
_atom_site_fract_z
O1	O	0.299541	-1.265193	-0.089197
O2	O	0.632874	-0.931859	0.244137
O3	O	0.966208	-0.598526	0.577470
O4	O	0.288487	-0.989150	-0.089224
O5	O	0.621821	-0.655817	0.244109
O6	O	0.955154	-0.322484	0.577443
O7	O	0.109945	-1.133469	-0.089208
O8	O	0.443278	-0.800136	0.244125
O9	O	0.776611	-0.466803	0.577458
O10	O	0.478084	-1.120874	-0.089212
O11	O	0.811417	-0.787541	0.244121
O12	O	1.144751	-0.454207	0.577454
O13	O	0.123396	-1.122616	0.089432
O14	O	0.456730	-0.789282	0.422766
O15	O	0.790063	-0.455949	0.756099
O16	O	0.301939	-0.978297	0.089417
O17	O	0.635273	-0.644964	0.422750
O18	O	0.968606	-0.311630	0.756083
O19	O	0.312993	-1.254339	0.089444
O20	O	0.646326	-0.921006	0.422777
O21	O	0.979660	-0.587673	0.756111
Cu22	Cu	0.308694	-1.115327	0.105742
Cu23	Cu	0.642028	-0.781994	0.439075
Cu24	Cu	0.975361	-0.448660	0.772408
Cu25	Cu	0.292786	-1.128163	-0.105522
Cu26	Cu	0.626119	-0.794829	0.227812
Cu27	Cu	0.959453	-0.461496	0.561145
O28	O	0.491536	-1.110020	0.089428
O29	O	0.824869	-0.776687	0.422762
O30	O	1.158202	-0.443354	0.756095
C31	C	0.290375	-0.948377	0.000093
C32	C	0.623709	-0.615043	0.333426
C33	C	0.957042	-0.281710	0.666759
C34	C	0.275945	-0.843054	0.000082
C35	C	0.609278	-0.509721	0.333415
C36	C	0.942611	-0.176387	0.666749
C37	C	0.069272	-1.127098	0.000110
C38	C	0.402605	-0.793765	0.333443
C39	C	0.735939	-0.460431	0.666777
C40	C	-0.071962	-1.124272	0.000104
C41	C	0.261371	-0.790939	0.333437
C42	C	0.594704	-0.457606	0.666771
C43	C	-0.266368	-1.016008	-0.000308
C44	C	0.066965	-0.682675	0.333025
C45	C	0.400299	-0.349341	0.666359
C46	C	-0.119430	-1.018848	0.000095
C47	C	0.213903	-0.685515	0.333428
C48	C	0.547237	-0.352182	0.666761
C49	C	-0.120809	-1.168809	0.102122
C50	C	0.212524	-0.835476	0.435455
C51	C	0.545858	-0.502143	0.768788
C52	C	-0.267711	-1.165206	0.102207
C53	C	0.065623	-0.831873	0.435540
C54	C	0.398956	-0.498539	0.768874
C55	C	-0.283309	-1.179693	-0.100941
C56	C	0.050024	-0.846359	0.232393
C57	C	0.383357	-0.513026	0.565726
C58	C	-0.136331	-1.180746	-0.102289
C59	C	0.197003	-0.847412	0.231044
C60	C	0.530336	-0.514079	0.564377
C61	C	0.311105	-1.295113	0.000125
C62	C	0.644438	-0.961780	0.333458
C63	C	0.977771	-0.628446	0.666792
C64	C	0.325535	-1.400436	0.000129
C65	C	0.658868	-1.067103	0.333462
C66	C	0.992201	-0.733770	0.666795
C67	C	0.532208	-1.116392	0.000108
C68	C	0.865542	-0.783059	0.333441
C69	C	1.198875	-0.449725	0.666774
C70	C	0.673442	-1.119218	0.000107
C71	C	1.006775	-0.785885	0.333440
C72	C	1.340109	-0.452551	0.666773
N73	N	0.319883	-1.106306	0.254333
N74	N	0.653217	-0.772973	0.587666
N75	N	0.986550	-0.439640	0.921000
C76	C	0.249566	-0.650213	0.000104
C77	C	0.582899	-0.316879	0.333437
C78	C	0.916232	0.016454	0.666770
C79	C	0.351908	-0.593272	0.000107
C80	C	0.685242	-0.259939	0.333440
C81	C	1.018575	0.073395	0.666774
C82	C	0.337231	-0.485969	0.000119
C83	C	0.670564	-0.152635	0.333452
C84	C	1.003897	0.180698	0.666786
C85	C	0.264241	-0.757526	0.000092
C86	C	0.597575	-0.424193	0.333425
C87	C	0.930908	-0.090860	0.666758
N88	N	0.281588	-1.137191	-0.254113
N89	N	0.614921	-0.803858	0.079220
N90	N	0.948254	-0.470524	0.412554
C91	C	0.336354	-1.093036	0.473447
C92	C	0.669687	-0.759703	0.806780
C93	C	1.003020	-0.426370	1.140113
C94	C	0.265121	-1.150458	0.526780
C95	C	0.598455	-0.817125	0.860113
C96	C	0.931788	-0.483791	1.193447
C97	C	0.274286	-1.143074	0.648703
C98	C	0.607619	-0.809741	0.982036
C99	C	0.940952	-0.476408	1.315369
C100	C	0.327191	-1.100419	0.351513
C101	C	0.660524	-0.767085	0.684847
C102	C	0.993857	-0.433752	1.018180
H103	H	-0.086369	-0.983371	-0.073036
H104	H	0.246964	-0.650037	0.260297
H105	H	0.580297	-0.316704	0.593630
H106	H	0.150932	-0.618375	0.000110
H107	H	0.484265	-0.285042	0.333444
H108	H	0.817599	0.048291	0.666777
Cl109	Cl	0.504205	-0.642425	0.000099
Cl110	Cl	0.837538	-0.309091	0.333432
Cl111	Cl	1.170872	0.024242	0.666765
H112	H	0.404216	-1.038335	0.519348
H113	H	0.737550	-0.705002	0.852682
H114	H	1.070883	-0.371668	1.186015
H115	H	-0.295291	-0.970113	0.072433
H116	H	0.038042	-0.636779	0.405766
H117	H	0.371376	-0.303446	0.739100
Cl118	Cl	-0.325527	-0.958568	-0.113261
Cl119	Cl	0.007806	-0.625234	0.220072
Cl120	Cl	0.341140	-0.291901	0.553406
Cl121	Cl	-0.052712	-0.949908	0.113177
Cl122	Cl	0.280622	-0.616575	0.446510
Cl123	Cl	0.613955	-0.283241	0.779843
H124	H	0.197256	-1.205164	0.480873
H125	H	0.530589	-0.871831	0.814207
H126	H	0.863923	-0.538497	1.147540
H127	H	-0.293959	-1.123078	0.178460
H128	H	0.039374	-0.789744	0.511793
H129	H	0.372708	-0.456411	0.845127
H130	H	-0.090342	-1.245999	0.105922
H131	H	0.242992	-0.912666	0.439256
H132	H	0.576325	-0.579333	0.772589
Cl133	Cl	-0.329402	-1.281826	0.109380
Cl134	Cl	0.003931	-0.948493	0.442713
Cl135	Cl	0.337265	-0.615159	0.776046
Cl136	Cl	-0.346320	-1.134257	-0.220322
Cl137	Cl	-0.012987	-0.800923	0.113011
Cl138	Cl	0.320346	-0.467590	0.446345
Cl139	Cl	-0.087022	-1.130992	-0.218829
Cl140	Cl	0.246312	-0.797658	0.114505
Cl141	Cl	0.579645	-0.464325	0.447838
Cl142	Cl	-0.087649	-1.299994	-0.111796
Cl143	Cl	0.245684	-0.966660	0.221537
Cl144	Cl	0.579017	-0.633327	0.554870
Cl145	Cl	-0.051721	-1.107277	0.219326
Cl146	Cl	0.281612	-0.773943	0.552659
Cl147	Cl	0.614945	-0.440610	0.885992
Cl148	Cl	-0.344418	-1.297321	-0.101992
Cl149	Cl	-0.011085	-0.963987	0.231341
Cl150	Cl	0.322249	-0.630654	0.564675
