data_functionalizedCrystal
_audit_creation_method	'MofGen! by Chris Wilmer'
_symmetry_space_group_name_H-M	'P1'
_symmetry_Int_Tables_number	1
_symmetry_cell_setting	triclinic
loop_
_symmetry_equiv_pos_as_xyz
  x,y,z
_cell_length_a	8.497365
_cell_length_b	18.215405
_cell_length_c	18.215407
_cell_angle_alpha	89.974667
_cell_angle_beta	90.034535
_cell_angle_gamma	89.942977
loop_
_atom_site_label
_atom_site_type_symbol
_atom_site_fract_x
_atom_site_fract_y
_atom_site_fract_z
Zn1	Zn	-0.891980	-0.292791	-1.125179
Zn2	Zn	-0.628156	-0.415919	-1.125056
Zn3	Zn	-0.628198	-0.292872	-1.002080
Zn4	Zn	-0.891879	-0.415821	-1.002077
O5	O	-0.760053	-0.354351	-1.063598
O6	O	-0.857008	-0.309131	-1.228147
O7	O	-0.407399	-0.399671	-1.108692
O8	O	-0.663248	-0.189877	-1.018462
O9	O	-0.663178	-0.399593	-1.228056
O10	O	-0.857048	-0.189817	-1.108902
O11	O	-0.407429	-0.309269	-1.018342
O12	O	-0.663151	-0.309174	-0.899095
O13	O	-1.112655	-0.399426	-1.018457
O14	O	-0.856876	-0.399504	-0.899093
O15	O	-1.112729	-0.309036	-1.108900
O16	O	-0.663080	-0.518890	-1.108690
O17	O	-0.856836	-0.518818	-1.018338
C18	C	-0.759977	-0.545557	-1.063520
C19	C	-0.759998	-0.627356	-1.063554
C20	C	-0.760008	-0.354338	-0.872392
C21	C	-0.760026	-0.354350	-0.790593
C22	C	-0.659294	-0.815563	-1.110711
C23	C	-0.659333	-0.892421	-1.110744
C24	C	-0.860925	-0.892386	-1.016579
C25	C	-0.860894	-0.815529	-1.016550
C26	C	-0.760069	-0.777119	-1.063615
C27	C	-0.760139	-0.930835	-1.063677
C28	C	-0.760181	-1.014169	-1.063712
C29	C	-0.760029	-0.693780	-1.063581
C30	C	-0.350173	-0.354431	-1.063545
C31	C	-0.171530	-0.354280	-1.063650
C32	C	-0.760099	-0.354364	-1.255551
C33	C	-0.760119	-0.354369	-1.337350
C34	C	-0.760164	-0.162398	-1.063696
C35	C	-0.760211	-0.080599	-1.063738
C36	C	-0.860772	-0.401459	-0.602417
C37	C	-0.860792	-0.401462	-0.525558
C38	C	-0.659368	-0.307255	-0.525531
C39	C	-0.659358	-0.307250	-0.602388
C40	C	-0.760057	-0.354356	-0.640829
C41	C	-0.760088	-0.354364	-0.487113
C42	C	-0.760108	-0.354366	-0.403779
C43	C	-0.760039	-0.354353	-0.724168
H44	H	-0.577199	-0.784291	-1.149035
O45	O	-0.958701	-0.929813	-0.970881
C46	C	-1.048152	-1.048200	-0.929218
C47	C	-0.937318	-1.005909	-0.981000
H48	H	-1.030926	-1.109731	-0.937392
H49	H	-1.020314	-1.033205	-0.869861
H50	H	-1.175364	-1.032965	-0.942105
H51	H	-0.810069	-1.021121	-0.968179
H52	H	-0.965292	-1.020907	-1.040342
H53	H	-0.577380	-0.268904	-0.494223
H54	H	-0.577274	-0.923719	-1.149095
H55	H	-0.942772	-0.439815	-0.633714
O56	O	-0.561289	-0.261570	-0.639673
C57	C	-0.293081	-0.225716	-0.663094
C58	C	-0.403950	-0.277504	-0.620836
H59	H	-0.165851	-0.238569	-0.647867
H60	H	-0.310241	-0.233805	-0.724637
H61	H	-0.321095	-0.166390	-0.648023
H62	H	-0.376005	-0.336849	-0.635845
H63	H	-0.386770	-0.269350	-0.559303
O64	O	-0.959011	-0.778261	-0.970834
C65	C	-1.227282	-0.754586	-0.935090
C66	C	-1.116344	-0.796851	-0.986891
H67	H	-1.354510	-0.769588	-0.948064
H68	H	-1.199595	-0.769772	-0.875746
H69	H	-1.209861	-0.693061	-0.943145
H70	H	-1.133703	-0.858386	-0.978901
H71	H	-1.144057	-0.781603	-1.046217
O72	O	-0.958673	-0.447289	-0.488359
C73	C	-1.158519	-0.540699	-0.496502
C74	C	-1.047715	-0.488849	-0.538721
H75	H	-1.230562	-0.574302	-0.537202
H76	H	-1.086026	-0.579204	-0.460501
H77	H	-1.241081	-0.506933	-0.460540
H78	H	-0.965132	-0.522556	-0.574723
H79	H	-1.120307	-0.450342	-0.574677
