data_functionalizedCrystal
_audit_creation_method	'MofGen! by Chris Wilmer'
_symmetry_space_group_name_H-M	'P1'
_symmetry_Int_Tables_number	1
_symmetry_cell_setting	triclinic
loop_
_symmetry_equiv_pos_as_xyz
  x,y,z
_cell_length_a	10.685661
_cell_length_b	10.686285
_cell_length_c	19.805399
_cell_angle_alpha	94.389466
_cell_angle_beta	94.381937
_cell_angle_gamma	80.943251
loop_
_atom_site_label
_atom_site_type_symbol
_atom_site_fract_x
_atom_site_fract_y
_atom_site_fract_z
Zn1	Zn	1.979468	-0.654310	0.437075
Zn2	Zn	1.995665	-0.866564	0.315844
Zn3	Zn	1.767205	-0.638052	0.315859
Zn4	Zn	1.783485	-0.850211	0.420958
O5	O	1.881456	-0.752284	0.372434
O6	O	2.159248	-0.696114	0.427732
O7	O	1.965324	-0.836291	0.221126
O8	O	1.781770	-0.462591	0.338691
O9	O	2.171147	-0.852056	0.338664
O10	O	1.937719	-0.474535	0.427747
O11	O	1.797476	-0.668405	0.221138
O12	O	1.591733	-0.652548	0.323062
O13	O	1.809517	-0.824184	0.517815
O14	O	1.603694	-0.808420	0.400278
O15	O	1.953505	-0.680257	0.529657
O16	O	1.981110	-1.042013	0.323035
O17	O	1.825222	-1.029998	0.400262
C18	C	1.551656	-0.726946	0.359923
C19	C	1.410569	-0.716137	0.354586
C20	C	1.906725	-1.082062	0.359914
C21	C	1.917651	-1.223152	0.354585
C22	C	2.212543	-0.777722	0.384994
C23	C	2.353633	-0.788563	0.390346
C24	C	1.881521	-0.752210	0.548982
C25	C	1.881548	-0.752178	0.624217
C26	C	1.856122	-0.421221	0.385018
C27	C	1.845327	-0.280142	0.390381
C28	C	1.881457	-0.752273	0.196578
C29	C	1.881647	-0.751966	0.121367
C30	C	1.956524	-0.677231	0.665728
C31	C	1.956535	-0.677195	0.736418
C32	C	1.881575	-0.752114	0.765596
C33	C	1.806590	-0.827064	0.724080
C34	C	1.806574	-0.827092	0.653391
C35	C	1.806652	-0.826951	1.009160
C36	C	1.806677	-0.826920	1.079855
C37	C	1.956613	-0.677054	1.092188
C38	C	1.956597	-0.677083	1.021499
C39	C	1.881608	-0.752027	0.979989
C40	C	1.881596	-0.752063	0.903338
C41	C	1.881593	-0.752086	0.842245
H42	H	1.412830	-0.858841	0.425049
H43	H	1.775049	-1.220997	0.425106
H44	H	1.351377	-0.645852	0.319892
C45	C	1.724158	-0.909388	0.963508
N46	N	1.662016	-0.971481	0.929119
C47	C	2.038986	-0.594812	0.633640
N48	N	2.101095	-0.532726	0.609473
H49	H	2.017591	-0.616169	0.770214
C50	C	2.012591	-1.303059	0.307665
N51	N	2.084099	-1.363246	0.272326
C52	C	2.039053	-0.594661	0.989408
N53	N	2.101155	-0.532572	0.965238
H54	H	2.017669	-0.616026	1.125995
H55	H	1.745551	-0.888059	0.747842
C56	C	1.724202	-0.909332	1.111948
N57	N	1.662084	-0.971399	1.136121
H58	H	1.745507	-0.888108	0.619592
