data_functionalizedCrystal
_audit_creation_method	'MofGen! by Chris Wilmer'
_symmetry_space_group_name_H-M	'P1'
_symmetry_Int_Tables_number	1
_symmetry_cell_setting	triclinic
loop_
_symmetry_equiv_pos_as_xyz
  x,y,z
_cell_length_a	29.839134
_cell_length_b	29.839132
_cell_length_c	29.839126
_cell_angle_alpha	89.973634
_cell_angle_beta	90.029638
_cell_angle_gamma	89.959876
loop_
_atom_site_label
_atom_site_type_symbol
_atom_site_fract_x
_atom_site_fract_y
_atom_site_fract_z
Zn1	Zn	0.686742	0.178949	0.254118
Zn2	Zn	0.936742	0.428949	0.504118
Zn3	Zn	1.186742	0.678949	0.754118
Zn4	Zn	1.436742	0.928949	1.004118
Zn5	Zn	0.686659	0.254070	0.178985
Zn6	Zn	0.936659	0.504070	0.428985
Zn7	Zn	1.186659	0.754070	0.678985
Zn8	Zn	1.436659	1.004070	0.928985
Zn9	Zn	0.611614	0.178948	0.178988
Zn10	Zn	0.861614	0.428948	0.428988
Zn11	Zn	1.111614	0.678948	0.678988
Zn12	Zn	1.361614	0.928948	0.928988
Zn13	Zn	0.611567	0.254046	0.254074
Zn14	Zn	0.861567	0.504046	0.504074
Zn15	Zn	1.111567	0.754046	0.754074
Zn16	Zn	1.361567	1.004046	1.004074
O17	O	0.649145	0.216503	0.216541
O18	O	0.899145	0.466503	0.466541
O19	O	1.149145	0.716503	0.716541
O20	O	1.399145	0.966503	0.966541
O21	O	0.749598	0.188925	0.244169
O22	O	0.999598	0.438925	0.494169
O23	O	1.249598	0.688925	0.744169
O24	O	1.499598	0.938925	0.994169
O25	O	0.676689	0.244114	0.116118
O26	O	0.926689	0.494114	0.366118
O27	O	1.176689	0.744114	0.616118
O28	O	1.426689	0.994114	0.866118
O29	O	0.621635	0.116081	0.188974
O30	O	0.871635	0.366081	0.438974
O31	O	1.121635	0.616081	0.688974
O32	O	1.371635	0.866081	0.938974
O33	O	0.749537	0.244115	0.188969
O34	O	0.999537	0.494115	0.438969
O35	O	1.249537	0.744115	0.688969
O36	O	1.499537	0.994115	0.938969
O37	O	0.676830	0.116082	0.244172
O38	O	0.926830	0.366082	0.494172
O39	O	1.176830	0.616082	0.744172
O40	O	1.426830	0.866082	0.994172
O41	O	0.621554	0.188922	0.116120
O42	O	0.871554	0.438922	0.366120
O43	O	1.121554	0.688922	0.616120
O44	O	1.371554	0.938922	0.866120
O45	O	0.548741	0.188899	0.188930
O46	O	0.798741	0.438899	0.438930
O47	O	1.048741	0.688899	0.688930
O48	O	1.298741	0.938899	0.938930
O49	O	0.621554	0.244075	0.316947
O50	O	0.871554	0.494075	0.566947
O51	O	1.121554	0.744075	0.816947
O52	O	1.371554	0.994075	1.066947
O53	O	0.548706	0.244074	0.244096
O54	O	0.798706	0.494074	0.494096
O55	O	1.048706	0.744074	0.744096
O56	O	1.298706	0.994074	0.994096
O57	O	0.676784	0.188902	0.316979
O58	O	0.926784	0.438902	0.566979
O59	O	1.176784	0.688902	0.816979
O60	O	1.426784	0.938902	1.066979
O61	O	0.676643	0.316934	0.188926
O62	O	0.926643	0.566934	0.438926
O63	O	1.176643	0.816934	0.688926
O64	O	1.426643	1.066934	0.938926
O65	O	0.621474	0.316917	0.244093
O66	O	0.871474	0.566917	0.494093
O67	O	1.121474	0.816917	0.744093
O68	O	1.371474	1.066917	0.994093
C69	C	0.532423	0.216484	0.216509
C70	C	0.782423	0.466484	0.466509
C71	C	1.032423	0.716484	0.716509
C72	C	1.282423	0.966484	0.966509
C73	C	0.482488	0.216487	0.216506
C74	C	0.732488	0.466487	0.466506
C75	C	0.982488	0.716487	0.716506
C76	C	1.232488	0.966487	0.966506
C77	C	0.172836	0.245275	0.245230
C78	C	0.422836	0.495275	0.495230
C79	C	0.672836	0.745275	0.745230
C80	C	0.922836	0.995275	0.995230
C81	C	-0.014837	0.245288	0.245250
C82	C	0.235163	0.495288	0.495250
C83	C	0.485163	0.745288	0.745250
C84	C	0.735163	0.995288	0.995250
O85	O	-0.039109	0.269743	0.269654
O86	O	0.210891	0.519743	0.519654
O87	O	0.460891	0.769743	0.769654
O88	O	0.710891	1.019743	1.019654
N89	N	-0.038297	0.216520	0.216575
N90	N	0.211703	0.466520	0.466575
N91	N	0.461703	0.716520	0.716575
N92	N	0.711703	0.966520	0.966575
C93	C	-0.014836	0.187744	0.187894
C94	C	0.235164	0.437744	0.437894
C95	C	0.485164	0.687744	0.687894
C96	C	0.735164	0.937744	0.937894
O97	O	-0.039096	0.163273	0.163508
O98	O	0.210904	0.413273	0.413508
O99	O	0.460904	0.663273	0.663508
O100	O	0.710904	0.913273	0.913508
C101	C	0.172837	0.187730	0.187877
C102	C	0.422837	0.437730	0.437877
C103	C	0.672837	0.687730	0.687877
C104	C	0.922837	0.937730	0.937877
C105	C	0.196294	0.216503	0.216551
C106	C	0.446294	0.466503	0.466551
C107	C	0.696294	0.716503	0.716551
C108	C	0.946294	0.966503	0.966551
C109	C	0.196294	0.274046	0.273903
C110	C	0.446294	0.524046	0.523903
C111	C	0.696294	0.774046	0.773903
C112	C	0.946294	1.024046	1.023903
C113	C	0.243209	0.274044	0.273896
C114	C	0.493209	0.524044	0.523896
C115	C	0.743209	0.774044	0.773896
C116	C	0.993209	1.024044	1.023896
C117	C	0.266667	0.245272	0.245216
C118	C	0.516667	0.495272	0.495216
C119	C	0.766667	0.745272	0.745216
C120	C	1.016667	0.995272	0.995216
C121	C	0.243210	0.216501	0.216544
C122	C	0.493210	0.466501	0.466544
C123	C	0.743210	0.716501	0.716544
C124	C	0.993210	0.966501	0.966544
C125	C	0.196297	0.158953	0.159199
C126	C	0.446297	0.408953	0.409199
C127	C	0.696297	0.658953	0.659199
C128	C	0.946297	0.908953	0.909199
C129	C	0.243218	0.158951	0.159198
C130	C	0.493218	0.408951	0.409198
C131	C	0.743218	0.658951	0.659198
C132	C	0.993218	0.908951	0.909198
C133	C	0.266676	0.187724	0.187872
C134	C	0.516676	0.437724	0.437872
C135	C	0.766676	0.687724	0.687872
C136	C	1.016676	0.937724	0.937872
C137	C	0.313583	0.187727	0.187858
C138	C	0.563583	0.437727	0.437858
C139	C	0.813583	0.687727	0.687858
C140	C	1.063583	0.937727	0.937858
N141	N	0.337043	0.216495	0.216534
N142	N	0.587043	0.466495	0.466534
N143	N	0.837043	0.716495	0.716534
N144	N	1.087043	0.966495	0.966534
C145	C	0.313585	0.245268	0.245213
C146	C	0.563585	0.495268	0.495213
C147	C	0.813585	0.745268	0.745213
C148	C	1.063585	0.995268	0.995213
C149	C	-0.113366	0.187755	0.187905
C150	C	0.136634	0.437755	0.437905
C151	C	0.386634	0.687755	0.687905
C152	C	0.636634	0.937755	0.937905
C153	C	-0.160284	0.187759	0.187909
C154	C	0.089716	0.437759	0.437909
C155	C	0.339716	0.687759	0.687909
C156	C	0.589716	0.937759	0.937909
C157	C	-0.160282	0.245302	0.245265
C158	C	0.089718	0.495302	0.495265
C159	C	0.339718	0.745302	0.745265
C160	C	0.589718	0.995302	0.995265
C161	C	-0.113363	0.245300	0.245259
C162	C	0.136637	0.495300	0.495259
C163	C	0.386637	0.745300	0.745259
C164	C	0.636637	0.995300	0.995259
C165	C	-0.089906	0.216523	0.216581
C166	C	0.160094	0.466523	0.466581
C167	C	0.410094	0.716523	0.716581
C168	C	0.660094	0.966523	0.966581
C169	C	0.412111	0.245262	0.245196
C170	C	0.662111	0.495262	0.495196
C171	C	0.912111	0.745262	0.745196
C172	C	1.162111	0.995262	0.995196
C173	C	0.459031	0.245259	0.245185
C174	C	0.709031	0.495259	0.495185
C175	C	0.959031	0.745259	0.745185
C176	C	1.209031	0.995259	0.995185
C177	C	0.459024	0.187715	0.187830
C178	C	0.709024	0.437715	0.437830
C179	C	0.959024	0.687715	0.687830
C180	C	1.209024	0.937715	0.937830
C181	C	0.412109	0.187719	0.187839
C182	C	0.662109	0.437719	0.437839
C183	C	0.912109	0.687719	0.687839
C184	C	1.162109	0.937719	0.937839
C185	C	0.388653	0.216494	0.216525
C186	C	0.638653	0.466494	0.466525
C187	C	0.888653	0.716494	0.716525
C188	C	1.138653	0.966494	0.966525
O189	O	0.337884	0.163281	0.163471
O190	O	0.587884	0.413281	0.413471
O191	O	0.837884	0.663281	0.663471
O192	O	1.087884	0.913281	0.913471
O193	O	0.337854	0.269729	0.269603
O194	O	0.587854	0.519729	0.519603
O195	O	0.837854	0.769729	0.769603
O196	O	1.087854	1.019729	1.019603
C197	C	0.125921	0.245277	0.245237
C198	C	0.375921	0.495277	0.495237
C199	C	0.625921	0.745277	0.745237
C200	C	0.875921	0.995277	0.995237
C201	C	0.102463	0.216506	0.216565
C202	C	0.352463	0.466506	0.466565
C203	C	0.602463	0.716506	0.716565
C204	C	0.852463	0.966506	0.966565
C205	C	0.125921	0.187734	0.187886
C206	C	0.375921	0.437734	0.437886
C207	C	0.625921	0.687734	0.687886
C208	C	0.875921	0.937734	0.937886
C209	C	0.055545	0.216511	0.216569
C210	C	0.305545	0.466511	0.466569
C211	C	0.555545	0.716511	0.716569
C212	C	0.805545	0.966511	0.966569
C213	C	0.032088	0.245283	0.245248
C214	C	0.282088	0.495283	0.495248
C215	C	0.532088	0.745283	0.745248
C216	C	0.782088	0.995283	0.995248
C217	C	0.055548	0.274051	0.273924
C218	C	0.305548	0.524051	0.523924
C219	C	0.555548	0.774051	0.773924
C220	C	0.805548	1.024051	1.023924
C221	C	0.102463	0.274049	0.273917
C222	C	0.352463	0.524049	0.523917
C223	C	0.602463	0.774049	0.773917
C224	C	0.852463	1.024049	1.023917
C225	C	0.102461	0.158966	0.159211
C226	C	0.352461	0.408966	0.409211
C227	C	0.602461	0.658966	0.659211
C228	C	0.852461	0.908966	0.909211
C229	C	0.055546	0.158971	0.159220
C230	C	0.305546	0.408971	0.409220
C231	C	0.555546	0.658971	0.659220
C232	C	0.805546	0.908971	0.909220
C233	C	0.032088	0.187743	0.187899
C234	C	0.282088	0.437743	0.437899
C235	C	0.532088	0.687743	0.687899
C236	C	0.782088	0.937743	0.937899
C237	C	0.649056	0.333226	0.216514
C238	C	0.899056	0.583226	0.466514
C239	C	1.149056	0.833226	0.716514
C240	C	1.399056	1.083226	0.966514
C241	C	0.649059	0.383160	0.216518
C242	C	0.899059	0.633160	0.466518
C243	C	1.149059	0.883160	0.716518
C244	C	1.399059	1.133160	0.966518
C245	C	0.677892	0.692800	0.187839
C246	C	0.927892	0.942800	0.437839
C247	C	1.177892	1.192800	0.687839
C248	C	1.427892	1.442800	0.937839
C249	C	0.677935	0.880473	0.187849
C250	C	0.927935	1.130473	0.437849
C251	C	1.177935	1.380473	0.687849
C252	C	1.427935	1.630473	0.937849
O253	O	0.702402	0.904735	0.163458
O254	O	0.952402	1.154735	0.413458
O255	O	1.202402	1.404735	0.663458
O256	O	1.452402	1.654735	0.913458
N257	N	0.649192	0.903945	0.216548
N258	N	0.899192	1.153945	0.466548
N259	N	1.149192	1.403945	0.716548
N260	N	1.399192	1.653945	0.966548
C261	C	0.620439	0.880497	0.245249
C262	C	0.870439	1.130497	0.495249
C263	C	1.120439	1.380497	0.745249
C264	C	1.370439	1.630497	0.995249
O265	O	0.595996	0.904767	0.269663
O266	O	0.845996	1.154767	0.519663
O267	O	1.095996	1.404767	0.769663
O268	O	1.345996	1.654767	1.019663
C269	C	0.620399	0.692824	0.245241
C270	C	0.870399	0.942824	0.495241
C271	C	1.120399	1.192824	0.745241
C272	C	1.370399	1.442824	0.995241
C273	C	0.649140	0.669354	0.216537
C274	C	0.899140	0.919354	0.466537
C275	C	1.149140	1.169354	0.716537
C276	C	1.399140	1.419354	0.966537
C277	C	0.706632	0.669330	0.159138
C278	C	0.956632	0.919330	0.409138
C279	C	1.206632	1.169330	0.659138
C280	C	1.456632	1.419330	0.909138
C281	C	0.706619	0.622415	0.159134
C282	C	0.956619	0.872415	0.409134
C283	C	1.206619	1.122415	0.659134
C284	C	1.456619	1.372415	0.909134
C285	C	0.677867	0.598969	0.187831
C286	C	0.927867	0.848969	0.437831
C287	C	1.177867	1.098969	0.687831
C288	C	1.427867	1.348969	0.937831
C289	C	0.649127	0.622439	0.216533
C290	C	0.899127	0.872439	0.466533
C291	C	1.149127	1.122439	0.716533
C292	C	1.399127	1.372439	0.966533
C293	C	0.591648	0.669376	0.273943
C294	C	0.841648	0.919376	0.523943
C295	C	1.091648	1.169376	0.773943
C296	C	1.341648	1.419376	1.023943
C297	C	0.591641	0.622455	0.273940
C298	C	0.841641	0.872455	0.523940
C299	C	1.091641	1.122455	0.773940
C300	C	1.341641	1.372455	1.023940
C301	C	0.620383	0.598985	0.245235
C302	C	0.870383	0.848985	0.495235
C303	C	1.120383	1.098985	0.745235
C304	C	1.370383	1.348985	0.995235
C305	C	0.620362	0.552078	0.245226
C306	C	0.870362	0.802078	0.495226
C307	C	1.120362	1.052078	0.745226
C308	C	1.370362	1.302078	0.995226
N309	N	0.649105	0.528606	0.216527
N310	N	0.899105	0.778606	0.466527
N311	N	1.149105	1.028606	0.716527
N312	N	1.399105	1.278606	0.966527
C313	C	0.677858	0.552051	0.187830
C314	C	0.927858	0.802051	0.437830
C315	C	1.177858	1.052051	0.687830
C316	C	1.427858	1.302051	0.937830
C317	C	0.620461	0.979027	0.245251
C318	C	0.870461	1.229027	0.495251
C319	C	1.120461	1.479027	0.745251
C320	C	1.370461	1.729027	0.995251
C321	C	0.620471	1.025945	0.245252
C322	C	0.870471	1.275945	0.495252
C323	C	1.120471	1.525945	0.745252
C324	C	1.370471	1.775945	0.995252
C325	C	0.677968	1.025918	0.187853
C326	C	0.927968	1.275918	0.437853
C327	C	1.177968	1.525918	0.687853
C328	C	1.427968	1.775918	0.937853
C329	C	0.677956	0.979000	0.187850
C330	C	0.927956	1.229000	0.437850
C331	C	1.177956	1.479000	0.687850
C332	C	1.427956	1.729000	0.937850
C333	C	0.649204	0.955555	0.216552
C334	C	0.899204	1.205555	0.466552
C335	C	1.149204	1.455555	0.716552
C336	C	1.399204	1.705555	0.966552
C337	C	0.677828	0.453525	0.187823
C338	C	0.927828	0.703525	0.437823
C339	C	1.177828	0.953525	0.687823
C340	C	1.427828	1.203525	0.937823
C341	C	0.677812	0.406606	0.187820
C342	C	0.927812	0.656606	0.437820
C343	C	1.177812	0.906606	0.687820
C344	C	1.427812	1.156606	0.937820
C345	C	0.620317	0.406637	0.245221
C346	C	0.870317	0.656637	0.495221
C347	C	1.120317	0.906637	0.745221
C348	C	1.370317	1.156637	0.995221
C349	C	0.620331	0.453552	0.245222
C350	C	0.870331	0.703552	0.495222
C351	C	1.120331	0.953552	0.745222
C352	C	1.370331	1.203552	0.995222
C353	C	0.649091	0.476995	0.216522
C354	C	0.899091	0.726995	0.466522
C355	C	1.149091	0.976995	0.716522
C356	C	1.399091	1.226995	0.966522
O357	O	0.595912	0.527787	0.269609
O358	O	0.845912	0.777787	0.519609
O359	O	1.095912	1.027787	0.769609
O360	O	1.345912	1.277787	1.019609
O361	O	0.702304	0.527772	0.163426
O362	O	0.952304	0.777772	0.413426
O363	O	1.202304	1.027772	0.663426
O364	O	1.452304	1.277772	0.913426
C365	C	0.677905	0.739716	0.187843
C366	C	0.927905	0.989716	0.437843
C367	C	1.177905	1.239716	0.687843
C368	C	1.427905	1.489716	0.937843
C369	C	0.649166	0.763185	0.216545
C370	C	0.899166	1.013185	0.466545
C371	C	1.149166	1.263185	0.716545
C372	C	1.399166	1.513185	0.966545
C373	C	0.620413	0.739740	0.245242
C374	C	0.870413	0.989740	0.495242
C375	C	1.120413	1.239740	0.745242
C376	C	1.370413	1.489740	0.995242
C377	C	0.649175	0.810103	0.216546
C378	C	0.899175	1.060103	0.466546
C379	C	1.149175	1.310103	0.716546
C380	C	1.399175	1.560103	0.966546
C381	C	0.677927	0.833549	0.187849
C382	C	0.927927	1.083549	0.437849
C383	C	1.177927	1.333549	0.687849
C384	C	1.427927	1.583549	0.937849
C385	C	0.706670	0.810077	0.159150
C386	C	0.956670	1.060077	0.409150
C387	C	1.206670	1.310077	0.659150
C388	C	1.456670	1.560077	0.909150
C389	C	0.706657	0.763161	0.159146
C390	C	0.956657	1.013161	0.409146
C391	C	1.206657	1.263161	0.659146
C392	C	1.456657	1.513161	0.909146
C393	C	0.591671	0.763212	0.273941
C394	C	0.841671	1.013212	0.523941
C395	C	1.091671	1.263212	0.773941
C396	C	1.341671	1.513212	1.023941
C397	C	0.591685	0.810128	0.273942
C398	C	0.841685	1.060128	0.523942
C399	C	1.091685	1.310128	0.773942
C400	C	1.341685	1.560128	1.023942
C401	C	0.620437	0.833573	0.245245
C402	C	0.870437	1.083573	0.495245
C403	C	1.120437	1.333573	0.745245
C404	C	1.370437	1.583573	0.995245
C405	C	0.766324	0.216523	0.216574
C406	C	1.016324	0.466523	0.466574
C407	C	1.266324	0.716523	0.716574
C408	C	1.516324	0.966523	0.966574
C409	C	0.816258	0.216531	0.216588
C410	C	1.066258	0.466531	0.466588
C411	C	1.316258	0.716531	0.716588
C412	C	1.566258	0.966531	0.966588
C413	C	0.649230	1.099325	0.216568
C414	C	0.899230	1.349325	0.466568
C415	C	1.149230	1.599325	0.716568
C416	C	1.399230	1.849325	0.966568
C417	C	0.649223	1.049391	0.216555
C418	C	0.899223	1.299391	0.466555
C419	C	1.149223	1.549391	0.716555
C420	C	1.399223	1.799391	0.966555
C421	C	0.649173	0.216486	0.333720
C422	C	0.899173	0.466486	0.583720
C423	C	1.149173	0.716486	0.833720
C424	C	1.399173	0.966486	1.083720
C425	C	0.649185	0.216479	0.383654
C426	C	0.899185	0.466479	0.633654
C427	C	1.149185	0.716479	0.883654
C428	C	1.399185	0.966479	1.133654
C429	C	0.649144	0.216488	0.099819
C430	C	0.899144	0.466488	0.349819
C431	C	1.149144	0.716488	0.599819
C432	C	1.399144	0.966488	0.849819
C433	C	0.649219	0.216369	0.049884
C434	C	0.899219	0.466369	0.299884
C435	C	1.149219	0.716369	0.549884
C436	C	1.399219	0.966369	0.799884
C437	C	0.620485	0.187695	0.693301
C438	C	0.870485	0.437695	0.943301
C439	C	1.120485	0.687695	1.193301
C440	C	1.370485	0.937695	1.443301
C441	C	0.620498	0.187664	0.880974
C442	C	0.870498	0.437664	1.130974
C443	C	1.120498	0.687664	1.380974
C444	C	1.370498	0.937664	1.630974
O445	O	0.596074	0.163236	0.905243
O446	O	0.846074	0.413236	1.155243
O447	O	1.096074	0.663236	1.405243
O448	O	1.346074	0.913236	1.655243
N449	N	0.649206	0.216394	0.904439
N450	N	0.899206	0.466394	1.154439
N451	N	1.149206	0.716394	1.404439
N452	N	1.399206	0.966394	1.654439
C453	C	0.677911	0.245137	0.880983
C454	C	0.927911	0.495137	1.130983
C455	C	1.177911	0.745137	1.380983
C456	C	1.427911	0.995137	1.630983
O457	O	0.702327	0.269576	0.905247
O458	O	0.952327	0.519576	1.155247
O459	O	1.202327	0.769576	1.405247
O460	O	1.452327	1.019576	1.655247
C461	C	0.677896	0.245170	0.693311
C462	C	0.927896	0.495170	0.943311
C463	C	1.177896	0.745170	1.193311
C464	C	1.427896	0.995170	1.443311
C465	C	0.649189	0.216434	0.669848
C466	C	0.899189	0.466434	0.919848
C467	C	1.149189	0.716434	1.169848
C468	C	1.399189	0.966434	1.419848
C469	C	0.591780	0.158963	0.669839
C470	C	0.841780	0.408963	0.919839
C471	C	1.091780	0.658963	1.169839
C472	C	1.341780	0.908963	1.419839
C473	C	0.591779	0.158969	0.622923
C474	C	0.841779	0.408969	0.872923
C475	C	1.091779	0.658969	1.122923
C476	C	1.341779	0.908969	1.372923
C477	C	0.620483	0.187708	0.599470
C478	C	0.870483	0.437708	0.849470
C479	C	1.120483	0.687708	1.099470
C480	C	1.370483	0.937708	1.349470
C481	C	0.649188	0.216441	0.622933
C482	C	0.899188	0.466441	0.872933
C483	C	1.149188	0.716441	1.122933
C484	C	1.399188	0.966441	1.372933
C485	C	0.706599	0.273914	0.669855
C486	C	0.956599	0.523914	0.919855
C487	C	1.206599	0.773914	1.169855
C488	C	1.456599	1.023914	1.419855
C489	C	0.706591	0.273920	0.622934
C490	C	0.956591	0.523920	0.872934
C491	C	1.206591	0.773920	1.122934
C492	C	1.456591	1.023920	1.372934
C493	C	0.677884	0.245185	0.599472
C494	C	0.927884	0.495185	0.849472
C495	C	1.177884	0.745185	1.099472
C496	C	1.427884	0.995185	1.349472
C497	C	0.677891	0.245186	0.552564
C498	C	0.927891	0.495186	0.802564
C499	C	1.177891	0.745186	1.052564
C500	C	1.427891	0.995186	1.302564
N501	N	0.649182	0.216456	0.529099
N502	N	0.899182	0.466456	0.779099
N503	N	1.149182	0.716456	1.029099
N504	N	1.399182	0.966456	1.279099
C505	C	0.620479	0.187717	0.552553
C506	C	0.870479	0.437717	0.802553
C507	C	1.120479	0.687717	1.052553
C508	C	1.370479	0.937717	1.302553
C509	C	0.677918	0.245117	0.979514
C510	C	0.927918	0.495117	1.229514
C511	C	1.177918	0.745117	1.479514
C512	C	1.427918	0.995117	1.729514
C513	C	0.677923	0.245108	1.026431
C514	C	0.927923	0.495108	1.276431
C515	C	1.177923	0.745108	1.526431
C516	C	1.427923	0.995108	1.776431
C517	C	0.620509	0.187636	1.026420
C518	C	0.870509	0.437636	1.276420
C519	C	1.120509	0.687636	1.526420
C520	C	1.370509	0.937636	1.776420
C521	C	0.620507	0.187643	0.979501
C522	C	0.870507	0.437643	1.229501
C523	C	1.120507	0.687643	1.479501
C524	C	1.370507	0.937643	1.729501
C525	C	0.649210	0.216386	0.956049
C526	C	0.899210	0.466386	1.206049
C527	C	1.149210	0.716386	1.456049
C528	C	1.399210	0.966386	1.706049
C529	C	0.620479	0.187732	0.454027
C530	C	0.870479	0.437732	0.704027
C531	C	1.120479	0.687732	0.954027
C532	C	1.370479	0.937732	1.204027
C533	C	0.620481	0.187740	0.407107
C534	C	0.870481	0.437740	0.657107
C535	C	1.120481	0.687740	0.907107
C536	C	1.370481	0.937740	1.157107
C537	C	0.677893	0.245213	0.407123
C538	C	0.927893	0.495213	0.657123
C539	C	1.177893	0.745213	0.907123
C540	C	1.427893	0.995213	1.157123
C541	C	0.677893	0.245204	0.454038
C542	C	0.927893	0.495204	0.704038
C543	C	1.177893	0.745204	0.954038
C544	C	1.427893	0.995204	1.204038
C545	C	0.649182	0.216462	0.477489
C546	C	0.899182	0.466462	0.727489
C547	C	1.149182	0.716462	0.977489
C548	C	1.399182	0.966462	1.227489
O549	O	0.702298	0.269605	0.528267
O550	O	0.952298	0.519605	0.778267
O551	O	1.202298	0.769605	1.028267
O552	O	1.452298	1.019605	1.278267
O553	O	0.596060	0.163288	0.528280
O554	O	0.846060	0.413288	0.778280
O555	O	1.096060	0.663288	1.028280
O556	O	1.346060	0.913288	1.278280
C557	C	0.620487	0.187689	0.740217
C558	C	0.870487	0.437689	0.990217
C559	C	1.120487	0.687689	1.240217
C560	C	1.370487	0.937689	1.490217
C561	C	0.649192	0.216422	0.763679
C562	C	0.899192	0.466422	1.013679
C563	C	1.149192	0.716422	1.263679
C564	C	1.399192	0.966422	1.513679
C565	C	0.677895	0.245161	0.740226
C566	C	0.927895	0.495161	0.990226
C567	C	1.177895	0.745161	1.240226
C568	C	1.427895	0.995161	1.490226
C569	C	0.649196	0.216413	0.810597
C570	C	0.899196	0.466413	1.060597
C571	C	1.149196	0.716413	1.310597
C572	C	1.399196	0.966413	1.560597
C573	C	0.620492	0.187674	0.834050
C574	C	0.870492	0.437674	1.084050
C575	C	1.120492	0.687674	1.334050
C576	C	1.370492	0.937674	1.584050
C577	C	0.591784	0.158944	0.810585
C578	C	0.841784	0.408944	1.060585
C579	C	1.091784	0.658944	1.310585
C580	C	1.341784	0.908944	1.560585
C581	C	0.591783	0.158950	0.763670
C582	C	0.841783	0.408950	1.013670
C583	C	1.091783	0.658950	1.263670
C584	C	1.341783	0.908950	1.513670
C585	C	0.706604	0.273891	0.763691
C586	C	0.956604	0.523891	1.013691
C587	C	1.206604	0.773891	1.263691
C588	C	1.456604	1.023891	1.513691
C589	C	0.706603	0.273882	0.810606
C590	C	0.956603	0.523882	1.060606
C591	C	1.206603	0.773882	1.310606
C592	C	1.456603	1.023882	1.560606
C593	C	0.677899	0.245143	0.834060
C594	C	0.927899	0.495143	1.084060
C595	C	1.177899	0.745143	1.334060
C596	C	1.427899	0.995143	1.584060
H597	H	0.036450	0.135541	0.135866
H598	H	0.286450	0.385541	0.385866
H599	H	0.536450	0.635541	0.635866
H600	H	0.786450	0.885541	0.885866
H601	H	0.121556	0.135536	0.135856
H602	H	0.371556	0.385536	0.385856
H603	H	0.621556	0.635536	0.635856
H604	H	0.871556	0.885536	0.885856
H605	H	0.597047	0.959942	0.268624
H606	H	0.847047	1.209942	0.518624
H607	H	1.097047	1.459942	0.768624
H608	H	1.347047	1.709942	1.018624
H609	H	-0.179379	0.164333	0.164555
H610	H	0.070621	0.414333	0.414555
H611	H	0.320621	0.664333	0.664555
H612	H	0.570621	0.914333	0.914555
C613	C	0.484834	0.276915	0.276722
C614	C	0.734834	0.526915	0.526722
C615	C	0.984834	0.776915	0.776722
C616	C	1.234834	1.026915	1.026722
H617	H	0.516136	0.272799	0.272608
H618	H	0.766136	0.522799	0.522608
H619	H	1.016136	0.772799	0.772608
H620	H	1.266136	1.022799	1.022608
H621	H	0.477171	0.270388	0.306922
H622	H	0.727171	0.520388	0.556922
H623	H	0.977171	0.770388	0.806922
H624	H	1.227171	1.020388	1.056922
H625	H	0.477116	0.307090	0.270083
H626	H	0.727116	0.557090	0.520083
H627	H	0.977116	0.807090	0.770083
H628	H	1.227116	1.057090	1.020083
H629	H	0.597105	0.164338	0.388006
H630	H	0.847105	0.414338	0.638006
H631	H	1.097105	0.664338	0.888006
H632	H	1.347105	0.914338	1.138006
C633	C	0.709593	1.051714	0.156285
C634	C	0.959593	1.301714	0.406285
C635	C	1.209593	1.551714	0.656285
C636	C	1.459593	1.801714	0.906285
H637	H	0.705481	1.083017	0.160401
H638	H	0.955481	1.333017	0.410401
H639	H	1.205481	1.583017	0.660401
H640	H	1.455481	1.833017	0.910401
H641	H	0.703037	1.044048	0.126092
H642	H	0.953037	1.294048	0.376092
H643	H	1.203037	1.544048	0.626092
H644	H	1.453037	1.794048	0.876092
H645	H	0.739775	1.043998	0.162896
H646	H	0.989775	1.293998	0.412896
H647	H	1.239775	1.543998	0.662896
H648	H	1.489775	1.793998	0.912896
C649	C	0.709575	0.953187	0.156279
C650	C	0.959575	1.203187	0.406279
C651	C	1.209575	1.453187	0.656279
C652	C	1.459575	1.703187	0.906279
H653	H	0.726700	0.973874	0.139191
H654	H	0.976700	1.223874	0.389191
H655	H	1.226700	1.473874	0.639191
H656	H	1.476700	1.723874	0.889191
H657	H	0.692400	0.934908	0.136684
H658	H	0.942400	1.184908	0.386684
H659	H	1.192400	1.434908	0.636684
H660	H	1.442400	1.684908	0.886684
H661	H	0.729139	0.934861	0.173488
H662	H	0.979139	1.184861	0.423488
H663	H	1.229139	1.434861	0.673488
H664	H	1.479139	1.684861	0.923488
C665	C	0.709431	0.380792	0.156247
C666	C	0.959431	0.630792	0.406247
C667	C	1.209431	0.880792	0.656247
C668	C	1.459431	1.130792	0.906247
H669	H	0.726559	0.401477	0.139160
H670	H	0.976559	0.651477	0.389160
H671	H	1.226559	0.901477	0.639160
H672	H	1.476559	1.151477	0.889160
H673	H	0.692254	0.362515	0.136651
H674	H	0.942254	0.612515	0.386651
H675	H	1.192254	0.862515	0.636651
H676	H	1.442254	1.112515	0.886651
H677	H	0.728993	0.362462	0.173455
H678	H	0.978993	0.612462	0.423455
H679	H	1.228993	0.862462	0.673455
H680	H	1.478993	1.112462	0.923455
C681	C	0.128261	0.305696	0.305462
C682	C	0.378261	0.555696	0.555462
C683	C	0.628261	0.805696	0.805462
C684	C	0.878261	1.055696	1.055462
H685	H	0.107565	0.322827	0.322544
H686	H	0.357565	0.572827	0.572544
H687	H	0.607565	0.822827	0.822544
H688	H	0.857565	1.072827	1.072544
H689	H	0.146541	0.325248	0.288243
H690	H	0.396541	0.575248	0.538243
H691	H	0.646541	0.825248	0.788243
H692	H	0.896541	1.075248	1.038243
H693	H	0.146584	0.288535	0.325070
H694	H	0.396584	0.538535	0.575070
H695	H	0.646584	0.788535	0.825070
H696	H	0.896584	1.038535	1.075070
H697	H	0.597062	1.045050	0.268622
H698	H	0.847062	1.295050	0.518622
H699	H	1.097062	1.545050	0.768622
H700	H	1.347062	1.795050	1.018622
C701	C	0.170504	0.127298	0.127661
C702	C	0.420504	0.377298	0.377661
C703	C	0.670504	0.627298	0.627661
C704	C	0.920504	0.877298	0.877661
H705	H	0.191200	0.110160	0.110587
H706	H	0.441200	0.360160	0.360587
H707	H	0.691200	0.610160	0.610587
H708	H	0.941200	0.860160	0.860587
H709	H	0.152176	0.144449	0.108051
H710	H	0.402176	0.394449	0.358051
H711	H	0.652176	0.644449	0.608051
H712	H	0.902176	0.894449	0.858051
H713	H	0.152227	0.107747	0.144889
H714	H	0.402227	0.357747	0.394889
H715	H	0.652227	0.607747	0.644889
H716	H	0.902227	0.857747	0.894889
C717	C	0.588900	0.156114	0.479816
C718	C	0.838900	0.406114	0.729816
C719	C	1.088900	0.656114	0.979816
C720	C	1.338900	0.906114	1.229816
H721	H	0.571810	0.139002	0.459118
H722	H	0.821810	0.389002	0.709118
H723	H	1.071810	0.639002	0.959118
H724	H	1.321810	0.889002	1.209118
H725	H	0.569308	0.173288	0.498105
H726	H	0.819308	0.423288	0.748105
H727	H	1.069308	0.673288	0.998105
H728	H	1.319308	0.923288	1.248105
H729	H	0.606107	0.136537	0.498131
H730	H	0.856107	0.386537	0.748131
H731	H	1.106107	0.636537	0.998131
H732	H	1.356107	0.886537	1.248131
C733	C	0.588695	0.380843	0.276791
C734	C	0.838695	0.630843	0.526791
C735	C	1.088695	0.880843	0.776791
C736	C	1.338695	1.130843	1.026791
H737	H	0.571577	0.401538	0.293887
H738	H	0.821577	0.651538	0.543887
H739	H	1.071577	0.901538	0.793887
H740	H	1.321577	1.151538	1.043887
H741	H	0.605872	0.362515	0.296379
H742	H	0.855872	0.612515	0.546379
H743	H	1.105872	0.862515	0.796379
H744	H	1.355872	1.112515	1.046379
H745	H	0.569124	0.362566	0.259584
H746	H	0.819124	0.612566	0.509584
H747	H	1.069124	0.862566	0.759584
H748	H	1.319124	1.112566	1.009584
H749	H	0.393019	0.268692	0.268556
H750	H	0.643019	0.518692	0.518556
H751	H	0.893019	0.768692	0.768556
H752	H	1.143019	1.018692	1.018556
C753	C	-0.087569	0.156103	0.156352
C754	C	0.162431	0.406103	0.406352
C755	C	0.412431	0.656103	0.656352
C756	C	0.662431	0.906103	0.906352
H757	H	-0.108265	0.138977	0.139273
H758	H	0.141735	0.388977	0.389273
H759	H	0.391735	0.638977	0.639273
H760	H	0.641735	0.888977	0.889273
H761	H	-0.069243	0.136547	0.173566
H762	H	0.180757	0.386547	0.423566
H763	H	0.430757	0.636547	0.673566
H764	H	0.680757	0.886547	0.923566
H765	H	-0.069291	0.173263	0.136741
H766	H	0.180709	0.423263	0.386741
H767	H	0.430709	0.673263	0.636741
H768	H	0.680709	0.923263	0.886741
C769	C	0.269007	0.305689	0.305443
C770	C	0.519007	0.555689	0.555443
C771	C	0.769007	0.805689	0.805443
C772	C	1.019007	1.055689	1.055443
H773	H	0.248311	0.322819	0.322525
H774	H	0.498311	0.572819	0.572525
H775	H	0.748311	0.822819	0.822525
H776	H	0.998311	1.072819	1.072525
H777	H	0.287289	0.325242	0.288226
H778	H	0.537289	0.575242	0.538226
H779	H	0.787289	0.825242	0.788226
H780	H	1.037289	1.075242	1.038226
H781	H	0.287330	0.288526	0.325050
H782	H	0.537330	0.538526	0.575050
H783	H	0.787330	0.788526	0.825050
H784	H	1.037330	1.038526	1.075050
C785	C	0.560068	0.835939	0.305520
C786	C	0.810068	1.085939	0.555520
C787	C	1.060068	1.335939	0.805520
C788	C	1.310068	1.585939	1.055520
H789	H	0.542948	0.815252	0.322613
H790	H	0.792948	1.065252	0.572613
H791	H	1.042948	1.315252	0.822613
H792	H	1.292948	1.565252	1.072613
H793	H	0.540506	0.854273	0.288321
H794	H	0.790506	1.104273	0.538321
H795	H	1.040506	1.354273	0.788321
H796	H	1.290506	1.604273	1.038321
H797	H	0.577252	0.854211	0.325117
H798	H	0.827252	1.104211	0.575117
H799	H	1.077252	1.354211	0.825117
H800	H	1.327252	1.604211	1.075117
C801	C	-0.087564	0.276946	0.276804
C802	C	0.162436	0.526946	0.526804
C803	C	0.412436	0.776946	0.776804
C804	C	0.662436	1.026946	1.026804
H805	H	-0.108258	0.294079	0.293885
H806	H	0.141742	0.544079	0.543885
H807	H	0.391742	0.794079	0.793885
H808	H	0.641742	1.044079	1.043885
H809	H	-0.069282	0.296496	0.259584
H810	H	0.180718	0.546496	0.509584
H811	H	0.430718	0.796496	0.759584
H812	H	0.680718	1.046496	1.009584
H813	H	-0.069242	0.259784	0.296413
H814	H	0.180758	0.509784	0.546413
H815	H	0.430758	0.759784	0.796413
H816	H	0.680758	1.009784	1.046413
H817	H	0.177200	0.297475	0.297259
H818	H	0.427200	0.547475	0.547259
H819	H	0.677200	0.797475	0.797259
H820	H	0.927200	1.047475	1.047259
C821	C	0.709504	0.276713	1.052235
C822	C	0.959504	0.526713	1.302235
C823	C	1.209504	0.776713	1.552235
C824	C	1.459504	1.026713	1.802235
H825	H	0.726593	0.293831	1.031543
H826	H	0.976593	0.543831	1.281543
H827	H	1.226593	0.793831	1.531543
H828	H	1.476593	1.043831	1.781543
H829	H	0.729096	0.259531	1.070552
H830	H	0.979096	0.509531	1.320552
H831	H	1.229096	0.759531	1.570552
H832	H	1.479096	1.009531	1.820552
H833	H	0.692301	0.296284	1.070523
H834	H	0.942301	0.546284	1.320523
H835	H	1.192301	0.796284	1.570523
H836	H	1.442301	1.046284	1.820523
H837	H	0.729976	0.297296	0.744600
H838	H	0.979976	0.547296	0.994600
H839	H	1.229976	0.797296	1.244600
H840	H	1.479976	1.047296	1.494600
C841	C	-0.186091	0.276947	0.276815
C842	C	0.063909	0.526947	0.526815
C843	C	0.313909	0.776947	0.776815
C844	C	0.563909	1.026947	1.026815
H845	H	-0.217393	0.272823	0.272711
H846	H	0.032607	0.522823	0.522711
H847	H	0.282607	0.772823	0.772711
H848	H	0.532607	1.022823	1.022711
H849	H	-0.178429	0.307125	0.270190
H850	H	0.071571	0.557125	0.520190
H851	H	0.321571	0.807125	0.770190
H852	H	0.571571	1.057125	1.020190
H853	H	-0.178381	0.270406	0.307012
H854	H	0.071619	0.520406	0.557012
H855	H	0.321619	0.770406	0.807012
H856	H	0.571619	1.020406	1.057012
C857	C	0.269018	0.127295	0.127651
C858	C	0.519018	0.377295	0.377651
C859	C	0.769018	0.627295	0.627651
C860	C	1.019018	0.877295	0.877651
H861	H	0.248325	0.110164	0.110575
H862	H	0.498325	0.360164	0.360575
H863	H	0.748325	0.610164	0.610575
H864	H	0.998325	0.860164	0.860575
H865	H	0.287345	0.107745	0.144871
H866	H	0.537345	0.357745	0.394871
H867	H	0.787345	0.607745	0.644871
H868	H	1.037345	0.857745	0.894871
H869	H	0.287296	0.144452	0.108038
H870	H	0.537296	0.394452	0.358038
H871	H	0.787296	0.644452	0.608038
H872	H	1.037296	0.894452	0.858038
H873	H	0.393009	0.164291	0.164489
H874	H	0.643009	0.414291	0.414489
H875	H	0.893009	0.664291	0.664489
H876	H	1.143009	0.914291	0.914489
C877	C	0.709498	0.276732	0.953722
C878	C	0.959498	0.526732	1.203722
C879	C	1.209498	0.776732	1.453722
C880	C	1.459498	1.026732	1.703722
H881	H	0.726598	0.293835	0.974420
H882	H	0.976598	0.543835	1.224420
H883	H	1.226598	0.793835	1.474420
H884	H	1.476598	1.043835	1.724420
H885	H	0.692300	0.296311	0.935405
H886	H	0.942300	0.546311	1.185405
H887	H	1.192300	0.796311	1.435405
H888	H	1.442300	1.046311	1.685405
H889	H	0.729089	0.259550	0.935435
H890	H	0.979089	0.509550	1.185435
H891	H	1.229089	0.759550	1.435435
H892	H	1.479089	1.009550	1.685435
C893	C	0.738171	0.305529	0.695654
C894	C	0.988171	0.555529	0.945654
C895	C	1.238171	0.805529	1.195654
C896	C	1.488171	1.055529	1.445654
H897	H	0.755257	0.322648	0.674960
H898	H	1.005257	0.572648	0.924960
H899	H	1.255257	0.822648	1.174960
H900	H	1.505257	1.072648	1.424960
H901	H	0.757767	0.288354	0.713973
H902	H	1.007767	0.538354	0.963973
H903	H	1.257767	0.788354	1.213973
H904	H	1.507767	1.038354	1.463973
H905	H	0.720963	0.325099	0.713938
H906	H	0.970963	0.575099	0.963938
H907	H	1.220963	0.825099	1.213938
H908	H	1.470963	1.075099	1.463938
C909	C	0.709460	0.479307	0.156250
C910	C	0.959460	0.729307	0.406250
C911	C	1.209460	0.979307	0.656250
C912	C	1.459460	1.229307	0.906250
H913	H	0.726569	0.458604	0.139155
H914	H	0.976569	0.708604	0.389155
H915	H	1.226569	0.958604	0.639155
H916	H	1.476569	1.208604	0.889155
H917	H	0.729032	0.497583	0.173452
H918	H	0.979032	0.747583	0.423452
H919	H	1.229032	0.997583	0.673452
H920	H	1.479032	1.247583	0.923452
H921	H	0.692287	0.497634	0.136655
H922	H	0.942287	0.747634	0.386655
H923	H	1.192287	0.997634	0.636655
H924	H	1.442287	1.247634	0.886655
C925	C	0.738166	0.305539	0.597139
C926	C	0.988166	0.555539	0.847139
C927	C	1.238166	0.805539	1.097139
C928	C	1.488166	1.055539	1.347139
H929	H	0.755263	0.322647	0.617835
H930	H	1.005263	0.572647	0.867835
H931	H	1.255263	0.822647	1.117835
H932	H	1.505263	1.072647	1.367835
H933	H	0.720963	0.325112	0.578822
H934	H	0.970963	0.575112	0.828822
H935	H	1.220963	0.825112	1.078822
H936	H	1.470963	1.075112	1.328822
H937	H	0.757759	0.288359	0.578852
H938	H	1.007759	0.538359	0.828852
H939	H	1.257759	0.788359	1.078852
H940	H	1.507759	1.038359	1.328852
H941	H	0.478132	0.164291	0.164479
H942	H	0.728132	0.414291	0.414479
H943	H	0.978132	0.664291	0.664479
H944	H	1.228132	0.914291	0.914479
C945	C	0.560035	0.695183	0.305522
C946	C	0.810035	0.945183	0.555522
C947	C	1.060035	1.195183	0.805522
C948	C	1.310035	1.445183	1.055522
H949	H	0.542917	0.674494	0.322614
H950	H	0.792917	0.924494	0.572614
H951	H	1.042917	1.174494	0.822614
H952	H	1.292917	1.424494	1.072614
H953	H	0.540470	0.713515	0.288324
H954	H	0.790470	0.963515	0.538324
H955	H	1.040470	1.213515	0.788324
H956	H	1.290470	1.463515	1.038324
H957	H	0.577217	0.713457	0.325119
H958	H	0.827217	0.963457	0.575119
H959	H	1.077217	1.213457	0.825119
H960	H	1.327217	1.463457	1.075119
H961	H	0.036440	0.297479	0.297274
H962	H	0.286440	0.547479	0.547274
H963	H	0.536440	0.797479	0.797274
H964	H	0.786440	1.047479	1.047274
H965	H	0.568401	0.135572	0.603825
H966	H	0.818401	0.385572	0.853825
H967	H	1.068401	0.635572	1.103825
H968	H	1.318401	0.885572	1.353825
H969	H	0.701273	0.268598	0.473142
H970	H	0.951273	0.518598	0.723142
H971	H	1.201273	0.768598	0.973142
H972	H	1.451273	1.018598	1.223142
C973	C	0.738241	0.596604	0.127564
C974	C	0.988241	0.846604	0.377564
C975	C	1.238241	1.096604	0.627564
C976	C	1.488241	1.346604	0.877564
H977	H	0.755367	0.617292	0.110480
H978	H	1.005367	0.867292	0.360480
H979	H	1.255367	1.117292	0.610480
H980	H	1.505367	1.367292	0.860480
H981	H	0.721069	0.578325	0.107967
H982	H	0.971069	0.828325	0.357967
H983	H	1.221069	1.078325	0.607967
H984	H	1.471069	1.328325	0.857967
H985	H	0.757804	0.578277	0.144774
H986	H	1.007804	0.828277	0.394774
H987	H	1.257804	1.078277	0.644774
H988	H	1.507804	1.328277	0.894774
C989	C	0.560014	0.596667	0.305511
C990	C	0.810014	0.846667	0.555511
C991	C	1.060014	1.096667	0.805511
C992	C	1.310014	1.346667	1.055511
H993	H	0.564123	0.565362	0.301403
H994	H	0.814123	0.815362	0.551403
H995	H	1.064123	1.065362	0.801403
H996	H	1.314123	1.315362	1.051403
H997	H	0.529834	0.604389	0.298907
H998	H	0.779834	0.854389	0.548907
H999	H	1.029834	1.104389	0.798907
H1000	H	1.279834	1.354389	1.048907
H1001	H	0.566579	0.604335	0.335705
H1002	H	0.816579	0.854335	0.585705
H1003	H	1.066579	1.104335	0.835705
H1004	H	1.316579	1.354335	1.085705
H1005	H	0.730048	0.688415	0.135769
H1006	H	0.980048	0.938415	0.385769
H1007	H	1.230048	1.188415	0.635769
H1008	H	1.480048	1.438415	0.885769
H1009	H	0.730062	0.744055	0.135772
H1010	H	0.980062	0.994055	0.385772
H1011	H	1.230062	1.244055	0.635772
H1012	H	1.480062	1.494055	0.885772
C1013	C	0.588716	0.479370	0.276795
C1014	C	0.838716	0.729370	0.526795
C1015	C	1.088716	0.979370	0.776795
C1016	C	1.338716	1.229370	1.026795
H1017	H	0.571592	0.458685	0.293887
H1018	H	0.821592	0.708685	0.543887
H1019	H	1.071592	0.958685	0.793887
H1020	H	1.321592	1.208685	1.043887
H1021	H	0.569156	0.497705	0.259595
H1022	H	0.819156	0.747705	0.509595
H1023	H	1.069156	0.997705	0.759595
H1024	H	1.319156	1.247705	1.009595
H1025	H	0.605901	0.497641	0.296393
H1026	H	0.855901	0.747641	0.546393
H1027	H	1.105901	0.997641	0.796393
H1028	H	1.355901	1.247641	1.046393
H1029	H	0.730080	0.829174	0.135782
H1030	H	0.980080	1.079174	0.385782
H1031	H	1.230080	1.329174	0.635782
H1032	H	1.480080	1.579174	0.885782
C1033	C	0.560206	0.127345	0.695630
C1034	C	0.810206	0.377345	0.945630
C1035	C	1.060206	0.627345	1.195630
C1036	C	1.310206	0.877345	1.445630
H1037	H	0.543115	0.110234	0.674931
H1038	H	0.793115	0.360234	0.924931
H1039	H	1.043115	0.610234	1.174931
H1040	H	1.293115	0.860234	1.424931
H1041	H	0.540614	0.144516	0.713922
H1042	H	0.790614	0.394516	0.963922
H1043	H	1.040614	0.644516	1.213922
H1044	H	1.290614	0.894516	1.463922
H1045	H	0.577414	0.107766	0.713942
H1046	H	0.827414	0.357766	0.963942
H1047	H	1.077414	0.607766	1.213942
H1048	H	1.327414	0.857766	1.463942
H1049	H	0.568257	0.744126	0.297311
H1050	H	0.818257	0.994126	0.547311
H1051	H	1.068257	1.244126	0.797311
H1052	H	1.318257	1.494126	1.047311
H1053	H	0.568407	0.135551	0.744571
H1054	H	0.818407	0.385551	0.994571
H1055	H	1.068407	0.635551	1.244571
H1056	H	1.318407	0.885551	1.494571
H1057	H	0.597131	0.164244	0.960401
H1058	H	0.847131	0.414244	1.210401
H1059	H	1.097131	0.664244	1.460401
H1060	H	1.347131	0.914244	1.710401
C1061	C	0.709463	0.276825	0.381318
C1062	C	0.959463	0.526825	0.631318
C1063	C	1.209463	0.776825	0.881318
C1064	C	1.459463	1.026825	1.131318
H1065	H	0.705344	0.272715	0.350016
H1066	H	0.955344	0.522715	0.600016
H1067	H	1.205344	0.772715	0.850016
H1068	H	1.455344	1.022715	1.100016
H1069	H	0.739656	0.270260	0.389020
H1070	H	0.989656	0.520260	0.639020
H1071	H	1.239656	0.770260	0.889020
H1072	H	1.489656	1.020260	1.139020
H1073	H	0.702856	0.307009	0.388994
H1074	H	0.952856	0.557009	0.638994
H1075	H	1.202856	0.807009	0.888994
H1076	H	1.452856	1.057009	1.138994
C1077	C	0.560206	0.127336	0.836390
C1078	C	0.810206	0.377336	1.086390
C1079	C	1.060206	0.627336	1.336390
C1080	C	1.310206	0.877336	1.586390
H1081	H	0.564318	0.131455	0.867692
H1082	H	0.814318	0.381455	1.117692
H1083	H	1.064318	0.631455	1.367692
H1084	H	1.314318	0.881455	1.617692
H1085	H	0.566799	0.097151	0.828719
H1086	H	0.816799	0.347151	1.078719
H1087	H	1.066799	0.597151	1.328719
H1088	H	1.316799	0.847151	1.578719
H1089	H	0.530014	0.133915	0.828685
H1090	H	0.780014	0.383915	1.078685
H1091	H	1.030014	0.633915	1.328685
H1092	H	1.280014	0.883915	1.578685
C1093	C	0.588925	0.156033	1.052224
C1094	C	0.838925	0.406033	1.302224
C1095	C	1.088925	0.656033	1.552224
C1096	C	1.338925	0.906033	1.802224
H1097	H	0.593037	0.160151	1.083526
H1098	H	0.843037	0.410151	1.333526
H1099	H	1.093037	0.660151	1.583526
H1100	H	1.343037	0.910151	1.833526
H1101	H	0.595513	0.125846	1.044553
H1102	H	0.845513	0.375846	1.294553
H1103	H	1.095513	0.625846	1.544553
H1104	H	1.345513	0.875846	1.794553
H1105	H	0.558735	0.162618	1.044518
H1106	H	0.808735	0.412618	1.294518
H1107	H	1.058735	0.662618	1.544518
H1108	H	1.308735	0.912618	1.794518
H1109	H	0.729984	0.297281	0.829706
H1110	H	0.979984	0.547281	1.079706
H1111	H	1.229984	0.797281	1.329706
H1112	H	1.479984	1.047281	1.579706
