data_functionalizedCrystal
_audit_creation_method	'MofGen! by Chris Wilmer'
_symmetry_space_group_name_H-M	'P1'
_symmetry_Int_Tables_number	1
_symmetry_cell_setting	triclinic
loop_
_symmetry_equiv_pos_as_xyz
  x,y,z
_cell_length_a	10.654550
_cell_length_b	10.868271
_cell_length_c	10.654550
_cell_angle_alpha	89.995020
_cell_angle_beta	95.515069
_cell_angle_gamma	90.001065
loop_
_atom_site_label
_atom_site_type_symbol
_atom_site_fract_x
_atom_site_fract_y
_atom_site_fract_z
O1	O	1.667841	0.102230	-0.176400
O2	O	2.167841	0.602230	0.323600
O3	O	1.302362	0.102253	-0.193206
O4	O	1.802362	0.602253	0.306794
O5	O	1.493505	0.102233	-0.002064
O6	O	1.993505	0.602233	0.497936
O7	O	1.476699	0.102250	-0.367542
O8	O	1.976699	0.602250	0.132458
O9	O	1.493489	-0.102412	-0.002056
O10	O	1.993489	0.397588	0.497944
O11	O	1.302346	-0.102392	-0.193198
O12	O	1.802346	0.397608	0.306802
O13	O	1.667825	-0.102415	-0.176392
O14	O	2.167825	0.397585	0.323608
Zn15	Zn	1.485083	-0.134895	-0.184794
Zn16	Zn	1.985083	0.365105	0.315206
Zn17	Zn	1.485104	0.134733	-0.184804
Zn18	Zn	1.985104	0.634733	0.315196
O19	O	1.476683	-0.102395	-0.367534
O20	O	1.976683	0.397605	0.132466
C21	C	1.255556	-0.000067	-0.191968
C22	C	1.755556	0.499933	0.308032
C23	C	1.116113	-0.000058	-0.188276
C24	C	1.616113	0.499942	0.311724
N25	N	1.485078	-0.318909	-0.184786
N26	N	1.985078	0.181091	0.315214
C27	C	1.036628	-0.000057	-0.300818
C28	C	1.536628	0.499943	0.199182
C29	C	0.905607	-0.000078	-0.297341
C30	C	1.405607	0.499922	0.202659
C31	C	0.933570	-0.000098	-0.068772
C32	C	1.433570	0.499902	0.431228
C33	C	1.064588	-0.000085	-0.072250
C34	C	1.564588	0.499915	0.427750
C35	C	1.485098	-0.569915	-0.184801
C36	C	1.985098	-0.069915	0.315199
C37	C	1.485083	-0.430238	-0.184797
C38	C	1.985083	0.069762	0.315203
C39	C	1.714631	-0.000092	-0.177630
C40	C	2.214631	0.499908	0.322370
C41	C	1.854074	-0.000093	-0.181322
C42	C	2.354074	0.499907	0.318678
C43	C	1.492263	-0.000089	0.044738
C44	C	1.992263	0.499911	0.544738
C45	C	1.488571	-0.000086	0.184181
C46	C	1.988571	0.499914	0.684181
N47	N	1.485119	0.318747	-0.184802
N48	N	1.985119	0.818747	0.315198
C49	C	1.477925	-0.000071	-0.414336
C50	C	1.977925	0.499929	0.085664
C51	C	1.481616	-0.000065	-0.553779
C52	C	1.981616	0.499935	-0.053779
C53	C	1.601112	-0.000093	0.263667
C54	C	2.101112	0.499907	0.763667
C55	C	1.597636	-0.000078	0.394688
C56	C	2.097636	0.499922	0.894688
C57	C	1.369066	-0.000055	0.366725
C58	C	1.869066	0.499945	0.866725
C59	C	1.372544	-0.000061	0.235706
C60	C	1.872544	0.499939	0.735706
H61	H	0.840894	-0.000080	-0.388984
H62	H	1.340894	0.499920	0.111016
N63	N	1.243925	-0.000040	0.422292
N64	N	1.743925	0.499960	0.922292
H65	H	1.237392	0.075822	0.476022
H66	H	1.737392	0.575822	0.976022
H67	H	1.237455	-0.075952	0.475970
H68	H	1.737455	0.424048	0.975970
H69	H	1.695588	-0.000111	0.221720
H70	H	2.195588	0.499889	0.721720
H71	H	1.129309	-0.000090	0.019401
H72	H	1.629309	0.499910	0.519401
H73	H	0.891602	-0.000127	0.025693
H74	H	1.391602	0.499873	0.525693
N75	N	1.092200	-0.000051	-0.425957
N76	N	1.592200	0.499949	0.074043
H77	H	1.187261	-0.000041	-0.411087
H78	H	1.687261	0.499959	0.088913
H79	H	1.063185	0.075813	-0.475258
H80	H	1.563185	0.575813	0.024742
N81	N	1.719019	-0.000084	0.480420
N82	N	2.219019	0.499916	0.980420
H83	H	1.793044	-0.000102	0.427894
H84	H	2.293044	0.499898	0.927894
H85	H	1.722543	-0.075945	0.535401
H86	H	2.222543	0.424055	1.035401
N87	N	1.251155	-0.000045	0.149963
N88	N	1.751155	0.499955	0.649963
H89	H	1.177125	-0.000037	0.202483
H90	H	1.677125	0.499963	0.702483
H91	H	1.247612	-0.075910	0.095000
H92	H	1.747612	0.424090	0.595000
