data_functionalizedCrystal
_audit_creation_method	'MofGen! by Chris Wilmer'
_symmetry_space_group_name_H-M	'P1'
_symmetry_Int_Tables_number	1
_symmetry_cell_setting	triclinic
loop_
_symmetry_equiv_pos_as_xyz
  x,y,z
_cell_length_a	13.032721
_cell_length_b	13.033304
_cell_length_c	13.032268
_cell_angle_alpha	90.922231
_cell_angle_beta	103.289627
_cell_angle_gamma	74.816908
loop_
_atom_site_label
_atom_site_type_symbol
_atom_site_fract_x
_atom_site_fract_y
_atom_site_fract_z
Zn1	Zn	-0.335813	-1.451133	-0.818131
Zn2	Zn	-0.002480	-1.117800	-0.484798
Zn3	Zn	0.330853	-0.784466	-0.151465
Zn4	Zn	-0.490910	-1.451019	-0.663066
Zn5	Zn	-0.157577	-1.117685	-0.329733
Zn6	Zn	0.175756	-0.784352	0.003600
Zn7	Zn	-0.330110	-1.301797	-0.623681
Zn8	Zn	0.003223	-0.968464	-0.290348
Zn9	Zn	0.336557	-0.635131	0.042985
Zn10	Zn	-0.535896	-1.250931	-0.818005
Zn11	Zn	-0.202563	-0.917597	-0.484672
Zn12	Zn	0.130770	-0.584264	-0.151338
O13	O	-0.423183	-1.363720	-0.730721
O14	O	-0.089849	-1.030387	-0.397388
O15	O	0.243484	-0.697053	-0.064054
O16	O	-0.339947	-1.597353	-0.814097
O17	O	-0.006614	-1.264019	-0.480764
O18	O	0.326719	-0.930686	-0.147431
O19	O	-0.448366	-1.452464	-0.511621
O20	O	-0.115033	-1.119131	-0.178288
O21	O	0.218300	-0.785798	0.155045
O22	O	-0.179836	-1.342943	-0.633046
O23	O	0.153498	-1.009609	-0.299712
O24	O	0.486831	-0.676276	0.033621
O25	O	-0.453897	-1.597269	-0.700172
O26	O	-0.120563	-1.263936	-0.366838
O27	O	0.212770	-0.930602	-0.033505
O28	O	-0.184026	-1.452659	-0.775907
O29	O	0.149308	-1.119326	-0.442574
O30	O	0.482641	-0.785992	-0.109241
O31	O	-0.330227	-1.342832	-0.482685
O32	O	0.003106	-1.009499	-0.149352
O33	O	0.336440	-0.676165	0.183981
O34	O	-0.373848	-1.148815	-0.632923
O35	O	-0.040515	-0.815481	-0.299590
O36	O	0.292819	-0.482148	0.033744
O37	O	-0.530569	-1.256248	-0.964242
O38	O	-0.197235	-0.922914	-0.630909
O39	O	0.136098	-0.589581	-0.297576
O40	O	-0.525038	-1.111443	-0.775692
O41	O	-0.191705	-0.778110	-0.442358
O42	O	0.141628	-0.444777	-0.109025
O43	O	-0.383568	-1.403335	-0.964335
O44	O	-0.050235	-1.070002	-0.631002
O45	O	0.283098	-0.736669	-0.297668
O46	O	-0.647909	-1.403141	-0.700049
O47	O	-0.314576	-1.069808	-0.366716
O48	O	0.018758	-0.736474	-0.033383
O49	O	-0.680960	-1.256137	-0.813882
O50	O	-0.347627	-0.922804	-0.480549
O51	O	-0.014293	-0.589470	-0.147215
C52	C	-0.453707	-1.092212	-0.700021
C53	C	-0.120373	-0.758878	-0.366687
C54	C	0.212960	-0.425545	-0.033354
C55	C	-0.466795	-0.976052	-0.686914
C56	C	-0.133461	-0.642719	-0.353581
C57	C	0.199872	-0.309385	-0.020248
C58	C	-0.416366	-0.924277	-0.737549
C59	C	-0.083033	-0.590944	-0.404215
C60	C	0.250301	-0.257610	-0.070882
C61	C	-0.429892	-0.804220	-0.724004
C62	C	-0.096558	-0.470887	-0.390671
C63	C	0.236775	-0.137553	-0.057337
C64	C	-0.703595	-1.324132	-0.761252
C65	C	-0.370262	-0.990799	-0.427918
C66	C	-0.036929	-0.657465	-0.094585
C67	C	-0.823551	-1.307287	-0.774359
C68	C	-0.490218	-0.973953	-0.441025
C69	C	-0.156885	-0.640620	-0.107692
C70	C	-0.860644	-1.372560	-0.723934
C71	C	-0.527311	-1.039227	-0.390600
C72	C	-0.193978	-0.705894	-0.057267
C73	C	-0.984625	-1.355151	-0.737479
C74	C	-0.651292	-1.021818	-0.404146
C75	C	-0.317958	-0.688485	-0.070812
C76	C	-0.141675	-1.403488	-0.700097
C77	C	0.191658	-1.070154	-0.366764
C78	C	0.524992	-0.736821	-0.033431
C79	C	-0.021713	-1.420434	-0.687047
C80	C	0.311620	-1.087101	-0.353714
C81	C	0.644953	-0.753768	-0.020380
C82	C	-0.462723	-1.324130	-1.003262
C83	C	-0.129389	-0.990797	-0.669929
C84	C	0.203944	-0.657464	-0.336595
C85	C	-0.479572	-1.307259	-1.119403
C86	C	-0.146239	-0.973926	-0.786070
C87	C	0.187094	-0.640593	-0.452736
C88	C	-0.392534	-0.636290	-0.761534
C89	C	-0.059200	-0.302957	-0.428201
C90	C	0.274133	0.030377	-0.094868
C91	C	-0.379456	-0.752448	-0.774646
C92	C	-0.046123	-0.419114	-0.441312
C93	C	0.287211	-0.085781	-0.107979
C94	C	-0.414352	-1.372514	-1.171228
C95	C	-0.081018	-1.039181	-0.837895
C96	C	0.252315	-0.705847	-0.504561
C97	C	-0.431765	-1.355079	-1.291266
C98	C	-0.098432	-1.021746	-0.957932
C99	C	0.234902	-0.688412	-0.624599
C100	C	-0.383712	-1.403227	-0.459238
C101	C	-0.050378	-1.069893	-0.125905
C102	C	0.282955	-0.736560	0.207428
C103	C	-0.366535	-1.420343	-0.343088
C104	C	-0.033202	-1.087009	-0.009755
C105	C	0.300131	-0.753676	0.323579
H106	H	-0.519979	-0.931497	-0.633535
H107	H	-0.186646	-0.598164	-0.300201
H108	H	0.146687	-0.264831	0.033132
H109	H	-0.961688	-1.489214	-0.633849
H110	H	-0.628355	-1.155881	-0.300516
H111	H	-0.295021	-0.822548	0.032818
H112	H	-0.345619	-1.441285	-1.126729
H113	H	-0.012286	-1.107952	-0.793396
H114	H	0.321048	-0.774619	-0.460063
H115	H	-0.500493	-1.286294	-1.335758
H116	H	-0.167160	-0.952960	-1.002425
H117	H	0.166174	-0.619627	-0.669091
H118	H	-0.297795	-1.489117	-1.298594
H119	H	0.035538	-1.155784	-0.965261
H120	H	0.368871	-0.822451	-0.631928
N121	N	-0.500349	-0.745209	-0.653296
N122	N	-0.167016	-0.411875	-0.319963
N123	N	0.166318	-0.078542	0.013371
H124	H	-0.577707	-0.750929	-0.679923
H125	H	-0.244373	-0.417596	-0.346589
H126	H	0.088960	-0.084262	-0.013256
H127	H	-0.470434	-0.777386	-0.578967
H128	H	-0.137100	-0.444053	-0.245634
H129	H	0.196233	-0.110720	0.087700
H130	H	-1.044652	-1.286379	-0.790686
H131	H	-0.711318	-0.953045	-0.457353
H132	H	-0.377985	-0.619712	-0.124019
H133	H	-0.548295	-1.238479	-1.163899
H134	H	-0.214962	-0.905146	-0.830566
H135	H	0.118371	-0.571813	-0.497233
H136	H	-0.800617	-1.441336	-0.670739
H137	H	-0.467284	-1.108003	-0.337406
H138	H	-0.133951	-0.774669	-0.004072
N139	N	-0.903054	-1.216191	-0.844835
N140	N	-0.569721	-0.882858	-0.511502
N141	N	-0.236388	-0.549525	-0.178168
H142	H	-0.980353	-1.216669	-0.844523
H143	H	-0.647019	-0.883335	-0.511189
H144	H	-0.313686	-0.550002	-0.177856
H145	H	-0.889513	-1.146670	-0.817950
H146	H	-0.556180	-0.813337	-0.484617
H147	H	-0.222846	-0.480004	-0.151283
H148	H	-0.363174	-0.968833	-0.790922
H149	H	-0.029841	-0.635500	-0.457589
H150	H	0.303493	-0.302167	-0.124255
H151	H	-0.326258	-0.796999	-0.828021
H152	H	0.007075	-0.463666	-0.494688
H153	H	0.340408	-0.130332	-0.161355
