data_functionalizedCrystal
_audit_creation_method	'MofGen! by Chris Wilmer'
_symmetry_space_group_name_H-M	'P1'
_symmetry_Int_Tables_number	1
_symmetry_cell_setting	triclinic
loop_
_symmetry_equiv_pos_as_xyz
  x,y,z
_cell_length_a	16.109295
_cell_length_b	14.586319
_cell_length_c	16.109301
_cell_angle_alpha	90.005214
_cell_angle_beta	96.539666
_cell_angle_gamma	89.999424
loop_
_atom_site_label
_atom_site_type_symbol
_atom_site_fract_x
_atom_site_fract_y
_atom_site_fract_z
O1	O	-1.103134	0.076181	0.106844
O2	O	-0.861071	0.076197	0.120148
O3	O	-0.988752	0.076179	-0.007535
O4	O	-0.975453	0.076199	0.234527
O5	O	-0.988743	-0.076302	-0.007537
O6	O	-0.861062	-0.076284	0.120146
O7	O	-1.103125	-0.076300	0.106842
Cu8	Cu	-0.982093	-0.090215	0.113494
Cu9	Cu	-0.982103	0.090111	0.113496
O10	O	-0.975444	-0.076282	0.234525
C11	C	-0.830092	-0.000042	0.119609
C12	C	-0.737796	-0.000036	0.117996
C13	C	-0.515523	-0.000040	0.190008
C14	C	-0.428803	-0.000046	0.188486
C15	C	-0.448677	-0.000054	0.036996
C16	C	-0.535396	-0.000055	0.038520
C17	C	-0.568816	-0.000043	0.115028
C18	C	-0.395377	-0.000048	0.111982
C19	C	-0.301351	-0.000054	0.110331
C20	C	-0.662849	-0.000039	0.116679
N21	N	-0.982091	-0.217046	0.113492
C22	C	-1.038647	-0.452061	0.056973
C23	C	-1.038650	-0.548042	0.056971
C24	C	-0.925549	-0.548036	0.170014
C25	C	-0.925544	-0.452056	0.170011
C26	C	-0.982097	-0.404071	0.113491
C27	C	-0.982105	-0.596032	0.113492
C28	C	-0.982108	-0.700099	0.113490
C29	C	-0.982094	-0.299997	0.113492
C30	C	-0.134104	-0.000058	0.107386
C31	C	-0.226397	-0.000055	0.109014
C32	C	-0.988209	-0.000062	-0.038511
C33	C	-0.986594	-0.000063	-0.130806
N34	N	-0.982111	0.216943	0.113492
C35	C	-1.058602	-0.000053	-0.353080
C36	C	-1.057078	-0.000046	-0.439800
C37	C	-0.905588	-0.000039	-0.419923
C38	C	-0.907113	-0.000040	-0.333204
C39	C	-0.983622	-0.000052	-0.299785
C40	C	-0.980573	-0.000043	-0.473225
C41	C	-0.978920	-0.000035	-0.567251
C42	C	-0.985276	-0.000058	-0.205754
C43	C	-0.975987	-0.000039	0.265501
C44	C	-0.977602	-0.000032	0.357796
H45	H	-0.578790	-0.000060	-0.022542
H46	H	-1.118133	-0.000045	-0.483190
C47	C	-0.863348	-0.600820	0.232190
C48	C	-0.863395	-0.706393	0.232245
C49	C	-0.801194	-0.759174	0.294425
C50	C	-0.738946	-0.706381	0.356550
C51	C	-0.738897	-0.600801	0.356497
C52	C	-0.801098	-0.548021	0.294316
H53	H	-0.909477	-0.745479	0.186255
H54	H	-0.801232	-0.837331	0.294464
H55	H	-0.692902	-0.745452	0.402579
H56	H	-0.692815	-0.561716	0.402487
H57	H	-0.801061	-0.469864	0.294277
H58	H	-0.879490	-0.412981	0.216036
C59	C	-1.142759	-0.000057	-0.316318
C60	C	-1.225235	-0.000053	-0.374945
C61	C	-1.309395	-0.000054	-0.338186
C62	C	-1.311079	-0.000058	-0.242800
C63	C	-1.228600	-0.000062	-0.184167
C64	C	-1.144440	-0.000061	-0.220926
H65	H	-1.223990	-0.000050	-0.445561
H66	H	-1.370451	-0.000051	-0.381591
H67	H	-1.373379	-0.000059	-0.215589
H68	H	-1.229844	-0.000065	-0.113551
H69	H	-1.083384	-0.000064	-0.177521
C70	C	-1.100848	-0.399277	-0.005203
C71	C	-1.163048	-0.452070	-0.067376
C72	C	-1.225249	-0.399289	-0.129556
C73	C	-1.225250	-0.293715	-0.129564
C74	C	-1.163048	-0.240916	-0.067389
C75	C	-1.100847	-0.293697	-0.005208
H76	H	-1.163050	-0.530227	-0.067373
H77	H	-1.271295	-0.438375	-0.175583
H78	H	-1.271295	-0.254644	-0.175593
H79	H	-1.163047	-0.162759	-0.067392
H80	H	-1.054801	-0.254611	0.040818
C81	C	-0.821432	-0.000028	-0.456686
C82	C	-0.819750	-0.000027	-0.552073
C83	C	-0.735591	-0.000016	-0.588834
C84	C	-0.653114	-0.000006	-0.530208
C85	C	-0.654793	-0.000007	-0.434816
C86	C	-0.738952	-0.000019	-0.398055
H87	H	-0.880806	-0.000034	-0.595476
H88	H	-0.734348	-0.000014	-0.659450
H89	H	-0.590815	0.000003	-0.557421
H90	H	-0.593736	0.000000	-0.391413
H91	H	-0.740195	-0.000020	-0.327439
C92	C	-0.824630	-0.000041	-0.274574
C93	C	-0.761933	0.079139	-0.278290
C94	C	-0.679454	0.079141	-0.219659
C95	C	-0.659672	-0.000036	-0.157313
C96	C	-0.722371	-0.079222	-0.153595
C97	C	-0.804850	-0.079224	-0.212225
H98	H	-0.776576	0.137756	-0.324444
H99	H	-0.633041	0.137760	-0.222413
H100	H	-0.598616	-0.000034	-0.113912
H101	H	-0.707728	-0.137839	-0.107440
H102	H	-0.851263	-0.137843	-0.209472
H103	H	-0.542731	-0.000037	0.252306
H104	H	-0.385414	-0.000045	0.249542
H105	H	-1.084697	-0.587112	0.010947
H106	H	-0.421455	-0.000069	-0.025294
