data_functionalizedCrystal
_audit_creation_method	'MofGen! by Chris Wilmer'
_symmetry_space_group_name_H-M	'P1'
_symmetry_Int_Tables_number	1
_symmetry_cell_setting	triclinic
loop_
_symmetry_equiv_pos_as_xyz
  x,y,z
_cell_length_a	18.101398
_cell_length_b	21.295417
_cell_length_c	18.101389
_cell_angle_alpha	89.978482
_cell_angle_beta	89.990255
_cell_angle_gamma	90.025259
loop_
_atom_site_label
_atom_site_type_symbol
_atom_site_fract_x
_atom_site_fract_y
_atom_site_fract_z
Zn1	Zn	1.132128	-0.250750	-0.418535
Zn2	Zn	1.632128	0.249250	0.081465
Zn3	Zn	1.132027	-0.356003	-0.294686
Zn4	Zn	1.632027	0.143997	0.205314
Zn5	Zn	1.008287	-0.250744	-0.294727
Zn6	Zn	1.508287	0.249256	0.205273
Zn7	Zn	1.008241	-0.355977	-0.418506
Zn8	Zn	1.508241	0.144023	0.081494
O9	O	1.070171	-0.303369	-0.356614
O10	O	1.570171	0.196631	0.143386
O11	O	1.235748	-0.264726	-0.402101
O12	O	1.735748	0.235274	0.097899
O13	O	1.115590	-0.342049	-0.191059
O14	O	1.615590	0.157951	0.308941
O15	O	1.024776	-0.162655	-0.311179
O16	O	1.524776	0.337345	0.188821
O17	O	1.235673	-0.342055	-0.311110
O18	O	1.735673	0.157945	0.188890
O19	O	1.115762	-0.162660	-0.402140
O20	O	1.615762	0.337340	0.097860
O21	O	1.024678	-0.264715	-0.191089
O22	O	1.524678	0.235285	0.308911
O23	O	0.904648	-0.264690	-0.311152
O24	O	1.404648	0.235310	0.188848
O25	O	1.024698	-0.342010	-0.522143
O26	O	1.524698	0.157990	-0.022143
O27	O	0.904614	-0.342004	-0.402092
O28	O	1.404614	0.157996	0.097908
O29	O	1.115717	-0.264700	-0.522164
O30	O	1.615717	0.235300	-0.022164
O31	O	1.115545	-0.444089	-0.311083
O32	O	1.615545	0.055911	0.188917
O33	O	1.024600	-0.444070	-0.402053
O34	O	1.524600	0.055930	0.097947
C35	C	0.877760	-0.303344	-0.356624
C36	C	1.377760	0.196656	0.143376
C37	C	0.795446	-0.303348	-0.356646
C38	C	1.295446	0.196652	0.143354
C39	C	0.496355	-0.303385	-0.356615
C40	C	0.996355	0.196615	0.143385
C41	C	0.527684	-0.352265	-0.413550
C42	C	1.027684	0.147735	0.086450
C43	C	0.613302	-0.352112	-0.413784
C44	C	1.113302	0.147888	0.086216
C45	C	0.644738	-0.303368	-0.356630
C46	C	1.144738	0.196632	0.143370
C47	C	0.613681	-0.237068	-0.377962
C48	C	1.113681	0.262932	0.122038
C49	C	0.528036	-0.237361	-0.378367
C50	C	1.028036	0.262639	0.121633
C51	C	0.527903	-0.320222	-0.278211
C52	C	1.027903	0.179778	0.221789
C53	C	0.613553	-0.321676	-0.278630
C54	C	1.113553	0.178324	0.221370
C55	C	0.728597	-0.303353	-0.356638
C56	C	1.228597	0.196647	0.143362
C57	C	0.412496	-0.303395	-0.356609
C58	C	0.912496	0.196605	0.143391
C59	C	1.070076	-0.466920	-0.356576
C60	C	1.570076	0.033080	0.143424
C61	C	1.070104	-0.536888	-0.356585
C62	C	1.570104	-0.036888	0.143415
C63	C	1.117453	-0.569700	-0.403982
C64	C	1.617453	-0.069700	0.096018
C65	C	1.117479	-0.635443	-0.404000
C66	C	1.617479	-0.135443	0.096000
C67	C	1.070164	-0.668371	-0.356608
C68	C	1.570164	-0.168371	0.143392
C69	C	1.022806	-0.635551	-0.309208
C70	C	1.522806	-0.135551	0.190792
C71	C	1.022776	-0.569810	-0.309196
C72	C	1.522776	-0.069810	0.190804
N73	N	1.064571	-0.771624	-0.291797
N74	N	1.564571	-0.271624	0.208203
N75	N	1.064604	-0.834075	-0.291810
N76	N	1.564604	-0.334075	0.208190
C77	C	1.070250	-0.866445	-0.356642
C78	C	1.570250	-0.366445	0.143358
N79	N	1.075877	-0.834005	-0.421461
N80	N	1.575877	-0.334005	0.078539
N81	N	1.075848	-0.771548	-0.421447
N82	N	1.575848	-0.271548	0.078553
C83	C	1.070191	-0.739656	-0.356616
C84	C	1.570191	-0.239656	0.143384
C85	C	1.117630	-0.970543	-0.404063
C86	C	1.617630	-0.470543	0.095937
C87	C	1.117651	-1.036286	-0.404082
C88	C	1.617651	-0.536286	0.095918
C89	C	1.022982	-1.036394	-0.309283
C90	C	1.522982	-0.536394	0.190717
C91	C	1.022957	-0.970651	-0.309270
C92	C	1.522957	-0.470651	0.190730
C93	C	1.070285	-0.937730	-0.356659
C94	C	1.570285	-0.437730	0.143341
C95	C	1.263333	-0.303394	-0.356604
C96	C	1.763333	0.196606	0.143396
C97	C	1.345647	-0.303405	-0.356600
C98	C	1.845647	0.196595	0.143400
C99	C	1.070214	-0.303353	-0.549776
C100	C	1.570214	0.196647	-0.049776
C101	C	1.070232	-0.303346	-0.632090
C102	C	1.570232	0.196654	-0.132090
C103	C	1.070286	-0.139178	-0.356668
C104	C	1.570286	0.360822	0.143332
C105	C	1.070335	-0.069210	-0.356690
C106	C	1.570335	0.430790	0.143310
C107	C	1.070275	-0.303228	-0.931181
C108	C	1.570275	0.196772	-0.431181
C109	C	1.012811	-0.351714	-0.899843
C110	C	1.512811	0.148286	-0.399843
C111	C	1.012966	-0.351939	-0.814224
C112	C	1.512966	0.148061	-0.314224
C113	C	1.070253	-0.303286	-0.782798
C114	C	1.570253	0.196714	-0.282798
C115	C	1.148279	-0.321298	-0.813883
C116	C	1.648279	0.178702	-0.313883
C117	C	1.147959	-0.321617	-0.899528
C118	C	1.647959	0.178383	-0.399528
C119	C	1.050392	-0.236622	-0.899615
C120	C	1.550392	0.263378	-0.399615
C121	C	1.048656	-0.237006	-0.813964
C122	C	1.548656	0.262994	-0.313964
C123	C	1.070245	-0.303318	-0.698939
C124	C	1.570245	0.196682	-0.198939
C125	C	1.070288	-0.303197	-1.015041
C126	C	1.570288	0.196803	-0.515041
C127	C	1.070171	-0.303339	-0.164203
C128	C	1.570171	0.196661	0.335797
C129	C	1.070296	-0.303168	-0.081890
C130	C	1.570296	0.196832	0.418110
H131	H	0.507313	-0.199638	-0.338801
H132	H	1.007313	0.300362	0.161199
H133	H	1.156030	-0.662163	-0.442605
H134	H	1.656030	-0.162163	0.057395
H135	H	0.507070	-0.401591	-0.400329
H136	H	1.007070	0.098409	0.099671
H137	H	0.984280	-0.662365	-0.270623
H138	H	1.484280	-0.162365	0.229377
H139	H	0.984217	-0.543094	-0.270599
H140	H	1.484217	-0.043094	0.229401
Br141	Br	0.916078	-0.333117	-0.934169
Br142	Br	1.416078	0.166883	-0.434169
H143	H	1.192244	-0.287093	-0.793528
H144	H	1.692244	0.212907	-0.293528
Br145	Br	1.034421	-0.433491	-0.935770
Br146	Br	1.534421	0.066509	-0.435770
H147	H	1.192225	-0.287834	-0.920259
H148	H	1.692225	0.212166	-0.420259
Br149	Br	1.176863	-0.401589	-0.778134
Br150	Br	1.676863	0.098411	-0.278134
Br151	Br	0.916531	-0.333147	-0.779190
Br152	Br	1.416531	0.166853	-0.279190
Br153	Br	0.957207	-0.209272	-0.935615
Br154	Br	1.457207	0.290728	-0.435615
Br155	Br	0.494761	-0.213559	-0.473898
Br156	Br	0.994761	0.286441	0.026102
H157	H	1.156208	-1.063001	-0.442682
H158	H	1.656208	-0.563001	0.057318
Br159	Br	1.120151	-0.176411	-0.933392
Br160	Br	1.620151	0.323589	-0.433392
Br161	Br	1.181858	-0.925860	-0.468376
Br162	Br	1.681858	-0.425860	0.031624
Br163	Br	1.034889	-0.434219	-0.780068
Br164	Br	1.534889	0.065781	-0.280068
H165	H	0.633859	-0.370463	-0.262542
H166	H	1.133859	0.129537	0.237458
Br167	Br	0.648302	-0.434064	-0.391532
Br168	Br	1.148302	0.065936	0.108468
Br169	Br	0.647481	-0.333547	-0.510608
Br170	Br	1.147481	0.166453	-0.010608
H171	H	1.164814	-0.370307	-0.919504
H172	H	1.664814	0.129693	-0.419504
Br173	Br	0.958692	-0.926118	-0.244944
Br174	Br	1.458692	-0.426118	0.255056
H175	H	0.991235	-0.223423	-0.793648
H176	H	1.491235	0.276577	-0.293648
H177	H	0.984452	-1.063203	-0.270700
H178	H	1.484452	-0.563203	0.229300
Br179	Br	0.647620	-0.174719	-0.311007
Br180	Br	1.147620	0.325281	0.188993
H181	H	1.087456	-0.198963	-0.792572
H182	H	1.587456	0.301037	-0.292572
H183	H	0.635146	-0.222528	-0.434656
H184	H	1.135146	0.277472	0.065344
H185	H	0.506173	-0.341268	-0.471306
H186	H	1.006173	0.158732	0.028694
H187	H	0.506291	-0.367740	-0.258826
H188	H	1.006291	0.132260	0.241174
H189	H	0.634952	-0.288659	-0.233931
H190	H	1.134952	0.211341	0.266069
H191	H	0.507644	-0.284618	-0.235790
H192	H	1.007644	0.215382	0.264210
Br193	Br	1.181680	-0.525024	-0.468299
Br194	Br	1.681680	-0.025024	0.031701
