data_functionalizedCrystal
_audit_creation_method	'MofGen! by Chris Wilmer'
_symmetry_space_group_name_H-M	'P1'
_symmetry_Int_Tables_number	1
_symmetry_cell_setting	triclinic
loop_
_symmetry_equiv_pos_as_xyz
  x,y,z
_cell_length_a	13.897449
_cell_length_b	29.839132
_cell_length_c	13.897441
_cell_angle_alpha	89.962642
_cell_angle_beta	90.020733
_cell_angle_gamma	89.953457
loop_
_atom_site_label
_atom_site_type_symbol
_atom_site_fract_x
_atom_site_fract_y
_atom_site_fract_z
Zn1	Zn	1.474518	0.178824	0.545336
Zn2	Zn	1.474334	0.253959	0.384018
Zn3	Zn	1.313207	0.178845	0.384054
Zn4	Zn	1.313111	0.253929	0.545271
O5	O	1.393793	0.216389	0.464670
O6	O	1.609475	0.188794	0.523949
O7	O	1.452924	0.244016	0.249041
O8	O	1.334722	0.115975	0.405491
O9	O	1.609340	0.243995	0.405429
O10	O	1.453237	0.115959	0.523984
O11	O	1.334544	0.188830	0.249068
O12	O	1.178213	0.188802	0.405428
O13	O	1.334559	0.243945	0.680261
O14	O	1.178142	0.243966	0.523873
O15	O	1.453144	0.188765	0.680309
O16	O	1.452831	0.316822	0.405366
O17	O	1.334381	0.316800	0.523838
C18	C	1.143178	0.216383	0.464648
C19	C	1.035964	0.216391	0.464661
C20	C	0.839669	0.216393	0.464686
C21	C	0.948902	0.216391	0.464670
C22	C	1.393602	0.333112	0.464612
C23	C	1.393608	0.383046	0.464620
C24	C	1.455513	0.692688	0.403032
C25	C	1.455605	0.880361	0.403054
O26	O	1.508135	0.904625	0.350673
N27	N	1.393893	0.903831	0.464685
C28	C	1.332159	0.880380	0.526320
O29	O	1.279679	0.904649	0.578749
C30	C	1.332073	0.692708	0.526302
C31	C	1.393781	0.669240	0.464660
C32	C	1.517217	0.669221	0.341396
C33	C	1.517190	0.622305	0.341387
C34	C	1.455458	0.598857	0.403015
C35	C	1.393754	0.622325	0.464652
C36	C	1.270344	0.669258	0.587941
C37	C	1.270329	0.622337	0.587933
C38	C	1.332038	0.598869	0.526291
C39	C	1.331995	0.551962	0.526271
N40	N	1.393706	0.528492	0.464640
C41	C	1.455438	0.551939	0.403012
C42	C	1.332208	0.978911	0.526324
C43	C	1.332228	1.025828	0.526327
C44	C	1.455675	1.025806	0.403062
C45	C	1.455649	0.978888	0.403054
C46	C	1.393919	0.955441	0.464692
C47	C	1.455375	0.453414	0.402998
C48	C	1.455340	0.406494	0.402992
C49	C	1.331896	0.406520	0.526260
C50	C	1.331928	0.453436	0.526263
C51	C	1.393675	0.476881	0.464629
O52	O	1.279500	0.527669	0.578632
O53	O	1.507926	0.527662	0.350606
C54	C	1.455540	0.739604	0.403041
C55	C	1.393836	0.763071	0.464677
C56	C	1.332104	0.739623	0.526305
C57	C	1.393856	0.809989	0.464681
C58	C	1.455588	0.833437	0.403053
C59	C	1.517299	0.809967	0.341421
C60	C	1.517272	0.763051	0.341413
C61	C	1.270393	0.763093	0.587937
C62	C	1.270424	0.810009	0.587939
C63	C	1.332156	0.833457	0.526311
C64	C	1.645385	0.216395	0.464692
C65	C	1.752599	0.216398	0.464702
C66	C	1.393861	0.216349	0.716263
C67	C	1.393890	0.216332	0.823477
C68	C	1.393974	1.099211	0.464728
C69	C	1.393959	1.049276	0.464699
C70	C	1.393780	0.216396	0.214055
C71	C	1.393938	0.216287	0.106842
C72	C	1.393916	0.216302	1.019772
C73	C	1.393899	0.216320	0.910540
H74	H	1.505590	0.387388	0.352792
C75	C	1.202538	0.835819	0.655753
C76	C	1.092883	0.829423	0.647793
C77	C	1.025006	0.855231	0.715611
C78	C	1.066784	0.887435	0.791389
C79	C	1.176445	0.893833	0.799352
C80	C	1.244322	0.868025	0.731534
H81	H	1.061951	0.805582	0.591694
H82	H	0.943828	0.850495	0.709716
H83	H	1.016538	0.906540	0.841592
H84	H	1.207377	0.917674	0.855450
H85	H	1.325500	0.872761	0.737429
H86	H	1.281937	0.959823	0.576518
C87	C	1.523290	0.479199	0.335195
C88	C	1.515461	0.472783	0.225533
C89	C	1.583369	0.498569	0.157725
C90	C	1.659106	0.530771	0.199578
C91	C	1.666939	0.537189	0.309245
C92	C	1.599031	0.511403	0.377053
H93	H	1.459393	0.448944	0.194546
H94	H	1.577571	0.493819	0.076542
H95	H	1.709376	0.549859	0.149383
H96	H	1.723006	0.561028	0.340232
H97	H	1.604829	0.516154	0.458236
C98	C	1.202480	0.737306	0.655732
C99	C	1.092835	0.743822	0.647755
C100	C	1.024913	0.718037	0.715552
C101	C	1.066636	0.685738	0.791326
C102	C	1.176287	0.679221	0.799307
C103	C	1.244209	0.705005	0.731509
H104	H	1.061943	0.767733	0.591659
H105	H	0.943742	0.722862	0.709644
H106	H	1.016356	0.666651	0.841514
H107	H	1.207178	0.655310	0.855402
H108	H	1.325380	0.700181	0.737417
C109	C	1.202420	0.596545	0.655735
C110	C	1.126692	0.564342	0.613869
C111	C	1.058782	0.538552	0.681667
C112	C	1.066600	0.544964	0.791330
C113	C	1.142332	0.577168	0.833201
C114	C	1.210242	0.602959	0.765403
H115	H	1.120901	0.559594	0.532685
H116	H	1.002720	0.514712	0.650671
H117	H	1.016329	0.525872	0.841518
H118	H	1.148123	0.581916	0.914385
H119	H	1.266304	0.626798	0.796399
C120	C	1.585128	0.695007	0.273595
C121	C	1.577302	0.688586	0.163935
C122	C	1.645212	0.714368	0.096123
C123	C	1.720948	0.746572	0.137970
C124	C	1.728778	0.752995	0.247636
C125	C	1.660867	0.727212	0.315448
H126	H	1.521234	0.664746	0.132951
H127	H	1.639416	0.709614	0.014941
H128	H	1.771220	0.765658	0.087772
H129	H	1.784845	0.776835	0.278619
H130	H	1.666664	0.731967	0.396630
H131	H	1.567441	0.603201	0.291196
H132	H	1.505940	1.044906	0.352882
C133	C	1.523535	0.953075	0.335254
C134	C	1.515727	0.959568	0.225593
C135	C	1.583618	0.933758	0.157791
C136	C	1.659318	0.901456	0.199651
C137	C	1.667129	0.894963	0.309318
C138	C	1.599238	0.920772	0.377120
H139	H	1.459687	0.983481	0.194600
H140	H	1.577835	0.938565	0.076608
H141	H	1.709575	0.882351	0.149460
H142	H	1.723169	0.871050	0.340311
H143	H	1.605021	0.915965	0.458303
C144	C	1.263998	0.380720	0.594050
C145	C	1.188281	0.348512	0.552182
C146	C	1.120389	0.322711	0.619977
C147	C	1.128212	0.329117	0.729642
C148	C	1.203932	0.361326	0.771516
C149	C	1.271825	0.387128	0.703720
H150	H	1.182487	0.343769	0.470997
H151	H	1.064336	0.298867	0.588979
H152	H	1.077954	0.310017	0.779828
H153	H	1.209726	0.366070	0.852701
H154	H	1.327877	0.410972	0.734719
H155	H	1.281969	1.044932	0.576514
H156	H	1.567561	0.829066	0.291239
H157	H	1.220089	0.688357	0.638133
H158	H	1.281683	0.472544	0.576460
H159	H	1.567521	0.743948	0.291218
