data_functionalizedCrystal
_audit_creation_method	'MofGen! by Chris Wilmer'
_symmetry_space_group_name_H-M	'P1'
_symmetry_Int_Tables_number	1
_symmetry_cell_setting	triclinic
loop_
_symmetry_equiv_pos_as_xyz
  x,y,z
_cell_length_a	19.077105
_cell_length_b	16.120484
_cell_length_c	19.077174
_cell_angle_alpha	95.281307
_cell_angle_beta	85.483752
_cell_angle_gamma	90.738523
loop_
_atom_site_label
_atom_site_type_symbol
_atom_site_fract_x
_atom_site_fract_y
_atom_site_fract_z
Zn1	Zn	1.077028	-0.405078	-0.458497
Zn2	Zn	1.066713	-0.538658	-0.346101
Zn3	Zn	0.954893	-0.393424	-0.335415
Zn4	Zn	0.953609	-0.538603	-0.459216
O5	O	1.013061	-0.468941	-0.399807
O6	O	1.174108	-0.427698	-0.447758
O7	O	1.048100	-0.514538	-0.245834
O8	O	0.975948	-0.278308	-0.346969
O9	O	1.166530	-0.525838	-0.365181
O10	O	1.065680	-0.286870	-0.437397
O11	O	0.965946	-0.407835	-0.237983
O12	O	0.856274	-0.407782	-0.347667
O13	O	0.973761	-0.525745	-0.557970
O14	O	0.855331	-0.514445	-0.438623
O15	O	1.064436	-0.427645	-0.557441
O16	O	1.046856	-0.655312	-0.365879
O17	O	0.963759	-0.655272	-0.448984
C18	C	0.830276	-0.459844	-0.392064
C19	C	0.752080	-0.455973	-0.388769
C20	C	1.004068	-0.685543	-0.408685
C21	C	1.000287	-0.778211	-0.412510
C22	C	0.714864	-0.509765	-0.434509
C23	C	0.641391	-0.506117	-0.431416
C24	C	0.605135	-0.448680	-0.382579
C25	C	0.642355	-0.394883	-0.336836
C26	C	0.715827	-0.398527	-0.339933
C27	C	0.385448	-0.431813	-0.368249
C28	C	0.311971	-0.428174	-0.365154
C29	C	0.311012	-0.539408	-0.459734
C30	C	0.384485	-0.543051	-0.462824
C31	C	0.421700	-0.489250	-0.417085
N32	N	0.530033	-0.444952	-0.379414
N33	N	0.496800	-0.492975	-0.420253
C34	C	0.993387	-0.947877	-0.419507
C35	C	1.032861	-0.989171	-0.380125
C36	C	1.029022	-1.083579	-0.384018
C37	C	0.997225	-0.853460	-0.415614
C38	C	1.196559	-0.478074	-0.407581
C39	C	1.274755	-0.481966	-0.410894
C40	C	1.020106	-0.477989	-0.584053
C41	C	1.023108	-0.481845	-0.662568
C42	C	1.022108	-0.251494	-0.390911
C43	C	1.025963	-0.158832	-0.387120
C44	C	0.981747	-0.428103	-0.695366
C45	C	0.984565	-0.431733	-0.769139
C46	C	1.028748	-0.489101	-0.810112
C47	C	1.070110	-0.542848	-0.777309
C48	C	1.067288	-0.539222	-0.703537
C49	C	1.041771	-0.505907	-1.031184
C50	C	1.044591	-0.509528	-1.104961
C51	C	0.959044	-0.398413	-1.096786
C52	C	0.956230	-0.394788	-1.023013
C53	C	0.997589	-0.448538	-0.990216
N54	N	1.031631	-0.492811	-0.885520
N55	N	0.994702	-0.444832	-0.914810
C56	C	1.006086	-0.459870	-0.216277
C57	C	1.003230	-0.455786	-0.137759
H58	H	0.744379	-0.556538	-0.474275
H59	H	1.069539	-0.953621	-0.343484
F60	F	0.945448	-0.994340	-0.467394
H61	H	0.611094	-0.549920	-0.468662
H62	H	1.080573	-0.556245	-1.138320
F63	F	0.423067	-0.604184	-0.514802
H64	H	1.075440	-0.549683	-1.004490
H65	H	0.925371	-0.354653	-1.123497
F66	F	0.271400	-0.596663	-0.508409
F67	F	0.940515	-0.374562	-0.804042
H68	H	0.612829	-0.348113	-0.297075
F69	F	1.111307	-0.596424	-0.668631
H70	H	0.282453	-0.381393	-0.325388
F71	F	0.425045	-0.374551	-0.319570
F72	F	0.934725	-0.367039	-0.651766
H73	H	0.746127	-0.354720	-0.302690
H74	H	0.920249	-0.348075	-0.989657
F75	F	1.117128	-0.603909	-0.820917
