data_functionalizedCrystal
_audit_creation_method	'MofGen! by Chris Wilmer'
_symmetry_space_group_name_H-M	'P1'
_symmetry_Int_Tables_number	1
_symmetry_cell_setting	triclinic
loop_
_symmetry_equiv_pos_as_xyz
  x,y,z
_cell_length_a	23.532407
_cell_length_b	23.532407
_cell_length_c	14.048226
_cell_angle_alpha	89.985077
_cell_angle_beta	89.998871
_cell_angle_gamma	82.848713
loop_
_atom_site_label
_atom_site_type_symbol
_atom_site_fract_x
_atom_site_fract_y
_atom_site_fract_z
O1	O	0.755261	0.069136	-0.079059
O2	O	1.255261	0.569136	0.420941
O3	O	0.589398	0.079139	-0.079090
O4	O	1.089398	0.579139	0.420910
O5	O	0.677331	-0.008794	-0.079047
O6	O	1.177331	0.491206	0.420953
O7	O	0.667328	0.157069	-0.079102
O8	O	1.167328	0.657069	0.420898
O9	O	0.677320	-0.008799	0.079275
O10	O	1.177320	0.491201	0.579275
O11	O	0.589387	0.079134	0.079232
O12	O	1.089387	0.579134	0.579232
O13	O	0.755251	0.069131	0.079262
O14	O	1.255251	0.569131	0.579262
Zn15	Zn	0.672317	0.074132	0.104384
Zn16	Zn	1.172317	0.574132	0.604384
Zn17	Zn	0.672331	0.074138	-0.104211
Zn18	Zn	1.172331	0.574138	0.395789
O19	O	0.667317	0.157064	0.079219
O20	O	1.167317	0.657064	0.579219
C21	C	0.568176	0.078882	0.000068
C22	C	1.068176	0.578882	0.500068
C23	C	0.504959	0.078116	0.000057
C24	C	1.004959	0.578116	0.500057
C25	C	0.677071	-0.030013	0.000119
C26	C	1.177071	0.469987	0.500119
C27	C	0.676305	-0.093230	0.000133
C28	C	1.176305	0.406770	0.500133
C29	C	0.621110	-0.359397	0.000063
C30	C	1.121110	0.140603	0.500063
C31	C	0.621821	-0.299997	0.000071
C32	C	1.121821	0.200003	0.500071
O33	O	0.578035	-0.263252	0.000033
O34	O	1.078035	0.236748	0.500033
N35	N	0.674097	-0.277371	0.000091
N36	N	1.174097	0.222629	0.500091
C37	C	0.725666	-0.314148	0.000095
C38	C	1.225666	0.185852	0.500095
O39	O	0.770196	-0.289449	0.000112
O40	O	1.270196	0.210551	0.500112
C41	C	0.724954	-0.373547	0.000081
C42	C	1.224954	0.126453	0.500081
C43	C	0.672674	-0.396170	0.000070
C44	C	1.172674	0.103830	0.500070
C45	C	0.568834	-0.382020	0.000052
C46	C	1.068834	0.117980	0.500052
C47	C	0.568123	-0.441417	0.000046
C48	C	1.068123	0.058583	0.500046
C49	C	0.619687	-0.478189	0.000052
C50	C	1.119687	0.021811	0.500052
C51	C	0.671963	-0.455566	0.000064
C52	C	1.171963	0.044434	0.500064
C53	C	0.776521	-0.410324	0.000077
C54	C	1.276521	0.089676	0.500077
C55	C	0.775805	-0.469726	0.000062
C56	C	1.275805	0.030274	0.500062
C57	C	0.723525	-0.492349	0.000051
C58	C	1.223525	0.007651	0.500051
C59	C	0.722816	-0.551735	0.000065
C60	C	1.222816	-0.051735	0.500065
N61	N	0.670539	-0.574361	0.000044
N62	N	1.170539	-0.074361	0.500044
C63	C	0.618975	-0.537589	0.000038
C64	C	1.118975	-0.037589	0.500038
C65	C	0.727157	-0.189406	0.000123
C66	C	1.227157	0.310594	0.500123
C67	C	0.727870	-0.130008	0.000144
C68	C	1.227870	0.369992	0.500144
C69	C	0.624025	-0.115861	0.000119
C70	C	1.124025	0.384139	0.500119
C71	C	0.623313	-0.175260	0.000104
C72	C	1.123313	0.324740	0.500104
C73	C	0.674881	-0.212032	0.000103
C74	C	1.174881	0.287968	0.500103
C75	C	0.617486	-0.662325	0.000027
C76	C	1.117486	-0.162325	0.500027
C77	C	0.616779	-0.721727	0.000025
C78	C	1.116779	-0.221727	0.500025
C79	C	0.720623	-0.735869	0.000046
C80	C	1.220623	-0.235869	0.500046
C81	C	0.721330	-0.676473	0.000053
C82	C	1.221330	-0.176473	0.500053
C83	C	0.669757	-0.639701	0.000040
C84	C	1.169757	-0.139701	0.500040
O85	O	0.766579	-0.588514	0.000099
O86	O	1.266579	-0.088514	0.500099
O87	O	0.574452	-0.562296	0.000008
O88	O	1.074452	-0.062296	0.500008
C89	C	0.105856	0.125350	0.000085
C90	C	0.605856	0.625350	0.500085
C91	C	0.046456	0.124638	0.000091
C92	C	0.546456	0.624638	0.500091
O93	O	0.009711	0.168424	0.000111
O94	O	0.509711	0.668424	0.500111
N95	N	0.023830	0.072362	0.000107
N96	N	0.523830	0.572362	0.500107
C97	C	0.060607	0.020794	0.000126
C98	C	0.560607	0.520794	0.500126
O99	O	0.035908	-0.023737	0.000141
O100	O	0.535908	0.476263	0.500141
C101	C	0.120006	0.021506	0.000127
C102	C	0.620006	0.521506	0.500127
C103	C	0.142629	0.073785	0.000101
C104	C	0.642629	0.573785	0.500101
C105	C	0.128480	0.177625	0.000060
C106	C	0.628480	0.677625	0.500060
C107	C	0.187876	0.178336	0.000052
C108	C	0.687876	0.678336	0.500052
C109	C	0.224649	0.126772	0.000069
C110	C	0.724649	0.626772	0.500069
C111	C	0.202025	0.074496	0.000093
C112	C	0.702025	0.574496	0.500093
C113	C	0.156783	-0.030062	0.000153
C114	C	0.656783	0.469938	0.500153
C115	C	0.216185	-0.029345	0.000154
C116	C	0.716185	0.470655	0.500154
C117	C	0.238808	0.022934	0.000129
C118	C	0.738808	0.522934	0.500129
C119	C	0.298194	0.023643	0.000102
C120	C	0.798194	0.523643	0.500102
N121	N	0.320821	0.075920	0.000086
N122	N	0.820821	0.575920	0.500086
C123	C	0.284048	0.127484	0.000070
C124	C	0.784048	0.627484	0.500070
C125	C	-0.064135	0.019302	0.000126
C126	C	0.435865	0.519302	0.500126
C127	C	-0.123533	0.018589	0.000119
C128	C	0.376467	0.518589	0.500119
C129	C	-0.137680	0.122434	0.000085
C130	C	0.362320	0.622434	0.500085
C131	C	-0.078281	0.123146	0.000086
C132	C	0.421719	0.623146	0.500086
C133	C	-0.041509	0.071578	0.000110
C134	C	0.458491	0.571578	0.500110
C135	C	0.408784	0.128974	0.000052
C136	C	0.908784	0.628974	0.500052
C137	C	0.468186	0.129680	0.000041
C138	C	0.968186	0.629680	0.500041
C139	C	0.482329	0.025836	0.000079
C140	C	0.982329	0.525836	0.500079
C141	C	0.422932	0.025129	0.000086
C142	C	0.922932	0.525129	0.500086
C143	C	0.386160	0.076702	0.000076
C144	C	0.886160	0.576702	0.500076
O145	O	0.334974	-0.020119	0.000086
O146	O	0.834974	0.479881	0.500086
O147	O	0.308756	0.172007	0.000067
O148	O	0.808756	0.672007	0.500067
C149	C	0.776472	0.069388	0.000103
C150	C	1.276472	0.569388	0.500103
C151	C	0.839689	0.070154	0.000107
C152	C	1.339689	0.570154	0.500107
C153	C	0.667577	0.178283	0.000052
C154	C	1.167577	0.678283	0.500052
C155	C	0.668343	0.241500	0.000031
C156	C	1.168343	0.741500	0.500031
N157	N	0.672312	0.074127	0.246745
N158	N	1.172312	0.574127	0.746745
N159	N	0.672341	0.074139	-0.246572
N160	N	1.172341	0.574139	0.253428
C161	C	0.711261	0.035206	0.296582
C162	C	1.211261	0.535206	0.796582
C163	C	0.711265	0.035205	0.396239
C164	C	1.211265	0.535205	0.896239
C165	C	0.672322	0.074129	0.446058
C166	C	1.172322	0.574129	0.946058
C167	C	0.633369	0.113052	0.396214
C168	C	1.133369	0.613052	0.896214
C169	C	0.633363	0.113049	0.296558
C170	C	1.133363	0.613049	0.796558
C171	C	0.633385	0.113056	0.603928
C172	C	1.133385	0.613056	1.103928
C173	C	0.633392	0.113060	0.703591
C174	C	1.133392	0.613060	1.203591
C175	C	0.711287	0.035212	0.703609
C176	C	1.211287	0.535212	1.203609
C177	C	0.711281	0.035209	0.603953
C178	C	1.211281	0.535209	1.103953
C179	C	0.672329	0.074133	0.554116
C180	C	1.172329	0.574133	1.054116
H181	H	0.575489	-0.632392	0.000016
H182	H	1.075489	-0.132392	0.500016
O183	O	0.749124	-0.002521	0.444760
O184	O	1.249124	0.497479	0.944760
C185	C	0.784090	0.027809	0.502366
C186	C	1.284090	0.527809	1.002366
H187	H	0.761150	0.072489	0.517272
H188	H	1.261150	0.572489	1.017272
H189	H	0.793239	0.003996	0.572457
H190	H	1.293239	0.503996	1.072457
H191	H	0.826156	0.031468	0.463952
H192	H	1.326156	0.531468	0.963952
O193	O	0.772164	-0.654588	0.000022
O194	O	1.272164	-0.154588	0.500022
C195	C	0.817522	-0.699785	0.000052
C196	C	1.317522	-0.199785	0.500052
H197	H	0.801792	-0.740049	-0.029915
H198	H	1.301792	-0.240049	0.470085
H199	H	0.854042	-0.687568	-0.045915
H200	H	1.354042	-0.187568	0.454085
H201	H	0.833411	-0.708286	0.076008
H202	H	1.333411	-0.208286	0.576008
H203	H	0.512280	-0.016146	0.000089
H204	H	1.012280	0.483854	0.500089
H205	H	0.580742	-0.193674	0.000099
H206	H	1.080742	0.306326	0.500099
H207	H	0.601646	0.144742	0.255982
H208	H	1.101646	0.644742	0.755982
H209	H	0.601664	0.144750	0.563354
H210	H	1.101664	0.644750	1.063354
O211	O	0.401018	-0.025689	-0.000027
O212	O	0.901018	0.474311	0.499973
C213	C	0.419818	-0.057093	-0.082028
C214	C	0.919818	0.442907	0.417972
H215	H	0.460932	-0.041812	-0.109380
H216	H	0.960932	0.458188	0.390620
H217	H	0.428324	-0.104568	-0.063571
H218	H	0.928324	0.395432	0.436429
H219	H	0.385402	-0.050293	-0.139438
H220	H	0.885402	0.449707	0.360562
H221	H	0.742975	0.003512	0.256026
H222	H	1.242975	0.503512	0.756026
O223	O	0.595516	0.150784	0.444712
O224	O	1.095516	0.650784	0.944712
C225	C	0.560553	0.120462	0.502366
C226	C	1.060553	0.620462	1.002366
H227	H	0.583491	0.075781	0.517312
H228	H	1.083491	0.575781	1.017312
H229	H	0.551415	0.144281	0.572434
H230	H	1.051415	0.644281	1.072434
H231	H	0.518483	0.116804	0.463973
H232	H	1.018483	0.616804	0.963973
H233	H	0.098544	0.219617	0.000050
H234	H	0.598544	0.719617	0.500050
H235	H	0.742994	0.003518	0.563391
H236	H	1.242994	0.503518	1.063391
H237	H	0.246123	-0.071339	0.000175
H238	H	0.746123	0.428661	0.500175
O239	O	0.770658	-0.771677	0.000009
O240	O	1.270658	-0.271677	0.500009
C241	C	0.758813	-0.828953	0.000020
C242	C	1.258813	-0.328953	0.500020
H243	H	0.714093	-0.830972	-0.029957
H244	H	1.214093	-0.330972	0.470043
H245	H	0.791700	-0.856041	-0.045947
H246	H	1.291700	-0.356041	0.454053
H247	H	0.761069	-0.846162	0.075972
H248	H	1.261069	-0.346162	0.575972
O249	O	0.749203	-0.002543	0.751976
O250	O	1.249203	0.497457	1.251976
C251	C	0.805522	0.006427	0.727592
C252	C	1.305522	0.506427	1.227592
H253	H	0.805533	0.052023	0.700171
H254	H	1.305533	0.552023	1.200171
H255	H	0.834143	-0.000264	0.793128
H256	H	1.334143	0.499736	1.293128
H257	H	0.822430	-0.025226	0.669760
H258	H	1.322430	0.474774	1.169760
O259	O	0.566006	-0.743730	0.000178
O260	O	1.066006	-0.243730	0.500178
C261	C	0.562483	-0.777692	0.082156
C262	C	1.062483	-0.277692	0.582156
H263	H	0.592157	-0.763819	0.139478
H264	H	1.092157	-0.263819	0.639478
H265	H	0.516551	-0.772110	0.109665
H266	H	1.016551	-0.272110	0.609665
H267	H	0.575892	-0.824607	0.063616
H268	H	1.075892	-0.324607	0.563616
H269	H	0.378852	0.170970	0.000047
H270	H	0.878852	0.670970	0.500047
O271	O	0.778669	-0.108063	-0.000004
O272	O	1.278669	0.391937	0.499996
C273	C	0.810091	-0.126883	-0.081982
C274	C	1.310091	0.373117	0.418018
H275	H	0.779518	-0.139057	-0.139301
H276	H	1.279518	0.360943	0.360699
H277	H	0.834118	-0.091028	-0.109496
H278	H	1.334118	0.408972	0.390504
H279	H	0.842047	-0.165780	-0.063440
H280	H	1.342047	0.334220	0.436560
O281	O	0.517288	-0.463293	-0.000016
O282	O	1.017288	0.036707	0.499984
C283	C	0.471935	-0.418090	0.000002
C284	C	0.971935	0.081910	0.500002
H285	H	0.487675	-0.377819	-0.029957
H286	H	0.987675	0.122181	0.470043
H287	H	0.435418	-0.430287	-0.045979
H288	H	0.935418	0.069713	0.454021
H289	H	0.456039	-0.409611	0.075953
H290	H	0.956039	0.090389	0.575953
O291	O	0.134791	-0.080834	0.000013
O292	O	0.634791	0.419166	0.500013
C293	C	0.100845	-0.084359	-0.081965
C294	C	0.600845	0.415641	0.418035
H295	H	0.114721	-0.054678	-0.139294
H296	H	0.614721	0.445322	0.360706
H297	H	0.106440	-0.130290	-0.109464
H298	H	0.606440	0.369710	0.390536
H299	H	0.053925	-0.070961	-0.063430
H300	H	0.553925	0.429039	0.436570
H301	H	0.526842	-0.352085	0.000043
H302	H	1.026842	0.147915	0.500043
H303	H	0.601680	0.144755	0.744149
H304	H	1.101680	0.644755	1.244149
H305	H	0.769152	-0.219343	0.000128
H306	H	1.269152	0.280657	0.500128
O307	O	0.573986	-0.080052	0.000060
O308	O	1.073986	0.419948	0.500060
C309	C	0.585831	-0.022776	0.000093
C310	C	1.085831	0.477224	0.500093
H311	H	0.630555	-0.020745	-0.029862
H312	H	1.130555	0.479255	0.470138
H313	H	0.552951	0.004329	-0.045883
H314	H	1.052951	0.504329	0.454117
H315	H	0.583563	-0.005597	0.076049
H316	H	1.083563	0.494403	0.576049
H317	H	-0.059866	0.165717	0.000070
H318	H	0.440134	0.665717	0.500070
O319	O	0.827357	-0.388452	0.000042
O320	O	1.327357	0.111548	0.500042
C321	C	0.872708	-0.433657	0.000063
C322	C	1.372708	0.066343	0.500063
H323	H	0.856970	-0.473914	-0.029917
H324	H	1.356970	0.026086	0.470083
H325	H	0.909231	-0.421442	-0.045898
H326	H	1.409231	0.078558	0.454102
H327	H	0.888595	-0.442168	0.076018
H328	H	1.388595	0.057832	0.576018
O329	O	0.209920	0.229082	0.000149
O330	O	0.709920	0.729082	0.500149
C331	C	0.243848	0.232613	0.082148
C332	C	0.743848	0.732613	0.582148
H333	H	0.258892	0.187641	0.109510
H334	H	0.758892	0.687641	0.609510
H335	H	0.282622	0.255088	0.063685
H336	H	0.782622	0.755088	0.563685
H337	H	0.217467	0.257964	0.139554
H338	H	0.717467	0.757964	0.639554
O339	O	0.825862	-0.505504	0.000190
O340	O	1.325862	-0.005504	0.500190
C341	C	0.828564	-0.540292	0.082194
C342	C	1.328564	-0.040292	0.582194
H343	H	0.783378	-0.543057	0.109524
H344	H	1.283378	-0.043057	0.609524
H345	H	0.850043	-0.585051	0.063750
H346	H	1.350043	-0.085051	0.563750
H347	H	0.854457	-0.520900	0.139616
H348	H	1.354457	-0.020900	0.639616
O349	O	0.490066	0.180518	0.000061
O350	O	0.990066	0.680518	0.500061
C351	C	0.444867	0.225875	0.000027
C352	C	0.944867	0.725875	0.500027
H353	H	0.404602	0.210142	0.030011
H354	H	0.904602	0.710142	0.530011
H355	H	0.457080	0.262393	0.045978
H356	H	0.957080	0.762393	0.545978
H357	H	0.436371	0.241766	-0.075932
H358	H	0.936371	0.741766	0.424068
H359	H	-0.167632	0.164421	0.000076
H360	H	0.332368	0.664421	0.500076
H361	H	-0.141947	-0.023982	0.000124
H362	H	0.358053	0.476018	0.500124
H363	H	-0.034198	-0.022693	0.000138
H364	H	0.465802	0.477307	0.500138
