data_functionalizedCrystal
_audit_creation_method	'MofGen! by Chris Wilmer'
_symmetry_space_group_name_H-M	'P1'
_symmetry_Int_Tables_number	1
_symmetry_cell_setting	triclinic
loop_
_symmetry_equiv_pos_as_xyz
  x,y,z
_cell_length_a	17.019448
_cell_length_b	16.109301
_cell_length_c	15.186229
_cell_angle_alpha	89.994804
_cell_angle_beta	86.137136
_cell_angle_gamma	96.568079
loop_
_atom_site_label
_atom_site_type_symbol
_atom_site_fract_x
_atom_site_fract_y
_atom_site_fract_z
O1	O	0.101400	-1.103051	0.065493
O2	O	0.601400	-0.603051	0.565493
O3	O	0.114018	-0.860978	0.064552
O4	O	0.614018	-0.360978	0.564552
O5	O	-0.007121	-0.988760	0.073713
O6	O	0.492879	-0.488760	0.573713
O7	O	0.222538	-0.975269	0.056332
O8	O	0.722538	-0.475269	0.556332
O9	O	-0.007141	-0.988742	-0.072743
O10	O	0.492859	-0.488742	0.427257
O11	O	0.113998	-0.860961	-0.081904
O12	O	0.613998	-0.360961	0.418096
O13	O	0.101380	-1.103033	-0.080962
O14	O	0.601380	-0.603033	0.419038
Zn15	Zn	0.107686	-0.981994	-0.104686
Zn16	Zn	0.607686	-0.481994	0.395314
Zn17	Zn	0.107712	-0.982017	0.088276
Zn18	Zn	0.607712	-0.482017	0.588276
O19	O	0.222519	-0.975252	-0.090124
O20	O	0.722519	-0.475252	0.409876
C21	C	0.113497	-0.829995	-0.008636
C22	C	0.613497	-0.329995	0.491364
C23	C	0.111964	-0.737701	-0.008514
C24	C	0.611964	-0.237701	0.491486
C25	C	-0.036519	-0.988237	0.002711
C26	C	0.463481	-0.488237	0.502711
C27	C	-0.124085	-0.986694	0.009344
C28	C	0.375915	-0.486694	0.509344
C29	C	0.101901	-1.134016	-0.007773
C30	C	0.601901	-0.634016	0.492227
C31	C	0.103433	-1.226310	-0.007888
C32	C	0.603433	-0.726310	0.492112
C33	C	-0.619352	-0.978048	0.050960
C34	C	-0.119352	-0.478048	0.550960
C35	C	-0.537073	-0.979489	0.044710
C36	C	-0.037073	-0.479489	0.544710
C37	C	-0.495960	-0.980193	-0.038249
C38	C	0.004040	-0.480193	0.461751
C39	C	-0.537131	-0.979465	-0.114962
C40	C	-0.037131	-0.479465	0.385038
C41	C	-0.619409	-0.978030	-0.108710
C42	C	-0.119409	-0.478030	0.391290
C43	C	-0.247535	-0.984531	-0.061117
C44	C	0.252465	-0.484531	0.438883
C45	C	-0.165250	-0.985964	-0.067363
C46	C	0.334750	-0.485964	0.432637
C47	C	-0.165198	-0.985989	0.092309
C48	C	0.334802	-0.485989	0.592309
C49	C	-0.247478	-0.984549	0.098553
C50	C	0.252522	-0.484549	0.598553
C51	C	-0.288642	-0.983825	0.021840
C52	C	0.211358	-0.483825	0.521840
C53	C	-0.411857	-0.981664	-0.044640
C54	C	0.088143	-0.481664	0.455360
C55	C	-0.372744	-0.982361	0.028232
C56	C	0.127256	-0.482361	0.528232
C57	C	0.251916	-0.975775	-0.019120
C58	C	0.751916	-0.475775	0.480880
C59	C	0.339483	-0.977317	-0.025747
C60	C	0.839483	-0.477317	0.474253
N61	N	0.107668	-0.981985	-0.236377
N62	N	0.607668	-0.481985	0.263623
C63	C	0.180283	-0.515372	-0.013695
C64	C	0.680283	-0.015372	0.486305
C65	C	0.178837	-0.428653	-0.013591
C66	C	0.678837	0.071347	0.486409
C67	C	0.035110	-0.448647	-0.002710
C68	C	0.535110	0.051353	0.497290
C69	C	0.036556	-0.535364	-0.002820
C70	C	0.536556	-0.035364	0.497180
C71	C	0.109145	-0.568724	-0.008308
C72	C	0.609145	-0.068724	0.491692
C73	C	0.106252	-0.395287	-0.008094
C74	C	0.606252	0.104713	0.491906
C75	C	0.104684	-0.301263	-0.007982
C76	C	0.604684	0.198737	0.492018
C77	C	0.110714	-0.662755	-0.008423
C78	C	0.610714	-0.162755	0.491577
C79	C	0.059847	-0.931644	-0.550708
C80	C	0.559847	-0.431644	-0.050708
C81	C	0.059836	-0.931637	-0.458517
C82	C	0.559836	-0.431637	0.041483
C83	C	0.155546	-1.032380	-0.465709
C84	C	0.655546	-0.532380	0.034291
C85	C	0.155552	-1.032391	-0.557898
C86	C	0.655552	-0.532391	-0.057898
C87	C	0.107705	-0.982018	-0.600395
C88	C	0.607705	-0.482018	-0.100395
C89	C	0.107687	-0.982000	-0.416016
C90	C	0.607687	-0.482000	0.083984
C91	C	0.107675	-0.981993	-0.316059
C92	C	0.607675	-0.481993	0.183941
C93	C	0.107715	-0.982026	-0.700358
C94	C	0.607715	-0.482026	-0.200358
N95	N	0.107723	-0.982033	0.219967
N96	N	0.607723	-0.482033	0.719967
H97	H	-0.652819	-0.977466	0.118514
H98	H	-0.152819	-0.477466	0.618514
C99	C	-0.034766	-0.832071	-0.534336
C100	C	0.465234	-0.332071	-0.034336
C101	C	0.007246	-0.876284	-0.597421
C102	C	0.507246	-0.376284	-0.097421
H103	H	-0.067245	-0.797899	-0.563175
H104	H	0.432755	-0.297899	-0.063175
H105	H	0.001524	-0.797959	-0.501127
H106	H	0.501524	-0.297959	-0.001127
H107	H	-0.067079	-0.870373	-0.495932
H108	H	0.432921	-0.370373	0.004068
H109	H	0.039563	-0.837981	-0.635822
H110	H	0.539563	-0.337981	-0.135822
H111	H	-0.029048	-0.910398	-0.630646
H112	H	0.470952	-0.410398	-0.130646
C113	C	-0.045183	-0.644498	0.078656
C114	C	0.454817	-0.144498	0.578656
C115	C	-0.041643	-0.594018	0.003103
C116	C	0.458357	-0.094018	0.503103
H117	H	-0.093456	-0.680711	0.082306
H118	H	0.406544	-0.180711	0.582306
H119	H	-0.042758	-0.610257	0.129537
H120	H	0.457242	-0.110257	0.629537
H121	H	-0.001741	-0.676771	0.075356
H122	H	0.498259	-0.176771	0.575356
H123	H	-0.085082	-0.561741	0.006406
H124	H	0.414918	-0.061741	0.506406
H125	H	-0.044076	-0.628263	-0.047790
H126	H	0.455924	-0.128263	0.452210
H127	H	0.194503	-1.073391	-0.431097
H128	H	0.694503	-0.573391	0.068903
H129	H	0.194524	-1.073416	-0.598354
H130	H	0.694524	-0.573416	-0.098354
H131	H	-0.503560	-0.980085	0.107173
H132	H	-0.003560	-0.480085	0.607173
C133	C	-0.063872	-0.916114	-0.167666
C134	C	0.436128	-0.416114	0.332334
C135	C	-0.120045	-0.986733	-0.158551
C136	C	0.379955	-0.486733	0.341449
H137	H	-0.035965	-0.916584	-0.223959
H138	H	0.464035	-0.416584	0.276041
H139	H	-0.027596	-0.916758	-0.122869
H140	H	0.472404	-0.416758	0.377131
H141	H	-0.089965	-0.867105	-0.162365
H142	H	0.410035	-0.367105	0.337635
H143	H	-0.093951	-1.035742	-0.163845
H144	H	0.406049	-0.535742	0.336155
H145	H	-0.156327	-0.986096	-0.203361
H146	H	0.343673	-0.486096	0.296639
C147	C	-0.239169	-0.984808	0.255756
C148	C	0.260831	-0.484808	0.755756
C149	C	-0.292674	-0.983835	0.189745
C150	C	0.207326	-0.483835	0.689745
H151	H	-0.267076	-0.984387	0.312053
H152	H	0.232924	-0.484387	0.812053
H153	H	-0.201078	-0.936894	0.249587
H154	H	0.298922	-0.436894	0.749587
H155	H	-0.213076	-1.033814	0.250402
H156	H	0.286924	-0.533814	0.750402
H157	H	-0.318763	-0.934826	0.195095
H158	H	0.181237	-0.434826	0.695095
H159	H	-0.330779	-1.031754	0.195916
H160	H	0.169221	-0.531754	0.695916
H161	H	-0.131673	-0.986579	0.154764
H162	H	0.368327	-0.486579	0.654764
C163	C	0.054889	-0.819807	-0.354506
C164	C	0.554889	-0.319807	0.145494
C165	C	0.007238	-0.876252	-0.403905
C166	C	0.507238	-0.376252	0.096095
H167	H	0.022415	-0.785615	-0.320789
H168	H	0.522415	-0.285615	0.179211
H169	H	0.091183	-0.785716	-0.393216
H170	H	0.591183	-0.285716	0.106784
H171	H	0.083374	-0.849812	-0.315999
H172	H	0.583374	-0.349812	0.184001
H173	H	-0.021243	-0.846246	-0.442417
H174	H	0.478757	-0.346246	0.057583
H175	H	-0.029070	-0.910346	-0.365190
H176	H	0.470930	-0.410346	0.134810
H177	H	-0.023990	-0.421474	0.001753
H178	H	0.476010	0.078526	0.501753
C179	C	-0.239308	-0.984638	-0.219571
C180	C	0.260692	-0.484638	0.280429
C181	C	-0.292774	-0.983724	-0.145440
C182	C	0.207226	-0.483724	0.354560
H183	H	-0.267241	-0.984133	-0.271630
H184	H	0.232759	-0.484133	0.228370
H185	H	-0.213237	-1.033654	-0.218239
H186	H	0.286763	-0.533654	0.281761
H187	H	-0.201194	-0.936735	-0.219126
H188	H	0.298806	-0.436735	0.280874
H189	H	-0.330885	-1.031631	-0.145881
H190	H	0.169115	-0.531631	0.354119
H191	H	-0.318858	-0.934703	-0.146773
H192	H	0.181142	-0.434703	0.353227
H193	H	-0.503651	-0.980044	-0.182508
H194	H	-0.003651	-0.480044	0.317492
H195	H	-0.652925	-0.977435	-0.171174
H196	H	-0.152925	-0.477435	0.328826
C197	C	0.322204	-0.486895	-0.024451
C198	C	0.822204	0.013105	0.475549
C199	C	0.260071	-0.552042	-0.019739
C200	C	0.760071	-0.052042	0.480261
H201	H	0.371462	-0.509534	-0.028190
H202	H	0.871462	-0.009534	0.471810
H203	H	0.318661	-0.453494	0.026888
H204	H	0.818661	0.046506	0.526888
H205	H	0.318632	-0.453484	-0.075256
H206	H	0.818632	0.046516	0.424744
H207	H	0.263639	-0.585450	0.031070
H208	H	0.763639	-0.085450	0.531070
H209	H	0.263615	-0.585457	-0.071083
H210	H	0.763615	-0.085457	0.428917
C211	C	-0.456366	-0.909313	0.127196
C212	C	0.043634	-0.409313	0.627196
C213	C	-0.417938	-0.981577	0.119415
C214	C	0.082062	-0.481577	0.619415
H215	H	-0.484270	-0.908825	0.183490
H216	H	0.015730	-0.408825	0.683490
H217	H	-0.492647	-0.908685	0.082401
H218	H	0.007353	-0.408685	0.582401
H219	H	-0.418239	-0.861421	0.120988
H220	H	0.081761	-0.361421	0.620988
H221	H	-0.456066	-1.029470	0.125617
H222	H	0.043934	-0.529470	0.625617
H223	H	-0.381655	-0.982213	0.164223
H224	H	0.118345	-0.482213	0.664223
C225	C	0.260597	-0.319537	0.055509
C226	C	0.760597	0.180463	0.555509
C227	C	0.257032	-0.370006	-0.019507
C228	C	0.757032	0.129994	0.480493
H229	H	0.308873	-0.283328	0.051852
H230	H	0.808873	0.216672	0.551852
H231	H	0.258183	-0.353785	0.106755
H232	H	0.758183	0.146215	0.606755
H233	H	0.217159	-0.287259	0.058784
H234	H	0.717159	0.212741	0.558784
H235	H	0.300468	-0.402289	-0.022778
H236	H	0.800468	0.097711	0.477222
H237	H	0.259455	-0.335754	-0.070767
H238	H	0.759455	0.164246	0.429233
H239	H	-0.378373	-0.982235	-0.112185
H240	H	0.121627	-0.482235	0.387815
