data_functionalizedCrystal
_audit_creation_method	'MofGen! by Chris Wilmer'
_symmetry_space_group_name_H-M	'P1'
_symmetry_Int_Tables_number	1
_symmetry_cell_setting	triclinic
loop_
_symmetry_equiv_pos_as_xyz
  x,y,z
_cell_length_a	14.971482
_cell_length_b	17.019294
_cell_length_c	14.048226
_cell_angle_alpha	86.114596
_cell_angle_beta	89.994098
_cell_angle_gamma	83.503209
loop_
_atom_site_label
_atom_site_type_symbol
_atom_site_fract_x
_atom_site_fract_y
_atom_site_fract_z
O1	O	1.186694	0.102787	-0.087572
O2	O	0.926262	0.115100	-0.088586
O3	O	1.063743	-0.005883	-0.078662
O4	O	1.049213	0.223770	-0.097496
O5	O	1.063726	-0.005890	0.079660
O6	O	0.926246	0.115093	0.069736
O7	O	1.186677	0.102780	0.070750
Zn8	Zn	1.056459	0.108935	0.095380
Zn9	Zn	1.056481	0.108945	-0.113216
O10	O	1.049197	0.223763	0.060826
C11	C	0.892931	0.114547	-0.009381
C12	C	0.793638	0.112898	-0.009247
C13	C	0.746986	0.112118	0.077119
C14	C	0.653691	0.110556	0.077248
C15	C	0.607049	0.109780	-0.008990
C16	C	0.653708	0.110558	-0.095363
C17	C	0.747002	0.112114	-0.095490
C18	C	0.459254	0.107317	-0.095091
C19	C	0.365954	0.105762	-0.094964
C20	C	0.365944	0.105759	0.077648
C21	C	0.459237	0.107315	0.077520
C22	C	0.505889	0.108094	-0.008853
C23	C	1.063183	-0.035276	0.002907
C24	C	1.061530	-0.122848	0.010083
C25	C	1.060765	-0.163981	-0.072847
C26	C	1.059206	-0.246264	-0.066101
C27	C	1.058419	-0.287413	0.023575
C28	C	1.059182	-0.246273	0.106510
C29	C	1.060734	-0.163992	0.099764
C30	C	1.053725	-0.535851	0.048262
C31	C	1.052175	-0.618139	0.055002
C32	C	1.052197	-0.618123	-0.117611
C33	C	1.053755	-0.535840	-0.124349
C34	C	1.054513	-0.494708	-0.041413
C35	C	1.056828	-0.371519	0.030472
C36	C	1.056097	-0.410602	-0.048311
C37	C	1.220009	0.103333	-0.008458
C38	C	1.319302	0.104982	-0.008598
C39	C	1.049756	0.253156	-0.020746
C40	C	1.051409	0.340728	-0.027928
N41	N	1.056451	0.108928	0.237741
N42	N	1.056496	0.108945	-0.255577
C43	C	1.117346	0.055379	0.291952
C44	C	1.117352	0.055379	0.391609
C45	C	1.056466	0.108932	0.437054
C46	C	0.995564	0.162484	0.382836
C47	C	0.995555	0.162480	0.283181
C48	C	0.995590	0.162489	0.590550
C49	C	0.995601	0.162495	0.690212
C50	C	1.117387	0.055389	0.698979
C51	C	1.117378	0.055385	0.599323
C52	C	1.056477	0.108937	0.545112
H53	H	0.615725	0.109921	-0.165579
C54	C	1.184320	-0.003549	0.451238
N55	N	1.234756	-0.047943	0.496151
H56	H	1.056190	-0.405032	0.103486
C57	C	0.928618	0.221401	0.740200
N58	N	0.878164	0.265769	0.777851
H59	H	1.058535	-0.279783	0.179526
C60	C	1.184376	-0.003523	0.758613
N61	N	1.234831	-0.047893	0.803533
C62	C	0.314626	0.104895	0.172659
N63	N	0.275969	0.104247	0.244219
C64	C	1.051353	-0.663375	-0.208833
N65	N	1.050713	-0.697458	-0.277546
H66	H	1.166930	0.011773	0.254957
C67	C	0.928586	0.221392	0.530921
N68	N	0.878120	0.265757	0.486008
C69	C	0.798318	0.112975	-0.190500
N70	N	0.836968	0.113620	-0.262064
C71	C	0.928572	0.221394	0.223549
N72	N	0.878119	0.265771	0.178635
H73	H	1.166960	0.011782	0.562322
C74	C	0.314650	0.104906	-0.189830
N75	N	0.276008	0.104260	-0.261285
H76	H	1.054397	-0.502343	-0.197372
H77	H	0.784954	0.112756	0.147344
H78	H	1.054360	-0.502372	0.115794
H79	H	0.945985	0.206085	0.419844
H80	H	0.615714	0.109907	0.147577
H81	H	0.497210	0.107951	0.147742
H82	H	1.061410	-0.130485	-0.145870
H83	H	1.051529	-0.651639	0.128030
H84	H	1.056732	-0.377095	-0.121325
C85	C	1.058446	-0.291516	-0.157330
N86	N	1.057903	-0.325603	-0.226048
C87	C	0.510568	0.108179	-0.190107
N88	N	0.549217	0.108833	-0.261671
C89	C	1.061579	-0.118746	0.190993
N90	N	1.062213	-0.084667	0.259710
