data_functionalizedCrystal
_audit_creation_method	'MofGen! by Chris Wilmer'
_symmetry_space_group_name_H-M	'P1'
_symmetry_Int_Tables_number	1
_symmetry_cell_setting	triclinic
loop_
_symmetry_equiv_pos_as_xyz
  x,y,z
_cell_length_a	17.699083
_cell_length_b	23.532407
_cell_length_c	16.176319
_cell_angle_alpha	89.988536
_cell_angle_beta	89.998611
_cell_angle_gamma	83.065847
loop_
_atom_site_label
_atom_site_type_symbol
_atom_site_fract_x
_atom_site_fract_y
_atom_site_fract_z
O1	O	1.003713	0.072020	-0.068639
O2	O	1.503713	0.572020	0.431361
O3	O	0.783287	0.081390	-0.068667
O4	O	1.283287	0.581390	0.431333
O5	O	0.900147	-0.006208	-0.068637
O6	O	1.400147	0.493792	0.431363
O7	O	0.886853	0.159618	-0.068669
O8	O	1.386853	0.659618	0.431331
O9	O	0.900131	-0.006213	0.068856
O10	O	1.400131	0.493787	0.568856
O11	O	0.783271	0.081384	0.068826
O12	O	1.283271	0.581384	0.568826
O13	O	1.003697	0.072014	0.068854
O14	O	1.503697	0.572014	0.568854
Cu15	Cu	0.893483	0.076699	0.081394
Cu16	Cu	1.393483	0.576699	0.581394
Cu17	Cu	0.893502	0.076705	-0.081207
Cu18	Cu	1.393502	0.576705	0.418793
O19	O	0.886837	0.159612	0.068824
O20	O	1.386837	0.659612	0.568824
C21	C	0.755084	0.081051	0.000076
C22	C	1.255084	0.581051	0.500076
C23	C	0.671071	0.080044	0.000066
C24	C	1.171071	0.580044	0.500066
C25	C	0.622189	0.131462	0.000056
C26	C	1.122189	0.631462	0.500056
C27	C	0.543251	0.130512	0.000067
C28	C	1.043251	0.630512	0.500067
C29	C	0.513196	0.078144	0.000082
C30	C	1.013196	0.578144	0.500082
C31	C	0.562084	0.026722	0.000094
C32	C	1.062084	0.526722	0.500094
C33	C	0.641021	0.027672	0.000089
C34	C	1.141021	0.527672	0.500089
C35	C	0.243740	0.022888	0.000115
C36	C	0.743740	0.522888	0.500115
C37	C	0.164797	0.021942	0.000117
C38	C	0.664797	0.521942	0.500117
C39	C	0.145970	0.125728	0.000093
C40	C	0.645970	0.625728	0.500093
C41	C	0.224907	0.126678	0.000088
C42	C	0.724907	0.626678	0.500088
C43	C	0.273788	0.075257	0.000105
C44	C	0.773788	0.575257	0.500105
C45	C	0.359382	0.076287	0.000094
C46	C	0.859382	0.576287	0.500094
C47	C	0.427603	0.077113	0.000086
C48	C	0.927603	0.577113	0.500086
C49	C	0.899801	-0.027427	0.000111
C50	C	1.399801	0.472573	0.500111
C51	C	0.898783	-0.090647	0.000118
C52	C	1.398783	0.409353	0.500118
C53	C	0.961554	-0.489570	0.000080
C54	C	1.461554	0.010430	0.500080
C55	C	0.960609	-0.548973	0.000074
C56	C	1.460609	-0.048973	0.500074
O57	O	1.018799	-0.585550	0.000051
O58	O	1.518799	-0.085550	0.500051
N59	N	0.891136	-0.571799	0.000066
N60	N	1.391136	-0.071799	0.500066
C61	C	0.822604	-0.535218	0.000055
C62	C	1.322604	-0.035218	0.500055
O63	O	0.763424	-0.560088	0.000047
O64	O	1.263424	-0.060088	0.500047
C65	C	0.823550	-0.475816	0.000056
C66	C	1.323550	0.024184	0.500056
C67	C	0.893028	-0.452994	0.000073
C68	C	1.393028	0.047006	0.500073
C69	C	1.031026	-0.466747	0.000096
C70	C	1.531026	0.033253	0.500096
C71	C	1.031972	-0.407348	0.000104
C72	C	1.531972	0.092652	0.500104
C73	C	0.963445	-0.370772	0.000096
C74	C	1.463445	0.129228	0.500096
C75	C	0.893973	-0.393595	0.000080
C76	C	1.393973	0.106405	0.500080
C77	C	0.755019	-0.439237	0.000040
C78	C	1.255019	0.060763	0.500040
C79	C	0.755971	-0.379832	0.000039
C80	C	1.255971	0.120168	0.500039
C81	C	0.825448	-0.357009	0.000056
C82	C	1.325448	0.142991	0.500056
C83	C	0.826391	-0.297620	0.000081
C84	C	1.326391	0.202380	0.500081
N85	N	0.895864	-0.274795	0.000089
N86	N	1.395864	0.225205	0.500089
C87	C	0.964391	-0.311371	0.000097
C88	C	1.464391	0.188629	0.500097
C89	C	0.820622	-0.659966	0.000053
C90	C	1.320622	-0.159966	0.500053
C91	C	0.819674	-0.719367	0.000058
C92	C	1.319674	-0.219367	0.500058
C93	C	0.957680	-0.733118	0.000075
C94	C	1.457680	-0.233118	0.500075
C95	C	0.958626	-0.673716	0.000076
C96	C	1.458626	-0.173716	0.500076
C97	C	0.890095	-0.637141	0.000061
C98	C	1.390095	-0.137141	0.500061
C99	C	0.966371	-0.186628	0.000114
C100	C	1.466371	0.313372	0.500114
C101	C	0.967310	-0.127223	0.000125
C102	C	1.467310	0.372777	0.500125
C103	C	0.829305	-0.113478	0.000104
C104	C	1.329305	0.386522	0.500104
C105	C	0.828365	-0.172877	0.000097
C106	C	1.328365	0.327123	0.500097
C107	C	0.896904	-0.209452	0.000099
C108	C	1.396904	0.290548	0.500099
O109	O	0.768232	-0.261008	0.000100
O110	O	1.268232	0.238992	0.500100
O111	O	1.023560	-0.286493	0.000094
O112	O	1.523560	0.213507	0.500094
C113	C	1.031901	0.072353	0.000109
C114	C	1.531901	0.572353	0.500109
C115	C	1.115914	0.073360	0.000114
C116	C	1.615914	0.573360	0.500114
C117	C	0.887184	0.180832	0.000073
C118	C	1.387184	0.680832	0.500073
C119	C	0.888202	0.244052	0.000062
C120	C	1.388202	0.744052	0.500062
N121	N	0.893475	0.076694	0.195759
N122	N	1.393475	0.576694	0.695759
N123	N	0.893516	0.076706	-0.195573
N124	N	1.393516	0.576706	0.304427
C125	C	0.945236	0.037921	0.239037
C126	C	1.445236	0.537921	0.739037
C127	C	0.945240	0.037921	0.325584
C128	C	1.445240	0.537921	0.825584
C129	C	0.893486	0.076696	0.368852
C130	C	1.393486	0.576696	0.868852
C131	C	0.841719	0.115470	0.325568
C132	C	1.341719	0.615470	0.825568
C133	C	0.841713	0.115467	0.239023
C134	C	1.341713	0.615467	0.739023
C135	C	0.841745	0.115481	0.674597
C136	C	1.341745	0.615481	1.174597
C137	C	0.841758	0.115481	0.761148
C138	C	1.341758	0.615481	1.261148
C139	C	0.945273	0.037934	0.761158
C140	C	1.445273	0.537934	1.261158
C141	C	0.945266	0.037932	0.674612
C142	C	1.445266	0.537932	1.174612
C143	C	0.893497	0.076704	0.631336
C144	C	1.393497	0.576704	1.131336
C145	C	0.893493	0.076703	0.537492
C146	C	1.393493	0.576703	1.037492
C147	C	0.893493	0.076700	0.462695
C148	C	1.393493	0.576700	0.962695
H149	H	1.023889	-0.108645	0.000141
H150	H	1.523889	0.391355	0.500141
C151	C	0.784792	0.158123	0.373161
C152	C	1.284792	0.658123	0.873161
H153	H	0.792214	0.152576	0.430903
H154	H	1.292214	0.652576	0.930903
H155	H	0.734327	0.151986	0.358988
H156	H	1.234327	0.651986	0.858988
H157	H	0.792728	0.196125	0.358960
H158	H	1.292728	0.696125	0.858960
C159	C	0.131734	-0.035665	0.000136
C160	C	0.631734	0.464335	0.500136
H161	H	0.077721	-0.028864	0.000127
H162	H	0.577721	0.471136	0.500127
H163	H	0.148536	-0.056833	0.048089
H164	H	0.648536	0.443167	0.548089
H165	H	0.148539	-0.056831	-0.047811
H166	H	0.648539	0.443169	0.452189
C167	C	0.297499	-0.033673	0.000127
C168	C	0.797499	0.466327	0.500127
H169	H	0.268292	-0.064996	0.000128
H170	H	0.768292	0.435004	0.500128
H171	H	0.328685	-0.035464	0.048074
H172	H	0.828685	0.464536	0.548074
H173	H	0.328683	-0.035460	-0.047826
H174	H	0.828683	0.464540	0.452174
H175	H	0.249373	0.169322	0.000072
H176	H	0.749373	0.669322	0.500072
C177	C	0.753929	-0.073240	0.000090
C178	C	1.253929	0.426760	0.500090
H179	H	0.712413	-0.095336	0.000084
H180	H	1.212413	0.404664	0.500084
H181	H	0.751445	-0.049775	-0.047857
H182	H	1.251445	0.450225	0.452143
H183	H	0.751423	-0.049788	0.048043
H184	H	1.251423	0.450212	0.548043
H185	H	1.013478	-0.762909	0.000079
H186	H	1.513478	-0.262909	0.500079
H187	H	0.987387	0.006349	0.360820
H188	H	1.487387	0.506349	0.860820
H189	H	1.022182	-0.216401	0.000113
H190	H	1.522182	0.283599	0.500113
H191	H	0.987411	0.006359	0.639386
H192	H	1.487411	0.506359	1.139386
H193	H	0.106161	0.167598	0.000084
H194	H	0.606161	0.667598	0.500084
C195	C	1.002171	-0.004726	0.191446
C196	C	1.502171	0.495274	0.691446
H197	H	0.994761	0.000829	0.133703
H198	H	1.494761	0.500829	0.633703
H199	H	0.994247	-0.042729	0.205641
H200	H	1.494247	0.457271	0.705641
H201	H	1.052635	0.001420	0.205625
H202	H	1.552635	0.501420	0.705625
H203	H	0.799563	0.147039	0.203787
H204	H	1.299563	0.647039	0.703787
C205	C	0.655247	0.189067	0.000037
C206	C	1.155247	0.689067	0.500037
H207	H	0.709260	0.182270	0.000028
H208	H	1.209260	0.682270	0.500028
H209	H	0.638443	0.210232	0.047980
H210	H	1.138443	0.710232	0.547980
H211	H	0.638438	0.210233	-0.047920
H212	H	1.138438	0.710233	0.452080
H213	H	1.088547	-0.388773	0.000114
H214	H	1.588547	0.111227	0.500114
H215	H	0.987424	0.006362	0.796402
H216	H	1.487424	0.506362	1.296402
C217	C	0.743249	-0.744465	0.000047
C218	C	1.243249	-0.244465	0.500047
H219	H	0.702577	-0.714169	0.000037
H220	H	1.202577	-0.214169	0.500037
H221	H	0.740000	-0.767361	0.047989
H222	H	1.240000	-0.267361	0.547989
H223	H	0.740016	-0.767341	-0.047911
H224	H	1.240016	-0.267341	0.452089
H225	H	0.799610	0.147058	0.796376
H226	H	1.299610	0.647058	1.296376
H227	H	0.537607	-0.015917	0.000117
H228	H	1.037607	0.484083	0.500117
H229	H	0.680820	-0.014197	0.000096
H230	H	1.180820	0.485803	0.500096
C231	C	0.489481	0.187070	0.000048
C232	C	0.989481	0.687070	0.500048
H233	H	0.438164	0.179006	0.000061
H234	H	0.938164	0.679006	0.500061
H235	H	0.498548	0.208547	-0.047908
H236	H	0.998548	0.708547	0.452092
H237	H	0.498550	0.208550	0.047992
H238	H	0.998550	0.708550	0.547992
C239	C	1.106413	-0.506973	0.000111
C240	C	1.606413	-0.006973	0.500111
H241	H	1.147917	-0.484864	0.000127
H242	H	1.647917	0.015136	0.500127
H243	H	1.108932	-0.530429	-0.047832
H244	H	1.608932	-0.030429	0.452168
H245	H	1.108907	-0.530433	0.048068
H246	H	1.608907	-0.030433	0.548068
H247	H	0.698442	-0.457808	0.000021
H248	H	1.198442	0.042192	0.500021
C249	C	1.035051	-0.648617	0.000086
C250	C	1.535051	-0.148617	0.500086
H251	H	1.075723	-0.678913	0.000087
H252	H	1.575723	-0.178913	0.500087
H253	H	1.038287	-0.625735	0.048032
H254	H	1.538287	-0.125735	0.548032
H255	H	1.038297	-0.625727	-0.047868
H256	H	1.538297	-0.125727	0.452132
C257	C	0.745232	-0.619738	0.000052
C258	C	1.245232	-0.119738	0.500052
H259	H	0.703725	-0.641844	0.000055
H260	H	1.203725	-0.141844	0.500055
H261	H	0.742729	-0.596270	-0.047892
H262	H	1.242729	-0.096270	0.452108
H263	H	0.742726	-0.596289	0.048008
H264	H	1.242726	-0.096289	0.548008
C265	C	0.784809	0.158133	0.627004
C266	C	1.284809	0.658133	1.127004
H267	H	0.753995	0.181229	0.665170
H268	H	1.253995	0.681229	1.165170
H269	H	0.753454	0.137678	0.593254
H270	H	1.253454	0.637678	1.093254
H271	H	0.811855	0.181816	0.593232
H272	H	1.311855	0.681816	1.093232
H273	H	0.700163	-0.350054	0.000026
H274	H	1.200163	0.149946	0.500026
H275	H	0.771791	-0.191460	0.000106
H276	H	1.271791	0.308540	0.500106
