data_functionalizedCrystal
_audit_creation_method	'MofGen! by Chris Wilmer'
_symmetry_space_group_name_H-M	'P1'
_symmetry_Int_Tables_number	1
_symmetry_cell_setting	triclinic
loop_
_symmetry_equiv_pos_as_xyz
  x,y,z
_cell_length_a	13.101039
_cell_length_b	9.065218
_cell_length_c	9.065218
_cell_angle_alpha	85.015885
_cell_angle_beta	93.413732
_cell_angle_gamma	86.590207
loop_
_atom_site_label
_atom_site_type_symbol
_atom_site_fract_x
_atom_site_fract_y
_atom_site_fract_z
O1	O	-0.085213	-1.952370	-0.224381
O2	O	-0.085214	-1.523085	-0.242128
O3	O	-0.085211	-1.746601	-0.018612
O4	O	-0.085216	-1.728854	-0.447897
O5	O	0.085219	-1.762645	-0.002555
O6	O	0.085216	-1.539129	-0.226071
O7	O	0.085217	-1.968414	-0.208325
Zn8	Zn	0.112276	-1.756319	-0.214649
Zn9	Zn	-0.112273	-1.735180	-0.235804
O10	O	0.085214	-1.744898	-0.431840
C11	C	0.000001	-1.476120	-0.232394
C12	C	0.000000	-1.312277	-0.227294
N13	N	-0.265522	-1.720755	-0.250231
C14	C	-0.000000	-2.015378	-0.218059
C15	C	-0.000006	-2.179221	-0.223159
C16	C	-0.474565	-1.701115	-0.269860
C17	C	-0.525439	-1.790391	-0.180586
C18	C	-0.641758	-1.779463	-0.191507
C19	C	-0.358235	-1.712041	-0.258940
N20	N	0.265525	-1.770756	-0.200210
C21	C	0.000002	-1.752917	0.044403
C22	C	-0.000003	-1.747817	0.208245
C23	C	-0.000001	-1.738581	-0.494856
C24	C	-0.000003	-1.743681	-0.658699
H25	H	-0.481636	-1.875029	-0.095952
N26	N	-0.529521	-1.594950	-0.376021
N27	N	-0.625304	-1.586116	-0.384847
H28	H	-0.664129	-1.511136	-0.459819
