data_functionalizedCrystal
_audit_creation_method	'MofGen! by Chris Wilmer'
_symmetry_space_group_name_H-M	'P1'
_symmetry_Int_Tables_number	1
_symmetry_cell_setting	triclinic
loop_
_symmetry_equiv_pos_as_xyz
  x,y,z
_cell_length_a	17.640112
_cell_length_b	13.897448
_cell_length_c	17.639306
_cell_angle_alpha	101.185321
_cell_angle_beta	87.804122
_cell_angle_gamma	101.242525
loop_
_atom_site_label
_atom_site_type_symbol
_atom_site_fract_x
_atom_site_fract_y
_atom_site_fract_z
Zn1	Zn	1.247749	-0.123982	-0.195067
Zn2	Zn	1.222014	-0.260324	-0.068092
Zn3	Zn	1.095102	-0.136711	-0.093720
Zn4	Zn	1.120730	-0.322923	-0.220664
O5	O	1.171399	-0.210985	-0.144386
O6	O	1.350607	-0.110543	-0.156786
O7	O	1.183683	-0.223055	0.034774
O8	O	1.115396	-0.000032	-0.107176
O9	O	1.331699	-0.210713	-0.063498
O10	O	1.227545	0.009319	-0.181636
O11	O	1.090441	-0.132237	0.015946
O12	O	0.992230	-0.192937	-0.131997
O13	O	1.159075	-0.317404	-0.323535
O14	O	1.011059	-0.329746	-0.225262
O15	O	1.252396	-0.171243	-0.304729
O16	O	1.208533	-0.403617	-0.088319
O17	O	1.134120	-0.449608	-0.200413
C18	C	0.974090	-0.269516	-0.184189
C19	C	0.889684	-0.294583	-0.201234
C20	C	1.171339	-0.461611	-0.144375
C21	C	1.171388	-0.568815	-0.144382
C22	C	0.563038	-0.020539	-0.014897
C23	C	0.483727	-0.044115	-0.030924
C24	C	0.503354	-0.186711	-0.127875
C25	C	0.582668	-0.163145	-0.111858
C26	C	0.612503	-0.080058	-0.055368
C27	C	0.632134	-0.222663	-0.152329
C28	C	0.711440	-0.199102	-0.136310
C29	C	0.741281	-0.116021	-0.079821
C30	C	0.691810	-0.056496	-0.039349
C31	C	0.602296	-0.305754	-0.208815
C32	C	0.651762	-0.365272	-0.249286
C33	C	0.731071	-0.341707	-0.233271
C34	C	0.760912	-0.258626	-0.176782
C35	C	0.780542	-0.401231	-0.273743
C36	C	0.859849	-0.377669	-0.257725
C37	C	0.840218	-0.235064	-0.160764
C38	C	1.171477	-0.765095	-0.144413
C39	C	1.171426	-0.655872	-0.144399
C40	C	1.369478	-0.152225	-0.104428
C41	C	1.453888	-0.127186	-0.087401
C42	C	1.211465	-0.249886	-0.342456
C43	C	1.228538	-0.266464	-0.426861
C44	C	1.171483	0.040623	-0.144409
C45	C	1.171519	0.147844	-0.144419
C46	C	1.041986	-0.084600	-0.753494
C47	C	1.058047	-0.100192	-0.832802
C48	C	1.155129	-0.194751	-0.813179
C49	C	1.139080	-0.179163	-0.733866
C50	C	1.082507	-0.124087	-0.704031
C51	C	1.179600	-0.218650	-0.684403
C52	C	1.163548	-0.203067	-0.605099
C53	C	1.106977	-0.147997	-0.575257
C54	C	1.066455	-0.108504	-0.624726
C55	C	1.236169	-0.273731	-0.714241
C56	C	1.276689	-0.313218	-0.664778
C57	C	1.260641	-0.297630	-0.585471
C58	C	1.204070	-0.242559	-0.555629
C59	C	1.301163	-0.337122	-0.536002
C60	C	1.285111	-0.321539	-0.456697
C61	C	1.188018	-0.226976	-0.476325
C62	C	1.131532	-0.172152	0.052922
C63	C	1.114606	-0.155259	0.137357
H64	H	0.864513	-0.167395	-0.114775
F65	F	0.471591	-0.275143	-0.187986
F66	F	1.215333	-0.253369	-0.844941
H67	H	0.627459	-0.432924	-0.295278
F68	F	1.014933	-0.058131	-0.885440
F69	F	1.361361	-0.395747	-0.567767
H70	H	1.249238	-0.286414	-0.778817
F71	F	1.336893	-0.371836	-0.696541
H72	H	0.537719	-0.324935	-0.221855
H73	H	1.141959	-0.182116	-0.452030
H74	H	1.093903	-0.135318	-0.510683
H75	H	0.587333	0.047130	0.031092
F76	F	0.825686	-0.090948	-0.062769
F77	F	0.723567	0.031939	0.020769
F78	F	0.431083	0.019235	0.012159
F79	F	0.748777	-0.489667	-0.333849
H80	H	0.995927	-0.039740	-0.729199
H81	H	0.900125	-0.426135	-0.290681
F82	F	1.006251	-0.049875	-0.592967
F83	F	1.328234	-0.363570	-0.404053
