data_functionalizedCrystal
_audit_creation_method	'MofGen! by Chris Wilmer'
_symmetry_space_group_name_H-M	'P1'
_symmetry_Int_Tables_number	1
_symmetry_cell_setting	triclinic
loop_
_symmetry_equiv_pos_as_xyz
  x,y,z
_cell_length_a	16.956984
_cell_length_b	11.792254
_cell_length_c	15.455313
_cell_angle_alpha	92.683372
_cell_angle_beta	87.518126
_cell_angle_gamma	80.126008
loop_
_atom_site_label
_atom_site_type_symbol
_atom_site_fract_x
_atom_site_fract_y
_atom_site_fract_z
O1	O	1.061716	0.041715	-0.072135
O2	O	0.829732	0.081546	-0.072136
O3	O	0.951348	-0.104116	-0.072129
O4	O	0.940100	0.227377	-0.072142
O5	O	0.944394	-0.093540	0.072132
O6	O	0.822777	0.092122	0.072126
O7	O	1.054762	0.052291	0.072127
Cu8	Cu	0.938135	0.073172	0.085299
Cu9	Cu	0.946359	0.060665	-0.085308
O10	O	0.933146	0.237953	0.072120
C11	C	0.796556	0.088874	-0.000005
C12	C	0.708061	0.094938	-0.000005
C13	C	0.675535	-0.006451	-0.000000
C14	C	0.592385	-0.000747	-0.000006
C15	C	0.541762	0.106347	-0.000012
C16	C	0.574294	0.207743	-0.000020
C17	C	0.657443	0.202037	-0.000020
C18	C	0.292113	0.134589	-0.000019
C19	C	0.208959	0.140287	-0.000017
C20	C	0.227056	-0.068203	-0.000005
C21	C	0.310206	-0.073899	0.000001
C22	C	0.342730	0.027496	-0.000012
N23	N	0.456769	0.112180	-0.000016
N24	N	0.427722	0.021661	-0.000014
C25	C	0.947162	-0.141046	0.000001
C26	C	0.945042	-0.266841	0.000001
C27	C	0.943318	-0.369001	-0.000003
C28	C	0.941164	-0.497167	-0.000011
C29	C	1.087938	0.044963	-0.000006
C30	C	1.176433	0.038899	-0.000011
C31	C	0.937332	0.274883	-0.000012
C32	C	0.939453	0.400678	-0.000017
N33	N	0.932355	0.081968	0.205294
N34	N	0.952145	0.051860	-0.205303
C35	C	0.984040	0.003118	0.250691
C36	C	0.979677	0.009779	0.341498
C37	C	0.923633	0.095297	0.386907
C38	C	0.871942	0.174151	0.341504
C39	C	0.876302	0.167483	0.250698
C40	C	0.904814	0.124046	0.658488
C41	C	0.900460	0.130710	0.749300
C42	C	1.008194	-0.033664	0.749288
C43	C	1.012553	-0.040320	0.658480
C44	C	0.960859	0.038530	0.613085
N45	N	0.919173	0.102110	0.479727
N46	N	0.965315	0.031711	0.520267
H47	H	0.200566	-0.150754	-0.000004
H48	H	0.826305	0.243778	0.378481
H49	H	1.029681	-0.066515	0.213725
O50	O	0.159898	0.244415	-0.000068
C51	C	0.206433	0.332689	-0.000061
H52	H	0.269674	0.296062	-0.027370
H53	H	0.178097	0.404163	-0.041953
H54	H	0.209156	0.369221	0.069144
H55	H	0.351418	-0.161106	0.000009
O56	O	0.826175	0.244233	0.206635
C57	C	0.838536	0.356968	0.228821
H58	H	0.901154	0.353424	0.253767
H59	H	0.832480	0.410372	0.169097
H60	H	0.791971	0.398269	0.281536
H61	H	0.862725	0.188251	0.621534
H62	H	0.854819	0.200353	0.786268
H63	H	0.318584	0.217151	-0.000035
H64	H	1.021763	-0.054427	0.378460
O65	O	1.067015	-0.123498	0.614507
C66	C	1.111713	-0.191650	0.674049
H67	H	1.075923	-0.185142	0.738788
H68	H	1.124741	-0.285309	0.647820
H69	H	1.170618	-0.159609	0.683687
H70	H	0.683923	0.284599	-0.000020
O71	O	0.724595	-0.110581	-0.000034
C72	C	0.678051	-0.198842	-0.000012
H73	H	0.617444	-0.166213	-0.027323
H74	H	0.710419	-0.276467	-0.041895
H75	H	0.668653	-0.225218	0.069198
H76	H	0.533070	0.294940	-0.000030
H77	H	0.565907	-0.083308	-0.000003
H78	H	1.050280	-0.097861	0.786257
