data_functionalizedCrystal
_audit_creation_method	'MofGen! by Chris Wilmer'
_symmetry_space_group_name_H-M	'P1'
_symmetry_Int_Tables_number	1
_symmetry_cell_setting	triclinic
loop_
_symmetry_equiv_pos_as_xyz
  x,y,z
_cell_length_a	14.908571
_cell_length_b	14.908520
_cell_length_c	14.908308
_cell_angle_alpha	96.360765
_cell_angle_beta	90.175053
_cell_angle_gamma	90.205961
loop_
_atom_site_label
_atom_site_type_symbol
_atom_site_fract_x
_atom_site_fract_y
_atom_site_fract_z
Zn1	Zn	1.316651	-0.470613	-0.613065
Zn2	Zn	1.316549	-0.613252	-0.470429
Zn3	Zn	1.176020	-0.453291	-0.453125
Zn4	Zn	1.157642	-0.612180	-0.612023
O5	O	1.241715	-0.537334	-0.537161
O6	O	1.441995	-0.497231	-0.601822
O7	O	1.305556	-0.585232	-0.341941
O8	O	1.202409	-0.329399	-0.467536
O9	O	1.441920	-0.602028	-0.497029
O10	O	1.305730	-0.342124	-0.585043
O11	O	1.202310	-0.467710	-0.329228
O12	O	1.048225	-0.466671	-0.466525
O13	O	1.171086	-0.600202	-0.738354
O14	O	1.034722	-0.583406	-0.583267
O15	O	1.287909	-0.496192	-0.739120
O16	O	1.287736	-0.739300	-0.496018
O17	O	1.170987	-0.738513	-0.600046
C18	C	1.008970	-0.523043	-0.522906
C19	C	0.909397	-0.516953	-0.516830
C20	C	1.227379	-0.771629	-0.549818
C21	C	1.221326	-0.871868	-0.555268
C22	C	0.708277	-0.627234	-0.626831
C23	C	0.614720	-0.621514	-0.621125
C24	C	0.628723	-0.499789	-0.499719
C25	C	0.722281	-0.505509	-0.505424
C26	C	0.762054	-0.569235	-0.568981
C27	C	0.855613	-0.574958	-0.574682
C28	C	0.869615	-0.453230	-0.453280
C29	C	0.776058	-0.447510	-0.447575
C30	C	1.331634	-1.060998	-0.457284
C31	C	1.325950	-1.155181	-0.462402
C32	C	1.204279	-1.154420	-0.570626
C33	C	1.209963	-1.060237	-0.565508
C34	C	1.273642	-1.013529	-0.508834
C35	C	1.279321	-0.919343	-0.503712
C36	C	1.157655	-0.918584	-0.611940
C37	C	1.151970	-1.012768	-0.617058
C38	C	1.475370	-0.551681	-0.551472
C39	C	1.574939	-0.557795	-0.557571
C40	C	1.227459	-0.550010	-0.772372
C41	C	1.221383	-0.555411	-0.872606
C42	C	1.256131	-0.302127	-0.524476
C43	C	1.262274	-0.201896	-0.519070
C44	C	1.331614	-0.457236	-1.061752
C45	C	1.325908	-0.462308	-1.155930
C46	C	1.204264	-0.570623	-1.155141
C47	C	1.209969	-0.565551	-1.060963
C48	C	1.273647	-0.508856	-1.014272
C49	C	1.279356	-0.503789	-0.920093
C50	C	1.157708	-0.612099	-0.919305
C51	C	1.152002	-0.617171	-1.013483
C52	C	1.255972	-0.524646	-0.302864
C53	C	1.262236	-0.519001	-0.202628
H54	H	0.740661	-0.679126	-0.678577
H55	H	1.152440	-1.192467	-0.616773
C56	C	1.081969	-0.679548	-1.064841
C57	C	0.981363	-0.665267	-1.045262
C58	C	0.911333	-0.727654	-1.096615
C59	C	0.941909	-0.804322	-1.167547
C60	C	1.042520	-0.818606	-1.187130
C61	C	1.112549	-0.756219	-1.135777
H62	H	0.958725	-0.608510	-0.992750
H63	H	0.836855	-0.717080	-1.082118
H64	H	0.890069	-0.850505	-1.205562
H65	H	1.065158	-0.875364	-1.239641
H66	H	1.187028	-0.766794	-1.150273
H67	H	1.331169	-0.881314	-0.457563
H68	H	0.887995	-0.626848	-0.626432
C69	C	1.389740	-1.207398	-0.405694
C70	C	1.351367	-1.266013	-0.336009
C71	C	1.415161	-1.318230	-0.279299
C72	C	1.517328	-1.311832	-0.292274
C73	C	1.555706	-1.253215	-0.361961
C74	C	1.491912	-1.200998	-0.418672
H75	H	1.275732	-1.270751	-0.326401
H76	H	1.386750	-1.361622	-0.227711
H77	H	1.564552	-1.350486	-0.250293
H78	H	1.631341	-1.248476	-0.371569
H79	H	1.520323	-1.157605	-0.470259
H80	H	1.100127	-1.050810	-0.663202
H81	H	1.383467	-0.411077	-1.023736
H82	H	1.110431	-0.879924	-0.653913
H83	H	0.913411	-0.406004	-0.406173
H84	H	0.570938	-0.668742	-0.668234
C85	C	1.401673	-1.009611	-0.394943
C86	C	1.399876	-1.016632	-0.292684
C87	C	1.469915	-0.965244	-0.230342
C88	C	1.541751	-0.906836	-0.270259
C89	C	1.543551	-0.899813	-0.372524
C90	C	1.473512	-0.951200	-0.434866
H91	H	1.346696	-1.059871	-0.263131
H92	H	1.468583	-0.970444	-0.154639
H93	H	1.593599	-0.868796	-0.224110
H94	H	1.596731	-0.856573	-0.402077
H95	H	1.474844	-0.946000	-0.510569
C96	C	1.134238	-0.633014	-1.206493
C97	C	1.033630	-0.618752	-1.186916
C98	C	0.963612	-0.681160	-1.238260
C99	C	0.994202	-0.757831	-1.309183
C100	C	1.094815	-0.772096	-1.328764
C101	C	1.164833	-0.709688	-1.277419
H102	H	1.010981	-0.561993	-1.134412
H103	H	0.889131	-0.670599	-1.223765
H104	H	0.942370	-0.804029	-1.347191
H105	H	1.117464	-0.828856	-1.381268
H106	H	1.239313	-0.720249	-1.291915
C107	C	1.093920	-0.668876	-0.867084
C108	C	1.029899	-0.621989	-0.795936
C109	C	0.966108	-0.678762	-0.743720
C110	C	0.966338	-0.782423	-0.762652
C111	C	1.030361	-0.829315	-0.833803
C112	C	1.094152	-0.772541	-0.886019
H113	H	1.029727	-0.545248	-0.781918
H114	H	0.918714	-0.644049	-0.691049
H115	H	0.919116	-0.824450	-0.723998
H116	H	1.030533	-0.906055	-0.847821
H117	H	1.141547	-0.807255	-0.938690
H118	H	1.331207	-0.457627	-0.882079
H119	H	0.596323	-0.447902	-0.447979
H120	H	0.743661	-0.395624	-0.395831
H121	H	1.373109	-0.420271	-1.194585
