data_functionalizedCrystal
_audit_creation_method	'MofGen! by Chris Wilmer'
_symmetry_space_group_name_H-M	'P1'
_symmetry_Int_Tables_number	1
_symmetry_cell_setting	triclinic
loop_
_symmetry_equiv_pos_as_xyz
  x,y,z
_cell_length_a	14.971506
_cell_length_b	14.519731
_cell_length_c	12.996460
_cell_angle_alpha	89.998729
_cell_angle_beta	89.993480
_cell_angle_gamma	83.655621
loop_
_atom_site_label
_atom_site_type_symbol
_atom_site_fract_x
_atom_site_fract_y
_atom_site_fract_z
O1	O	1.187013	0.120263	-0.085576
O2	O	0.926624	0.134636	-0.085577
O3	O	1.063713	-0.006791	-0.085567
O4	O	1.049925	0.261690	-0.085586
O5	O	1.063695	-0.006783	0.085566
O6	O	0.926607	0.134644	0.085557
O7	O	1.186995	0.120271	0.085557
Cu8	Cu	1.056799	0.127458	0.101183
Cu9	Cu	1.056820	0.127449	-0.101203
O10	O	1.049907	0.261698	0.085548
C11	C	0.893291	0.133994	-0.000010
C12	C	0.793993	0.132057	-0.000010
C13	C	0.355759	0.207754	-0.000026
C14	C	0.449060	0.209566	-0.000031
C15	C	0.506227	0.126473	-0.000020
C16	C	0.470089	0.041561	-0.000016
C17	C	0.376789	0.039750	-0.000019
C18	C	0.664554	0.045342	-0.000007
C19	C	0.757861	0.047153	-0.000003
C20	C	0.736826	0.215158	-0.000020
C21	C	0.643526	0.213347	-0.000022
C22	C	0.607394	0.128435	-0.000016
C23	C	1.063058	-0.041146	-0.000000
C24	C	1.061122	-0.143526	0.000000
C25	C	1.059549	-0.226669	-0.000002
C26	C	1.057583	-0.330977	-0.000010
C27	C	1.056023	-0.414115	-0.000017
C28	C	1.054058	-0.518429	-0.000022
C29	C	1.220329	0.120913	-0.000012
C30	C	1.319626	0.122849	-0.000019
C31	C	1.050562	0.296053	-0.000022
C32	C	1.052498	0.398432	-0.000029
N33	N	1.056791	0.127465	0.243530
N34	N	1.056836	0.127435	-0.243550
C35	C	1.056795	0.127467	0.336636
C36	C	1.056803	0.127461	0.453441
C37	C	1.056815	0.127450	0.546539
C38	C	1.056824	0.127445	0.663352
H39	H	0.478475	0.278704	-0.000046
H40	H	0.347372	-0.029388	-0.000014
Cl41	Cl	0.541956	-0.062900	-0.000005
H42	H	0.309219	0.275419	-0.000027
H43	H	0.596982	0.281009	-0.000024
H44	H	0.635140	-0.023802	-0.000007
H45	H	0.766248	0.284296	-0.000024
H46	H	0.804404	-0.020510	-0.000003
