data_functionalizedCrystal
_audit_creation_method	'MofGen! by Chris Wilmer'
_symmetry_space_group_name_H-M	'P1'
_symmetry_Int_Tables_number	1
_symmetry_cell_setting	triclinic
loop_
_symmetry_equiv_pos_as_xyz
  x,y,z
_cell_length_a	14.971506
_cell_length_b	13.262508
_cell_length_c	13.448316
_cell_angle_alpha	74.083881
_cell_angle_beta	90.008816
_cell_angle_gamma	84.044748
loop_
_atom_site_label
_atom_site_type_symbol
_atom_site_fract_x
_atom_site_fract_y
_atom_site_fract_z
O1	O	1.187319	0.136876	0.045677
O2	O	0.926967	0.153233	0.041253
O3	O	1.063698	-0.007727	0.084782
O4	O	1.050588	0.297836	0.002148
O5	O	1.063675	-0.007723	-0.080602
O6	O	0.926944	0.153238	-0.124132
O7	O	1.187296	0.136880	-0.119708
Cu8	Cu	1.057118	0.145059	-0.137021
Cu9	Cu	1.057145	0.145054	0.058566
O10	O	1.050565	0.297840	-0.163237
C11	C	0.893629	0.152500	-0.041240
C12	C	0.794327	0.150296	-0.040644
C13	C	0.356284	0.236448	-0.063932
C14	C	0.449590	0.238510	-0.064486
C15	C	0.506547	0.143940	-0.038915
C16	C	0.470194	0.047301	-0.012779
C17	C	0.376890	0.045240	-0.012219
C18	C	0.664669	0.051604	-0.013951
C19	C	0.757980	0.053665	-0.014513
C20	C	0.737369	0.244874	-0.066218
C21	C	0.644065	0.242813	-0.065658
C22	C	0.607718	0.146174	-0.039524
C23	C	1.062954	-0.046829	0.012667
C24	C	1.060759	-0.163349	0.044184
C25	C	1.054519	-0.491801	-0.227591
C26	C	1.056574	-0.382324	-0.257204
C27	C	1.057620	-0.327575	-0.181859
C28	C	1.056612	-0.382313	-0.076897
C29	C	1.054550	-0.491800	-0.047281
C30	C	1.057651	-0.327574	-0.001549
C31	C	1.056643	-0.382312	0.103413
C32	C	1.054582	-0.491787	0.133024
C33	C	1.053535	-0.546537	0.057680
C34	C	1.059713	-0.218087	-0.031165
C35	C	1.059744	-0.218086	0.149145
C36	C	1.057690	-0.327562	0.178758
C37	C	1.220634	0.137613	-0.037212
C38	C	1.319936	0.139817	-0.037802
C39	C	1.051309	0.336943	-0.091120
C40	C	1.053504	0.453462	-0.122630
N41	N	1.057105	0.145062	-0.274586
C42	C	1.117718	0.073799	-0.732532
C43	C	1.117711	0.073806	-0.628431
C44	C	1.057145	0.145053	-0.595665
C45	C	0.996589	0.216305	-0.667008
C46	C	0.996601	0.216302	-0.771109
C47	C	0.996566	0.216304	-0.450028
C48	C	0.996552	0.216306	-0.345920
C49	C	1.117675	0.073808	-0.307350
C50	C	1.117688	0.073805	-0.411451
C51	C	1.057130	0.145056	-0.482787
N52	N	1.057165	0.145043	0.196133
H53	H	0.347298	-0.033447	0.009061
H54	H	0.947294	0.274317	-0.829191
H55	H	0.766966	0.323562	-0.087498
H56	H	0.597692	0.319821	-0.086486
H57	H	0.947278	0.274321	-0.640326
H58	H	1.057404	-0.337766	-0.342664
H59	H	1.060527	-0.173529	-0.116627
H60	H	0.635080	-0.027090	0.007335
H61	H	1.059292	-0.238434	-0.205977
H62	H	0.309915	0.313459	-0.084763
H63	H	0.804353	-0.023342	0.006317
H64	H	0.516576	-0.029699	0.008046
H65	H	1.053660	-0.536387	-0.288925
H66	H	0.479178	0.317197	-0.085755
H67	H	1.051866	-0.635682	0.081786
H68	H	1.053752	-0.536351	0.218491
H69	H	1.056868	-0.372146	0.264220
H70	H	1.167001	0.015786	-0.438126
H71	H	1.060590	-0.173508	0.210497
H72	H	1.167034	0.015777	-0.759200
H73	H	1.167019	0.015795	-0.570350
H74	H	0.947234	0.274324	-0.319249
H75	H	0.947256	0.274327	-0.508110
H76	H	1.166983	0.015794	-0.249262
