data_functionalizedCrystal
_audit_creation_method	'MofGen! by Chris Wilmer'
_symmetry_space_group_name_H-M	'P1'
_symmetry_Int_Tables_number	1
_symmetry_cell_setting	triclinic
loop_
_symmetry_equiv_pos_as_xyz
  x,y,z
_cell_length_a	11.792241
_cell_length_b	23.532407
_cell_length_c	10.268362
_cell_angle_alpha	89.990068
_cell_angle_beta	89.999626
_cell_angle_gamma	83.521047
loop_
_atom_site_label
_atom_site_type_symbol
_atom_site_fract_x
_atom_site_fract_y
_atom_site_fract_z
O1	O	1.505071	0.078055	-0.108188
O2	O	2.005071	0.578055	0.391812
O3	O	1.174541	0.086099	-0.108220
O4	O	1.674541	0.586099	0.391780
O5	O	1.349773	-0.000795	-0.108179
O6	O	1.849773	0.499205	0.391821
O7	O	1.329839	0.164950	-0.108229
O8	O	1.829839	0.664950	0.391771
O9	O	1.349758	-0.000799	0.108421
O10	O	1.849758	0.499201	0.608421
O11	O	1.174526	0.086096	0.108380
O12	O	1.674526	0.586096	0.608380
O13	O	1.505056	0.078051	0.108412
O14	O	2.005056	0.578051	0.608412
Cu15	Cu	1.339790	0.082073	0.128174
Cu16	Cu	1.839790	0.582073	0.628174
Cu17	Cu	1.339808	0.082078	-0.127982
Cu18	Cu	1.839808	0.582078	0.372018
O19	O	1.329824	0.164946	0.108372
O20	O	1.829824	0.664946	0.608372
C21	C	1.132254	0.085592	0.000076
C22	C	1.632254	0.585592	0.500076
C23	C	1.006276	0.084080	0.000065
C24	C	1.506276	0.584080	0.500065
C25	C	0.775630	0.081299	0.000104
C26	C	1.275630	0.581299	0.500104
C27	C	0.903978	0.082844	0.000082
C28	C	1.403978	0.582844	0.500082
C29	C	1.349258	-0.022016	0.000124
C30	C	1.849258	0.477984	0.500124
C31	C	1.347732	-0.085242	0.000134
C32	C	1.847732	0.414758	0.500134
C33	C	1.441858	-0.483788	0.000072
C34	C	1.941858	0.016212	0.500072
C35	C	1.440440	-0.543196	0.000062
C36	C	1.940440	-0.043196	0.500062
O37	O	1.527696	-0.579424	0.000022
O38	O	2.027696	-0.079424	0.500022
N39	N	1.336265	-0.566440	0.000053
N40	N	1.836265	-0.066440	0.500053
C41	C	1.233500	-0.530271	0.000040
C42	C	1.733500	-0.030271	0.500040
O43	O	1.144761	-0.555497	0.000030
O44	O	1.644761	-0.055497	0.500030
C45	C	1.234919	-0.470864	0.000041
C46	C	1.734919	0.029136	0.500041
C47	C	1.339102	-0.447624	0.000063
C48	C	1.839102	0.052376	0.500063
C49	C	1.546032	-0.460547	0.000093
C50	C	2.046032	0.039453	0.500093
C51	C	1.547449	-0.401142	0.000105
C52	C	2.047449	0.098858	0.500105
C53	C	1.444693	-0.364979	0.000097
C54	C	1.944693	0.135021	0.500097
C55	C	1.340519	-0.388219	0.000076
C56	C	1.840519	0.111781	0.500076
C57	C	1.132156	-0.434696	0.000019
C58	C	1.632156	0.065304	0.500019
C59	C	1.133584	-0.375285	0.000019
C60	C	1.633584	0.124715	0.500019
C61	C	1.237766	-0.352045	0.000041
C62	C	1.737766	0.147955	0.500041
C63	C	1.239180	-0.292651	0.000080
C64	C	1.739180	0.207349	0.500080
N65	N	1.343355	-0.269407	0.000089
N66	N	1.843355	0.230593	0.500089
C67	C	1.446112	-0.305571	0.000097
C68	C	1.946112	0.194429	0.500097
C69	C	1.230528	-0.655031	0.000036
C70	C	1.730528	-0.155031	0.500036
C71	C	1.229108	-0.714438	0.000045
C72	C	1.729108	-0.214438	0.500045
C73	C	1.436049	-0.727359	0.000064
C74	C	1.936049	-0.227359	0.500064
C75	C	1.437468	-0.667951	0.000065
C76	C	1.937468	-0.167951	0.500065
C77	C	1.334704	-0.631788	0.000046
C78	C	1.834704	-0.131788	0.500046
C79	C	1.449080	-0.180817	0.000125
C80	C	1.949080	0.319183	0.500125
C81	C	1.450489	-0.121406	0.000142
C82	C	1.950489	0.378594	0.500142
C83	C	1.243549	-0.108491	0.000117
C84	C	1.743549	0.391509	0.500117
C85	C	1.242140	-0.167896	0.000106
C86	C	1.742140	0.332104	0.500106
C87	C	1.344915	-0.204058	0.000105
C88	C	1.844915	0.295942	0.500105
O89	O	1.151970	-0.256388	0.000114
O90	O	1.651970	0.243612	0.500114
O91	O	1.534837	-0.280337	0.000090
O92	O	2.034837	0.219663	0.500090
C93	C	1.547343	0.078558	0.000113
C94	C	2.047343	0.578558	0.500113
C95	C	1.673321	0.080071	0.000115
C96	C	2.173321	0.580071	0.500115
C97	C	1.330339	0.186167	0.000065
C98	C	1.830339	0.686167	0.500065
C99	C	1.331865	0.249393	0.000047
C100	C	1.831865	0.749393	0.500047
N101	N	1.339786	0.082070	0.308340
N102	N	1.839786	0.582070	0.808340
N103	N	1.339821	0.082076	-0.308148
N104	N	1.839821	0.582076	0.191852
C105	C	1.339802	0.082076	0.574010
C106	C	1.839802	0.582076	1.074010
C107	C	1.339789	0.082074	0.426172
C108	C	1.839789	0.582074	0.926172
H109	H	1.535330	-0.102488	0.000164
H110	H	2.035330	0.397512	0.500164
H111	H	1.632285	-0.382226	0.000118
H112	H	2.132285	0.117774	0.500118
H113	H	1.629714	-0.489986	0.000095
H114	H	2.129714	0.010014	0.500095
C115	C	1.552067	-0.642392	0.000077
C116	C	2.052067	-0.142392	0.500077
H117	H	1.613056	-0.672444	0.000075
H118	H	2.113056	-0.172444	0.500075
H119	H	1.556923	-0.619490	0.075607
H120	H	2.056923	-0.119490	0.575607
H121	H	1.556931	-0.619484	-0.075469
H122	H	2.056931	-0.119484	0.424531
C123	C	1.130523	-0.068706	0.000099
C124	C	1.630523	0.431294	0.500099
H125	H	1.068269	-0.091052	0.000092
H126	H	1.568269	0.408948	0.500092
H127	H	1.126795	-0.045257	-0.075434
H128	H	1.626795	0.454743	0.424566
H129	H	1.126767	-0.045269	0.075642
H130	H	1.626767	0.454731	0.575642
H131	H	1.532770	-0.210254	0.000119
H132	H	2.032770	0.289746	0.500119
C133	C	1.127543	-0.193461	0.000078
C134	C	1.627543	0.306539	0.500078
H135	H	1.066549	-0.163413	0.000066
H136	H	1.566549	0.336587	0.500066
H137	H	1.122671	-0.216381	0.075596
H138	H	1.622671	0.283619	0.575596
H139	H	1.122703	-0.216353	-0.075480
H140	H	1.622703	0.283647	0.424520
C141	C	1.549080	-0.767147	0.000049
C142	C	2.049080	-0.267147	0.500049
H143	H	1.533306	-0.805855	0.000028
H144	H	2.033306	-0.305855	0.500028
H145	H	1.591836	-0.760080	0.075580
H146	H	2.091836	-0.260080	0.575580
H147	H	1.591820	-0.760058	-0.075496
H148	H	2.091820	-0.260058	0.424504
H149	H	1.144273	-0.733354	0.000049
H150	H	1.644273	-0.233354	0.500049
C151	C	1.117481	-0.615256	0.000040
C152	C	1.617481	-0.115256	0.500040
H153	H	1.055242	-0.637612	0.000047
H154	H	1.555242	-0.137612	0.500047
H155	H	1.113724	-0.591804	-0.075490
H156	H	1.613724	-0.091804	0.424510
H157	H	1.113727	-0.591821	0.075587
H158	H	1.613727	-0.091821	0.575587
C159	C	1.017554	-0.460247	-0.000016
C160	C	1.517554	0.039753	0.499984
H161	H	0.956570	-0.430194	-0.000039
H162	H	1.456570	0.069806	0.499961
H163	H	1.012672	-0.483161	0.075509
H164	H	1.512672	0.016839	0.575509
H165	H	1.012706	-0.483144	-0.075567
H166	H	1.512706	0.016856	0.424433
H167	H	1.049899	-0.345843	0.000001
H168	H	1.549899	0.154157	0.500001
