data_functionalizedCrystal
_audit_creation_method	'MofGen! by Chris Wilmer'
_symmetry_space_group_name_H-M	'P1'
_symmetry_Int_Tables_number	1
_symmetry_cell_setting	triclinic
loop_
_symmetry_equiv_pos_as_xyz
  x,y,z
_cell_length_a	16.109293
_cell_length_b	22.610064
_cell_length_c	16.109304
_cell_angle_alpha	89.993120
_cell_angle_beta	96.539546
_cell_angle_gamma	89.988360
loop_
_atom_site_label
_atom_site_type_symbol
_atom_site_fract_x
_atom_site_fract_y
_atom_site_fract_z
O1	O	-1.103143	0.049228	0.106825
O2	O	-0.861080	0.049218	0.120131
O3	O	-0.988760	0.049223	-0.007553
O4	O	-0.975463	0.049222	0.234509
O5	O	-0.988737	-0.049146	-0.007535
O6	O	-0.861058	-0.049151	0.120149
O7	O	-1.103120	-0.049142	0.106843
Zn8	Zn	-0.982085	-0.064765	0.113499
Zn9	Zn	-0.982115	0.064841	0.113475
O10	O	-0.975440	-0.049147	0.234527
C11	C	-0.830094	0.000032	0.119602
C12	C	-0.737798	0.000029	0.117990
N13	N	-0.982071	-0.153217	0.113515
C14	C	-0.525444	-0.053590	0.114271
C15	C	-0.438724	-0.053590	0.112747
C16	C	-0.438759	0.053658	0.112731
C17	C	-0.525478	0.053657	0.114249
C18	C	-0.568818	0.000031	0.115023
C19	C	-0.395378	0.000032	0.111981
C20	C	-0.301352	0.000033	0.110329
C21	C	-0.662850	0.000030	0.116674
C22	C	-1.038654	-0.561856	0.056945
C23	C	-1.038658	-0.623776	0.056939
O24	O	-1.086732	-0.655793	0.008853
N25	N	-0.982114	-0.654754	0.113457
C26	C	-0.925557	-0.623809	0.169980
O27	O	-0.877461	-0.655844	0.218053
C28	C	-0.925549	-0.561891	0.169982
C29	C	-0.982103	-0.530916	0.113465
C30	C	-1.095202	-0.530881	0.000432
C31	C	-1.095199	-0.468965	0.000439
C32	C	-1.038647	-0.438025	0.056959
C33	C	-0.982099	-0.469000	0.113472
C34	C	-0.868988	-0.530947	0.226500
C35	C	-0.868985	-0.469024	0.226496
C36	C	-0.925538	-0.438049	0.169979
C37	C	-0.925544	-0.376144	0.169999
N38	N	-0.982088	-0.345165	0.113481
C39	C	-1.038640	-0.376106	0.056961
C40	C	-0.925576	-0.753843	0.169972
C41	C	-0.925587	-0.815761	0.169975
C42	C	-1.038688	-0.815723	0.056933
C43	C	-1.038680	-0.753804	0.056934
C44	C	-0.982120	-0.722865	0.113453
C45	C	-1.038629	-0.246079	0.056981
C46	C	-1.038623	-0.184158	0.056995
C47	C	-0.925519	-0.184201	0.170035
C48	C	-0.925528	-0.246116	0.170023
C49	C	-0.982086	-0.277054	0.113490
O50	O	-0.877493	-0.344088	0.218059
O51	O	-1.086720	-0.344063	0.008889
C52	C	-0.134106	0.000041	0.107379
C53	C	-0.226398	0.000034	0.109015
C54	C	-0.988210	0.000040	-0.038519
C55	C	-0.986594	0.000044	-0.130814
N56	N	-0.982136	0.153293	0.113452
C57	C	-0.982872	0.053663	-0.343161
C58	C	-0.981346	0.053662	-0.429882
C59	C	-0.981326	-0.053585	-0.429858
C60	C	-0.982846	-0.053584	-0.343139
C61	C	-0.983623	0.000042	-0.299793
C62	C	-0.980577	0.000040	-0.473233
C63	C	-0.978922	0.000039	-0.567259
C64	C	-0.985276	0.000043	-0.205761
C65	C	-0.975991	0.000038	0.265493
C66	C	-0.977607	0.000038	0.357788
H67	H	-0.560729	-0.097256	0.114902
C68	C	-0.391083	0.112643	0.111902
H69	H	-0.429338	0.144577	0.112564
H70	H	-0.350906	0.114864	0.159769
H71	H	-0.363604	0.114880	0.062853
H72	H	-0.560795	0.097324	0.114860
H73	H	-0.403412	-0.097254	0.112135
H74	H	-0.983453	-0.097251	-0.307827
H75	H	-0.983503	0.097328	-0.307872
H76	H	-1.084678	-0.158940	0.010973
H77	H	-0.980733	0.097326	-0.465188
H78	H	-0.822937	-0.556158	0.272520
H79	H	-1.141247	-0.443749	-0.045583
C80	C	-0.980483	-0.112569	-0.477543
H81	H	-0.979479	-0.104891	-0.535402
H82	H	-0.932275	-0.134607	-0.456974
H83	H	-1.029190	-0.134594	-0.469679
H84	H	-1.084683	-0.271261	0.010945
H85	H	-1.141254	-0.556067	-0.045597
C86	C	-1.100882	-0.719737	-0.005240
H87	H	-1.134557	-0.747038	-0.038901
H88	H	-1.135479	-0.695576	0.024673
H89	H	-1.070979	-0.695589	-0.039864
C90	C	-1.100886	-0.849766	-0.005247
H91	H	-1.092780	-0.891078	0.002844
H92	H	-1.156371	-0.839614	0.003789
H93	H	-1.091863	-0.839614	-0.060740
C94	C	-0.863387	-0.849829	0.232149
H95	H	-0.871487	-0.891138	0.224061
H96	H	-0.807905	-0.839687	0.223106
H97	H	-0.872407	-0.839685	0.287642
C98	C	-0.863367	-0.719815	0.232158
H99	H	-0.829702	-0.747136	0.265820
H100	H	-0.828761	-0.695662	0.202251
H101	H	-0.893266	-0.695661	0.266782
H102	H	-0.822924	-0.443836	0.272520
C103	C	-0.863312	-0.150158	0.232196
H104	H	-0.871406	-0.108846	0.224093
H105	H	-0.872310	-0.160305	0.287692
H106	H	-0.807830	-0.160314	0.223135
C107	C	-0.863290	-0.280190	0.232158
H108	H	-0.829597	-0.252892	0.265807
H109	H	-0.893145	-0.304363	0.266788
H110	H	-0.828703	-0.304327	0.202193
