data_functionalizedCrystal
_audit_creation_method	'MofGen! by Chris Wilmer'
_symmetry_space_group_name_H-M	'P1'
_symmetry_Int_Tables_number	1
_symmetry_cell_setting	triclinic
loop_
_symmetry_equiv_pos_as_xyz
  x,y,z
_cell_length_a	11.026607
_cell_length_b	12.837942
_cell_length_c	10.065875
_cell_angle_alpha	99.723749
_cell_angle_beta	79.302338
_cell_angle_gamma	101.707478
loop_
_atom_site_label
_atom_site_type_symbol
_atom_site_fract_x
_atom_site_fract_y
_atom_site_fract_z
O1	O	1.677813	0.431471	-0.113501
O2	O	1.318665	0.380952	-0.113502
O3	O	1.490274	0.253824	-0.113493
O4	O	1.506204	0.558600	-0.113509
O5	O	1.457565	0.278190	0.113494
O6	O	1.285956	0.405318	0.113485
O7	O	1.645104	0.455838	0.113486
Zn8	Zn	1.460337	0.434446	0.149525
Zn9	Zn	1.503433	0.402343	-0.149540
O10	O	1.473495	0.582966	0.113478
C11	C	1.256022	0.383815	-0.000008
C12	C	1.118096	0.356032	-0.000008
C13	C	1.053161	0.432745	-0.000013
C14	C	0.910607	0.404032	-0.000014
C15	C	1.468539	0.226382	0.000000
C16	C	1.452492	0.108310	-0.000002
C17	C	1.645414	-0.096651	-0.000030
C18	C	1.630342	-0.207590	-0.000032
C19	C	1.407280	-0.224509	-0.000019
C20	C	1.422351	-0.113570	-0.000017
C21	C	1.541422	-0.049645	-0.000020
C22	C	1.556491	0.061297	-0.000008
C23	C	1.333431	0.044375	-0.000004
C24	C	1.318359	-0.066563	-0.000007
C25	C	1.707748	0.452974	-0.000010
C26	C	1.845676	0.480756	-0.000019
C27	C	1.495231	0.610407	-0.000018
C28	C	1.511279	0.728478	-0.000025
N29	N	1.430934	0.456357	0.353629
N30	N	1.532844	0.380426	-0.353644
C31	C	1.493194	0.409958	0.421411
C32	C	1.470575	0.426831	0.578577
H33	H	1.653444	0.113344	-0.000006
O34	O	1.576936	0.347763	0.352024
C35	C	1.696770	0.391434	0.386827
H36	H	1.686577	0.443348	0.490598
H37	H	1.747724	0.323579	0.391601
H38	H	1.752912	0.442684	0.306425
O39	O	1.232335	0.089893	-0.000177
C40	C	1.177753	0.045046	-0.117748
H41	H	1.204173	-0.037300	-0.156953
H42	H	1.071399	0.036344	-0.091297
H43	H	1.213548	0.099828	-0.200062
H44	H	1.400518	0.479046	0.636895
H45	H	1.742364	-0.044601	-0.000020
H46	H	1.068156	0.269094	-0.000039
O47	O	1.616107	0.317838	0.576787
C48	C	1.553503	0.231347	0.494378
H49	H	1.464654	0.253537	0.472994
H50	H	1.617620	0.213105	0.393884
H51	H	1.527613	0.157463	0.549617
O52	O	1.347274	0.518512	0.423347
C53	C	1.252162	0.456436	0.505994
H54	H	1.288668	0.384902	0.527251
H55	H	1.223404	0.507780	0.606537
H56	H	1.167506	0.426433	0.451028
H57	H	1.715025	-0.245858	-0.000045
O58	O	1.202790	-0.128796	-0.000182
C59	C	1.204319	-0.206069	-0.117760
H60	H	1.304540	-0.219549	-0.156967
H61	H	1.142712	-0.284826	-0.091318
H62	H	1.166941	-0.176322	-0.200069
H63	H	0.895613	0.567697	-0.000014
O64	O	1.112936	0.536400	-0.000073
C65	C	1.241959	0.541996	-0.000031
H66	H	1.268842	0.460327	-0.043004
H67	H	1.298492	0.604691	-0.065928
H68	H	1.262874	0.565494	0.108868
O69	O	0.850854	0.300359	-0.000070
C70	C	0.721820	0.294771	-0.000035
H71	H	0.707324	0.367216	-0.043010
H72	H	0.684281	0.217933	-0.065934
H73	H	0.669516	0.294645	0.108862
H74	H	1.310340	-0.276577	-0.000031
