data_functionalizedCrystal
_audit_creation_method	'MofGen! by Chris Wilmer'
_symmetry_space_group_name_H-M	'P1'
_symmetry_Int_Tables_number	1
_symmetry_cell_setting	triclinic
loop_
_symmetry_equiv_pos_as_xyz
  x,y,z
_cell_length_a	15.944551
_cell_length_b	16.109301
_cell_length_c	14.586319
_cell_angle_alpha	89.996867
_cell_angle_beta	90.001139
_cell_angle_gamma	96.519891
loop_
_atom_site_label
_atom_site_type_symbol
_atom_site_fract_x
_atom_site_fract_y
_atom_site_fract_z
O1	O	0.107962	-1.103169	0.076184
O2	O	0.607962	-0.603169	0.576184
O3	O	0.121398	-0.861112	0.076199
O4	O	0.621398	-0.361112	0.576199
O5	O	-0.007597	-0.988750	0.076183
O6	O	0.492403	-0.488750	0.576183
O7	O	0.236957	-0.975530	0.076200
O8	O	0.736957	-0.475530	0.576200
O9	O	-0.007590	-0.988735	-0.076298
O10	O	0.492410	-0.488735	0.423702
O11	O	0.121405	-0.861096	-0.076282
O12	O	0.621405	-0.361096	0.423718
O13	O	0.107969	-1.103154	-0.076296
O14	O	0.607969	-0.603154	0.423704
Cu15	Cu	0.114688	-0.982123	-0.090212
Cu16	Cu	0.614688	-0.482123	0.409788
Cu17	Cu	0.114679	-0.982142	0.090114
Cu18	Cu	0.614679	-0.482142	0.590114
O19	O	0.236964	-0.975515	-0.076280
O20	O	0.736964	-0.475515	0.423720
C21	C	-0.038887	-0.988194	-0.000057
C22	C	0.461113	-0.488194	0.499943
C23	C	-0.132133	-0.986548	-0.000058
C24	C	0.367867	-0.486548	0.499942
C25	C	0.120857	-0.830129	-0.000039
C26	C	0.620857	-0.330129	0.499961
C27	C	0.119226	-0.737833	-0.000034
C28	C	0.619226	-0.237833	0.499966
C29	C	0.108510	-1.134136	-0.000056
C30	C	0.608510	-0.634136	0.499944
C31	C	0.110141	-1.226432	-0.000055
C32	C	0.610141	-0.726432	0.499945
C33	C	-0.346962	-0.903499	-0.000040
C34	C	0.153038	-0.403499	0.499960
C35	C	-0.407988	-0.942057	-0.075225
C36	C	0.092012	-0.442057	0.424775
C37	C	-0.302858	-0.983572	-0.000051
C38	C	0.197142	-0.483572	0.499949
C39	C	-0.407979	-0.942091	0.075109
C40	C	0.092021	-0.442091	0.575109
C41	C	-0.467769	-0.980691	-0.000040
C42	C	0.032231	-0.480691	0.499960
C43	C	-0.362656	-1.022151	-0.075297
C44	C	0.137344	-0.522151	0.424703
C45	C	-0.362640	-1.022174	0.075104
C46	C	0.137360	-0.522174	0.575104
C47	C	-0.423649	-1.060790	-0.000099
C48	C	0.076351	-0.560790	0.499901
C49	C	-0.207856	-0.985229	-0.000058
C50	C	0.292144	-0.485229	0.499942
C51	C	-0.562770	-0.979039	-0.000039
C52	C	-0.062770	-0.479039	0.499961
C53	C	0.268254	-0.976071	-0.000038
C54	C	0.768254	-0.476071	0.499962
C55	C	0.361500	-0.977717	-0.000031
C56	C	0.861500	-0.477717	0.499969
N57	N	0.114694	-0.982116	-0.217044
N58	N	0.614694	-0.482116	0.282956
C59	C	0.191975	-0.515584	-0.000040
C60	C	0.691975	-0.015584	0.499960
C61	C	0.190435	-0.428863	-0.000046
C62	C	0.690435	0.071137	0.499954
C63	C	0.037387	-0.448688	-0.000053
C64	C	0.537387	0.051312	0.499947
C65	C	0.038927	-0.535407	-0.000053
C66	C	0.538927	-0.035407	0.499947
C67	C	0.116224	-0.568853	-0.000042
C68	C	0.616224	-0.068853	0.499958
C69	C	0.113143	-0.395412	-0.000047
C70	C	0.613143	0.104588	0.499953
C71	C	0.111473	-0.301386	-0.000054
C72	C	0.611473	0.198614	0.499946
C73	C	0.117894	-0.662885	-0.000037
C74	C	0.617894	-0.162885	0.499963
C75	C	0.165642	-1.032556	-0.452049
C76	C	0.665642	-0.532556	0.047951
C77	C	0.165636	-1.032564	-0.548031
C78	C	0.665636	-0.532564	-0.048031
C79	C	0.063713	-0.931714	-0.548041
C80	C	0.563713	-0.431714	-0.048041
C81	C	0.063715	-0.931710	-0.452062
C82	C	0.563715	-0.431710	0.047938
C83	C	0.114684	-0.982130	-0.404068
C84	C	0.614684	-0.482130	0.095932
C85	C	0.114676	-0.982142	-0.596029
C86	C	0.614676	-0.482142	-0.096029
C87	C	0.114670	-0.982151	-0.700096
C88	C	0.614670	-0.482151	-0.200096
C89	C	0.114690	-0.982122	-0.299995
C90	C	0.614690	-0.482122	0.200005
N91	N	0.114666	-0.982155	0.216946
N92	N	0.614666	-0.482155	0.716946
H93	H	-0.313632	-0.837035	-0.000111
H94	H	0.186368	-0.337035	0.499889
F95	F	0.271060	-0.372174	-0.000044
F96	F	0.771060	0.127826	0.499956
H97	H	-0.025546	-0.421446	-0.000067
H98	H	0.474454	0.078554	0.499933
F99	F	-0.434253	-0.897783	-0.158301
F100	F	0.065747	-0.397783	0.341699
H101	H	0.022217	-0.890663	-0.587129
H102	H	0.522217	-0.390663	-0.087129
H103	H	-0.022762	-0.578781	-0.000058
H104	H	0.477238	-0.078781	0.499942
H105	H	0.022215	-0.890647	-0.412995
H106	H	0.522215	-0.390647	0.087005
H107	H	-0.428048	-0.908219	0.138677
H108	H	0.071952	-0.408219	0.638677
H109	H	-0.342673	-1.055984	-0.138930
H110	H	0.157327	-0.555984	0.361070
F111	F	-0.467021	-1.147739	-0.000157
F112	F	0.032979	-0.647739	0.499843
H113	H	0.207129	-1.073627	-0.587093
H114	H	0.707129	-0.573627	-0.087093
F115	F	-0.336345	-1.066413	0.158184
F116	F	0.163655	-0.566413	0.658184
F117	F	0.274240	-0.551176	-0.000031
F118	F	0.774240	-0.051176	0.499969
F119	F	0.219882	-1.086221	-0.400974
F120	F	0.719882	-0.586221	0.099026
