data_functionalizedCrystal
_audit_creation_method	'MofGen! by Chris Wilmer'
_symmetry_space_group_name_H-M	'P1'
_symmetry_Int_Tables_number	1
_symmetry_cell_setting	triclinic
loop_
_symmetry_equiv_pos_as_xyz
  x,y,z
_cell_length_a	14.044190
_cell_length_b	10.654550
_cell_length_c	9.730223
_cell_angle_alpha	89.999957
_cell_angle_beta	89.990718
_cell_angle_gamma	88.838354
loop_
_atom_site_label
_atom_site_type_symbol
_atom_site_fract_x
_atom_site_fract_y
_atom_site_fract_z
O1	O	0.133232	1.681232	-0.114204
O2	O	0.145925	1.317029	-0.114231
O3	O	0.001558	1.493659	-0.114191
O4	O	0.277599	1.504602	-0.114244
O5	O	0.001554	1.493647	0.114389
O6	O	0.145921	1.317017	0.114349
O7	O	0.133228	1.681219	0.114376
Zn8	Zn	0.139574	1.499116	0.150655
Zn9	Zn	0.139579	1.499133	-0.150509
O10	O	0.277595	1.504589	0.114336
C11	C	0.144991	1.270131	0.000056
C12	C	0.142203	1.130408	0.000047
C13	C	0.227204	1.059467	0.000035
C14	C	0.224578	0.928182	0.000059
C15	C	0.051943	0.938791	0.000103
C16	C	0.054569	1.070074	0.000088
C17	C	-0.033790	1.488866	0.000103
C18	C	-0.139110	1.474587	0.000114
C19	C	-0.388902	1.549752	0.000066
C20	C	-0.331939	1.448502	0.000068
C21	C	-0.224639	1.463019	0.000094
C22	C	-0.496212	1.535237	0.000040
C23	C	0.312943	1.509383	0.000039
C24	C	0.418263	1.523662	0.000020
C25	C	0.134162	1.728117	0.000086
C26	C	0.136950	1.867841	0.000086
N27	N	0.139570	1.499113	0.356191
N28	N	0.139576	1.499144	-0.356046
C29	C	0.075671	1.577357	0.428135
C30	C	0.075671	1.577370	0.572018
C31	C	0.203478	1.420892	0.572001
C32	C	0.203472	1.420874	0.428120
H33	H	0.298561	1.108587	0.000012
H34	H	-0.014653	1.127836	0.000102
Br35	Br	-0.335875	1.712394	0.000097
Br36	Br	-0.384964	1.285850	0.000050
H37	H	0.023637	1.641063	0.369573
Br38	Br	-0.011056	1.683555	0.669653
Br39	Br	0.290201	1.314716	0.669624
Br40	Br	0.339943	0.831909	0.000049
Br41	Br	0.290190	1.314668	0.330471
H42	H	-0.019406	0.889651	0.000145
