data_functionalizedCrystal
_audit_creation_method	'MofGen! by Chris Wilmer'
_symmetry_space_group_name_H-M	'P1'
_symmetry_Int_Tables_number	1
_symmetry_cell_setting	triclinic
loop_
_symmetry_equiv_pos_as_xyz
  x,y,z
_cell_length_a	16.959455
_cell_length_b	16.959453
_cell_length_c	18.215399
_cell_angle_alpha	89.971557
_cell_angle_beta	89.975868
_cell_angle_gamma	90.017008
loop_
_atom_site_label
_atom_site_type_symbol
_atom_site_fract_x
_atom_site_fract_y
_atom_site_fract_z
Zn1	Zn	1.208414	-0.314749	-0.416209
Zn2	Zn	1.541747	0.018584	-0.082876
Zn3	Zn	1.875080	0.351917	0.250457
Zn4	Zn	1.208328	-0.446936	-0.293143
Zn5	Zn	1.541661	-0.113602	0.040190
Zn6	Zn	1.874994	0.219731	0.373524
Zn7	Zn	1.076233	-0.314768	-0.293146
Zn8	Zn	1.409567	0.018565	0.040187
Zn9	Zn	1.742900	0.351899	0.373520
Zn10	Zn	1.076207	-0.446883	-0.416158
Zn11	Zn	1.409540	-0.113549	-0.082824
Zn12	Zn	1.742874	0.219784	0.250509
O13	O	1.142295	-0.380834	-0.354664
O14	O	1.475629	-0.047501	-0.021331
O15	O	1.808962	0.285833	0.312003
O16	O	1.319013	-0.332298	-0.399905
O17	O	1.652346	0.001035	-0.066571
O18	O	1.985680	0.334368	0.266762
O19	O	1.190780	-0.429433	-0.190159
O20	O	1.524113	-0.096100	0.143174
O21	O	1.857447	0.237233	0.476508
O22	O	1.093814	-0.204155	-0.309494
O23	O	1.427148	0.129179	0.023839
O24	O	1.760481	0.462512	0.357172
O25	O	1.318950	-0.429415	-0.309488
O26	O	1.652283	-0.096082	0.023845
O27	O	1.985617	0.237252	0.357179
O28	O	1.190927	-0.204141	-0.399908
O29	O	1.524260	0.129193	-0.066575
O30	O	1.857593	0.462526	0.266759
O31	O	1.093731	-0.332330	-0.190162
O32	O	1.427064	0.001003	0.143172
O33	O	1.760398	0.334336	0.476505
O34	O	0.965619	-0.332279	-0.309444
O35	O	1.298952	0.001054	0.023889
O36	O	1.632286	0.334387	0.357223
O37	O	1.093769	-0.429325	-0.519149
O38	O	1.427103	-0.095992	-0.185815
O39	O	1.760436	0.237342	0.147518
O40	O	0.965600	-0.429343	-0.399820
O41	O	1.298933	-0.096010	-0.066486
O42	O	1.632266	0.237323	0.266847
O43	O	1.190901	-0.332247	-0.519187
O44	O	1.524234	0.001086	-0.185853
O45	O	1.857568	0.334420	0.147480
O46	O	1.190754	-0.557539	-0.309438
O47	O	1.524088	-0.224206	0.023895
O48	O	1.857421	0.109127	0.357229
O49	O	1.093686	-0.557501	-0.399816
O50	O	1.427019	-0.224167	-0.066483
O51	O	1.760353	0.109166	0.266850
C52	C	0.936929	-0.380808	-0.354627
C53	C	1.270262	-0.047475	-0.021294
C54	C	1.603596	0.285859	0.312040
C55	C	0.849073	-0.380816	-0.354629
C56	C	1.182406	-0.047483	-0.021295
C57	C	1.515739	0.285851	0.312038
C58	C	0.477553	-0.431353	-0.307560
C59	C	0.810887	-0.098019	0.025773
C60	C	1.144220	0.235314	0.359106
C61	C	0.477641	-0.330381	-0.401857
C62	C	0.810974	0.002952	-0.068524
C63	C	1.144307	0.336286	0.264809
C64	C	0.560186	-0.330368	-0.401840
C65	C	0.893520	0.002965	-0.068506
C66	C	1.226853	0.336299	0.264827
C67	C	0.601420	-0.380849	-0.354682
C68	C	0.934753	-0.047515	-0.021349
C69	C	1.268086	0.285818	0.311985
C70	C	0.560107	-0.431343	-0.307542
C71	C	0.893440	-0.098009	0.025791
C72	C	1.226774	0.235324	0.359124
C73	C	0.601505	-0.279881	-0.448984
C74	C	0.934839	0.053453	-0.115650
C75	C	1.268172	0.386786	0.217683
C76	C	0.684056	-0.279866	-0.448968
C77	C	1.017390	0.053467	-0.115635
C78	C	1.350723	0.386801	0.217699
C79	C	0.725291	-0.330344	-0.401806
C80	C	1.058624	0.002990	-0.068473
C81	C	1.391958	0.336323	0.264860
C82	C	0.683973	-0.380839	-0.354664
C83	C	1.017306	-0.047506	-0.021331
C84	C	1.350640	0.285828	0.312002
C85	C	0.725206	-0.431320	-0.307507
C86	C	1.058540	-0.097987	0.025827
C87	C	1.391873	0.235347	0.359160
C88	C	0.683890	-0.481812	-0.260360
C89	C	1.017223	-0.148478	0.072973
C90	C	1.350557	0.184855	0.406306
C91	C	0.601342	-0.481820	-0.260381
C92	C	0.934675	-0.148487	0.072953
C93	C	1.268008	0.184846	0.406286
C94	C	0.807839	-0.330335	-0.401786
C95	C	1.141173	0.002998	-0.068453
C96	C	1.474506	0.336331	0.264881
C97	C	0.807760	-0.431310	-0.307489
C98	C	1.141093	-0.097977	0.025844
C99	C	1.474427	0.235357	0.359178
C100	C	1.142229	-0.586200	-0.354637
C101	C	1.475563	-0.252867	-0.021304
C102	C	1.808896	0.080466	0.312030
C103	C	1.142274	-0.674057	-0.354650
C104	C	1.475607	-0.340723	-0.021317
C105	C	1.808940	-0.007390	0.312016
C106	C	1.192926	-1.045467	-0.401831
C107	C	1.526260	-0.712133	-0.068498
C108	C	1.859593	-0.378800	0.264835
C109	C	1.091885	-1.045598	-0.307606
C110	C	1.425218	-0.712265	0.025727
C111	C	1.758552	-0.378931	0.359061
C112	C	1.091856	-0.963052	-0.307589
C113	C	1.425189	-0.629719	0.025744
C114	C	1.758522	-0.296386	0.359078
C115	C	1.142362	-0.921710	-0.354695
C116	C	1.475695	-0.588376	-0.021362
C117	C	1.809028	-0.255043	0.311972
C118	C	1.192897	-0.962913	-0.401817
C119	C	1.526230	-0.629580	-0.068484
C120	C	1.859564	-0.296246	0.264849
C121	C	1.041316	-0.921843	-0.260473
C122	C	1.374649	-0.588509	0.072861
C123	C	1.707982	-0.255176	0.406194
C124	C	1.041284	-0.839292	-0.260454
C125	C	1.374617	-0.505958	0.072879
C126	C	1.707950	-0.172625	0.406212
C127	C	1.091794	-0.797948	-0.307557
C128	C	1.425128	-0.464614	0.025776
C129	C	1.758461	-0.131281	0.359110
C130	C	1.142332	-0.839156	-0.354681
C131	C	1.475666	-0.505823	-0.021348
C132	C	1.808999	-0.172489	0.311986
C133	C	1.192838	-0.797814	-0.401787
C134	C	1.526172	-0.464480	-0.068453
C135	C	1.859505	-0.131147	0.264880
C136	C	1.243381	-0.839021	-0.448907
C137	C	1.576714	-0.505687	-0.115574
C138	C	1.910048	-0.172354	0.217759
C139	C	1.243408	-0.921569	-0.448920
C140	C	1.576741	-0.588236	-0.115587
C141	C	1.910074	-0.254902	0.217747
C142	C	1.091768	-0.715399	-0.307544
C143	C	1.425101	-0.382066	0.025789
C144	C	1.758434	-0.048733	0.359122
C145	C	1.192809	-0.715260	-0.401773
C146	C	1.526142	-0.381927	-0.068439
C147	C	1.859476	-0.048593	0.264894
C148	C	1.348464	-0.380860	-0.354702
C149	C	1.681797	-0.047527	-0.021368
C150	C	2.015130	0.285806	0.311965
C151	C	1.436320	-0.380872	-0.354718
C152	C	1.769654	-0.047538	-0.021384
C153	C	2.102987	0.285795	0.311949
C154	C	1.142342	-0.380778	-0.546617
C155	C	1.475675	-0.047445	-0.213284
C156	C	1.809008	0.285889	0.120050
C157	C	1.142362	-0.380754	-0.628416
C158	C	1.475695	-0.047421	-0.295083
C159	C	1.809028	0.285913	0.038251
C160	C	1.142383	-0.174666	-0.354707
C161	C	1.475716	0.158668	-0.021374
C162	C	1.809050	0.492001	0.311959
C163	C	1.142420	-0.086809	-0.354726
C164	C	1.475754	0.246524	-0.021392
C165	C	1.809087	0.579858	0.311941
C166	C	1.192967	-0.330137	-0.893495
C167	C	1.526301	0.003196	-0.560161
C168	C	1.859634	0.336529	-0.226828
C169	C	1.192958	-0.330159	-0.816636
C170	C	1.526291	0.003175	-0.483303
C171	C	1.859625	0.336508	-0.149969
C172	C	1.091820	-0.431256	-0.816586
C173	C	1.425153	-0.097923	-0.483253
C174	C	1.758487	0.235411	-0.149919
C175	C	1.091834	-0.431238	-0.893443
C176	C	1.425167	-0.097905	-0.560110
C177	C	1.758501	0.235429	-0.226777
C178	C	1.142406	-0.380674	-0.931896
C179	C	1.475740	-0.047341	-0.598562
C180	C	1.809073	0.285992	-0.265229
C181	C	1.142383	-0.380714	-0.778180
C182	C	1.475717	-0.047380	-0.444846
C183	C	1.809050	0.285953	-0.111513
C184	C	1.142373	-0.380737	-0.694846
C185	C	1.475706	-0.047404	-0.361513
C186	C	1.809039	0.285929	-0.028179
C187	C	1.142418	-0.380652	-1.015235
C188	C	1.475752	-0.047318	-0.681901
C189	C	1.809085	0.286015	-0.348568
C190	C	1.142295	-0.380833	-0.163458
C191	C	1.475628	-0.047499	0.169875
C192	C	1.808961	0.285834	0.503209
C193	C	1.142428	-0.380634	-0.081659
C194	C	1.475761	-0.047301	0.251674
C195	C	1.809095	0.286033	0.585007
H196	H	0.717689	-0.238752	-0.487357
H197	H	1.051022	0.094581	-0.154024
H198	H	1.384356	0.427915	0.179309
O199	O	1.037263	-0.485779	-0.775114
O200	O	1.370596	-0.152446	-0.441780
O201	O	1.703929	0.180887	-0.108447
H202	H	1.072611	-0.526004	-0.740087
H203	H	1.405944	-0.192670	-0.406753
H204	H	1.739278	0.140663	-0.073420
O205	O	1.037291	-0.485746	-0.934864
O206	O	1.370624	-0.152413	-0.601531
O207	O	1.703958	0.180920	-0.268197
H208	H	1.072660	-0.525960	-0.969874
H209	H	1.405994	-0.192627	-0.636540
H210	H	1.739327	0.140707	-0.303207
H211	H	1.284556	-0.955127	-0.487284
H212	H	1.617889	-0.621794	-0.153950
H213	H	1.951223	-0.288460	0.179383
O214	O	1.247518	-0.275612	-0.934972
O215	O	1.580852	0.057721	-0.601639
O216	O	1.914185	0.391054	-0.268306
H217	H	1.282681	-0.240481	-0.895354
H218	H	1.616014	0.092852	-0.562020
H219	H	1.949347	0.426185	-0.228687
O220	O	0.852229	-0.485754	-0.256619
O221	O	1.185563	-0.152420	0.076715
O222	O	1.518896	0.180913	0.410048
H223	H	0.889859	-0.526010	-0.289478
H224	H	1.223192	-0.192676	0.043855
H225	H	1.556525	0.140657	0.377188
H226	H	0.717473	-0.522917	-0.221969
H227	H	1.050806	-0.189584	0.111365
H228	H	1.384140	0.143749	0.444698
H229	H	0.841475	-0.289227	-0.440173
H230	H	1.174809	0.044106	-0.106840
H231	H	1.508142	0.377440	0.226493
H232	H	1.234130	-0.289007	-0.785373
H233	H	1.567464	0.044326	-0.452040
H234	H	1.900797	0.377659	-0.118707
H235	H	0.567695	-0.522928	-0.221996
H236	H	0.901028	-0.189594	0.111337
H237	H	1.234361	0.143739	0.444670
H238	H	0.443910	-0.472460	-0.269173
H239	H	0.777243	-0.139126	0.064161
H240	H	1.110577	0.194207	0.397494
H241	H	0.444063	-0.289286	-0.440255
H242	H	0.777397	0.044047	-0.106922
H243	H	1.110730	0.377381	0.226412
H244	H	0.567927	-0.238787	-0.487381
H245	H	0.901260	0.094547	-0.154048
H246	H	1.234594	0.427880	0.179285
H247	H	1.284500	-0.805350	-0.487265
H248	H	1.617833	-0.472017	-0.153931
H249	H	1.951166	-0.138683	0.179402
O250	O	1.247296	-0.670674	-0.452573
O251	O	1.580629	-0.337340	-0.119239
O252	O	1.913962	-0.004007	0.214094
H253	H	1.233715	-0.686480	-0.510324
H254	H	1.567048	-0.353147	-0.176991
H255	H	1.900382	-0.019813	0.156343
O256	O	1.247432	-1.089902	-0.452661
O257	O	1.580765	-0.756569	-0.119328
O258	O	1.914099	-0.423235	0.214006
H259	H	1.238966	-1.154250	-0.444765
H260	H	1.572300	-0.820917	-0.111431
H261	H	1.905633	-0.487583	0.221902
H262	H	1.050762	-1.079264	-0.269258
H263	H	1.384095	-0.745931	0.064075
H264	H	1.717429	-0.412597	0.397409
O265	O	0.986857	-0.966429	-0.209655
O266	O	1.320190	-0.633095	0.123678
O267	O	1.653524	-0.299762	0.457012
H268	H	0.995382	-1.030753	-0.217571
H269	H	1.328715	-0.697419	0.115763
H270	H	1.662049	-0.364086	0.449096
H271	H	1.050613	-0.681852	-0.269183
H272	H	1.383946	-0.348519	0.064150
H273	H	1.717280	-0.015186	0.397484
O274	O	0.986787	-0.794848	-0.209623
O275	O	1.320120	-0.461514	0.123710
O276	O	1.653454	-0.128181	0.457044
H277	H	0.951679	-0.837465	-0.176865
H278	H	1.285013	-0.504132	0.156468
H279	H	1.618346	-0.170798	0.489802
