data_functionalizedCrystal
_audit_creation_method	'MofGen! by Chris Wilmer'
_symmetry_space_group_name_H-M	'P1'
_symmetry_Int_Tables_number	1
_symmetry_cell_setting	triclinic
loop_
_symmetry_equiv_pos_as_xyz
  x,y,z
_cell_length_a	18.050590
_cell_length_b	17.640112
_cell_length_c	17.640968
_cell_angle_alpha	92.139080
_cell_angle_beta	101.224637
_cell_angle_gamma	78.780299
loop_
_atom_site_label
_atom_site_type_symbol
_atom_site_fract_x
_atom_site_fract_y
_atom_site_fract_z
Zn1	Zn	0.021336	1.247789	-0.195083
Zn2	Zn	0.521336	1.747789	0.304917
Zn3	Zn	0.174537	1.222097	-0.068119
Zn4	Zn	0.674537	1.722097	0.431881
Zn5	Zn	0.069639	1.095146	-0.093735
Zn6	Zn	0.569639	1.595146	0.406265
Zn7	Zn	0.164762	1.120833	-0.220700
Zn8	Zn	0.664762	1.620833	0.279300
O9	O	0.107568	1.171466	-0.144409
O10	O	0.607568	1.671466	0.355591
O11	O	0.025534	1.350642	-0.156800
O12	O	0.525534	1.850642	0.343200
O13	O	0.184928	1.183754	0.034753
O14	O	0.684928	1.683754	0.534753
O15	O	-0.040694	1.115396	-0.107178
O16	O	0.459306	1.615396	0.392822
O17	O	0.138090	1.331766	-0.063520
O18	O	0.638090	1.831766	0.436480
O19	O	-0.076182	1.227543	-0.181638
O20	O	0.423818	1.727543	0.318362
O21	O	0.107859	1.090484	0.015933
O22	O	0.607859	1.590484	0.515933
O23	O	0.098381	0.992292	-0.132018
O24	O	0.598381	1.492292	0.367982
O25	O	0.121431	1.159176	-0.323572
O26	O	0.621431	1.659176	0.176428
O27	O	0.168268	1.011164	-0.225299
O28	O	0.668268	1.511164	0.274701
O29	O	0.016056	1.252451	-0.304751
O30	O	0.516056	1.752451	0.195249
O31	O	0.277165	1.208662	-0.088360
O32	O	0.777165	1.708662	0.411640
O33	O	0.269984	1.134264	-0.200461
O34	O	0.769984	1.634264	0.299539
C35	C	0.137506	0.974176	-0.184218
C36	C	0.637506	1.474176	0.315782
C37	C	0.150327	0.889778	-0.201267
C38	C	0.650327	1.389778	0.298733
C39	C	-0.086138	1.171470	-0.144408
C40	C	0.413862	1.671470	0.355592
C41	C	-0.168684	1.171471	-0.144407
C42	C	0.331316	1.671471	0.355593
C43	C	0.010152	0.563044	-0.014899
C44	C	0.510152	1.063044	0.485101
C45	C	0.022212	0.483742	-0.030929
C46	C	0.522212	0.983742	0.469071
C47	C	0.095155	0.503414	-0.127895
C48	C	0.595155	1.003414	0.372105
C49	C	0.083097	0.582720	-0.111876
C50	C	0.583097	1.082720	0.388124
C51	C	0.040596	0.612529	-0.055377
C52	C	0.540596	1.112529	0.444623
C53	C	0.113541	0.632205	-0.152353
C54	C	0.613541	1.132205	0.347647
C55	C	0.101488	0.711504	-0.136332
C56	C	0.601488	1.211504	0.363668
C57	C	0.058991	0.741318	-0.079834
C58	C	0.558991	1.241318	0.420166
C59	C	0.028543	0.691828	-0.039356
C60	C	0.528543	1.191828	0.460644
C61	C	0.156047	0.602394	-0.208848
C62	C	0.656047	1.102394	0.291152
C63	C	0.186491	0.651879	-0.249326
C64	C	0.686491	1.151879	0.250674
C65	C	0.174434	0.731180	-0.233309
C66	C	0.674434	1.231180	0.266691
C67	C	0.131936	0.760994	-0.176811
C68	C	0.631936	1.260994	0.323189
C69	C	0.204882	0.780671	-0.273787
C70	C	0.704882	1.280671	0.226213
C71	C	0.192828	0.859970	-0.257766
C72	C	0.692828	1.359970	0.242234
C73	C	0.119883	0.840293	-0.160790
C74	C	0.619883	1.340293	0.339210
C75	C	-0.348844	1.110521	-0.103924
C76	C	0.151156	1.610521	0.396076
C77	C	-0.411259	1.105975	-0.176959
C78	C	0.088741	1.605975	0.323041
C79	C	-0.319823	1.171505	-0.144420
C80	C	0.180177	1.671505	0.355580
C81	C	-0.404493	1.176048	-0.071406
C82	C	0.095507	1.676048	0.428594
C83	C	-0.465815	1.171534	-0.144427
C84	C	0.034185	1.671534	0.355573
C85	C	-0.381154	1.166930	-0.217499
C86	C	0.118846	1.666930	0.282501
C87	C	-0.374377	1.237026	-0.111893
C88	C	0.125623	1.737026	0.388107
C89	C	-0.436785	1.232516	-0.184971
C90	C	0.063215	1.732516	0.315029
C91	C	-0.235720	1.171486	-0.144415
C92	C	0.264280	1.671486	0.355585
C93	C	-0.549918	1.171555	-0.144439
C94	C	-0.049918	1.671555	0.355561
C95	C	0.300514	1.171487	-0.144423
C96	C	0.800514	1.671487	0.355577
C97	C	0.383041	1.171570	-0.144440
C98	C	0.883041	1.671570	0.355560
C99	C	0.062265	1.211545	-0.342486
C100	C	0.562265	1.711545	0.157514
C101	C	0.042959	1.228624	-0.426895
C102	C	0.542959	1.728624	0.073105
C103	C	0.077514	1.369527	-0.104445
C104	C	0.577514	1.869527	0.395555
C105	C	0.064707	1.453929	-0.087415
C106	C	0.564707	1.953929	0.412585
C107	C	0.253783	1.042010	-0.753494
C108	C	0.753783	1.542010	-0.253494
C109	C	0.235631	1.058074	-0.832806
C110	C	0.735631	1.558074	-0.332806
C111	C	0.125913	1.155192	-0.813199
C112	C	0.625913	1.655192	-0.313199
C113	C	0.144054	1.139133	-0.733885
C114	C	0.644054	1.639133	-0.233885
C115	C	0.207990	1.082542	-0.704039
C116	C	0.707990	1.582542	-0.204039
C117	C	0.098261	1.179665	-0.684429
C118	C	0.598261	1.679665	-0.184429
C119	C	0.116404	1.163610	-0.605121
C120	C	0.616404	1.663610	-0.105121
C121	C	0.180339	1.107023	-0.575269
C122	C	0.680339	1.607023	-0.075269
C123	C	0.226133	1.066487	-0.624731
C124	C	0.726133	1.566487	-0.124731
C125	C	0.034329	1.236260	-0.714276
C126	C	0.534329	1.736260	-0.214276
C127	C	-0.011464	1.276792	-0.664820
C128	C	0.488536	1.776792	-0.164820
C129	C	0.006675	1.260734	-0.585511
C130	C	0.506675	1.760734	-0.085511
C131	C	0.070610	1.204147	-0.555659
C132	C	0.570610	1.704147	-0.055659
C133	C	-0.039119	1.301270	-0.536049
C134	C	0.460881	1.801270	-0.036049
C135	C	-0.020977	1.285215	-0.456741
C136	C	0.479023	1.785215	0.043259
C137	C	0.088752	1.188092	-0.476351
C138	C	0.588752	1.688092	0.023649
C139	C	0.152635	1.131587	0.052906
C140	C	0.652635	1.631587	0.552906
C141	C	0.171709	1.114655	0.137344
C142	C	0.671709	1.614655	0.637344
H143	H	0.085261	0.864567	-0.114793
H144	H	0.585261	1.364567	0.385207
H145	H	-0.370559	1.163035	-0.279279
H146	H	0.129441	1.663035	0.220721
H147	H	0.305831	0.995909	-0.729196
H148	H	0.805831	1.495909	-0.229196
Br149	Br	-0.346986	1.329325	-0.066002
Br150	Br	0.153014	1.829325	0.433998
Br151	Br	0.042639	0.848938	-0.058083
Br152	Br	0.542639	1.348938	0.441917
Br153	Br	-0.438607	1.013646	-0.222831
Br154	Br	0.061393	1.513646	0.277169
H155	H	-0.058267	1.318219	-0.416473
H156	H	0.441733	1.818219	0.083527
H157	H	-0.415173	1.179880	-0.009656
H158	H	0.084827	1.679880	0.490344
Br159	Br	0.204968	1.085238	-0.467634
Br160	Br	0.704968	1.585238	0.032366
H161	H	0.140800	1.141991	-0.452053
H162	H	0.640800	1.641991	0.047947
Br163	Br	-0.499885	1.318513	-0.242132
Br164	Br	0.000115	1.818513	0.257868
H165	H	0.278181	1.020386	-0.600433
H166	H	0.778181	1.520386	-0.100433
Br167	Br	0.297785	1.003059	-0.899924
Br168	Br	0.797785	1.503059	-0.399924
H169	H	-0.006079	0.716101	0.006640
H170	H	0.493921	1.216101	0.506640
Br171	Br	0.039148	1.231996	-0.853711
Br172	Br	0.539148	1.731996	-0.353711
Br173	Br	-0.098229	1.353596	-0.705332
Br174	Br	0.401771	1.853596	-0.205332
H175	H	0.019561	1.249332	-0.778853
H176	H	0.519561	1.749332	-0.278853
Br177	Br	0.262581	0.740203	-0.350444
Br178	Br	0.762581	1.240203	0.149556
H179	H	-0.024470	0.587318	0.031097
H180	H	0.475530	1.087318	0.531097
Br181	Br	-0.019100	0.416582	0.024019
Br182	Br	0.480900	0.916582	0.524019
Br183	Br	0.152847	0.462950	-0.204558
Br184	Br	0.652847	0.962950	0.295442
Br185	Br	0.234150	0.927132	-0.312695
Br186	Br	0.734150	1.427132	0.187305
Br187	Br	0.244183	0.611415	-0.325989
Br188	Br	0.744183	1.111415	0.174011
Br189	Br	-0.285546	1.024511	-0.046937
Br190	Br	0.214454	1.524511	0.453063
Br191	Br	-0.125878	1.378081	-0.576562
Br192	Br	0.374122	1.878081	-0.076562
H193	H	0.165859	0.537823	-0.221891
H194	H	0.665859	1.037823	0.278109
