data_functionalizedCrystal
_audit_creation_method	'MofGen! by Chris Wilmer'
_symmetry_space_group_name_H-M	'P1'
_symmetry_Int_Tables_number	1
_symmetry_cell_setting	triclinic
loop_
_symmetry_equiv_pos_as_xyz
  x,y,z
_cell_length_a	26.374263
_cell_length_b	26.373608
_cell_length_c	26.370205
_cell_angle_alpha	60.005297
_cell_angle_beta	60.010839
_cell_angle_gamma	59.993700
loop_
_atom_site_label
_atom_site_type_symbol
_atom_site_fract_x
_atom_site_fract_y
_atom_site_fract_z
O1	O	0.070152	-0.740800	0.619517
O2	O	0.026377	-0.576764	0.499159
O3	O	0.130245	-0.680560	0.499088
O4	O	-0.033715	-0.637003	0.619589
O5	O	0.164701	-0.646107	0.533470
O6	O	0.060833	-0.542310	0.533541
O7	O	0.104608	-0.706346	0.653899
Cu8	Cu	0.085867	-0.621182	0.596859
Cu9	Cu	0.045119	-0.661927	0.556199
O10	O	0.000741	-0.602549	0.653971
N11	N	0.114528	-0.592529	0.625461
N12	N	0.016463	-0.690587	0.527598
C13	C	0.181428	-0.355400	0.692330
C14	C	0.181530	-0.525690	0.862573
C15	C	0.181440	-0.525667	0.692313
C16	C	0.351736	-0.525673	0.692271
C17	C	0.200174	-0.411588	0.711047
C18	C	0.200232	-0.506954	0.806384
C19	C	0.295546	-0.506943	0.711016
C20	C	0.200182	-0.506940	0.711037
C21	C	0.157567	-0.283881	0.668507
C22	C	0.157587	-0.549500	0.668479
C23	C	0.224035	-0.483107	0.734871
C24	C	0.455739	-0.507754	0.637520
C25	C	0.520749	-0.529425	0.615835
C26	C	0.520768	-0.634611	0.655947
C27	C	0.455759	-0.612939	0.677633
C28	C	0.173240	-0.251367	0.604595
C29	C	0.151546	-0.186351	0.582941
C30	C	0.098512	-0.186369	0.689113
C31	C	0.120206	-0.251385	0.710768
C32	C	0.093669	-0.533798	0.684205
C33	C	0.071992	-0.555464	0.662532
C34	C	0.178144	-0.608536	0.609422
C35	C	0.199825	-0.586869	0.631088
C36	C	0.093821	-0.533842	0.966616
C37	C	0.072187	-0.555526	1.031630
C38	C	0.178370	-0.608608	1.031591
C39	C	0.200004	-0.586926	0.966576
C40	C	0.157728	-0.549541	0.934090
C41	C	0.423247	-0.549509	0.668416
C42	C	-0.097522	-0.709158	0.508557
C43	C	-0.002050	-0.709295	0.413344
C44	C	-0.002241	-0.804604	0.508735
C45	C	-0.002225	-0.709288	0.508793
C46	C	-0.026009	-0.733087	0.484858
N47	N	0.552340	-0.592538	0.625346
O48	O	0.750867	-0.598274	0.477076
O49	O	0.751048	-0.718989	0.640960
O50	O	0.750981	-0.718715	0.537020
O51	O	0.750934	-0.598547	0.581017
O52	O	0.647701	-0.684348	0.571512
O53	O	0.647768	-0.684622	0.675452
O54	O	0.647587	-0.563907	0.511569
Cu55	Cu	0.638247	-0.621127	0.596660
Cu56	Cu	0.760388	-0.661769	0.555869
O57	O	0.647654	-0.564181	0.615509
N58	N	0.846295	-0.690358	0.527176
N59	N	0.114503	-0.154778	0.625499
O60	O	-0.033701	0.043855	0.619632
O61	O	0.130190	0.043858	0.498933
O62	O	0.026233	0.043841	0.499224
O63	O	0.070257	0.043872	0.619341
O64	O	0.060690	-0.059448	0.533654
O65	O	0.164647	-0.059431	0.533363
O66	O	0.000756	-0.059434	0.654062
Cu67	Cu	0.085848	-0.068863	0.596857
Cu68	Cu	0.045099	0.053287	0.556138
O69	O	0.104714	-0.059417	0.653771
N70	N	0.016435	0.139202	0.527497
N71	N	0.114760	-0.592585	1.063190
O72	O	0.108896	-0.740779	1.261808
O73	O	-0.011787	-0.576838	1.261822
O74	O	-0.011509	-0.680779	1.261780
O75	O	0.108618	-0.636838	1.261850
O76	O	0.022916	-0.646341	1.158496
O77	O	0.022638	-0.542399	1.158538
O78	O	0.143321	-0.706341	1.158524
Cu79	Cu	0.086123	-0.621225	1.149100
Cu80	Cu	0.045411	-0.661953	1.271246
O81	O	0.143044	-0.602399	1.158566
N82	N	0.016774	-0.690600	1.357156
C83	C	0.039504	-0.538867	0.499769
C84	C	0.168130	-0.667407	0.499680
C85	C	0.091482	-0.744243	0.653289
C86	C	-0.037145	-0.615703	0.653378
C87	C	0.699429	-0.718429	0.678853
C88	C	0.699348	-0.718091	0.550135
C89	C	0.699202	-0.564465	0.473677
C90	C	0.699287	-0.564805	0.602393
C91	C	0.168023	-0.007659	0.499484
C92	C	0.039327	-0.007807	0.499887
C93	C	-0.037119	-0.007789	0.653468
C94	C	0.091620	-0.007770	0.653109
C95	C	-0.011194	-0.538964	1.210181
C96	C	-0.010843	-0.667676	1.210109
C97	C	0.142729	-0.744214	1.210165
C98	C	0.142386	-0.615494	1.210214
H99	H	0.059391	-0.503396	0.940172
O100	O	0.552448	-0.696202	0.664820
C101	C	0.616795	-0.706377	0.639068
H102	H	0.625654	-0.661634	0.601804
H103	H	0.635266	-0.721362	0.677115
C104	C	0.639284	-0.812644	0.655649
C105	C	0.650165	-0.757691	0.609876
H106	H	0.659869	-0.844298	0.637644
H107	H	0.595932	-0.805790	0.673000
H108	H	0.654676	-0.825123	0.687351
H109	H	0.634766	-0.745208	0.578180
H110	H	0.693515	-0.764544	0.592519
H111	H	-0.048566	-0.677061	1.210046
O112	O	0.219522	-0.644937	1.063051
C113	C	0.280567	-0.654131	1.020402
H114	H	0.280425	-0.646852	0.974060
H115	H	0.299192	-0.619533	1.013492
C116	C	0.322458	-0.729682	1.102666
C117	C	0.322284	-0.720747	1.045749
H118	H	0.348193	-0.770773	1.118302
H119	H	0.281331	-0.723486	1.131400
H120	H	0.337977	-0.700846	1.096900
H121	H	0.306758	-0.749577	1.051517
H122	H	0.363410	-0.726949	1.017017
O123	O	0.028076	-0.007711	0.454816
C124	C	0.034966	0.045769	0.402434
H125	H	0.028246	0.083169	0.417282
H126	H	0.083447	0.033672	0.367245
C127	C	-0.005668	0.024074	0.354456
C128	C	-0.013926	0.070011	0.372694
H129	H	-0.035824	0.039026	0.336109
H130	H	-0.010308	-0.011958	0.389746
H131	H	0.034735	0.013997	0.325135
H132	H	-0.054326	0.080081	0.402020
H133	H	-0.009294	0.106045	0.337408
O134	O	0.699573	-0.763719	0.734950
C135	C	0.753099	-0.816021	0.726732
H136	H	0.770901	-0.815312	0.677175
H137	H	0.790558	-0.814896	0.735622
C138	C	0.715051	-0.876499	0.833558
C139	C	0.736913	-0.875631	0.772693
H140	H	0.705069	-0.913270	0.861910
H141	H	0.678991	-0.841262	0.839096
H142	H	0.746271	-0.875559	0.840957
H143	H	0.705691	-0.876563	0.765293
H144	H	0.772968	-0.910869	0.767155
H145	H	0.180620	-0.791296	1.210154
H146	H	0.699366	-0.755841	0.540718
O147	O	0.187353	-0.604172	1.210203
C148	C	0.164730	-0.543129	1.210231
H149	H	0.124865	-0.513737	1.190672
H150	H	0.147410	-0.544044	1.259787
C151	C	0.266227	-0.551013	1.193766
C152	C	0.217267	-0.514913	1.169738
H153	H	0.298634	-0.533609	1.168790
H154	H	0.281468	-0.592141	1.193749
H155	H	0.251786	-0.551773	1.235061
H156	H	0.231706	-0.514160	1.128446
H157	H	0.202029	-0.473785	1.169747
H158	H	0.699142	-0.526565	0.426612
H159	H	-0.084239	-0.606419	0.691217
O160	O	0.699243	-0.519827	0.613733
C161	C	0.699314	-0.542457	0.674764
H162	H	0.679803	-0.582342	0.704146
H163	H	0.748875	-0.559755	0.673820
C164	C	0.682764	-0.440943	0.666926
C165	C	0.658796	-0.489927	0.703016
H166	H	0.657773	-0.408540	0.684354
H167	H	0.682718	-0.425697	0.625808
H168	H	0.724064	-0.455367	0.666143
H169	H	0.617500	-0.475505	0.703793
H170	H	0.658834	-0.505169	0.744136
O171	O	0.224112	-0.007398	0.454240
C172	C	0.271156	-0.060777	0.475223
H173	H	0.254241	-0.078810	0.528156
H174	H	0.282923	-0.098178	0.457448
C175	C	0.350273	-0.022057	0.385639
C176	C	0.329500	-0.044201	0.450652
H177	H	0.386264	-0.011834	0.370480
H178	H	0.318579	0.013905	0.371500
H179	H	0.360074	-0.053228	0.370834
H180	H	0.319692	-0.013028	0.465456
H181	H	0.361194	-0.080157	0.464792
O182	O	0.010085	-0.540184	1.063124
C183	C	-0.022583	-0.502548	1.020506
H184	H	0.008406	-0.478911	0.974160
H185	H	-0.036609	-0.532534	1.013591
C186	C	-0.119246	-0.481890	1.102820
C187	C	-0.081186	-0.452855	1.045899
H188	H	-0.155397	-0.451239	1.118485
H189	H	-0.097238	-0.507248	1.131534
H190	H	-0.130927	-0.506878	1.097050
H191	H	-0.069499	-0.427875	1.051671
H192	H	-0.103194	-0.427492	1.017187
H193	H	0.100832	-0.791364	0.691090
O194	O	-0.093317	-0.007750	0.698596
C195	C	-0.131973	-0.007772	0.676254
H196	H	-0.115164	0.011766	0.623355
H197	H	-0.130297	-0.057325	0.692056
C198	C	-0.219811	0.008751	0.766934
C199	C	-0.199170	0.032754	0.701962
H200	H	-0.261262	0.033747	0.782793
H201	H	-0.193768	0.008764	0.781988
H202	H	-0.218410	-0.032542	0.780093
H203	H	-0.200564	0.074043	0.688803
H204	H	-0.225215	0.032749	0.686906
O205	O	0.102974	-0.007799	0.698074
C206	C	0.164014	-0.007782	0.675445
H207	H	0.193381	-0.027332	0.635576
H208	H	0.163094	0.041770	0.658126
C209	C	0.156195	-0.024283	0.776943
C210	C	0.192266	-0.048299	0.727980
H211	H	0.173622	-0.049273	0.809349
H212	H	0.115071	-0.024292	0.792189
H213	H	0.155432	0.017010	0.762503
H214	H	0.193023	-0.089588	0.742418
H215	H	0.233392	-0.048298	0.712738
O216	O	-0.056321	-0.482742	1.210101
C217	C	-0.035095	-0.435930	1.156614
H218	H	0.017838	-0.453023	1.138791
H219	H	-0.052706	-0.424314	1.119144
C220	C	-0.124636	-0.356402	1.194769
C221	C	-0.059623	-0.377395	1.172882
H222	H	-0.139768	-0.320293	1.204803
H223	H	-0.138938	-0.387940	1.230804
H224	H	-0.139304	-0.346726	1.163541
H225	H	-0.044957	-0.387077	1.204113
H226	H	-0.045319	-0.345857	1.136853
O227	O	0.262066	-0.602141	0.934885
C228	C	0.272099	-0.574978	0.870537
H229	H	0.229429	-0.565173	0.861671
H230	H	0.280752	-0.529625	0.852091
C231	C	0.381419	-0.631856	0.848029
C232	C	0.329013	-0.619819	0.837139
H233	H	0.416528	-0.659514	0.827426
H234	H	0.374661	-0.650155	0.891381
H235	H	0.388622	-0.594058	0.832657
H236	H	0.321807	-0.657615	0.852518
H237	H	0.335772	-0.601527	0.793789
O238	O	0.052614	-0.497405	0.720428
C239	C	0.014996	-0.442882	0.687619
H240	H	0.040079	-0.433838	0.635603
H241	H	-0.030677	-0.448787	0.701467
C242	C	-0.029089	-0.398673	0.767223
C243	C	0.001721	-0.387561	0.703336
H244	H	-0.037280	-0.364548	0.776919
H245	H	-0.003747	-0.435407	0.789328
H246	H	-0.067147	-0.403595	0.778755
H247	H	0.039781	-0.382647	0.691806
H248	H	-0.023615	-0.350825	0.681229
O249	O	0.009897	-0.540293	0.677912
C250	C	-0.017068	-0.562534	0.743031
H251	H	0.019971	-0.602633	0.763967
H252	H	-0.037593	-0.523539	0.762302
C253	C	-0.114320	-0.536091	0.734136
C254	C	-0.068829	-0.585344	0.759850
H255	H	-0.146251	-0.550159	0.744511
H256	H	-0.096155	-0.521104	0.690264
H257	H	-0.131417	-0.503599	0.750198
H258	H	-0.051728	-0.617831	0.743782
H259	H	-0.086993	-0.600337	0.803719
H260	H	0.212545	-0.638970	0.578981
H261	H	0.251872	-0.599651	0.618278
O262	O	0.424231	-0.653517	0.707543
C263	C	0.440121	-0.683968	0.667752
H264	H	0.457964	-0.654360	0.617425
H265	H	0.477875	-0.730884	0.678220
C266	C	0.360459	-0.730215	0.739944
C267	C	0.382370	-0.693847	0.678131
H268	H	0.324837	-0.736312	0.746347
H269	H	0.349755	-0.709702	0.766753
H270	H	0.391926	-0.769308	0.748659
H271	H	0.350905	-0.654752	0.669418
H272	H	0.393067	-0.714354	0.651320
O273	O	0.552288	-0.488824	0.585726
C274	C	0.536360	-0.444681	0.532143
H275	H	0.518474	-0.464711	0.517211
H276	H	0.498627	-0.400853	0.542778
C277	C	0.616062	-0.404005	0.497754
C278	C	0.594099	-0.428609	0.479412
H279	H	0.651677	-0.394088	0.465227
H280	H	0.626792	-0.433743	0.533855
H281	H	0.584612	-0.367485	0.506617
H282	H	0.625546	-0.465132	0.470557
H283	H	0.583376	-0.398876	0.443308
O284	O	0.424058	-0.446153	0.628599
C285	C	0.359710	-0.435976	0.654374
H286	H	0.350829	-0.475711	0.657503
H287	H	0.341281	-0.433675	0.702827
C288	C	0.337217	-0.325489	0.609006
C289	C	0.326310	-0.374290	0.612845
H290	H	0.316613	-0.287437	0.583391
H291	H	0.380570	-0.332345	0.591643
H292	H	0.321859	-0.323580	0.649387
H293	H	0.341674	-0.376203	0.572466
H294	H	0.282959	-0.367432	0.630200
O295	O	0.209438	-0.282903	0.563518
C296	C	0.176590	-0.267002	0.525936
H297	H	0.124583	-0.249137	0.551056
H298	H	0.190405	-0.229256	0.480261
C299	C	0.256176	-0.346694	0.481798
C300	C	0.192300	-0.324757	0.512653
H301	H	0.265868	-0.382319	0.473602
H302	H	0.278308	-0.357406	0.507116
H303	H	0.267680	-0.315234	0.443740
H304	H	0.180798	-0.356214	0.550714
H305	H	0.170166	-0.314051	0.487341
O306	O	0.062208	-0.154895	0.730248
C307	C	0.053049	-0.197538	0.791304
H308	H	0.060317	-0.243882	0.791185
H309	H	0.087670	-0.204451	0.809912
C310	C	-0.022467	-0.115255	0.833168
C311	C	-0.013545	-0.172174	0.833023
H312	H	-0.063544	-0.099609	0.858904
H313	H	-0.016295	-0.086525	0.792034
H314	H	0.006388	-0.121024	0.848674
H315	H	-0.042394	-0.166403	0.817511
H316	H	-0.019724	-0.200902	0.874156
O317	O	0.166795	-0.154694	0.520868
C318	C	0.199526	-0.117094	0.505149
H319	H	0.187816	-0.107360	0.547992
H320	H	0.251558	-0.142144	0.487290
C321	C	0.195194	-0.067289	0.401610
C322	C	0.180807	-0.055329	0.454229
H323	H	0.183650	-0.029190	0.370198
H324	H	0.173144	-0.092622	0.412199
H325	H	0.238554	-0.088165	0.386735
H326	H	0.137448	-0.034460	0.469108
H327	H	0.202850	-0.029990	0.443641
H328	H	0.030155	-0.491745	0.461969
O329	O	0.105108	-0.283019	0.772841
C330	C	0.159762	-0.320590	0.788512
H331	H	0.200582	-0.330339	0.745661
H332	H	0.168918	-0.295507	0.806310
C333	C	0.101819	-0.370371	0.892106
C334	C	0.151954	-0.382349	0.839475
H335	H	0.097002	-0.408465	0.923544
H336	H	0.064996	-0.345057	0.881549
H337	H	0.109454	-0.349467	0.906929
H338	H	0.144314	-0.403245	0.824648
H339	H	0.188775	-0.407667	0.850031
O340	O	0.224352	-0.678574	0.454610
C341	C	0.262932	-0.739604	0.477059
H342	H	0.246073	-0.756047	0.529956
H343	H	0.261227	-0.771718	0.461324
C344	C	0.350861	-0.720481	0.386410
C345	C	0.330157	-0.740674	0.451380
H346	H	0.392329	-0.721143	0.370569
H347	H	0.324869	-0.679364	0.371284
H348	H	0.349434	-0.747246	0.373307
H349	H	0.331577	-0.713905	0.464483
H350	H	0.356151	-0.781787	0.466508
