data_functionalizedCrystal
_audit_creation_method	'MofGen! by Chris Wilmer'
_symmetry_space_group_name_H-M	'P1'
_symmetry_Int_Tables_number	1
_symmetry_cell_setting	triclinic
loop_
_symmetry_equiv_pos_as_xyz
  x,y,z
_cell_length_a	18.215407
_cell_length_b	19.077068
_cell_length_c	18.215399
_cell_angle_alpha	92.268164
_cell_angle_beta	89.980167
_cell_angle_gamma	92.327501
loop_
_atom_site_label
_atom_site_type_symbol
_atom_site_fract_x
_atom_site_fract_y
_atom_site_fract_z
Zn1	Zn	1.113288	-0.280200	-0.427869
Zn2	Zn	1.613288	0.219800	0.072131
Zn3	Zn	1.108246	-0.397902	-0.309739
Zn4	Zn	1.608246	0.102098	0.190261
Zn5	Zn	0.990220	-0.280223	-0.304817
Zn6	Zn	1.490220	0.219777	0.195183
Zn7	Zn	0.985238	-0.397863	-0.432763
Zn8	Zn	1.485238	0.102137	0.067237
O9	O	1.049248	-0.339047	-0.368797
O10	O	1.549248	0.160953	0.131203
O11	O	1.215603	-0.295821	-0.412210
O12	O	1.715603	0.204179	0.087790
O13	O	1.092565	-0.382318	-0.206103
O14	O	1.592565	0.117682	0.293897
O15	O	1.010740	-0.181729	-0.317032
O16	O	1.510740	0.318271	0.182968
O17	O	1.211899	-0.382295	-0.325421
O18	O	1.711899	0.117705	0.174579
O19	O	1.101157	-0.181712	-0.407437
O20	O	1.601157	0.318288	0.092563
O21	O	1.005851	-0.295860	-0.202487
O22	O	1.505851	0.204140	0.297513
O23	O	0.886575	-0.295822	-0.321777
O24	O	1.386575	0.204178	0.178223
O25	O	1.002249	-0.382229	-0.535097
O26	O	1.502249	0.117771	-0.035097
O27	O	0.882915	-0.382251	-0.415778
O28	O	1.382915	0.117749	0.084222
O29	O	1.096327	-0.295783	-0.531501
O30	O	1.596327	0.204217	-0.031501
O31	O	1.087734	-0.496388	-0.330167
O32	O	1.587734	0.003612	0.169833
O33	O	0.997361	-0.496359	-0.420551
O34	O	1.497361	0.003641	0.079449
C35	C	0.858042	-0.339035	-0.368775
C36	C	1.358042	0.160965	0.131225
C37	C	0.776243	-0.339047	-0.368784
C38	C	1.276243	0.160953	0.131216
C39	C	0.586159	-0.384121	-0.417674
C40	C	1.086159	0.115879	0.082326
C41	C	0.509301	-0.384124	-0.417684
C42	C	1.009301	0.115876	0.082316
C43	C	0.513088	-0.293986	-0.319936
C44	C	1.013088	0.206014	0.180064
C45	C	0.589945	-0.293980	-0.319931
C46	C	1.089945	0.206020	0.180069
C47	C	0.626479	-0.339052	-0.368799
C48	C	1.126479	0.160948	0.131201
C49	C	0.472763	-0.339060	-0.368814
C50	C	0.972763	0.160940	0.131186
C51	C	0.389429	-0.339062	-0.368823
C52	C	0.889429	0.160938	0.131177
C53	C	0.709818	-0.339050	-0.368791
C54	C	1.209818	0.160950	0.131209
C55	C	1.041480	-0.521911	-0.376440
C56	C	1.541480	-0.021911	0.123560
C57	C	1.038224	-0.600141	-0.379735
C58	C	1.538224	-0.100141	0.120265
C59	C	1.083783	-0.636886	-0.334263
C60	C	1.583783	-0.136886	0.165737
C61	C	1.080725	-0.710391	-0.337366
C62	C	1.580725	-0.210391	0.162634
C63	C	1.032104	-0.747151	-0.385937
C64	C	1.532104	-0.247151	0.114063
C65	C	0.986542	-0.710401	-0.431414
C66	C	1.486542	-0.210401	0.068586
C67	C	0.989604	-0.636897	-0.428314
C68	C	1.489604	-0.136897	0.071686
C69	C	1.017899	-0.966985	-0.400254
C70	C	1.517899	-0.466985	0.099746
C71	C	1.014839	-1.040495	-0.403348
C72	C	1.514839	-0.540495	0.096652
C73	C	1.109023	-1.040479	-0.309301
C74	C	1.609023	-0.540479	0.190699
C75	C	1.112078	-0.966974	-0.306202
C76	C	1.612078	-0.466974	0.193798
C77	C	1.066520	-0.930231	-0.351682
C78	C	1.566520	-0.430231	0.148318
N79	N	1.028975	-0.822285	-0.389109
N80	N	1.528975	-0.322285	0.110891
N81	N	1.069652	-0.855098	-0.348514
N82	N	1.569652	-0.355098	0.151486
C83	C	1.241200	-0.339060	-0.368819
C84	C	1.741200	0.160940	0.131181
C85	C	1.322999	-0.339065	-0.368828
C86	C	1.822999	0.160935	0.131172
C87	C	1.049295	-0.338999	-0.560748
C88	C	1.549295	0.161001	-0.060748
C89	C	1.049315	-0.338978	-0.642546
C90	C	1.549315	0.161022	-0.142546
C91	C	1.057067	-0.155469	-0.361140
C92	C	1.557067	0.344531	0.138860
C93	C	1.060398	-0.077239	-0.357877
C94	C	1.560398	0.422761	0.142123
C95	C	1.098320	-0.293923	-0.828867
C96	C	1.598320	0.206077	-0.328867
C97	C	1.098329	-0.293903	-0.905725
C98	C	1.598329	0.206097	-0.405725
C99	C	1.000366	-0.383924	-0.909458
C100	C	1.500366	0.116076	-0.409458
C101	C	1.000354	-0.383940	-0.832601
C102	C	1.500354	0.116060	-0.332601
C103	C	1.049335	-0.338941	-0.792308
C104	C	1.549335	0.161059	-0.292308
C105	C	1.049357	-0.338904	-0.946023
C106	C	1.549357	0.161096	-0.446023
C107	C	1.049367	-0.338882	-1.029355
C108	C	1.549367	0.161118	-0.529355
C109	C	1.049324	-0.338962	-0.708970
C110	C	1.549324	0.161038	-0.208970
C111	C	1.049246	-0.339045	-0.177591
C112	C	1.549246	0.160955	0.322409
C113	C	1.049377	-0.338867	-0.095785
C114	C	1.549377	0.161133	0.404215
H115	H	0.476476	-0.420822	-0.457484
H116	H	0.976476	0.079178	0.042516
C117	C	0.396952	-0.253970	-0.276541
C118	C	0.896952	0.246030	0.223459
C119	C	0.472927	-0.244447	-0.266219
C120	C	0.972927	0.255553	0.233781
H121	H	0.372161	-0.223389	-0.243374
H122	H	0.872161	0.276611	0.256626
H123	H	0.384815	-0.243730	-0.325573
H124	H	0.884815	0.256270	0.174427
H125	H	0.382352	-0.301249	-0.267665
H126	H	0.882352	0.198751	0.232335
H127	H	0.487528	-0.197169	-0.275100
H128	H	0.987528	0.302831	0.224900
H129	H	0.485069	-0.254682	-0.217176
H130	H	0.985069	0.245318	0.282824
H131	H	0.615903	-0.420820	-0.457468
H132	H	1.115903	0.079180	0.042532
C133	C	0.893759	-0.703028	-0.524070
C134	C	1.393759	-0.203028	-0.024070
C135	C	0.933098	-0.750805	-0.484809
C136	C	1.433098	-0.250805	0.015191
H137	H	0.860768	-0.727972	-0.557037
H138	H	1.360768	-0.227972	-0.057037
H139	H	0.866820	-0.674405	-0.490774
H140	H	1.366820	-0.174405	0.009226
H141	H	0.927013	-0.674313	-0.551035
H142	H	1.427013	-0.174313	-0.051035
H143	H	0.899845	-0.779517	-0.457839
H144	H	1.399845	-0.279517	0.042161
H145	H	0.960040	-0.779441	-0.518109
H146	H	1.460040	-0.279441	-0.018109
H147	H	0.960459	-0.420598	-0.802834
H148	H	1.460459	0.079402	-0.302834
C149	C	0.585975	-0.204886	-0.223302
C150	C	1.085975	0.295114	0.276698
C151	C	0.634271	-0.244439	-0.266200
C152	C	1.134271	0.255561	0.233800
H153	H	0.613341	-0.174305	-0.190131
H154	H	1.113341	0.325695	0.309869
H155	H	0.557154	-0.178003	-0.254287
H156	H	1.057154	0.321997	0.245713
H157	H	0.554684	-0.235526	-0.196383
H158	H	1.054684	0.264474	0.303617
H159	H	0.665558	-0.213798	-0.293123
H160	H	1.165558	0.286202	0.206877
H161	H	0.663105	-0.271323	-0.235211
H162	H	1.163105	0.228677	0.264789
C163	C	0.922059	-1.033131	-0.496019
C164	C	1.422059	-0.533131	0.003981
C165	C	0.961397	-1.080903	-0.456750
C166	C	1.461397	-0.580903	0.043250
H167	H	0.889072	-1.058079	-0.528987
H168	H	1.389072	-0.558079	-0.028987
H169	H	0.895114	-1.004507	-0.462728
H170	H	1.395114	-0.504507	0.037272
H171	H	0.955314	-1.004416	-0.522983
H172	H	1.455314	-0.504416	-0.022983
H173	H	0.928142	-1.109615	-0.429781
H174	H	1.428142	-0.609615	0.070219
H175	H	0.988343	-1.109539	-0.490045
H176	H	1.488343	-0.609539	0.009955
H177	H	0.952506	-0.606981	-0.465343
H178	H	1.452506	-0.106981	0.034657
C179	C	1.144001	-1.063172	-0.185676
C180	C	1.644001	-0.563172	0.314324
C181	C	1.159104	-1.080872	-0.259320
C182	C	1.659104	-0.580872	0.240680
H183	H	1.174919	-1.088114	-0.154822
H184	H	1.674919	-0.588114	0.345178
H185	H	1.152787	-1.014142	-0.176882
H186	H	1.652787	-0.514142	0.323118
H187	H	1.094056	-1.075269	-0.175376
H188	H	1.594056	-0.575269	0.324624
H189	H	1.209048	-1.068771	-0.269621
H190	H	1.709048	-0.568771	0.230379
H191	H	1.150324	-1.129914	-0.268118
H192	H	1.650324	-0.629914	0.231882
C193	C	1.087706	-0.793253	-0.241997
C194	C	1.587706	-0.293253	0.258003
C195	C	1.130867	-0.750846	-0.287505
C196	C	1.630867	-0.250846	0.212495
H197	H	1.118684	-0.818249	-0.211255
H198	H	1.618684	-0.318249	0.288745
H199	H	1.056915	-0.764667	-0.212498
H200	H	1.556915	-0.264667	0.287502
H201	H	1.058258	-0.825610	-0.271380
H202	H	1.558258	-0.325610	0.228620
H203	H	1.160311	-0.718485	-0.258122
H204	H	1.660311	-0.218485	0.241878
H205	H	1.161671	-0.779434	-0.317007
H206	H	1.661671	-0.279434	0.182993
C207	C	1.011051	-0.884285	-0.495762
C208	C	1.511051	-0.384285	0.004238
C209	C	0.967813	-0.926609	-0.450241
C210	C	1.467813	-0.426609	0.049759
H211	H	0.980126	-0.859361	-0.526626
H212	H	1.480126	-0.359361	-0.026626
H213	H	1.040437	-0.851870	-0.466397
H214	H	1.540437	-0.351870	0.033603
H215	H	1.041905	-0.912923	-0.525144
H216	H	1.541905	-0.412923	-0.025144
H217	H	0.936963	-0.897970	-0.420854
H218	H	1.436963	-0.397970	0.079146
H219	H	0.938415	-0.959027	-0.479609
H220	H	1.438415	-0.459027	0.020391
C221	C	1.195146	-0.204934	-0.832900
C222	C	1.695146	0.295066	-0.332900
C223	C	1.152151	-0.244454	-0.784576
C224	C	1.652151	0.255546	-0.284576
H225	H	1.228375	-0.174389	-0.805556
H226	H	1.728375	0.325611	-0.305556
H227	H	1.221996	-0.235592	-0.864157
H228	H	1.721996	0.264408	-0.364157
H229	H	1.164221	-0.178009	-0.861751
H230	H	1.664221	0.321991	-0.361751
H231	H	1.183075	-0.271383	-0.755728
H232	H	1.683075	0.228617	-0.255728
H233	H	1.125298	-0.213792	-0.753305
H234	H	1.625298	0.286208	-0.253305
C235	C	1.112594	-0.199202	-0.988199
C236	C	1.612594	0.300798	-0.488199
C237	C	1.152175	-0.244414	-0.945908
C238	C	1.652175	0.255586	-0.445908
H239	H	1.145838	-0.168645	-1.013000
H240	H	1.645838	0.331355	-0.513000
H241	H	1.083438	-0.225998	-1.023197
H242	H	1.583438	0.274002	-0.523197
H243	H	1.081672	-0.172293	-0.957077
H244	H	1.581672	0.327707	-0.457077
H245	H	1.183093	-0.271328	-0.977030
H246	H	1.683093	0.228672	-0.477030
H247	H	1.181343	-0.217616	-0.910906
H248	H	1.681343	0.282384	-0.410906
H249	H	1.151670	-0.937045	-0.266652
H250	H	1.651670	-0.437045	0.233348
C251	C	1.120646	-0.614315	-0.208726
C252	C	1.620646	-0.114315	0.291274
C253	C	1.137230	-0.596483	-0.280870
C254	C	1.637230	-0.096483	0.219130
H255	H	1.153647	-0.589376	-0.175765
H256	H	1.653647	-0.089376	0.324235
H257	H	1.071712	-0.602311	-0.197409
H258	H	1.571712	-0.102311	0.302591
H259	H	1.125344	-0.663352	-0.204076
H260	H	1.625344	-0.163352	0.295924
H261	H	1.132527	-0.547447	-0.285522
H262	H	1.632527	-0.047447	0.214478
H263	H	1.186176	-0.608482	-0.292191
H264	H	1.686176	-0.108482	0.207809
C265	C	0.956891	-0.423874	-1.028932
C266	C	1.456891	0.076126	-0.528932
C267	C	0.946534	-0.433391	-0.953752
C268	C	1.446534	0.066609	-0.453752
H269	H	0.923660	-0.454418	-1.056275
H270	H	1.423660	0.045582	-0.556275
H271	H	0.948133	-0.376587	-1.039553
H272	H	1.448133	0.123413	-0.539553
H273	H	1.005904	-0.434174	-1.041958
H274	H	1.505904	0.065826	-0.541958
H275	H	0.897522	-0.423085	-0.940725
H276	H	1.397522	0.076915	-0.440725
H277	H	0.955287	-0.480688	-0.943127
H278	H	1.455287	0.019312	-0.443127
