data_functionalizedCrystal
_audit_creation_method	'MofGen! by Chris Wilmer'
_symmetry_space_group_name_H-M	'P1'
_symmetry_Int_Tables_number	1
_symmetry_cell_setting	triclinic
loop_
_symmetry_equiv_pos_as_xyz
  x,y,z
_cell_length_a	12.759401
_cell_length_b	11.169416
_cell_length_c	12.759393
_cell_angle_alpha	90.028644
_cell_angle_beta	90.018496
_cell_angle_gamma	90.010501
loop_
_atom_site_label
_atom_site_type_symbol
_atom_site_fract_x
_atom_site_fract_y
_atom_site_fract_z
Zn1	Zn	1.606287	-0.477731	0.594003
Zn2	Zn	1.606195	-0.678464	0.418332
Zn3	Zn	1.430589	-0.477794	0.418342
Zn4	Zn	1.430591	-0.678372	0.593973
O5	O	1.518416	-0.578090	0.506162
O6	O	1.753296	-0.504371	0.570708
O7	O	1.582861	-0.651910	0.271312
O8	O	1.453934	-0.309836	0.441660
O9	O	1.753228	-0.651849	0.441643
O10	O	1.583018	-0.309790	0.570718
O11	O	1.453844	-0.504478	0.271320
O12	O	1.283568	-0.504389	0.441632
O13	O	1.453937	-0.651691	0.740998
O14	O	1.283570	-0.651752	0.570667
O15	O	1.583020	-0.504282	0.741020
O16	O	1.582863	-0.846401	0.441614
O17	O	1.453848	-0.846333	0.570657
C18	C	1.245448	-0.578068	0.506148
C19	C	1.128672	-0.578088	0.506167
C20	C	1.073838	-0.654943	0.573245
C21	C	0.964114	-0.654958	0.573256
C22	C	0.964067	-0.501260	0.439103
C23	C	1.073789	-0.501239	0.439098
C24	C	1.073864	-0.743683	0.650694
C25	C	0.964140	-0.743698	0.650705
C26	C	1.518374	-0.889915	0.506154
C27	C	1.518452	-1.023315	0.506186
C28	C	1.792449	-0.578113	0.506177
C29	C	1.909226	-0.578123	0.506184
C30	C	1.518489	-0.577969	0.780196
C31	C	1.518521	-0.577917	0.896973
C32	C	1.518486	-0.265048	0.506193
C33	C	1.518516	-0.131648	0.506207
C34	C	1.518403	-0.578124	0.233195
C35	C	1.518575	-0.577838	0.116419
C36	C	1.585743	-0.501154	0.951848
C37	C	1.585768	-0.501111	1.061572
C38	C	1.451345	-0.654605	1.061536
C39	C	1.451315	-0.654641	0.951814
C40	C	1.663355	-0.412539	0.951869
C41	C	1.663380	-0.412496	1.061593
H42	H	0.930140	-0.710519	0.728055
C43	C	1.391573	-0.722840	0.783604
C44	C	1.377413	-0.739010	0.891493
H45	H	1.345941	-0.774923	0.746367
H46	H	1.462143	-0.740431	0.765628
H47	H	1.376218	-0.642199	0.765648
H48	H	1.392775	-0.819650	0.909450
H49	H	1.306827	-0.721427	0.909476
C50	C	1.786120	-0.574847	0.939799
C51	C	1.767674	-0.457506	0.905917
H52	H	1.850526	-0.602605	0.911434
H53	H	1.730677	-0.625173	0.916790
H54	H	1.789685	-0.576338	1.014153
H55	H	1.764102	-0.456017	0.831563
H56	H	1.823132	-0.407167	0.928921
H57	H	1.744752	-0.437390	1.091373
H58	H	1.118431	-0.438649	0.384484
H59	H	1.107884	-0.831932	0.621413
C60	C	0.975042	-0.349330	0.306503
C61	C	0.903737	-0.416793	0.365380
H62	H	0.937797	-0.297179	0.260993
H63	H	1.017815	-0.401559	0.266235
H64	H	1.017862	-0.303482	0.352354
H65	H	0.860923	-0.462648	0.319528
H66	H	0.860946	-0.364557	0.405651
C67	C	1.598261	-0.215015	1.025843
C68	C	1.624091	-0.293273	1.107563
H69	H	1.574010	-0.141413	1.054226
H70	H	1.544743	-0.249754	0.983940
H71	H	1.658519	-0.200789	0.983952
H72	H	1.563830	-0.307505	1.149450
H73	H	1.677612	-0.258526	1.149483
H74	H	1.103671	-0.718894	0.732099
C75	C	1.009263	-0.945206	0.603118
C76	C	0.923915	-0.869141	0.621095
H77	H	0.984427	-1.022643	0.584833
H78	H	1.050643	-0.950340	0.664846
H79	H	1.050593	-0.914229	0.547469
H80	H	0.882589	-0.900114	0.676750
H81	H	0.882518	-0.864011	0.559361
C82	C	1.391704	-0.722706	1.229718
C83	C	1.377484	-0.738946	1.121822
H84	H	1.346110	-0.774785	1.266932
H85	H	1.376347	-0.642070	1.247706
H86	H	1.462299	-0.740272	1.247691
H87	H	1.306891	-0.721372	1.103848
H88	H	1.392834	-0.819602	1.103826
H89	H	1.641580	-0.319593	0.922109
