data_functionalizedCrystal
_audit_creation_method	'MofGen! by Chris Wilmer'
_symmetry_space_group_name_H-M	'P1'
_symmetry_Int_Tables_number	1
_symmetry_cell_setting	triclinic
loop_
_symmetry_equiv_pos_as_xyz
  x,y,z
_cell_length_a	10.723024
_cell_length_b	10.723024
_cell_length_c	9.198806
_cell_angle_alpha	89.997988
_cell_angle_beta	89.996352
_cell_angle_gamma	84.467869
loop_
_atom_site_label
_atom_site_type_symbol
_atom_site_fract_x
_atom_site_fract_y
_atom_site_fract_z
O1	O	1.657188	0.175024	-0.120879
O2	O	1.294035	0.191778	-0.120884
O3	O	1.483988	0.001825	-0.120876
O4	O	1.467235	0.364977	-0.120887
O5	O	1.483973	0.001824	0.120909
O6	O	1.294020	0.191777	0.120901
O7	O	1.657173	0.175024	0.120906
Cu8	Cu	1.475595	0.183401	0.142981
Cu9	Cu	1.475613	0.183401	-0.142958
O10	O	1.467220	0.364977	0.120898
C11	C	1.247528	0.190558	0.000008
C12	C	1.108974	0.186911	0.000007
C13	C	1.033991	0.293198	0.000002
C14	C	0.890788	0.289431	0.000001
C15	C	1.482762	-0.044675	0.000015
C16	C	1.479114	-0.183229	0.000010
C17	C	1.585401	-0.258212	0.000009
C18	C	1.581634	-0.401415	0.000004
C19	C	1.703680	0.176243	0.000011
C20	C	1.842234	0.179891	0.000003
C21	C	1.468447	0.411477	0.000004
C22	C	1.472094	0.550031	-0.000000
N23	N	1.475592	0.183399	0.344095
N24	N	1.475626	0.183393	-0.344072
C25	C	1.555347	0.103292	0.416295
C26	C	1.555367	0.103288	0.583707
H27	H	0.906659	0.088896	-0.000003
O28	O	1.059240	0.074942	-0.000186
C29	C	1.099406	0.006669	-0.125427
H30	H	1.190034	0.041324	-0.167176
H31	H	1.024223	0.020580	-0.213112
C32	C	1.011108	-0.176081	-0.036111
C33	C	1.122425	-0.133523	-0.087381
H34	H	1.025301	-0.262559	-0.012647
H35	H	0.984042	-0.130083	0.048263
H36	H	0.948466	-0.164477	-0.109191
H37	H	1.185059	-0.145113	-0.014295
H38	H	1.149501	-0.179526	-0.171743
H39	H	1.672624	-0.465848	0.000010
O40	O	1.393988	0.265168	0.582035
C41	C	1.270168	0.244113	0.619118
H42	H	1.269698	0.196112	0.729668
H43	H	1.230928	0.181702	0.533493
C44	C	1.189135	0.429221	0.490177
C45	C	1.188556	0.370274	0.625963
H46	H	1.138789	0.507041	0.494393
H47	H	1.272554	0.443404	0.465189
H48	H	1.156437	0.377198	0.418838
H49	H	1.221267	0.422289	0.697296
H50	H	1.105139	0.356102	0.650963
H51	H	1.679187	-0.216390	0.000019
H52	H	1.075814	0.386984	0.000008
H53	H	1.381099	-0.385544	0.000010
O54	O	1.367298	-0.233257	-0.000190
C55	C	1.358613	-0.307715	-0.125436
H56	H	1.456725	-0.339160	-0.167184
H57	H	1.303833	-0.250740	-0.213119
C58	C	1.170089	-0.384914	-0.036131
C59	C	1.290593	-0.423544	-0.087400
H60	H	1.128126	-0.456360	-0.012673
H61	H	1.175937	-0.334746	0.048247
H62	H	1.124455	-0.337434	-0.109209
H63	H	1.336229	-0.471009	-0.014316
H64	H	1.284751	-0.473722	-0.171766
H65	H	1.623653	0.034709	0.645796
H66	H	1.623611	0.034707	0.354171
H67	H	1.407319	0.251975	0.406220
H68	H	0.826355	0.380421	-0.000009
