data_functionalizedCrystal
_audit_creation_method	'MofGen! by Chris Wilmer'
_symmetry_space_group_name_H-M	'P1'
_symmetry_Int_Tables_number	1
_symmetry_cell_setting	triclinic
loop_
_symmetry_equiv_pos_as_xyz
  x,y,z
_cell_length_a	16.120530
_cell_length_b	12.827893
_cell_length_c	12.827885
_cell_angle_alpha	90.025051
_cell_angle_beta	92.918515
_cell_angle_gamma	87.099477
loop_
_atom_site_label
_atom_site_type_symbol
_atom_site_fract_x
_atom_site_fract_y
_atom_site_fract_z
Zn1	Zn	1.274699	-0.497104	0.671871
Zn2	Zn	1.274644	-0.671877	0.497143
Zn3	Zn	1.135276	-0.488282	0.488287
Zn4	Zn	1.135293	-0.662932	0.662989
O5	O	1.204978	-0.580049	0.580072
O6	O	1.391360	-0.527724	0.656117
O7	O	1.256126	-0.647575	0.349730
O8	O	1.153787	-0.343217	0.512651
O9	O	1.391319	-0.656129	0.527744
O10	O	1.256221	-0.349698	0.647530
O11	O	1.153733	-0.512688	0.343223
O12	O	1.018610	-0.504014	0.504038
O13	O	1.153816	-0.640882	0.810405
O14	O	1.018623	-0.632328	0.632391
O15	O	1.256237	-0.519049	0.816931
O16	O	1.256143	-0.816926	0.519131
O17	O	1.153762	-0.810353	0.640978
C18	C	0.988366	-0.566243	0.566290
C19	C	0.895698	-0.560363	0.560419
C20	C	1.204971	-0.851558	0.580076
C21	C	1.205044	-0.967716	0.580117
C22	C	1.205035	-0.579952	0.852646
C23	C	1.205059	-0.579911	0.968801
C24	C	0.726033	-0.549602	0.549708
C25	C	0.684763	-0.610572	0.610513
C26	C	0.590356	-0.604585	0.604554
C27	C	0.820449	-0.555588	0.555666
C28	C	1.422436	-0.593908	0.593909
C29	C	1.515104	-0.599815	0.599806
C30	C	1.205008	-0.307480	0.580093
C31	C	1.205021	-0.191328	0.580102
C32	C	1.154344	-0.136337	0.513371
C33	C	1.154356	-0.016287	0.513378
C34	C	1.204969	-0.580073	0.308562
C35	C	1.205107	-0.579830	0.192418
C36	C	1.255746	-0.519612	1.023815
C37	C	1.255772	-0.519568	1.143867
H38	H	0.720333	-0.667266	0.667047
H39	H	0.690465	-0.492912	0.493179
F40	F	1.097614	-0.190961	0.438695
F41	F	1.097650	0.045506	0.438696
F42	F	1.261761	-0.029503	0.654793
H43	H	1.248413	-0.149533	0.637243
F44	F	1.148358	-0.647342	1.023402
F45	F	1.312426	-0.452153	0.969213
F46	F	1.312498	-0.452094	1.205687
F47	F	1.148386	-0.647317	1.130606
