data_functionalizedCrystal
_audit_creation_method	'MofGen! by Chris Wilmer'
_symmetry_space_group_name_H-M	'P1'
_symmetry_Int_Tables_number	1
_symmetry_cell_setting	triclinic
loop_
_symmetry_equiv_pos_as_xyz
  x,y,z
_cell_length_a	12.759401
_cell_length_b	18.050588
_cell_length_c	12.759393
_cell_angle_alpha	89.966433
_cell_angle_beta	89.981433
_cell_angle_gamma	90.028605
loop_
_atom_site_label
_atom_site_type_symbol
_atom_site_fract_x
_atom_site_fract_y
_atom_site_fract_z
Zn1	Zn	1.606147	-0.295635	-0.593969
Zn2	Zn	1.605996	-0.419845	-0.418283
Zn3	Zn	1.430449	-0.295671	-0.418308
Zn4	Zn	1.430392	-0.419785	-0.593924
O5	O	1.518246	-0.357734	-0.506121
O6	O	1.753148	-0.312121	-0.570672
O7	O	1.582670	-0.403413	-0.271265
O8	O	1.453843	-0.191742	-0.441639
O9	O	1.753037	-0.403378	-0.441596
O10	O	1.582927	-0.191715	-0.570696
O11	O	1.453696	-0.312183	-0.271283
O12	O	1.283420	-0.312125	-0.441596
O13	O	1.453746	-0.403276	-0.740951
O14	O	1.283378	-0.403312	-0.570620
O15	O	1.582872	-0.312063	-0.740984
O16	O	1.582614	-0.523762	-0.441553
O17	O	1.453599	-0.523718	-0.570595
C18	C	1.245278	-0.357717	-0.506106
C19	C	1.128502	-0.357727	-0.506125
C20	C	1.073691	-0.310299	-0.573439
C21	C	0.963967	-0.310313	-0.573445
C22	C	0.963875	-0.405189	-0.438821
C23	C	1.073597	-0.405171	-0.438810
C24	C	1.073743	-0.255525	-0.651166
C25	C	0.964019	-0.255540	-0.651173
C26	C	1.518113	-0.550686	-0.506089
C27	C	1.518152	-0.633232	-0.506111
C28	C	1.448104	-0.882061	-0.576285
C29	C	1.543904	-0.832589	-0.602061
C30	C	1.518370	-0.930352	-0.506169
C31	C	1.422467	-0.832742	-0.480414
C32	C	1.518258	-0.784367	-0.506143
C33	C	1.614222	-0.881968	-0.531996
C34	C	1.492720	-0.882125	-0.410303
C35	C	1.588587	-0.832676	-0.436043
C36	C	1.518433	-1.014450	-0.506187
C37	C	1.518205	-0.700271	-0.506125
C38	C	1.792279	-0.357752	-0.506136
C39	C	1.909056	-0.357760	-0.506143
C40	C	1.518319	-0.357659	-0.780154
C41	C	1.518351	-0.357627	-0.896931
C42	C	1.518408	-0.164028	-0.506175
C43	C	1.518477	-0.081483	-0.506199
C44	C	1.585596	-0.310128	-0.951812
C45	C	1.585621	-0.310101	-1.061536
C46	C	1.451152	-0.405079	-1.061489
C47	C	1.451123	-0.405101	-0.951767
C48	C	1.663234	-0.255296	-0.951840
C49	C	1.663259	-0.255269	-1.061564
C50	C	1.518233	-0.357755	-0.233153
C51	C	1.518405	-0.357578	-0.116377
H52	H	1.103531	-0.197984	-0.629515
Br53	Br	1.287370	-0.796693	-0.444123
Br54	Br	1.147981	-0.469514	-0.347416
Br55	Br	1.359917	-0.469504	-1.135915
Br56	Br	1.130519	-0.289969	-0.779894
H57	H	1.641486	-0.197781	-0.922087
H58	H	0.934268	-0.271017	-0.732508
Br59	Br	0.907302	-0.164442	-0.602836
Br60	Br	1.580002	-0.796328	-0.737166
Br61	Br	1.349264	-0.918204	-0.675200
Br62	Br	1.792010	-0.289660	-0.895099
Br63	Br	1.359837	-0.469552	-0.877287
Br64	Br	1.749364	-0.917854	-0.568439
Br65	Br	0.889354	-0.469573	-0.347467
Br66	Br	1.456583	-0.918418	-0.275233
H67	H	1.634165	-0.200621	-1.095615
Br68	Br	1.798871	-0.280931	-1.111206
Br69	Br	1.687655	-0.796759	-0.337195
