data_functionalizedCrystal
_audit_creation_method	'MofGen! by Chris Wilmer'
_symmetry_space_group_name_H-M	'P1'
_symmetry_Int_Tables_number	1
_symmetry_cell_setting	triclinic
loop_
_symmetry_equiv_pos_as_xyz
  x,y,z
_cell_length_a	13.897449
_cell_length_b	29.839131
_cell_length_c	13.897441
_cell_angle_alpha	89.958174
_cell_angle_beta	89.981404
_cell_angle_gamma	90.036508
loop_
_atom_site_label
_atom_site_type_symbol
_atom_site_fract_x
_atom_site_fract_y
_atom_site_fract_z
Zn1	Zn	1.474565	-0.178828	-0.545299
Zn2	Zn	1.807898	0.154505	-0.211966
Zn3	Zn	2.141231	0.487839	0.121367
Zn4	Zn	1.474415	-0.253962	-0.383966
Zn5	Zn	1.807749	0.079372	-0.050633
Zn6	Zn	2.141082	0.412705	0.282700
Zn7	Zn	1.313260	-0.178848	-0.384018
Zn8	Zn	1.646593	0.154485	-0.050684
Zn9	Zn	1.979927	0.487819	0.282649
Zn10	Zn	1.313186	-0.253933	-0.545219
Zn11	Zn	1.646520	0.079400	-0.211886
Zn12	Zn	1.979853	0.412733	0.121448
O13	O	1.393857	-0.216393	-0.464626
O14	O	1.727190	0.116941	-0.131292
O15	O	2.060523	0.450274	0.202041
O16	O	1.609527	-0.188798	-0.523910
O17	O	1.942860	0.144535	-0.190577
O18	O	2.276193	0.477869	0.142756
O19	O	1.453006	-0.244018	-0.248992
O20	O	1.786339	0.089315	0.084342
O21	O	2.119673	0.422649	0.417675
O22	O	1.334751	-0.115978	-0.405467
O23	O	1.668084	0.217355	-0.072134
O24	O	2.001417	0.550688	0.261199
O25	O	1.609417	-0.243998	-0.405380
O26	O	1.942750	0.089335	-0.072046
O27	O	2.276083	0.422668	0.261287
O28	O	1.453261	-0.115964	-0.523960
O29	O	1.786594	0.217370	-0.190627
O30	O	2.119927	0.550703	0.142707
O31	O	1.334606	-0.188832	-0.249029
O32	O	1.667939	0.144501	0.084304
O33	O	2.001272	0.477834	0.417637
O34	O	1.178268	-0.188805	-0.405389
O35	O	1.511602	0.144528	-0.072056
O36	O	1.844935	0.477862	0.261277
O37	O	1.334625	-0.243950	-0.680211
O38	O	1.667958	0.089383	-0.346878
O39	O	2.001292	0.422716	-0.013545
O40	O	1.178214	-0.243970	-0.523823
O41	O	1.511548	0.089364	-0.190490
O42	O	1.844881	0.422697	0.142843
O43	O	1.453189	-0.188771	-0.680270
O44	O	1.786523	0.144563	-0.346937
O45	O	2.119856	0.477896	-0.013604
O46	O	1.452935	-0.316825	-0.405302
O47	O	1.786268	0.016508	-0.071968
O48	O	2.119601	0.349842	0.261365
O49	O	1.334480	-0.316804	-0.523773
O50	O	1.667814	0.016529	-0.190440
O51	O	2.001147	0.349862	0.142893
C52	C	1.143242	-0.216387	-0.464604
C53	C	1.476576	0.116947	-0.131270
C54	C	1.809909	0.450280	0.202063
C55	C	1.036028	-0.216395	-0.464617
C56	C	1.369362	0.116938	-0.131284
C57	C	1.702695	0.450272	0.202050
C58	C	0.839733	-0.216397	-0.464642
C59	C	1.173066	0.116937	-0.131309
C60	C	1.506400	0.450270	0.202024
C61	C	0.948966	-0.216394	-0.464626
C62	C	1.282299	0.116939	-0.131292
C63	C	1.615632	0.450272	0.202041
C64	C	1.393709	-0.333115	-0.464544
C65	C	1.727043	0.000218	-0.131211
C66	C	2.060376	0.333551	0.202122
C67	C	1.393735	-0.383050	-0.464542
C68	C	1.727068	-0.049716	-0.131208
C69	C	2.060401	0.283617	0.202125
C70	C	1.455551	-0.692651	-0.526413
C71	C	1.788885	-0.359317	-0.193079
C72	C	2.122218	-0.025984	0.140254
C73	C	1.455656	-0.880324	-0.526471
C74	C	1.788989	-0.546990	-0.193137
C75	C	2.122323	-0.213657	0.140196
O76	O	1.508070	-0.904552	-0.579015
O77	O	1.841404	-0.571219	-0.245682
O78	O	2.174737	-0.237886	0.087651
N79	N	1.394020	-0.903835	-0.464733
N80	N	1.727354	-0.570501	-0.131399
N81	N	2.060687	-0.237168	0.201934
C82	C	1.332350	-0.880425	-0.402980
C83	C	1.665683	-0.547092	-0.069647
C84	C	1.999016	-0.213758	0.263687
O85	O	1.279920	-0.904729	-0.350476
O86	O	1.613254	-0.571396	-0.017143
O87	O	1.946587	-0.238062	0.316190
C88	C	1.332241	-0.692753	-0.402928
C89	C	1.665574	-0.359419	-0.069594
C90	C	1.998908	-0.026086	0.263739
C91	C	1.393887	-0.669244	-0.464663
C92	C	1.727221	-0.335911	-0.131330
C93	C	2.060554	-0.002577	0.202004
C94	C	1.517192	-0.669142	-0.588144
C95	C	1.850525	-0.335808	-0.254810
C96	C	2.183859	-0.002475	0.078523
C97	C	1.517169	-0.622226	-0.588125
C98	C	1.850502	-0.288893	-0.254792
C99	C	2.183836	0.044440	0.078542
C100	C	1.455505	-0.598820	-0.526375
C101	C	1.788838	-0.265486	-0.193042
C102	C	2.122172	0.067847	0.140291
C103	C	1.393864	-0.622328	-0.464644
C104	C	1.727198	-0.288995	-0.131311
C105	C	2.060531	0.044338	0.202022
C106	C	1.270566	-0.669344	-0.341181
C107	C	1.603899	-0.336010	-0.007848
C108	C	1.937233	-0.002677	0.325486
C109	C	1.270543	-0.622423	-0.341175
C110	C	1.603876	-0.289089	-0.007842
C111	C	1.937209	0.044244	0.325492
C112	C	1.332189	-0.598914	-0.402910
C113	C	1.665523	-0.265581	-0.069577
C114	C	1.998856	0.067753	0.263756
C115	C	1.332177	-0.552006	-0.402876
C116	C	1.665511	-0.218673	-0.069542
C117	C	1.998844	0.114660	0.263791
N118	N	1.393813	-0.528495	-0.464614
N119	N	1.727146	-0.195162	-0.131280
N120	N	2.060480	0.138171	0.202053
C121	C	1.455477	-0.551902	-0.526363
C122	C	1.788810	-0.218569	-0.193030
C123	C	2.122143	0.114765	0.140303
C124	C	1.332413	-0.978955	-0.403011
C125	C	1.665746	-0.645622	-0.069677
C126	C	1.999079	-0.312289	0.263656
C127	C	1.332441	-1.025873	-0.403022
C128	C	1.665774	-0.692540	-0.069689
C129	C	1.999107	-0.359207	0.263644
C130	C	1.455746	-1.025769	-0.526515
C131	C	1.789079	-0.692435	-0.193181
C132	C	2.122413	-0.359102	0.140152
C133	C	1.455722	-0.978850	-0.526497
C134	C	1.789055	-0.645517	-0.193164
C135	C	2.122389	-0.312183	0.140169
C136	C	1.394048	-0.955444	-0.464749
C137	C	1.727381	-0.622111	-0.131415
C138	C	2.060715	-0.288778	0.201918
C139	C	1.455424	-0.453376	-0.526319
C140	C	1.788758	-0.120043	-0.192985
C141	C	2.122091	0.213291	0.140348
C142	C	1.455399	-0.406456	-0.526292
C143	C	1.788732	-0.073123	-0.192958
C144	C	2.122065	0.260210	0.140375
C145	C	1.332090	-0.406565	-0.402803
C146	C	1.665424	-0.073232	-0.069470
C147	C	1.998757	0.260102	0.263863
C148	C	1.332119	-0.453481	-0.402827
C149	C	1.665452	-0.120147	-0.069493
C150	C	1.998786	0.213186	0.263840
C151	C	1.393789	-0.476885	-0.464592
C152	C	1.727123	-0.143552	-0.131259
C153	C	2.060456	0.189782	0.202075
O154	O	1.279783	-0.527749	-0.350366
O155	O	1.613116	-0.194416	-0.017033
O156	O	1.946449	0.138918	0.316300
O157	O	1.507883	-0.527590	-0.578874
O158	O	1.841217	-0.194256	-0.245541
O159	O	2.174550	0.139077	0.087792
C160	C	1.455574	-0.739566	-0.526432
C161	C	1.788908	-0.406233	-0.193098
C162	C	2.122241	-0.072899	0.140235
C163	C	1.393934	-0.763075	-0.464701
C164	C	1.727267	-0.429741	-0.131367
C165	C	2.060600	-0.096408	0.201966
C166	C	1.332270	-0.739668	-0.402951
C167	C	1.665603	-0.406335	-0.069618
C168	C	1.998936	-0.073002	0.263716
C169	C	1.393962	-0.809993	-0.464712
C170	C	1.727295	-0.476659	-0.131379
C171	C	2.060628	-0.143326	0.201954
C172	C	1.455626	-0.833399	-0.526462
C173	C	1.788959	-0.500066	-0.193129
C174	C	2.122292	-0.166733	0.140205
C175	C	1.517261	-0.809888	-0.588200
C176	C	1.850595	-0.476555	-0.254867
C177	C	2.183928	-0.143221	0.078466
C178	C	1.517238	-0.762973	-0.588181
C179	C	1.850571	-0.429639	-0.254848
C180	C	2.183905	-0.096306	0.078485
C181	C	1.270634	-0.763179	-0.341213
C182	C	1.603968	-0.429846	-0.007879
C183	C	1.937301	-0.096513	0.325454
C184	C	1.270663	-0.810095	-0.341236
C185	C	1.603996	-0.476762	-0.007903
C186	C	1.937330	-0.143428	0.325431
C187	C	1.332327	-0.833502	-0.402986
C188	C	1.665660	-0.500168	-0.069652
C189	C	1.998994	-0.166835	0.263681
C190	C	1.645449	-0.216399	-0.464648
C191	C	1.978783	0.116934	-0.131315
C192	C	2.312116	0.450268	0.202018
C193	C	1.752663	-0.216402	-0.464658
C194	C	2.085997	0.116932	-0.131325
C195	C	2.419330	0.450265	0.202009
C196	C	1.393916	-0.216355	-0.716219
C197	C	1.727249	0.116978	-0.382885
C198	C	2.060582	0.450312	-0.049552
C199	C	1.393941	-0.216339	-0.823433
C200	C	1.727274	0.116994	-0.490099
C201	C	2.060607	0.450328	-0.156766
C202	C	1.394030	-0.099214	-0.464728
C203	C	1.727364	0.234119	-0.131395
C204	C	2.060697	0.567452	0.201938
C205	C	1.394105	-0.049280	-0.464772
C206	C	1.727438	0.284053	-0.131439
C207	C	2.060771	0.617387	0.201895
C208	C	1.393961	-0.216326	-0.910503
C209	C	1.727294	0.117007	-0.577169
C210	C	2.060627	0.450340	-0.243836
C211	C	1.393988	-0.216306	-1.019735
C212	C	1.727322	0.117027	-0.686402
C213	C	2.060655	0.450361	-0.353069
C214	C	1.393853	-0.216398	-0.214011
C215	C	1.727187	0.116935	0.119322
C216	C	2.060520	0.450269	0.452655
C217	C	1.394015	-0.216287	-0.106798
C218	C	1.727348	0.117046	0.226535
C219	C	2.060682	0.450379	0.559869
H220	H	1.505602	-0.387317	-0.576564
H221	H	1.838935	-0.053984	-0.243230
H222	H	2.172269	0.279350	0.090103
O223	O	1.521938	-0.478618	-0.592932
O224	O	1.855271	-0.145284	-0.259599
O225	O	2.188605	0.188049	0.073734
H226	H	1.597645	-0.469589	-0.576443
H227	H	1.930979	-0.136256	-0.243109
H228	H	2.264312	0.197078	0.090224
O229	O	1.265964	-1.051224	-0.336418
O230	O	1.599297	-0.717891	-0.003085
O231	O	1.932631	-0.384558	0.330248
H232	H	1.276343	-1.087783	-0.346785
H233	H	1.609676	-0.754449	-0.013452
H234	H	1.943010	-0.421116	0.319881
H235	H	1.567364	-0.603088	-0.638398
H236	H	1.900697	-0.269755	-0.305064
H237	H	2.234030	0.063579	0.028269
O238	O	1.265653	-0.478843	-0.336226
O239	O	1.598986	-0.145510	-0.002893
O240	O	1.932319	0.187824	0.330441
H241	H	1.216565	-0.500224	-0.379357
H242	H	1.549898	-0.166890	-0.046024
H243	H	1.883231	0.166443	0.287310
H244	H	1.220367	-0.688477	-0.290909
H245	H	1.553700	-0.355143	0.042424
H246	H	1.887034	-0.021810	0.375758
H247	H	1.220317	-0.603368	-0.290893
H248	H	1.553651	-0.270035	0.042440
H249	H	1.886984	0.063299	0.375774
O250	O	1.583710	-0.694384	-0.654747
O251	O	1.917043	-0.361051	-0.321414
O252	O	2.250376	-0.027718	0.011920
H253	H	1.626565	-0.670147	-0.697658
H254	H	1.959898	-0.336814	-0.364325
H255	H	2.293232	-0.003481	-0.030992
O256	O	1.522244	-1.051020	-0.593129
O257	O	1.855577	-0.717687	-0.259796
O258	O	2.188910	-0.384353	0.073537
H259	H	1.571353	-1.072398	-0.550015
H260	H	1.904687	-0.739064	-0.216682
H261	H	2.238020	-0.405731	0.116651
H262	H	1.282189	-0.959902	-0.352725
H263	H	1.615522	-0.626568	-0.019392
H264	H	1.948856	-0.293235	0.313941
H265	H	1.220465	-0.829232	-0.290955
H266	H	1.553798	-0.495898	0.042379
H267	H	1.887131	-0.162565	0.375712
H268	H	1.505919	-0.959712	-0.576768
H269	H	1.839252	-0.626379	-0.243434
H270	H	2.172586	-0.293045	0.089899
O271	O	1.265580	-0.381316	-0.336205
O272	O	1.598913	-0.047982	-0.002872
O273	O	1.932247	0.285351	0.330462
H274	H	1.275918	-0.344742	-0.346578
H275	H	1.609252	-0.011409	-0.013245
H276	H	1.942585	0.321925	0.320088
O277	O	1.583738	-0.737619	-0.654757
O278	O	1.917071	-0.404285	-0.321424
O279	O	2.250405	-0.070952	0.011909
H280	H	1.626614	-0.761784	-0.697693
H281	H	1.959948	-0.428450	-0.364360
H282	H	2.293281	-0.095117	-0.031027
O283	O	1.204136	-0.737936	-0.274594
O284	O	1.537470	-0.404603	0.058739
O285	O	1.870803	-0.071269	0.392072
H286	H	1.161295	-0.762171	-0.231664
H287	H	1.494628	-0.428838	0.101669
H288	H	1.827962	-0.095505	0.435002
H289	H	1.567474	-0.828954	-0.638476
H290	H	1.900807	-0.495621	-0.305143
H291	H	2.234140	-0.162287	0.028191
