data_functionalizedCrystal
_audit_creation_method	'MofGen! by Chris Wilmer'
_symmetry_space_group_name_H-M	'P1'
_symmetry_Int_Tables_number	1
_symmetry_cell_setting	triclinic
loop_
_symmetry_equiv_pos_as_xyz
  x,y,z
_cell_length_a	15.297475
_cell_length_b	15.297327
_cell_length_c	15.296720
_cell_angle_alpha	107.319222
_cell_angle_beta	88.382886
_cell_angle_gamma	88.374454
loop_
_atom_site_label
_atom_site_type_symbol
_atom_site_fract_x
_atom_site_fract_y
_atom_site_fract_z
Zn1	Zn	1.116342	0.695081	0.823122
Zn2	Zn	1.116246	0.823682	0.694497
Zn3	Zn	1.005113	0.644908	0.644396
Zn4	Zn	0.946204	0.814903	0.814406
O5	O	1.045976	0.744644	0.744105
O6	O	1.234042	0.736812	0.830675
O7	O	1.126118	0.782644	0.562870
O8	O	1.044561	0.526600	0.650785
O9	O	1.233972	0.831295	0.736174
O10	O	1.126281	0.563461	0.782095
O11	O	1.044469	0.651299	0.526062
O12	O	0.879585	0.642787	0.642333
O13	O	0.944159	0.816332	0.940543
O14	O	0.836305	0.767682	0.767239
O15	O	1.069159	0.728299	0.946946
O16	O	1.068996	0.947482	0.727722
O17	O	0.944066	0.941032	0.815819
C18	C	0.827423	0.698838	0.698404
C19	C	0.733917	0.679267	0.678877
C20	C	1.000147	0.976666	0.776286
C21	C	0.980613	1.075946	0.790099
C22	C	0.380296	0.884531	0.883671
C23	C	0.468149	0.902925	0.902016
C24	C	0.534595	0.847012	0.846233
C25	C	0.513180	0.772701	0.772102
C26	C	0.425318	0.754309	0.753750
C27	C	0.579617	0.716791	0.716312
C28	C	0.558202	0.642480	0.642181
C29	C	0.470348	0.624091	0.623833
C30	C	0.403902	0.680004	0.679616
C31	C	0.667479	0.735183	0.734664
C32	C	0.712501	0.604961	0.604743
C33	C	0.624648	0.586567	0.586398
C34	C	1.000098	0.776933	0.977057
C35	C	0.980548	0.790693	1.076327
C36	C	1.265382	0.790629	0.789986
C37	C	1.358880	0.810225	0.809537
C38	C	1.092003	0.511723	0.711823
C39	C	1.111617	0.412466	0.698067
C40	C	1.185880	1.369169	0.645759
C41	C	1.204235	1.275889	0.632777
C42	C	1.148331	1.225899	0.672106
C43	C	1.074069	1.269198	0.724420
C44	C	1.055710	1.362485	0.737398
C45	C	1.018160	1.219215	0.763745
C46	C	0.943898	1.262513	0.816059
C47	C	0.925542	1.355791	0.829035
C48	C	0.981446	1.405781	0.789706
C49	C	1.036520	1.125928	0.750767
C50	C	0.906349	1.119243	0.842406
C51	C	0.887995	1.212523	0.855389
C52	C	1.091736	0.712426	0.512061
C53	C	1.111499	0.698449	0.412791
C54	C	1.185768	0.646151	1.369491
C55	C	1.204141	0.633225	1.276224
C56	C	1.148244	0.672591	1.226245
C57	C	1.073971	0.724884	1.269543
C58	C	1.055600	0.737817	1.362821
C59	C	1.018076	0.764257	1.219575
C60	C	0.943803	0.816551	1.262873
C61	C	0.925434	0.829480	1.356142
C62	C	0.981331	0.790115	1.406121
C63	C	1.036448	0.751324	1.126296
C64	C	0.906280	0.842991	1.119626
C65	C	0.887906	0.855916	1.212894
H66	H	0.684906	0.795687	0.795023
H67	H	0.864962	0.872070	1.391395
C68	C	1.285835	0.575704	1.228598
C69	C	1.347320	0.532400	1.283566
C70	C	1.429019	0.474875	1.235938
C71	C	1.449232	0.460654	1.133343
C72	C	1.387745	0.503959	1.078369
C73	C	1.306047	0.561484	1.125996
H74	H	1.332358	0.542927	1.359518
H75	H	1.474535	0.442819	1.276634
H76	H	1.509710	0.418070	1.098086
H77	H	1.402707	0.493432	1.002417
H78	H	1.260530	0.593541	1.085300
C79	C	0.491705	0.984661	0.983556
C80	C	0.588343	1.004899	1.003738
C81	C	0.611898	1.086641	1.085282
C82	C	0.538816	1.148145	1.146643
C83	C	0.442171	1.127909	1.126462
C84	C	0.418616	1.046167	1.044919
H85	H	0.642448	0.959369	0.958314
H86	H	0.683441	1.101621	1.100221
H87	H	0.556253	1.208656	1.207007
H88	H	0.388066	1.173439	1.171887
H89	H	0.347073	1.031187	1.029980
C90	C	1.168588	1.123313	0.657884
C91	C	1.255005	1.092184	0.690748
C92	C	1.275301	0.989604	0.676552
C93	C	1.209179	0.918153	0.629492
C94	C	1.122756	0.949280	0.596624
C95	C	1.102460	1.051859	0.610820
H96	H	1.303958	1.145078	0.725588
H97	H	1.339277	0.966563	0.700883
H98	H	1.224202	0.842217	0.618983
H99	H	1.073803	0.896385	0.561784
H100	H	1.038484	1.074901	0.586489
H101	H	0.827530	1.247790	0.897983
C102	C	0.631235	0.867239	0.866414
C103	C	0.691934	0.794782	0.887753
C104	C	0.788578	0.815009	0.907940
C105	C	0.824522	0.907693	0.906788
C106	C	0.763822	0.980155	0.885449
C107	C	0.667179	0.959928	0.865262
H108	H	0.665327	0.726167	0.888606
H109	H	0.833512	0.761367	0.923736
H110	H	0.896064	0.922666	0.921732
H111	H	0.790430	1.048771	0.884596
H112	H	0.622245	1.013571	0.849465
C113	C	1.247365	1.424152	0.602493
C114	C	1.344081	1.432303	0.628049
C115	C	1.405570	1.487285	0.584775
C116	C	1.370343	1.534116	0.515944
C117	C	1.273623	1.525968	0.490385
C118	C	1.212134	1.470986	0.533659
H119	H	1.370162	1.397634	0.679005
H120	H	1.477169	1.493317	0.603696
H121	H	1.415861	1.574817	0.483910
H122	H	1.247541	1.560636	0.439429
H123	H	1.140535	1.464954	0.514738
H124	H	0.966375	0.800636	1.482068
H125	H	0.827432	0.898494	1.248160
H126	H	0.966508	1.481738	0.800276
H127	H	1.163209	0.662064	1.150302
H128	H	0.326190	0.930052	0.929077
H129	H	0.860765	0.875047	1.078934
C130	C	1.118140	0.693799	1.078673
C131	C	1.128810	0.592622	1.075999
C132	C	1.210507	0.535091	1.028376
C133	C	1.281534	0.578736	0.983427
C134	C	1.270866	0.679918	0.986099
C135	C	1.189170	0.737449	1.033722
H136	H	1.076230	0.560308	1.109274
H137	H	1.218403	0.460189	1.026398
H138	H	1.342011	0.536148	0.948173
H139	H	1.323447	0.712232	0.952824
H140	H	1.181273	0.812351	1.035700
H141	H	0.332363	0.665029	0.664685
H142	H	0.607199	0.526062	0.526039
H143	H	0.452917	0.563590	0.563462
C144	C	0.785582	0.543448	0.543374
C145	C	0.852173	0.491418	0.585088
C146	C	0.925257	0.429912	0.523722
C147	C	0.931752	0.420436	0.420642
C148	C	0.865159	0.472468	0.378923
C149	C	0.792074	0.533974	0.440289
H150	H	0.847367	0.498431	0.661399
H151	H	0.974554	0.391395	0.554605
H152	H	0.985854	0.374906	0.375215
H153	H	0.869964	0.465455	0.302612
H154	H	0.742778	0.572491	0.409405
H155	H	1.096984	1.090683	0.708172
H156	H	1.264697	1.240639	0.590182
C157	C	0.843850	1.403416	0.886574
C158	C	0.752187	1.369615	0.857440
C159	C	0.670494	1.417237	0.914978
C160	C	0.680465	1.498658	1.001651
C161	C	0.772132	1.532463	1.030790
C162	C	0.853825	1.484842	0.973252
H163	H	0.744802	1.309339	0.793275
H164	H	0.602636	1.392212	0.893408
H165	H	0.619991	1.533910	1.044245
H166	H	0.779517	1.592739	1.094955
H167	H	0.921683	1.509866	0.994822
H168	H	0.860826	1.078541	0.874430
H169	H	1.231275	0.614111	1.410194
