data_functionalizedCrystal
_audit_creation_method	'MofGen! by Chris Wilmer'
_symmetry_space_group_name_H-M	'P1'
_symmetry_Int_Tables_number	1
_symmetry_cell_setting	triclinic
loop_
_symmetry_equiv_pos_as_xyz
  x,y,z
_cell_length_a	15.944551
_cell_length_b	15.944493
_cell_length_c	18.366186
_cell_angle_alpha	89.999635
_cell_angle_beta	89.995445
_cell_angle_gamma	83.486891
loop_
_atom_site_label
_atom_site_type_symbol
_atom_site_fract_x
_atom_site_fract_y
_atom_site_fract_z
O1	O	1.114507	0.108336	-0.060464
O2	O	0.869955	0.121693	-0.060481
O3	O	0.998934	-0.007264	-0.060478
O4	O	0.985527	0.237293	-0.060467
O5	O	0.998912	-0.007270	0.060621
O6	O	0.869933	0.121686	0.060618
O7	O	1.114485	0.108330	0.060635
Zn8	Zn	0.992205	0.115007	0.079854
Zn9	Zn	0.992234	0.115016	-0.079700
O10	O	0.985505	0.237286	0.060632
C11	C	0.838650	0.121135	0.000066
C12	C	0.745404	0.119473	0.000059
C13	C	0.998375	-0.038562	0.000068
C14	C	0.996733	-0.131810	0.000059
C15	C	0.530565	0.035566	0.000070
C16	C	0.469547	0.074533	-0.059637
C17	C	0.574679	0.116465	0.000068
C18	C	0.469548	0.074546	0.059758
C19	C	0.409767	0.113555	0.000079
C20	C	0.514890	0.155454	-0.059688
C21	C	0.514897	0.155456	0.059760
C22	C	0.453897	0.194481	0.000039
C23	C	0.669681	0.118140	0.000061
C24	C	0.314766	0.111886	0.000081
C25	C	1.072653	-0.367570	0.000078
C26	C	1.031723	-0.418135	-0.059633
C27	C	0.993688	-0.302531	0.000068
C28	C	1.031683	-0.418117	0.059762
C29	C	0.990754	-0.467441	0.000079
C30	C	0.952780	-0.351868	-0.059692
C31	C	0.952751	-0.351847	0.059756
C32	C	0.911763	-0.402379	0.000030
C33	C	0.995381	-0.207531	0.000060
C34	C	0.989055	-0.562438	0.000081
C35	C	1.145790	0.108887	0.000086
C36	C	1.239036	0.110550	0.000089
C37	C	0.986064	0.268584	0.000084
C38	C	0.987707	0.361833	0.000089
N39	N	0.992192	0.115001	0.188745
N40	N	0.992255	0.115015	-0.188591
C41	C	1.049323	0.057927	0.226847
C42	C	1.049328	0.057923	0.303075
C43	C	0.992210	0.115008	0.341198
C44	C	0.935069	0.172086	0.303087
C45	C	0.935059	0.172082	0.226861
C46	C	0.981194	0.191508	0.461961
C47	C	0.981209	0.191513	0.538186
C48	C	0.992234	0.115018	0.576305
C49	C	1.003262	0.038516	0.538190
C50	C	1.003253	0.038512	0.461964
C51	C	0.992214	0.115018	0.423853
C52	C	1.049374	0.057936	0.697062
C53	C	1.049374	0.057931	0.773291
C54	C	0.935118	0.172101	0.773302
C55	C	0.935115	0.172099	0.697074
C56	C	0.992247	0.115017	0.658959
H57	H	0.563912	-0.031574	-0.000007
H58	H	1.140671	-0.351942	0.000023
H59	H	0.534879	0.189648	-0.110220
Br60	Br	0.897219	-0.303557	0.143892
Br61	Br	1.126907	-0.019540	0.825005
Br62	Br	1.087317	-0.466377	-0.143765
H63	H	0.449454	0.040318	-0.110118
H64	H	0.919460	-0.323046	-0.110227
H65	H	0.843692	-0.417845	-0.000007
H66	H	0.420724	0.261690	0.000009
H67	H	0.535012	0.189642	0.110243
H68	H	1.065038	-0.447051	0.110239
H69	H	1.095841	0.011446	0.195815
H70	H	0.888597	0.218577	0.666050
H71	H	0.449460	0.040311	0.110233
H72	H	1.095852	0.011445	0.334103
H73	H	1.012230	-0.023778	0.430934
Br74	Br	1.018236	-0.065306	0.589913
Br75	Br	1.126907	-0.019534	0.645332
H76	H	0.888609	0.218577	0.804341
Br77	Br	0.966252	0.295336	0.589906
Br78	Br	0.966314	0.295335	0.410236
Br79	Br	0.857545	0.249553	0.354823
H80	H	0.888535	0.218560	0.195838
