data_functionalizedCrystal
_audit_creation_method	'MofGen! by Chris Wilmer'
_symmetry_space_group_name_H-M	'P1'
_symmetry_Int_Tables_number	1
_symmetry_cell_setting	triclinic
loop_
_symmetry_equiv_pos_as_xyz
  x,y,z
_cell_length_a	13.330367
_cell_length_b	19.288864
_cell_length_c	14.853567
_cell_angle_alpha	83.385589
_cell_angle_beta	89.999156
_cell_angle_gamma	89.978603
loop_
_atom_site_label
_atom_site_type_symbol
_atom_site_fract_x
_atom_site_fract_y
_atom_site_fract_z
O1	O	0.083737	-0.921731	-0.112462
O2	O	0.083667	-0.719522	-0.127634
O3	O	0.083707	-0.826028	0.011213
O4	O	0.083697	-0.815225	-0.251308
O5	O	-0.083140	-0.826012	0.011216
O6	O	-0.083180	-0.719506	-0.127631
O7	O	-0.083110	-0.921716	-0.112459
Cu8	Cu	-0.098379	-0.820609	-0.120045
Cu9	Cu	0.098937	-0.820628	-0.120048
O10	O	-0.083150	-0.815210	-0.251305
C11	C	0.000235	-0.693636	-0.127144
C12	C	0.000209	-0.616527	-0.125679
N13	N	-0.237161	-0.820602	-0.120042
C14	C	0.000286	-0.825530	0.044800
C15	C	0.000294	-0.824064	0.144875
C16	C	-0.709801	-0.773465	-0.181505
C17	C	-0.709734	-0.867809	-0.058584
C18	C	-0.604716	-0.867802	-0.058581
C19	C	-0.552235	-0.820625	-0.120042
C20	C	-0.604773	-0.773457	-0.181506
C21	C	-0.552170	-0.914974	0.002875
C22	C	-0.447145	-0.914968	0.002880
C23	C	-0.394663	-0.867788	-0.058578
C24	C	-0.447207	-0.820617	-0.120043
C25	C	-0.394727	-0.773441	-0.181504
C26	C	-0.447269	-0.726266	-0.242966
C27	C	-0.552291	-0.726277	-0.242964
C28	C	-0.289641	-0.867778	-0.058581
C29	C	-0.289699	-0.773433	-0.181505
N30	N	0.237718	-0.820641	-0.120044
C31	C	0.000324	-0.947601	-0.112949
C32	C	0.000357	-1.024710	-0.114414
C33	C	0.000222	-0.572106	-0.207147
C34	C	0.000233	-0.499654	-0.205770
C35	C	0.000251	-0.471627	-0.122920
C36	C	0.000233	-0.516058	-0.041441
C37	C	0.000212	-0.588508	-0.042820
C38	C	0.058741	-0.363151	-0.057792
C39	C	0.058769	-0.290701	-0.056417
C40	C	0.000312	-0.248167	-0.118664
C41	C	-0.058159	-0.278089	-0.182302
C42	C	-0.058180	-0.350539	-0.183681
C43	C	0.000274	-0.393068	-0.121416
C44	C	0.000335	-0.125185	-0.198645
C45	C	0.000340	-0.052732	-0.197265
C46	C	0.000351	-0.069138	-0.032933
C47	C	0.000336	-0.141589	-0.034316
C48	C	0.000333	-0.169608	-0.117174
C49	C	0.000273	-0.815707	-0.284893
C50	C	0.000272	-0.817174	-0.384968
C51	C	0.000251	-0.754596	0.557014
C52	C	0.000295	-0.881128	0.579015
C53	C	0.000302	-0.882507	0.484989
C54	C	0.000281	-0.819930	0.426971
C55	C	0.000255	-0.755974	0.462979
C56	C	0.000318	-0.946462	0.448973
C57	C	0.000323	-0.947844	0.354942
C58	C	0.000310	-0.885266	0.296923
C59	C	0.000285	-0.821307	0.332936
C60	C	0.000265	-0.758730	0.274918
C61	C	0.000246	-0.694770	0.310930
C62	C	0.000242	-0.693396	0.404960
C63	C	0.000315	-0.886641	0.202893
C64	C	0.000268	-0.760107	0.180883
H65	H	-0.404528	-0.687858	-0.293012
H66	H	-0.595078	-0.687869	-0.293005
C67	C	-0.389353	-0.966867	0.070466
H68	H	-0.319289	-0.960114	0.061657
H69	H	-0.406563	-0.959287	0.130619
H70	H	-0.406542	-1.013228	0.060801
H71	H	0.000221	-0.594914	-0.274617
C72	C	0.000315	-0.949957	0.642830
H73	H	0.000313	-0.939976	0.703988
H74	H	-0.057856	-0.976174	0.631938
H75	H	0.058518	-0.976180	0.631945
H76	H	0.000202	-0.624677	0.023524
C77	C	0.000262	-0.450782	-0.295389
H78	H	0.000266	-0.477846	-0.344932
H79	H	-0.057907	-0.422149	-0.298276
H80	H	0.058467	-0.422208	-0.298252
H81	H	0.000226	-0.641323	0.434289
C82	C	0.000331	-0.956985	0.163278
H83	H	0.000326	-0.948844	0.098968
H84	H	0.058518	-0.982765	0.183212
H85	H	-0.057856	-0.982743	0.183204
C86	C	0.000223	-0.625938	0.247109
H87	H	0.000206	-0.587648	0.282018
H88	H	0.058402	-0.623855	0.209967
H89	H	-0.057972	-0.623843	0.209976
C90	C	0.000250	-0.691273	0.117067
H91	H	0.000261	-0.701251	0.055908
H92	H	-0.057938	-0.665043	0.127956
H93	H	0.058436	-0.665063	0.127958
C94	C	-0.122498	-0.383456	-0.253668
H95	H	-0.114130	-0.432695	-0.245575
H96	H	-0.191087	-0.372348	-0.245518
H97	H	-0.101941	-0.365639	-0.313094
H98	H	0.000339	-0.999924	0.325630
C99	C	-0.231844	-0.919662	0.009015
H100	H	-0.161781	-0.912904	0.000211
H101	H	-0.249064	-0.912071	0.069161
H102	H	-0.249021	-0.966028	-0.000635
H103	H	0.000325	-0.997409	0.496218
C104	C	-0.231978	-0.721540	-0.249116
H105	H	-0.278314	-0.693452	-0.285721
H106	H	-0.191024	-0.692596	-0.216783
H107	H	-0.190997	-0.746561	-0.286569
C108	C	-0.767591	-0.721579	-0.249111
H109	H	-0.837656	-0.728339	-0.240314
H110	H	-0.750408	-0.675215	-0.239475
H111	H	-0.750373	-0.729182	-0.309258
C112	C	-0.767459	-0.919699	0.009017
H113	H	-0.837532	-0.912946	0.000217
H114	H	-0.750214	-0.966061	-0.000617
H115	H	-0.750258	-0.912092	0.069164
C116	C	0.000355	-0.003868	-0.286885
H117	H	0.000359	-0.030935	-0.336426
H118	H	-0.057821	0.024758	-0.289769
H119	H	0.058553	0.024713	-0.289757
H120	H	-0.594903	-0.953387	0.052911
H121	H	-0.105761	-0.243459	-0.232989
C122	C	0.000322	-0.156009	-0.289783
H123	H	0.000317	-0.119174	-0.338108
H124	H	0.058499	-0.183952	-0.293739
H125	H	-0.057875	-0.183910	-0.293734
C126	C	0.000255	-0.485235	0.049693
H127	H	0.000237	-0.522070	0.098018
H128	H	0.058447	-0.457337	0.053648
H129	H	-0.057926	-0.457290	0.053646
H130	H	0.000428	-0.046319	0.034525
C131	C	0.123044	-0.409935	0.010684
H132	H	0.114650	-0.457369	0.000756
H133	H	0.191640	-0.397299	0.002987
H134	H	0.102492	-0.404007	0.070559
C135	C	0.000227	-0.684246	0.596622
H136	H	0.000223	-0.692385	0.660932
H137	H	0.058400	-0.658481	0.576689
H138	H	-0.057974	-0.658475	0.576690
C139	C	0.000336	-0.190457	0.055298
H140	H	0.000315	-0.237619	0.042611
H141	H	0.058525	-0.181976	0.089282
H142	H	-0.057849	-0.181932	0.089284
C143	C	0.123079	-0.257794	0.013584
H144	H	0.157874	-0.293502	0.050470
H145	H	0.170094	-0.226438	-0.017038
H146	H	0.080933	-0.233149	0.050521
