data_functionalizedCrystal
_audit_creation_method	'MofGen! by Chris Wilmer'
_symmetry_space_group_name_H-M	'P1'
_symmetry_Int_Tables_number	1
_symmetry_cell_setting	triclinic
loop_
_symmetry_equiv_pos_as_xyz
  x,y,z
_cell_length_a	12.645331
_cell_length_b	18.101397
_cell_length_c	18.101389
_cell_angle_alpha	89.978953
_cell_angle_beta	89.980659
_cell_angle_gamma	90.020680
loop_
_atom_site_label
_atom_site_type_symbol
_atom_site_fract_x
_atom_site_fract_y
_atom_site_fract_z
Zn1	Zn	1.620674	-0.294903	-0.418727
Zn2	Zn	2.120674	0.205097	0.081273
Zn3	Zn	1.620558	-0.418729	-0.294880
Zn4	Zn	2.120558	0.081271	0.205120
Zn5	Zn	1.443400	-0.294906	-0.294899
Zn6	Zn	1.943400	0.205094	0.205101
Zn7	Zn	1.443362	-0.418708	-0.418679
Zn8	Zn	1.943362	0.081292	0.081321
O9	O	1.531999	-0.356811	-0.356796
O10	O	2.031999	0.143189	0.143204
O11	O	1.769006	-0.311336	-0.402310
O12	O	2.269006	0.188664	0.097690
O13	O	1.597025	-0.402313	-0.191249
O14	O	2.097025	0.097687	0.308751
O15	O	1.466980	-0.191273	-0.311353
O16	O	1.966980	0.308727	0.188647
O17	O	1.768921	-0.402310	-0.311320
O18	O	2.268921	0.097690	0.188680
O19	O	1.597223	-0.191271	-0.402329
O20	O	2.097223	0.308729	0.097671
O21	O	1.466867	-0.311341	-0.191263
O22	O	1.966867	0.188659	0.308737
O23	O	1.295047	-0.311321	-0.311306
O24	O	1.795047	0.188679	0.188694
O25	O	1.466916	-0.402275	-0.522318
O26	O	1.966916	0.097725	-0.022318
O27	O	1.295020	-0.402278	-0.402247
O28	O	1.795020	0.097722	0.097753
O29	O	1.597186	-0.311316	-0.522353
O30	O	2.097186	0.188684	-0.022353
O31	O	1.596988	-0.522359	-0.311274
O32	O	2.096988	-0.022359	0.188726
O33	O	1.466803	-0.522343	-0.402229
O34	O	1.966803	-0.022343	0.097771
C35	C	1.256569	-0.356798	-0.356774
C36	C	1.756569	0.143202	0.143226
C37	C	1.138739	-0.356810	-0.356782
C38	C	1.638739	0.143190	0.143218
C39	C	1.093839	-0.299500	-0.299665
C40	C	1.593839	0.200500	0.200335
C41	C	0.971279	-0.299289	-0.299860
C42	C	1.471279	0.200711	0.200140
C43	C	0.970904	-0.336013	-0.434962
C44	C	1.470904	0.163987	0.065038
C45	C	1.093502	-0.335585	-0.434605
C46	C	1.593502	0.164415	0.065395
C47	C	1.093520	-0.435088	-0.336458
C48	C	1.593520	0.064912	0.163542
C49	C	0.970912	-0.434679	-0.334763
C50	C	1.470912	0.065321	0.165237
C51	C	1.531908	-0.549222	-0.356760
C52	C	2.031908	-0.049222	0.143240
C53	C	1.531966	-0.631536	-0.356769
C54	C	2.031966	-0.131536	0.143231
C55	C	1.532101	-0.930627	-0.356837
C56	C	2.032101	-0.430627	0.143163
C57	C	1.613782	-0.899281	-0.299457
C58	C	2.113782	-0.399281	0.200543
C59	C	1.614065	-0.813662	-0.299606
C60	C	2.114065	-0.313662	0.200394
C61	C	1.532034	-0.782244	-0.356803
C62	C	2.032034	-0.282244	0.143197
C63	C	1.562318	-0.813265	-0.434864
C64	C	2.062318	-0.313265	0.065136
C65	C	1.562950	-0.898909	-0.434551
C66	C	2.062950	-0.398909	0.065449
C67	C	1.419919	-0.899133	-0.336831
C68	C	1.919919	-0.399133	0.163169
C69	C	1.420473	-0.813483	-0.335089
C70	C	1.920473	-0.313483	0.164911
C71	C	1.531995	-0.698385	-0.356788
C72	C	2.031995	-0.198385	0.143212
C73	C	1.532144	-1.014486	-0.356857
C74	C	2.032144	-0.514486	0.143143
C75	C	1.808504	-0.356825	-0.356818
C76	C	2.308504	0.143175	0.143182
C77	C	1.926334	-0.356831	-0.356828
C78	C	2.426334	0.143169	0.143172
C79	C	1.532060	-0.356793	-0.549958
C80	C	2.032060	0.143207	-0.049958
C81	C	1.532086	-0.356785	-0.632272
C82	C	2.032086	0.143215	-0.132272
C83	C	1.532119	-0.163649	-0.356848
C84	C	2.032119	0.336351	0.143152
C85	C	1.532170	-0.081335	-0.356870
C86	C	2.032170	0.418665	0.143130
C87	C	1.532148	-0.356646	-0.931363
C88	C	2.032148	0.143354	-0.431363
C89	C	1.449903	-0.413693	-0.900016
C90	C	1.949903	0.086307	-0.400016
C91	C	1.450125	-0.413957	-0.814398
C92	C	1.950125	0.086043	-0.314398
C93	C	1.532116	-0.356715	-0.782981
C94	C	2.032116	0.143285	-0.282981
C95	C	1.643813	-0.377898	-0.814079
C96	C	2.143813	0.122102	-0.314079
C97	C	1.643354	-0.378273	-0.899724
C98	C	2.143354	0.121727	-0.399724
C99	C	1.503667	-0.278288	-0.899793
C100	C	2.003667	0.221712	-0.399793
C101	C	1.501182	-0.278741	-0.814142
C102	C	2.001182	0.221259	-0.314142
C103	C	1.532105	-0.356752	-0.699121
C104	C	2.032105	0.143248	-0.199121
C105	C	1.532166	-0.356610	-1.015223
C106	C	2.032166	0.143390	-0.515223
C107	C	1.531999	-0.356777	-0.164385
C108	C	2.031999	0.143223	0.335615
C109	C	1.532178	-0.356576	-0.082072
C110	C	2.032178	0.143424	0.417928
H111	H	0.941140	-0.312275	-0.241935
H112	H	1.441140	0.187725	0.258065
H113	H	1.696426	-0.920751	-0.312542
H114	H	2.196426	-0.420751	0.187458
C115	C	1.133639	-0.389543	-0.494093
C116	C	1.633639	0.110457	0.005907
N117	N	1.163866	-0.430177	-0.538904
N118	N	1.663866	0.069823	-0.038904
C119	C	1.337665	-0.395964	-0.927827
C120	C	1.837665	0.104036	-0.427827
N121	N	1.253125	-0.382610	-0.948780
N122	N	1.753125	0.117390	-0.448780
C123	C	1.588506	-0.927163	-0.221027
C124	C	2.088506	-0.427163	0.278973
N125	N	1.569465	-0.948168	-0.161952
N126	N	2.069465	-0.448168	0.338048
C127	C	1.588430	-0.785329	-0.221417
C128	C	2.088430	-0.285329	0.278583
N129	N	1.569112	-0.763992	-0.162524
N130	N	2.069112	-0.263992	0.337476
H131	H	1.122123	-0.278376	-0.451784
H132	H	1.622123	0.221624	0.048216
H133	H	1.367298	-0.400701	-0.793371
H134	H	1.867298	0.099299	-0.293371
H135	H	0.941778	-0.450382	-0.277260
H136	H	1.441778	0.049618	0.222740
H137	H	1.124389	-0.454099	-0.280430
H138	H	1.624389	0.045901	0.219570
C139	C	1.475063	-0.491682	-0.929079
C140	C	1.975063	0.008318	-0.429079
N141	N	1.494022	-0.550424	-0.950967
N142	N	1.994022	-0.050424	-0.450967
C143	C	1.382704	-0.928376	-0.261262
C144	C	1.882704	-0.428376	0.238738
N145	N	1.354686	-0.950402	-0.204339
N146	N	1.854686	-0.450402	0.295661
H147	H	0.941798	-0.376486	-0.478702
H148	H	1.441798	0.123514	0.021298
C149	C	1.389613	-0.786092	-0.257486
C150	C	1.889613	-0.286092	0.242514
N151	N	1.366370	-0.765455	-0.199036
N152	N	1.866370	-0.265455	0.300964
H153	H	1.556713	-0.233982	-0.792756
H154	H	2.056713	0.266018	-0.292756
H155	H	1.356341	-0.792104	-0.373821
H156	H	1.856341	-0.292104	0.126179
C157	C	1.475511	-0.492426	-0.786718
C158	C	1.975511	0.007574	-0.286718
N159	N	1.494611	-0.551535	-0.765871
N160	N	1.994611	-0.051535	-0.265871
H161	H	1.706738	-0.337654	-0.793731
H162	H	2.206738	0.162346	-0.293731
H163	H	1.563571	-0.235786	-0.920067
H164	H	2.063571	0.264214	-0.420067
H165	H	1.667496	-0.435553	-0.919703
H166	H	2.167496	0.064447	-0.419703
H167	H	0.940308	-0.479642	-0.373308
H168	H	1.440308	0.020358	0.126692
C169	C	1.337701	-0.926524	-0.393287
C170	C	1.837701	-0.426524	0.106713
N171	N	1.275782	-0.947159	-0.435812
N172	N	1.775782	-0.447159	0.064188
C173	C	1.728962	-0.324590	-0.927742
C174	C	2.228962	0.175410	-0.427742
N175	N	1.793447	-0.284162	-0.948842
N176	N	2.293447	0.215838	-0.448842
H177	H	1.668371	-0.434570	-0.792632
H178	H	2.168371	0.065430	-0.292632
C179	C	1.132758	-0.492769	-0.392651
C180	C	1.632758	0.007231	0.107349
N181	N	1.162319	-0.536208	-0.434978
N182	N	1.662319	-0.036208	0.065022
H183	H	1.123246	-0.312337	-0.241543
H184	H	1.623246	0.187663	0.258457
C185	C	1.390157	-0.257141	-0.786652
C186	C	1.890157	0.242859	-0.286652
N187	N	1.306540	-0.240868	-0.765932
N188	N	1.806540	0.259132	-0.265932
H189	H	1.697163	-0.793121	-0.312843
H190	H	2.197163	-0.293121	0.187157
H191	H	0.941973	-0.241291	-0.313359
H192	H	1.441973	0.258709	0.186641
H193	H	1.644951	-0.918831	-0.451497
H194	H	2.144951	-0.418831	0.048503
H195	H	1.506064	-0.919644	-0.478777
H196	H	2.006064	-0.419644	0.021223
C197	C	1.484411	-0.785766	-0.494177
C198	C	1.984411	-0.285766	0.005823
N199	N	1.425731	-0.765052	-0.538850
N200	N	1.925731	-0.265052	-0.038850
C201	C	1.135472	-0.221581	-0.317666
C202	C	1.635472	0.278419	0.182334
N203	N	1.166828	-0.162893	-0.331229
N204	N	1.666828	0.337107	0.168771
H205	H	0.940227	-0.279440	-0.452447
H206	H	1.440227	0.220560	0.047553
C207	C	1.671862	-0.784220	-0.458142
C208	C	2.171862	-0.284220	0.041858
N209	N	1.754374	-0.762346	-0.475671
N210	N	2.254374	-0.262346	0.024329
H211	H	1.423633	-0.258988	-0.921384
H212	H	1.923633	0.241012	-0.421384
