data_functionalizedCrystal
_audit_creation_method	'MofGen! by Chris Wilmer'
_symmetry_space_group_name_H-M	'P1'
_symmetry_Int_Tables_number	1
_symmetry_cell_setting	triclinic
loop_
_symmetry_equiv_pos_as_xyz
  x,y,z
_cell_length_a	13.635800
_cell_length_b	19.452420
_cell_length_c	9.514088
_cell_angle_alpha	87.731883
_cell_angle_beta	61.156455
_cell_angle_gamma	101.696715
loop_
_atom_site_label
_atom_site_type_symbol
_atom_site_fract_x
_atom_site_fract_y
_atom_site_fract_z
V1	V	-2.104433	-0.098430	0.501539
O2	O	-2.100832	0.003449	0.491183
O3	O	-2.075360	-0.193938	0.498886
O4	O	-2.121863	-0.097478	0.719922
O5	O	-2.054007	-0.093679	0.268617
V6	V	-2.341484	-0.086178	0.473585
O7	O	-2.245395	-0.125307	0.562858
O8	O	-2.425620	-0.059301	0.412266
O9	O	-2.258953	0.009330	0.476238
O10	O	-2.403783	-0.188057	0.483941
O11	O	-2.450608	-0.090929	0.706507
O12	O	-2.212450	-0.087130	0.255201
V13	V	-1.604433	-0.098430	0.501539
O14	O	-1.600832	0.003449	0.491183
O15	O	-1.575360	-0.193938	0.498886
O16	O	-1.621863	-0.097478	0.719922
O17	O	-1.554007	-0.093679	0.268617
V18	V	-1.841484	-0.086178	0.473585
O19	O	-1.745395	-0.125307	0.562858
O20	O	-1.925620	-0.059301	0.412266
O21	O	-1.758953	0.009330	0.476238
O22	O	-1.903783	-0.188057	0.483941
O23	O	-1.950608	-0.090929	0.706507
O24	O	-1.712450	-0.087130	0.255201
C25	C	-1.995328	-0.217203	0.491175
C26	C	-2.012479	-0.295286	0.490462
C27	C	-1.972858	-0.321548	0.342948
C28	C	-1.988999	-0.394913	0.342229
C29	C	-2.044742	-0.442013	0.489030
C30	C	-2.084374	-0.415743	0.636564
C31	C	-2.068242	-0.342380	0.637280
N32	N	-2.047850	-0.562718	0.592419
N33	N	-2.063170	-0.632410	0.591729
C34	C	-2.093352	-0.663053	0.486882
N35	N	-2.107616	-0.621370	0.382725
N36	N	-2.092289	-0.551672	0.383411
C37	C	-2.062241	-0.521564	0.488270
C38	C	-2.071231	-0.768865	0.338578
C39	C	-2.087381	-0.842232	0.337865
C40	C	-2.182747	-0.863060	0.632203
C41	C	-2.166606	-0.789695	0.632913
C42	C	-2.110843	-0.742601	0.486095
C43	C	-2.054647	-0.094158	0.773126
C44	C	-2.109508	-0.094012	0.951661
C45	C	-2.170655	0.032592	0.483945
C46	C	-2.143126	0.110673	0.484668
C47	C	-2.111336	-0.090452	0.201989
C48	C	-2.046094	-0.090595	0.023452
C49	C	-1.495328	-0.217203	0.491175
C50	C	-1.512479	-0.295286	0.490462
C51	C	-1.554647	-0.094158	0.773126
C52	C	-1.609508	-0.094012	0.951661
C53	C	-1.670655	0.032592	0.483945
C54	C	-1.643126	0.110673	0.484668
C55	C	-1.611336	-0.090452	0.201989
C56	C	-1.546094	-0.090595	0.023452
C57	C	-1.612970	-0.335556	0.498180
C58	C	-1.629106	-0.408925	0.497535
C59	C	-1.544747	-0.442022	0.489159
C60	C	-1.444250	-0.401747	0.481445
C61	C	-1.428118	-0.328380	0.482102
C62	C	-1.715129	0.150943	0.476954
C63	C	-1.689266	0.224311	0.477607
C64	C	-1.591402	0.257408	0.485986
C65	C	-1.519392	0.217134	0.493696
C66	C	-1.545252	0.143767	0.493031
H67	H	-1.956731	-0.416300	0.222101
H68	H	-1.486617	0.110984	0.499327
H69	H	-1.449835	-0.087787	0.948334
O70	O	-2.237023	-0.097729	1.051155
H71	H	-2.281072	-0.145967	1.145534
H72	H	-1.705777	-0.096828	1.026791
H73	H	-1.927459	-0.283208	0.223398
H74	H	-2.055120	-0.863612	0.217738
H75	H	-1.557897	-0.501762	0.488626
O76	O	-2.209364	-0.761350	0.792004
H77	H	-2.135211	-0.725733	0.793376
H78	H	-1.794820	0.124005	0.470132
O79	O	-1.703982	-0.299875	0.507249
H80	H	-1.715775	-0.307916	0.400968
O81	O	-2.144501	-0.466537	0.794905
H82	H	-2.149055	-0.521964	0.769626
H83	H	-1.346283	-0.295597	0.475808
H84	H	-2.228135	-0.901408	0.751732
H85	H	-1.570359	0.317148	0.486526
H86	H	-1.747914	0.257093	0.471331
O87	O	-1.918578	-0.086854	0.923960
H88	H	-1.894048	-0.087550	0.794638
O89	O	-1.737492	-0.452352	0.505821
H90	H	-1.814371	-0.447754	0.619818
O91	O	-2.110963	-0.314047	0.796388
H92	H	-2.152433	-0.359120	0.898352
H93	H	-1.439710	0.244092	0.500517
O94	O	-1.353266	-0.437448	0.472415
H95	H	-1.381375	-0.495228	0.473241
H96	H	-2.025825	-0.730519	0.219030
