data_functionalizedCrystal
_audit_creation_method	'MofGen! by Chris Wilmer'
_symmetry_space_group_name_H-M	'P1'
_symmetry_Int_Tables_number	1
_symmetry_cell_setting	triclinic
loop_
_symmetry_equiv_pos_as_xyz
  x,y,z
_cell_length_a	19.188930
_cell_length_b	19.188924
_cell_length_c	12.503572
_cell_angle_alpha	93.509187
_cell_angle_beta	86.479840
_cell_angle_gamma	83.143372
loop_
_atom_site_label
_atom_site_type_symbol
_atom_site_fract_x
_atom_site_fract_y
_atom_site_fract_z
O1	O	0.930197	0.083100	-0.089672
O2	O	0.726882	0.094838	-0.089599
O3	O	0.834409	-0.012686	-0.089625
O4	O	0.822671	0.190625	-0.089646
O5	O	0.826322	-0.004586	0.089019
O6	O	0.718796	0.102938	0.089045
O7	O	0.922111	0.091200	0.088972
Cu8	Cu	0.819715	0.097809	0.105320
Cu9	Cu	0.829278	0.088230	-0.105947
O10	O	0.814584	0.198725	0.088998
C11	C	0.696828	0.098508	-0.000268
C12	C	0.619322	0.097369	-0.000239
C13	C	0.574397	0.160459	-0.000263
C14	C	0.501574	0.159387	-0.000274
C15	C	0.473680	0.095220	-0.000284
C16	C	0.518614	0.032122	-0.000255
C17	C	0.591435	0.033197	-0.000232
N18	N	0.368455	0.043414	-0.061123
N19	N	0.299277	0.042398	-0.061146
C20	C	0.254274	0.091979	-0.000350
N21	N	0.281061	0.142625	0.060458
N22	N	0.350245	0.143643	0.060477
C23	C	0.394718	0.094048	-0.000308
C24	C	0.130386	0.153911	-0.000384
C25	C	0.057561	0.152836	-0.000389
C26	C	0.074603	0.025569	-0.000380
C27	C	0.147425	0.026646	-0.000365
C28	C	0.175312	0.090818	-0.000372
C29	C	0.829986	-0.034647	-0.000302
C30	C	0.828847	-0.112152	-0.000299
C31	C	0.832724	-0.152966	-0.097677
C32	C	0.831644	-0.225789	-0.097685
C33	C	0.826702	-0.257797	-0.000309
C34	C	0.822821	-0.216973	0.097083
C35	C	0.823894	-0.144150	0.097088
N36	N	0.861470	-0.374175	0.072153
N37	N	0.860452	-0.443354	0.072141
C38	C	0.823468	-0.477207	-0.000318
N39	N	0.787549	-0.439269	-0.072782
N40	N	0.788570	-0.370085	-0.072773
C41	C	0.825538	-0.336760	-0.000303
C42	C	0.826174	-0.596984	-0.097712
C43	C	0.825089	-0.669808	-0.097716
C44	C	0.816273	-0.660991	0.097056
C45	C	0.817350	-0.588168	0.097057
C46	C	0.822304	-0.556169	-0.000330
C47	C	0.952165	0.087530	-0.000362
C48	C	1.029672	0.088669	-0.000397
C49	C	0.819007	0.220686	-0.000328
C50	C	0.820146	0.298190	-0.000338
N51	N	0.812993	0.104546	0.253914
N52	N	0.836005	0.081487	-0.254541
C53	C	0.803106	0.114462	0.473032
C54	C	0.845890	0.071573	0.526348
C55	C	0.840389	0.077091	0.648273
C56	C	0.808607	0.108945	0.351096
H57	H	0.153092	0.206165	-0.000374
H58	H	0.812244	-0.687050	0.176342
C59	C	0.888534	-0.051018	0.491749
C60	C	0.900913	0.016344	0.464496
H61	H	0.922499	-0.085132	0.453594
H62	H	0.891952	-0.054414	0.566757
H63	H	0.842757	-0.059196	0.473359
H64	H	0.946688	0.024524	0.482893
H65	H	0.897501	0.019742	0.389472
C66	C	0.702429	0.135661	0.599720
C67	C	0.748089	0.169624	0.535021
H68	H	0.668469	0.169718	0.638003
H69	H	0.679293	0.104767	0.555864
H70	H	0.728560	0.109473	0.649183
H71	H	0.721959	0.195808	0.485553
H72	H	0.771226	0.200530	0.578881
H73	H	0.836755	-0.126917	-0.176977
H74	H	0.051895	-0.026680	-0.000455
C75	C	0.550232	0.286148	-0.000270
C76	C	0.605049	0.230997	-0.000253
H77	H	0.569158	0.329695	-0.000255
H78	H	0.525026	0.280258	-0.062574
H79	H	0.519343	0.285899	0.062020
H80	H	0.635935	0.231243	-0.062547
H81	H	0.630267	0.236889	0.062058
H82	H	0.628013	-0.018181	-0.000214
C83	C	0.808543	-0.586772	0.289572
C84	C	0.813104	-0.543302	0.204100
H85	H	0.805925	-0.559073	0.355658
H86	H	0.767601	-0.609904	0.285540
H87	H	0.849016	-0.620814	0.285491
H88	H	0.772628	-0.509263	0.208176
H89	H	0.854050	-0.520159	0.208134
H90	H	0.495898	-0.020124	-0.000278
C91	C	0.382374	0.214242	-0.000323
C92	C	0.452180	0.228739	-0.000304
H93	H	0.351884	0.257058	-0.000335
H94	H	0.376785	0.185097	-0.062614
H95	H	0.371110	0.190749	0.061981
H96	H	0.463446	0.252228	-0.062612
H97	H	0.457773	0.257896	0.061994
C98	C	0.048037	0.278739	-0.000422
C99	C	0.008176	0.222191	-0.000416
H100	H	0.017547	0.321555	-0.000446
H101	H	0.073956	0.279340	0.061878
H102	H	0.079633	0.273677	-0.062717
H103	H	-0.023416	0.227250	0.061883
H104	H	-0.017755	0.221590	-0.062722
H105	H	0.834797	-0.259026	-0.176985
H106	H	0.184004	-0.024729	-0.000351
H107	H	0.818795	-0.243038	0.176368
C108	C	0.756700	-0.106179	0.263120
C109	C	0.819636	-0.099284	0.204135
H110	H	0.754075	-0.078482	0.329208
H111	H	0.717989	-0.090602	0.223120
H112	H	0.755358	-0.154132	0.277047
H113	H	0.820975	-0.051332	0.190200
H114	H	0.858356	-0.114858	0.244143
C115	C	0.834771	-0.613009	-0.290233
C116	C	0.831607	-0.561804	-0.204756
H117	H	0.838120	-0.591290	-0.356316
H118	H	0.874873	-0.646679	-0.286203
H119	H	0.793458	-0.635778	-0.286158
H120	H	0.872923	-0.539039	-0.208826
H121	H	0.791501	-0.528121	-0.208788
H122	H	0.828243	-0.703037	-0.177016
