data_functionalizedCrystal
_audit_creation_method	'MofGen! by Chris Wilmer'
_symmetry_space_group_name_H-M	'P1'
_symmetry_Int_Tables_number	1
_symmetry_cell_setting	triclinic
loop_
_symmetry_equiv_pos_as_xyz
  x,y,z
_cell_length_a	16.974901
_cell_length_b	10.489741
_cell_length_c	9.565339
_cell_angle_alpha	89.999484
_cell_angle_beta	86.344926
_cell_angle_gamma	96.030028
loop_
_atom_site_label
_atom_site_type_symbol
_atom_site_fract_x
_atom_site_fract_y
_atom_site_fract_z
O1	O	-1.050057	0.162668	0.234939
O2	O	-0.819972	0.183349	0.208937
O3	O	-0.940250	-0.012675	0.222521
O4	O	-0.929779	0.358693	0.221354
O5	O	-0.940240	-0.012663	-0.010000
O6	O	-0.819962	0.183362	-0.023584
O7	O	-1.050047	0.162680	0.002418
Zn8	Zn	-0.935003	0.173023	-0.047501
Zn9	Zn	-0.935016	0.173007	0.258856
O10	O	-0.929769	0.358705	-0.011167
C11	C	-0.790504	0.182565	0.089347
C12	C	-0.702715	0.180193	0.079425
C13	C	-0.661470	0.179075	0.201501
C14	C	-0.578981	0.176868	0.192159
C15	C	-0.537741	0.175768	0.060739
C16	C	-0.578992	0.176890	-0.061346
C17	C	-0.661478	0.179107	-0.052002
C18	C	-0.291043	0.169147	0.019202
C19	C	-0.208551	0.166926	0.009867
C20	C	-0.208546	0.166906	0.263373
C21	C	-0.291035	0.169115	0.272706
C22	C	-0.332278	0.170244	0.150621
N23	N	-0.453424	0.173507	0.051186
N24	N	-0.416592	0.172514	0.160175
C25	C	-0.939454	-0.060188	0.106172
C26	C	-0.937088	-0.201778	0.105907
C27	C	-0.860559	-0.268658	0.097269
C28	C	-0.896706	-0.361370	-0.013291
C29	C	-0.896733	-0.361357	0.215959
C30	C	-0.973267	-0.292625	-0.004743
C31	C	-0.973283	-0.292603	0.224608
C32	C	-1.009486	-0.385288	0.114027
C33	C	-0.079515	0.163458	0.122011
C34	C	-0.167305	0.165808	0.131943
C35	C	-0.930565	0.406217	0.105185
C36	C	-0.932931	0.547808	0.105460
N37	N	-0.935000	0.173033	-0.256581
C38	C	-0.879359	0.263658	-0.354068
C39	C	-0.950949	0.288290	-0.439155
C40	C	-0.863441	0.148411	-0.449045
C41	C	-1.006627	0.197722	-0.339612
C42	C	-0.919071	0.057793	-0.349499
C43	C	-0.990713	0.082376	-0.434539
N44	N	-0.935025	0.172986	0.467936
H45	H	-0.545403	0.175958	0.291566
H46	H	-0.324608	0.170001	0.379722
H47	H	-0.797637	-0.217971	0.090042
F48	F	-0.784329	0.121214	-0.511529
H49	H	-0.832348	0.340367	-0.318523
H50	H	-1.037830	0.005713	-0.469816
F51	F	-0.535097	0.175730	-0.201214
F52	F	-1.015579	-0.252725	0.356081
H53	H	-0.864346	-0.391793	0.309231
F54	F	-0.901411	-0.069522	-0.297908
F55	F	-0.854378	-0.401202	-0.144762
H56	H	-1.005616	-0.262321	-0.098119
H57	H	-0.964439	0.385725	-0.478594
F58	F	-0.705355	0.180237	0.341378
H59	H	-0.174957	0.165990	0.362768
H60	H	-1.072465	-0.435749	0.121080
F61	F	-0.705374	0.180301	-0.181933
F62	F	-1.085760	0.225064	-0.277361
H63	H	-0.324614	0.170057	-0.080209
F64	F	-0.164663	0.165735	-0.130014
