data_functionalizedCrystal
_audit_creation_method	'MofGen! by Chris Wilmer'
_symmetry_space_group_name_H-M	'P1'
_symmetry_Int_Tables_number	1
_symmetry_cell_setting	triclinic
loop_
_symmetry_equiv_pos_as_xyz
  x,y,z
_cell_length_a	6.817900
_cell_length_b	9.514072
_cell_length_c	17.329378
_cell_angle_alpha	88.261030
_cell_angle_beta	103.025558
_cell_angle_gamma	118.843421
loop_
_atom_site_label
_atom_site_type_symbol
_atom_site_fract_x
_atom_site_fract_y
_atom_site_fract_z
V1	V	-4.082409	-0.189308	-0.245554
O2	O	-3.981771	0.042863	-0.240246
O3	O	-4.117307	-0.407841	-0.244483
O4	O	-4.020064	-0.171579	-0.352370
O5	O	-4.079688	-0.195033	-0.131612
V6	V	-4.557051	-0.163288	-0.231851
O7	O	-4.363150	-0.246384	-0.275611
O8	O	-4.726507	-0.106212	-0.201794
O9	O	-4.298946	0.055245	-0.232922
O10	O	-4.775085	-0.395459	-0.237159
O11	O	-4.677169	-0.157562	-0.345793
O12	O	-4.396189	-0.181016	-0.125035
C13	C	-3.983023	-0.461577	-0.240767
C14	C	-4.092751	-0.640135	-0.240604
C15	C	-3.858978	-0.160201	-0.378386
C16	C	-3.889839	-0.147152	-0.465713
C17	C	-3.999223	-0.286538	-0.518365
C18	C	-4.028227	-0.274275	-0.600418
C19	C	-3.947830	-0.122623	-0.629817
C20	C	-3.838442	0.016772	-0.577158
C21	C	-3.809455	0.004507	-0.495107
C22	C	-4.030619	-0.078311	-0.876977
C23	C	-4.059610	-0.066055	-0.959034
C24	C	-4.249397	-0.357104	-0.982289
C25	C	-4.220388	-0.369356	-0.900235
C26	C	-4.111014	-0.229960	-0.847584
C27	C	-3.977467	-0.110085	-0.713688
C28	C	-4.081393	-0.242501	-0.763715
C29	C	-4.096575	0.108973	-0.236636
C30	C	-3.966086	0.287530	-0.236804
C31	C	-4.220620	-0.192401	-0.099015
C32	C	-4.168995	-0.205441	-0.011687
H33	H	-4.064680	-0.410028	-0.494436
H34	H	-3.994179	0.057441	-0.982968
C35	C	-4.212853	-0.563188	-0.615161
C36	C	-4.148438	-0.427491	-0.658294
H37	H	-4.287054	-0.657779	-0.650893
H38	H	-4.315760	-0.566715	-0.585253
H39	H	-4.079418	-0.557107	-0.580096
H40	H	-4.281875	-0.433567	-0.693355
H41	H	-4.045526	-0.423965	-0.688216
C42	C	-3.644239	-0.448350	-0.233480
C43	C	-3.706338	-0.611665	-0.232533
H44	H	-3.483878	-0.386115	-0.230847
H45	H	-3.677484	-0.415635	-0.189057
H46	H	-3.729219	-0.432541	-0.281186
H47	H	-3.621370	-0.627476	-0.184824
H48	H	-3.673070	-0.644391	-0.276961
C49	C	-4.384815	-0.825424	-0.177139
C50	C	-4.352512	-0.740945	-0.244871
H51	H	-4.545179	-0.887664	-0.179777
H52	H	-4.311150	-0.751194	-0.130966
H53	H	-4.320054	-0.894726	-0.174749
H54	H	-4.417258	-0.671633	-0.247258
H55	H	-4.426207	-0.815183	-0.291056
H56	H	-4.285867	-0.492846	-0.876306
H57	H	-4.338451	-0.470592	-1.025166
C58	C	-3.845906	0.210606	-0.862244
C59	C	-3.910367	0.074913	-0.819109
H60	H	-3.771647	0.305203	-0.826514
H61	H	-3.979306	0.204556	-0.897302
H62	H	-3.743013	0.214096	-0.892159
H63	H	-4.013274	0.071417	-0.789198
H64	H	-3.776948	0.080964	-0.784037
H65	H	-4.146859	-0.365975	-0.739775
H66	H	-3.772996	0.140250	-0.601101
H67	H	-3.720386	0.118010	-0.452238
H68	H	-3.912006	0.013391	-0.737634
