data_functionalizedCrystal
_audit_creation_method	'MofGen! by Chris Wilmer'
_symmetry_space_group_name_H-M	'P1'
_symmetry_Int_Tables_number	1
_symmetry_cell_setting	triclinic
loop_
_symmetry_equiv_pos_as_xyz
  x,y,z
_cell_length_a	10.654545
_cell_length_b	14.519709
_cell_length_c	9.730223
_cell_angle_alpha	89.994652
_cell_angle_beta	89.997167
_cell_angle_gamma	84.081612
loop_
_atom_site_label
_atom_site_type_symbol
_atom_site_fract_x
_atom_site_fract_y
_atom_site_fract_z
O1	O	1.666597	0.129512	-0.114279
O2	O	2.166597	0.629512	0.385721
O3	O	1.300999	0.141858	-0.114286
O4	O	1.800999	0.641858	0.385714
O5	O	1.493491	0.001497	-0.114270
O6	O	1.993491	0.501497	0.385730
O7	O	1.474105	0.269873	-0.114295
O8	O	1.974105	0.769873	0.385705
O9	O	1.493479	0.001493	0.114310
O10	O	1.993479	0.501493	0.614310
O11	O	1.300987	0.141854	0.114294
O12	O	1.800987	0.641854	0.614294
O13	O	1.666585	0.129508	0.114300
O14	O	2.166585	0.629508	0.614300
Zn15	Zn	1.483784	0.135680	0.150589
Zn16	Zn	1.983784	0.635680	0.650589
Zn17	Zn	1.483800	0.135686	-0.150575
Zn18	Zn	1.983800	0.635686	0.349425
O19	O	1.474092	0.269869	0.114285
O20	O	1.974092	0.769869	0.614285
C21	C	1.254204	0.140950	0.000004
C22	C	1.754204	0.640950	0.500004
C23	C	1.114786	0.138241	0.000002
C24	C	1.614786	0.638241	0.500002
C25	C	1.049287	0.136963	0.124602
C26	C	1.549287	0.636963	0.624602
C27	C	0.918292	0.134402	0.124602
C28	C	1.418292	0.634402	0.624602
C29	C	0.918306	0.134400	-0.124608
C30	C	1.418306	0.634400	0.375392
C31	C	1.049300	0.136955	-0.124607
C32	C	1.549300	0.636955	0.375393
C33	C	1.492582	-0.032870	0.000020
C34	C	1.992582	0.467130	0.500020
C35	C	1.489874	-0.135265	0.000021
C36	C	1.989874	0.364735	0.500021
C37	C	1.479907	-0.510212	-0.000015
C38	C	1.979907	-0.010212	0.499985
C39	C	1.482675	-0.405890	-0.000005
C40	C	1.982675	0.094110	0.499995
C41	C	1.484890	-0.322742	0.000004
C42	C	1.984890	0.177258	0.500004
C43	C	1.487659	-0.218413	0.000012
C44	C	1.987659	0.281587	0.500012
C45	C	1.713380	0.130416	0.000008
C46	C	2.213380	0.630416	0.500008
C47	C	1.852798	0.133125	0.000001
C48	C	2.352798	0.633125	0.500001
C49	C	1.475002	0.304236	-0.000008
C50	C	1.975002	0.804236	0.499992
C51	C	1.477710	0.406631	-0.000018
C52	C	1.977710	0.906631	0.499982
N53	N	1.483782	0.135676	0.356126
N54	N	1.983782	0.635676	0.856126
N55	N	1.483812	0.135682	-0.356111
N56	N	1.983812	0.635682	0.143889
C57	C	1.569046	0.073551	0.428059
C58	C	2.069046	0.573551	0.928059
C59	C	1.569059	0.073551	0.571942
C60	C	2.069059	0.573551	1.071942
C61	C	1.398538	0.197811	0.571946
C62	C	1.898538	0.697811	1.071946
C63	C	1.398521	0.197805	0.428066
C64	C	1.898521	0.697805	0.928066
H65	H	0.864971	0.133354	-0.226061
H66	H	1.364971	0.633354	0.273939
F67	F	0.848589	0.133043	0.257218
F68	F	1.348589	0.633043	0.757218
H69	H	1.102602	0.138010	0.226066
H70	H	1.602602	0.638010	0.726066
F71	F	1.119014	0.138308	-0.257231
F72	F	1.619014	0.638308	0.242769
H73	H	1.329122	0.248396	0.630534
H74	H	1.829122	0.748396	1.130534
F75	F	1.659786	0.007426	0.351500
F76	F	2.159786	0.507426	0.851500
F77	F	1.659806	0.007428	0.648493
F78	F	2.159806	0.507428	1.148493
H79	H	1.329082	0.248395	0.369494
H80	H	1.829082	0.748395	0.869494
