data_functionalizedCrystal
_audit_creation_method	'MofGen! by Chris Wilmer'
_symmetry_space_group_name_H-M	'P1'
_symmetry_Int_Tables_number	1
_symmetry_cell_setting	triclinic
loop_
_symmetry_equiv_pos_as_xyz
  x,y,z
_cell_length_a	16.992694
_cell_length_b	9.730217
_cell_length_c	16.992695
_cell_angle_alpha	90.003683
_cell_angle_beta	90.668223
_cell_angle_gamma	89.995800
loop_
_atom_site_label
_atom_site_type_symbol
_atom_site_fract_x
_atom_site_fract_y
_atom_site_fract_z
O1	O	1.050847	0.114119	0.166915
O2	O	0.822447	0.114159	0.165084
O3	O	0.935731	0.114128	0.051799
O4	O	0.937563	0.114150	0.280199
O5	O	0.935728	-0.114452	0.051798
O6	O	0.822443	-0.114421	0.165083
O7	O	1.050843	-0.114461	0.166914
Zn8	Zn	0.936643	-0.150733	0.165998
Zn9	Zn	0.936648	0.150431	0.166000
O10	O	0.937559	-0.114430	0.280198
C11	C	0.793085	-0.000125	0.162727
C12	C	0.705600	-0.000110	0.155699
N13	N	0.936645	-0.356269	0.165997
C14	C	0.659610	-0.000105	0.223517
C15	C	0.577409	-0.000125	0.216908
C16	C	0.541201	-0.000140	0.142480
C17	C	0.587198	-0.000149	0.074657
C18	C	0.669397	-0.000139	0.081267
C19	C	0.295886	-0.000179	0.115086
C20	C	0.213681	-0.000185	0.108481
C21	C	0.203898	-0.000163	0.250732
C22	C	0.286099	-0.000145	0.257336
C23	C	0.332089	-0.000161	0.189512
N24	N	0.457178	-0.000155	0.135723
N25	N	0.416110	-0.000155	0.196270
C26	C	1.037004	-0.356287	0.065717
C27	C	1.087189	-0.428236	0.015579
C28	C	1.087197	-0.572116	0.015579
C29	C	1.037013	-0.644050	0.065720
C30	C	0.986828	-0.572101	0.115858
C31	C	0.986827	-0.428218	0.115854
C32	C	0.886466	-0.572083	0.216132
C33	C	0.886461	-0.428204	0.216138
C34	C	0.836283	-0.644018	0.266274
C35	C	0.786101	-0.572069	0.316416
C36	C	0.786095	-0.428180	0.316415
C37	C	0.836276	-0.356255	0.266275
C38	C	1.080205	-0.000173	0.169270
C39	C	1.167690	-0.000179	0.176299
C40	C	0.933374	-0.000161	0.022439
C41	C	0.926345	-0.000159	-0.065046
N42	N	0.936651	0.355968	0.165995
C43	C	0.994163	-0.000173	-0.111037
C44	C	0.987554	-0.000159	-0.193238
C45	C	0.913127	-0.000141	-0.229446
C46	C	0.845303	-0.000123	-0.183449
C47	C	0.851913	-0.000128	-0.101250
C48	C	0.885732	-0.000117	-0.474760
C49	C	0.879127	-0.000117	-0.556966
C50	C	1.021379	-0.000150	-0.566749
C51	C	1.027982	-0.000162	-0.484547
C52	C	0.960159	-0.000137	-0.438558
N53	N	0.906369	-0.000131	-0.313468
N54	N	0.966917	-0.000138	-0.354537
C55	C	0.939917	-0.000138	0.309559
C56	C	0.946945	-0.000130	0.397044
H57	H	0.689084	-0.000092	0.284124
O58	O	0.551901	-0.000105	0.002418
C59	C	0.469487	-0.000143	0.011124
H60	H	0.454051	0.043139	0.071346
H61	H	0.441369	0.066211	-0.036812
H62	H	0.446400	-0.109807	0.005878
O63	O	0.836164	-0.783781	0.266348
C64	C	0.781126	-0.831839	0.321367
H65	H	0.735089	-0.748920	0.332123
H66	H	0.751064	-0.928100	0.297376
H67	H	0.812718	-0.857357	0.379091
H68	H	1.076596	-0.000167	-0.604202
H69	H	0.796688	-0.000116	-0.063804
O70	O	1.066420	-0.000006	-0.075777
C71	C	1.074507	0.118392	-0.028532
H72	H	1.013745	0.157868	-0.011966
H73	H	1.109258	0.091760	0.027198
H74	H	1.107059	0.201286	-0.062623
H75	H	0.830505	-0.000097	-0.437325
O76	O	0.713958	-0.000076	0.015308
C77	C	0.664376	-0.000122	-0.051801
H78	H	0.604343	0.043149	-0.035663
H79	H	0.691544	0.066238	-0.099635
H80	H	0.657147	-0.109787	-0.074373
H81	H	0.818517	-0.000124	-0.586443
H82	H	0.745241	-0.630646	0.357234
H83	H	0.784703	-0.000100	-0.212936
H84	H	1.037009	-0.239133	0.065719
O85	O	1.135948	-0.358146	-0.033014
C86	C	1.125190	-0.215725	-0.022260
H87	H	1.099630	-0.196086	0.038442
H88	H	1.184270	-0.161079	-0.027178
H89	H	1.082973	-0.174845	-0.069348
O90	O	0.532770	0.000130	0.282811
C91	C	0.549886	0.118510	0.327698
H92	H	0.575334	0.201248	0.287893
H93	H	0.493607	0.158245	0.355617
H94	H	0.594555	0.091765	0.375879
O95	O	0.321143	-0.000199	0.329695
C96	C	0.262922	-0.000165	0.388138
H97	H	0.205765	-0.043449	0.362578
H98	H	0.283256	-0.066520	0.439791
H99	H	0.252668	0.109498	0.409305
H100	H	1.128058	-0.630697	-0.025250
O101	O	0.340437	-0.000129	0.049125
C102	C	0.290848	-0.000174	-0.017981
H103	H	0.230819	0.043104	-0.001838
H104	H	0.318015	0.066180	-0.065819
H105	H	0.283614	-0.109840	-0.040550
O106	O	0.737320	-0.358506	0.365194
C107	C	0.693018	-0.452856	0.409428
H108	H	0.725351	-0.555419	0.412360
H109	H	0.684934	-0.411283	0.471535
H110	H	0.632946	-0.468159	0.380161
H111	H	1.042779	-0.000173	-0.230680
O112	O	0.159106	-0.000219	0.316531
C113	C	0.078791	-0.000196	0.294743
H114	H	0.071771	-0.043476	0.232714
H115	H	0.044432	-0.066560	0.337655
H116	H	0.055223	0.109463	0.296241
H117	H	1.037015	-0.761205	0.065710
H118	H	1.088589	-0.000177	-0.455073
O119	O	0.836343	-0.216491	0.266401
C120	C	0.856988	-0.168404	0.342142
H121	H	0.891560	-0.251313	0.374977
H122	H	0.894785	-0.072150	0.336728
H123	H	0.801317	-0.142863	0.375968
H124	H	0.184203	-0.000195	0.047870
