data_functionalizedCrystal
_audit_creation_method	'MofGen! by Chris Wilmer'
_symmetry_space_group_name_H-M	'P1'
_symmetry_Int_Tables_number	1
_symmetry_cell_setting	triclinic
loop_
_symmetry_equiv_pos_as_xyz
  x,y,z
_cell_length_a	23.532407
_cell_length_b	22.610064
_cell_length_c	10.654550
_cell_angle_alpha	89.996826
_cell_angle_beta	96.333176
_cell_angle_gamma	90.012594
loop_
_atom_site_label
_atom_site_type_symbol
_atom_site_fract_x
_atom_site_fract_y
_atom_site_fract_z
O1	O	0.756262	0.049146	-0.152437
O2	O	0.590542	0.049155	-0.174493
O3	O	0.677212	0.049148	0.019395
O4	O	0.669592	0.049153	-0.346325
O5	O	0.677186	-0.049221	0.019395
O6	O	0.590516	-0.049214	-0.174493
O7	O	0.756236	-0.049223	-0.152437
Zn8	Zn	0.673372	-0.064837	-0.163465
Zn9	Zn	0.673406	0.064769	-0.163465
O10	O	0.669566	-0.049216	-0.346325
C11	C	0.569309	-0.000028	-0.173931
C12	C	0.506081	-0.000025	-0.172243
C13	C	0.239121	-0.000043	-0.050540
C14	C	0.298532	-0.000042	-0.052108
O15	O	0.334647	-0.000064	0.044437
N16	N	0.321909	-0.000037	-0.167375
C17	C	0.285872	-0.000038	-0.281080
O18	O	0.311211	-0.000033	-0.379267
C19	C	0.226463	-0.000042	-0.279510
C20	C	0.203089	-0.000041	-0.164236
C21	C	0.215747	-0.000043	0.064725
C22	C	0.156340	-0.000042	0.066293
C23	C	0.120308	-0.000041	-0.047403
C24	C	0.143683	-0.000041	-0.162668
C25	C	0.190427	-0.000047	-0.393214
C26	C	0.131014	-0.000052	-0.391634
C27	C	0.107641	-0.000051	-0.276360
C28	C	0.048244	-0.000038	-0.274796
N29	N	0.024867	-0.000044	-0.159530
C30	C	0.060899	-0.000045	-0.045833
C31	C	0.410636	-0.000029	-0.284368
C32	C	0.470044	-0.000021	-0.285940
C33	C	0.482700	-0.000027	-0.056967
C34	C	0.423290	-0.000031	-0.055397
C35	C	0.387259	-0.000035	-0.169102
C36	C	-0.063859	-0.000043	-0.042549
C37	C	-0.123271	-0.000039	-0.040991
C38	C	-0.135922	-0.000036	-0.269962
C39	C	-0.076515	-0.000037	-0.271521
C40	C	-0.040484	-0.000042	-0.157804
O41	O	0.012094	-0.000019	-0.371291
O42	O	0.035551	-0.000057	0.052338
N43	N	0.673353	-0.153289	-0.163464
C44	C	0.708244	-0.561932	-0.239228
C45	C	0.708251	-0.623852	-0.239225
O46	O	0.737894	-0.655871	-0.303634
N47	N	0.673417	-0.654827	-0.163450
C48	C	0.638577	-0.623878	-0.087665
O49	O	0.608949	-0.655910	-0.023211
C50	C	0.638573	-0.561959	-0.087662
C51	C	0.673406	-0.530988	-0.163451
C52	C	0.743074	-0.530960	-0.315009
C53	C	0.743066	-0.469045	-0.315014
C54	C	0.708228	-0.438101	-0.239237
C55	C	0.673398	-0.469072	-0.163455
C56	C	0.603737	-0.531012	-0.011870
C57	C	0.603737	-0.469089	-0.011873
C58	C	0.638569	-0.438118	-0.087662
C59	C	0.638552	-0.376213	-0.087683
N60	N	0.673386	-0.345238	-0.163457
C61	C	0.708224	-0.376182	-0.239234
C62	C	0.638588	-0.753912	-0.087674
C63	C	0.638589	-0.815829	-0.087683
C64	C	0.708264	-0.815799	-0.239242
C65	C	0.708260	-0.753880	-0.239239
C66	C	0.673423	-0.722937	-0.163449
C67	C	0.708204	-0.246154	-0.239239
C68	C	0.708191	-0.184233	-0.239241
C69	C	0.638519	-0.184269	-0.087678
C70	C	0.638529	-0.246185	-0.087681
C71	C	0.673377	-0.277126	-0.163465
O72	O	0.608926	-0.344154	-0.023303
O73	O	0.737853	-0.344142	-0.303664
C74	C	0.777469	-0.000039	-0.152998
C75	C	0.840697	-0.000038	-0.154687
C76	C	0.676640	-0.000036	0.066175
C77	C	0.674966	-0.000034	0.205566
N78	N	0.673429	0.153221	-0.163456
C79	C	0.670138	-0.000031	-0.393105
C80	C	0.671812	-0.000029	-0.532495
C81	C	0.725996	-0.000038	0.286668
C82	C	0.724419	-0.000034	0.417639
C83	C	0.620779	-0.000023	0.386392
C84	C	0.622355	-0.000023	0.255424
C85	C	0.778606	-0.000049	0.236810
C86	C	0.829640	-0.000054	0.317914
C87	C	0.828064	-0.000050	0.448885
C88	C	0.775453	-0.000040	0.498752
H89	H	0.209447	-0.000045	-0.487082
O90	O	0.745829	-0.720475	-0.320979
H91	H	0.791236	-0.732346	-0.293141
O92	O	0.398086	-0.000040	0.068937
H93	H	0.371330	0.040052	0.075149
O94	O	0.567318	-0.000024	0.167935
H95	H	0.530470	-0.000027	0.224604
O96	O	0.886380	-0.000060	0.264127
H97	H	0.910933	0.040036	0.296739
O98	O	0.780656	-0.564330	-0.396743
H99	H	0.753625	-0.592548	-0.464540
H100	H	0.577945	-0.000016	0.427005
O101	O	0.601030	-0.849233	-0.005916
H102	H	0.576814	-0.817307	0.046789
H103	H	0.489069	-0.000013	-0.379807
O104	O	-0.174790	-0.000036	-0.392590
H105	H	-0.166426	-0.040128	-0.447784
O106	O	0.780638	-0.435642	-0.396752
H107	H	0.804865	-0.467570	-0.449429
O108	O	0.600960	-0.279593	-0.005939
H109	H	0.555551	-0.267724	-0.033766
H110	H	0.736630	-0.841005	-0.300945
O111	O	-0.148481	-0.000040	0.083346
H112	H	-0.175258	-0.040132	0.089532
O113	O	0.521568	-0.000037	0.065670
H114	H	0.566804	-0.000043	0.045202
O115	O	0.601003	-0.720538	-0.005945
H116	H	0.576779	-0.752484	0.046728
H117	H	0.869618	-0.000048	0.514917
H118	H	0.736556	-0.159019	-0.300963
H119	H	0.774174	-0.000031	0.605398
H120	H	0.575368	-0.443899	0.049847
O121	O	-0.025002	-0.000044	0.080099
H122	H	-0.051244	-0.000039	0.160503
O123	O	0.131138	-0.000057	0.190630
H124	H	0.145589	0.040030	0.245240
O125	O	0.254606	-0.000043	0.187365
H126	H	0.228362	-0.000041	0.267766
O127	O	0.600982	-0.150889	-0.005862
H128	H	0.606851	-0.102631	-0.018563
O129	O	0.371773	-0.000023	-0.407014
H130	H	0.398015	-0.000013	-0.487420
H131	H	0.779895	-0.000054	0.130169
O132	O	0.092150	-0.000052	-0.514274
H133	H	0.118389	-0.000048	-0.594685
H134	H	0.736581	-0.271339	-0.300949
O135	O	-0.051298	-0.000035	-0.395847
H136	H	-0.086337	-0.000037	-0.474642
O137	O	0.566195	-0.564409	0.069935
H138	H	0.541988	-0.532480	0.122652
