data_functionalizedCrystal
_audit_creation_method	'MofGen! by Chris Wilmer'
_symmetry_space_group_name_H-M	'P1'
_symmetry_Int_Tables_number	1
_symmetry_cell_setting	triclinic
loop_
_symmetry_equiv_pos_as_xyz
  x,y,z
_cell_length_a	12.594516
_cell_length_b	18.101398
_cell_length_c	18.101389
_cell_angle_alpha	90.026909
_cell_angle_beta	89.987481
_cell_angle_gamma	89.991976
loop_
_atom_site_label
_atom_site_type_symbol
_atom_site_fract_x
_atom_site_fract_y
_atom_site_fract_z
Zn1	Zn	-0.424082	-1.132199	-0.418920
Zn2	Zn	-0.602049	-1.132127	-0.295091
Zn3	Zn	-0.424060	-1.008357	-0.295076
Zn4	Zn	-0.601994	-1.008341	-0.418874
O5	O	-0.513046	-1.070256	-0.356990
O6	O	-0.447722	-1.235822	-0.402520
O7	O	-0.578453	-1.115686	-0.191456
O8	O	-0.275117	-1.024822	-0.311517
O9	O	-0.578474	-1.235769	-0.311543
O10	O	-0.275133	-1.115808	-0.402505
O11	O	-0.447685	-1.024753	-0.191445
O12	O	-0.447631	-0.904722	-0.311472
O13	O	-0.578379	-1.024794	-0.522513
O14	O	-0.578358	-0.904710	-0.402426
O15	O	-0.447668	-1.115791	-0.522547
O16	O	-0.750988	-1.115669	-0.311499
O17	O	-0.750947	-1.024724	-0.402442
C18	C	-0.789587	-1.070207	-0.356983
C19	C	-0.907893	-1.070254	-0.357005
C20	C	-0.512987	-0.877845	-0.356943
C21	C	-0.512988	-0.795531	-0.356940
C22	C	-0.513019	-1.070299	-0.550152
C23	C	-0.513008	-1.070317	-0.632467
C24	C	-0.977162	-1.020784	-0.406434
C25	C	-1.048001	-1.002743	-0.338856
C26	C	-1.047853	-1.088363	-0.424595
C27	C	-0.977173	-1.052177	-0.289391
C28	C	-0.977019	-1.137829	-0.375175
C29	C	-1.047826	-1.119813	-0.307551
C30	C	-0.235425	-1.070325	-0.357014
C31	C	-0.117120	-1.070354	-0.357024
C32	C	-0.513029	-0.496440	-0.356989
C33	C	-0.430371	-0.527748	-0.300044
C34	C	-0.430600	-0.613367	-0.299805
C35	C	-0.513008	-0.644823	-0.356965
C36	C	-0.625122	-0.613725	-0.335647
C37	C	-0.624655	-0.528080	-0.335247
C38	C	-0.484551	-0.528050	-0.435388
C39	C	-0.482061	-0.613700	-0.434964
C40	C	-0.513002	-0.728682	-0.356953
C41	C	-0.513042	-0.412581	-0.357000
C42	C	-0.513086	-0.263418	-0.357027
C43	C	-0.513049	-0.345732	-0.357014
C44	C	-0.512808	-1.070360	-0.931558
C45	C	-0.594787	-1.012909	-0.900211
C46	C	-0.595167	-1.013065	-0.814593
C47	C	-0.512907	-1.070338	-0.783175
C48	C	-0.543370	-1.148369	-0.814286
C49	C	-0.543908	-1.148049	-0.899931
C50	C	-0.400185	-1.050458	-0.899973
C51	C	-0.400836	-1.048722	-0.814322
C52	C	-0.512962	-1.070330	-0.699316
C53	C	-0.512757	-1.070373	-1.015417
C54	C	-0.512996	-1.070256	-0.164580
C55	C	-0.512708	-1.070381	-0.082266
H56	H	-1.079203	-0.945643	-0.323502
H57	H	-0.678646	-1.026206	-0.794117
C58	C	-0.655117	-1.170858	-0.926943
C59	C	-0.742819	-1.189237	-0.870585
C60	C	-0.854026	-1.212058	-0.897593
C61	C	-0.877532	-1.216500	-0.980958
C62	C	-0.789828	-1.198121	-1.037322
C63	C	-0.678621	-1.175300	-1.010314
H64	H	-0.725421	-1.185949	-0.808868
H65	H	-0.918951	-1.225663	-0.855868
H66	H	-0.959854	-1.233394	-1.000951
H67	H	-0.807226	-1.201409	-1.099039
H68	H	-0.613696	-1.161695	-1.052039
H69	H	-0.537883	-0.635115	-0.479667
H70	H	-0.377864	-0.991298	-0.793986
H71	H	-0.449428	-0.633824	-0.241714
H72	H	-0.946255	-1.036835	-0.232223
H73	H	-0.346976	-0.507163	-0.313256
H74	H	-0.486791	-1.192306	-0.920670
H75	H	-1.078658	-1.161691	-0.265710
C76	C	-0.565883	-0.500705	-0.492711
C77	C	-0.657687	-0.449949	-0.468549
C78	C	-0.739025	-0.422602	-0.525864
C79	C	-0.728558	-0.446012	-0.607340
C80	C	-0.636750	-0.496772	-0.631505
C81	C	-0.555412	-0.524118	-0.574191
H82	H	-0.665439	-0.432616	-0.408232
H83	H	-0.806988	-0.385027	-0.507974
H84	H	-0.788769	-0.425769	-0.649767
H85	H	-0.628998	-0.514104	-0.691822
H86	H	-0.487449	-0.561693	-0.592080
H87	H	-0.576103	-0.955202	-0.793556
C88	C	-0.465245	-1.207753	-0.786800
C89	C	-0.452596	-1.221978	-0.703396
C90	C	-0.374467	-1.281359	-0.675910
C91	C	-0.308986	-1.326515	-0.731826
C92	C	-0.321632	-1.312290	-0.815235
C93	C	-0.399762	-1.252909	-0.842722
H94	H	-0.501071	-1.188551	-0.661999
H95	H	-0.365105	-1.291889	-0.614165
H96	H	-0.251149	-1.370472	-0.711479
H97	H	-0.273158	-1.345718	-0.856632
H98	H	-0.409123	-1.242380	-0.904466
H99	H	-0.945820	-1.194916	-0.390561
H100	H	-1.078900	-1.103640	-0.481747
C101	C	-0.569300	-0.934501	-0.928009
C102	C	-0.473739	-0.921676	-0.979514
C103	C	-0.448252	-0.843266	-1.007318
C104	C	-0.518325	-0.777681	-0.983618
C105	C	-0.613892	-0.790504	-0.932111
C106	C	-0.639379	-0.868914	-0.904306
H107	H	-0.421861	-0.970228	-0.997061
H108	H	-0.377507	-0.833774	-1.045448
H109	H	-0.499458	-0.719637	-1.004201
H110	H	-0.665770	-0.741952	-0.914564
H111	H	-0.710125	-0.878406	-0.866177
C112	C	-0.455501	-0.498641	-0.222019
C113	C	-0.550669	-0.446617	-0.209839
C114	C	-0.575803	-0.417509	-0.131815
C115	C	-0.505771	-0.440425	-0.065971
C116	C	-0.410597	-0.492451	-0.078149
C117	C	-0.385463	-0.521559	-0.156173
H118	H	-0.602516	-0.429651	-0.258582
H119	H	-0.646257	-0.378996	-0.122800
H120	H	-0.524377	-0.418877	-0.008213
H121	H	-0.358750	-0.509417	-0.029406
H122	H	-0.315009	-0.560073	-0.165188
C123	C	-0.706877	-1.030487	-0.929292
C124	C	-0.797077	-1.048270	-0.874679
C125	C	-0.909166	-1.065853	-0.903760
C126	C	-0.931055	-1.065652	-0.987454
C127	C	-0.840852	-1.047868	-1.042073
C128	C	-0.728763	-1.030285	-1.012992
H129	H	-0.780876	-1.048419	-0.812718
H130	H	-0.975940	-1.079017	-0.863327
H131	H	-1.014030	-1.078668	-1.008982
H132	H	-0.857053	-1.047719	-1.104033
H133	H	-0.661989	-1.017120	-1.053425
C134	C	-0.318285	-0.641777	-0.317845
C135	C	-0.227757	-0.586534	-0.332571
C136	C	-0.115435	-0.614940	-0.350607
C137	C	-0.093642	-0.698589	-0.353917
C138	C	-0.184173	-0.753837	-0.339190
C139	C	-0.296494	-0.725431	-0.321154
H140	H	-0.243887	-0.524608	-0.330121
H141	H	-0.048419	-0.574042	-0.361509
H142	H	-0.010495	-0.719617	-0.367268
H143	H	-0.168042	-0.815763	-0.341640
H144	H	-0.363511	-0.766329	-0.310252
H145	H	-0.624824	-1.165530	-0.792851
H146	H	-0.688361	-0.634101	-0.375828
C147	C	-0.657276	-0.501044	-0.257821
C148	C	-0.756547	-0.452282	-0.248305
C149	C	-0.789165	-0.425251	-0.170877
C150	C	-0.722512	-0.446981	-0.102965
C151	C	-0.623235	-0.495745	-0.112480
C152	C	-0.590617	-0.522777	-0.189908
H153	H	-0.805893	-0.436194	-0.298579
H154	H	-0.862657	-0.389152	-0.163834
H155	H	-0.746658	-0.426970	-0.045648
H156	H	-0.573889	-0.511834	-0.062205
H157	H	-0.517125	-0.558876	-0.196951
C158	C	-0.376025	-0.498893	-0.461574
C159	C	-0.331647	-0.522631	-0.537227
C160	C	-0.223116	-0.493474	-0.563403
C161	C	-0.158963	-0.440580	-0.513926
C162	C	-0.203341	-0.416839	-0.438268
C163	C	-0.311871	-0.445996	-0.412092
H164	H	-0.379137	-0.561789	-0.573857
H165	H	-0.190265	-0.511049	-0.619410
H166	H	-0.078623	-0.418996	-0.533303
H167	H	-0.155851	-0.377681	-0.401638
H168	H	-0.344722	-0.428421	-0.356085
C169	C	-0.313930	-1.101121	-0.785437
C170	C	-0.247476	-1.147032	-0.840170
C171	C	-0.160570	-1.199436	-0.811286
C172	C	-0.140119	-1.205929	-0.727670
C173	C	-0.206575	-1.160017	-0.672932
C174	C	-0.293480	-1.107612	-0.701816
H175	H	-0.262613	-1.142227	-0.902072
H176	H	-0.111375	-1.233424	-0.851807
H177	H	-0.075787	-1.244722	-0.706289
H178	H	-0.191438	-1.164822	-0.611029
H179	H	-0.342675	-1.073625	-0.661294
H180	H	-0.688326	-0.507370	-0.374916
H181	H	-0.649698	-0.635144	-0.278955
H182	H	-0.399558	-0.634029	-0.451038
C183	C	-0.935232	-0.964172	-0.462821
C184	C	-0.964693	-0.971604	-0.545050
C185	C	-0.922762	-0.914990	-0.601432
C186	C	-0.851369	-0.850944	-0.575585
C187	C	-0.821904	-0.843509	-0.493351
C188	C	-0.863836	-0.900123	-0.436969
H189	H	-1.017546	-1.019017	-0.564188
H190	H	-0.944574	-0.920494	-0.662307
H191	H	-0.820328	-0.809035	-0.617322
H192	H	-0.769051	-0.796096	-0.474213
H193	H	-0.842024	-0.894619	-0.376094
C194	C	-0.362693	-0.974921	-0.929118
C195	C	-0.428349	-0.904994	-0.912900
C196	C	-0.390870	-0.829454	-0.942045
C197	C	-0.287737	-0.823841	-0.987407
C198	C	-0.222075	-0.893771	-1.003627
C199	C	-0.259553	-0.969311	-0.974482
H200	H	-0.504700	-0.909146	-0.879319
H201	H	-0.439478	-0.777687	-0.930038
H202	H	-0.259993	-0.767922	-1.008982
H203	H	-0.145724	-0.889618	-1.037209
H204	H	-0.210946	-1.021077	-0.986489
C205	C	-0.317667	-1.106982	-0.927361
C206	C	-0.352236	-1.170883	-0.978129
C207	C	-0.269729	-1.227410	-1.005521
C208	C	-0.152652	-1.220034	-0.982144
C209	C	-0.118077	-1.156129	-0.931372
C210	C	-0.200585	-1.099603	-0.903981
H211	H	-0.438909	-1.176346	-0.995437
H212	H	-0.295325	-1.274716	-1.043105
H213	H	-0.091575	-1.261878	-1.002421
H214	H	-0.031405	-1.150667	-0.914065
H215	H	-0.174989	-1.052297	-0.866396
