data_functionalizedCrystal
_audit_creation_method	'MofGen! by Chris Wilmer'
_symmetry_space_group_name_H-M	'P1'
_symmetry_Int_Tables_number	1
_symmetry_cell_setting	triclinic
loop_
_symmetry_equiv_pos_as_xyz
  x,y,z
_cell_length_a	21.295418
_cell_length_b	13.897448
_cell_length_c	13.897441
_cell_angle_alpha	89.971988
_cell_angle_beta	90.041083
_cell_angle_gamma	89.964616
loop_
_atom_site_label
_atom_site_type_symbol
_atom_site_fract_x
_atom_site_fract_y
_atom_site_fract_z
Zn1	Zn	0.962387	0.383577	0.545922
Zn2	Zn	1.462387	0.883577	1.045922
Zn3	Zn	0.962315	0.544899	0.384631
Zn4	Zn	1.462315	1.044899	0.884631
Zn5	Zn	0.857115	0.383664	0.384584
Zn6	Zn	1.357115	0.883664	0.884584
Zn7	Zn	0.857100	0.544876	0.545826
Zn8	Zn	1.357100	1.044876	1.045826
O9	O	0.909729	0.464254	0.465241
O10	O	1.409729	0.964254	0.965241
O11	O	1.050467	0.404950	0.524587
O12	O	1.550467	0.904950	1.024587
O13	O	0.948336	0.523556	0.249643
O14	O	1.448336	1.023556	0.749643
O15	O	0.871117	0.248671	0.406006
O16	O	1.371117	0.748671	0.906006
O17	O	1.050414	0.523472	0.406087
O18	O	1.550414	1.023472	0.906087
O19	O	0.948459	0.248607	0.524541
O20	O	1.448459	0.748607	1.024541
O21	O	0.871046	0.405098	0.249608
O22	O	1.371046	0.905098	0.749608
O23	O	0.769024	0.405076	0.405913
O24	O	1.269024	0.905076	0.905913
O25	O	0.871090	0.523434	0.680821
O26	O	1.371090	1.023434	1.180821
O27	O	0.769012	0.523518	0.524377
O28	O	1.269012	1.023518	1.024377
O29	O	0.948445	0.404928	0.680891
O30	O	1.448445	0.904928	1.180891
O31	O	0.948321	0.679877	0.405994
O32	O	1.448321	1.179877	0.905994
O33	O	0.871020	0.679861	0.524423
O34	O	1.371020	1.179861	1.024423
C35	C	0.909678	0.714868	0.465224
C36	C	1.409678	1.214868	0.965224
C37	C	0.909714	0.822082	0.465249
C38	C	1.409714	1.322082	0.965249
C39	C	0.746178	0.464305	0.465130
C40	C	1.246178	0.964305	0.965130
C41	C	0.676209	0.464349	0.465105
C42	C	1.176209	0.964349	0.965105
C43	C	0.909775	1.018377	0.465319
C44	C	1.409775	1.518377	0.965319
C45	C	0.909739	0.909145	0.465283
C46	C	1.409739	1.409145	0.965283
C47	C	0.643353	0.526104	0.526697
C48	C	1.143353	1.026104	1.026697
C49	C	0.577611	0.526080	0.526741
C50	C	1.077611	1.026080	1.026741
C51	C	0.544727	0.464312	0.465175
C52	C	1.044727	0.964312	0.965175
C53	C	0.577591	0.402546	0.403578
C54	C	1.077591	0.902546	0.903578
C55	C	0.643332	0.402564	0.403543
C56	C	1.143332	0.902564	0.903543
N57	N	0.441453	0.456784	0.380807
N58	N	0.941453	0.956784	0.880807
N59	N	0.379001	0.456772	0.380843
N60	N	0.879001	0.956772	0.880843
C61	C	0.346652	0.464251	0.465277
C62	C	0.846652	0.964251	0.965277
N63	N	0.379114	0.471761	0.549676
N64	N	0.879114	0.971761	1.049676
N65	N	0.441571	0.471778	0.549639
N66	N	0.941571	0.971778	1.049639
C67	C	0.473442	0.464284	0.465206
C68	C	0.973442	0.964284	0.965206
C69	C	0.242511	0.525983	0.526921
C70	C	0.742511	1.025983	1.026921
C71	C	0.176767	0.525952	0.526966
C72	C	0.676767	1.025952	1.026966
C73	C	0.176748	0.402422	0.403795
C74	C	0.676748	0.902422	0.903795
C75	C	0.242491	0.402448	0.403759
C76	C	0.742491	0.902448	0.903759
C77	C	0.275368	0.464233	0.465320
C78	C	0.775368	0.964233	0.965320
C79	C	1.073919	0.464204	0.465353
C80	C	1.573919	0.964204	0.965353
C81	C	1.143888	0.464182	0.465401
C82	C	1.643888	0.964182	0.965401
C83	C	0.909774	0.464169	0.716834
C84	C	1.409774	0.964169	1.216834
C85	C	0.909793	0.464132	0.824048
C86	C	1.409793	0.964132	1.324048
C87	C	0.909792	1.212661	0.465290
C88	C	1.409792	1.712661	0.965290
C89	C	0.909806	1.105447	0.465340
C90	C	1.409806	1.605447	0.965340
C91	C	0.909721	0.464269	0.214627
C92	C	1.409721	0.964269	0.714627
C93	C	0.909824	0.464034	0.107413
C94	C	1.409824	0.964034	0.607413
C95	C	0.909810	0.464067	1.020343
C96	C	1.409810	0.964067	1.520343
C97	C	0.909799	0.464106	0.911111
C98	C	1.409799	0.964106	1.411111
H99	H	0.550854	0.576368	0.576900
H100	H	1.050854	1.076368	1.076900
H101	H	0.269242	0.352165	0.353599
H102	H	0.769242	0.852165	0.853599
H103	H	0.670118	0.576413	0.576827
H104	H	1.170118	1.076413	1.076827
H105	H	0.150017	0.576238	0.577128
H106	H	0.650017	1.076238	1.077128
H107	H	0.550813	0.352252	0.353452
H108	H	1.050813	0.852252	0.853452
O109	O	0.678771	0.335955	0.337104
O110	O	1.178771	0.835955	0.837104
H111	H	0.730009	0.346343	0.347426
H112	H	1.230009	0.846343	0.847426
H113	H	0.269281	0.576287	0.577054
H114	H	0.769281	1.076287	1.077054
H115	H	0.149975	0.352125	0.353671
H116	H	0.649975	0.852125	0.853671
