data_functionalizedCrystal
_audit_creation_method	'MofGen! by Chris Wilmer'
_symmetry_space_group_name_H-M	'P1'
_symmetry_Int_Tables_number	1
_symmetry_cell_setting	triclinic
loop_
_symmetry_equiv_pos_as_xyz
  x,y,z
_cell_length_a	16.992694
_cell_length_b	12.837942
_cell_length_c	15.455313
_cell_angle_alpha	92.949088
_cell_angle_beta	87.142206
_cell_angle_gamma	92.748582
loop_
_atom_site_label
_atom_site_type_symbol
_atom_site_fract_x
_atom_site_fract_y
_atom_site_fract_z
O1	O	1.060029	0.216906	-0.072020
O2	O	1.560029	0.716906	0.427980
O3	O	0.831564	0.214478	-0.072045
O4	O	1.331564	0.714478	0.427955
O5	O	0.940730	0.064370	-0.072028
O6	O	1.440730	0.564370	0.427972
O7	O	0.950863	0.367014	-0.072037
O8	O	1.450863	0.867014	0.427963
O9	O	0.934485	0.072916	0.072233
O10	O	1.434485	0.572916	0.572233
O11	O	0.825318	0.223024	0.072216
O12	O	1.325318	0.723024	0.572216
O13	O	1.053784	0.225452	0.072241
O14	O	1.553784	0.725452	0.572241
Cu15	Cu	0.938981	0.225018	0.085401
Cu16	Cu	1.438981	0.725018	0.585401
Cu17	Cu	0.946367	0.214912	-0.085205
Cu18	Cu	1.446367	0.714912	0.414795
O19	O	0.944617	0.375560	0.072224
O20	O	1.444617	0.875560	0.572224
C21	C	0.798995	0.215629	0.000082
C22	C	1.298995	0.715629	0.500082
C23	C	0.711256	0.206315	0.000072
C24	C	1.211256	0.706315	0.500072
C25	C	0.934185	0.029739	0.000102
C26	C	1.434185	0.529739	0.500102
C27	C	0.923977	-0.086184	0.000099
C28	C	1.423977	0.413816	0.500099
C29	C	0.667730	0.296178	0.000070
C30	C	1.167730	0.796178	0.500070
C31	C	0.585288	0.287422	0.000082
C32	C	1.085288	0.787422	0.500082
C33	C	0.546375	0.188801	0.000091
C34	C	1.046375	0.688801	0.500091
C35	C	0.589907	0.098931	0.000095
C36	C	1.089907	0.598931	0.500095
C37	C	0.672346	0.107689	0.000089
C38	C	1.172346	0.607689	0.500089
C39	C	0.300064	0.152503	0.000115
C40	C	0.800064	0.652503	0.500115
C41	C	0.217618	0.143751	0.000118
C42	C	0.717618	0.643751	0.500118
C43	C	0.213006	0.332243	0.000107
C44	C	0.713006	0.832243	0.500107
C45	C	0.295447	0.340992	0.000096
C46	C	0.795447	0.840992	0.500096
C47	C	0.338972	0.251123	0.000105
C48	C	0.838972	0.751123	0.500105
N49	N	0.462107	0.179848	0.000100
N50	N	0.962107	0.679848	0.500100
N51	N	0.423238	0.260077	0.000102
N52	N	0.923238	0.760077	0.500102
C53	C	1.046699	-0.316976	0.000095
C54	C	1.546699	0.183024	0.500095
C55	C	1.037111	-0.425897	0.000093
C56	C	1.537111	0.074103	0.500093
C57	C	0.895215	-0.412947	0.000086
C58	C	1.395215	0.087053	0.500086
C59	C	0.904802	-0.304027	0.000088
C60	C	1.404802	0.195973	0.500088
C61	C	0.980547	-0.256046	0.000094
C62	C	1.480547	0.243954	0.500094
C63	C	0.990134	-0.147123	0.000103
C64	C	1.490134	0.352877	0.500103
C65	C	0.848238	-0.134176	0.000090
C66	C	1.348238	0.365824	0.500090
C67	C	0.838650	-0.243096	0.000087
C68	C	1.338650	0.256904	0.500087
C69	C	1.086352	0.224301	0.000112
C70	C	1.586352	0.724301	0.500112
C71	C	1.174092	0.233614	0.000116
C72	C	1.674092	0.733614	0.500116
C73	C	0.951163	0.410191	0.000092
C74	C	1.451163	0.910191	0.500092
C75	C	0.961371	0.526114	0.000089
C76	C	1.461371	1.026114	0.500089
N77	N	0.933792	0.232127	0.205396
N78	N	1.433792	0.732127	0.705396
N79	N	0.951562	0.207795	-0.205199
N80	N	1.451562	0.707795	0.294801
C81	C	0.980189	0.168382	0.250797
C82	C	1.480189	0.668382	0.750797
C83	C	0.976273	0.173768	0.341604
C84	C	1.476273	0.673768	0.841604
C85	C	0.925963	0.242905	0.387008
C86	C	1.425963	0.742905	0.887008
C87	C	0.879560	0.306652	0.341600
C88	C	1.379560	0.806652	0.841600
C89	C	0.883473	0.301260	0.250795
C90	C	1.383473	0.801260	0.750795
C91	C	0.909072	0.266151	0.658587
C92	C	1.409072	0.766151	1.158587
C93	C	0.905164	0.271540	0.749399
C94	C	1.405164	0.771540	1.249399
C95	C	1.001877	0.138654	0.749397
C96	C	1.501877	0.638654	1.249397
C97	C	1.005788	0.133273	0.658589
C98	C	1.505788	0.633273	1.158589
C99	C	0.959383	0.197016	0.613189
C100	C	1.459383	0.697016	1.113189
N101	N	0.921960	0.248414	0.479828
N102	N	1.421960	0.748414	0.979828
N103	N	0.963381	0.191501	0.520371
N104	N	1.463381	0.691501	1.020371
H105	H	0.699407	0.376486	0.000063
H106	H	1.199407	0.876486	0.500063
C107	C	0.347931	0.053650	0.000119
C108	C	0.847931	0.553650	0.500119
H109	H	0.312946	-0.006337	0.000116
H110	H	0.812946	0.493663	0.500116
H111	H	0.378015	0.056125	0.050425
H112	H	0.878015	0.556125	0.550425
H113	H	0.382357	0.050164	-0.050195
H114	H	0.882357	0.550164	0.449805
H115	H	0.549853	0.360598	0.000080
H116	H	1.049853	0.860598	0.500080
C117	C	0.775468	-0.067151	0.000082
C118	C	1.275468	0.432849	0.500082
H119	H	0.792024	0.004591	0.000078
H120	H	1.292024	0.504591	0.500078
H121	H	0.742567	-0.079365	0.050384
H122	H	1.242567	0.420635	0.550384
H123	H	0.746927	-0.085318	-0.050236
H124	H	1.246927	0.414682	0.449764
H125	H	0.707784	0.034513	0.000091
H126	H	1.207784	0.534513	0.500091
H127	H	0.177559	0.405409	0.000101
H128	H	0.677559	0.905409	0.500101
C129	C	0.338250	0.449472	0.000083
C130	C	0.838250	0.949472	0.500083
H131	H	0.393583	0.441816	0.000070
H132	H	0.893583	0.941816	0.500070
H133	H	0.321625	0.489751	0.050386
H134	H	0.821625	0.989751	0.550386
H135	H	0.325960	0.483769	-0.050234
H136	H	0.825960	0.983769	0.449766
H137	H	0.845690	0.353166	0.213830
H138	H	1.345690	0.853166	0.713830
H139	H	1.051808	-0.108058	0.000111
H140	H	1.551808	0.391942	0.500111
H141	H	1.108372	-0.277909	0.000108
H142	H	1.608372	0.222091	0.500108
C143	C	0.174815	0.035264	0.000129
C144	C	0.674815	0.535264	0.500129
H145	H	0.212542	-0.017005	0.000141
H146	H	0.712542	0.482995	0.500141
H147	H	0.144924	0.024949	-0.050177
H148	H	0.644924	0.524949	0.449823
H149	H	0.140578	0.030918	0.050443
H150	H	0.640578	0.530918	0.550443
H151	H	0.558216	0.018632	0.000114
H152	H	1.058216	0.518632	0.500114
H153	H	1.090979	-0.475503	0.000090
H154	H	1.590979	0.024497	0.500090
H155	H	1.046755	0.076976	0.621623
H156	H	1.546755	0.576976	1.121623
C157	C	0.755337	-0.295877	0.000077
C158	C	1.255337	0.204123	0.500077
H159	H	0.717313	-0.243987	0.000071
H160	H	1.217313	0.256013	0.500071
H161	H	0.746470	-0.335127	0.050379
H162	H	1.246470	0.164873	0.550379
H163	H	0.750826	-0.341069	-0.050241
H164	H	1.250826	0.158931	0.449759
C165	C	1.035530	0.092329	0.200861
C166	C	1.535530	0.592329	0.700861
H167	H	1.062595	0.055130	0.240909
H168	H	1.562595	0.555130	0.740909
H169	H	1.072703	0.130490	0.165426
H170	H	1.572703	0.630490	0.665426
H171	H	1.005425	0.044428	0.165449
H172	H	1.505425	0.544428	0.665449
H173	H	0.833547	-0.452034	0.000071
H174	H	1.333547	0.047966	0.500071
H175	H	1.014053	0.121861	0.378570
H176	H	1.514053	0.621861	0.878570
C177	C	0.849774	0.347535	0.799342
C178	C	1.349774	0.847535	1.299342
H179	H	0.822679	0.384703	0.759299
H180	H	1.322679	0.884703	1.259299
H181	H	0.879833	0.395453	0.834778
H182	H	1.379833	0.895453	1.334778
H183	H	0.812618	0.309305	0.834752
H184	H	1.312618	0.809305	1.334752
C185	C	1.052910	0.068533	0.799338
C186	C	1.552910	0.568533	1.299338
H187	H	1.043371	0.081636	0.859921
H188	H	1.543371	0.581636	1.359921
H189	H	1.107055	0.083374	0.784448
H190	H	1.607055	0.583374	1.284448
H191	H	1.039774	-0.002684	0.784464
H192	H	1.539774	0.497316	1.284464
C193	C	0.858035	0.336275	0.608658
C194	C	1.358035	0.836275	1.108658
H195	H	0.827520	0.378230	0.648707
H196	H	1.327520	0.878230	1.148707
H197	H	0.823912	0.293909	0.573244
H198	H	1.323912	0.793909	1.073244
H199	H	0.891191	0.379970	0.573227
H200	H	1.391191	0.879970	1.073227
C201	C	0.824221	0.382703	0.391542
C202	C	1.324221	0.882703	0.891542
H203	H	0.828541	0.376794	0.452126
H204	H	1.328541	0.876794	0.952126
H205	H	0.771359	0.366092	0.376672
H206	H	1.271359	0.866092	0.876672
H207	H	0.838637	0.452153	0.376647
H208	H	1.338637	0.952153	0.876647
