data_functionalizedCrystal
_audit_creation_method	'MofGen! by Chris Wilmer'
_symmetry_space_group_name_H-M	'P1'
_symmetry_Int_Tables_number	1
_symmetry_cell_setting	triclinic
loop_
_symmetry_equiv_pos_as_xyz
  x,y,z
_cell_length_a	12.759400
_cell_length_b	12.759401
_cell_length_c	12.759393
_cell_angle_alpha	89.981425
_cell_angle_beta	89.969615
_cell_angle_gamma	90.014455
loop_
_atom_site_label
_atom_site_type_symbol
_atom_site_fract_x
_atom_site_fract_y
_atom_site_fract_z
Zn1	Zn	-0.418192	1.606260	-0.593994
Zn2	Zn	-0.593911	1.606156	-0.418318
Zn3	Zn	-0.418248	1.430562	-0.418333
Zn4	Zn	-0.593831	1.430553	-0.593959
O5	O	-0.506045	1.518383	-0.506151
O6	O	-0.441512	1.753267	-0.570698
O7	O	-0.570666	1.582824	-0.271299
O8	O	-0.271219	1.453916	-0.441656
O9	O	-0.570612	1.753191	-0.441630
O10	O	-0.271178	1.583000	-0.570713
O11	O	-0.441607	1.453816	-0.271310
O12	O	-0.441529	1.283540	-0.441622
O13	O	-0.570475	1.453900	-0.740985
O14	O	-0.570529	1.283533	-0.570653
O15	O	-0.441434	1.582991	-0.741010
O16	O	-0.740921	1.582815	-0.441596
O17	O	-0.740862	1.453799	-0.570639
C18	C	-0.506027	1.245415	-0.506136
C19	C	-0.506045	1.128639	-0.506154
C20	C	-0.438944	1.073817	-0.573464
C21	C	-0.438955	0.964093	-0.573471
C22	C	-0.573176	0.964022	-0.438856
C23	C	-0.573159	1.073744	-0.438844
C24	C	-0.779013	1.518323	-0.506135
C25	C	-0.895789	1.518394	-0.506163
C26	C	-1.060277	1.585631	-0.573443
C27	C	-0.950553	1.585577	-0.573419
C28	C	-0.950756	1.451268	-0.438919
C29	C	-1.060478	1.451329	-0.438938
C30	C	-0.232012	1.518471	-0.506190
C31	C	-0.115235	1.518508	-0.506207
C32	C	-0.505939	1.518456	-0.780184
C33	C	-0.505894	1.518487	-0.896961
C34	C	-0.506064	1.792416	-0.506166
C35	C	-0.506072	1.909193	-0.506173
C36	C	-0.438681	1.451337	-0.951828
C37	C	-0.438648	1.451361	-1.061552
C38	C	-0.573045	1.585696	-1.061532
C39	C	-0.573082	1.585665	-0.951810
C40	C	-0.506075	1.518370	-0.233183
C41	C	-0.505825	1.518542	-0.116407
H42	H	-0.384291	1.118509	-0.628269
H43	H	-0.906161	1.396571	-0.384152
H44	H	-0.627747	1.640391	-1.106204
H45	H	-0.905808	1.640236	-0.628168
H46	H	-0.384313	0.919462	-0.628280
H47	H	-1.105226	1.396668	-0.384180
H48	H	-0.627819	1.640350	-0.907136
H49	H	-0.383917	1.396679	-1.106220
C50	C	-0.647005	0.903628	-0.364825
N51	N	-0.702617	0.858140	-0.309067
C52	C	-0.646979	1.134051	-0.364794
N53	N	-0.702576	1.179475	-0.309020
H54	H	-1.104857	1.640329	-0.628222
H55	H	-0.383972	1.396636	-0.907173
