data_functionalizedCrystal
_audit_creation_method	'MofGen! by Chris Wilmer'
_symmetry_space_group_name_H-M	'P1'
_symmetry_Int_Tables_number	1
_symmetry_cell_setting	triclinic
loop_
_symmetry_equiv_pos_as_xyz
  x,y,z
_cell_length_a	12.811457
_cell_length_b	11.792241
_cell_length_c	11.892095
_cell_angle_alpha	93.915739
_cell_angle_beta	91.498327
_cell_angle_gamma	84.118185
loop_
_atom_site_label
_atom_site_type_symbol
_atom_site_fract_x
_atom_site_fract_y
_atom_site_fract_z
O1	O	1.390087	0.156591	0.048503
O2	O	1.086807	0.170827	0.017409
O3	O	1.245806	-0.001417	0.033718
O4	O	1.231088	0.328835	0.032194
O5	O	1.232549	0.012922	0.220366
O6	O	1.073550	0.185166	0.204057
O7	O	1.376830	0.170930	0.235150
Zn8	Zn	1.223085	0.180325	0.249238
Zn9	Zn	1.240552	0.161432	0.003322
O10	O	1.217830	0.343174	0.218841
C11	C	1.041352	0.176760	0.106752
C12	C	0.925661	0.173060	0.094892
C13	C	0.693812	0.181720	0.276110
C14	C	0.585110	0.178244	0.264971
C15	C	0.599553	0.162623	0.061477
C16	C	0.708256	0.166099	0.072615
C17	C	0.755380	0.175649	0.179935
C18	C	0.864084	0.179134	0.191073
C19	C	0.878526	0.163505	-0.012420
C20	C	0.769824	0.160028	-0.023559
C21	C	1.238253	-0.036544	0.126947
C22	C	1.235485	-0.162574	0.126662
C23	C	1.230398	-0.393318	0.126122
C24	C	1.233225	-0.264915	0.126422
C25	C	1.422285	0.164997	0.145805
C26	C	1.537976	0.168697	0.157658
C27	C	1.225384	0.378301	0.125610
C28	C	1.228152	0.504331	0.125887
N29	N	1.211172	0.193218	0.417070
N30	N	1.252473	0.148531	-0.164510
C31	C	1.335369	0.058751	0.666457
C32	C	1.327050	0.067771	0.783946
C33	C	1.186209	0.220273	0.769537
C34	C	1.194528	0.211252	0.652049
C35	C	1.269112	0.130490	0.600513
C36	C	1.277436	0.121476	0.483023
C37	C	1.136591	0.273971	0.468616
C38	C	1.128271	0.282991	0.586105
H39	H	0.561167	0.154828	-0.025898
Br40	Br	0.757770	0.194702	0.421753
H41	H	1.338168	0.055718	0.441065
H42	H	1.396105	-0.007001	0.624497
Br43	Br	1.416969	-0.029598	0.873439
H44	H	0.534983	0.183193	0.343287
Br45	Br	0.705864	0.147022	-0.169200
Br46	Br	1.084979	0.329857	0.839488
H47	H	0.928667	0.158569	-0.090733
Br48	Br	1.027050	0.392587	0.656052
H49	H	1.082642	0.332389	0.414911
H50	H	0.902450	0.186917	0.278458
