data_functionalizedCrystal
_audit_creation_method	'MofGen! by Chris Wilmer'
_symmetry_space_group_name_H-M	'P1'
_symmetry_Int_Tables_number	1
_symmetry_cell_setting	triclinic
loop_
_symmetry_equiv_pos_as_xyz
  x,y,z
_cell_length_a	19.121063
_cell_length_b	15.298073
_cell_length_c	19.121278
_cell_angle_alpha	96.881791
_cell_angle_beta	89.864274
_cell_angle_gamma	77.498461
loop_
_atom_site_label
_atom_site_type_symbol
_atom_site_fract_x
_atom_site_fract_y
_atom_site_fract_z
Zn1	Zn	-0.074078	-1.343379	-0.581643
Zn2	Zn	0.425922	-0.843379	-0.081643
Zn3	Zn	-0.196414	-1.342717	-0.469315
Zn4	Zn	0.303586	-0.842717	0.030685
Zn5	Zn	-0.099381	-1.198564	-0.445733
Zn6	Zn	0.400619	-0.698564	0.054267
Zn7	Zn	-0.213369	-1.185658	-0.566244
Zn8	Zn	0.286631	-0.685658	-0.066244
O9	O	-0.145810	-1.267580	-0.515734
O10	O	0.354190	-0.767580	-0.015734
O11	O	-0.072621	-1.469627	-0.583056
O12	O	0.427379	-0.969627	-0.083056
O13	O	-0.187036	-1.328719	-0.368743
O14	O	0.312964	-0.828719	0.131257
O15	O	0.002878	-1.223453	-0.460338
O16	O	0.502878	-0.723453	0.039662
O17	O	-0.162501	-1.469140	-0.500529
O18	O	0.337499	-0.969140	-0.000529
O19	O	0.021468	-1.329848	-0.560190
O20	O	0.521468	-0.829848	-0.060190
O21	O	-0.115746	-1.222811	-0.351417
O22	O	0.384254	-0.722811	0.148583
O23	O	-0.132186	-1.070517	-0.445406
O24	O	0.367814	-0.570517	0.054594
O25	O	-0.191398	-1.201457	-0.665731
O26	O	0.308602	-0.701457	-0.165731
O27	O	-0.215933	-1.061035	-0.533945
O28	O	0.284067	-0.561035	-0.033945
O29	O	-0.089062	-1.317333	-0.677045
O30	O	0.410938	-0.817333	-0.177045
O31	O	-0.297566	-1.316204	-0.485597
O32	O	0.202434	-0.816204	0.014403
O33	O	-0.310022	-1.200814	-0.556811
O34	O	0.189978	-0.700814	-0.056811
C35	C	-0.178646	-1.033019	-0.485446
C36	C	0.321354	-0.533019	0.014554
C37	C	-0.192709	-0.932671	-0.472506
C38	C	0.307291	-0.432671	0.027494
C39	C	-0.045442	-0.650792	-0.608192
C40	C	0.454558	-0.150792	-0.108192
C41	C	-0.032231	-0.745074	-0.620354
C42	C	0.467769	-0.245074	-0.120354
C43	C	-0.072349	-0.791978	-0.583393
C44	C	0.427651	-0.291978	-0.083393
C45	C	-0.125681	-0.744591	-0.534268
C46	C	0.374319	-0.244591	-0.034268
C47	C	-0.138898	-0.650300	-0.522109
C48	C	0.361102	-0.150300	-0.022109
C49	C	-0.165805	-0.791485	-0.497309
C50	C	0.334195	-0.291485	0.002691
C51	C	-0.219137	-0.744098	-0.448184
C52	C	0.280863	-0.244098	0.051816
C53	C	-0.232351	-0.649816	-0.436027
C54	C	0.267649	-0.149816	0.063973
C55	C	-0.192233	-0.602913	-0.472988
C56	C	0.307767	-0.102913	0.027012
C57	C	-0.152588	-0.885777	-0.509469
C58	C	0.347412	-0.385777	-0.009469
C59	C	-0.246044	-0.885284	-0.423385
C60	C	0.253956	-0.385284	0.076615
C61	C	-0.259255	-0.791002	-0.411223
C62	C	0.240745	-0.291002	0.088777
C63	C	-0.329434	-1.257060	-0.522110
C64	C	0.170566	-0.757060	-0.022110
C65	C	-0.407977	-1.252642	-0.524872
C66	C	0.092023	-0.752642	-0.024872
C67	C	-0.438360	-1.310686	-0.489135
C68	C	0.061640	-0.810686	0.010865
C69	C	-0.512159	-1.306535	-0.491737
C70	C	-0.012159	-0.806535	0.008263
C71	C	-0.555574	-1.244335	-0.530072
C72	C	-0.055574	-0.744335	-0.030072
C73	C	-0.525186	-1.186288	-0.565814
C74	C	-0.025186	-0.686288	-0.065814
C75	C	-0.451388	-1.190444	-0.563215
C76	C	0.048612	-0.690444	-0.063215
C77	C	-0.778722	-1.228783	-0.539774
C78	C	-0.278722	-0.728783	-0.039774
C79	C	-0.852526	-1.224630	-0.542368
C80	C	-0.352526	-0.724630	-0.042368
C81	C	-0.839493	-1.344879	-0.468292
C82	C	-0.339493	-0.844879	0.031708
C83	C	-0.765695	-1.349025	-0.465694
C84	C	-0.265695	-0.849025	0.034306
C85	C	-0.735313	-1.290982	-0.501438
C86	C	-0.235313	-0.790982	-0.001438
C87	C	-0.631009	-1.240089	-0.532731
C88	C	-0.131009	-0.740089	-0.032731
C89	C	-0.659878	-1.295233	-0.498783
C90	C	-0.159878	-0.795233	0.001217
C91	C	0.038535	-1.278164	-0.509351
C92	C	0.538535	-0.778164	-0.009351
C93	C	0.117091	-1.282674	-0.506631
C94	C	0.617091	-0.782674	-0.006631
C95	C	-0.139299	-1.258029	-0.697360
C96	C	0.360701	-0.758029	-0.197360
C97	C	-0.136524	-1.253959	-0.774759
C98	C	0.363476	-0.753959	-0.274759
C99	C	-0.112842	-0.503057	-0.546134
C100	C	0.387158	-0.003057	-0.046134
C101	C	-0.098777	-0.603405	-0.559072
C102	C	0.401223	-0.103405	-0.059072
C103	C	-0.118975	-1.228179	-1.212057
C104	C	0.381025	-0.728179	-0.712057
C105	C	-0.121579	-1.232007	-1.139333
C106	C	0.378421	-0.732007	-0.639333
C107	C	-0.160002	-1.289057	-1.111991
C108	C	0.339998	-0.789057	-0.611991
C109	C	-0.195818	-1.342288	-1.157376
C110	C	0.304182	-0.842288	-0.657376
C111	C	-0.193209	-1.338464	-1.230099
C112	C	0.306791	-0.838464	-0.730099
C113	C	-0.169731	-1.303367	-0.892867
C114	C	0.330269	-0.803367	-0.392867
C115	C	-0.172339	-1.307185	-0.820138
C116	C	0.327661	-0.807185	-0.320138
C117	C	-0.098099	-1.196904	-0.802101
C118	C	0.401901	-0.696904	-0.302101
C119	C	-0.095497	-1.193081	-0.874825
C120	C	0.404503	-0.693081	-0.374825
C121	C	-0.131309	-1.246316	-0.920205
C122	C	0.368691	-0.746316	-0.420205
C123	C	-0.162666	-1.292969	-1.037655
C124	C	0.337334	-0.792969	-0.537655
C125	C	-0.128640	-1.242408	-0.994539
C126	C	0.371360	-0.742408	-0.494539
C127	C	-0.152238	-1.277148	-0.334819
C128	C	0.347762	-0.777148	0.165181
C129	C	-0.154789	-1.281404	-0.257437
C130	C	0.345211	-0.781404	0.242563
H131	H	-0.012788	-0.612594	-0.638285
H132	H	0.487212	-0.112594	-0.138285
H133	H	-0.092416	-1.188664	-1.102387
H134	H	0.407584	-0.688664	-0.602387
H135	H	-0.064212	-1.146621	-0.897081
H136	H	0.435788	-0.646621	-0.397081
H137	H	-0.202991	-0.526140	-0.463093
H138	H	0.297009	-0.026140	0.036907
H139	H	-0.068941	-1.153565	-0.765145
H140	H	0.431059	-0.653565	-0.265145
C141	C	-0.545577	-1.370384	-0.452418
C142	C	-0.045577	-0.870384	0.047582
N143	N	-0.570748	-1.418476	-0.422800
N144	N	-0.070748	-0.918476	0.077200
H145	H	-0.203612	-1.353663	-0.797881
H146	H	0.296388	-0.853663	-0.297881
H147	H	-0.864238	-1.392136	-0.439193
H148	H	-0.364238	-0.892136	0.060807
H149	H	-0.403016	-1.361332	-0.457914
H150	H	0.096984	-0.861332	0.042086
C151	C	-0.900281	-1.156208	-0.584547
C152	C	-0.400281	-0.656208	-0.084547
N153	N	-0.936249	-1.104675	-0.616316
N154	N	-0.436249	-0.604675	-0.116316
H155	H	-0.426651	-1.143179	-0.592317
H156	H	0.073349	-0.643179	-0.092317
C157	C	-0.745304	-1.164977	-0.579136
C158	C	-0.245304	-0.664977	-0.079136
N159	N	-0.720128	-1.116931	-0.608801
N160	N	-0.220128	-0.616931	-0.108801
C161	C	-0.572946	-1.117864	-0.607980
C162	C	-0.072946	-0.617864	-0.107980
N163	N	-0.608919	-1.066322	-0.639738
N164	N	-0.108919	-0.566322	-0.139738
C165	C	-0.717947	-1.417428	-0.423501
C166	C	-0.217947	-0.917428	0.076499
N167	N	-0.681985	-1.468940	-0.391711
N168	N	-0.181985	-0.968940	0.108289
C169	C	-0.209134	-1.361919	-0.942775
C170	C	0.290866	-0.861919	-0.442775
N171	N	-0.238815	-1.406022	-0.980368
N172	N	0.261185	-0.906022	-0.480368
H173	H	-0.624527	-1.345880	-0.467573
H174	H	-0.124527	-0.845880	0.032427
H175	H	-0.222372	-1.381808	-1.267047
H176	H	0.277628	-0.881808	-0.767047
C177	C	-0.076705	-1.165420	-1.242126
C178	C	0.423295	-0.665420	-0.742126
N179	N	-0.044863	-1.118151	-1.264773
N180	N	0.455137	-0.618151	-0.764773
C181	C	0.026438	-0.797193	-0.674385
C182	C	0.526438	-0.297193	-0.174385
N183	N	0.070634	-0.836450	-0.715081
N184	N	0.570634	-0.336450	-0.215081
C185	C	-0.093919	-0.937892	-0.563501
C186	C	0.406081	-0.437892	-0.063501
N187	N	-0.049724	-0.977144	-0.604199
N188	N	0.450276	-0.477144	-0.104199
C189	C	-0.086376	-1.179655	-1.024618
C190	C	0.413624	-0.679655	-0.524618
N191	N	-0.054545	-1.132385	-1.047280
N192	N	0.445455	-0.632385	-0.547280
H193	H	-0.061587	-0.868747	-0.593296
H194	H	0.438413	-0.368747	-0.093296
C195	C	-0.238084	-1.405044	-1.127297
C196	C	0.261916	-0.905044	-0.627297
N197	N	-0.269922	-1.452310	-1.104641
N198	N	0.230078	-0.952310	-0.604641
H199	H	-0.275783	-0.611236	-0.396031
H200	H	0.224217	-0.111236	0.103969
H201	H	-0.302680	-0.752406	-0.371225
H202	H	0.197320	-0.252406	0.128775
H203	H	-0.278715	-0.923472	-0.393291
H204	H	0.221285	-0.423472	0.106709
H205	H	-0.666366	-1.189443	-0.563942
H206	H	-0.166366	-0.689443	-0.063942
H207	H	-0.193952	-1.339418	-1.015385
H208	H	0.306048	-0.839418	-0.515385
