data_functionalizedCrystal
_audit_creation_method	'MofGen! by Chris Wilmer'
_symmetry_space_group_name_H-M	'P1'
_symmetry_Int_Tables_number	1
_symmetry_cell_setting	triclinic
loop_
_symmetry_equiv_pos_as_xyz
  x,y,z
_cell_length_a	9.065218
_cell_length_b	13.339070
_cell_length_c	7.540329
_cell_angle_alpha	89.998761
_cell_angle_beta	89.996962
_cell_angle_gamma	100.322590
loop_
_atom_site_label
_atom_site_type_symbol
_atom_site_fract_x
_atom_site_fract_y
_atom_site_fract_z
O1	O	2.018453	0.148888	-0.147480
O2	O	1.593930	0.161101	-0.147482
O3	O	1.757470	0.007285	-0.147476
O4	O	1.854913	0.302705	-0.147487
O5	O	1.757455	0.007283	0.147489
O6	O	1.593915	0.161099	0.147483
O7	O	2.018438	0.148886	0.147485
Cu8	Cu	1.806176	0.154992	0.174416
Cu9	Cu	1.806193	0.154995	-0.174414
O10	O	1.854898	0.302702	0.147479
C11	C	1.538478	0.159926	-0.000000
C12	C	1.373267	0.156417	-0.000001
C13	C	1.741002	-0.030556	0.000004
C14	C	1.691939	-0.143308	-0.000004
C15	C	2.073430	-0.504605	-0.000001
C16	C	2.119533	-0.398670	0.000016
C17	C	2.012638	-0.334824	0.000010
C18	C	1.859634	-0.376924	-0.000011
C19	C	1.813527	-0.482870	-0.000014
C20	C	1.752734	-0.313089	-0.000003
C21	C	1.599730	-0.355188	-0.000024
C22	C	1.553631	-0.461124	-0.000028
C23	C	1.660525	-0.524969	-0.000022
C24	C	1.798841	-0.207143	0.000000
C25	C	1.538938	-0.185408	-0.000012
C26	C	1.492836	-0.291343	-0.000029
C27	C	2.073890	0.150061	-0.000002
C28	C	2.239101	0.153570	-0.000012
C29	C	1.871366	0.340544	-0.000005
C30	C	1.920429	0.453295	-0.000010
N31	N	1.806174	0.154990	0.419765
N32	N	1.806202	0.154989	-0.419763
H33	H	1.923418	-0.172877	0.000018
C34	C	2.190998	-0.574836	0.000008
C35	C	2.195014	-0.650661	0.153179
C36	C	2.312591	-0.720894	0.153190
C37	C	2.426151	-0.715303	0.000032
C38	C	2.422139	-0.639475	-0.153149
C39	C	2.304562	-0.569242	-0.153161
H40	H	2.110947	-0.654803	0.266566
H41	H	2.315561	-0.777027	0.266586
H42	H	2.513188	-0.767294	0.000041
H43	H	2.506206	-0.635333	-0.266537
H44	H	2.301592	-0.513109	-0.266557
C45	C	1.421338	-0.115189	-0.000023
C46	C	1.417303	-0.039367	-0.153193
C47	C	1.299714	0.030857	-0.153197
C48	C	1.186161	0.025260	-0.000030
C49	C	1.190192	-0.050565	0.153151
C50	C	1.307781	-0.120790	0.153155
H51	H	1.501366	-0.035221	-0.266586
H52	H	1.296730	0.086988	-0.266593
H53	H	1.099114	0.077244	-0.000033
H54	H	1.106129	-0.054712	0.266545
H55	H	1.310764	-0.176921	0.266551
H56	H	1.622996	-0.611232	-0.000043
H57	H	2.050184	-0.248568	0.000024
H58	H	1.368256	-0.325636	-0.000046
H59	H	2.244108	-0.364400	0.000036
H60	H	1.429045	-0.495398	-0.000032
