data_functionalizedCrystal
_audit_creation_method	'MofGen! by Chris Wilmer'
_symmetry_space_group_name_H-M	'P1'
_symmetry_Int_Tables_number	1
_symmetry_cell_setting	triclinic
loop_
_symmetry_equiv_pos_as_xyz
  x,y,z
_cell_length_a	19.077105
_cell_length_b	18.050590
_cell_length_c	19.076919
_cell_angle_alpha	92.270515
_cell_angle_beta	90.076224
_cell_angle_gamma	87.714864
loop_
_atom_site_label
_atom_site_type_symbol
_atom_site_fract_x
_atom_site_fract_y
_atom_site_fract_z
Zn1	Zn	1.058306	-0.359282	-0.440410
Zn2	Zn	1.062957	-0.478691	-0.322901
Zn3	Zn	0.945523	-0.349334	-0.318204
Zn4	Zn	0.940779	-0.478243	-0.435654
O5	O	1.001891	-0.416388	-0.379292
O6	O	1.157255	-0.379473	-0.428779
O7	O	1.051311	-0.457555	-0.223947
O8	O	0.960522	-0.246732	-0.334440
O9	O	1.160673	-0.467202	-0.342445
O10	O	1.043383	-0.254041	-0.424224
O11	O	0.965032	-0.362517	-0.220496
O12	O	0.846561	-0.362083	-0.329827
O13	O	0.952437	-0.466439	-0.534616
O14	O	0.843076	-0.456792	-0.416117
O15	O	1.038784	-0.379039	-0.538111
O16	O	1.046712	-0.582553	-0.337833
O17	O	0.956948	-0.582224	-0.420672
C18	C	0.819322	-0.408310	-0.371947
C19	C	0.741218	-0.404873	-0.368821
C20	C	0.702731	-0.452637	-0.412209
C21	C	0.629343	-0.449397	-0.409275
C22	C	0.594444	-0.398397	-0.362950
C23	C	0.632936	-0.350628	-0.319561
C24	C	0.706322	-0.353864	-0.322498
C25	C	0.375155	-0.383420	-0.349358
C26	C	0.301764	-0.380189	-0.346422
C27	C	0.298176	-0.478958	-0.436137
C28	C	0.371564	-0.482193	-0.439068
C29	C	0.410049	-0.434421	-0.395681
N30	N	0.519430	-0.395087	-0.359949
N31	N	0.485062	-0.437728	-0.398687
C32	C	1.001838	-0.609336	-0.379262
C33	C	1.001879	-0.691884	-0.379275
C34	C	1.050788	-0.891494	-0.334297
C35	C	1.065373	-0.944195	-0.399117
C36	C	1.001918	-0.843017	-0.379305
C37	C	0.987403	-0.937403	-0.314516
C38	C	1.001957	-0.989005	-0.379328
C39	C	1.016535	-0.894634	-0.444160
C40	C	0.938536	-0.887835	-0.359515
C41	C	0.953096	-0.940514	-0.424378
C42	C	1.001897	-0.758918	-0.379291
C43	C	1.001977	-1.073103	-0.379349
C44	C	1.185173	-0.424497	-0.386667
C45	C	1.263277	-0.427953	-0.389809
C46	C	0.994562	-0.423799	-0.562572
C47	C	0.991439	-0.426957	-0.640675
C48	C	1.001963	-0.222687	-0.379339
C49	C	1.001993	-0.140143	-0.379358
C50	C	1.034926	-0.382938	-0.679189
C51	C	1.031983	-0.385902	-0.752575
C52	C	0.985556	-0.432890	-0.787446
C53	C	0.942065	-0.476910	-0.748927
C54	C	0.945005	-0.473941	-0.675542
C55	C	0.971940	-0.446644	-1.006726
C56	C	0.969005	-0.449611	-1.080116
C57	C	1.058922	-0.358602	-1.083759
C58	C	1.061860	-0.355641	-1.010373
C59	C	1.018367	-0.399658	-0.971860
N60	N	0.982549	-0.435922	-0.862458
N61	N	1.021371	-0.396621	-0.896850
C62	C	1.009232	-0.408953	-0.196727
C63	C	1.012491	-0.405592	-0.118630
H64	H	0.399974	-0.523724	-0.476789
H65	H	0.909587	-0.509778	-0.644185
C66	C	0.971103	-0.962500	-0.241389
C67	C	1.022405	-0.937668	-0.194482
C68	C	1.007414	-0.960762	-0.127109
H69	H	0.970827	-1.015130	-0.241915
H70	H	0.926411	-0.942365	-0.226976
H71	H	1.067085	-0.957805	-0.208891
H72	H	1.022689	-0.885040	-0.193934
H73	H	0.962722	-0.940628	-0.112695
H74	H	1.007138	-1.013392	-0.127642
H75	H	1.042216	-0.943912	-0.095273
H76	H	1.072733	-0.344678	-0.650802
H77	H	1.067396	-0.350060	-0.783929
H78	H	0.911783	-0.961907	-0.462496
C79	C	0.924640	-0.494302	-0.964870
C80	C	0.881295	-0.448549	-0.920952
C81	C	0.837705	-0.492425	-0.882384
H82	H	0.952575	-0.526698	-0.937254
H83	H	0.896528	-0.522700	-0.996120
H84	H	0.909404	-0.420164	-0.889707
H85	H	0.853345	-0.416154	-0.948550
H86	H	0.809593	-0.520822	-0.913633
H87	H	0.865646	-0.524818	-0.854772
H88	H	0.808286	-0.461387	-0.852586
H89	H	0.731140	-0.494169	-0.449929
C90	C	0.867097	-0.854983	-0.337012
C91	C	0.852151	-0.876494	-0.269097
C92	C	0.786353	-0.846235	-0.248332
H93	H	0.832228	-0.872450	-0.368451
H94	H	0.867475	-0.802393	-0.337546
H95	H	0.851768	-0.929073	-0.268568
H96	H	0.887003	-0.859027	-0.237642
H97	H	0.786731	-0.793645	-0.248866
H98	H	0.751489	-0.863704	-0.279776
H99	H	0.776207	-0.860820	-0.202247
H100	H	1.099668	-0.317381	-0.981986
H101	H	1.094331	-0.322764	-1.115124
C102	C	0.918522	-0.500647	-1.117848
C103	C	0.881048	-0.538546	-1.068414
C104	C	0.834536	-0.585558	-1.103146
H105	H	0.944167	-0.535415	-1.147548
H106	H	0.886736	-0.472054	-1.145235
H107	H	0.912830	-0.567137	-1.041039
H108	H	0.855390	-0.503797	-1.038712
H109	H	0.802750	-0.556965	-1.130533
H110	H	0.860186	-0.620322	-1.132845
H111	H	0.809099	-0.611273	-1.069611
H112	H	0.266833	-0.517850	-0.471461
C113	C	0.587683	-0.501354	-0.456404
C114	C	0.633954	-0.546730	-0.497581
C115	C	0.595604	-0.594613	-0.540997
H116	H	0.557835	-0.473069	-0.485991
H117	H	0.560136	-0.531352	-0.428330
H118	H	0.661489	-0.516736	-0.525653
H119	H	0.663804	-0.575031	-0.468013
H120	H	0.568057	-0.624611	-0.512924
H121	H	0.565757	-0.566323	-0.570580
H122	H	0.626993	-0.625411	-0.568937
C123	C	0.263999	-0.324736	-0.296104
C124	C	0.313409	-0.283577	-0.258749
C125	C	0.278646	-0.232485	-0.212398
H126	H	0.236586	-0.350507	-0.264229
H127	H	0.234321	-0.292214	-0.321881
H128	H	0.343075	-0.316095	-0.232973
H129	H	0.340824	-0.257791	-0.290605
H130	H	0.248968	-0.199963	-0.238175
H131	H	0.251234	-0.258262	-0.180528
H132	H	0.312164	-0.204548	-0.187052
C133	C	0.417021	-0.331681	-0.302209
C134	C	0.460950	-0.373686	-0.258795
C135	C	0.499535	-0.326047	-0.215356
H136	H	0.385804	-0.300833	-0.274136
H137	H	0.444626	-0.301727	-0.330269
H138	H	0.433348	-0.403627	-0.230738
H139	H	0.492181	-0.404531	-0.286849
H140	H	0.527140	-0.296092	-0.243416
H141	H	0.468313	-0.295201	-0.187288
H142	H	0.529350	-0.354540	-0.185899
H143	H	0.604515	-0.309100	-0.281845
C144	C	0.747987	-0.301974	-0.275305
C145	C	0.701720	-0.256632	-0.234091
C146	C	0.740075	-0.208826	-0.190601
H147	H	0.775559	-0.271942	-0.303306
H148	H	0.777813	-0.330338	-0.245748
H149	H	0.671906	-0.228270	-0.263644
H150	H	0.674147	-0.286644	-0.206076
H151	H	0.769901	-0.237190	-0.161045
H152	H	0.767645	-0.178799	-0.218608
H153	H	0.708689	-0.178061	-0.162628
H154	H	1.092127	-0.869968	-0.296277
C155	C	1.136919	-0.977015	-0.421323
C156	C	1.187860	-0.952189	-0.374007
C157	C	1.253775	-0.982413	-0.394430
H158	H	1.147677	-0.961749	-0.467027
H159	H	1.136320	-1.029628	-0.421555
H160	H	1.188461	-0.899588	-0.373782
H161	H	1.177125	-0.967454	-0.328299
H162	H	1.253176	-1.035026	-0.394662
H163	H	1.264526	-0.967145	-0.440135
H164	H	1.288346	-0.965579	-0.362326
H165	H	0.904261	-0.515165	-0.777324
H166	H	1.028773	-0.875827	-0.499005
