data_functionalizedCrystal
_audit_creation_method	'MofGen! by Chris Wilmer'
_symmetry_space_group_name_H-M	'P1'
_symmetry_Int_Tables_number	1
_symmetry_cell_setting	triclinic
loop_
_symmetry_equiv_pos_as_xyz
  x,y,z
_cell_length_a	17.699083
_cell_length_b	17.699092
_cell_length_c	16.776229
_cell_angle_alpha	90.004970
_cell_angle_beta	90.000683
_cell_angle_gamma	83.284691
loop_
_atom_site_label
_atom_site_type_symbol
_atom_site_fract_x
_atom_site_fract_y
_atom_site_fract_z
O1	O	-1.004081	-0.095713	-0.066166
O2	O	-0.783703	-0.108165	-0.066193
O3	O	-0.900115	0.008250	-0.066177
O4	O	-0.887669	-0.212128	-0.066182
O5	O	-0.900100	0.008257	0.066400
O6	O	-0.783688	-0.108158	0.066383
O7	O	-1.004066	-0.095705	0.066411
Zn8	Zn	-0.893874	-0.101931	0.087447
Zn9	Zn	-0.893895	-0.101940	-0.087229
O10	O	-0.887654	-0.212120	0.066395
C11	C	-0.755499	-0.107715	0.000092
C12	C	-0.671480	-0.106377	0.000081
C13	C	-0.622862	-0.174710	0.000079
C14	C	-0.543918	-0.173448	0.000089
C15	C	-0.513595	-0.103851	0.000095
C16	C	-0.562220	-0.035513	0.000099
C17	C	-0.641162	-0.036776	0.000095
C18	C	-0.243857	-0.030418	0.000116
C19	C	-0.164909	-0.029160	0.000118
C20	C	-0.146613	-0.167089	0.000110
C21	C	-0.225555	-0.168352	0.000106
C22	C	-0.274173	-0.100014	0.000115
C23	C	-0.359772	-0.101384	0.000106
C24	C	-0.427998	-0.102481	0.000098
C25	C	-0.032271	-0.096155	0.000123
C26	C	-0.116289	-0.097494	0.000122
N27	N	-0.893866	-0.101924	0.206658
C28	C	-0.899661	0.036450	0.000110
C29	C	-0.898319	0.120468	0.000106
C30	C	-0.888109	-0.240321	0.000106
C31	C	-0.889450	-0.324339	0.000105
C32	C	-0.897700	0.159932	-0.072162
C33	C	-0.896435	0.238875	-0.072163
C34	C	-0.895795	0.278353	0.000105
C35	C	-0.896413	0.238884	0.072379
C36	C	-0.897672	0.159942	0.072379
C37	C	-0.891332	0.557249	0.072380
C38	C	-0.890075	0.636197	0.072374
C39	C	-0.890095	0.636182	-0.072163
C40	C	-0.891354	0.557240	-0.072163
C41	C	-0.891968	0.517777	0.000111
C42	C	-0.893338	0.432178	0.000111
C43	C	-0.894430	0.363952	0.000106
N44	N	-0.893909	-0.101941	-0.206440
C45	C	-0.945429	-0.050396	0.248382
C46	C	-0.945433	-0.050396	0.331834
C47	C	-0.893878	-0.101927	0.373561
C48	C	-0.842309	-0.153457	0.331831
C49	C	-0.842302	-0.153453	0.248380
C50	C	-0.842337	-0.153471	0.668378
C51	C	-0.842349	-0.153472	0.751834
C52	C	-0.945468	-0.050414	0.751832
C53	C	-0.945461	-0.050410	0.668382
C54	C	-0.893890	-0.101937	0.626659
C55	C	-0.893885	-0.101936	0.536170
C56	C	-0.893885	-0.101932	0.464048
H57	H	-0.537525	0.021154	0.000115
H58	H	-0.889552	0.668338	0.131227
O59	O	-0.496656	-0.239805	0.000220
C60	C	-0.450433	-0.243197	0.068874
H61	H	-0.479418	-0.204448	0.116872
H62	H	-0.441442	-0.304182	0.091910
H63	H	-0.393064	-0.223708	0.053357
O64	O	-0.995662	-0.000424	0.792326
C65	C	-1.070556	-0.012622	0.771909
H66	H	-1.070812	-0.073221	0.748968
H67	H	-1.108561	-0.003863	0.826785
H68	H	-1.092857	0.029354	0.723468
H69	H	-0.891879	0.525101	-0.131011
O70	O	-0.898377	0.121538	0.142533
C71	C	-0.964635	0.084578	0.146884
H72	H	-0.986680	0.075640	0.084143
H73	H	-0.950775	0.027116	0.177473
H74	H	-1.010027	0.121091	0.182556
O75	O	-0.792180	-0.203426	0.627815
C76	C	-0.745568	-0.162958	0.579536
H77	H	-0.744392	-0.103272	0.604692
H78	H	-0.685359	-0.193923	0.578589
H79	H	-0.769259	-0.158957	0.516290
O80	O	-0.792187	-0.203557	0.792245
C81	C	-0.746678	-0.249046	0.737526
H82	H	-0.745875	-0.218016	0.678043
H83	H	-0.686219	-0.260660	0.761648
H84	H	-0.771137	-0.305246	0.728640
H85	H	-0.800328	-0.195412	0.365809
H86	H	-0.107018	-0.222733	0.000108
O87	O	-0.891984	0.519046	0.142654
C88	C	-0.891144	0.570821	0.206436
H89	H	-0.914186	0.630270	0.185239
H90	H	-0.928252	0.552900	0.256975
H91	H	-0.830317	0.571161	0.228670
H92	H	-0.680748	0.018868	0.000096
O93	O	-0.995465	-0.000194	0.627951
C94	C	-0.983242	0.074671	0.648465
H95	H	-0.922628	0.074887	0.671372
H96	H	-0.992026	0.112745	0.593647
H97	H	-1.025187	0.096919	0.696961
H98	H	-0.800313	-0.195411	0.214409
O99	O	-0.889351	0.674538	-0.142348
C100	C	-0.823105	0.711520	-0.146667
H101	H	-0.777685	0.681652	-0.105663
H102	H	-0.801103	0.709498	-0.210588
H103	H	-0.836958	0.773314	-0.127243
H104	H	-0.987419	-0.008438	0.365806
O105	O	-0.652188	-0.242383	0.000108
C106	C	-0.592343	-0.302424	0.000090
H107	H	-0.538755	-0.281302	0.025193
H108	H	-0.608752	-0.351022	0.038578
H109	H	-0.581130	-0.323499	-0.063514
O110	O	-0.895691	0.277303	0.142530
C111	C	-0.829432	0.314264	0.146857
H112	H	-0.807404	0.323188	0.084108
H113	H	-0.843285	0.371734	0.177443
H114	H	-0.784031	0.277761	0.182519
O115	O	-0.254884	-0.236024	0.000137
C116	C	-0.195042	-0.296068	0.000119
H117	H	-0.141452	-0.274949	0.025220
H118	H	-0.211453	-0.344664	0.038608
H119	H	-0.183832	-0.317145	-0.063485
H120	H	-0.898224	0.127794	-0.131011
O121	O	-0.995540	-0.000265	0.207976
C122	C	-1.041063	0.045202	0.262703
H123	H	-1.010039	0.046014	0.322192
H124	H	-1.052719	0.105662	0.238600
H125	H	-1.097240	0.020697	0.271569
O126	O	-0.895901	0.277101	-0.142436
C127	C	-0.896739	0.225329	-0.206221
H128	H	-0.921559	0.172225	-0.185014
H129	H	-0.933147	0.253000	-0.256739
H130	H	-0.836189	0.208898	-0.228488
H131	H	-0.283433	0.025227	0.000124
O132	O	-0.135579	0.038516	0.000164
C133	C	-0.195417	0.098563	0.000152
H134	H	-0.249009	0.077449	0.025249
H135	H	-0.179004	0.147159	0.038649
H136	H	-0.206626	0.119638	-0.063449
