data_functionalizedCrystal
_audit_creation_method	'MofGen! by Chris Wilmer'
_symmetry_space_group_name_H-M	'P1'
_symmetry_Int_Tables_number	1
_symmetry_cell_setting	triclinic
loop_
_symmetry_equiv_pos_as_xyz
  x,y,z
_cell_length_a	14.971506
_cell_length_b	15.995292
_cell_length_c	13.448316
_cell_angle_alpha	89.996588
_cell_angle_beta	89.992937
_cell_angle_gamma	83.545502
loop_
_atom_site_label
_atom_site_type_symbol
_atom_site_fract_x
_atom_site_fract_y
_atom_site_fract_z
O1	O	1.186787	0.109200	-0.082692
O2	O	0.926372	0.122250	-0.082691
O3	O	1.063725	-0.006159	-0.082693
O4	O	1.049434	0.237608	-0.082690
O5	O	1.063708	-0.006166	0.082691
O6	O	0.926354	0.122242	0.082693
O7	O	1.186770	0.109192	0.082692
Cu8	Cu	1.056561	0.115716	0.097793
Cu9	Cu	1.056581	0.115726	-0.097792
O10	O	1.049416	0.237600	0.082694
C11	C	0.893039	0.121659	0.000001
C12	C	0.793746	0.119901	0.000000
C13	C	0.355369	0.188630	-0.000009
C14	C	0.448667	0.190275	-0.000013
C15	C	0.505990	0.114830	-0.000010
C16	C	0.470011	0.037735	-0.000012
C17	C	0.376715	0.036091	-0.000015
C18	C	0.664469	0.041168	-0.000004
C19	C	0.757772	0.042812	0.000001
C20	C	0.736422	0.195352	-0.000002
C21	C	0.643126	0.193708	-0.000005
C22	C	0.607153	0.116612	-0.000005
C23	C	1.063135	-0.037359	-0.000004
C24	C	1.061391	-0.130314	-0.000011
C25	C	1.054980	-0.468059	-0.000002
C26	C	1.154118	-0.444641	0.000367
C27	C	1.156003	-0.347963	-0.000009
C28	C	1.058161	-0.300499	-0.000006
C29	C	1.008607	-0.329649	-0.094445
C30	C	1.007413	-0.426441	-0.094520
C31	C	1.005369	-0.426309	0.093552
C32	C	1.009043	-0.329813	0.094796
C33	C	1.059954	-0.205801	-0.000011
C34	C	1.053185	-0.562757	-0.000003
C35	C	1.220102	0.109783	-0.000002
C36	C	1.319396	0.111541	-0.000008
C37	C	1.050007	0.268800	0.000002
C38	C	1.051751	0.361755	0.000003
N39	N	1.056553	0.115709	0.235358
N40	N	1.056596	0.115726	-0.235357
C41	C	1.117392	0.058873	0.287397
C42	C	1.117397	0.058873	0.391500
C43	C	1.056568	0.115712	0.443562
C44	C	0.995722	0.172551	0.391515
C45	C	0.995713	0.172547	0.287414
C46	C	0.995747	0.172556	0.608495
C47	C	0.995757	0.172562	0.712604
C48	C	1.117431	0.058882	0.712582
C49	C	1.117422	0.058878	0.608480
C50	C	1.056578	0.115718	0.556441
H51	H	0.347427	-0.026683	-0.000016
H52	H	0.937628	-0.296920	0.100502
H53	H	0.308703	0.250066	-0.000004
H54	H	1.166936	0.012592	0.433871
O55	O	1.183026	-0.002428	0.552321
H56	H	1.225330	-0.041958	0.605995
H57	H	0.477952	0.253048	-0.000023
H58	H	0.635184	-0.021611	-0.000009
O59	O	0.908713	-0.444956	0.094412
H60	H	0.874540	-0.419225	0.025933
O61	O	1.046494	-0.463694	0.188373
H62	H	1.072201	-0.413373	0.233372
O63	O	1.183053	-0.002432	0.768701
H64	H	1.172834	0.007109	0.849835
H65	H	0.516691	-0.023693	-0.000015
O66	O	1.054152	-0.303167	-0.187648
H67	H	1.078153	-0.359803	-0.231973
H68	H	0.596455	0.255141	-0.000001
O69	O	0.930124	0.233853	0.552350
H70	H	0.941506	0.299151	0.572302
H71	H	1.166930	0.012591	0.245015
O72	O	0.775212	0.278508	-0.000012
H73	H	0.849717	0.266980	-0.000023
O74	O	0.930078	0.233838	0.231286
H75	H	0.940278	0.224275	0.150152
O76	O	0.930132	0.233848	0.768763
H77	H	0.887807	0.273358	0.715090
H78	H	0.946189	0.218828	0.433910
H79	H	1.195056	-0.329513	-0.067825
O80	O	0.819598	-0.038561	0.000007
H81	H	0.890515	-0.024462	0.000025
O82	O	1.207429	-0.322713	0.089650
H83	H	1.173952	-0.341673	0.158398
O84	O	1.204716	-0.481659	0.090096
H85	H	1.206451	-0.551203	0.088590
O86	O	1.204471	-0.483007	-0.088842
H87	H	1.159195	-0.518681	-0.133444
O88	O	1.056827	-0.305171	0.187348
H89	H	1.056594	-0.235775	0.189320
O90	O	1.053261	-0.461770	-0.187896
H91	H	1.016821	-0.433902	-0.253997
H92	H	0.934725	-0.441069	-0.098797
H93	H	0.936609	-0.297858	-0.097954
