data_functionalizedCrystal
_audit_creation_method	'MofGen! by Chris Wilmer'
_symmetry_space_group_name_H-M	'P1'
_symmetry_Int_Tables_number	1
_symmetry_cell_setting	triclinic
loop_
_symmetry_equiv_pos_as_xyz
  x,y,z
_cell_length_a	19.077269
_cell_length_b	14.908178
_cell_length_c	19.077174
_cell_angle_alpha	89.105285
_cell_angle_beta	90.075979
_cell_angle_gamma	91.150529
loop_
_atom_site_label
_atom_site_type_symbol
_atom_site_fract_x
_atom_site_fract_y
_atom_site_fract_z
Zn1	Zn	1.070011	-0.431565	-0.335498
Zn2	Zn	1.058497	-0.575479	-0.211783
Zn3	Zn	0.948356	-0.419548	-0.223248
Zn4	Zn	0.945739	-0.575916	-0.333953
O5	O	1.005651	-0.500627	-0.276120
O6	O	1.166587	-0.455502	-0.314935
O7	O	1.040163	-0.549583	-0.115198
O8	O	0.970408	-0.295472	-0.243582
O9	O	1.158128	-0.561235	-0.224043
O10	O	1.059787	-0.304301	-0.326052
O11	O	0.959243	-0.435021	-0.123621
O12	O	0.849906	-0.435444	-0.242085
O13	O	0.965947	-0.561979	-0.432264
O14	O	0.847983	-0.550327	-0.323419
O15	O	1.057250	-0.455925	-0.433398
O16	O	1.037626	-0.701207	-0.222545
O17	O	0.954783	-0.701528	-0.312303
C18	C	0.823507	-0.491630	-0.283829
C19	C	0.745585	-0.487803	-0.287142
C20	C	0.704572	-0.540958	-0.241313
C21	C	0.631356	-0.537363	-0.244436
C22	C	0.599155	-0.480608	-0.293384
C23	C	0.640174	-0.427451	-0.339218
C24	C	0.713388	-0.431051	-0.336098
C25	C	0.380660	-0.463953	-0.307799
C26	C	0.307441	-0.460354	-0.310914
C27	C	0.298628	-0.570269	-0.216132
C28	C	0.371844	-0.573860	-0.213014
C29	C	0.412856	-0.520706	-0.258850
N30	N	0.524317	-0.476930	-0.296576
N31	N	0.487693	-0.524389	-0.255661
C32	C	0.994690	-0.733954	-0.266027
C33	C	0.990066	-0.833776	-0.261729
C34	C	1.074384	-1.030399	-0.339628
C35	C	1.070042	-1.124191	-0.335593
C36	C	0.977037	-1.115156	-0.249627
C37	C	0.981379	-1.021363	-0.253662
C38	C	1.030055	-0.978988	-0.298664
C39	C	1.034400	-0.885194	-0.302695
C40	C	0.941392	-0.876160	-0.216733
C41	C	0.937050	-0.969953	-0.212697
C42	C	1.188506	-0.509660	-0.268382
C43	C	1.266427	-0.513510	-0.265085
C44	C	1.012591	-0.510341	-0.458980
C45	C	1.015548	-0.514481	-0.536904
C46	C	1.016674	-0.266391	-0.286268
C47	C	1.021371	-0.166573	-0.290593
C48	C	0.974809	-0.456780	-0.577897
C49	C	0.977585	-0.460677	-0.651115
C50	C	1.021104	-0.522271	-0.683338
C51	C	1.061845	-0.579978	-0.642339
C52	C	1.059065	-0.576085	-0.569122
C53	C	1.033933	-0.540315	-0.901840
C54	C	1.036711	-0.544202	-0.975062
C55	C	0.952449	-0.424902	-0.983833
C56	C	0.949676	-0.421011	-0.910615
C57	C	0.990414	-0.478721	-0.869622
N58	N	1.023944	-0.526254	-0.758178
N59	N	0.987570	-0.474742	-0.794784
C60	C	0.998781	-0.490888	-0.093973
C61	C	0.995971	-0.486502	-0.016055
H62	H	0.414044	-0.420672	-0.345123
N63	N	0.739303	-0.602174	-0.188520
H64	H	0.770152	-0.565383	-0.156365
H65	H	0.702168	-0.635292	-0.160012
H66	H	0.919282	-0.377919	-1.017217
H67	H	0.265228	-0.613545	-0.178816
H68	H	1.097276	-0.630133	-0.668580
H69	H	0.939375	-0.406619	-0.551667
N70	N	0.933652	-0.398420	-0.695317
H71	H	0.965262	-0.359830	-0.726288
H72	H	0.900594	-0.434965	-0.725449
N73	N	0.272711	-0.399141	-0.363716
H74	H	0.241856	-0.435937	-0.395863
H75	H	0.243243	-0.354471	-0.338324
N76	N	1.083647	-0.610637	-1.009827
H77	H	1.133911	-0.598495	-0.995571
H78	H	1.069194	-0.673560	-0.994761
H79	H	1.067096	-0.587316	-0.868472
N80	N	0.924544	-1.160868	-0.201089
H81	H	0.928524	-1.228086	-0.204750
H82	H	0.934366	-1.142369	-0.151272
H83	H	0.897418	-1.004467	-0.176060
N84	N	0.605447	-0.366240	-0.392017
H85	H	0.552842	-0.372022	-0.387039
H86	H	0.620843	-0.302135	-0.383419
H87	H	1.092245	-0.623064	-0.535746
H88	H	1.106136	-1.166047	-0.368954
H89	H	0.597966	-0.580648	-0.207117
N90	N	1.126882	-0.984680	-0.388156
H91	H	1.175817	-1.002843	-0.374489
H92	H	1.117040	-1.003122	-0.437983
N93	N	0.757628	-0.373724	-0.385531
H94	H	0.726120	-0.337223	-0.417013
H95	H	0.788870	-0.332087	-0.357556
N96	N	0.902754	-0.354559	-0.875862
H97	H	0.877370	-0.318590	-0.912942
H98	H	0.867433	-0.387876	-0.845265
N99	N	0.893581	-0.820707	-0.172543
H100	H	0.863948	-0.781719	-0.204050
H101	H	0.862135	-0.861845	-0.143428
N102	N	0.406574	-0.635067	-0.160215
H103	H	0.369482	-0.668195	-0.131654
H104	H	0.436091	-0.679692	-0.185599
H105	H	1.074036	-0.850693	-0.339336
