data_functionalizedCrystal
_audit_creation_method	'MofGen! by Chris Wilmer'
_symmetry_space_group_name_H-M	'P1'
_symmetry_Int_Tables_number	1
_symmetry_cell_setting	triclinic
loop_
_symmetry_equiv_pos_as_xyz
  x,y,z
_cell_length_a	14.853567
_cell_length_b	10.489746
_cell_length_c	13.330367
_cell_angle_alpha	89.995084
_cell_angle_beta	89.995418
_cell_angle_gamma	84.088116
loop_
_atom_site_label
_atom_site_type_symbol
_atom_site_fract_x
_atom_site_fract_y
_atom_site_fract_z
O1	O	1.197305	0.166528	-0.083355
O2	O	0.934957	0.186365	-0.083372
O3	O	1.072098	-0.009218	-0.083356
O4	O	1.060164	0.362111	-0.083372
O5	O	1.072078	-0.009223	0.083491
O6	O	0.934937	0.186361	0.083475
O7	O	1.197285	0.166523	0.083492
Cu8	Cu	1.066109	0.176442	0.098718
Cu9	Cu	1.066133	0.176447	-0.098598
O10	O	1.060143	0.362106	0.083476
C11	C	0.901353	0.185464	0.000049
C12	C	0.801254	0.182770	0.000043
C13	C	0.388003	0.055204	0.000071
C14	C	0.368028	0.287561	0.000060
C15	C	0.462076	0.290094	0.000056
C16	C	0.519092	0.175180	0.000059
C17	C	0.482060	0.057733	0.000064
C18	C	0.499115	0.407538	0.000041
C19	C	0.593169	0.410076	0.000036
C20	C	0.650187	0.295160	0.000046
C21	C	0.613149	0.177709	0.000052
C22	C	0.670165	0.062795	0.000055
C23	C	0.633130	-0.054658	0.000068
C24	C	0.539078	-0.057183	0.000074
C25	C	0.744238	0.297685	0.000040
C26	C	0.764222	0.065324	0.000048
C27	C	1.071185	-0.056742	0.000067
C28	C	1.068486	-0.198341	0.000067
C29	C	0.979629	-0.350201	0.000048
C30	C	1.024064	-0.273305	-0.082211
C31	C	1.024065	-0.273351	0.082287
C32	C	1.108156	-0.373741	-0.082283
C33	C	1.108144	-0.373792	0.082289
C34	C	1.152641	-0.296946	0.000010
C35	C	1.230888	0.167424	0.000068
C36	C	1.330987	0.170118	0.000068
C37	C	1.061056	0.409630	0.000050
C38	C	1.063756	0.551229	0.000044
N39	N	1.066099	0.176437	0.237499
N40	N	1.066150	0.176441	-0.237380
C41	C	1.005404	0.263017	0.710115
C42	C	1.126886	0.089867	0.710098
C43	C	1.126876	0.089863	0.605079
C44	C	1.066129	0.176438	0.552574
C45	C	1.005393	0.263018	0.605087
C46	C	1.187617	0.003293	0.552558
C47	C	1.187610	0.003287	0.447534
C48	C	1.126858	0.089857	0.395026
C49	C	1.066119	0.176440	0.447546
C50	C	1.005373	0.263015	0.395040
C51	C	0.944629	0.349593	0.447558
C52	C	0.944642	0.349589	0.552580
C53	C	1.126845	0.089861	0.290005
C54	C	1.005363	0.263017	0.290012
H55	H	0.508915	-0.152807	0.000109
Cl56	Cl	0.341447	-0.092444	0.000093
H57	H	1.225847	-0.273293	-0.000031
H58	H	0.955944	0.333504	0.752877
H59	H	0.679564	-0.148221	0.000063
H60	H	1.143654	-0.417418	-0.151907
H61	H	0.321601	0.381119	0.000049
H62	H	0.895187	0.420078	0.595346
Cl63	Cl	1.203255	-0.018959	0.776101
Cl64	Cl	1.162913	-0.441576	0.189675
H65	H	0.955892	0.333513	0.247269
H66	H	0.895172	0.420089	0.404796
Cl67	Cl	0.969250	-0.205567	-0.189594
Cl68	Cl	0.969199	-0.205661	0.189658
Cl69	Cl	0.427436	0.551991	0.000021
H70	H	0.623314	0.505713	0.000025
H71	H	0.774388	0.393313	0.000031
H72	H	1.237079	-0.067188	0.595312
H73	H	1.237069	-0.067210	0.404780
Cl74	Cl	0.866692	-0.387107	-0.000082
H75	H	1.176306	0.019377	0.247250
H76	H	0.810639	-0.028255	0.000054
