data_functionalizedCrystal
_audit_creation_method	'MofGen! by Chris Wilmer'
_symmetry_space_group_name_H-M	'P1'
_symmetry_Int_Tables_number	1
_symmetry_cell_setting	triclinic
loop_
_symmetry_equiv_pos_as_xyz
  x,y,z
_cell_length_a	17.699077
_cell_length_b	17.699083
_cell_length_c	17.766277
_cell_angle_alpha	90.007260
_cell_angle_beta	90.008804
_cell_angle_gamma	83.281795
loop_
_atom_site_label
_atom_site_type_symbol
_atom_site_fract_x
_atom_site_fract_y
_atom_site_fract_z
O1	O	1.004084	0.095691	0.062586
O2	O	1.504084	0.595691	0.562586
O3	O	0.783705	0.108148	0.062590
O4	O	1.283705	0.608148	0.562590
O5	O	0.900121	-0.008270	0.062581
O6	O	1.400121	0.491730	0.562581
O7	O	0.887668	0.212109	0.062594
O8	O	1.387668	0.712109	0.562594
O9	O	0.900100	-0.008276	-0.062608
O10	O	1.400100	0.491724	0.437392
O11	O	0.783684	0.108142	-0.062599
O12	O	1.283684	0.608142	0.437401
O13	O	1.004063	0.095685	-0.062603
O14	O	1.504063	0.595685	0.437397
Cu15	Cu	0.893872	0.101913	-0.074032
Cu16	Cu	1.393872	0.601913	0.425968
Cu17	Cu	0.893896	0.101920	0.074018
Cu18	Cu	1.393896	0.601920	0.574018
O19	O	0.887648	0.212103	-0.062594
O20	O	1.387648	0.712103	0.437406
C21	C	0.755498	0.107700	-0.000004
C22	C	1.255498	0.607700	0.499996
C23	C	0.671479	0.106363	-0.000003
C24	C	1.171479	0.606363	0.499997
C25	C	0.632001	0.105730	-0.068244
C26	C	1.132001	0.605730	0.431756
C27	C	0.553058	0.104461	-0.068245
C28	C	1.053058	0.604461	0.431755
C29	C	0.513595	0.103832	-0.000004
C30	C	1.013595	0.603832	0.499996
C31	C	0.553079	0.104463	0.068242
C32	C	1.053079	0.604463	0.568242
C33	C	0.632021	0.105725	0.068243
C34	C	1.132021	0.605725	0.568243
C35	C	0.234716	0.099369	0.068244
C36	C	0.734716	0.599369	0.568244
C37	C	0.155768	0.098109	0.068238
C38	C	0.655768	0.598109	0.568238
C39	C	0.155753	0.098105	-0.068244
C40	C	0.655753	0.598105	0.431756
C41	C	0.234695	0.099368	-0.068244
C42	C	0.734695	0.599368	0.431756
C43	C	0.274173	0.099995	0.000002
C44	C	0.774173	0.599995	0.500002
C45	C	0.359772	0.101369	0.000002
C46	C	0.859772	0.601369	0.500002
C47	C	0.427997	0.102464	-0.000003
C48	C	0.927997	0.602464	0.499997
C49	C	0.899664	-0.036470	-0.000013
C50	C	1.399664	0.463530	0.499987
C51	C	0.898326	-0.120488	-0.000014
C52	C	1.398326	0.379512	0.499986
C53	C	0.966659	-0.169110	-0.000016
C54	C	1.466659	0.330890	0.499984
C55	C	0.965397	-0.248054	-0.000009
C56	C	1.465397	0.251946	0.499991
C57	C	0.895800	-0.278373	-0.000006
C58	C	1.395800	0.221627	0.499994
C59	C	0.827461	-0.229744	-0.000001
C60	C	1.327461	0.270256	0.499999
C61	C	0.828724	-0.150803	-0.000003
C62	C	1.328724	0.349197	0.499997
C63	C	0.822366	-0.548107	0.000005
C64	C	1.322366	-0.048107	0.500005
C65	C	0.821108	-0.627055	0.000004
C66	C	1.321108	-0.127055	0.500004
C67	C	0.959039	-0.645358	-0.000002
C68	C	1.459039	-0.145358	0.499998
C69	C	0.960302	-0.566417	-0.000003
C70	C	1.460302	-0.066417	0.499997
C71	C	0.891963	-0.517795	0.000005
C72	C	1.391963	-0.017795	0.500005
C73	C	0.893333	-0.432196	-0.000000
C74	C	1.393333	0.067804	0.500000
C75	C	0.894430	-0.363971	-0.000005
C76	C	1.394430	0.136029	0.499995
C77	C	1.032271	0.096133	-0.000007
C78	C	1.532271	0.596133	0.499993
C79	C	1.116289	0.097470	-0.000004
C80	C	1.616289	0.597470	0.499996
C81	C	0.888104	0.240303	0.000002
C82	C	1.388104	0.740303	0.500002
C83	C	0.889443	0.324321	0.000007
C84	C	1.389443	0.824321	0.500007
N85	N	0.893861	0.101908	-0.178162
N86	N	1.393861	0.601908	0.321838
C87	C	0.945426	0.050383	-0.217553
C88	C	1.445426	0.550383	0.282447
C89	C	0.945431	0.050379	-0.296354
C90	C	1.445431	0.550379	0.203646
C91	C	0.893877	0.101914	-0.335762
C92	C	1.393877	0.601914	0.164238
C93	C	0.842301	0.153442	-0.296362
C94	C	1.342301	0.653442	0.203638
C95	C	0.842293	0.153439	-0.217562
C96	C	1.342293	0.653439	0.282438
C97	C	0.883833	0.170863	-0.460596
C98	C	1.383833	0.670863	0.039404
C99	C	0.883846	0.170867	-0.539395
C100	C	1.383846	0.670867	-0.039395
C101	C	0.893897	0.101923	-0.578809
C102	C	1.393897	0.601923	-0.078809
C103	C	0.903950	0.032972	-0.539414
C104	C	1.403950	0.532972	-0.039414
C105	C	0.903942	0.032969	-0.460614
C106	C	1.403942	0.532969	0.039386
C107	C	0.893879	0.101922	-0.421208
C108	C	1.393879	0.601922	0.078792
C109	C	0.945470	0.050390	-0.703646
C110	C	1.445470	0.550390	-0.203646
C111	C	0.945469	0.050386	-0.782449
C112	C	1.445469	0.550386	-0.282449
C113	C	0.842343	0.153455	-0.782455
C114	C	1.342343	0.653455	-0.282455
C115	C	0.842341	0.153453	-0.703653
C116	C	1.342341	0.653453	-0.203653
C117	C	0.893908	0.101921	-0.664253
C118	C	1.393908	0.601921	-0.164253
N119	N	0.893914	0.101919	0.178149
N120	N	1.393914	0.601919	0.678149
H121	H	0.664163	0.106242	0.123812
H122	H	1.164163	0.606242	0.623812
H123	H	0.520920	0.103933	-0.123814
H124	H	1.020920	0.603933	0.376186
H125	H	1.016974	-0.541735	-0.000010
H126	H	1.516974	-0.041735	0.499990
H127	H	1.023333	-0.144431	-0.000024
H128	H	1.523333	0.355569	0.499976
O129	O	0.762275	-0.103676	-0.000034
O130	O	1.262275	0.396324	0.499966
C131	C	0.700576	-0.147362	-0.000011
C132	C	1.200576	0.352638	0.499989
H133	H	0.719888	-0.206320	-0.023716
H134	H	1.219888	0.293680	0.476284
H135	H	0.652697	-0.118153	-0.036351
H136	H	1.152697	0.381847	0.463649
H137	H	0.679250	-0.152939	0.060050
H138	H	1.179250	0.347061	0.560050
O139	O	0.117364	0.097390	0.134484
O140	O	0.617364	0.597390	0.634484
C141	C	0.080410	0.031128	0.138562
C142	C	0.580410	0.531128	0.638562
H143	H	0.071478	0.009097	0.079307
H144	H	0.571478	0.509097	0.579307
H145	H	0.022945	0.044978	0.167442
H146	H	0.522945	0.544978	0.667442
H147	H	0.116925	-0.014271	0.172234
H148	H	0.616925	0.485729	0.672234
O149	O	0.792230	0.203412	-0.820808
O150	O	1.292230	0.703412	-0.320808
C151	C	0.745607	0.162937	-0.866392
C152	C	1.245607	0.662937	-0.366392
H153	H	0.775864	0.103673	-0.878200
H154	H	1.275864	0.603673	-0.378200
H155	H	0.733577	0.194545	-0.921802
H156	H	1.233577	0.694545	-0.421802
H157	H	0.689681	0.157864	-0.836035
H158	H	1.189681	0.657864	-0.336035
O159	O	1.025355	-0.692699	0.000032
O160	O	1.525355	-0.192699	0.500032
C161	C	1.009323	-0.768877	0.000018
C162	C	1.509323	-0.268877	0.500018
H163	H	0.949885	-0.771791	0.023724
H164	H	1.449885	-0.271791	0.523724
H165	H	1.052897	-0.804718	0.036363
H166	H	1.552897	-0.304718	0.536363
H167	H	1.012222	-0.791723	-0.060040
H168	H	1.512222	-0.291723	0.439960
H169	H	0.770794	-0.254436	0.000006
H170	H	1.270794	0.245564	0.500006
O171	O	0.995593	0.000294	-0.334513
O172	O	1.495593	0.500294	0.165487
C173	C	1.041087	-0.045206	-0.282840
C174	C	1.541087	0.454794	0.217160
H175	H	1.041884	-0.014179	-0.226662
H176	H	1.541884	0.485821	0.273338
H177	H	1.101550	-0.056830	-0.305599
H178	H	1.601550	0.443170	0.194401
H179	H	1.016618	-0.101400	-0.274474
H180	H	1.516618	0.398600	0.225526
H181	H	0.123601	0.097591	-0.123813
H182	H	0.623601	0.597591	0.376187
H183	H	0.764431	-0.651737	0.000005
H184	H	1.264431	-0.151737	0.500005
O185	O	0.913579	-0.033994	-0.577719
O186	O	1.413579	0.466006	-0.077719
C187	C	0.849360	-0.040018	-0.623328
C188	C	1.349360	0.459982	-0.123328
H189	H	0.798338	-0.002219	-0.599591
H190	H	1.298338	0.497781	-0.099591
H191	H	0.836490	-0.101635	-0.624226
H192	H	1.336490	0.398365	-0.124226
H193	H	0.861321	-0.021071	-0.683046
H194	H	1.361321	0.478929	-0.183046
H195	H	0.266822	0.099884	-0.123813
H196	H	0.766822	0.599884	0.376187
H197	H	0.912126	-0.023173	-0.428542
H198	H	1.412126	0.476827	0.071458
O199	O	0.995582	0.000256	-0.665484
O200	O	1.495582	0.500256	-0.165484
C201	C	1.041105	-0.045216	-0.717153
C202	C	1.541105	0.454784	-0.217153
H203	H	1.010081	-0.046031	-0.773332
H204	H	1.510081	0.453969	-0.273332
H205	H	1.052763	-0.105676	-0.694391
H206	H	1.552763	0.394324	-0.194391
H207	H	1.097282	-0.020714	-0.725518
H208	H	1.597282	0.479286	-0.225518
O209	O	0.792227	0.203584	-0.665501
O210	O	1.292227	0.703584	-0.165501
C211	C	0.746710	0.249057	-0.717178
C212	C	1.246710	0.749057	-0.217178
H213	H	0.777743	0.249874	-0.773342
H214	H	1.277743	0.749874	-0.273342
H215	H	0.735048	0.309516	-0.694403
H216	H	1.235048	0.809516	-0.194403
H217	H	0.690536	0.224553	-0.725577
H218	H	1.190536	0.724553	-0.225577
O219	O	0.272937	0.100011	0.134602
O220	O	0.772937	0.600011	0.634602
C221	C	0.221177	0.099167	0.194830
C222	C	0.721177	0.599167	0.694830
H223	H	0.161725	0.122224	0.174822
H224	H	0.661725	0.622224	0.674822
H225	H	0.239117	0.136260	0.242565
H226	H	0.739117	0.636260	0.742565
H227	H	0.220834	0.038336	0.215804
H228	H	0.720834	0.538336	0.715804
H229	H	0.664125	0.106248	-0.123814
H230	H	1.164125	0.606248	0.376186
O231	O	1.031725	-0.295365	-0.000111
O232	O	1.531725	0.204635	0.499889
C233	C	1.035117	-0.341576	-0.064952
C234	C	1.535117	0.158424	0.435048
H235	H	0.975044	-0.345455	-0.086566
H236	H	1.475044	0.154545	0.413434
H237	H	1.063417	-0.400960	-0.050366
H238	H	1.563417	0.099040	0.449634
H239	H	1.069631	-0.315681	-0.110357
H240	H	1.569631	0.184319	0.389643
O241	O	0.755915	-0.500991	-0.000030
O242	O	1.255915	-0.000991	0.499970
C243	C	0.694220	-0.544683	-0.000014
C244	C	1.194220	-0.044683	0.499986
H245	H	0.713541	-0.603642	-0.023712
H246	H	1.213541	-0.103642	0.476288
H247	H	0.646345	-0.515480	-0.036363
H248	H	1.146345	-0.015480	0.463637
H249	H	0.672885	-0.550257	0.060044
H250	H	1.172885	-0.050257	0.560044
O251	O	0.995304	0.000088	-0.179312
O252	O	1.495304	0.500088	0.320688
C253	C	0.954667	-0.046548	-0.133931
C254	C	1.454667	0.453452	0.366069
H255	H	0.895488	-0.016144	-0.122024
H256	H	1.395488	0.483856	0.377976
H257	H	0.986265	-0.058892	-0.078557
H258	H	1.486265	0.441108	0.421443
H259	H	0.949389	-0.102319	-0.164512
H260	H	1.449389	0.397681	0.335488
O261	O	0.514626	0.103882	0.134465
O262	O	1.014626	0.603882	0.634465
C263	C	0.436486	0.102615	0.119834
C264	C	0.936486	0.602615	0.619834
H265	H	0.422516	0.126393	0.061187
H266	H	0.922516	0.626393	0.561187
H267	H	0.401616	0.138869	0.163420
H268	H	0.901616	0.638869	0.663420
H269	H	0.422139	0.041561	0.123064
H270	H	0.922139	0.541561	0.623064
O271	O	0.874040	0.237909	-0.577543
O272	O	1.374040	0.737909	-0.077543
C273	C	0.865175	0.298760	-0.525860
C274	C	1.365175	0.798760	-0.025860
H275	H	0.844415	0.277849	-0.469699
H276	H	1.344415	0.777849	0.030301
H277	H	0.821801	0.345914	-0.548633
H278	H	1.321801	0.845914	-0.048633
H279	H	0.922137	0.321723	-0.517458
H280	H	1.422137	0.821723	-0.017458
O281	O	0.874180	0.237793	-0.422227
O282	O	1.374180	0.737793	0.077773
C283	C	0.938417	0.243815	-0.376644
C284	C	1.438417	0.743815	0.123356
H285	H	0.968753	0.184583	-0.364847
H286	H	1.468753	0.684583	0.135153
H287	H	0.919581	0.272562	-0.321228
H288	H	1.419581	0.772562	0.178772
H289	H	0.978861	0.279169	-0.406994
H290	H	1.478861	0.779169	0.093006
O291	O	0.792192	0.203399	-0.334723
O292	O	1.292192	0.703399	0.165277
C293	C	0.745573	0.162924	-0.380312
C294	C	1.245573	0.662924	0.119688
H295	H	0.775832	0.103661	-0.392119
H296	H	1.275832	0.603661	0.107881
H297	H	0.733548	0.194533	-0.435722
H298	H	1.233548	0.694533	0.064278
H299	H	0.689644	0.157850	-0.349960
H300	H	1.189644	0.657850	0.150040
O301	O	0.792175	0.203569	-0.179411
O302	O	1.292175	0.703569	0.320589
C303	C	0.746655	0.249041	-0.231086
C304	C	1.246655	0.749041	0.268914
H305	H	0.777684	0.249857	-0.287252
H306	H	1.277684	0.749857	0.212748
H307	H	0.734993	0.309500	-0.208312
H308	H	1.234993	0.809500	0.291688
H309	H	0.690480	0.224536	-0.239481
H310	H	1.190480	0.724536	0.260519
H311	H	0.987458	0.008424	-0.814521
H312	H	1.487458	0.508424	-0.314521
