data_functionalizedCrystal
_audit_creation_method	'MofGen! by Chris Wilmer'
_symmetry_space_group_name_H-M	'P1'
_symmetry_Int_Tables_number	1
_symmetry_cell_setting	triclinic
loop_
_symmetry_equiv_pos_as_xyz
  x,y,z
_cell_length_a	19.077068
_cell_length_b	19.077142
_cell_length_c	19.805399
_cell_angle_alpha	92.317588
_cell_angle_beta	92.269429
_cell_angle_gamma	89.885450
loop_
_atom_site_label
_atom_site_type_symbol
_atom_site_fract_x
_atom_site_fract_y
_atom_site_fract_z
Zn1	Zn	-0.323010	-1.062983	-0.436221
Zn2	Zn	0.176990	-0.562983	0.063779
Zn3	Zn	-0.440515	-1.058172	-0.327382
Zn4	Zn	0.059485	-0.558172	0.172618
Zn5	Zn	-0.318299	-0.945477	-0.318328
Zn6	Zn	0.181701	-0.445477	0.181672
Zn7	Zn	-0.435750	-0.940718	-0.435811
Zn8	Zn	0.064250	-0.440718	0.064189
O9	O	-0.379393	-1.001838	-0.379435
O10	O	0.120607	-0.501838	0.120565
O11	O	-0.342563	-1.160676	-0.425744
O12	O	0.157437	-0.660676	0.074256
O13	O	-0.424326	-1.043200	-0.231464
O14	O	0.075674	-0.543200	0.268536
O15	O	-0.220594	-0.965070	-0.330349
O16	O	0.279406	-0.465070	0.169651
O17	O	-0.428894	-1.157141	-0.345781
O18	O	0.071106	-0.657141	0.154219
O19	O	-0.224055	-1.051401	-0.416965
O20	O	0.275945	-0.551401	0.083035
O21	O	-0.334534	-0.960404	-0.224812
O22	O	0.165466	-0.460404	0.275188
O23	O	-0.329913	-0.846515	-0.329951
O24	O	0.170087	-0.346515	0.170049
O25	O	-0.420771	-0.956959	-0.530582
O26	O	0.079229	-0.456959	-0.030582
O27	O	-0.416203	-0.843018	-0.416265
O28	O	0.083797	-0.343018	0.083735
O29	O	-0.337942	-1.046787	-0.530883
O30	O	0.162058	-0.546787	-0.030883
O31	O	-0.538213	-1.038586	-0.345383
O32	O	-0.038213	-0.538586	0.154617
O33	O	-0.534712	-0.952294	-0.425045
O34	O	-0.034712	-0.452294	0.074955
C35	C	-0.372030	-0.819270	-0.372081
C36	C	0.127970	-0.319270	0.127919
C37	C	-0.368897	-0.741166	-0.368952
C38	C	0.131103	-0.241166	0.131048
C39	C	-0.412420	-0.702668	-0.412355
C40	C	0.087580	-0.202668	0.087645
C41	C	-0.409467	-0.629282	-0.409418
C42	C	0.090533	-0.129282	0.090582
C43	C	-0.362994	-0.594395	-0.363073
C44	C	0.137006	-0.094395	0.136927
C45	C	-0.319467	-0.632898	-0.319668
C46	C	0.180533	-0.132898	0.180332
C47	C	-0.322417	-0.706283	-0.322609
C48	C	0.177583	-0.206283	0.177391
C49	C	-0.349343	-0.375110	-0.349468
C50	C	0.150657	0.124890	0.150532
C51	C	-0.346398	-0.301720	-0.346529
C52	C	0.153602	0.198280	0.153471
C53	C	-0.436398	-0.298109	-0.436280
C54	C	0.063602	0.201891	0.063720
C55	C	-0.439347	-0.371495	-0.439214
C56	C	0.060653	0.128505	0.060786
C57	C	-0.395817	-0.409992	-0.395811
C58	C	0.104183	0.090008	0.104189
N59	N	-0.359976	-0.519382	-0.360068
N60	N	0.140024	-0.019382	0.139932
N61	N	-0.398832	-0.485004	-0.398820
N62	N	0.101168	0.014996	0.101180
C63	C	-0.561959	-0.994420	-0.386167
C64	C	-0.061959	-0.494420	0.113833
C65	C	-0.640064	-0.991311	-0.389072
C66	C	-0.140064	-0.491311	0.110928
C67	C	-0.678559	-1.034814	-0.348999
C68	C	-0.178559	-0.534814	0.151001
C69	C	-0.751947	-1.031894	-0.351735
C70	C	-0.251947	-0.531894	0.148265
C71	C	-0.786838	-0.985468	-0.394542
C72	C	-0.286838	-0.485468	0.105458
C73	C	-0.748338	-0.941964	-0.434620
C74	C	-0.248338	-0.441964	0.065380
C75	C	-0.674952	-0.944888	-0.431887
C76	C	-0.174952	-0.444888	0.068113
C77	C	-1.006127	-0.971904	-0.407164
C78	C	-0.506127	-0.471904	0.092836
C79	C	-1.079519	-0.968982	-0.409893
C80	C	-0.579519	-0.468982	0.090107
C81	C	-1.083122	-1.058914	-0.327009
C82	C	-0.583122	-0.558914	0.172991
C83	C	-1.009734	-1.061830	-0.324276
C84	C	-0.509734	-0.561830	0.175724
C85	C	-0.971240	-1.018329	-0.364357
C86	C	-0.471240	-0.518329	0.135643
N87	N	-0.861852	-0.982480	-0.397339
N88	N	-0.361852	-0.482480	0.102661
N89	N	-0.896228	-1.021321	-0.361563
N90	N	-0.396228	-0.521321	0.138437
C91	C	-0.196116	-1.009303	-0.372693
C92	C	0.303884	-0.509303	0.127307
C93	C	-0.118014	-1.012484	-0.369820
C94	C	0.381986	-0.512484	0.130180
C95	C	-0.379351	-1.001879	-0.555978
C96	C	0.120649	-0.501879	-0.055978
C97	C	-0.379332	-1.001896	-0.631210
C98	C	0.120668	-0.501896	-0.131210
C99	C	-0.386782	-0.185118	-0.386810
C100	C	0.113218	0.314882	0.113190
C101	C	-0.389921	-0.263222	-0.389932
C102	C	0.110079	0.236778	0.110068
C103	C	-0.336201	-1.048671	-0.666712
C104	C	0.163799	-0.548671	-0.166712
C105	C	-0.336181	-1.048679	-0.737400
C106	C	0.163819	-0.548679	-0.237400
C107	C	-0.379296	-1.001915	-0.772585
C108	C	0.120704	-0.501915	-0.272585
C109	C	-0.422430	-0.955136	-0.737078
C110	C	0.077570	-0.455136	-0.237078
C111	C	-0.422446	-0.955125	-0.666391
C112	C	0.077554	-0.455125	-0.166391
C113	C	-0.422366	-0.955178	-1.022150
C114	C	0.077634	-0.455178	-0.522150
C115	C	-0.422348	-0.955194	-1.092842
C116	C	0.077652	-0.455194	-0.592842
C117	C	-0.336101	-1.048732	-1.093160
C118	C	0.163899	-0.548732	-0.593160
C119	C	-0.336117	-1.048721	-1.022473
C120	C	0.163883	-0.548721	-0.522473
C121	C	-0.379247	-1.001940	-0.986972
C122	C	0.120753	-0.501940	-0.486972
C123	C	-0.379268	-1.001930	-0.910324
C124	C	0.120732	-0.501930	-0.410324
C125	C	-0.379280	-1.001927	-0.849232
C126	C	0.120720	-0.501927	-0.349232
C127	C	-0.379387	-1.001839	-0.203579
C128	C	0.120613	-0.501839	0.296421
C129	C	-0.379212	-1.001966	-0.128346
C130	C	0.120788	-0.501966	0.371654
H131	H	-0.308546	-0.273317	-0.308793
H132	H	0.191454	0.226683	0.191207
H133	H	-1.114471	-1.094331	-0.294378
H134	H	-0.614471	-0.594331	0.205622
C135	C	-0.315849	-0.789180	-0.234526
C136	C	0.184151	-0.289180	0.265474
C137	C	-0.274579	-0.748607	-0.274899
C138	C	0.225421	-0.248607	0.225101
H139	H	-0.286313	-0.815311	-0.205076
H140	H	0.213687	-0.315311	0.294924
H141	H	-0.345270	-0.759299	-0.208566
H142	H	0.154730	-0.259299	0.291434
H143	H	-0.343947	-0.820453	-0.262557
H144	H	0.156053	-0.320453	0.237443
H145	H	-0.246486	-0.717330	-0.246867
H146	H	0.253514	-0.217330	0.253133
H147	H	-0.245147	-0.778491	-0.300860
H148	H	0.254853	-0.278491	0.199140
C149	C	-0.297926	-1.090190	-0.558497
C150	C	0.202074	-0.590190	-0.058497
C151	C	-0.288804	-1.100073	-0.628040
C152	C	0.211196	-0.600073	-0.128040
H153	H	-0.268665	-1.121926	-0.534625
H154	H	0.231335	-0.621926	-0.034625
H155	H	-0.285742	-1.043399	-0.544634
H156	H	0.214258	-0.543399	-0.044634
H157	H	-0.345556	-1.098553	-0.549069
H158	H	0.154444	-0.598553	-0.049069
H159	H	-0.241175	-1.091704	-0.637468
H160	H	0.258825	-0.591704	-0.137468
H161	H	-0.300984	-1.146875	-0.641908
H162	H	0.199016	-0.646875	-0.141908
C163	C	-0.599762	-1.132627	-0.340396
C164	C	-0.099762	-0.632627	0.159604
C165	C	-0.640208	-1.085846	-0.301943
C166	C	-0.140208	-0.585846	0.198057
H167	H	-0.576085	-1.164131	-0.311344
H168	H	-0.076085	-0.664131	0.188656
H169	H	-0.629429	-1.158347	-0.372047
H170	H	-0.129429	-0.658347	0.127953
H171	H	-0.566333	-1.107129	-0.363866
H172	H	-0.066333	-0.607129	0.136134
H173	H	-0.673641	-1.111344	-0.278476
H174	H	-0.173641	-0.611344	0.221524
H175	H	-0.610538	-1.060124	-0.270279
H176	H	-0.110538	-0.560124	0.229721
C177	C	-0.425625	-0.784838	-0.507056
C178	C	0.074375	-0.284838	-0.007056
C179	C	-0.463504	-0.741015	-0.463299
C180	C	0.036496	-0.241015	0.036701
H181	H	-0.457164	-0.808513	-0.538505
H182	H	0.042836	-0.308513	-0.038505
H183	H	-0.393901	-0.757461	-0.530717
H184	H	0.106099	-0.257461	-0.030717
H185	H	-0.400132	-0.818267	-0.481618
H186	H	0.099868	-0.318267	0.018382
H187	H	-0.488994	-0.707582	-0.488736
H188	H	0.011006	-0.207582	0.011264
H189	H	-0.495240	-0.768394	-0.439636
H190	H	0.004760	-0.268394	0.060364
H191	H	-0.301010	-1.086803	-0.993829
H192	H	0.198990	-0.586803	-0.493829
C193	C	-0.306668	-1.169118	-1.118469
C194	C	0.193332	-0.669118	-0.618469
C195	C	-0.288685	-1.100151	-1.132186
C196	C	0.211315	-0.600151	-0.632186
H197	H	-0.277399	-1.200861	-1.142565
H198	H	0.222601	-0.700861	-0.642565
H199	H	-0.300507	-1.175800	-1.071341
H200	H	0.199493	-0.675800	-0.571341
H201	H	-0.354293	-1.177470	-1.132211
H202	H	0.145707	-0.677470	-0.632211
H203	H	-0.241061	-1.091798	-1.118440
H204	H	0.258939	-0.591798	-0.618440
H205	H	-0.294840	-1.093466	-1.179324
H206	H	0.205160	-0.593466	-0.679324
C207	C	-0.260088	-0.371298	-0.260460
C208	C	0.239912	0.128702	0.239540
C209	C	-0.301497	-0.417420	-0.301759
C210	C	0.198503	0.082580	0.198241
H211	H	-0.230550	-0.397422	-0.231004
H212	H	0.269450	0.102578	0.268996
H213	H	-0.232106	-0.343776	-0.287858
H214	H	0.267894	0.156224	0.212142
H215	H	-0.289526	-0.341424	-0.234501
H216	H	0.210474	0.158576	0.265499
H217	H	-0.272059	-0.447290	-0.327722
H218	H	0.227941	0.052710	0.172278
H219	H	-0.329480	-0.444954	-0.274358
H220	H	0.170520	0.055046	0.225642
C221	C	-0.274982	-0.522009	-0.275308
C222	C	0.225018	-0.022009	0.224692
C223	C	-0.268380	-0.594552	-0.268727
C224	C	0.231620	-0.094552	0.231273
H225	H	-0.243445	-0.498338	-0.243855
H226	H	0.256555	0.001662	0.256145
H227	H	-0.264280	-0.510421	-0.319939
H228	H	0.235720	-0.010421	0.180061
H229	H	-0.321699	-0.508068	-0.266582
H230	H	0.178301	-0.008068	0.233418
H231	H	-0.221664	-0.608493	-0.277458
H232	H	0.278336	-0.108493	0.222542
H233	H	-0.279078	-0.606144	-0.224086
H234	H	0.220922	-0.106144	0.275914
H235	H	-0.783286	-1.067317	-0.319102
H236	H	-0.283286	-0.567317	0.180898
H237	H	-0.444909	-0.597940	-0.444761
H238	H	0.055091	-0.097940	0.055239
H239	H	-0.457459	-0.917111	-1.121488
H240	H	0.042541	-0.417111	-0.621488
H241	H	-1.107925	-0.931185	-0.444764
H242	H	-0.607925	-0.431185	0.055236
C243	C	-0.830423	-0.928859	-0.528330
C244	C	-0.330423	-0.428859	-0.028330
C245	C	-0.786692	-0.890931	-0.481674
C246	C	-0.286692	-0.390931	0.018326
H247	H	-0.854103	-0.897350	-0.557375
H248	H	-0.354103	-0.397350	-0.057375
H249	H	-0.802984	-0.960593	-0.554409
H250	H	-0.302984	-0.460593	-0.054409
H251	H	-0.863849	-0.954346	-0.504846
H252	H	-0.363849	-0.454346	-0.004846
H253	H	-0.753262	-0.865448	-0.505158
H254	H	-0.253262	-0.365448	-0.005158
H255	H	-0.814133	-0.859184	-0.455592
H256	H	-0.314133	-0.359184	0.044408
C257	C	-1.009946	-0.882702	-0.489347
C258	C	-0.509946	-0.382702	0.010653
C259	C	-0.963821	-0.924075	-0.451207
C260	C	-0.463821	-0.424075	0.048793
H261	H	-0.983824	-0.853167	-0.516532
H262	H	-0.483824	-0.353167	-0.016532
H263	H	-1.039753	-0.912160	-0.517563
H264	H	-0.539753	-0.412160	-0.017563
H265	H	-1.037536	-0.854710	-0.459810
H266	H	-0.537536	-0.354710	0.040190
H267	H	-0.936234	-0.952070	-0.480744
H268	H	-0.436234	-0.452070	0.019256
H269	H	-0.934002	-0.894613	-0.422988
H270	H	-0.434002	-0.394613	0.077012
H271	H	-0.643610	-0.909464	-0.464520
H272	H	-0.143610	-0.409464	0.035480
C273	C	-0.250941	-1.141148	-0.730615
C274	C	0.249059	-0.641148	-0.230615
C275	C	-0.288774	-1.100099	-0.776425
C276	C	0.211226	-0.600099	-0.276425
H277	H	-0.221676	-1.172897	-0.754709
H278	H	0.278324	-0.672897	-0.254709
H279	H	-0.222832	-1.111626	-0.700822
H280	H	0.277168	-0.611626	-0.200822
H281	H	-0.282657	-1.166769	-0.705254
H282	H	0.217343	-0.666769	-0.205254
H283	H	-0.257057	-1.074474	-0.801782
H284	H	0.242943	-0.574474	-0.301782
H285	H	-0.316885	-1.129625	-0.806229
H286	H	0.183115	-0.629625	-0.306229
H287	H	-0.981327	-1.099634	-0.289419
H288	H	-0.481327	-0.599634	0.210581
H289	H	-0.457496	-0.917096	-0.993254
H290	H	0.042504	-0.417096	-0.493254
H291	H	-0.457533	-0.917058	-0.765731
H292	H	0.042467	-0.417058	-0.265731
H293	H	-0.457560	-0.917030	-0.637485
H294	H	0.042440	-0.417030	-0.137485
H295	H	-0.471837	-0.266757	-0.471617
H296	H	0.028163	0.233243	0.028383
C297	C	-0.528007	-0.360552	-0.527638
C298	C	-0.028007	0.139448	-0.027638
C299	C	-0.490429	-0.409841	-0.490160
C300	C	0.009571	0.090159	0.009840
H301	H	-0.559542	-0.384227	-0.559091
H302	H	-0.059542	0.115773	-0.059091
H303	H	-0.553692	-0.330827	-0.497948
H304	H	-0.053692	0.169173	0.002052
H305	H	-0.496270	-0.333181	-0.551303
H306	H	0.003730	0.166819	-0.051303
H307	H	-0.522166	-0.437208	-0.466491
H308	H	-0.022166	0.062792	0.033509
H309	H	-0.464743	-0.439578	-0.519854
H310	H	0.035257	0.060422	-0.019854
