data_functionalizedCrystal
_audit_creation_method	'MofGen! by Chris Wilmer'
_symmetry_space_group_name_H-M	'P1'
_symmetry_Int_Tables_number	1
_symmetry_cell_setting	triclinic
loop_
_symmetry_equiv_pos_as_xyz
  x,y,z
_cell_length_a	10.540510
_cell_length_b	14.519709
_cell_length_c	12.996460
_cell_angle_alpha	89.999398
_cell_angle_beta	89.997788
_cell_angle_gamma	95.903272
loop_
_atom_site_label
_atom_site_type_symbol
_atom_site_fract_x
_atom_site_fract_y
_atom_site_fract_z
O1	O	0.166391	-1.224754	0.085427
O2	O	0.666391	-0.724754	0.585427
O3	O	0.185987	-0.956381	0.085458
O4	O	0.685987	-0.456381	0.585458
O5	O	-0.008582	-1.096705	0.085441
O6	O	0.491418	-0.596705	0.585441
O7	O	0.360961	-1.084431	0.085443
O8	O	0.860961	-0.584431	0.585443
O9	O	-0.008571	-1.096687	-0.085693
O10	O	0.491429	-0.596687	0.414307
O11	O	0.185998	-0.956363	-0.085676
O12	O	0.685998	-0.456363	0.414324
O13	O	0.166402	-1.224736	-0.085707
O14	O	0.666402	-0.724736	0.414293
Cu15	Cu	0.176201	-1.090548	-0.101317
Cu16	Cu	0.676201	-0.590548	0.398683
Cu17	Cu	0.176188	-1.090569	0.101068
Cu18	Cu	0.676188	-0.590569	0.601068
O19	O	0.360972	-1.084412	-0.085690
O20	O	0.860972	-0.584412	0.414310
C21	C	0.185079	-0.922008	-0.000105
C22	C	0.685079	-0.422008	0.499895
C23	C	0.182343	-0.819612	-0.000093
C24	C	0.682343	-0.319612	0.499907
N25	N	0.176210	-1.090539	-0.243664
N26	N	0.676210	-0.590539	0.256336
C27	C	-0.055871	-1.095781	-0.000123
C28	C	0.444129	-0.595781	0.499877
C29	C	-0.196793	-1.093044	-0.000117
C30	C	0.303207	-0.593044	0.499883
C31	C	-0.415244	-1.190527	-0.000520
C32	C	0.084756	-0.690527	0.499480
C33	C	-0.268678	-1.193446	-0.000129
C34	C	0.231322	-0.693446	0.499871
C35	C	-0.241033	-1.041659	0.097613
C36	C	0.258967	-0.541659	0.597613
C37	C	-0.387772	-1.039451	0.097689
C38	C	0.112228	-0.539451	0.597689
C39	C	-0.387546	-1.037340	-0.096921
C40	C	0.112454	-0.537340	0.403079
C41	C	-0.241254	-1.042102	-0.098208
C42	C	0.258746	-0.542102	0.401792
C43	C	0.408261	-1.085336	-0.000123
C44	C	0.908261	-0.585336	0.499877
C45	C	0.549183	-1.088073	-0.000123
C46	C	1.049183	-0.588073	0.499877
C47	C	0.167310	-1.259110	-0.000142
C48	C	0.667310	-0.759110	0.499858
C49	C	0.170047	-1.361505	-0.000147
C50	C	0.670047	-0.861505	0.499853
C51	C	0.172268	-0.444662	-0.000140
C52	C	0.672268	0.055338	0.499860
C53	C	0.175066	-0.548985	-0.000127
C54	C	0.675066	-0.048985	0.499873
C55	C	0.177305	-0.632134	-0.000116
C56	C	0.677305	-0.132134	0.499884
C57	C	0.180103	-0.736463	-0.000104
C58	C	0.680103	-0.236463	0.499896
C59	C	0.176213	-1.090544	-0.336770
C60	C	0.676213	-0.590544	0.163230
C61	C	0.176205	-1.090552	-0.453575
C62	C	0.676205	-0.590552	0.046425
C63	C	0.176191	-1.090564	-0.546674
C64	C	0.676191	-0.590564	-0.046674
C65	C	0.176183	-1.090573	-0.663486
C66	C	0.676183	-0.590573	-0.163486
N67	N	0.176169	-1.090585	0.243415
N68	N	0.676169	-0.590585	0.743415
H69	H	-0.239740	-1.233652	-0.070185
H70	H	0.260260	-0.733652	0.429815
Br71	Br	-0.424830	-0.914295	0.105102
Br72	Br	0.075170	-0.414295	0.605102
Br73	Br	-0.458924	-1.090144	-0.220384
Br74	Br	0.041076	-0.590144	0.279616
H75	H	-0.213019	-1.079492	-0.170508
H76	H	0.286981	-0.579492	0.329492
Br77	Br	-0.485824	-1.255716	-0.117340
Br78	Br	0.014176	-0.755716	0.382660
H79	H	-0.192890	-0.967746	0.101255
H80	H	0.307110	-0.467746	0.601255
H81	H	-0.191438	-0.968800	-0.104101
H82	H	0.308562	-0.468800	0.395899
H83	H	-0.459151	-1.229424	0.069162
H84	H	0.040849	-0.729424	0.569162
H85	H	-0.428351	-1.074583	0.170736
H86	H	0.071649	-0.574583	0.670736
Br87	Br	-0.222017	-1.260871	0.116825
Br88	Br	0.277983	-0.760871	0.616825
Br89	Br	-0.190228	-1.101160	0.218825
Br90	Br	0.309772	-0.601160	0.718825
Br91	Br	-0.423180	-0.911699	-0.098007
Br92	Br	0.076820	-0.411699	0.401993
