data_functionalizedCrystal
_audit_creation_method	'MofGen! by Chris Wilmer'
_symmetry_space_group_name_H-M	'P1'
_symmetry_Int_Tables_number	1
_symmetry_cell_setting	triclinic
loop_
_symmetry_equiv_pos_as_xyz
  x,y,z
_cell_length_a	19.121321
_cell_length_b	19.120786
_cell_length_c	11.169409
_cell_angle_alpha	92.479283
_cell_angle_beta	87.582304
_cell_angle_gamma	90.133760
loop_
_atom_site_label
_atom_site_type_symbol
_atom_site_fract_x
_atom_site_fract_y
_atom_site_fract_z
Zn1	Zn	1.059845	-0.324726	0.577592
Zn2	Zn	1.559845	0.175274	1.077592
Zn3	Zn	1.054747	-0.441991	0.368707
Zn4	Zn	1.554747	0.058009	0.868707
Zn5	Zn	0.942604	-0.319773	0.385829
Zn6	Zn	1.442604	0.180227	0.885829
Zn7	Zn	0.937579	-0.436940	0.578256
Zn8	Zn	1.437579	0.063060	1.078256
O9	O	0.998694	-0.380857	0.477596
O10	O	1.498694	0.119143	0.977596
O11	O	1.157270	-0.344468	0.542439
O12	O	1.657270	0.155532	1.042439
O13	O	1.039840	-0.425819	0.203027
O14	O	1.539840	0.074181	0.703027
O15	O	0.962393	-0.222319	0.418155
O16	O	1.462393	0.277681	0.918155
O17	O	1.153524	-0.430622	0.388972
O18	O	1.653524	0.069378	0.888972
O19	O	1.048529	-0.225959	0.559042
O20	O	1.548529	0.274041	1.059042
O21	O	0.957449	-0.336026	0.215607
O22	O	1.457449	0.163974	0.715607
O23	O	0.843836	-0.331128	0.418799
O24	O	1.343836	0.168872	0.918799
O25	O	0.953829	-0.422014	0.746119
O26	O	1.453829	0.077986	1.246119
O27	O	0.840144	-0.417211	0.560174
O28	O	1.340144	0.082789	1.060174
O29	O	1.043657	-0.339571	0.745631
O30	O	1.543657	0.160429	1.245631
O31	O	1.034968	-0.539431	0.389616
O32	O	1.534968	-0.039431	0.889616
O33	O	0.948885	-0.535721	0.543571
O34	O	1.448885	-0.035721	1.043571
C35	C	0.816554	-0.373085	0.491418
C36	C	1.316554	0.126915	0.991418
C37	C	0.738633	-0.369776	0.497358
C38	C	1.238633	0.130224	0.997358
C39	C	0.298027	-0.348763	0.535029
C40	C	0.798027	0.151237	1.035029
C41	C	0.371242	-0.351884	0.529439
C42	C	0.871242	0.148116	1.029439
C43	C	0.405893	-0.398227	0.446624
C44	C	0.905893	0.101773	0.946624
C45	C	0.367326	-0.441456	0.369400
C46	C	0.867326	0.058544	0.869400
C47	C	0.294112	-0.438337	0.374996
C48	C	0.794112	0.061663	0.874996
C49	C	0.626852	-0.409886	0.425730
C50	C	1.126852	0.090114	0.925730
C51	C	0.700071	-0.413000	0.420138
C52	C	1.200071	0.087000	0.920138
C53	C	0.703982	-0.323429	0.580179
C54	C	1.203982	0.176571	1.080179
C55	C	0.630767	-0.320312	0.585763
C56	C	1.130767	0.179688	1.085763
C57	C	0.592206	-0.363543	0.508544
C58	C	1.092206	0.136457	1.008544
C59	C	0.480730	-0.401417	0.440906
C60	C	0.980730	0.098583	0.940906
C61	C	0.517370	-0.360356	0.514268
C62	C	1.017370	0.139644	1.014268
C63	C	0.990847	-0.563016	0.464832
C64	C	1.490847	-0.063016	0.964832
C65	C	0.987554	-0.640946	0.459407
C66	C	1.487554	-0.140946	0.959407
C67	C	1.030821	-0.679391	0.530276
C68	C	1.530821	-0.179391	1.030276
C69	C	1.027724	-0.752616	0.525180
C70	C	1.527724	-0.252616	1.025180
C71	C	0.981364	-0.787393	0.449210
C72	C	1.481364	-0.287393	0.949210
C73	C	0.938093	-0.748943	0.378338
C74	C	1.438093	-0.248943	0.878338
C75	C	0.941186	-0.675720	0.383441
C76	C	1.441186	-0.175720	0.883441
C77	C	0.969778	-1.008388	0.430137
C78	C	1.469778	-0.508388	0.930137
C79	C	0.966689	-1.081616	0.425037
C80	C	1.466689	-0.581616	0.925037
C81	C	1.056320	-1.085283	0.571881
C82	C	1.556320	-0.585283	1.071881
C83	C	1.059412	-1.012059	0.576971
C84	C	1.559412	-0.512059	1.076971
C85	C	1.016138	-0.973615	0.506105
C86	C	1.516138	-0.473615	1.006105
C87	C	0.978199	-0.862240	0.443997
C88	C	1.478199	-0.362240	0.943997
C89	C	1.019300	-0.898769	0.511325
C90	C	1.519300	-0.398769	1.011325
C91	C	1.181545	-0.388661	0.463721
C92	C	1.681545	0.111339	0.963721
C93	C	1.259465	-0.391987	0.457808
C94	C	1.759465	0.108013	0.957808
C95	C	0.998751	-0.380782	0.790640
C96	C	1.498751	0.119218	1.290640
C97	C	0.998775	-0.380750	0.924041
C98	C	1.498775	0.119250	1.424041
C99	C	1.006590	-0.197989	0.490434
C100	C	1.506590	0.302011	0.990434
C101	C	1.009955	-0.120061	0.495905
C102	C	1.509955	0.379939	0.995905
C103	C	0.998679	-0.380884	0.165770
C104	C	1.498679	0.119116	0.665770
C105	C	0.998799	-0.380724	0.032374
C106	C	1.498799	0.119276	0.532374
H107	H	0.262716	-0.473536	0.312117
H108	H	0.762716	0.026464	0.812117
H109	H	0.900342	-0.777265	0.316486
H110	H	1.400342	-0.277265	0.816486
H111	H	0.489154	-0.322627	0.581700
H112	H	0.989154	0.177373	1.081700
Br113	Br	1.122333	-0.964865	0.680077
Br114	Br	1.622333	-0.464865	1.180077
Br115	Br	0.527763	-0.464309	0.328515
Br116	Br	1.027763	0.035691	0.828515
Br117	Br	1.093747	-0.632200	0.633374
Br118	Br	1.593747	-0.132200	1.133374
Br119	Br	0.251008	-0.285860	0.647418
Br120	Br	0.751008	0.214140	1.147418
Br121	Br	1.086433	-0.804788	0.621385
Br122	Br	1.586433	-0.304788	1.121385
Br123	Br	0.903772	-1.128814	0.321918
Br124	Br	1.403772	-0.628814	0.821918
Br125	Br	0.911040	-0.956222	0.333976
Br126	Br	1.411040	-0.456222	0.833976
H127	H	1.091550	-1.116592	0.629578
H128	H	1.591550	-0.616592	1.129578
Br129	Br	0.414351	-0.504355	0.257014
Br130	Br	0.914351	-0.004355	0.757014
H131	H	0.735386	-0.288234	0.643048
H132	H	1.235386	0.211766	1.143048
Br133	Br	0.882462	-0.623543	0.287263
Br134	Br	1.382462	-0.123543	0.787263
H135	H	0.402636	-0.316689	0.592324
H136	H	0.902636	0.183311	1.092324
H137	H	1.057044	-0.870451	0.573185
H138	H	1.557044	-0.370451	1.073185
Br139	Br	0.583745	-0.257417	0.698162
Br140	Br	1.083745	0.242583	1.198162
H141	H	0.728281	-0.450740	0.352697
H142	H	1.228281	0.049260	0.852697
H143	H	0.595464	-0.445087	0.362849
H144	H	1.095464	0.054913	0.862849
H145	H	0.940454	-0.890565	0.382138
H146	H	1.440454	-0.390565	0.882138
