data_functionalizedCrystal
_audit_creation_method	'MofGen! by Chris Wilmer'
_symmetry_space_group_name_H-M	'P1'
_symmetry_Int_Tables_number	1
_symmetry_cell_setting	triclinic
loop_
_symmetry_equiv_pos_as_xyz
  x,y,z
_cell_length_a	10.654559
_cell_length_b	9.065215
_cell_length_c	9.730223
_cell_angle_alpha	89.999584
_cell_angle_beta	89.999563
_cell_angle_gamma	84.751691
loop_
_atom_site_label
_atom_site_type_symbol
_atom_site_fract_x
_atom_site_fract_y
_atom_site_fract_z
O1	O	1.668646	0.207294	-0.114294
O2	O	1.303247	0.227023	-0.114295
O3	O	1.493502	0.002475	-0.114289
O4	O	1.478392	0.431842	-0.114301
O5	O	1.493499	0.002480	0.114291
O6	O	1.303245	0.227029	0.114285
O7	O	1.668644	0.207299	0.114286
Zn8	Zn	1.485944	0.217165	0.150577
Zn9	Zn	1.485947	0.217158	-0.150587
O10	O	1.478390	0.431848	0.114279
C11	C	1.256443	0.225575	-0.000005
C12	C	1.116983	0.221232	-0.000006
C13	C	1.492049	-0.052501	-0.000000
C14	C	1.487710	-0.216321	-0.000005
C15	C	1.064905	0.084940	0.000002
C16	C	0.933866	0.080868	-0.000008
C17	C	0.906995	0.349394	-0.000028
C18	C	1.038031	0.353464	-0.000027
C19	C	1.080417	-0.070092	0.000019
C20	C	0.949379	-0.074163	0.000008
C21	C	1.715449	0.208748	-0.000007
C22	C	1.854909	0.213091	-0.000016
C23	C	1.479842	0.486824	-0.000012
C24	C	1.484182	0.650643	-0.000017
N25	N	1.485952	0.217169	0.356114
N26	N	1.485950	0.217142	-0.356123
C27	C	1.570218	0.117773	0.428042
C28	C	1.570215	0.117755	0.571925
C29	C	1.401674	0.316543	0.571938
C30	C	1.401672	0.316552	0.428058
C31	C	1.667528	0.003009	0.428036
C32	C	1.667524	0.002991	0.571919
H33	H	0.842697	0.457051	-0.000045
C34	C	1.638390	-0.148115	0.375681
C35	C	1.638492	-0.147716	0.231787
C36	C	1.611662	-0.286901	0.183509
H37	H	1.557882	-0.169326	0.408075
H38	H	1.700652	-0.221593	0.408131
H39	H	1.576233	-0.074260	0.199350
H40	H	1.718990	-0.126531	0.199356
H41	H	1.673923	-0.360380	0.215959
H42	H	1.531154	-0.308101	0.215912
H43	H	1.611738	-0.286654	0.085873
H44	H	1.764135	0.028275	0.610969
C45	C	1.310378	0.424543	0.349792
C46	C	1.378292	0.515592	0.267171
C47	C	1.294232	0.615084	0.195043
H48	H	1.260160	0.483870	0.413095
H49	H	1.257517	0.370935	0.293580
H50	H	1.431131	0.569195	0.323378
H51	H	1.428506	0.456306	0.203842
H52	H	1.241370	0.561477	0.138831
H53	H	1.244018	0.674401	0.258356
H54	H	1.340298	0.676863	0.138967
C55	C	1.626051	-0.139765	0.631484
C56	C	1.518359	-0.107433	0.712370
C57	C	1.480110	-0.238904	0.767241
H58	H	1.691810	-0.186416	0.686519
H59	H	1.607374	-0.204223	0.558792
H60	H	1.537042	-0.043000	0.785053
H61	H	1.452576	-0.060802	0.657366
H62	H	1.461433	-0.303362	0.694548
H63	H	1.545877	-0.285546	0.822269
H64	H	1.407032	-0.216987	0.822118
H65	H	1.121935	-0.128517	-0.095634
C66	C	1.140811	-0.132666	0.131685
C67	C	1.047249	-0.178256	0.218917
C68	C	1.102838	-0.235919	0.340214
H69	H	1.183574	-0.058540	0.176143
H70	H	1.199215	-0.215010	0.110332
H71	H	0.988867	-0.095922	0.240272
H72	H	1.004479	-0.252397	0.174503
H73	H	1.161242	-0.318263	0.318861
H74	H	1.145600	-0.161785	0.384659
H75	H	1.039367	-0.266871	0.399410
C76	C	1.789415	0.050886	0.368781
C77	C	1.870159	0.082608	0.476190
C78	C	1.982457	0.126701	0.421656
H79	H	1.771408	0.136845	0.313855
H80	H	1.828839	-0.026704	0.313868
H81	H	1.830742	0.160191	0.531080
H82	H	1.888201	-0.003330	0.531125
H83	H	2.021881	0.049112	0.366743
H84	H	1.964438	0.212657	0.366731
H85	H	2.037260	0.148217	0.494523
H86	H	1.080427	0.464446	-0.000056
C87	C	1.310116	0.424207	0.650230
C88	C	1.232371	0.344752	0.732849
C89	C	1.148023	0.443885	0.805003
H90	H	1.259807	0.483449	0.586942
H91	H	1.355953	0.486098	0.706445
H92	H	1.186537	0.282887	0.676640
H93	H	1.282644	0.285516	0.796164
H94	H	1.193860	0.505776	0.861217
H95	H	1.097723	0.503122	0.741704
H96	H	1.095270	0.389990	0.861077
C97	C	0.901852	-0.140125	-0.131650
C98	C	1.003936	-0.179660	-0.218869
C99	C	0.960202	-0.240441	-0.340153
H100	H	0.844566	-0.069117	-0.176126
H101	H	0.860239	-0.225570	-0.110278
H102	H	1.045529	-0.094226	-0.240242
H103	H	1.061231	-0.250681	-0.174435
H104	H	0.918589	-0.325886	-0.318781
H105	H	0.902916	-0.169426	-0.384617
H106	H	1.029459	-0.267286	-0.399340
H107	H	0.919769	-0.134783	0.095671
