data_functionalizedCrystal
_audit_creation_method	'MofGen! by Chris Wilmer'
_symmetry_space_group_name_H-M	'P1'
_symmetry_Int_Tables_number	1
_symmetry_cell_setting	triclinic
loop_
_symmetry_equiv_pos_as_xyz
  x,y,z
_cell_length_a	19.851628
_cell_length_b	14.395555
_cell_length_c	14.395555
_cell_angle_alpha	60.002398
_cell_angle_beta	89.998691
_cell_angle_gamma	59.999202
loop_
_atom_site_label
_atom_site_type_symbol
_atom_site_fract_x
_atom_site_fract_y
_atom_site_fract_z
Zr1	Zr	0.648869	1.016910	-0.121989
O2	O	0.541306	1.210693	-0.270302
O3	O	0.681848	0.823112	-0.076521
O4	O	0.681841	1.016907	-0.270316
O5	O	0.541312	1.016905	0.076360
O6	O	0.792691	1.016921	-0.270329
O7	O	0.541313	1.016898	-0.076507
O8	O	0.792703	0.670258	0.076335
O9	O	0.541300	1.363569	-0.270303
O10	O	0.778633	0.902840	-0.057141
O11	O	0.695906	0.902835	0.056952
O12	O	0.695898	1.131003	-0.171217
O13	O	0.613171	1.130998	-0.057124
Zr14	Zr	0.825661	1.016943	0.121797
Zr15	Zr	0.825662	1.016932	-0.122009
Zr16	Zr	0.648868	1.016921	0.121817
Zr17	Zr	0.648859	1.260729	-0.121991
Zr18	Zr	0.825671	0.773124	0.121799
O19	O	0.792682	1.210741	0.076329
O20	O	0.792684	1.210725	-0.270331
O21	O	0.541304	1.210709	0.076358
O22	O	0.933223	0.823160	0.270110
O23	O	0.933225	0.823144	-0.076550
O24	O	0.681846	0.823128	0.270139
O25	O	0.933217	1.016948	-0.076552
O26	O	0.792688	1.016946	0.270124
O27	O	0.681838	1.016932	0.270137
O28	O	0.933217	1.016955	0.076315
O29	O	0.681827	1.363587	-0.270320
O30	O	0.792702	0.670267	0.270128
O31	O	0.933229	0.670284	0.270111
O32	O	0.933230	0.670276	0.076319
O33	O	0.541299	1.363578	-0.076510
O34	O	0.681826	1.363595	-0.076527
O35	O	0.778632	0.902850	0.171025
O36	O	0.861358	0.902856	0.056932
O37	O	0.778624	1.131019	-0.057144
O38	O	0.695897	1.131013	0.056949
C39	C	0.737277	0.711946	-0.000093
C40	C	0.737281	0.608439	-0.000092
C41	C	0.782380	0.547863	-0.062311
C42	C	0.815069	0.409763	0.044953
C43	C	0.704597	0.562104	-0.107344
C44	C	0.770015	0.471639	0.107235
C45	C	0.659501	0.624053	-0.045139
C46	C	0.692170	0.485963	0.062189
C47	C	0.516123	1.016899	-0.000070
C48	C	0.441070	1.016889	-0.000062
C49	C	0.259919	0.892513	0.062108
C50	C	0.282297	0.954674	-0.045149
C51	C	0.170887	1.016941	-0.000110
C52	C	0.282271	0.954715	0.107157
C53	C	0.303639	1.016908	-0.000081
C54	C	0.192276	1.079103	-0.107431
C55	C	0.192252	1.079126	0.044952
C56	C	0.214576	1.141378	-0.062369
C57	C	0.094413	1.016955	-0.000125
C58	C	0.380108	1.016903	-0.000077
C59	C	0.958406	1.016955	-0.000122
C60	C	1.033460	1.016964	-0.000130
C61	C	0.737266	1.016913	-0.305060
C62	C	0.737267	1.016908	-0.408561
C63	C	0.737252	1.321907	-0.000099
C64	C	0.737248	1.425415	-0.000100
C65	C	0.782382	0.892504	-0.406951
C66	C	0.704592	0.954687	-0.499964
C67	C	0.815037	0.954730	-0.499976
C68	C	0.659432	1.079092	-0.500212
C69	C	0.769933	1.079117	-0.500210
C70	C	0.692097	1.141392	-0.593240
C71	C	0.737263	1.016940	0.304868
C72	C	0.737263	1.016945	0.408369
C73	C	0.958418	0.711974	-0.000118
C74	C	1.033476	0.608476	-0.000126
C75	C	0.737275	0.711960	0.304871
C76	C	0.737279	0.608457	0.408374
C77	C	0.958417	0.711988	0.304845
C78	C	1.033474	0.608495	0.408339
C79	C	0.516113	1.321865	-0.305037
C80	C	0.441056	1.425359	-0.408531
C81	C	0.516111	1.321879	-0.000074
C82	C	0.441054	1.425377	-0.000066
C83	C	0.737254	1.321893	-0.305063
C84	C	0.737251	1.425396	-0.408566
C85	C	1.025542	0.559864	-0.059685
C86	C	1.096060	0.462630	-0.059715
C87	C	1.174511	0.414003	-0.000179
C88	C	1.182443	0.462625	0.059382
C89	C	1.111926	0.559864	0.059405
C90	C	1.111911	0.559896	0.397386
C91	C	1.182442	0.462666	0.494621
C92	C	1.174534	0.414031	0.602807
C93	C	1.096088	0.462639	0.613758
C94	C	1.025559	0.559873	0.516525
C95	C	0.362618	1.473969	-0.397578
C96	C	0.292087	1.571229	-0.494813
C97	C	0.299996	1.619870	-0.602999
C98	C	0.378442	1.571255	-0.613950
C99	C	0.448971	1.474004	-0.516717
C100	C	0.448988	1.473999	0.059483
C101	C	0.378470	1.571260	0.059486
C102	C	0.300019	1.619890	-0.000054
C103	C	0.292086	1.571264	-0.059610
C104	C	0.362603	1.474012	-0.059619
C105	C	0.692174	0.547864	0.406765
C106	C	0.769969	0.409771	0.499775
C107	C	0.659518	0.562096	0.499794
C108	C	0.815119	0.471665	0.500021
C109	C	0.704612	0.624063	0.500025
C110	C	0.782454	0.485980	0.593052
H111	H	0.593750	0.715696	-0.083268
C112	C	0.667240	0.747886	0.498697
N113	N	0.639081	0.841161	0.497685
C114	C	0.667269	0.612359	-0.229875
N115	N	0.639158	0.650212	-0.322166
C116	C	0.284805	0.750419	0.133050
N117	N	0.303546	0.643397	0.186476
H118	H	0.242606	1.699079	-0.000037
H119	H	1.089661	0.423026	0.701857
H120	H	0.653890	1.246673	-0.672865
C121	C	0.939279	0.613319	0.528593
N122	N	0.874294	0.653571	0.537691
C123	C	0.535278	1.420531	0.124980
N124	N	0.600269	1.380270	0.174309
C125	C	0.903911	0.285983	0.096422
N126	N	0.970827	0.192757	0.135180
H127	H	0.384945	1.610835	0.107988
C128	C	0.833982	0.584458	-0.133267
N129	N	0.872852	0.612019	-0.186704
H130	H	0.797612	0.318150	0.500700
H131	H	0.797586	1.131656	-0.499238
C132	C	0.205782	1.624754	-0.125081
N133	N	0.140776	1.665034	-0.174383
H134	H	1.231969	0.334856	0.681972
H135	H	0.820469	0.787311	-0.327194
C136	C	0.353862	1.420523	-0.125117
N137	N	0.347271	1.380238	-0.174451
C138	C	0.904013	0.421173	0.498895
N139	N	0.970966	0.383144	0.498041
H140	H	0.654087	0.574941	0.327011
C141	C	0.834066	0.449463	0.700628
N142	N	0.872944	0.421950	0.781655
C143	C	0.334719	0.883624	-0.096629
N144	N	0.374205	0.830100	-0.135395
H145	H	0.593750	0.599262	0.500717
H146	H	0.654027	0.458933	0.114875
C147	C	0.807449	0.421128	0.229823
N148	N	0.835648	0.383084	0.322153
H149	H	0.195993	1.246649	-0.115046
C150	C	0.140014	1.150081	-0.230023
N151	N	0.100650	1.203534	-0.322357
H152	H	0.242560	1.699057	-0.682164
H153	H	0.356163	1.434371	-0.309496
C154	C	0.205805	1.624685	-0.482741
N155	N	0.140819	1.664945	-0.473645
C156	C	0.139832	1.150111	0.096471
N157	N	0.100351	1.203567	0.135288
H158	H	0.321064	0.902108	0.197860
H159	H	0.676958	0.902103	-0.500892
H160	H	0.593630	1.131626	-0.499383
H161	H	0.880811	0.902138	-0.500882
C162	C	1.120668	0.613313	0.124941
N163	N	1.127258	0.653565	0.174308
C164	C	1.252074	0.307028	-0.000206
N165	N	1.310492	0.226450	-0.000226
C166	C	1.268747	0.409111	0.124877
N167	N	1.333754	0.368794	0.174215
C168	C	1.087315	0.409153	-0.125227
N169	N	1.080727	0.368873	-0.174568
C170	C	0.535251	1.420527	-0.528785
N171	N	0.600236	1.380251	-0.537883
C172	C	1.268724	0.409203	0.482549
N173	N	1.333710	0.368934	0.473453
C174	C	0.387128	1.624762	-0.732967
N175	N	0.393667	1.665058	-0.822613
H176	H	1.118366	0.599481	0.309304
H177	H	0.961669	0.599455	-0.108181
