data_functionalizedCrystal
_audit_creation_method	'MofGen! by Chris Wilmer'
_symmetry_space_group_name_H-M	'P1'
_symmetry_Int_Tables_number	1
_symmetry_cell_setting	triclinic
loop_
_symmetry_equiv_pos_as_xyz
  x,y,z
_cell_length_a	10.654546
_cell_length_b	10.654550
_cell_length_c	14.586319
_cell_angle_alpha	89.997374
_cell_angle_beta	89.995569
_cell_angle_gamma	84.484193
loop_
_atom_site_label
_atom_site_type_symbol
_atom_site_fract_x
_atom_site_fract_y
_atom_site_fract_z
O1	O	1.667842	0.176376	-0.076258
O2	O	1.302363	0.193187	-0.076255
O3	O	1.493506	0.002042	-0.076253
O4	O	1.476699	0.367521	-0.076260
O5	O	1.493492	0.002039	0.076228
O6	O	1.302350	0.193184	0.076226
O7	O	1.667829	0.176373	0.076223
Cu8	Cu	1.485088	0.184778	0.090147
Cu9	Cu	1.485104	0.184782	-0.090179
O10	O	1.476686	0.367518	0.076221
C11	C	1.255558	0.191952	-0.000014
C12	C	1.116115	0.188262	-0.000013
C13	C	1.050627	0.186517	-0.083135
C14	C	0.919607	0.183040	-0.083142
C15	C	0.919573	0.183047	0.083101
C16	C	1.050590	0.186533	0.083107
C17	C	1.116152	0.188246	-0.166255
C18	C	1.050665	0.186500	-0.249384
C19	C	0.919644	0.183023	-0.249391
C20	C	0.854111	0.181291	-0.166270
C21	C	1.492265	-0.044757	-0.000014
C22	C	1.488573	-0.184200	-0.000017
C23	C	1.601115	-0.263687	-0.000015
C24	C	1.597638	-0.394708	-0.000022
C25	C	1.369068	-0.366742	-0.000028
C26	C	1.372546	-0.235724	-0.000028
C27	C	1.717142	-0.212164	-0.000004
C28	C	1.829693	-0.291652	-0.000001
C29	C	1.826216	-0.422673	-0.000008
C30	C	1.710188	-0.474206	-0.000017
C31	C	1.714633	0.177608	-0.000020
C32	C	1.854077	0.181298	-0.000027
C33	C	1.477927	0.414317	-0.000020
C34	C	1.481619	0.553761	-0.000023
N35	N	1.485086	0.184775	0.216979
N36	N	1.485116	0.184775	-0.217011
C37	C	1.569752	0.100165	0.451986
C38	C	1.569756	0.100162	0.547967
C39	C	1.400440	0.269389	0.547975
C40	C	1.400431	0.269385	0.451995
C41	C	1.485095	0.184775	0.404003
C42	C	1.485107	0.184776	0.595964
C43	C	1.485110	0.184773	0.700031
C44	C	1.485090	0.184775	0.299930
H45	H	1.103911	0.187961	0.150792
H46	H	1.707367	-0.580893	-0.000032
O47	O	1.935658	-0.499709	0.000031
C48	C	2.038805	-0.426132	0.000016
H49	H	2.007772	-0.328641	0.028885
H50	H	2.074327	-0.416488	-0.073135
C51	C	2.183524	-0.610218	0.024359
C52	C	2.145412	-0.490482	0.059824
H53	H	2.249288	-0.649914	0.061247
H54	H	2.114034	-0.659790	0.024366
H55	H	2.213118	-0.602166	-0.036599
H56	H	2.115805	-0.498537	0.120777
H57	H	2.214901	-0.440913	0.059829
O58	O	1.652058	0.018118	0.405304
C59	C	1.730105	0.086040	0.349726
H60	H	1.733175	0.185099	0.378643
H61	H	1.690802	0.092286	0.277004
C62	C	1.860536	-0.103679	0.312676
C63	C	1.864315	0.017983	0.348196
H64	H	1.943321	-0.145661	0.311728
H65	H	1.807952	-0.149441	0.350117
H66	H	1.827777	-0.098457	0.252077
H67	H	1.897058	0.012760	0.408798
H68	H	1.916908	0.063743	0.310765
O69	O	1.318158	0.351409	0.594700
C70	C	1.240082	0.283433	0.650216
H71	H	1.289248	0.185618	0.664593
H72	H	1.147185	0.274043	0.613239
C73	C	1.153485	0.474137	0.723728
C74	C	1.213876	0.354002	0.741393
H75	H	1.137314	0.517669	0.779969
H76	H	1.206082	0.519935	0.686324
H77	H	1.076078	0.466295	0.692912
H78	H	1.291289	0.361847	0.772197
H79	H	1.161291	0.308207	0.778804
O80	O	1.318365	0.351639	0.405280
C81	C	1.386295	0.429759	0.349767
H82	H	1.484131	0.380643	0.335383
H83	H	1.395639	0.522662	0.386749
C84	C	1.195554	0.516267	0.276267
C85	C	1.315714	0.455937	0.258594
H86	H	1.152015	0.532421	0.220029
H87	H	1.149787	0.463640	0.313669
H88	H	1.203357	0.593680	0.307087
H89	H	1.307909	0.378519	0.227784
H90	H	1.361478	0.508552	0.221184
O91	O	1.942288	-0.241392	0.000044
C92	C	1.921228	-0.108706	0.000027
H93	H	1.823483	-0.078798	0.028895
H94	H	1.927640	-0.072179	-0.073125
C95	C	2.141650	-0.090245	0.024371
C96	C	2.021603	-0.053511	0.059834
H97	H	2.203568	-0.056196	0.061259
H98	H	2.155840	-0.179638	0.024379
H99	H	2.146976	-0.059804	-0.036588
H100	H	2.016273	-0.083966	0.120787
H101	H	2.007414	0.035878	0.059838
O102	O	1.652116	0.017929	0.594435
C103	C	1.726811	-0.056769	0.531490
H104	H	1.728670	-0.005261	0.463072
H105	H	1.685224	-0.150446	0.521289
C106	C	1.859784	-0.144662	0.652970
C107	C	1.862077	-0.081395	0.568939
H108	H	1.943222	-0.159859	0.676071
H109	H	1.809459	-0.094341	0.695378
H110	H	1.825123	-0.222720	0.644457
H111	H	1.896723	-0.003333	0.577455
H112	H	1.912412	-0.131704	0.526533
H113	H	1.222836	0.191075	-0.166259
H114	H	1.104029	0.187921	-0.317057
H115	H	0.747423	0.178474	-0.166283
O116	O	0.855944	0.181555	-0.330113
C117	C	0.766851	0.288103	-0.335090
H118	H	0.797036	0.365046	-0.287924
H119	H	0.670553	0.260919	-0.312765
C120	C	0.721766	0.242773	-0.492329
C121	C	0.758845	0.337279	-0.434405
H122	H	0.716821	0.273105	-0.553591
H123	H	0.781786	0.170986	-0.488975
H124	H	0.641521	0.220128	-0.473713
H125	H	0.839095	0.359911	-0.453014
H126	H	0.698838	0.409071	-0.437764
H127	H	0.866206	0.181636	0.150774
H128	H	1.280905	-0.171003	-0.000028
H129	H	1.719985	-0.105482	0.000004
H130	H	1.274604	-0.408711	-0.000034
