data_functionalizedCrystal
_audit_creation_method	'MofGen! by Chris Wilmer'
_symmetry_space_group_name_H-M	'P1'
_symmetry_Int_Tables_number	1
_symmetry_cell_setting	triclinic
loop_
_symmetry_equiv_pos_as_xyz
  x,y,z
_cell_length_a	17.640280
_cell_length_b	19.805407
_cell_length_c	19.805399
_cell_angle_alpha	90.021064
_cell_angle_beta	78.776890
_cell_angle_gamma	101.201178
loop_
_atom_site_label
_atom_site_type_symbol
_atom_site_fract_x
_atom_site_fract_y
_atom_site_fract_z
Zn1	Zn	-0.314702	-1.089284	-0.328342
Zn2	Zn	-0.446876	-1.112110	-0.192304
Zn3	Zn	-0.314722	-0.976102	-0.215160
Zn4	Zn	-0.446832	-0.998965	-0.305455
O5	O	-0.380783	-1.044115	-0.260315
O6	O	-0.332246	-1.187031	-0.310309
O7	O	-0.429372	-1.094052	-0.100614
O8	O	-0.204115	-0.971996	-0.249318
O9	O	-0.429354	-1.203800	-0.210362
O10	O	-0.204100	-1.055150	-0.332472
O11	O	-0.332279	-0.994128	-0.117407
O12	O	-0.332236	-0.884417	-0.227125
O13	O	-0.429278	-1.010962	-0.403212
O14	O	-0.429297	-0.901214	-0.293465
O15	O	-0.332203	-1.077319	-0.420027
O16	O	-0.557475	-1.116221	-0.188170
O17	O	-0.557442	-1.033095	-0.271302
C18	C	-0.380764	-0.868256	-0.260292
C19	C	-0.380775	-0.793026	-0.260295
C20	C	-0.586137	-1.079634	-0.224787
C21	C	-0.673988	-1.094891	-0.209610
C22	C	-0.431390	-0.766459	-0.294754
C23	C	-0.431390	-0.695771	-0.294761
C24	C	-0.380778	-0.651651	-0.260306
C25	C	-0.330158	-0.678222	-0.225846
C26	C	-0.330155	-0.748909	-0.225843
C27	C	-0.330169	-0.393151	-0.225859
C28	C	-0.330178	-0.322460	-0.225863
C29	C	-0.431405	-0.340013	-0.294778
C30	C	-0.431402	-0.410699	-0.294774
C31	C	-0.380779	-0.437264	-0.260318
C32	C	-0.380778	-0.513912	-0.260311
C33	C	-0.380782	-0.575005	-0.260308
C34	C	-0.962972	-0.928487	-0.375856
C35	C	-1.045522	-0.942825	-0.361574
C36	C	-1.045490	-1.029439	-0.275096
C37	C	-0.962939	-1.015111	-0.289373
C38	C	-0.921686	-0.964634	-0.339754
C39	C	-0.921653	-1.051257	-0.253271
C40	C	-0.839109	-1.036927	-0.267545
C41	C	-0.797851	-0.986451	-0.317921
C42	C	-0.839142	-0.950304	-0.354028
C43	C	-0.962907	-1.101730	-0.202888
C44	C	-0.921622	-1.137876	-0.166785
C45	C	-0.839076	-1.123550	-0.181062
C46	C	-0.797818	-1.073074	-0.231439
C47	C	-0.797785	-1.159698	-0.144956
C48	C	-0.715241	-1.145368	-0.159230
C49	C	-0.715274	-1.058745	-0.245713
C50	C	-0.174627	-1.008476	-0.295997
C51	C	-0.086776	-0.993289	-0.311203
C52	C	-0.380733	-1.044145	-0.436867
C53	C	-0.380712	-1.044157	-0.512102
C54	C	-0.380797	-0.220661	-0.260333
C55	C	-0.380790	-0.295891	-0.260326
C56	C	-0.330162	-1.078710	-0.556203
C57	C	-0.330139	-1.078713	-0.626896
C58	C	-0.380671	-1.044167	-0.653485
C59	C	-0.431223	-1.009610	-0.609379
C60	C	-0.431241	-1.009603	-0.538688
C61	C	-0.431149	-1.009635	-0.894465
C62	C	-0.431128	-1.009646	-0.965160
C63	C	-0.330047	-1.078745	-0.982672
C64	C	-0.330066	-1.078738	-0.911982
C65	C	-0.380614	-1.044179	-0.867882
C66	C	-0.380638	-1.044175	-0.791230
C67	C	-0.380652	-1.044175	-0.730135
C68	C	-0.380776	-1.044115	-0.084460
C69	C	-0.380574	-1.044195	-0.009264
H70	H	-0.472607	-0.802378	-0.322809
H71	H	-0.730638	-0.974780	-0.329537
H72	H	-1.079134	-0.913395	-0.390985
Cl73	Cl	-0.663407	-0.995294	-0.309055
H74	H	-0.831385	-1.200791	-0.103932
Cl75	Cl	-0.266526	-0.622756	-0.182535
Cl76	Cl	-0.266541	-1.122172	-0.878559
H77	H	-0.472607	-0.674144	-0.322820
Cl78	Cl	-0.787276	-0.886853	-0.417370
Cl79	Cl	-0.494696	-0.966189	-0.839034
Cl80	Cl	-1.097358	-1.092894	-0.211765
H81	H	-0.472622	-0.318375	-0.322837
Cl82	Cl	-0.266637	-1.122146	-0.522784
Cl83	Cl	-0.495033	-0.466161	-0.338089
H84	H	-0.288959	-0.286538	-0.197806
Cl85	Cl	-0.266623	-1.122189	-0.682329
H86	H	-0.288885	-1.106883	-1.018588
H87	H	-0.472279	-0.981512	-0.986806
H88	H	-0.288955	-0.414772	-0.197796
Cl89	Cl	-0.266519	-0.782307	-0.182523
Cl90	Cl	-0.494745	-0.966177	-0.642806
H91	H	-0.929383	-0.887389	-0.416886
Cl92	Cl	-0.494789	-0.966161	-0.483246
H93	H	-1.030120	-1.113397	-0.191269
H94	H	-0.681625	-1.174802	-0.129831
Cl95	Cl	-0.973489	-1.201332	-0.103454
