data_functionalizedCrystal
_audit_creation_method	'MofGen! by Chris Wilmer'
_symmetry_space_group_name_H-M	'P1'
_symmetry_Int_Tables_number	1
_symmetry_cell_setting	triclinic
loop_
_symmetry_equiv_pos_as_xyz
  x,y,z
_cell_length_a	17.019383
_cell_length_b	17.019294
_cell_length_c	15.072220
_cell_angle_alpha	86.119892
_cell_angle_beta	86.111534
_cell_angle_gamma	83.133350
loop_
_atom_site_label
_atom_site_type_symbol
_atom_site_fract_x
_atom_site_fract_y
_atom_site_fract_z
O1	O	1.046574	0.100545	-0.161347
O2	O	0.816896	0.113349	-0.144796
O3	O	0.938141	-0.007892	-0.144782
O4	O	0.925329	0.221786	-0.161361
O5	O	0.938111	-0.007885	0.002784
O6	O	0.816866	0.113356	0.002771
O7	O	1.046545	0.100552	-0.013781
Zn8	Zn	0.931700	0.106955	0.017925
Zn9	Zn	0.931740	0.106946	-0.176501
O10	O	0.925299	0.221793	-0.013794
C11	C	0.787492	0.112865	-0.068732
C12	C	0.699924	0.111403	-0.061937
C13	C	0.658793	0.110715	-0.139177
C14	C	0.576512	0.109354	-0.132780
C15	C	0.535363	0.108676	-0.049142
C16	C	0.576499	0.109367	0.028103
C17	C	0.658779	0.110733	0.021705
C18	C	0.286932	0.104555	-0.025800
C19	C	0.204647	0.103186	-0.019407
C20	C	0.204665	0.103175	-0.180292
C21	C	0.286946	0.104537	-0.186682
C22	C	0.328075	0.105232	-0.109437
C23	C	0.451259	0.107282	-0.042601
C24	C	0.412177	0.106631	-0.115979
C25	C	0.937640	-0.037277	-0.068717
C26	C	0.936181	-0.124845	-0.061918
C27	C	0.935514	-0.165984	-0.139162
C28	C	0.934139	-0.248264	-0.132770
C29	C	0.933436	-0.289403	-0.049134
C30	C	0.934101	-0.248258	0.028116
C31	C	0.935471	-0.165979	0.021724
C32	C	0.929294	-0.537830	-0.025809
C33	C	0.927926	-0.620114	-0.019422
C34	C	0.927963	-0.620114	-0.180309
C35	C	0.929337	-0.537835	-0.186694
C36	C	0.929998	-0.496696	-0.109444
C37	C	0.932032	-0.373506	-0.042599
C38	C	0.931396	-0.412594	-0.115980
C39	C	1.075948	0.101036	-0.089846
C40	C	1.163516	0.102498	-0.096647
C41	C	0.925800	0.251178	-0.089861
C42	C	0.927259	0.338747	-0.096666
N43	N	0.931679	0.106961	0.150615
N44	N	0.931767	0.106934	-0.309191
C45	C	0.931738	0.106943	0.509813
C46	C	0.866645	0.171600	0.472232
C47	C	0.866794	0.171835	0.369377
C48	C	0.931708	0.106952	0.331610
C49	C	1.013996	0.124840	0.361254
C50	C	1.013631	0.125300	0.464104
C51	C	0.915278	0.024206	0.479494
C52	C	0.913389	0.024760	0.376732
C53	C	0.931697	0.106955	0.230898
C54	C	0.931755	0.106941	0.610525
H55	H	0.445683	0.107188	-0.184077
C56	C	0.784153	0.157469	0.342721
N57	N	0.721902	0.146653	0.322649
C58	C	0.835964	0.000955	0.522404
N59	N	0.776221	-0.016549	0.554722
H60	H	0.692266	0.111298	0.084602
C61	C	0.927227	-0.665372	-0.265278
N62	N	0.926669	-0.699460	-0.329279
H63	H	0.933599	-0.281756	-0.195671
C64	C	0.332164	0.105311	0.059174
N65	N	0.366236	0.105877	0.123180
H66	H	0.417747	0.106728	0.025497
C67	C	0.931259	-0.418767	0.049399
N68	N	0.930674	-0.452861	0.118692
H69	H	0.929911	-0.504345	-0.254800
H70	H	0.927350	-0.653607	0.048688
C71	C	0.936287	-0.120739	-0.231169
N72	N	0.936866	-0.086661	-0.300471
H73	H	0.171144	0.102657	0.048703
H74	H	0.929847	-0.504347	0.037093
H75	H	0.320444	0.105083	-0.254789
H76	H	0.931962	-0.379094	-0.184076
H77	H	0.542989	0.108820	0.096203
C78	C	0.704049	0.111459	-0.231186
N79	N	0.738133	0.112023	-0.300490
H80	H	0.933524	-0.281759	0.096215
C81	C	0.936207	-0.120727	0.106698
N82	N	0.936759	-0.086644	0.170704
H83	H	0.852857	0.011182	0.358018
H84	H	0.805278	0.161131	0.502477
H85	H	0.877001	0.232654	0.492613
C86	C	0.880985	0.254783	0.328697
N87	N	0.891679	0.317262	0.298057
H88	H	0.957727	-0.025602	0.351489
H89	H	1.028150	0.185637	0.482366
C90	C	1.081044	0.064114	0.497244
N91	N	1.131827	0.018039	0.522199
C92	C	1.080995	0.062910	0.327817
N93	N	1.131457	0.016264	0.302630
H94	H	1.028864	0.184489	0.329790
C95	C	0.979404	-0.040796	0.512427
N96	N	1.027705	-0.089749	0.537238
H97	H	0.543026	0.108793	-0.195677
H98	H	0.171169	0.102611	-0.243180
