data_functionalizedCrystal
_audit_creation_method	'MofGen! by Chris Wilmer'
_symmetry_space_group_name_H-M	'P1'
_symmetry_Int_Tables_number	1
_symmetry_cell_setting	triclinic
loop_
_symmetry_equiv_pos_as_xyz
  x,y,z
_cell_length_a	13.339070
_cell_length_b	15.944493
_cell_length_c	11.804365
_cell_angle_alpha	101.834508
_cell_angle_beta	74.875130
_cell_angle_gamma	99.552169
loop_
_atom_site_label
_atom_site_type_symbol
_atom_site_fract_x
_atom_site_fract_y
_atom_site_fract_z
O1	O	1.362642	0.408897	-0.099011
O2	O	1.068125	0.353626	-0.099012
O3	O	1.223459	0.260863	-0.099022
O4	O	1.207308	0.501659	-0.099002
O5	O	1.182565	0.285250	0.099037
O6	O	1.027232	0.378012	0.099046
O7	O	1.321748	0.433283	0.099047
Cu8	Cu	1.170756	0.407874	0.117131
Cu9	Cu	1.219117	0.379034	-0.117096
O10	O	1.166415	0.526046	0.099057
C11	C	1.009991	0.356483	0.000017
C12	C	0.897694	0.328653	0.000016
C13	C	1.202353	0.241607	0.000003
C14	C	1.200378	0.147896	-0.000013
C15	C	0.532862	0.545039	0.000015
C16	C	0.638371	0.571188	0.000012
C17	C	0.703207	0.510557	0.000013
C18	C	0.662524	0.423771	0.000016
C19	C	0.557007	0.397618	0.000010
C20	C	0.727352	0.363136	0.000008
C21	C	0.686669	0.276351	0.000012
C22	C	0.581162	0.250202	0.000006
C23	C	0.516326	0.310834	0.000004
C24	C	0.832868	0.389289	0.000015
C25	C	0.857014	0.241868	0.000010
C26	C	0.751505	0.215719	0.000013
C27	C	1.291805	-0.066556	0.000010
C28	C	1.262662	-0.140637	-0.097642
C29	C	1.196709	-0.023678	0.000002
C30	C	1.222322	-0.116575	0.097628
C31	C	1.193171	-0.189409	0.000021
C32	C	1.167608	-0.096535	-0.097731
C33	C	1.127264	-0.072455	0.097627
C34	C	1.098056	-0.146522	-0.000050
C35	C	1.198750	0.071795	-0.000010
C36	C	1.191124	-0.284882	0.000025
C37	C	1.379883	0.430426	0.000016
C38	C	1.492181	0.458254	0.000009
C39	C	1.187521	0.545301	0.000030
C40	C	1.189498	0.639012	0.000037
N41	N	1.136749	0.428160	0.281874
N42	N	1.253133	0.358744	-0.281839
C43	C	1.334796	0.310014	0.655810
C44	C	1.360522	0.294664	0.531147
C45	C	1.304580	0.328037	0.468823
C46	C	1.222910	0.376762	0.531174
C47	C	1.197188	0.392119	0.655849
C48	C	1.166972	0.410142	0.468861
C49	C	1.085301	0.458867	0.531212
C50	C	1.059582	0.474222	0.655876
C51	C	1.115524	0.440849	0.718200
C52	C	1.192694	0.394785	0.344186
C53	C	1.055085	0.476890	0.344225
C54	C	1.029360	0.492240	0.468888
H55	H	0.865980	0.459951	0.000017
H56	H	0.789116	0.531853	0.000008
H57	H	0.430411	0.289547	0.000007
C58	C	0.683110	0.666651	0.000024
N59	N	0.716807	0.738559	0.000041
C60	C	0.461538	0.611723	0.000011
N61	N	0.407814	0.661954	0.000009
C62	C	0.536415	0.154736	0.000010
N63	N	0.502711	0.082831	0.000020
C64	C	1.050020	-0.032234	0.209167
N65	N	0.991843	-0.001939	0.293189
C66	C	1.136450	-0.083986	-0.209392
N67	N	1.112987	-0.074531	-0.293496
C68	C	1.087209	0.457711	0.855338
N69	N	1.065879	0.470403	0.958632
H70	H	0.993089	0.513905	0.706642
C71	C	1.450351	0.241063	0.462571
N72	N	1.518013	0.200684	0.410918
C73	C	0.987323	-0.193235	-0.000121
N74	N	0.903921	-0.228422	-0.000181
C75	C	0.706741	0.120255	0.000009
N76	N	0.673025	0.048352	0.000004
H77	H	1.009534	0.504067	0.293481
H78	H	1.245458	-0.125979	0.180180
C79	C	1.282524	0.341182	0.275615
N80	N	1.350186	0.300803	0.223967
H81	H	0.909804	0.192496	0.000006
C82	C	1.402493	-0.019669	-0.000120
N83	N	1.485862	0.015646	-0.000225
C84	C	1.396324	0.273312	0.724375
N85	N	1.442670	0.245665	0.776020
C86	C	0.939522	0.545836	0.537490
N87	N	0.871854	0.586202	0.589163
H88	H	1.319869	-0.170390	-0.180201
H89	H	1.325530	0.315536	0.367316
