data_functionalizedCrystal
_audit_creation_method	'MofGen! by Chris Wilmer'
_symmetry_space_group_name_H-M	'P1'
_symmetry_Int_Tables_number	1
_symmetry_cell_setting	triclinic
loop_
_symmetry_equiv_pos_as_xyz
  x,y,z
_cell_length_a	17.000371
_cell_length_b	15.944493
_cell_length_c	14.421503
_cell_angle_alpha	89.992936
_cell_angle_beta	89.994392
_cell_angle_gamma	100.462854
loop_
_atom_site_label
_atom_site_type_symbol
_atom_site_fract_x
_atom_site_fract_y
_atom_site_fract_z
O1	O	-0.102424	1.106988	-0.077095
O2	O	0.230909	1.440322	0.256238
O3	O	0.564242	1.773655	0.589571
O4	O	-0.115129	0.861493	-0.077100
O5	O	0.218204	1.194826	0.256234
O6	O	0.551538	1.528160	0.589567
O7	O	0.007092	0.999484	-0.077096
O8	O	0.340425	1.332817	0.256238
O9	O	0.673759	1.666151	0.589571
O10	O	-0.224645	0.968997	-0.077099
O11	O	0.108688	1.302331	0.256234
O12	O	0.442021	1.635664	0.589567
O13	O	0.007074	0.999461	0.077128
O14	O	0.340407	1.332795	0.410461
O15	O	0.673740	1.666128	0.743794
O16	O	-0.115147	0.861470	0.077124
O17	O	0.218186	1.194804	0.410457
O18	O	0.551520	1.528137	0.743791
O19	O	-0.102443	1.106966	0.077128
O20	O	0.230891	1.440299	0.410461
O21	O	0.564224	1.773632	0.743795
Cu22	Cu	-0.108796	0.984216	0.091208
Cu23	Cu	0.224537	1.317549	0.424541
Cu24	Cu	0.557870	1.650883	0.757874
Cu25	Cu	-0.108775	0.984243	-0.091179
Cu26	Cu	0.224558	1.317576	0.242154
Cu27	Cu	0.557892	1.650909	0.575487
O28	O	-0.224663	0.968975	0.077124
O29	O	0.108670	1.302308	0.410457
O30	O	0.442003	1.635641	0.743791
C31	C	-0.114619	0.830225	0.000012
C32	C	0.218715	1.163559	0.333345
C33	C	0.552048	1.496892	0.666678
C34	C	-0.113062	0.737092	0.000010
C35	C	0.220271	1.070425	0.333343
C36	C	0.553605	1.403758	0.666677
C37	C	-0.185004	0.496014	0.000008
C38	C	0.148329	0.829347	0.333341
C39	C	0.481663	1.162681	0.666675
C40	C	-0.146217	0.448312	0.076053
C41	C	0.187116	0.781645	0.409386
C42	C	0.520449	1.114979	0.742720
C43	C	-0.110177	0.566584	0.000012
C44	C	0.223156	0.899917	0.333345
C45	C	0.556489	1.233251	0.666678
C46	C	-0.146182	0.448340	-0.075999
C47	C	0.187152	0.781674	0.257334
C48	C	0.520485	1.115007	0.590667
C49	C	-0.107397	0.401880	0.000010
C50	C	0.225937	0.735213	0.333343
C51	C	0.559270	1.068546	0.666676
C52	C	-0.071411	0.520109	0.076119
C53	C	0.261922	0.853442	0.409453
C54	C	0.595256	1.186775	0.742786
C55	C	-0.071386	0.520140	-0.076001
C56	C	0.261947	0.853473	0.257332
C57	C	0.595280	1.186806	0.590665
C58	C	-0.032545	0.472475	0.000062
C59	C	0.300788	0.805808	0.333396
C60	C	0.634122	1.139141	0.666729
C61	C	-0.111781	0.661465	0.000014
C62	C	0.221552	0.994799	0.333347
C63	C	0.554885	1.328132	0.666681
C64	C	-0.105787	0.307002	0.000014
C65	C	0.227547	0.640335	0.333347
C66	C	0.560880	0.973668	0.666681
C67	C	-0.254308	0.967349	0.000012
C68	C	0.079025	1.300682	0.333345
C69	C	0.412358	1.634015	0.666679
C70	C	-0.342668	0.962479	0.000010
C71	C	-0.009334	1.295813	0.333344
C72	C	0.323999	1.629146	0.666677
C73	C	-0.374682	1.037411	0.000009
C74	C	-0.041349	1.370744	0.333343
C75	C	0.291984	1.704078	0.666676
C76	C	-0.457706	1.032831	0.000014
C77	C	-0.124373	1.366164	0.333348
C78	C	0.208961	1.699497	0.666681
C79	C	-0.508713	0.953318	0.000014
C80	C	-0.175380	1.286651	0.333347
C81	C	0.157953	1.619985	0.666681
C82	C	-0.476694	0.878381	0.000018
C83	C	-0.143360	1.211714	0.333351
C84	C	0.189973	1.545047	0.666685
C85	C	-0.393671	0.882962	0.000019
C86	C	-0.060338	1.216295	0.333353
C87	C	0.272995	1.549629	0.666686
C88	C	-0.759862	0.935623	0.000015
C89	C	-0.426529	1.268956	0.333349
C90	C	-0.093195	1.602290	0.666682
C91	C	-0.842889	0.931048	0.000011
C92	C	-0.509556	1.264381	0.333344
C93	C	-0.176222	1.597714	0.666678
C94	C	-0.823896	1.085498	0.000009
C95	C	-0.490562	1.418832	0.333343
C96	C	-0.157229	1.752165	0.666676
C97	C	-0.740873	1.090072	0.000005
C98	C	-0.407539	1.423406	0.333339
C99	C	-0.074206	1.756739	0.666672
C100	C	-0.708860	1.015135	0.000014
C101	C	-0.375527	1.348468	0.333347
C102	C	-0.042194	1.681802	0.666681
C103	C	-0.593577	0.948634	0.000016
C104	C	-0.260244	1.281968	0.333350
C105	C	0.073090	1.615301	0.666683
C106	C	-0.623998	1.019820	0.000018
C107	C	-0.290665	1.353153	0.333352
C108	C	0.042669	1.686486	0.666685
C109	C	0.036737	1.001110	0.000014
C110	C	0.370070	1.334443	0.333348
C111	C	0.703403	1.667777	0.666681
C112	C	0.125096	1.005979	0.000010
C113	C	0.458429	1.339313	0.333343
C114	C	0.791763	1.672646	0.666677
C115	C	-0.102953	1.138233	0.000015
C116	C	0.230381	1.471567	0.333348
C117	C	0.563714	1.804900	0.666681
C118	C	-0.104509	1.231367	0.000010
C119	C	0.228824	1.564700	0.333344
C120	C	0.562157	1.898034	0.666677
N121	N	-0.108811	0.984203	0.219489
N122	N	0.224522	1.317536	0.552822
N123	N	0.557856	1.650870	0.886156
N124	N	-0.108754	0.984263	-0.219461
N125	N	0.224579	1.317596	0.113873
N126	N	0.557913	1.650929	0.447206
C127	C	-0.165301	0.920387	0.469141
C128	C	0.168033	1.253721	0.802474
C129	C	0.501366	1.587054	1.135808
C130	C	-0.180738	0.995148	0.530945
C131	C	0.152595	1.328482	0.864278
C132	C	0.485928	1.661815	1.197611
C133	C	-0.108792	0.984225	0.408650
C134	C	0.224541	1.317558	0.741984
C135	C	0.557875	1.650892	1.075317
C136	C	-0.093373	0.909482	0.530941
C137	C	0.239960	1.242816	0.864274
C138	C	0.573294	1.576149	1.197607
C139	C	-0.108776	0.984239	0.591372
C140	C	0.224558	1.317572	0.924705
C141	C	0.557891	1.650906	1.258038
C142	C	-0.124266	1.059022	0.469093
C143	C	0.209068	1.392355	0.802427
C144	C	0.542401	1.725688	1.135760
C145	C	-0.036869	0.973308	0.469084
C146	C	0.296464	1.306641	0.802417
C147	C	0.629798	1.639975	1.135751
C148	C	-0.052276	1.048126	0.530860
C149	C	0.281057	1.381459	0.864193
C150	C	0.614391	1.714793	1.197526
C151	C	-0.108804	0.984215	0.303389
C152	C	0.224530	1.317549	0.636723
C153	C	0.557863	1.650882	0.970056
C154	C	-0.108763	0.984257	0.696631
C155	C	0.224570	1.317591	1.029964
C156	C	0.557903	1.650924	1.363297
H157	H	0.031959	0.461777	0.000107
H158	H	0.365292	0.795110	0.333440
H159	H	0.698625	1.128444	0.666774
H160	H	-0.699347	1.154820	0.000010
H161	H	-0.366014	1.488153	0.333343
H162	H	-0.032680	1.821487	0.666676
H163	H	-0.333157	1.102159	0.000002
H164	H	0.000176	1.435492	0.333335
H165	H	0.333510	1.768826	0.666669
H166	H	-0.518231	0.813640	0.000023
H167	H	-0.184897	1.146973	0.333356
H168	H	0.148436	1.480307	0.666690
H169	H	-0.241555	1.004396	0.558116
H170	H	0.091778	1.337729	0.891450
H171	H	0.425112	1.671062	1.224783
H172	H	-0.733808	0.874604	0.000011
H173	H	-0.400474	1.207937	0.333345
H174	H	-0.067141	1.541271	0.666678
H175	H	-0.039837	0.551262	0.140473
H176	H	0.293496	0.884595	0.473806
H177	H	0.626829	1.217928	0.807140
H178	H	-0.177790	0.417074	-0.140280
H179	H	0.155544	0.750408	0.193053
H180	H	0.488877	1.083741	0.526387
H181	H	-0.213126	0.866451	0.442042
H182	H	0.120207	1.199784	0.775375
H183	H	0.453540	1.533117	1.108708
H184	H	-0.137373	1.122245	0.442041
H185	H	0.195960	1.455578	0.775374
H186	H	0.529294	1.788911	1.108707
H187	H	-0.849970	1.146508	-0.000005
H188	H	-0.516636	1.479841	0.333328
H189	H	-0.183303	1.813175	0.666661
H190	H	-0.039802	0.551429	-0.140293
H191	H	0.293531	0.884763	0.193041
H192	H	0.626864	1.218096	0.526374
H193	H	0.023928	0.964035	0.441891
H194	H	0.357261	1.297369	0.775224
H195	H	0.690595	1.630702	1.108557
H196	H	-0.004479	1.102173	0.557789
H197	H	0.328855	1.435506	0.891122
H198	H	0.662188	1.768839	1.224456
H199	H	-0.249459	0.506873	0.000078
H200	H	0.083874	0.840206	0.333412
H201	H	0.417208	1.173540	0.666745
H202	H	-0.080339	0.846268	0.558110
H203	H	0.252994	1.179601	0.891443
H204	H	0.586328	1.512935	1.224776
H205	H	-0.367607	0.821944	0.000028
H206	H	-0.034274	1.155278	0.333361
H207	H	0.299060	1.488611	0.666695
H208	H	-0.635117	0.883895	0.000012
H209	H	-0.301783	1.217228	0.333346
H210	H	0.031550	1.550562	0.666679
H211	H	-0.177825	0.417029	0.140341
H212	H	0.155508	0.750362	0.473674
H213	H	0.488841	1.083696	0.807008
H214	H	-0.483768	1.093848	0.000014
H215	H	-0.150434	1.427181	0.333348
H216	H	0.182899	1.760515	0.666681
H217	H	-0.884419	0.866296	0.000013
H218	H	-0.551085	1.199629	0.333347
H219	H	-0.217752	1.532962	0.666680
H220	H	-0.582464	1.084558	0.000023
H221	H	-0.249131	1.417892	0.333357
H222	H	0.084202	1.751225	0.666690
