data_functionalizedCrystal
_audit_creation_method	'MofGen! by Chris Wilmer'
_symmetry_space_group_name_H-M	'P1'
_symmetry_Int_Tables_number	1
_symmetry_cell_setting	triclinic
loop_
_symmetry_equiv_pos_as_xyz
  x,y,z
_cell_length_a	19.188930
_cell_length_b	19.188930
_cell_length_c	8.140239
_cell_angle_alpha	89.991748
_cell_angle_beta	89.984657
_cell_angle_gamma	83.144779
loop_
_atom_site_label
_atom_site_type_symbol
_atom_site_fract_x
_atom_site_fract_y
_atom_site_fract_z
O1	O	-0.926142	-0.087166	0.137160
O2	O	-0.426142	0.412834	0.637160
O3	O	-0.722831	-0.098901	0.137050
O4	O	-0.222831	0.401099	0.637050
O5	O	-0.830353	0.008622	0.137076
O6	O	-0.330353	0.508622	0.637076
O7	O	-0.818619	-0.194689	0.137134
O8	O	-0.318619	0.305311	0.637134
O9	O	-0.830350	0.008623	-0.136151
O10	O	-0.330350	0.508623	0.363849
O11	O	-0.722827	-0.098900	-0.136177
O12	O	-0.222827	0.401100	0.363823
O13	O	-0.926138	-0.087166	-0.136067
O14	O	-0.426138	0.412834	0.363933
Zn15	Zn	-0.824482	-0.093033	-0.179503
Zn16	Zn	-0.324482	0.406967	0.320497
Zn17	Zn	-0.824487	-0.093034	0.180485
Zn18	Zn	-0.324487	0.406966	0.680485
O19	O	-0.818616	-0.194688	-0.136093
O20	O	-0.318616	0.305312	0.363907
C21	C	-0.696818	-0.098520	0.000422
C22	C	-0.196818	0.401480	0.500422
C23	C	-0.619313	-0.097380	0.000378
C24	C	-0.119313	0.402620	0.500378
C25	C	-0.829972	0.034634	0.000457
C26	C	-0.329972	0.534634	0.500457
C27	C	-0.828831	0.112138	0.000443
C28	C	-0.328831	0.612138	0.500443
C29	C	-0.952151	-0.087546	0.000565
C30	C	-0.452151	0.412454	0.500565
C31	C	-1.029656	-0.088687	0.000619
C32	C	-0.529656	0.411313	0.500619
C33	C	-0.574389	-0.160470	0.000422
C34	C	-0.074389	0.339530	0.500422
C35	C	-0.501566	-0.159399	0.000440
C36	C	-0.001566	0.340601	0.500440
C37	C	-0.473669	-0.095233	0.000447
C38	C	0.026331	0.404767	0.500447
C39	C	-0.518603	-0.032133	0.000394
C40	C	-0.018603	0.467867	0.500394
C41	C	-0.591425	-0.033207	0.000359
C42	C	-0.091425	0.466793	0.500359
N43	N	-0.365690	-0.046186	0.093490
N44	N	0.134310	0.453814	0.593490
N45	N	-0.296511	-0.045170	0.093526
N46	N	0.203489	0.454830	0.593526
C47	C	-0.254260	-0.091994	0.000546
C48	C	0.245740	0.408006	0.500546
N49	N	-0.283800	-0.139883	-0.092450
N50	N	0.216200	0.360117	0.407550
N51	N	-0.352985	-0.140900	-0.092479
N52	N	0.147015	0.359100	0.407521
C53	C	-0.394707	-0.094062	0.000483
C54	C	0.105293	0.405938	0.500483
C55	C	-0.130372	-0.153928	0.000607
C56	C	0.369628	0.346072	0.500607
C57	C	-0.057547	-0.152853	0.000614
C58	C	0.442453	0.347147	0.500614
C59	C	-0.074586	-0.025586	0.000585
C60	C	0.425414	0.474414	0.500585
C61	C	-0.147409	-0.026662	0.000561
C62	C	0.352591	0.473338	0.500561
C63	C	-0.175298	-0.090835	0.000580
C64	C	0.324702	0.409165	0.500580
C65	C	-0.818997	-0.220700	0.000529
C66	C	-0.318997	0.279300	0.500529
C67	C	-0.820138	-0.298204	0.000554
C68	C	-0.320138	0.201796	0.500554
N69	N	-0.824484	-0.093032	-0.425186
N70	N	-0.324484	0.406968	0.074814
C71	C	-0.891922	0.157062	0.000469
C72	C	-0.391922	0.657062	0.500469
C73	C	-0.890850	0.229886	0.000495
C74	C	-0.390850	0.729886	0.500495
C75	C	-0.826684	0.257782	0.000461
C76	C	-0.326684	0.757782	0.500461
C77	C	-0.763585	0.212849	0.000444
C78	C	-0.263585	0.712849	0.500444
C79	C	-0.764658	0.140026	0.000435
C80	C	-0.264658	0.640026	0.500435
N81	N	-0.777636	0.365788	-0.092550
N82	N	-0.277636	0.865788	0.407450
N83	N	-0.776620	0.434966	-0.092545
N84	N	-0.276620	0.934966	0.407455
C85	C	-0.823446	0.477191	0.000493
C86	C	-0.323446	0.977191	0.500493
N87	N	-0.871336	0.447625	0.093504
N88	N	-0.371336	0.947625	0.593504
N89	N	-0.872354	0.378441	0.093491
N90	N	-0.372354	0.878441	0.593491
C91	C	-0.825513	0.336745	0.000472
C92	C	-0.325513	0.836745	0.500472
C93	C	-0.885379	0.601079	0.000549
C94	C	-0.385379	1.101079	0.500549
C95	C	-0.884305	0.673904	0.000585
C96	C	-0.384305	1.173904	0.500585
C97	C	-0.757038	0.656865	0.000518
C98	C	-0.257038	1.156865	0.500518
C99	C	-0.758114	0.584042	0.000499
C100	C	-0.258114	1.084042	0.500499
C101	C	-0.822286	0.556154	0.000506
C102	C	-0.322286	1.056154	0.500506
N103	N	-0.824490	-0.093029	0.426168
N104	N	-0.324490	0.406971	0.926168
H105	H	-0.597091	-0.212725	0.000440
H106	H	-0.097091	0.287275	0.500440
H107	H	-0.942228	0.266470	0.000523
H108	H	-0.442228	0.766470	0.500523
Br109	Br	0.003424	-0.238485	0.000659
Br110	Br	0.503424	0.261515	0.500659
H111	H	-0.153080	-0.206181	0.000598
H112	H	0.346920	0.293819	0.500598
Br113	Br	-0.679028	0.079054	0.000404
Br114	Br	-0.179028	0.579054	0.500404
Br115	Br	-0.480745	0.054950	0.000386
Br116	Br	0.019255	0.554950	0.500386
Br117	Br	-0.972468	0.563226	0.000543
Br118	Br	-0.472468	1.063226	0.500543
Br119	Br	-0.440585	-0.245028	0.000489
Br120	Br	0.059415	0.254972	0.500489
H121	H	-0.935683	0.710481	0.000616
H122	H	-0.435683	1.210481	0.500616
Br123	Br	-0.676502	0.250706	0.000419
Br124	Br	-0.176502	0.750706	0.500419
H125	H	-0.628003	0.018171	0.000325
H126	H	-0.128003	0.518171	0.500325
H127	H	-0.051874	0.026659	0.000693
H128	H	0.448126	0.526659	0.500693
Br129	Br	-0.208382	0.058966	0.000506
Br130	Br	0.291618	0.558966	0.500506
Br131	Br	-0.669953	0.694717	0.000489
Br132	Br	-0.169953	1.194717	0.500489
Br133	Br	-0.979013	0.119216	0.000525
Br134	Br	-0.479013	0.619216	0.500525
H135	H	-0.706738	0.547464	0.000468
H136	H	-0.206738	1.047464	0.500468
