data_functionalizedCrystal
_audit_creation_method	'MofGen! by Chris Wilmer'
_symmetry_space_group_name_H-M	'P1'
_symmetry_Int_Tables_number	1
_symmetry_cell_setting	triclinic
loop_
_symmetry_equiv_pos_as_xyz
  x,y,z
_cell_length_a	12.759401
_cell_length_b	18.050590
_cell_length_c	12.759393
_cell_angle_alpha	89.964247
_cell_angle_beta	89.981433
_cell_angle_gamma	90.017597
loop_
_atom_site_label
_atom_site_type_symbol
_atom_site_fract_x
_atom_site_fract_y
_atom_site_fract_z
Zn1	Zn	1.606227	-0.295635	-0.593953
Zn2	Zn	1.606110	-0.419845	-0.418260
Zn3	Zn	1.430529	-0.295671	-0.418292
Zn4	Zn	1.430506	-0.419785	-0.593901
O5	O	1.518343	-0.357734	-0.506101
O6	O	1.753233	-0.312121	-0.570655
O7	O	1.582779	-0.403413	-0.271243
O8	O	1.453895	-0.191742	-0.441629
O9	O	1.753146	-0.403378	-0.441574
O10	O	1.582979	-0.191715	-0.570686
O11	O	1.453781	-0.312183	-0.271267
O12	O	1.283505	-0.312125	-0.441579
O13	O	1.453855	-0.403276	-0.740929
O14	O	1.283488	-0.403312	-0.570598
O15	O	1.582957	-0.312063	-0.740967
O16	O	1.582757	-0.523761	-0.441524
O17	O	1.453741	-0.523718	-0.570567
C18	C	1.245376	-0.357716	-0.506087
C19	C	1.128599	-0.357727	-0.506106
C20	C	1.073775	-0.310299	-0.573422
C21	C	0.964051	-0.310313	-0.573429
C22	C	0.963985	-0.405189	-0.438799
C23	C	1.073707	-0.405171	-0.438788
C24	C	1.073812	-0.255525	-0.651152
C25	C	0.964088	-0.255540	-0.651159
C26	C	1.518262	-0.550686	-0.506060
C27	C	1.518324	-0.633232	-0.506077
C28	C	1.588628	-0.832679	-0.436001
C29	C	1.614296	-0.882003	-0.531888
C30	C	1.518384	-0.784362	-0.506119
C31	C	1.492823	-0.882120	-0.410275
C32	C	1.518443	-0.930347	-0.506151
C33	C	1.544100	-0.832599	-0.602056
C34	C	1.422583	-0.832711	-0.480379
C35	C	1.448214	-0.882013	-0.576331
C36	C	1.518352	-0.700264	-0.506099
C37	C	1.518475	-1.014444	-0.506181
C38	C	1.792376	-0.357752	-0.506117
C39	C	1.909153	-0.357760	-0.506123
C40	C	1.518417	-0.357659	-0.780135
C41	C	1.518448	-0.357627	-0.896912
C42	C	1.518453	-0.164028	-0.506167
C43	C	1.518500	-0.081482	-0.506194
C44	C	1.585680	-0.310128	-0.951795
C45	C	1.585705	-0.310101	-1.061519
C46	C	1.451263	-0.405079	-1.061467
C47	C	1.451233	-0.405101	-0.951745
C48	C	1.663303	-0.255295	-0.951826
C49	C	1.663328	-0.255269	-1.061550
C50	C	1.518330	-0.357755	-0.233134
C51	C	1.518502	-0.357578	-0.116358
H52	H	0.934342	-0.271017	-0.732493
H53	H	1.396482	-0.443777	-0.907063
Cl54	Cl	1.142625	-0.464775	-0.354128
H55	H	0.919278	-0.443817	-0.383992
H56	H	1.103585	-0.197984	-0.629505
H57	H	1.396536	-0.443729	-1.106125
Cl58	Cl	1.629702	-0.166502	-0.905886
Cl59	Cl	1.782601	-0.287126	-0.899265
H60	H	1.107876	-0.276189	-0.728388
Cl61	Cl	0.911530	-0.171153	-0.606392
Cl62	Cl	1.577678	-0.799164	-0.727250
Cl63	Cl	1.618237	-0.170941	-1.114136
H64	H	1.744697	-0.270674	-1.091327
H65	H	1.648052	-0.811017	-0.376766
Cl66	Cl	1.297490	-0.799256	-0.446694
Cl67	Cl	1.739421	-0.915419	-0.565552
H68	H	1.388836	-0.903538	-0.635709
Cl69	Cl	1.459406	-0.915703	-0.285117
