data_functionalizedCrystal
_audit_creation_method	'MofGen! by Chris Wilmer'
_symmetry_space_group_name_H-M	'P1'
_symmetry_Int_Tables_number	1
_symmetry_cell_setting	triclinic
loop_
_symmetry_equiv_pos_as_xyz
  x,y,z
_cell_length_a	12.827893
_cell_length_b	25.639239
_cell_length_c	12.827885
_cell_angle_alpha	89.964018
_cell_angle_beta	89.980538
_cell_angle_gamma	90.038657
loop_
_atom_site_label
_atom_site_type_symbol
_atom_site_fract_x
_atom_site_fract_y
_atom_site_fract_z
Zn1	Zn	1.597502	-0.208126	-0.590804
Zn2	Zn	1.597325	-0.295571	-0.416045
Zn3	Zn	1.422743	-0.208151	-0.416077
Zn4	Zn	1.422658	-0.295532	-0.590745
O5	O	1.510057	-0.251845	-0.503418
O6	O	1.743715	-0.219731	-0.567633
O7	O	1.574128	-0.284002	-0.269813
O8	O	1.446035	-0.134983	-0.439293
O9	O	1.743584	-0.283977	-0.439238
O10	O	1.574430	-0.134964	-0.567664
O11	O	1.445863	-0.219775	-0.269837
O12	O	1.276496	-0.219737	-0.439236
O13	O	1.445890	-0.283911	-0.736989
O14	O	1.276433	-0.283935	-0.567564
O15	O	1.574348	-0.219694	-0.737032
O16	O	1.574045	-0.368731	-0.439181
O17	O	1.445718	-0.368702	-0.567533
C18	C	1.238547	-0.251835	-0.503398
C19	C	1.122394	-0.251843	-0.503414
C20	C	1.070606	-0.283660	-0.566817
C21	C	0.950556	-0.283670	-0.566835
C22	C	1.509881	-0.387688	-0.503370
C23	C	1.509902	-0.445802	-0.503384
C24	C	1.577051	-0.806167	-0.436699
C25	C	1.577092	-0.860771	-0.436713
O26	O	1.634003	-0.889010	-0.379962
N27	N	1.510241	-0.888084	-0.503487
C28	C	1.443352	-0.860790	-0.570259
O29	O	1.386495	-0.889035	-0.627057
C30	C	1.443318	-0.806186	-0.570249
C31	C	1.510166	-0.778876	-0.503463
C32	C	1.643895	-0.778857	-0.369920
C33	C	1.643853	-0.724256	-0.369904
C34	C	1.576967	-0.696966	-0.436669
C35	C	1.510124	-0.724276	-0.503448
C36	C	1.376436	-0.778893	-0.637026
C37	C	1.376407	-0.724286	-0.637011
C38	C	1.443255	-0.696976	-0.570225
C39	C	1.443196	-0.642385	-0.570198
N40	N	1.510047	-0.615072	-0.503424
C41	C	1.576933	-0.642363	-0.436659
C42	C	1.443431	-0.975460	-0.570275
C43	C	1.443460	-1.030063	-0.570280
C44	C	1.577201	-1.030040	-0.436735
C45	C	1.577166	-0.975437	-0.436726
C46	C	1.510282	-0.948148	-0.503501
C47	C	1.576838	-0.527698	-0.436632
C48	C	1.576787	-0.473092	-0.436620
C49	C	1.443051	-0.473119	-0.570168
C50	C	1.443097	-0.527720	-0.570177
C51	C	1.510000	-0.555008	-0.503405
O52	O	1.386317	-0.614112	-0.626923
O53	O	1.633790	-0.614110	-0.379880
C54	C	1.782627	-0.251856	-0.503438
C55	C	1.898780	-0.251860	-0.503447
C56	C	1.510129	-0.251795	-0.775988
C57	C	1.510160	-0.251773	-0.892141
C58	C	1.510262	-0.115472	-0.503489
C59	C	1.510349	-0.057358	-0.503519
C60	C	1.446711	-0.219986	-0.943938
C61	C	1.446741	-0.219963	-1.063988
C62	C	1.510046	-0.251857	-0.231908
C63	C	1.510217	-0.251731	-0.115755
H64	H	1.631223	-0.450858	-0.382231
C65	C	1.130766	-0.320452	-0.640133
C66	C	1.115796	-0.379893	-0.631406
C67	C	1.175954	-0.416686	-0.704724
C68	C	1.251081	-0.394039	-0.786769
C69	C	1.266054	-0.334595	-0.795499
C70	C	1.205896	-0.297802	-0.722181
H71	H	1.060180	-0.396660	-0.570668
H72	H	1.164870	-0.460690	-0.698260
H73	H	1.295613	-0.421276	-0.841043
H74	H	1.321670	-0.317828	-0.856237
H75	H	1.216980	-0.253798	-0.728645
C76	C	1.650707	-0.945399	-0.363269
C77	C	1.605456	-0.907912	-0.281172
C78	C	1.679002	-0.877877	-0.207714
C79	C	1.797799	-0.885328	-0.216352
C80	C	1.843055	-0.922816	-0.298452
C81	C	1.769509	-0.952852	-0.371910
H82	H	1.517510	-0.902395	-0.274775
H83	H	1.645499	-0.850125	-0.146939
H84	H	1.852242	-0.863094	-0.161974
H85	H	1.931001	-0.928333	-0.304849
H86	H	1.803012	-0.980603	-0.432686
H87	H	1.564545	-0.278945	-1.071218
H88	H	0.906019	-0.310911	-0.621113
H89	H	1.564502	-0.278972	-0.936673
C90	C	0.958930	-0.215057	-0.430108
C91	C	1.034057	-0.174063	-0.475595
C92	C	1.094215	-0.137260	-0.402256
C93	C	1.079246	-0.141451	-0.283431
C94	C	1.004116	-0.182446	-0.237939
C95	C	0.943958	-0.219249	-0.311277
H96	H	1.045140	-0.170960	-0.563562
H97	H	1.149831	-0.106913	-0.435933
H98	H	1.123779	-0.114207	-0.229141
H99	H	0.993032	-0.185550	-0.149972
H100	H	0.888341	-0.249597	-0.277600
H101	H	1.389015	-1.052294	-0.624654
C102	C	1.650423	-0.557709	-0.363178
C103	C	1.641941	-0.550244	-0.244373
C104	C	1.715518	-0.580256	-0.170913
C105	C	1.797578	-0.617733	-0.216258
C106	C	1.806064	-0.625200	-0.335070
C107	C	1.732487	-0.595188	-0.408529
H108	H	1.581192	-0.522500	-0.210800
H109	H	1.709236	-0.574728	-0.082961
H110	H	1.852045	-0.639949	-0.161879
H111	H	1.866813	-0.652944	-0.368643
H112	H	1.738769	-0.600716	-0.496482
H113	H	1.077855	-0.224608	-0.449151
C114	C	1.650784	-1.060067	-0.363298
C115	C	1.650822	-1.120128	-0.363323
C116	C	1.724400	-1.150156	-0.289890
C117	C	1.797940	-1.120122	-0.216432
C118	C	1.797905	-1.060057	-0.216404
C119	C	1.724327	-1.030030	-0.289837
H120	H	1.596381	-1.142364	-0.417704
H121	H	1.724426	-1.194620	-0.289911
H122	H	1.852407	-1.142351	-0.162073
H123	H	1.852347	-1.037822	-0.162024
H124	H	1.724302	-0.985566	-0.289816
C125	C	1.373290	-0.183242	-0.883787
C126	C	1.418681	-0.142245	-0.808747
C127	C	1.345258	-0.105500	-0.748599
C128	C	1.226443	-0.109754	-0.763491
C129	C	1.181046	-0.150753	-0.838534
C130	C	1.254470	-0.187498	-0.898682
H131	H	1.506641	-0.139094	-0.797721
H132	H	1.378865	-0.075150	-0.693047
H133	H	1.172091	-0.082554	-0.718966
H134	H	1.093087	-0.153904	-0.849561
H135	H	1.220863	-0.217848	-0.954235
C136	C	1.369840	-0.945445	-0.643722
C137	C	1.251054	-0.953021	-0.635080
C138	C	1.177465	-0.923009	-0.708528
C139	C	1.222662	-0.885420	-0.790617
C140	C	1.341455	-0.877842	-0.799262
C141	C	1.415044	-0.907854	-0.725814
H142	H	1.217590	-0.980848	-0.574310
H143	H	1.089526	-0.928619	-0.702127
H144	H	1.168187	-0.863203	-0.844987
H145	H	1.374918	-0.850015	-0.860032
H146	H	1.502982	-0.902244	-0.732215
C147	C	1.369563	-0.557767	-0.643633
C148	C	1.250762	-0.550330	-0.635002
C149	C	1.177235	-0.580374	-0.708467
C150	C	1.222510	-0.617853	-0.790562
C151	C	1.341317	-0.625292	-0.799196
C152	C	1.414843	-0.595248	-0.725731
H153	H	1.217241	-0.522584	-0.574227
H154	H	1.089286	-0.574867	-0.702075
H155	H	1.168081	-0.640093	-0.844945
H156	H	1.374837	-0.653038	-0.859971
H157	H	1.502792	-0.600755	-0.732123
H158	H	1.698289	-0.702024	-0.315525
C159	C	1.373352	-0.183195	-1.124154
C160	C	1.254530	-0.187453	-1.109236
C161	C	1.181138	-0.150684	-1.169404
C162	C	1.226568	-0.109657	-1.244490
C163	C	1.345396	-0.105397	-1.259412
C164	C	1.418788	-0.142166	-1.199244
H165	H	1.220894	-0.217825	-1.053650
H166	H	1.093173	-0.153837	-1.158358
H167	H	1.172239	-0.082438	-1.289031
H168	H	1.379032	-0.075025	-1.314998
H169	H	1.506753	-0.139013	-1.210290
H170	H	1.698367	-0.801071	-0.315552
H171	H	1.321996	-0.801120	-0.691405
H172	H	1.321943	-0.702069	-0.691391
H173	H	1.388590	-0.450891	-0.624524
