data_functionalizedCrystal
_audit_creation_method	'MofGen! by Chris Wilmer'
_symmetry_space_group_name_H-M	'P1'
_symmetry_Int_Tables_number	1
_symmetry_cell_setting	triclinic
loop_
_symmetry_equiv_pos_as_xyz
  x,y,z
_cell_length_a	18.050591
_cell_length_b	18.050589
_cell_length_c	18.050582
_cell_angle_alpha	89.981795
_cell_angle_beta	89.979078
_cell_angle_gamma	90.024227
loop_
_atom_site_label
_atom_site_type_symbol
_atom_site_fract_x
_atom_site_fract_y
_atom_site_fract_z
Zn1	Zn	1.135293	-0.295786	-0.420054
Zn2	Zn	1.635293	0.204214	0.079946
Zn3	Zn	1.135203	-0.419969	-0.295873
Zn4	Zn	1.635203	0.080031	0.204127
Zn5	Zn	1.011112	-0.295789	-0.295865
Zn6	Zn	1.511112	0.204211	0.204135
Zn7	Zn	1.011060	-0.419930	-0.420009
Zn8	Zn	1.511060	0.080070	0.079991
O9	O	1.073167	-0.357868	-0.357950
O10	O	1.573167	0.142132	0.142050
O11	O	1.239205	-0.312274	-0.403603
O12	O	1.739205	0.187726	0.096397
O13	O	1.118727	-0.403514	-0.191948
O14	O	1.618727	0.096486	0.308052
O15	O	1.027644	-0.191864	-0.312354
O16	O	1.527644	0.308136	0.187646
O17	O	1.239140	-0.403511	-0.312369
O18	O	1.739140	0.096489	0.187631
O19	O	1.118879	-0.191862	-0.403595
O20	O	1.618879	0.308138	0.096405
O21	O	1.027557	-0.312279	-0.191942
O22	O	1.527557	0.187721	0.308058
O23	O	0.907180	-0.312241	-0.312311
O24	O	1.407180	0.187759	0.187689
O25	O	1.027555	-0.403444	-0.523940
O26	O	1.527555	0.096556	-0.023940
O27	O	0.907142	-0.403447	-0.403519
O28	O	1.407142	0.096553	0.096481
O29	O	1.118828	-0.312236	-0.523973
O30	O	1.618828	0.187764	-0.023973
O31	O	1.118676	-0.523888	-0.312325
O32	O	1.618676	-0.023888	0.187675
O33	O	1.027468	-0.523860	-0.403527
O34	O	1.527468	-0.023860	0.096473
C35	C	0.880215	-0.357841	-0.357909
C36	C	1.380215	0.142159	0.142091
C37	C	0.797669	-0.357847	-0.357909
C38	C	1.297669	0.142153	0.142091
C39	C	0.598217	-0.308191	-0.308425
C40	C	1.098217	0.191809	0.191575
C41	C	0.548798	-0.375927	-0.290154
C42	C	1.048798	0.124073	0.209846
C43	C	0.646539	-0.357869	-0.357943
C44	C	1.146539	0.142131	0.142057
C45	C	0.548877	-0.290157	-0.376212
C46	C	1.048877	0.209843	0.123788
C47	C	0.500553	-0.357885	-0.357974
C48	C	1.000553	0.142115	0.142026
C49	C	0.598206	-0.425641	-0.339637
C50	C	1.098206	0.074359	0.160363
C51	C	0.598289	-0.339825	-0.425726
C52	C	1.098289	0.160175	0.074274
C53	C	0.548892	-0.407607	-0.407481
C54	C	1.048892	0.092393	0.092519
C55	C	0.730637	-0.357859	-0.357923
C56	C	1.230637	0.142141	0.142077
C57	C	0.416457	-0.357903	-0.357994
C58	C	0.916457	0.142097	0.142006
C59	C	1.073077	-0.550820	-0.357938
C60	C	1.573077	-0.050820	0.142062
C61	C	1.073107	-0.633366	-0.357958
C62	C	1.573107	-0.133366	0.142042
C63	C	1.023557	-0.832828	-0.407536
C64	C	1.523557	-0.332828	0.092464
C65	C	1.005459	-0.882261	-0.339767
C66	C	1.505459	-0.382261	0.160233
C67	C	1.073180	-0.784497	-0.357967
C68	C	1.573180	-0.284497	0.142033
C69	C	1.091314	-0.882146	-0.425744
C70	C	1.591314	-0.382146	0.074256
C71	C	1.073249	-0.930482	-0.357983
C72	C	1.573249	-0.430482	0.142017
C73	C	1.055046	-0.832842	-0.290162
C74	C	1.555046	-0.332842	0.209838
C75	C	1.140933	-0.832722	-0.376186
C76	C	1.640933	-0.332722	0.123814
C77	C	1.122861	-0.882133	-0.308370
C78	C	1.622861	-0.382133	0.191630
C79	C	1.073138	-0.700398	-0.357959
C80	C	1.573138	-0.200398	0.142041
C81	C	1.073291	-1.014578	-0.357983
C82	C	1.573291	-0.514578	0.142017
C83	C	1.266872	-0.357897	-0.357992
C84	C	1.766872	0.142103	0.142008
C85	C	1.349418	-0.357909	-0.358010
C86	C	1.849418	0.142091	0.141990
C87	C	1.073196	-0.357835	-0.551656
C88	C	1.573196	0.142165	-0.051656
C89	C	1.073208	-0.357821	-0.634202
C90	C	1.573208	0.142179	-0.134202
C91	C	1.073277	-0.164163	-0.357979
C92	C	1.573277	0.335837	0.142021
C93	C	1.073324	-0.081617	-0.357991
C94	C	1.573324	0.418383	0.142009
C95	C	1.023612	-0.407353	-0.833635
C96	C	1.523612	0.092647	-0.333635
C97	C	1.091367	-0.425511	-0.883034
C98	C	1.591367	0.074489	-0.383034
C99	C	1.073245	-0.357765	-0.785332
C100	C	1.573245	0.142235	-0.285332
C101	C	1.005527	-0.339586	-0.883014
C102	C	1.505527	0.160414	-0.383014
C103	C	1.073274	-0.357711	-0.931317
C104	C	1.573274	0.142289	-0.431317
C105	C	1.141036	-0.375958	-0.833645
C106	C	1.641036	0.124042	-0.333645
C107	C	1.055150	-0.290002	-0.833620
C108	C	1.555150	0.209998	-0.333620
C109	C	1.122952	-0.308134	-0.882998
C110	C	1.622952	0.191866	-0.382998
C111	C	1.073227	-0.357797	-0.701234
C112	C	1.573227	0.142203	-0.201234
C113	C	1.073300	-0.357679	-1.015414
C114	C	1.573300	0.142321	-0.515414
C115	C	1.073181	-0.357848	-0.164998
C116	C	1.573181	0.142152	0.335002
C117	C	1.073312	-0.357652	-0.082453
C118	C	1.573312	0.142348	0.417547
H119	H	0.527169	-0.232894	-0.391625
H120	H	1.027169	0.267106	0.108375
H121	H	1.039807	-0.232736	-0.811899
H122	H	1.539807	0.267264	-0.311899
H123	H	0.981678	-0.449342	-0.811961
H124	H	1.481678	0.050658	-0.311961
C125	C	1.111999	-0.911403	-0.503170
C126	C	1.611999	-0.411403	-0.003170
N127	N	1.127574	-0.933436	-0.561489
N128	N	1.627574	-0.433436	-0.061489
H129	H	0.620045	-0.324530	-0.483019
H130	H	1.120045	0.175470	0.016981
H131	H	0.981531	-0.811178	-0.449395
H132	H	1.481531	-0.311178	0.050605
C133	C	0.928093	-0.911658	-0.318952
C134	C	1.428093	-0.411658	0.181048
N135	N	0.869820	-0.933797	-0.303280
N136	N	1.369820	-0.433797	0.196720
C137	C	1.179591	-0.911202	-0.251684
C138	C	1.679591	-0.411202	0.248316
N139	N	1.222316	-0.933099	-0.208986
N140	N	1.722316	-0.433099	0.291014
C141	C	0.627482	-0.251500	-0.251792
C142	C	1.127482	0.248500	0.248208
N143	N	0.649526	-0.208804	-0.209135
N144	N	1.149526	0.291196	0.290865
H145	H	1.198333	-0.391377	-0.812050
H146	H	1.698333	0.108623	-0.312050
C147	C	0.928143	-0.318840	-0.912308
C148	C	1.428143	0.181160	-0.412308
N149	N	0.869856	-0.303220	-0.934369
N150	N	1.369856	0.196780	-0.434369
C151	C	1.034269	-0.803708	-0.212715
C152	C	1.534269	-0.303708	0.287285
N153	N	1.018616	-0.781762	-0.154384
N154	N	1.518616	-0.281762	0.345616
H155	H	0.527060	-0.391202	-0.232844
H156	H	1.027060	0.108798	0.267156
C157	C	1.112066	-0.502896	-0.912361
C158	C	1.612066	-0.002896	-0.412361
N159	N	1.127651	-0.561184	-0.934448
N160	N	1.627651	-0.061184	-0.434448
C161	C	0.627355	-0.503031	-0.318684
C162	C	1.127355	-0.003031	0.181316
N163	N	0.649312	-0.561320	-0.302899
N164	N	1.149312	-0.061320	0.197101
C165	C	0.519809	-0.464436	-0.464068
C166	C	1.019809	0.035564	0.035932
N167	N	0.497900	-0.507242	-0.506685
N168	N	0.997900	-0.007242	-0.006685
C169	C	1.218271	-0.803291	-0.397035
C170	C	1.718271	-0.303291	0.102965
N171	N	1.276520	-0.781117	-0.412748
N172	N	1.776520	-0.281117	0.087252
C173	C	1.179736	-0.251451	-0.912097
C174	C	1.679736	0.248549	-0.412097
N175	N	1.222508	-0.208760	-0.934015
N176	N	1.722508	0.291240	-0.434015
