data_functionalizedCrystal
_audit_creation_method	'MofGen! by Chris Wilmer'
_symmetry_space_group_name_H-M	'P1'
_symmetry_Int_Tables_number	1
_symmetry_cell_setting	triclinic
loop_
_symmetry_equiv_pos_as_xyz
  x,y,z
_cell_length_a	11.026607
_cell_length_b	10.654550
_cell_length_c	9.730223
_cell_angle_alpha	90.000043
_cell_angle_beta	89.997552
_cell_angle_gamma	83.464526
loop_
_atom_site_label
_atom_site_type_symbol
_atom_site_fract_x
_atom_site_fract_y
_atom_site_fract_z
O1	O	0.170767	-1.704907	-0.114181
O2	O	0.187037	-1.342961	-0.114206
O3	O	0.001997	-1.493936	-0.114190
O4	O	0.355808	-1.553932	-0.114196
O5	O	0.001991	-1.493923	0.114390
O6	O	0.187032	-1.342947	0.114374
O7	O	0.170762	-1.704894	0.114399
Zn8	Zn	0.178896	-1.523918	0.150679
Zn9	Zn	0.178903	-1.523936	-0.150485
O10	O	0.355803	-1.553918	0.114384
C11	C	0.185840	-1.295897	0.000081
C12	C	0.182266	-1.155678	0.000072
C13	C	-0.043310	-1.482861	0.000097
C14	C	-0.178302	-1.449867	0.000090
C15	C	0.171959	-1.751958	0.000109
C16	C	0.175533	-1.892177	0.000110
C17	C	-0.251341	-1.540970	0.000094
C18	C	-0.390862	-1.506871	0.000087
C19	C	0.401109	-1.564993	0.000093
C20	C	0.536101	-1.597988	0.000091
N21	N	0.178891	-1.523915	0.356215
C22	C	0.291214	-1.099841	0.000074
C23	C	0.287849	-0.968090	0.000098
C24	C	0.066576	-0.948022	0.000112
C25	C	0.069943	-1.079771	0.000098
N26	N	0.178899	-1.523947	-0.356022
C27	C	0.096990	-1.590804	0.428148
C28	C	0.096990	-1.590817	0.572031
C29	C	0.260803	-1.457050	0.572036
C30	C	0.260796	-1.457031	0.428155
H31	H	-0.431617	-1.403623	0.000071
C32	C	-0.123059	-0.890349	-0.117380
C33	C	-0.056886	-0.864582	0.000123
H34	H	-0.199284	-0.838843	-0.117370
H35	H	-0.078152	-0.872870	-0.197075
H36	H	-0.136638	-0.976809	-0.117370
H37	H	-0.043300	-0.778124	0.000107
H38	H	-0.101803	-0.882052	0.079838
H39	H	0.382675	-1.161641	0.000063
C40	C	-0.054636	-1.216294	-0.117416
C41	C	-0.049821	-1.141158	0.000092
H42	H	-0.128567	-1.254197	-0.117408
H43	H	-0.051360	-1.165306	-0.197107
H44	H	0.012747	-1.280349	-0.117409
H45	H	-0.117199	-1.077097	0.000081
H46	H	-0.053109	-1.192149	0.079804
C47	C	-0.064941	-1.723013	0.442600
C48	C	0.006950	-1.664307	0.349070
H49	H	-0.120536	-1.768383	0.393780
H50	H	-0.013922	-1.779721	0.498701
H51	H	-0.109138	-1.660743	0.498736
H52	H	0.051153	-1.726579	0.292940
H53	H	-0.044076	-1.607595	0.292946
H54	H	0.376566	-0.922635	0.000102
C55	C	-0.068235	-1.580755	0.733835
C56	C	0.006963	-1.664345	0.651098
H57	H	-0.123822	-1.626151	0.782639
H58	H	-0.019457	-1.540943	0.797270
H59	H	-0.112439	-1.518494	0.677700
H60	H	0.051174	-1.726601	0.707234
H61	H	-0.041821	-1.704178	0.587655
C62	C	0.285653	-1.291794	0.733880
C63	C	0.350837	-1.383546	0.651124
H64	H	0.341241	-1.246424	0.782710
H65	H	0.234646	-1.235089	0.677765
H66	H	0.236880	-1.331652	0.797305
H67	H	0.399603	-1.343688	0.587691
H68	H	0.401865	-1.440260	0.707244
C69	C	-0.290543	-1.758066	0.000089
C70	C	-0.196331	-1.680348	0.000093
H71	H	-0.256582	-1.844114	0.000076
H72	H	-0.339463	-1.741410	0.079797
H73	H	-0.339465	-1.741395	-0.079626
H74	H	-0.147414	-1.697013	0.079813
H75	H	-0.147391	-1.697012	-0.079623
C76	C	0.422735	-1.324816	0.442601
C77	C	0.350832	-1.383505	0.349076
H78	H	0.478319	-1.279431	0.393777
H79	H	0.371723	-1.268124	0.498730
H80	H	0.466945	-1.387097	0.498708
H81	H	0.306616	-1.321223	0.292975
H82	H	0.401852	-1.440201	0.292923
C83	C	-0.305431	-1.285971	-0.117431
C84	C	-0.233316	-1.310490	0.000077
H85	H	-0.339396	-1.199925	-0.117432
H86	H	-0.256489	-1.302629	-0.197122
H87	H	-0.369328	-1.338718	-0.117416
H88	H	-0.169413	-1.257749	0.000056
H89	H	-0.282260	-1.293819	0.079789
H90	H	-0.423146	-1.701236	-0.000005
