data_functionalizedCrystal
_audit_creation_method	'MofGen! by Chris Wilmer'
_symmetry_space_group_name_H-M	'P1'
_symmetry_Int_Tables_number	1
_symmetry_cell_setting	triclinic
loop_
_symmetry_equiv_pos_as_xyz
  x,y,z
_cell_length_a	10.967926
_cell_length_b	15.995350
_cell_length_c	10.065875
_cell_angle_alpha	98.791555
_cell_angle_beta	93.120479
_cell_angle_gamma	84.114908
loop_
_atom_site_label
_atom_site_type_symbol
_atom_site_fract_x
_atom_site_fract_y
_atom_site_fract_z
O1	O	1.612889	0.146011	0.265857
O2	O	1.262845	0.148402	0.183526
O3	O	1.447435	0.025618	0.226944
O4	O	1.428298	0.268795	0.222440
O5	O	1.412236	0.049130	0.445653
O6	O	1.227646	0.171914	0.402236
O7	O	1.577690	0.169523	0.484567
Zn8	Zn	1.397079	0.174451	0.478126
Zn9	Zn	1.443455	0.143474	0.189967
O10	O	1.393099	0.292307	0.441150
C11	C	1.200452	0.158207	0.282346
C12	C	1.066981	0.152385	0.250953
C13	C	0.989242	0.161970	0.350255
C14	C	0.851293	0.155953	0.317812
C15	C	1.429045	0.006154	0.336110
C16	C	1.426674	-0.086871	0.335545
C17	C	1.418155	-0.424884	0.333545
C18	C	1.286772	-0.381610	0.302135
C19	C	1.289065	-0.284793	0.303186
C20	C	1.422381	-0.257192	0.334536
C21	C	1.467123	-0.282818	0.474679
C22	C	1.463803	-0.379545	0.474007
C23	C	1.506547	-0.406556	0.225932
C24	C	1.506781	-0.309789	0.224274
C25	C	1.424775	-0.162419	0.335102
C26	C	1.415763	-0.519656	0.332989
C27	C	1.640083	0.159717	0.385745
C28	C	1.773555	0.165538	0.417129
C29	C	1.411490	0.311770	0.331981
C30	C	1.413862	0.404795	0.332537
N31	N	1.365437	0.195592	0.674790
N32	N	1.475106	0.122326	-0.006694
C33	C	1.432439	0.150824	0.758328
C34	C	1.408096	0.167101	0.909769
H35	H	0.809119	0.178196	0.526172
Cl36	Cl	1.232615	-0.258225	0.146455
H37	H	1.507819	0.100442	0.717733
Cl38	Cl	0.796392	0.136399	0.149458
H39	H	1.031410	0.139723	0.141918
Cl40	Cl	1.611403	-0.423740	0.517816
Cl41	Cl	1.291694	0.244883	0.972427
H42	H	1.564319	-0.265133	0.502356
H43	H	1.248642	-0.411412	0.200214
Cl44	Cl	1.249040	0.273371	0.737454
H45	H	1.550491	0.071941	0.952716
Cl46	Cl	1.183717	-0.400011	0.420186
Cl47	Cl	1.044151	0.181514	0.518603
H48	H	1.223320	-0.248891	0.380797
H49	H	1.401495	-0.389287	0.556248
H50	H	1.407129	-0.245852	0.557030
Cl51	Cl	1.463696	-0.456039	0.064171
Cl52	Cl	1.457150	-0.284835	0.064530
H53	H	1.605214	-0.292200	0.239595
H54	H	1.603609	-0.435379	0.247886
