data_functionalizedCrystal
_audit_creation_method	'MofGen! by Chris Wilmer'
_symmetry_space_group_name_H-M	'P1'
_symmetry_Int_Tables_number	1
_symmetry_cell_setting	triclinic
loop_
_symmetry_equiv_pos_as_xyz
  x,y,z
_cell_length_a	19.188923
_cell_length_b	19.188925
_cell_length_c	9.798715
_cell_angle_alpha	89.997209
_cell_angle_beta	90.005757
_cell_angle_gamma	96.857936
loop_
_atom_site_label
_atom_site_type_symbol
_atom_site_fract_x
_atom_site_fract_y
_atom_site_fract_z
O1	O	-0.926146	0.087140	-0.113555
O2	O	-0.676146	0.337140	0.136445
O3	O	-0.426146	0.587140	0.386445
O4	O	-0.176146	0.837140	0.636445
O5	O	-0.722834	0.098880	-0.113543
O6	O	-0.472834	0.348880	0.136457
O7	O	-0.222834	0.598880	0.386457
O8	O	0.027166	0.848880	0.636457
O9	O	-0.830359	-0.008646	-0.113542
O10	O	-0.580359	0.241354	0.136458
O11	O	-0.330359	0.491354	0.386458
O12	O	-0.080359	0.741354	0.636458
O13	O	-0.818621	0.194666	-0.113557
O14	O	-0.568621	0.444666	0.136443
O15	O	-0.318621	0.694666	0.386443
O16	O	-0.068621	0.944666	0.636443
O17	O	-0.830351	-0.008646	0.113440
O18	O	-0.580351	0.241354	0.363440
O19	O	-0.330351	0.491354	0.613440
O20	O	-0.080351	0.741354	0.863440
O21	O	-0.722826	0.098880	0.113439
O22	O	-0.472826	0.348880	0.363439
O23	O	-0.222826	0.598880	0.613439
O24	O	0.027174	0.848880	0.863439
O25	O	-0.926138	0.087140	0.113427
O26	O	-0.676138	0.337140	0.363427
O27	O	-0.426138	0.587140	0.613427
O28	O	-0.176138	0.837140	0.863427
Zn29	Zn	-0.824481	0.093010	0.149471
Zn30	Zn	-0.574481	0.343010	0.399471
Zn31	Zn	-0.324481	0.593010	0.649471
Zn32	Zn	-0.074481	0.843010	0.899471
Zn33	Zn	-0.824491	0.093010	-0.149587
Zn34	Zn	-0.574491	0.343010	0.100413
Zn35	Zn	-0.324491	0.593010	0.350413
Zn36	Zn	-0.074491	0.843010	0.600413
O37	O	-0.818613	0.194666	0.113426
O38	O	-0.568613	0.444666	0.363426
O39	O	-0.318613	0.694666	0.613426
O40	O	-0.068613	0.944666	0.863426
C41	C	-0.696819	0.098501	-0.000051
C42	C	-0.446819	0.348501	0.249949
C43	C	-0.196819	0.598501	0.499949
C44	C	0.053181	0.848501	0.749949
C45	C	-0.619314	0.097362	-0.000046
C46	C	-0.369314	0.347362	0.249954
C47	C	-0.119314	0.597362	0.499954
C48	C	0.130686	0.847362	0.749954
C49	C	-0.057542	0.152831	-0.000032
C50	C	0.192458	0.402831	0.249968
C51	C	0.442458	0.652831	0.499968
C52	C	0.692458	0.902831	0.749968
C53	C	-0.130365	0.153907	-0.000042
C54	C	0.119635	0.403907	0.249958
C55	C	0.369635	0.653907	0.499958
C56	C	0.619635	0.903907	0.749958
C57	C	-0.175301	0.090814	-0.000037
C58	C	0.074699	0.340814	0.249963
C59	C	0.324699	0.590814	0.499963
C60	C	0.574699	0.840814	0.749963
C61	C	-0.147408	0.026641	-0.000056
C62	C	0.102592	0.276641	0.249944
C63	C	0.352592	0.526641	0.499944
C64	C	0.602592	0.776641	0.749944
C65	C	-0.074586	0.025567	-0.000059
C66	C	0.175414	0.275567	0.249941
C67	C	0.425414	0.525567	0.499941
C68	C	0.675414	0.775567	0.749941
N69	N	-0.295976	0.045137	0.077228
N70	N	-0.045976	0.295137	0.327228
N71	N	0.204024	0.545137	0.577228
N72	N	0.454024	0.795137	0.827228
N73	N	-0.365154	0.046162	0.077235
N74	N	-0.115154	0.296162	0.327235
N75	N	0.134846	0.546162	0.577235
N76	N	0.384846	0.796162	0.827235
C77	C	-0.394710	0.094047	-0.000029
C78	C	-0.144710	0.344047	0.249971
C79	C	0.105290	0.594047	0.499971
C80	C	0.355290	0.844047	0.749971
N81	N	-0.352475	0.140879	-0.077282
N82	N	-0.102475	0.390879	0.172718
N83	N	0.147525	0.640879	0.422718
N84	N	0.397525	0.890879	0.672718
N85	N	-0.283291	0.139856	-0.077282
N86	N	-0.033291	0.389856	0.172718
N87	N	0.216709	0.639856	0.422718
N88	N	0.466709	0.889856	0.672718
C89	C	-0.254265	0.091972	-0.000034
C90	C	-0.004265	0.341972	0.249966
C91	C	0.245735	0.591972	0.499966
C92	C	0.495735	0.841972	0.749966
C93	C	-0.501558	0.159382	-0.000031
C94	C	-0.251558	0.409382	0.249969
C95	C	-0.001558	0.659382	0.499969
C96	C	0.248442	0.909382	0.749969
C97	C	-0.574383	0.160456	-0.000049
C98	C	-0.324383	0.410456	0.249951
C99	C	-0.074383	0.660456	0.499951
C100	C	0.175617	0.910456	0.749951
C101	C	-0.591425	0.033188	-0.000049
C102	C	-0.341425	0.283188	0.249951
C103	C	-0.091425	0.533188	0.499951
C104	C	0.158575	0.783188	0.749951
C105	C	-0.518601	0.032116	-0.000045
C106	C	-0.268601	0.282116	0.249955
C107	C	-0.018601	0.532116	0.499955
C108	C	0.231399	0.782116	0.749955
C109	C	-0.473672	0.095216	-0.000029
C110	C	-0.223672	0.345216	0.249971
C111	C	0.026328	0.595216	0.499971
C112	C	0.276328	0.845216	0.749971
C113	C	-0.829975	-0.034657	-0.000052
C114	C	-0.579975	0.215343	0.249948
C115	C	-0.329975	0.465343	0.499948
C116	C	-0.079975	0.715343	0.749948
C117	C	-0.828836	-0.112162	-0.000054
C118	C	-0.578836	0.137838	0.249946
C119	C	-0.328836	0.387838	0.499946
C120	C	-0.078836	0.637838	0.749946
C121	C	-0.884300	-0.673933	-0.000092
C122	C	-0.634300	-0.423933	0.249908
C123	C	-0.384300	-0.173933	0.499908
C124	C	-0.134300	0.076067	0.749908
C125	C	-0.885377	-0.601110	-0.000080
C126	C	-0.635377	-0.351110	0.249920
C127	C	-0.385377	-0.101110	0.499920
C128	C	-0.135377	0.148890	0.749920
C129	C	-0.822285	-0.556174	-0.000077
C130	C	-0.572285	-0.306174	0.249923
C131	C	-0.322285	-0.056174	0.499923
C132	C	-0.072285	0.193826	0.749923
C133	C	-0.758111	-0.584066	-0.000051
C134	C	-0.508111	-0.334066	0.249949
C135	C	-0.258111	-0.084066	0.499949
C136	C	-0.008111	0.165934	0.749949
C137	C	-0.757036	-0.656888	-0.000049
C138	C	-0.507036	-0.406888	0.249951
C139	C	-0.257036	-0.156888	0.499951
C140	C	-0.007036	0.093112	0.749951
N141	N	-0.776611	-0.435492	-0.077333
N142	N	-0.526611	-0.185492	0.172667
N143	N	-0.276611	0.064508	0.422667
N144	N	-0.026611	0.314508	0.672667
N145	N	-0.777636	-0.366315	-0.077337
N146	N	-0.527636	-0.116315	0.172663
N147	N	-0.277636	0.133685	0.422663
N148	N	-0.027636	0.383685	0.672663
C149	C	-0.825519	-0.336765	-0.000078
C150	C	-0.575519	-0.086765	0.249922
C151	C	-0.325519	0.163235	0.499922
C152	C	-0.075519	0.413235	0.749922
N153	N	-0.872348	-0.379007	0.077169
N154	N	-0.622348	-0.129007	0.327169
N155	N	-0.372348	0.120993	0.577169
N156	N	-0.122348	0.370993	0.827169
N157	N	-0.871325	-0.448191	0.077167
N158	N	-0.621325	-0.198191	0.327167
N159	N	-0.371325	0.051809	0.577167
N160	N	-0.121325	0.301809	0.827167
C161	C	-0.823443	-0.477210	-0.000077
C162	C	-0.573443	-0.227210	0.249923
C163	C	-0.323443	0.022790	0.499923
C164	C	-0.073443	0.272790	0.749923
C165	C	-0.890855	-0.229918	-0.000081
C166	C	-0.640855	0.020082	0.249919
C167	C	-0.390855	0.270082	0.499919
C168	C	-0.140855	0.520082	0.749919
C169	C	-0.891929	-0.157093	-0.000060
C170	C	-0.641929	0.092907	0.249940
C171	C	-0.391929	0.342907	0.499940
C172	C	-0.141929	0.592907	0.749940
C173	C	-0.764661	-0.140050	-0.000044
C174	C	-0.514661	0.109950	0.249956
C175	C	-0.264661	0.359950	0.499956
C176	C	-0.014661	0.609950	0.749956
C177	C	-0.763589	-0.212874	-0.000051
C178	C	-0.513589	0.037126	0.249949
C179	C	-0.263589	0.287126	0.499949
C180	C	-0.013589	0.537126	0.749949
C181	C	-0.826688	-0.257804	-0.000076
C182	C	-0.576688	-0.007804	0.249924
C183	C	-0.326688	0.242196	0.499924
C184	C	-0.076688	0.492196	0.749924
C185	C	0.047847	0.087522	-0.000059
C186	C	0.297847	0.337522	0.249941
C187	C	0.547847	0.587522	0.499941
C188	C	0.797847	0.837522	0.749941
C189	C	-0.029657	0.088666	-0.000043
C190	C	0.220343	0.338666	0.249957
C191	C	0.470343	0.588666	0.499957
C192	C	0.720343	0.838666	0.749957
C193	C	-0.818996	0.220677	-0.000068
C194	C	-0.568996	0.470677	0.249932
C195	C	-0.318996	0.720677	0.499932
C196	C	-0.068996	0.970677	0.749932
C197	C	-0.820135	0.298182	-0.000074
C198	C	-0.570135	0.548182	0.249926
C199	C	-0.320135	0.798182	0.499926
C200	C	-0.070135	1.048182	0.749926
N201	N	-0.824478	0.093009	0.353571
N202	N	-0.574478	0.343009	0.603571
N203	N	-0.324478	0.593009	0.853571
N204	N	-0.074478	0.843009	1.103571
N205	N	-0.824499	0.093005	-0.353687
N206	N	-0.574499	0.343005	-0.103687
N207	N	-0.324499	0.593005	0.146313
N208	N	-0.074499	0.843005	0.396313
C209	C	-0.869628	0.047666	0.421349
C210	C	-0.619628	0.297666	0.671349
C211	C	-0.369628	0.547666	0.921349
C212	C	-0.119628	0.797666	1.171349
C213	C	-0.869639	0.047663	0.578511
C214	C	-0.619639	0.297663	0.828511
C215	C	-0.369639	0.547663	1.078511
C216	C	-0.119639	0.797663	1.328511
H217	H	-0.495897	-0.020134	-0.000046
H218	H	-0.245897	0.229866	0.249954
H219	H	0.004103	0.479866	0.499954
H220	H	0.254103	0.729866	0.749954
O221	O	-0.958907	-0.278386	-0.000081
O222	O	-0.708907	-0.028386	0.249919
O223	O	-0.458907	0.221614	0.499919
O224	O	-0.208907	0.471614	0.749919
H225	H	-1.003708	-0.246758	-0.000066
H226	H	-0.753708	0.003242	0.249934
H227	H	-0.503708	0.253242	0.499934
H228	H	-0.253708	0.503242	0.749934
H229	H	-0.944182	-0.134392	-0.000066
H230	H	-0.694182	0.115608	0.249934
H231	H	-0.444182	0.365608	0.499934
H232	H	-0.194182	0.615608	0.749934
H233	H	-0.153074	0.206159	-0.000020
H234	H	0.096926	0.456159	0.249980
H235	H	0.346926	0.706159	0.499980
H236	H	0.596926	0.956159	0.749980
O237	O	-0.773297	0.144438	0.430829
O238	O	-0.523297	0.394438	0.680829
O239	O	-0.273297	0.644438	0.930829
O240	O	-0.023297	0.894438	1.180829
H241	H	-0.782171	0.198813	0.403464
H242	H	-0.532171	0.448813	0.653464
H243	H	-0.282171	0.698813	0.903464
H244	H	-0.032171	0.948813	1.153464
H245	H	-0.713290	-0.103464	-0.000030
H246	H	-0.463290	0.146536	0.249970
H247	H	-0.213290	0.396536	0.499970
H248	H	0.036710	0.646536	0.749970
H249	H	-0.908271	0.008844	0.363026
H250	H	-0.658271	0.258844	0.613026
H251	H	-0.408271	0.508844	0.863026
H252	H	-0.158271	0.758844	1.113026
H253	H	-0.628011	-0.018183	-0.000056
H254	H	-0.378011	0.231817	0.249944
H255	H	-0.128011	0.481817	0.499944
H256	H	0.121989	0.731817	0.749944
H257	H	-0.935681	-0.710511	-0.000105
H258	H	-0.685681	-0.460511	0.249895
H259	H	-0.435681	-0.210511	0.499895
H260	H	-0.185681	0.039489	0.749895
O261	O	-0.920844	-0.003765	0.655701
O262	O	-0.670844	0.246235	0.905701
O263	O	-0.420844	0.496235	1.155701
O264	O	-0.170844	0.746235	1.405701
H265	H	-0.912814	0.004299	0.767029
H266	H	-0.662814	0.254299	1.017029
H267	H	-0.412814	0.504299	1.267029
H268	H	-0.162814	0.754299	1.517029
H269	H	-0.937630	-0.578402	-0.000094
H270	H	-0.687630	-0.328402	0.249906
H271	H	-0.437630	-0.078402	0.499906
H272	H	-0.187630	0.171598	0.749906
H273	H	-0.597085	0.212708	-0.000051
H274	H	-0.347085	0.462708	0.249949
H275	H	-0.097085	0.712708	0.499949
H276	H	0.152915	0.962708	0.749949
O277	O	-0.773285	0.144422	0.569116
O278	O	-0.523285	0.394422	0.819116
O279	O	-0.273285	0.644422	1.069116
O280	O	-0.023285	0.894422	1.319116
H281	H	-0.802695	0.178156	0.503983
H282	H	-0.552695	0.428156	0.753983
H283	H	-0.302695	0.678156	1.003983
H284	H	-0.052695	0.928156	1.253983
H285	H	-0.051883	-0.026685	-0.000069
H286	H	0.198117	0.223315	0.249931
H287	H	0.448117	0.473315	0.499931
H288	H	0.698117	0.723315	0.749931
O289	O	-0.009082	0.220886	-0.000020
O290	O	0.240918	0.470886	0.249980
O291	O	0.490918	0.720886	0.499980
O292	O	0.740918	0.970886	0.749980
H293	H	-0.018975	0.251606	-0.092535
H294	H	0.231025	0.501606	0.157465
H295	H	0.481025	0.751606	0.407465
H296	H	0.731025	1.001606	0.657465
O297	O	-0.195868	-0.041411	-0.000036
O298	O	0.054132	0.208589	0.249964
O299	O	0.304132	0.458589	0.499964
O300	O	0.554132	0.708589	0.749964
H301	H	-0.251192	-0.029886	-0.000013
H302	H	-0.001192	0.220114	0.249987
H303	H	0.248808	0.470114	0.499987
H304	H	0.498808	0.720114	0.749987
H305	H	-0.704784	-0.679590	-0.000031
H306	H	-0.454784	-0.429590	0.249969
H307	H	-0.204784	-0.179590	0.499969
H308	H	0.045216	0.070410	0.749969
O309	O	-0.453091	0.227434	-0.000036
O310	O	-0.203091	0.477434	0.249964
O311	O	0.046909	0.727434	0.499964
O312	O	0.296909	0.977434	0.749964
H313	H	-0.484719	0.272235	-0.000055
H314	H	-0.234719	0.522235	0.249945
H315	H	0.015281	0.772235	0.499945
H316	H	0.265281	1.022235	0.749945
H317	H	-0.711339	-0.235577	-0.000047
H318	H	-0.461339	0.014423	0.249953
H319	H	-0.211339	0.264423	0.499953
H320	H	0.038661	0.514423	0.749953
O321	O	-0.690059	-0.535606	-0.000049
O322	O	-0.440059	-0.285606	0.249951
O323	O	-0.190059	-0.035606	0.499951
O324	O	0.059941	0.214394	0.749951
H325	H	-0.701585	-0.480282	-0.000067
H326	H	-0.451585	-0.230282	0.249933
H327	H	-0.201585	0.019718	0.499933
H328	H	0.048415	0.269718	0.749933
