data_functionalizedCrystal
_audit_creation_method	'MofGen! by Chris Wilmer'
_symmetry_space_group_name_H-M	'P1'
_symmetry_Int_Tables_number	1
_symmetry_cell_setting	triclinic
loop_
_symmetry_equiv_pos_as_xyz
  x,y,z
_cell_length_a	19.805405
_cell_length_b	21.295418
_cell_length_c	19.805399
_cell_angle_alpha	90.041941
_cell_angle_beta	89.973385
_cell_angle_gamma	89.955065
loop_
_atom_site_label
_atom_site_type_symbol
_atom_site_fract_x
_atom_site_fract_y
_atom_site_fract_z
Zn1	Zn	-0.269150	-0.962336	-0.383128
Zn2	Zn	-0.382338	-0.962256	-0.269942
Zn3	Zn	-0.269204	-0.857070	-0.269909
Zn4	Zn	-0.382338	-0.857035	-0.383044
O5	O	-0.325758	-0.909674	-0.326506
O6	O	-0.284142	-1.050414	-0.368163
O7	O	-0.367354	-0.948284	-0.175221
O8	O	-0.174481	-0.871081	-0.284949
O9	O	-0.367301	-1.050356	-0.285005
O10	O	-0.174440	-0.948420	-0.368131
O11	O	-0.284235	-0.871004	-0.175196
O12	O	-0.284235	-0.768976	-0.284867
O13	O	-0.367301	-0.871022	-0.477772
O14	O	-0.367354	-0.768950	-0.367988
O15	O	-0.284142	-0.948386	-0.477834
O16	O	-0.477055	-0.948250	-0.284924
O17	O	-0.477055	-0.870945	-0.368020
C18	C	-0.325801	-0.746122	-0.326415
C19	C	-0.325835	-0.676154	-0.326393
C20	C	-0.369174	-0.643291	-0.369606
C21	C	-0.369160	-0.577548	-0.369631
C22	C	-0.325815	-0.544672	-0.326431
C23	C	-0.282468	-0.577543	-0.283215
C24	C	-0.282478	-0.643284	-0.283195
N25	N	-0.320531	-0.441401	-0.267223
N26	N	-0.320526	-0.378950	-0.267243
C27	C	-0.325781	-0.346597	-0.326488
N28	N	-0.331055	-0.379055	-0.385712
N29	N	-0.331064	-0.441512	-0.385691
C30	C	-0.325799	-0.473386	-0.326448
C31	C	-0.369107	-0.242448	-0.369732
C32	C	-0.369089	-0.176705	-0.369759
C33	C	-0.282399	-0.176701	-0.283336
C34	C	-0.282414	-0.242443	-0.283315
C35	C	-0.325772	-0.275313	-0.326513
C36	C	-0.501614	-0.909602	-0.326481
C37	C	-0.576846	-0.909629	-0.326493
C38	C	-0.612111	-0.949876	-0.369840
C39	C	-0.682799	-0.949898	-0.369853
C40	C	-0.718221	-0.909677	-0.326515
C41	C	-0.682951	-0.869427	-0.283166
C42	C	-0.612264	-0.869401	-0.283157
C43	C	-0.968025	-0.869528	-0.283201
C44	C	-1.038717	-0.869558	-0.283211
C45	C	-1.038559	-0.950025	-0.369896
C46	C	-0.967872	-0.949999	-0.369888
C47	C	-0.932609	-0.909747	-0.326542
C48	C	-0.855960	-0.909722	-0.326529
C49	C	-0.794868	-0.909705	-0.326523
C50	C	-0.149215	-0.909763	-0.326545
C51	C	-0.073983	-0.909801	-0.326562
C52	C	-0.325715	-0.909709	-0.503049
C53	C	-0.325697	-0.909724	-0.578281
C54	C	-0.325726	-0.073864	-0.326578
C55	C	-0.325742	-0.143832	-0.326559
C56	C	-0.282394	-0.950009	-0.613658
C57	C	-0.282374	-0.950015	-0.684346
C58	C	-0.325662	-0.909740	-0.719656
C59	C	-0.368966	-0.869451	-0.684274
C60	C	-0.368982	-0.869442	-0.613587
C61	C	-0.368903	-0.869487	-0.969348
C62	C	-0.368886	-0.869501	-1.040040
C63	C	-0.282295	-0.950060	-1.040107
C64	C	-0.282311	-0.950051	-0.969420
C65	C	-0.325613	-0.909760	-0.934044
C66	C	-0.325633	-0.909753	-0.857395
C67	C	-0.325646	-0.909750	-0.796304
C68	C	-0.325751	-0.909675	-0.150650
C69	C	-0.325579	-0.909782	-0.075418
H70	H	-0.404478	-0.670050	-0.404782
Cl71	Cl	-1.082895	-1.000627	-0.424392
Cl72	Cl	-0.227903	-0.135376	-0.229030
H73	H	-0.247064	-0.982849	-0.940674
Cl74	Cl	-0.227973	-0.536214	-0.228909
H75	H	-0.404209	-0.836656	-0.713029
Cl76	Cl	-0.227930	-0.283759	-0.228984
H77	H	-0.939318	-0.836754	-0.247906
Cl78	Cl	-0.423341	-0.818836	-0.924884
Cl79	Cl	-0.227855	-1.000710	-1.084584
H80	H	-0.404452	-0.550786	-0.404824
H81	H	-1.067555	-0.836802	-0.247919
H82	H	-0.711798	-0.836676	-0.247882
H83	H	-0.404408	-0.269212	-0.404910
H84	H	-0.583552	-0.836628	-0.247861
Cl85	Cl	-0.227975	-1.000646	-0.569275
H86	H	-0.247114	-0.982820	-0.713148
H87	H	-0.404237	-0.836632	-0.584784
Cl88	Cl	-0.423573	-0.135390	-0.424094
Cl89	Cl	-0.227990	-0.684601	-0.228865
H90	H	-0.583275	-0.982631	-0.405128
Cl91	Cl	-0.727129	-1.000488	-0.424358
Cl92	Cl	-0.423308	-0.818864	-1.084428
H93	H	-0.939034	-0.982753	-0.405175
