data_functionalizedCrystal
_audit_creation_method	'MofGen! by Chris Wilmer'
_symmetry_space_group_name_H-M	'P1'
_symmetry_Int_Tables_number	1
_symmetry_cell_setting	triclinic
loop_
_symmetry_equiv_pos_as_xyz
  x,y,z
_cell_length_a	13.032831
_cell_length_b	13.032721
_cell_length_c	10.686551
_cell_angle_alpha	93.335252
_cell_angle_beta	77.928676
_cell_angle_gamma	90.902885
loop_
_atom_site_label
_atom_site_type_symbol
_atom_site_fract_x
_atom_site_fract_y
_atom_site_fract_z
Zn1	Zn	1.593783	-0.552430	-1.042164
Zn2	Zn	1.558526	-0.734706	-0.853700
Zn3	Zn	1.404777	-0.543780	-0.800913
Zn4	Zn	1.399454	-0.702846	-1.035411
O5	O	1.489135	-0.633441	-0.933047
O6	O	1.734777	-0.593563	-1.042081
O7	O	1.525603	-0.719093	-0.669687
O8	O	1.446832	-0.402075	-0.813651
O9	O	1.708874	-0.727481	-0.903618
O10	O	1.585693	-0.408430	-0.990897
O11	O	1.412645	-0.578821	-0.630905
O12	O	1.258399	-0.547927	-0.807102
O13	O	1.437760	-0.673179	-1.213317
O14	O	1.254489	-0.664792	-0.979386
O15	O	1.580532	-0.562669	-1.218279
O16	O	1.520442	-0.873333	-0.897069
O17	O	1.403573	-0.849925	-1.030571
C18	C	1.218673	-0.601964	-0.886784
C19	C	1.102968	-0.588522	-0.867026
C20	C	1.049455	-0.640457	-0.943359
C21	C	0.929868	-0.626564	-0.922940
C22	C	1.457634	-0.898671	-0.968848
C23	C	1.444256	-1.012146	-0.984222
C24	C	1.496176	-1.074288	-0.925089
C25	C	1.482351	-1.191571	-0.940978
C26	C	1.760653	-0.665041	-0.979491
C27	C	1.876358	-0.678507	-0.999283
C28	C	1.512485	-0.615335	-1.262978
C29	C	1.522436	-0.607620	-1.403575
C30	C	1.520789	-0.367176	-0.897139
C31	C	1.534278	-0.253711	-0.881837
C32	C	1.465944	-0.651409	-0.604400
C33	C	1.456230	-0.658860	-0.463799
H34	H	0.919074	-0.733253	-1.079763
H35	H	0.887152	-0.571807	-0.842471
Br36	Br	1.031777	-0.497257	-0.732912
Br37	Br	1.349069	-0.741828	-1.370467
Br38	Br	1.629616	-0.524667	-1.496917
H39	H	1.092176	-0.695201	-1.023830
Br40	Br	1.587338	-1.018254	-0.821113
H41	H	1.427665	-1.225192	-1.003377
H42	H	1.389574	-1.045773	-1.046616
Br43	Br	1.625443	-1.197684	-0.777853
