data_functionalizedCrystal
_audit_creation_method	'MofGen! by Chris Wilmer'
_symmetry_space_group_name_H-M	'P1'
_symmetry_Int_Tables_number	1
_symmetry_cell_setting	triclinic
loop_
_symmetry_equiv_pos_as_xyz
  x,y,z
_cell_length_a	16.625548
_cell_length_b	13.897448
_cell_length_c	13.897433
_cell_angle_alpha	89.928482
_cell_angle_beta	89.950353
_cell_angle_gamma	90.018760
loop_
_atom_site_label
_atom_site_type_symbol
_atom_site_fract_x
_atom_site_fract_y
_atom_site_fract_z
Zn1	Zn	1.232939	-0.383567	-0.545411
Zn2	Zn	1.232785	-0.545004	-0.384112
Zn3	Zn	1.098032	-0.383728	-0.384126
Zn4	Zn	1.098082	-0.544825	-0.545362
O5	O	1.165459	-0.464281	-0.464753
O6	O	1.345751	-0.404990	-0.524029
O7	O	1.214824	-0.523752	-0.249132
O8	O	1.115971	-0.248725	-0.405547
O9	O	1.345638	-0.523597	-0.405524
O10	O	1.215087	-0.248607	-0.524043
O11	O	1.115822	-0.405263	-0.249142
O12	O	0.985206	-0.405090	-0.405500
O13	O	1.116057	-0.523291	-0.680351
O14	O	0.985243	-0.523447	-0.523959
O15	O	1.215135	-0.404816	-0.680387
O16	O	1.214873	-0.679962	-0.405476
O17	O	1.115907	-0.679830	-0.523946
C18	C	1.165401	-0.714895	-0.464725
C19	C	1.165449	-0.822109	-0.464745
C20	C	0.955969	-0.464267	-0.464726
C21	C	0.866347	-0.464284	-0.464737
C22	C	1.165534	-1.018404	-0.464806
C23	C	1.165484	-0.909172	-0.464775
C24	C	0.538172	-0.464291	-0.464779
C25	C	0.629480	-0.464286	-0.464764
C26	C	0.702257	-0.464288	-0.464757
C27	C	0.793571	-0.464283	-0.464744
C28	C	1.375768	-0.464295	-0.464781
C29	C	1.465389	-0.464302	-0.464792
C30	C	1.165619	-0.464016	-0.716347
C31	C	1.165686	-0.463903	-0.823561
C32	C	1.165540	-0.212688	-0.464802
C33	C	1.165575	-0.105474	-0.464823
C34	C	1.165347	-0.464475	-0.214138
C35	C	1.165436	-0.464316	-0.106925
C36	C	1.165615	-0.464033	0.089370
C37	C	1.165518	-0.464193	-0.019862
