data_functionalizedCrystal
_audit_creation_method	'MofGen! by Chris Wilmer'
_symmetry_space_group_name_H-M	'P1'
_symmetry_Int_Tables_number	1
_symmetry_cell_setting	triclinic
loop_
_symmetry_equiv_pos_as_xyz
  x,y,z
_cell_length_a	15.297327
_cell_length_b	15.297621
_cell_length_c	11.169409
_cell_angle_alpha	99.691833
_cell_angle_beta	99.639974
_cell_angle_gamma	88.375711
loop_
_atom_site_label
_atom_site_type_symbol
_atom_site_fract_x
_atom_site_fract_y
_atom_site_fract_z
Zn1	Zn	-0.580723	-1.278750	-1.106181
Zn2	Zn	-0.727200	-1.253275	-0.933331
Zn3	Zn	-0.555385	-1.132256	-0.865999
Zn4	Zn	-0.701753	-1.106893	-1.094460
O5	O	-0.641265	-1.192793	-0.999993
O6	O	-0.621408	-1.397940	-1.116336
O7	O	-0.704454	-1.237175	-0.756449
O8	O	-0.436190	-1.172965	-0.874586
O9	O	-0.729023	-1.379224	-0.989343
O10	O	-0.454806	-1.280594	-1.051047
O11	O	-0.578222	-1.148263	-0.706981
O12	O	-0.553547	-1.006322	-0.863221
O13	O	-0.685652	-1.129737	-1.263965
O14	O	-0.661083	-0.987688	-1.031070
O15	O	-0.596733	-1.255999	-1.272576
O16	O	-0.846381	-1.212581	-0.977978
O17	O	-0.827685	-1.105034	-1.096359
C18	C	-0.868814	-1.153314	-1.043236
C19	C	-0.966175	-1.136505	-1.061797
C20	C	-0.601805	-0.965224	-0.938568
C21	C	-0.584944	-0.867865	-0.912323
C22	C	-0.641180	-1.192880	-1.313036
C23	C	-0.641144	-1.192918	-1.446436
C24	C	-1.279461	-1.313292	-0.867839
C25	C	-1.187986	-1.329084	-0.850394
C26	C	-1.132529	-1.280941	-0.903243
C27	C	-1.168555	-1.217002	-0.973541
C28	C	-1.260038	-1.201203	-0.990980
C29	C	-1.113106	-1.168853	-1.026384
C30	C	-1.149133	-1.104914	-1.096682
C31	C	-1.240607	-1.089118	-1.114118
C32	C	-1.296064	-1.137261	-1.061269
C33	C	-1.021623	-1.184652	-1.008945
C34	C	-1.002200	-1.072563	-1.132086
C35	C	-1.093675	-1.056771	-1.149531
C36	C	-0.412832	-1.232450	-0.956614
C37	C	-0.315487	-1.249350	-0.938128
C38	C	-0.761739	-0.554655	-1.187514
C39	C	-0.777586	-0.646127	-1.212171
C40	C	-0.729427	-0.701566	-1.137212
C41	C	-0.665418	-0.665524	-1.037591
C42	C	-0.649573	-0.574041	-1.012926
C43	C	-0.617262	-0.720953	-0.962623
C44	C	-0.553252	-0.684910	-0.863002
C45	C	-0.537410	-0.593437	-0.838342
C46	C	-0.585570	-0.537998	-0.913302
C47	C	-0.633106	-0.812435	-0.987288
C48	C	-0.520941	-0.831822	-0.812699
C49	C	-0.505093	-0.740349	-0.788043
C50	C	-0.680874	-0.421253	-1.061646
C51	C	-0.697735	-0.518611	-1.087890
C52	C	-0.641295	-1.192768	-0.688169
C53	C	-0.641114	-1.192943	-0.554768
H54	H	-0.992299	-1.236711	-0.951708
H55	H	-1.058046	-1.293803	-0.889033
H56	H	-0.572668	-0.463513	-0.893234
H57	H	-0.800948	-0.509508	-1.248529
H58	H	-0.485299	-0.564093	-0.757214
C59	C	-0.746849	-0.802185	-1.164343
H60	H	-0.791861	-0.815712	-1.234417
H61	H	-0.765503	-0.820245	-1.095301
H62	H	-0.693928	-0.832676	-1.180083
C63	C	-1.148364	-1.399416	-0.773083
H64	H	-1.194492	-1.425832	-0.744116
H65	H	-1.106931	-1.372084	-0.704923
H66	H	-1.119235	-1.443739	-0.822528
H67	H	-0.452976	-0.710991	-0.706930
C68	C	-1.340458	-1.366238	-0.809704
H69	H	-1.305903	-1.406578	-0.765336
H70	H	-1.382703	-1.398231	-0.872739
H71	H	-1.370390	-1.326566	-0.755145
H72	H	-0.481727	-0.876960	-0.751659
H73	H	-1.370552	-1.124409	-1.075472
C74	C	-1.280234	-1.018784	-1.191436
H75	H	-1.234108	-0.992379	-1.220423
H76	H	-1.309366	-0.974463	-1.142004
H77	H	-1.321665	-1.046126	-1.259600
H78	H	-1.123021	-1.004711	-1.206768
H79	H	-0.957047	-1.033359	-1.175118
C80	C	-0.847984	-0.685769	-1.321750
H81	H	-0.874391	-0.639654	-1.362869
H82	H	-0.892285	-0.714828	-1.292618
H83	H	-0.820702	-0.727274	-1.377388
H84	H	-0.685223	-0.841771	-1.068401
