data_functionalizedCrystal
_audit_creation_method	'MofGen! by Chris Wilmer'
_symmetry_space_group_name_H-M	'P1'
_symmetry_Int_Tables_number	1
_symmetry_cell_setting	triclinic
loop_
_symmetry_equiv_pos_as_xyz
  x,y,z
_cell_length_a	13.339070
_cell_length_b	19.188930
_cell_length_c	12.376457
_cell_angle_alpha	101.232575
_cell_angle_beta	75.589755
_cell_angle_gamma	99.387037
loop_
_atom_site_label
_atom_site_type_symbol
_atom_site_fract_x
_atom_site_fract_y
_atom_site_fract_z
O1	O	1.360197	0.340100	-0.094096
O2	O	1.065870	0.294198	-0.094082
O3	O	1.221523	0.217159	-0.094067
O4	O	1.204545	0.417139	-0.094111
O5	O	1.182624	0.236385	0.093941
O6	O	1.026971	0.313424	0.093926
O7	O	1.321298	0.359326	0.093913
Zn8	Zn	1.167958	0.339428	0.123770
Zn9	Zn	1.219210	0.314097	-0.123939
O10	O	1.165645	0.436365	0.093898
C11	C	1.008765	0.296057	-0.000076
C12	C	0.896565	0.272945	-0.000070
C13	C	1.201522	0.200654	-0.000060
C14	C	1.199869	0.122827	-0.000050
C15	C	0.530988	0.452652	-0.000127
C16	C	0.636407	0.474369	-0.000136
C17	C	0.701451	0.424015	-0.000119
C18	C	0.661067	0.351940	-0.000094
C19	C	0.555640	0.330220	-0.000093
C20	C	0.726103	0.301583	-0.000086
C21	C	0.685719	0.229508	-0.000060
C22	C	0.580302	0.207792	-0.000059
C23	C	0.515258	0.258146	-0.000076
C24	C	0.831530	0.323303	-0.000086
C25	C	0.856182	0.200871	-0.000053
C26	C	0.750763	0.179154	-0.000043
C27	C	1.291202	0.095789	-0.000049
C28	C	1.289655	0.022659	-0.000067
C29	C	1.196764	-0.023428	-0.000063
C30	C	1.105420	0.003617	-0.000071
C31	C	1.106972	0.076744	-0.000064
N32	N	1.112522	-0.138794	0.063923
N33	N	1.111052	-0.208261	0.063919
C34	C	1.192081	-0.243757	-0.000086
N35	N	1.274646	-0.207158	-0.064073
N36	N	1.276118	-0.137684	-0.064064
C37	C	1.195070	-0.102723	-0.000071
C38	C	1.281743	-0.350089	-0.000106
C39	C	1.280193	-0.423221	-0.000131
C40	C	1.095953	-0.442261	-0.000124
C41	C	1.097508	-0.369132	-0.000110
C42	C	1.190404	-0.323049	-0.000096
C43	C	1.378403	0.357467	-0.000096
C44	C	1.490606	0.380578	-0.000110
C45	C	1.185646	0.452870	-0.000112
C46	C	1.187301	0.530696	-0.000130
N47	N	1.132988	0.356716	0.292825
N48	N	1.254188	0.296804	-0.292994
C49	C	1.335365	0.256657	0.647829
C50	C	1.359835	0.244556	0.529492
C51	C	1.303125	0.272595	0.470319
C52	C	1.221942	0.312738	0.529496
C53	C	1.197474	0.324845	0.647845
C54	C	1.165235	0.340783	0.470335
C55	C	1.084051	0.380926	0.529511
C56	C	1.059587	0.393031	0.647849
C57	C	1.116297	0.364992	0.707021
C58	C	1.189702	0.328675	0.351986
C59	C	1.051811	0.396863	0.352001
C60	C	1.027341	0.408964	0.470339
H61	H	0.864399	0.381987	-0.000102
H62	H	0.429416	0.240467	-0.000068
F63	F	0.537332	0.131080	-0.000064
F64	F	1.380609	-0.301042	-0.000085
H65	H	0.717869	0.120468	-0.000032
H66	H	1.029788	-0.033912	-0.000071
F67	F	1.276100	0.285953	0.289019
H68	H	0.909143	0.159867	-0.000044
F69	F	1.390077	0.144827	-0.000058
H70	H	0.993491	0.425724	0.696030
F71	F	0.813647	0.447130	-0.000127
H72	H	1.425935	0.211873	0.481314
F73	F	0.679380	0.551073	-0.000168
H74	H	1.364033	0.000640	-0.000070
F75	F	0.991455	0.426709	0.289030
H76	H	1.032595	0.098757	-0.000065
H77	H	1.096371	0.374842	0.803381
H78	H	1.381537	0.233836	0.696015
H79	H	0.478023	0.493642	-0.000150
H80	H	1.354572	-0.445233	-0.000136
H81	H	1.323053	0.262740	0.373963
H82	H	1.020320	-0.479785	-0.000127
F83	F	0.940941	0.451687	0.533331
H84	H	1.023133	-0.347117	-0.000105
