data_functionalizedCrystal
_audit_creation_method	'MofGen! by Chris Wilmer'
_symmetry_space_group_name_H-M	'P1'
_symmetry_Int_Tables_number	1
_symmetry_cell_setting	triclinic
loop_
_symmetry_equiv_pos_as_xyz
  x,y,z
_cell_length_a	21.395362
_cell_length_b	18.101395
_cell_length_c	21.395355
_cell_angle_alpha	89.984273
_cell_angle_beta	89.956060
_cell_angle_gamma	90.046983
loop_
_atom_site_label
_atom_site_type_symbol
_atom_site_fract_x
_atom_site_fract_y
_atom_site_fract_z
Zn1	Zn	0.957858	-0.294602	-0.354598
Zn2	Zn	1.457858	0.205398	0.145402
Zn3	Zn	0.957760	-0.418425	-0.249825
Zn4	Zn	1.457760	0.081575	0.250175
Zn5	Zn	0.853073	-0.294636	-0.249799
Zn6	Zn	1.353073	0.205364	0.250201
Zn7	Zn	0.853041	-0.418440	-0.354530
Zn8	Zn	1.353041	0.081560	0.145470
O9	O	0.905433	-0.356526	-0.302188
O10	O	1.405433	0.143474	0.197812
O11	O	1.045523	-0.311006	-0.340739
O12	O	1.545523	0.188994	0.159261
O13	O	0.943845	-0.402012	-0.162144
O14	O	1.443845	0.097988	0.337856
O15	O	0.867027	-0.190998	-0.263718
O16	O	1.367027	0.309002	0.236282
O17	O	1.045450	-0.401979	-0.263763
O18	O	1.545450	0.098021	0.236237
O19	O	0.944012	-0.190973	-0.340713
O20	O	1.444012	0.309027	0.159287
O21	O	0.866932	-0.311065	-0.162125
O22	O	1.366932	0.188935	0.337875
O23	O	0.765391	-0.311080	-0.263652
O24	O	1.265391	0.188920	0.236348
O25	O	0.866973	-0.402005	-0.442217
O26	O	1.366973	0.097995	0.057783
O27	O	0.765367	-0.402038	-0.340598
O28	O	1.265367	0.097962	0.159402
O29	O	0.943982	-0.311021	-0.442267
O30	O	1.443982	0.188979	0.057733
O31	O	0.943814	-0.522060	-0.263697
O32	O	1.443814	-0.022060	0.236303
O33	O	0.866878	-0.522071	-0.340623
O34	O	1.366878	-0.022071	0.159377
C35	C	0.742645	-0.356565	-0.302115
C36	C	1.242645	0.143435	0.197885
C37	C	0.673004	-0.356599	-0.302099
C38	C	1.173004	0.143401	0.197901
C39	C	0.640295	-0.404024	-0.342105
C40	C	1.140295	0.095976	0.157895
C41	C	0.574860	-0.404006	-0.342133
C42	C	1.074860	0.095994	0.157867
C43	C	0.542136	-0.356571	-0.302144
C44	C	1.042136	0.143429	0.197856
C45	C	0.574852	-0.309137	-0.262135
C46	C	1.074852	0.190863	0.237865
C47	C	0.640286	-0.309151	-0.262113
C48	C	1.140286	0.190849	0.237887
C49	C	0.438411	-0.350605	-0.245738
C50	C	0.938411	0.149395	0.254262
C51	C	0.372978	-0.350596	-0.245760
C52	C	0.872978	0.149404	0.254240
C53	C	0.340315	-0.356523	-0.302213
C54	C	0.840315	0.143477	0.197787
C55	C	0.373093	-0.362474	-0.358647
C56	C	0.873093	0.137526	0.141353
C57	C	0.438527	-0.362488	-0.358624
C58	C	0.938527	0.137512	0.141376
C59	C	0.471183	-0.356550	-0.302164
C60	C	0.971183	0.143450	0.197836
C61	C	0.236654	-0.403930	-0.342252
C62	C	0.736654	0.096070	0.157748
C63	C	0.171217	-0.403907	-0.342281
C64	C	0.671217	0.096093	0.157719
C65	C	0.171211	-0.309042	-0.262278
C66	C	0.671211	0.190958	0.237722
C67	C	0.236646	-0.309061	-0.262255
C68	C	0.736646	0.190939	0.237745
C69	C	0.269364	-0.356509	-0.302241
C70	C	0.769364	0.143491	0.197759
C71	C	0.905349	-0.548936	-0.302170
C72	C	1.405349	-0.048936	0.197830
C73	C	0.905370	-0.631250	-0.302183
C74	C	1.405370	-0.131250	0.197817
C75	C	0.905508	-0.930341	-0.302216
C76	C	1.405508	-0.430341	0.197784
C77	C	0.857214	-0.899054	-0.350736
C78	C	1.357214	-0.399054	0.149264
C79	C	0.856985	-0.813436	-0.350585
C80	C	1.356985	-0.313436	0.149415
C81	C	0.905440	-0.781959	-0.302200
C82	C	1.405440	-0.281959	0.197800
C83	C	0.887557	-0.813100	-0.236161
C84	C	1.387557	-0.313100	0.263839
C85	C	0.887246	-0.898745	-0.236451
C86	C	1.387246	-0.398745	0.263549
C87	C	0.971790	-0.898667	-0.319154
C88	C	1.471790	-0.398667	0.180846
C89	C	0.971400	-0.813017	-0.320602
C90	C	1.471400	-0.313017	0.179398
C91	C	0.905402	-0.698099	-0.302187
C92	C	1.405402	-0.198099	0.197813
C93	C	0.905544	-1.014201	-0.302225
C94	C	1.405544	-0.514201	0.197775
C95	C	1.068856	-0.356487	-0.302261
C96	C	1.568856	0.143513	0.197739
C97	C	1.138497	-0.356470	-0.302293
C98	C	1.638497	0.143530	0.197707
C99	C	0.905485	-0.356511	-0.465611
C100	C	1.405485	0.143489	0.034389
C101	C	0.905507	-0.356504	-0.535253
C102	C	1.405507	0.143496	-0.035253
C103	C	0.905534	-0.163364	-0.302220
C104	C	1.405534	0.336636	0.197780
C105	C	0.905577	-0.081050	-0.302234
C106	C	1.405577	0.418950	0.197766
C107	C	0.945603	-0.309127	-0.567993
C108	C	1.445603	0.190873	-0.067993
C109	C	0.945603	-0.309095	-0.633428
C110	C	1.445603	0.190905	-0.133428
C111	C	0.905512	-0.356454	-0.666121
C112	C	1.405512	0.143546	-0.166121
C113	C	0.865408	-0.403834	-0.633373
C114	C	1.365408	0.096166	-0.133373
C115	C	0.865405	-0.403859	-0.567939
C116	C	1.365405	0.096141	-0.067939
C117	C	0.900536	-0.423137	-0.769788
C118	C	1.400536	0.076863	-0.269788
C119	C	0.900542	-0.423113	-0.835221
C120	C	1.400542	0.076887	-0.335221
C121	C	0.905516	-0.356375	-0.867942
C122	C	1.405516	0.143625	-0.367942
C123	C	0.910495	-0.289660	-0.835222
C124	C	1.410495	0.210340	-0.335222
C125	C	0.910493	-0.289685	-0.769788
C126	C	1.410493	0.210315	-0.269788
C127	C	0.905510	-0.356431	-0.737073
C128	C	1.405510	0.143569	-0.237073
C129	C	0.945613	-0.308960	-0.971635
C130	C	1.445613	0.191040	-0.471635
C131	C	0.945608	-0.308927	-1.037071
C132	C	1.445608	0.191073	-0.537071
C133	C	0.865416	-0.403672	-1.037015
C134	C	1.365416	0.096328	-0.537015
C135	C	0.865418	-0.403699	-0.971580
C136	C	1.365418	0.096301	-0.471580
C137	C	0.905520	-0.356344	-0.938893
C138	C	1.405520	0.143656	-0.438893
C139	C	0.905417	-0.356487	-0.139400
C140	C	1.405417	0.143513	0.360600
C141	C	0.905516	-0.356285	-0.069760
C142	C	1.405516	0.143715	0.430240
H143	H	0.346295	-0.345754	-0.199808
H144	H	0.846295	0.154246	0.300192
H145	H	0.921625	-0.792710	-0.199023
H146	H	1.421625	-0.292710	0.300977
H147	H	0.807855	-0.793026	-0.339363
H148	H	1.307855	-0.293026	0.160637
O149	O	0.675573	-0.258002	-0.218961
O150	O	1.175573	0.241998	0.281039
H151	H	0.705322	-0.291105	-0.187030
H152	H	1.205322	0.208895	0.312970
O153	O	0.822165	-0.454911	-0.668634
O154	O	1.322165	0.045089	-0.168634
H155	H	0.794278	-0.487856	-0.634872
H156	H	1.294278	0.012144	-0.134872
O157	O	0.871656	-0.926637	-0.415754
O158	O	1.371656	-0.426637	0.084246
H159	H	0.913437	-0.962895	-0.414192
H160	H	1.413437	-0.462895	0.085808
H161	H	0.978263	-0.270396	-0.945020
H162	H	1.478263	0.229604	-0.445020
O163	O	0.988854	-0.257823	-1.072391
O164	O	1.488854	0.242177	-0.572391
H165	H	1.038021	-0.270527	-1.059878
H166	H	1.538021	0.229473	-0.559878
H167	H	0.988093	-0.920221	-0.366491
H168	H	1.488093	-0.420221	0.133509
O169	O	0.824055	-0.784800	-0.216813
O170	O	1.324055	-0.284800	0.283187
H171	H	0.805129	-0.748566	-0.254122
H172	H	1.305129	-0.248566	0.245878
O173	O	0.539558	-0.257974	-0.219006
O174	O	1.039558	0.242026	0.280994
H175	H	0.573298	-0.224993	-0.191186
H176	H	1.073298	0.275007	0.308814
O177	O	0.135921	-0.257876	-0.219150
O178	O	0.635921	0.242124	0.280850
H179	H	0.169663	-0.224898	-0.191328
H180	H	0.669663	0.275102	0.308672
H181	H	0.465000	-0.345775	-0.199764
H182	H	0.965000	0.154225	0.300236
O183	O	0.871756	-0.785535	-0.415455
O184	O	1.371756	-0.285535	0.084545
H185	H	0.879132	-0.833215	-0.447218
H186	H	1.379132	-0.333215	0.052782
H187	H	0.144587	-0.442524	-0.374862
H188	H	0.644587	0.057476	0.125138
H189	H	0.263278	-0.270446	-0.229675
H190	H	0.763278	0.229554	0.270325
H191	H	0.808383	-0.920654	-0.339656
H192	H	1.308383	-0.420654	0.160344
O193	O	0.989277	-0.786044	-0.384974
O194	O	1.489277	-0.286044	0.115026
H195	H	0.951348	-0.750662	-0.403788
H196	H	1.451348	-0.250662	0.096212
H197	H	1.009286	-0.791584	-0.287841
H198	H	1.509286	-0.291584	0.212159
O199	O	0.823066	-0.925321	-0.217455
O200	O	1.323066	-0.425321	0.282545
H201	H	0.792543	-0.877001	-0.208151
H202	H	1.292543	-0.377001	0.291849
O203	O	0.539584	-0.455177	-0.385280
O204	O	1.039584	0.044823	0.114720
H205	H	0.509836	-0.422097	-0.417230
H206	H	1.009836	0.077903	0.082770
O207	O	0.271938	-0.455088	-0.385398
O208	O	0.771938	0.044912	0.114602
H209	H	0.301810	-0.421991	-0.417308
H210	H	0.801810	0.078009	0.082692
H211	H	0.914546	-0.235316	-0.861862
H212	H	1.414546	0.264684	-0.361862
H213	H	0.920895	-0.919443	-0.199066
H214	H	1.420895	-0.419443	0.300934
O215	O	0.895170	-0.495123	-0.734498
O216	O	1.395170	0.004877	-0.234498
H217	H	0.852721	-0.493970	-0.704660
H218	H	1.352721	0.006030	-0.204660
H219	H	0.896491	-0.477437	-0.861856
H220	H	1.396491	0.022563	-0.361856
O221	O	0.822169	-0.454747	-1.072267
O222	O	1.322169	0.045253	-0.572267
H223	H	0.832877	-0.512873	-1.059717
H224	H	1.332877	-0.012873	-0.559717
O225	O	0.675580	-0.455196	-0.385236
O226	O	1.175580	0.044804	0.114764
H227	H	0.726576	-0.447245	-0.378497
H228	H	1.226576	0.052755	0.121503
H229	H	0.832751	-0.442439	-0.541282
H230	H	1.332751	0.057561	-0.041282
O231	O	1.019487	-0.925628	-0.272451
O232	O	1.519487	-0.425628	0.227549
H233	H	0.996136	-0.961392	-0.237330
H234	H	1.496136	-0.461392	0.262670
H235	H	0.465212	-0.367332	-0.404575
H236	H	0.965212	0.132668	0.095425
H237	H	0.978257	-0.270566	-0.541384
H238	H	1.478257	0.229434	-0.041384
H239	H	0.978253	-0.270511	-0.660090
H240	H	1.478253	0.229489	-0.160090
O241	O	0.915863	-0.217735	-0.734496
O242	O	1.415863	0.282265	-0.234496
H243	H	0.876041	-0.181378	-0.747017
H244	H	1.376041	0.318622	-0.247017
O245	O	0.337876	-0.368861	-0.419544
O246	O	0.837876	0.131139	0.080456
H247	H	0.286869	-0.367840	-0.410082
H248	H	0.786869	0.132160	0.089918
O249	O	0.822155	-0.454779	-0.936260
O250	O	1.322155	0.045221	-0.436260
H251	H	0.794271	-0.487700	-0.969985
H252	H	1.294271	0.012300	-0.469985
