data_functionalizedCrystal
_audit_creation_method	'MofGen! by Chris Wilmer'
_symmetry_space_group_name_H-M	'P1'
_symmetry_Int_Tables_number	1
_symmetry_cell_setting	triclinic
loop_
_symmetry_equiv_pos_as_xyz
  x,y,z
_cell_length_a	22.863218
_cell_length_b	22.862586
_cell_length_c	22.858745
_cell_angle_alpha	60.006856
_cell_angle_beta	60.013818
_cell_angle_gamma	59.991795
loop_
_atom_site_label
_atom_site_type_symbol
_atom_site_fract_x
_atom_site_fract_y
_atom_site_fract_z
O1	O	0.081006	-0.854581	0.714630
O2	O	0.030492	-0.665350	0.575795
O3	O	0.150314	-0.785089	0.575706
O4	O	-0.038816	-0.734841	0.714718
O5	O	0.190066	-0.745348	0.615369
O6	O	0.070244	-0.625609	0.615458
O7	O	0.120758	-0.814840	0.754293
Zn8	Zn	0.101812	-0.713914	0.691173
Zn9	Zn	0.049438	-0.766275	0.638915
O10	O	0.000936	-0.695100	0.754381
N11	N	0.137558	-0.678184	0.726840
N12	N	0.013698	-0.802011	0.603247
C13	C	0.187224	-0.518558	0.776483
C14	C	0.187235	-0.628552	0.776467
C15	C	0.214753	-0.601061	0.803961
C16	C	0.334724	-0.580392	0.740801
C17	C	0.409718	-0.605392	0.715784
C18	C	0.409746	-0.726732	0.762051
C19	C	0.334754	-0.701730	0.787070
C20	C	0.205297	-0.481049	0.702756
C21	C	0.180267	-0.406048	0.677779
C22	C	0.119099	-0.406071	0.800259
C23	C	0.144128	-0.481071	0.825236
C24	C	0.113501	-0.610437	0.794610
C25	C	0.088492	-0.635428	0.769607
C26	C	0.210943	-0.696652	0.708337
C27	C	0.235956	-0.671660	0.733331
C28	C	0.113585	-0.610461	0.923980
C29	C	0.088635	-0.635476	0.998978
C30	C	0.211128	-0.696714	0.998930
C31	C	0.236077	-0.671700	0.923930
C32	C	0.187303	-0.628571	0.886457
C33	C	0.297246	-0.628559	0.776441
C34	C	-0.117796	-0.823430	0.581283
C35	C	-0.007671	-0.823587	0.471446
C36	C	-0.007879	-0.933535	0.581483
C37	C	-0.007861	-0.823583	0.581554
C38	C	-0.035301	-0.851035	0.553942
N39	N	0.446162	-0.678198	0.726752
O40	O	0.691234	-0.690164	0.550341
O41	O	0.691462	-0.829422	0.739388
O42	O	0.691373	-0.829102	0.619485
O43	O	0.691323	-0.690484	0.670244
O44	O	0.572233	-0.789455	0.659278
O45	O	0.572322	-0.789775	0.779181
O46	O	0.572094	-0.650517	0.590134
Zn47	Zn	0.553292	-0.713851	0.690976
Zn48	Zn	0.710264	-0.766088	0.638547
O49	O	0.572183	-0.650837	0.710037
N50	N	0.817394	-0.801741	0.602763
N51	N	0.137538	-0.369628	0.726874
O52	O	-0.038795	-0.124419	0.714761
O53	O	0.150256	-0.124417	0.575522
O54	O	0.030331	-0.124432	0.575860
O55	O	0.081131	-0.124404	0.714423
O56	O	0.070086	-0.243584	0.615573
O57	O	0.190011	-0.243569	0.615236
O58	O	0.000960	-0.243571	0.754474
Zn59	Zn	0.101797	-0.262488	0.691160
Zn60	Zn	0.049419	-0.105500	0.638836
O61	O	0.120885	-0.243556	0.754137
N62	N	0.013669	0.001640	0.603123
N63	N	0.137749	-0.678230	1.035381
O64	O	0.125655	-0.854547	1.280566
O65	O	-0.013567	-0.665426	1.280590
O66	O	-0.013245	-0.785328	1.280537
O67	O	0.125333	-0.734644	1.280618
O68	O	0.026456	-0.745599	1.161392
O69	O	0.026134	-0.625697	1.161444
O70	O	0.165355	-0.814817	1.161420
Zn71	Zn	0.102048	-0.713949	1.142516
Zn72	Zn	0.049740	-0.766294	1.299495
O73	O	0.165033	-0.694915	1.161473
N74	N	0.014038	-0.802020	1.406629
C75	C	0.045634	-0.621635	0.576499
C76	C	0.194019	-0.769918	0.576389
C77	C	0.105616	-0.858555	0.753588
C78	C	-0.042769	-0.710272	0.753698
C79	C	0.631920	-0.828776	0.783102
C80	C	0.631811	-0.828380	0.634616
C81	C	0.631633	-0.651162	0.546422
C82	C	0.631745	-0.651559	0.694907
C83	C	0.193900	-0.183846	0.576155
C84	C	0.045437	-0.184012	0.576622
C85	C	-0.042734	-0.183994	0.753792
C86	C	0.105780	-0.183977	0.753375
C87	C	-0.012889	-0.621735	1.221020
C88	C	-0.012483	-0.770211	1.220931
C89	C	0.164678	-0.858508	1.220991
C90	C	0.164280	-0.710023	1.221052
H91	H	0.073862	-0.575336	0.893474
H92	H	0.207816	-0.699179	1.221068
H93	H	-0.056000	-0.781036	1.220859
H94	H	0.248339	-0.780632	0.532734
O95	O	0.216738	-0.923354	1.221012
C96	C	0.190961	-0.967918	1.220959
H97	H	0.129941	-0.948506	1.243508
H98	H	0.209165	-0.965971	1.163790
C99	C	0.295584	-1.069293	1.239975
C100	C	0.220639	-1.045454	1.267676
H101	H	0.313893	-1.117121	1.268789
H102	H	0.312953	-1.039269	1.240008
H103	H	0.310745	-1.067665	1.192334
H104	H	0.205479	-1.047074	1.315312
H105	H	0.203269	-1.075480	1.267652
O106	O	-0.107541	-0.697425	0.805800
C107	C	-0.120361	-0.639436	0.822333
H108	H	-0.067168	-0.633687	0.806494
H109	H	-0.154932	-0.588077	0.791572
C110	C	-0.224850	-0.660298	0.922797
C111	C	-0.159517	-0.653240	0.903349
H112	H	-0.249007	-0.668810	0.972771
H113	H	-0.216215	-0.699364	0.911658
H114	H	-0.253651	-0.617496	0.897157
H115	H	-0.130714	-0.696044	0.928982
H116	H	-0.168149	-0.614181	0.914495
O117	O	0.032638	-0.556760	0.524544
C118	C	-0.037758	-0.512311	0.550536
H119	H	-0.071706	-0.546876	0.596540
H120	H	-0.036678	-0.476151	0.570462
C121	C	-0.028561	-0.423458	0.433364
C122	C	-0.070258	-0.465912	0.489863
H123	H	-0.048608	-0.394834	0.395938
H124	H	0.018867	-0.453402	0.415852
H125	H	-0.027664	-0.393331	0.449979
H126	H	-0.071146	-0.496044	0.473249
H127	H	-0.117687	-0.435971	0.507370
O128	O	0.118489	-0.923349	0.805675
C129	C	0.110495	-0.914003	0.866058
H130	H	0.118313	-0.861505	0.848852
H131	H	0.054533	-0.912496	0.906601
C132	C	0.157198	-1.041226	0.921628
C133	C	0.166806	-0.976750	0.900494
H134	H	0.191930	-1.079932	0.942872
H135	H	0.162581	-1.047524	0.880948
H136	H	0.110560	-1.039960	0.955410
H137	H	0.213439	-0.978014	0.866706
H138	H	0.161431	-0.970454	0.941169
O139	O	-0.065017	-0.556907	1.220898
C140	C	-0.084263	-0.525197	1.159189
H141	H	-0.038253	-0.548900	1.116057
H142	H	-0.133995	-0.536137	1.173119
C143	C	-0.156770	-0.414651	1.184202
C144	C	-0.100257	-0.443759	1.131225
H145	H	-0.166639	-0.364416	1.166954
H146	H	-0.143805	-0.436015	1.225779
H147	H	-0.198206	-0.423775	1.195806
H148	H	-0.058820	-0.434643	1.119629
H149	H	-0.113214	-0.422392	1.089646
H150	H	0.631977	-0.872492	0.837399
H151	H	0.116656	-0.183968	0.796904
O152	O	0.016996	-0.617777	1.035310
C153	C	-0.020696	-0.574361	0.986149
H154	H	0.015048	-0.547097	0.932685
H155	H	-0.036879	-0.608952	0.978176
C156	C	-0.132196	-0.550525	1.081108
C157	C	-0.088296	-0.517034	1.015443
H158	H	-0.173896	-0.515165	1.099179
H159	H	-0.106802	-0.579778	1.114230
H160	H	-0.145673	-0.579350	1.074455
H161	H	-0.074812	-0.488218	1.022099
H162	H	-0.113689	-0.487776	0.982324
O163	O	0.631801	-0.880244	0.621554
C164	C	0.631750	-0.854150	0.551137
H165	H	0.609144	-0.793127	0.532311
H166	H	0.688894	-0.872240	0.514045
C167	C	0.612807	-0.958594	0.572879
C168	C	0.585036	-0.883644	0.549758
H169	H	0.583995	-0.976789	0.572026
H170	H	0.612844	-0.976175	0.620319
H171	H	0.660427	-0.973658	0.541965
H172	H	0.537421	-0.868581	0.580676
H173	H	0.584990	-0.866061	0.502322
O174	O	0.032367	-0.184073	0.524784
C175	C	-0.038054	-0.184070	0.550882
H176	H	-0.056884	-0.206602	0.611904
H177	H	-0.075133	-0.126914	0.532748
C178	C	-0.016323	-0.203161	0.446507
C179	C	-0.039449	-0.230842	0.521455
H180	H	-0.017185	-0.232009	0.428353
H181	H	0.031120	-0.203161	0.428922
H182	H	-0.047225	-0.155532	0.431405
H183	H	-0.008541	-0.278466	0.536555
H184	H	-0.086887	-0.230851	0.539041
O185	O	0.631576	-0.599087	0.481605
C186	C	0.631537	-0.624872	0.437026
H187	H	0.654151	-0.685897	0.456397
H188	H	0.574366	-0.606695	0.439005
C189	C	0.650402	-0.520208	0.335701
C190	C	0.678182	-0.595159	0.359489
H191	H	0.679171	-0.501877	0.287872
H192	H	0.650425	-0.502834	0.365735
H193	H	0.602759	-0.505070	0.337356
H194	H	0.725820	-0.610295	0.357843
H195	H	0.678168	-0.612535	0.329454
H196	H	0.631735	-0.608016	0.705768
H197	H	-0.097027	-0.183996	0.797505
O198	O	0.258537	-0.738698	1.035292
C199	C	0.301915	-0.801584	1.016928
H200	H	0.272943	-0.812016	0.996326
H201	H	0.354581	-0.794758	0.973378
C202	C	0.352878	-0.852596	1.108832
C203	C	0.317291	-0.865411	1.083534
H204	H	0.362366	-0.891967	1.149916
H205	H	0.323656	-0.810227	1.121203
H206	H	0.396762	-0.846906	1.072534
H207	H	0.273405	-0.871092	1.119829
H208	H	0.346507	-0.907783	1.071171
O209	O	0.258311	-0.738416	0.666334
C210	C	0.301642	-0.700533	0.603451
H211	H	0.272656	-0.640532	0.593046
H212	H	0.354337	-0.716496	0.610258
C213	C	0.352550	-0.792333	0.552398
C214	C	0.316946	-0.718639	0.539616
H215	H	0.361994	-0.803504	0.513021
H216	H	0.323360	-0.817858	0.594764
H217	H	0.396458	-0.805626	0.558072
H218	H	0.273035	-0.705349	0.533951
H219	H	0.346130	-0.693112	0.497246
O220	O	0.298456	-0.748615	0.821647
C221	C	0.347647	-0.818560	0.825672
H222	H	0.401088	-0.815707	0.781368
H223	H	0.355658	-0.847194	0.880016
C224	C	0.252730	-0.863641	0.870922
C225	C	0.318366	-0.860138	0.816503
H226	H	0.234668	-0.889290	0.865269
H227	H	0.219589	-0.816519	0.868213
H228	H	0.259415	-0.887501	0.916203
H229	H	0.311678	-0.836271	0.771224
H230	H	0.351505	-0.907257	0.819204
O231	O	0.446298	-0.797785	0.772283
C232	C	0.520526	-0.809524	0.742576
H233	H	0.530742	-0.757910	0.699589
H234	H	0.541837	-0.826811	0.786465
C235	C	0.546472	-0.932112	0.761702
C236	C	0.559021	-0.868720	0.708901
H237	H	0.570219	-0.968629	0.740933
H238	H	0.496464	-0.924204	0.781719
H239	H	0.564232	-0.946508	0.798273
H240	H	0.541253	-0.854321	0.672337
H241	H	0.609027	-0.876627	0.688877
H242	H	0.248082	-0.183515	0.532333
H243	H	0.296108	-0.686456	0.893383
H244	H	0.073825	-0.575337	0.829731
H245	H	0.295996	-0.686402	0.718551
O246	O	0.446016	-0.558502	0.681147
C247	C	0.396828	-0.488560	0.677146
H248	H	0.343363	-0.485634	0.682071
H249	H	0.388877	-0.474562	0.722584
C250	C	0.491729	-0.438614	0.598692
C251	C	0.426064	-0.435019	0.604736
H252	H	0.509763	-0.405586	0.554028
H253	H	0.524869	-0.485735	0.601390
H254	H	0.485094	-0.426950	0.636562
H255	H	0.432701	-0.446691	0.566872
H256	H	0.392926	-0.387898	0.602030
H257	H	0.304191	-0.520811	0.732143
O258	O	0.247122	-0.517353	0.655304
C259	C	0.257712	-0.468161	0.584873
H260	H	0.212487	-0.414701	0.585028
H261	H	0.311132	-0.460181	0.563367
C262	C	0.313755	-0.563081	0.536588
C263	C	0.258205	-0.497423	0.536778
H264	H	0.314063	-0.581131	0.506919
H265	H	0.306623	-0.596224	0.584039
H266	H	0.358265	-0.556422	0.518668
H267	H	0.213695	-0.504084	0.554706
H268	H	0.265330	-0.464282	0.489329
H269	H	0.028452	-0.620662	0.784363
O270	O	0.197696	-0.369573	0.606164
C271	C	0.134660	-0.326173	0.588068
H272	H	0.089628	-0.348783	0.630355
H273	H	0.118869	-0.269337	0.585591
C274	C	0.203275	-0.297232	0.462585
C275	C	0.147967	-0.325004	0.514520
H276	H	0.211483	-0.296507	0.417216
H277	H	0.245744	-0.326469	0.474777
H278	H	0.190108	-0.249870	0.460531
H279	H	0.161138	-0.372368	0.516580
H280	H	0.105500	-0.295775	0.502327
H281	H	0.084019	-0.375548	0.839959
H282	H	0.129402	-0.511613	0.885274
