data_functionalizedCrystal
_audit_creation_method	'MofGen! by Chris Wilmer'
_symmetry_space_group_name_H-M	'P1'
_symmetry_Int_Tables_number	1
_symmetry_cell_setting	triclinic
loop_
_symmetry_equiv_pos_as_xyz
  x,y,z
_cell_length_a	15.944493
_cell_length_b	10.723024
_cell_length_c	9.798715
_cell_angle_alpha	90.003391
_cell_angle_beta	90.002726
_cell_angle_gamma	96.028543
loop_
_atom_site_label
_atom_site_type_symbol
_atom_site_fract_x
_atom_site_fract_y
_atom_site_fract_z
O1	O	0.117811	-1.655662	-0.113463
O2	O	0.129088	-1.292364	-0.113465
O3	O	0.001228	-1.483972	-0.113475
O4	O	0.245671	-1.464055	-0.113453
O5	O	0.001228	-1.483958	0.113507
O6	O	0.129088	-1.292350	0.113517
O7	O	0.117811	-1.655648	0.113520
Zn8	Zn	0.123449	-1.473997	0.149557
Zn9	Zn	0.123450	-1.474016	-0.149502
O10	O	0.245670	-1.464041	0.113529
C11	C	0.128267	-1.245868	0.000025
C12	C	0.125812	-1.107346	0.000023
C13	C	-0.030071	-1.483151	0.000010
C14	C	-0.123334	-1.480710	-0.000007
C15	C	-0.358448	-1.593495	0.000019
C16	C	-0.409364	-1.532681	-0.111894
C17	C	-0.294081	-1.476188	0.000009
C18	C	-0.409341	-1.532640	0.111892
C19	C	-0.459015	-1.471829	0.000031
C20	C	-0.343768	-1.415406	-0.111997
C21	C	-0.343741	-1.415382	0.111890
C22	C	-0.394625	-1.354482	-0.000051
C23	C	-0.199066	-1.478703	-0.000005
C24	C	-0.554027	-1.469305	0.000036
C25	C	0.118632	-1.702144	0.000026
C26	C	0.121087	-1.840667	0.000019
C27	C	0.276970	-1.464862	0.000041
C28	C	0.370233	-1.467302	0.000050
N29	N	0.123448	-1.473993	0.353656
C30	C	0.197355	-1.031437	0.000029
C31	C	0.194819	-0.888266	0.000027
N32	N	0.123444	-1.474029	-0.353602
C33	C	0.069527	-1.554447	0.421429
C34	C	0.069524	-1.554467	0.578592
H35	H	-0.438026	-1.582228	-0.206510
H36	H	0.062683	-1.066340	-0.000018
O37	O	0.039949	-0.927048	0.000027
H38	H	0.037393	-0.987071	-0.092479
O39	O	0.280980	-1.085744	0.000047
H40	H	0.333002	-1.008361	0.000064
O41	O	-0.305740	-1.349811	0.237216
H42	H	-0.332120	-1.398714	0.329986
O43	O	0.275951	-0.801874	0.000033
H44	H	0.330348	-0.858528	0.000030
H45	H	0.023361	-1.623308	0.363103
H46	H	0.023363	-1.623352	0.636873
O47	O	0.184586	-1.382768	0.569207
H48	H	0.225584	-1.435506	0.504082
O49	O	-0.336959	-1.727329	-0.000125
H50	H	-0.363357	-1.775745	-0.093171
H51	H	0.169607	-1.405124	0.411984
H52	H	-0.315232	-1.365900	-0.206712
H53	H	-0.410670	-1.253359	-0.000113
H54	H	-0.437988	-1.582199	0.206501
