data_functionalizedCrystal
_audit_creation_method	'MofGen! by Chris Wilmer'
_symmetry_space_group_name_H-M	'P1'
_symmetry_Int_Tables_number	1
_symmetry_cell_setting	triclinic
loop_
_symmetry_equiv_pos_as_xyz
  x,y,z
_cell_length_a	16.625548
_cell_length_b	17.077402
_cell_length_c	17.077396
_cell_angle_alpha	89.970216
_cell_angle_beta	90.019578
_cell_angle_gamma	89.976049
loop_
_atom_site_label
_atom_site_type_symbol
_atom_site_fract_x
_atom_site_fract_y
_atom_site_fract_z
Zn1	Zn	1.232670	0.312486	0.443837
Zn2	Zn	1.482670	0.562486	0.693837
Zn3	Zn	1.732670	0.812486	0.943837
Zn4	Zn	1.982670	1.062486	1.193837
Zn5	Zn	1.232575	0.443761	0.312568
Zn6	Zn	1.482575	0.693761	0.562568
Zn7	Zn	1.732575	0.943761	0.812568
Zn8	Zn	1.982575	1.193761	1.062568
Zn9	Zn	1.097834	0.312515	0.312585
Zn10	Zn	1.347834	0.562515	0.562585
Zn11	Zn	1.597834	0.812515	0.812585
Zn12	Zn	1.847834	1.062515	1.062585
Zn13	Zn	1.097802	0.443716	0.443792
Zn14	Zn	1.347802	0.693716	0.693792
Zn15	Zn	1.597802	0.943716	0.943792
Zn16	Zn	1.847802	1.193716	1.193792
O17	O	1.165220	0.378119	0.378196
O18	O	1.415220	0.628119	0.628196
O19	O	1.665220	0.878119	0.878196
O20	O	1.915220	1.128119	1.128196
O21	O	1.345490	0.329906	0.426436
O22	O	1.595490	0.579906	0.676436
O23	O	1.845490	0.829906	0.926436
O24	O	2.095490	1.079906	1.176436
O25	O	1.214675	0.426382	0.202723
O26	O	1.464675	0.676382	0.452723
O27	O	1.714675	0.926382	0.702723
O28	O	1.964675	1.176382	0.952723
O29	O	1.115774	0.202664	0.330022
O30	O	1.365774	0.452664	0.580022
O31	O	1.615774	0.702664	0.830022
O32	O	1.865774	0.952664	1.080022
O33	O	1.345420	0.426353	0.329993
O34	O	1.595420	0.676353	0.579993
O35	O	1.845420	0.926353	0.829993
O36	O	2.095420	1.176353	1.079993
O37	O	1.214838	0.202643	0.426452
O38	O	1.464838	0.452643	0.676452
O39	O	1.714838	0.702643	0.926452
O40	O	1.964838	0.952643	1.176452
O41	O	1.115682	0.329956	0.202736
O42	O	1.365682	0.579956	0.452736
O43	O	1.615682	0.829956	0.702736
O44	O	1.865682	1.079956	0.952736
O45	O	0.984998	0.329913	0.329978
O46	O	1.234998	0.579913	0.579978
O47	O	1.484998	0.829913	0.829978
O48	O	1.734998	1.079913	1.079978
O49	O	1.115718	0.426277	0.553645
O50	O	1.365718	0.676277	0.803645
O51	O	1.615718	0.926277	1.053645
O52	O	1.865718	1.176277	1.303645
O53	O	0.984973	0.426306	0.426375
O54	O	1.234973	0.676306	0.676375
O55	O	1.484973	0.926306	0.926375
O56	O	1.734973	1.176306	1.176375
O57	O	1.214806	0.329863	0.553678
O58	O	1.464806	0.579863	0.803678
O59	O	1.714806	0.829863	1.053678
O60	O	1.964806	1.079863	1.303678
O61	O	1.214643	0.553602	0.329949
O62	O	1.464643	0.803602	0.579949
O63	O	1.714643	1.053602	0.829949
O64	O	1.964643	1.303602	1.079949
O65	O	1.115626	0.553569	0.426358
O66	O	1.365626	0.803569	0.676358
O67	O	1.615626	1.053569	0.926358
O68	O	1.865626	1.303569	1.176358
C69	C	1.165142	0.582067	0.378164
C70	C	1.415142	0.832067	0.628164
C71	C	1.665142	1.082067	0.878164
C72	C	1.915142	1.332067	1.128164
C73	C	1.165183	0.669317	0.378177
C74	C	1.415183	0.919317	0.628177
C75	C	1.665183	1.169317	0.878177
C76	C	1.915183	1.419317	1.128177
C77	C	0.955729	0.378108	0.378174
C78	C	1.205729	0.628108	0.628174
C79	C	1.455729	0.878108	0.878174
C80	C	1.705729	1.128108	1.128174
C81	C	0.866108	0.378122	0.378183
C82	C	1.116108	0.628122	0.628183
C83	C	1.366108	0.878122	0.878183
C84	C	1.616108	1.128122	1.128183
C85	C	1.165269	0.378062	0.582940
C86	C	1.415269	0.628062	0.832940
C87	C	1.665269	0.878062	1.082940
C88	C	1.915269	1.128062	1.332940
C89	C	1.165290	0.378037	0.670190
C90	C	1.415290	0.628037	0.920190
C91	C	1.665290	0.878037	1.170190
C92	C	1.915290	1.128037	1.420190
C93	C	0.537933	0.378127	0.378216
C94	C	0.787933	0.628127	0.628216
C95	C	1.037933	0.878127	0.878216
C96	C	1.287933	1.128127	1.128216
C97	C	0.629241	0.378124	0.378205
C98	C	0.879241	0.628124	0.628205
C99	C	1.129241	0.878124	0.878205
C100	C	1.379241	1.128124	1.128205
C101	C	0.702018	0.378125	0.378199
C102	C	0.952018	0.628125	0.628199
C103	C	1.202018	0.878125	0.878199
C104	C	1.452018	1.128125	1.128199
C105	C	0.793332	0.378121	0.378188
C106	C	1.043332	0.628121	0.628188
C107	C	1.293332	0.878121	0.878188
C108	C	1.543332	1.128121	1.128188
C109	C	1.375529	0.378131	0.378218
C110	C	1.625529	0.628131	0.628218
C111	C	1.875529	0.878131	0.878218
C112	C	2.125529	1.128131	1.128218
C113	C	1.465150	0.378136	0.378228
C114	C	1.715150	0.628136	0.628228
C115	C	1.965150	0.878136	0.878228
C116	C	2.215150	1.128136	1.128228
C117	C	1.165320	0.173375	0.378244
C118	C	1.415320	0.423375	0.628244
C119	C	1.665320	0.673375	0.878244
C120	C	1.915320	0.923375	1.128244
C121	C	1.165363	0.086125	0.378265
C122	C	1.415363	0.336125	0.628265
C123	C	1.665363	0.586125	0.878265
C124	C	1.915363	0.836125	1.128265
C125	C	1.216794	0.710298	0.328031
C126	C	1.466794	0.960298	0.578031
C127	C	1.716794	1.210298	0.828031
C128	C	1.966794	1.460298	1.078031
C129	C	1.216833	0.792279	0.328051
C130	C	1.466833	1.042279	0.578051
C131	C	1.716833	1.292279	0.828051
C132	C	1.966833	1.542279	1.078051
C133	C	1.165257	0.833276	0.378214
C134	C	1.415257	1.083276	0.628214
C135	C	1.665257	1.333276	0.878214
C136	C	1.915257	1.583276	1.128214
C137	C	1.113644	0.792290	0.428366
C138	C	1.363644	1.042290	0.678366
C139	C	1.613644	1.292290	0.928366
C140	C	1.863644	1.542290	1.178366
C141	C	1.113609	0.710311	0.428349
C142	C	1.363609	0.960311	0.678349
C143	C	1.613609	1.210311	0.928349
C144	C	1.863609	1.460311	1.178349
C145	C	1.113719	0.963160	0.428395
C146	C	1.363719	1.213160	0.678395
C147	C	1.613719	1.463160	0.928395
C148	C	1.863719	1.713160	1.178395
C149	C	1.113752	1.045144	0.428411
C150	C	1.363752	1.295144	0.678411
C151	C	1.613752	1.545144	0.928411
C152	C	1.863752	1.795144	1.178411
C153	C	1.216943	1.045128	0.328097
C154	C	1.466943	1.295128	0.578097
C155	C	1.716943	1.545128	0.828097
C156	C	1.966943	1.795128	1.078097
C157	C	1.216908	0.963149	0.328080
C158	C	1.466908	1.213149	0.578080
C159	C	1.716908	1.463149	0.828080
C160	C	1.966908	1.713149	1.078080
C161	C	1.165293	0.922167	0.378232
C162	C	1.415293	1.172167	0.628232
C163	C	1.665293	1.422167	0.878232
C164	C	1.915293	1.672167	1.128232
C165	C	1.165218	0.378120	0.174248
C166	C	1.415218	0.628120	0.424248
C167	C	1.665218	0.878120	0.674248
C168	C	1.915218	1.128120	0.924248
C169	C	1.165353	0.377924	0.086998
C170	C	1.415353	0.627924	0.336998
C171	C	1.665353	0.877924	0.586998
C172	C	1.915353	1.127924	0.836998
C173	C	1.216887	0.327830	0.711199
C174	C	1.466887	0.577830	0.961199
C175	C	1.716887	0.827830	1.211199
C176	C	1.966887	1.077830	1.461199
C177	C	1.216896	0.327804	0.793179
C178	C	1.466896	0.577804	1.043179
C179	C	1.716896	0.827804	1.293179
C180	C	1.966896	1.077804	1.543179
C181	C	1.165313	0.377989	0.834149
C182	C	1.415313	0.627989	1.084149
C183	C	1.665313	0.877989	1.334149
C184	C	1.915313	1.127989	1.584149
C185	C	1.113710	0.428199	0.793135
C186	C	1.363710	0.678199	1.043135
C187	C	1.613710	0.928199	1.293135
C188	C	1.863710	1.178199	1.543135
C189	C	1.113697	0.428220	0.711156
C190	C	1.363697	0.678220	0.961156
C191	C	1.613697	0.928220	1.211156
C192	C	1.863697	1.178220	1.461156
C193	C	1.113743	0.428151	0.964005
C194	C	1.363743	0.678151	1.214005
C195	C	1.613743	0.928151	1.464005
C196	C	1.863743	1.178151	1.714005
C197	C	1.113757	0.428131	1.045989
C198	C	1.363757	0.678131	1.295989
C199	C	1.613757	0.928131	1.545989
C200	C	1.863757	1.178131	1.795989
C201	C	1.216942	0.327735	1.046028
C202	C	1.466942	0.577735	1.296028
C203	C	1.716942	0.827735	1.546028
C204	C	1.966942	1.077735	1.796028
C205	C	1.216929	0.327757	0.964049
C206	C	1.466929	0.577757	1.214049
C207	C	1.716929	0.827757	1.464049
C208	C	1.966929	1.077757	1.714049
C209	C	1.165327	0.377967	0.923040
C210	C	1.415327	0.627967	1.173040
C211	C	1.665327	0.877967	1.423040
C212	C	1.915327	1.127967	1.673040
H213	H	1.258790	0.676923	0.287179
H214	H	1.508790	0.926923	0.537179
H215	H	1.758790	1.176923	0.787179
H216	H	2.008790	1.426923	1.037179
Br217	Br	1.286961	0.259699	0.848831
Br218	Br	1.536961	0.509699	1.098831
Br219	Br	1.786961	0.759699	1.348831
Br220	Br	2.036961	1.009699	1.598831
H221	H	1.071583	0.676944	0.469184
H222	H	1.321583	0.926944	0.719184
H223	H	1.571583	1.176944	0.969184
H224	H	1.821583	1.426944	1.219184
Br225	Br	1.286943	0.259654	0.908447
Br226	Br	1.536943	0.509654	1.158447
Br227	Br	1.786943	0.759654	1.408447
Br228	Br	2.036943	1.009654	1.658447
H229	H	1.258956	0.286850	1.079422
H230	H	1.508956	0.536850	1.329422
H231	H	1.758956	0.786850	1.579422
H232	H	2.008956	1.036850	1.829422
H233	H	1.071674	0.469096	0.677767
H234	H	1.321674	0.719096	0.927767
H235	H	1.571674	0.969096	1.177767
H236	H	1.821674	1.219096	1.427767
H237	H	1.071711	0.469026	0.930618
H238	H	1.321711	0.719026	1.180618
H239	H	1.571711	0.969026	1.430618
H240	H	1.821711	1.219026	1.680618
Br241	Br	1.286885	0.847893	0.259997
Br242	Br	1.536885	1.097893	0.509997
Br243	Br	1.786885	1.347893	0.759997
Br244	Br	2.036885	1.597893	1.009997
H245	H	1.258894	0.286965	0.677847
H246	H	1.508894	0.536965	0.927847
H247	H	1.758894	0.786965	1.177847
H248	H	2.008894	1.036965	1.427847
Br249	Br	1.286903	0.907509	0.260000
Br250	Br	1.536903	1.157509	0.510000
Br251	Br	1.786903	1.407509	0.760000
Br252	Br	2.036903	1.657509	1.010000
H253	H	1.071707	0.469058	0.826499
H254	H	1.321707	0.719058	1.076499
H255	H	1.571707	0.969058	1.326499
H256	H	1.821707	1.219058	1.576499
Br257	Br	1.286980	1.100744	0.260024
Br258	Br	1.536980	1.350744	0.510024
Br259	Br	1.786980	1.600744	0.760024
Br260	Br	2.036980	1.850744	1.010024
Br261	Br	1.043743	1.100784	0.496479
Br262	Br	1.293743	1.350784	0.746479
Br263	Br	1.543743	1.600784	0.996479
Br264	Br	1.793743	1.850784	1.246479
H265	H	1.071751	0.468995	1.079345
H266	H	1.321751	0.718995	1.329345
H267	H	1.571751	0.968995	1.579345
H268	H	1.821751	1.218995	1.829345
Br269	Br	1.043673	0.907542	0.496462
Br270	Br	1.293673	1.157542	0.746462
Br271	Br	1.543673	1.407542	0.996462
Br272	Br	1.793673	1.657542	1.246462
H273	H	1.071653	0.825676	0.469213
H274	H	1.321653	1.075676	0.719213
H275	H	1.571653	1.325676	0.969213
H276	H	1.821653	1.575676	1.219213
