data_functionalizedCrystal
_audit_creation_method	'MofGen! by Chris Wilmer'
_symmetry_space_group_name_H-M	'P1'
_symmetry_Int_Tables_number	1
_symmetry_cell_setting	triclinic
loop_
_symmetry_equiv_pos_as_xyz
  x,y,z
_cell_length_a	12.759395
_cell_length_b	12.759394
_cell_length_c	18.215399
_cell_angle_alpha	90.023582
_cell_angle_beta	90.017301
_cell_angle_gamma	90.015393
loop_
_atom_site_label
_atom_site_type_symbol
_atom_site_fract_x
_atom_site_fract_y
_atom_site_fract_z
Zn1	Zn	1.606242	-0.418234	0.416089
Zn2	Zn	1.606145	-0.593932	0.293032
Zn3	Zn	1.430550	-0.418272	0.293041
Zn4	Zn	1.430535	-0.593876	0.416062
O5	O	1.518368	-0.506079	0.354556
O6	O	1.753250	-0.441548	0.399772
O7	O	1.582817	-0.570669	0.190049
O8	O	1.453902	-0.271246	0.309379
O9	O	1.753179	-0.570632	0.309362
O10	O	1.582982	-0.271218	0.399781
O11	O	1.453808	-0.441612	0.190056
O12	O	1.283527	-0.441559	0.309353
O13	O	1.453877	-0.570538	0.519050
O14	O	1.283516	-0.570575	0.399736
O15	O	1.582968	-0.441495	0.519069
O16	O	1.582803	-0.740945	0.309337
O17	O	1.453783	-0.740905	0.399727
C18	C	1.245400	-0.506066	0.354543
C19	C	1.128623	-0.506086	0.354555
C20	C	1.128651	-0.640647	0.448519
C21	C	1.073803	-0.707936	0.495502
C22	C	0.964082	-0.707949	0.495511
C23	C	0.909205	-0.640663	0.448533
C24	C	0.964052	-0.573374	0.401549
C25	C	1.073776	-0.573371	0.401544
C26	C	0.964025	-0.438809	0.307591
C27	C	1.073747	-0.438800	0.307577
C28	C	0.909148	-0.371523	0.260613
C29	C	0.963995	-0.304238	0.213624
C30	C	1.073723	-0.304229	0.213616
C31	C	1.128594	-0.371511	0.260593
C32	C	1.518309	-0.779046	0.354544
C33	C	1.518380	-0.895823	0.354563
C34	C	1.652691	-0.895636	0.448770
C35	C	1.719879	-0.950403	0.495878
C36	C	1.719942	-1.060125	0.495894
C37	C	1.652806	-1.115081	0.448798
C38	C	1.585618	-1.060314	0.401689
C39	C	1.585565	-0.950590	0.401677
C40	C	1.451304	-1.060501	0.307487
C41	C	1.451245	-0.950780	0.307467
C42	C	1.384168	-1.115458	0.260391
C43	C	1.316984	-1.060691	0.213277
C44	C	1.316925	-0.950962	0.213263
C45	C	1.384057	-0.896012	0.260358
C46	C	1.792401	-0.506092	0.354569
C47	C	1.909178	-0.506098	0.354575
C48	C	1.518432	-0.506006	0.546509
C49	C	1.518459	-0.505975	0.628308
C50	C	1.518455	-0.232045	0.354584
C51	C	1.518492	-0.115268	0.354596
C52	C	1.518364	-0.506075	0.163350
C53	C	1.518541	-0.505810	0.081551
C54	C	1.585701	-0.438719	0.816513
C55	C	1.585713	-0.438689	0.893372
C56	C	1.451291	-0.573069	0.893340
C57	C	1.451274	-0.573093	0.816483
C58	C	1.518485	-0.505920	0.778071
C59	C	1.518515	-0.505865	0.931788
C60	C	1.518528	-0.505832	1.015121
C61	C	1.518471	-0.505951	0.694732
H62	H	0.819807	-0.371534	0.260626
H63	H	1.217935	-0.371513	0.260589
C64	C	1.243141	-1.121142	0.161477
C65	C	1.243200	-1.241832	0.161499
C66	C	1.169357	-1.302288	0.109697
C67	C	1.095454	-1.242054	0.057874
C68	C	1.095392	-1.121357	0.057850
C69	C	1.169235	-1.060901	0.109652
H70	H	1.297910	-1.286427	0.199864
H71	H	1.169403	-1.391636	0.109715
H72	H	1.040791	-1.286807	0.019527
H73	H	1.040682	-1.076762	0.019485
H74	H	1.169189	-0.971553	0.109634
H75	H	1.774539	-0.905648	0.534225
C76	C	1.793848	-1.120375	0.547713
C77	C	1.867692	-1.059936	0.599518
C78	C	1.941598	-1.120187	0.651335
C79	C	1.941660	-1.240877	0.651348
C80	C	1.867813	-1.301323	0.599541
C81	C	1.793907	-1.241072	0.547723
H82	H	1.867648	-0.970588	0.599510
H83	H	1.996264	-1.075440	0.689686
H84	H	1.996369	-1.285478	0.689707
H85	H	1.867857	-1.390671	0.599549
H86	H	1.739241	-1.285819	0.509373
C87	C	0.903632	-0.230230	0.161953
C88	C	0.782942	-0.230235	0.161967
C89	C	0.722574	-0.156228	0.110295
C90	C	0.782896	-0.082215	0.058608
C91	C	0.903592	-0.082207	0.058593
C92	C	0.963960	-0.156215	0.110265
H93	H	0.738282	-0.285027	0.200230
H94	H	0.633226	-0.156234	0.110307
H95	H	0.738208	-0.027430	0.020357
H96	H	0.948252	-0.027416	0.020329
H97	H	1.053308	-0.156208	0.110253
C98	C	1.659654	-0.364768	0.935658
C99	C	1.733577	-0.290882	0.893404
C100	C	1.807519	-0.216956	0.935689
C101	C	1.807537	-0.216916	1.020229
C102	C	1.733611	-0.290805	1.062489
C103	C	1.659669	-0.364731	1.020203
H104	H	1.733566	-0.290909	0.830818
H105	H	1.862244	-0.162258	0.904406
H106	H	1.862273	-0.162191	1.051532
H107	H	1.733622	-0.290778	1.125074
H108	H	1.604944	-0.419428	1.051486
H109	H	1.652854	-1.204422	0.448821
C110	C	1.243015	-0.890722	0.161442
C111	C	1.251650	-0.905877	0.077787
C112	C	1.177739	-0.845641	0.025965
C113	C	1.095191	-0.770249	0.057798
C114	C	1.086552	-0.755089	0.141457
C115	C	1.160464	-0.815326	0.193279
H116	H	1.312760	-0.961690	0.054218
H117	H	1.184134	-0.856863	-0.035965
H118	H	1.040478	-0.725658	0.019436
H119	H	1.025443	-0.699276	0.165025
H120	H	1.154068	-0.804103	0.255209
H121	H	0.819864	-0.640671	0.448551
C122	C	0.903743	-0.781966	0.547192
C123	C	0.964094	-0.855976	0.598867
C124	C	0.903756	-0.929993	0.650547
C125	C	0.783066	-0.930001	0.650552
C126	C	0.722708	-0.855989	0.598875
C127	C	0.783046	-0.781971	0.547195
H128	H	1.053442	-0.855973	0.598865
H129	H	0.948437	-0.984782	0.688801
H130	H	0.738399	-0.984793	0.688808
H131	H	0.633360	-0.855992	0.598877
H132	H	0.738365	-0.727183	0.508940
H133	H	1.396532	-0.627815	0.785183
C134	C	1.659622	-0.364824	0.774259
C135	C	1.614107	-0.282358	0.721426
C136	C	1.688028	-0.208458	0.679174
C137	C	1.807464	-0.217023	0.689755
C138	C	1.852985	-0.299492	0.742591
C139	C	1.779064	-0.373392	0.784843
H140	H	1.525688	-0.276015	0.713591
H141	H	1.654329	-0.147409	0.640062
H142	H	1.862185	-0.162317	0.658478
H143	H	1.941405	-0.305835	0.750426
H144	H	1.812763	-0.434441	0.823955
H145	H	1.217992	-0.640651	0.448510
H146	H	1.118374	-0.249426	0.175361
C147	C	1.134171	-0.781948	0.547176
C148	C	1.209567	-0.864363	0.515177
C149	C	1.269930	-0.938372	0.566851
C150	C	1.254897	-0.929965	0.650525
C151	C	1.179497	-0.847546	0.682529
C152	C	1.119134	-0.773538	0.630854
H153	H	1.220698	-0.870590	0.453232
H154	H	1.325746	-0.999383	0.543160
H155	H	1.299582	-0.984750	0.688778
H156	H	1.168366	-0.841320	0.744473
H157	H	1.063318	-0.712526	0.654545
H158	H	1.652657	-0.806295	0.448754
H159	H	1.384220	-1.204799	0.260410
H160	H	1.384020	-0.806671	0.260348
H161	H	1.396573	-0.627761	0.924624
