data_functionalizedCrystal
_audit_creation_method	'MofGen! by Chris Wilmer'
_symmetry_space_group_name_H-M	'P1'
_symmetry_Int_Tables_number	1
_symmetry_cell_setting	triclinic
loop_
_symmetry_equiv_pos_as_xyz
  x,y,z
_cell_length_a	21.295417
_cell_length_b	14.908571
_cell_length_c	14.908694
_cell_angle_alpha	83.592472
_cell_angle_beta	93.263731
_cell_angle_gamma	86.726349
loop_
_atom_site_label
_atom_site_type_symbol
_atom_site_fract_x
_atom_site_fract_y
_atom_site_fract_z
Zn1	Zn	-0.331401	1.413254	-0.591454
Zn2	Zn	-0.430225	1.404396	-0.440074
Zn3	Zn	-0.318526	1.253159	-0.431392
Zn4	Zn	-0.430176	1.261828	-0.582672
O5	O	-0.377582	1.333159	-0.511398
O6	O	-0.349919	1.538744	-0.578682
O7	O	-0.410040	1.376999	-0.312257
O8	O	-0.232149	1.274475	-0.452666
O9	O	-0.422525	1.532236	-0.467464
O10	O	-0.241609	1.392096	-0.570264
O11	O	-0.327975	1.265886	-0.305879
O12	O	-0.327928	1.127644	-0.444151
O13	O	-0.422442	1.289249	-0.710502
O14	O	-0.409957	1.134012	-0.555295
O15	O	-0.349872	1.400502	-0.716954
O16	O	-0.518303	1.385405	-0.458948
O17	O	-0.518267	1.280660	-0.563714
C18	C	-0.367540	1.097985	-0.497828
C19	C	-0.363260	0.997378	-0.492045
C20	C	-0.541127	1.333038	-0.511341
C21	C	-0.611096	1.333070	-0.511352
C22	C	-0.440754	0.814997	-0.596756
C23	C	-0.436734	0.720468	-0.591325
C24	C	-0.351200	0.713788	-0.475757
C25	C	-0.355219	0.808318	-0.481188
C26	C	-0.399998	0.858919	-0.541689
C27	C	-0.404020	0.953449	-0.547115
C28	C	-0.318483	0.946769	-0.431551
C29	C	-0.314464	0.852239	-0.426120
C30	C	-0.643966	1.387665	-0.456862
C31	C	-0.709711	1.387709	-0.456885
C32	C	-0.742583	1.333141	-0.511387
C33	C	-0.709706	1.278542	-0.565887
C34	C	-0.643963	1.278507	-0.565870
N35	N	-0.842766	1.254356	-0.513718
N36	N	-0.905219	1.254392	-0.513730
C37	C	-0.940664	1.333245	-0.511445
N38	N	-0.911297	1.412062	-0.509130
N39	N	-0.848837	1.412025	-0.509113
C40	C	-0.813871	1.333173	-0.511412
C41	C	-1.044822	1.387892	-0.456977
C42	C	-1.110569	1.387938	-0.457006
C43	C	-1.110563	1.278762	-0.566003
C44	C	-1.044818	1.278725	-0.565979
C45	C	-1.011951	1.333289	-0.511461
C46	C	-0.213401	1.333307	-0.511476
C47	C	-0.143437	1.333370	-0.511510
C48	C	-0.387587	1.346831	-0.747489
C49	C	-0.391851	1.352657	-0.848097
C50	C	-0.387664	1.569252	-0.525021
C51	C	-0.391960	1.669860	-0.530826
C52	C	-0.314409	1.247881	-1.030508
C53	C	-0.318413	1.253352	-1.125038
C54	C	-0.403865	1.369064	-1.131688
C55	C	-0.399861	1.363593	-1.037158
C56	C	-0.355131	1.303001	-0.986571
C57	C	-0.351125	1.297535	-0.892040
C58	C	-0.436580	1.413242	-0.898691
C59	C	-0.440583	1.418713	-0.993221
C60	C	-0.367573	1.319593	-0.276228
C61	C	-0.363139	1.313942	-0.175631
H62	H	-0.440482	0.994648	-0.596376
O63	O	-0.612005	1.440539	-0.403807
C64	C	-0.569339	1.385650	-0.342336
H65	H	-0.585914	1.314046	-0.332580
H66	H	-0.520558	1.384109	-0.370123
C67	C	-0.545882	1.512445	-0.262812
C68	C	-0.566242	1.424501	-0.250825
H69	H	-0.543969	1.536412	-0.206365
H70	H	-0.574624	1.549426	-0.304228
H71	H	-0.505232	1.511150	-0.285971
H72	H	-0.606894	1.425800	-0.227677
H73	H	-0.537506	1.387521	-0.209403
O74	O	-0.270943	1.188949	-0.981498
C75	C	-0.235845	1.141491	-1.040551
H76	H	-0.264346	1.142234	-1.107745
H77	H	-0.189879	1.175260	-1.052535
C78	C	-0.186094	1.042113	-0.915570
C79	C	-0.221101	1.043020	-0.998097
H80	H	-0.176996	0.981374	-0.889382
H81	H	-0.209738	1.074089	-0.875785
H82	H	-0.147793	1.070260	-0.925569
H83	H	-0.259405	1.014885	-0.988096
H84	H	-0.197463	1.011038	-1.037880
O85	O	-0.483947	1.477668	-1.042412
C86	C	-0.452919	1.539306	-1.100501
H87	H	-0.402375	1.543287	-1.072359
H88	H	-0.452593	1.515464	-1.170528
C89	C	-0.549825	1.628574	-1.141941
C90	C	-0.487747	1.633470	-1.107372
H91	H	-0.571309	1.686659	-1.146184
H92	H	-0.570730	1.587046	-1.102808
H93	H	-0.549544	1.608703	-1.200293
H94	H	-0.488028	1.653330	-1.049017
H95	H	-0.466843	1.675004	-1.146496
O96	O	-0.476201	1.466658	-0.855965
C97	C	-0.512332	1.411933	-0.798271
H98	H	-0.514387	1.342285	-0.822635
H99	H	-0.489702	1.404689	-0.726457
C100	C	-0.577068	1.541562	-0.769422
C101	C	-0.579597	1.456023	-0.799351
H102	H	-0.618560	1.568760	-0.770084
H103	H	-0.552725	1.578433	-0.808289
H104	H	-0.558207	1.535514	-0.709580
H105	H	-0.598450	1.462073	-0.859196
H106	H	-0.603945	1.419154	-0.760494
H107	H	-1.018061	1.432324	-0.412588
O108	O	-0.484268	0.864021	-0.655598
C109	C	-0.519393	0.804982	-0.703018
H110	H	-0.490885	0.737796	-0.702351
H111	H	-0.565327	0.792970	-0.669165
C112	C	-0.569233	0.929991	-0.802269
C113	C	-0.534218	0.847475	-0.801456
H114	H	-0.578381	0.956203	-0.862989
H115	H	-0.545571	0.969767	-0.770319
H116	H	-0.607508	0.919970	-0.774054
H117	H	-0.495941	0.857498	-0.829661
H118	H	-0.557874	0.807700	-0.833414
O119	O	-1.142467	1.225858	-0.619084
C120	C	-1.131010	1.250769	-0.710444
H121	H	-1.116170	1.323335	-0.719238
H122	H	-1.091801	1.203568	-0.731250
C123	C	-1.209731	1.154590	-0.759453
C124	C	-1.191510	1.243720	-0.770255
H125	H	-1.247049	1.150238	-0.796348
H126	H	-1.217449	1.137804	-0.697902
H127	H	-1.177052	1.115266	-0.776791
H128	H	-1.224186	1.283040	-0.752906
H129	H	-1.183799	1.260512	-0.831804
H130	H	-0.736475	1.234114	-0.610265
H131	H	-0.469920	0.684711	-0.636169
H132	H	-1.137330	1.432401	-0.412636
O133	O	-0.611954	1.225415	-0.618672
C134	C	-0.569315	1.163969	-0.563706
H135	H	-0.557928	1.191971	-0.496977
H136	H	-0.591415	1.096334	-0.549846
C137	C	-0.522253	1.115996	-0.694482
C138	C	-0.508263	1.150392	-0.612528
H139	H	-0.484594	1.107616	-0.724598
H140	H	-0.550981	1.157390	-0.731514
H141	H	-0.540670	1.059637	-0.682921
H142	H	-0.489853	1.206754	-0.624091
H143	H	-0.479530	1.109007	-0.575498
O144	O	-0.270999	0.803172	-0.367233
C145	C	-0.281831	0.820993	-0.278307
H146	H	-0.308863	0.889503	-0.280309
H147	H	-0.310606	0.765995	-0.244684
C148	C	-0.185077	0.738065	-0.221425
C149	C	-0.218273	0.822213	-0.223883
H150	H	-0.145872	0.738814	-0.187852
H151	H	-0.177780	0.726055	-0.281335
H152	H	-0.209063	0.692242	-0.193407
H153	H	-0.194291	0.868032	-0.251910
H154	H	-0.225565	0.834231	-0.163976
O155	O	-0.741549	1.440765	-0.403864
C156	C	-0.698444	1.488934	-0.355761
H157	H	-0.649887	1.451659	-0.350449
H158	H	-0.695739	1.559576	-0.392918
C159	C	-0.780242	1.542261	-0.266723
C160	C	-0.720604	1.496475	-0.260192
H161	H	-0.793912	1.546917	-0.207772
H162	H	-0.809284	1.509812	-0.299132
H163	H	-0.777980	1.601125	-0.297690
H164	H	-0.722868	1.437609	-0.229235
H165	H	-0.691563	1.528915	-0.227775
H166	H	-0.314701	1.248201	-0.850854
O167	O	-1.012866	1.225817	-0.619007
C168	C	-0.979448	1.280666	-0.680458
H169	H	-1.002493	1.352290	-0.690227
H170	H	-0.928578	1.282158	-0.652641
C171	C	-0.952229	1.153842	-0.759961
C172	C	-0.980536	1.241810	-0.771967
H173	H	-0.952897	1.129873	-0.816407
H174	H	-0.974741	1.116888	-0.718559
H175	H	-0.909840	1.155097	-0.736778
H176	H	-1.022927	1.240552	-0.795138
H177	H	-0.958031	1.278763	-0.813375
H178	H	-0.314740	0.672573	-0.426506
O179	O	-0.278943	1.199714	-1.167752
C180	C	-0.314604	1.144403	-1.219057
H181	H	-0.362736	1.137128	-1.190228
H182	H	-0.320998	1.176532	-1.292316
C183	C	-0.220785	1.059348	-1.250494
C184	C	-0.279900	1.050406	-1.215080
H185	H	-0.199378	1.001368	-1.248045
H186	H	-0.196759	1.096614	-1.215932
H187	H	-0.226122	1.086125	-1.311540
H188	H	-0.274562	1.023641	-1.154033
H189	H	-0.303924	1.013133	-1.249633
H190	H	-0.285299	0.982539	-0.386709
H191	H	-0.440290	1.418383	-1.172891
