data_functionalizedCrystal
_audit_creation_method	'MofGen! by Chris Wilmer'
_symmetry_space_group_name_H-M	'P1'
_symmetry_Int_Tables_number	1
_symmetry_cell_setting	triclinic
loop_
_symmetry_equiv_pos_as_xyz
  x,y,z
_cell_length_a	10.654550
_cell_length_b	13.101018
_cell_length_c	10.654550
_cell_angle_alpha	86.608452
_cell_angle_beta	84.484931
_cell_angle_gamma	93.391684
loop_
_atom_site_label
_atom_site_type_symbol
_atom_site_fract_x
_atom_site_fract_y
_atom_site_fract_z
O1	O	1.674692	0.085138	0.169539
O2	O	1.309215	0.085157	0.186344
O3	O	1.500356	0.085140	-0.004797
O4	O	1.483551	0.085154	0.360680
O5	O	1.486626	-0.085289	0.008929
O6	O	1.295485	-0.085273	0.200070
O7	O	1.660962	-0.085291	0.183265
Zn8	Zn	1.476043	-0.112341	0.193847
Zn9	Zn	1.494133	0.112206	0.175762
O10	O	1.469821	-0.085275	0.374406
C11	C	1.255552	-0.000056	0.191973
C12	C	1.116109	-0.000049	0.188280
C13	C	1.036624	-0.000047	0.300821
C14	C	0.905601	-0.000065	0.297346
C15	C	0.933563	-0.000082	0.068778
C16	C	1.064582	-0.000071	0.072255
N17	N	1.463707	-0.265589	0.206188
C18	C	1.523258	-0.525504	0.146614
C19	C	1.446933	-0.474625	0.222981
C20	C	1.456268	-0.358306	0.213635
C21	C	1.513924	-0.641832	0.155958
C22	C	1.714625	-0.000077	0.177636
C23	C	1.854068	-0.000077	0.181328
C24	C	1.492257	-0.000074	-0.044732
C25	C	1.488565	-0.000072	-0.184176
N26	N	1.506480	0.265454	0.163411
C27	C	1.601106	-0.000077	-0.263661
C28	C	1.597631	-0.000065	-0.394683
C29	C	1.369063	-0.000045	-0.366721
C30	C	1.372540	-0.000051	-0.235702
C31	C	1.477920	-0.000059	0.414341
C32	C	1.481612	-0.000054	0.553784
H33	H	0.891593	-0.000106	-0.025685
Cl34	Cl	0.805681	-0.000065	0.438834
Cl35	Cl	1.231049	-0.000035	-0.135771
Cl36	Cl	1.335227	-0.542244	0.334762
Cl37	Cl	1.634967	-0.457888	0.034846
H38	H	1.689273	-0.000067	-0.459395
Cl39	Cl	1.101395	-0.000026	0.446681
H40	H	1.129303	-0.000075	-0.019395
H41	H	1.695581	-0.000092	-0.221713
Cl42	Cl	1.223211	-0.000019	-0.431507
