data_functionalizedCrystal
_audit_creation_method	'MofGen! by Chris Wilmer'
_symmetry_space_group_name_H-M	'P1'
_symmetry_Int_Tables_number	1
_symmetry_cell_setting	triclinic
loop_
_symmetry_equiv_pos_as_xyz
  x,y,z
_cell_length_a	16.974800
_cell_length_b	11.026607
_cell_length_c	10.065907
_cell_angle_alpha	100.715461
_cell_angle_beta	84.844020
_cell_angle_gamma	95.962169
loop_
_atom_site_label
_atom_site_type_symbol
_atom_site_fract_x
_atom_site_fract_y
_atom_site_fract_z
O1	O	1.070761	0.155299	0.004821
O2	O	0.845348	0.171102	-0.020088
O3	O	0.939372	-0.013743	-0.009693
O4	O	0.976737	0.340144	-0.005574
O5	O	0.921407	0.021579	0.215310
O6	O	0.827383	0.206424	0.204915
O7	O	1.052796	0.190621	0.229824
Zn8	Zn	0.937237	0.204131	0.253093
Zn9	Zn	0.960906	0.157592	-0.043357
O10	O	0.958772	0.375466	0.219429
C11	C	0.807059	0.187508	0.089175
C12	C	0.719733	0.183753	0.079525
C13	C	0.668919	0.201241	0.197644
C14	C	0.586866	0.197694	0.188581
C15	C	0.555629	0.176668	0.061398
C16	C	0.606450	0.159175	-0.056730
C17	C	0.688501	0.162714	-0.047665
C18	C	0.311283	0.164013	0.021136
C19	C	0.229226	0.160480	0.012080
C20	C	0.209647	0.198997	0.257392
C21	C	0.291701	0.202541	0.266445
C22	C	0.342514	0.185041	0.148318
N23	N	0.471758	0.173046	0.052130
N24	N	0.426383	0.188655	0.157586
C25	C	0.923497	-0.041400	0.102045
C26	C	0.902949	-0.176435	0.099770
C27	C	0.959686	-0.249357	0.106037
C28	C	0.938450	-0.388923	0.103686
C29	C	1.091085	0.174215	0.120558
C30	C	1.178411	0.177968	0.130199
C31	C	0.974647	0.403123	0.107688
C32	C	0.995196	0.538157	0.109954
N33	N	0.921089	0.235892	0.455414
C34	C	0.942864	0.193083	0.682764
C35	C	0.955285	0.168630	0.526969
N36	N	0.977054	0.125831	0.754322
H37	H	0.317127	0.219657	0.370011
H38	H	0.581010	0.142047	-0.160285
H39	H	0.874150	-0.429812	0.096571
H40	H	0.168267	0.213242	0.353564
C41	C	0.869122	0.338142	0.528436
H42	H	0.849279	0.377158	0.463335
H43	H	0.900073	0.397826	0.587590
H44	H	0.825942	0.302511	0.579418
H45	H	0.694346	0.218373	0.301210
H46	H	0.203797	0.143361	-0.091493
H47	H	0.545495	0.211915	0.284765
C48	C	0.367167	0.144779	-0.108799
H49	H	0.336810	0.131765	-0.185839
H50	H	0.395586	0.074575	-0.110811
H51	H	0.403579	0.216150	-0.109923
H52	H	1.059505	-0.420973	0.116958
C53	C	0.890868	0.295287	0.755791
H54	H	0.871015	0.334293	0.690691
H55	H	0.921794	0.354990	0.814967
H56	H	0.847696	0.259610	0.806749
C57	C	1.046547	-0.194132	0.115641
H58	H	1.079391	-0.257982	0.119260
H59	H	1.050657	-0.132864	0.195251
H60	H	1.063188	-0.157498	0.038314
C61	C	1.007253	0.066382	0.453944
H62	H	1.027088	0.027353	0.519042
H63	H	1.050426	0.102004	0.402955
H64	H	0.976294	0.006691	0.394797
C65	C	1.029020	0.023588	0.681291
H66	H	1.048855	-0.015440	0.746389
H67	H	1.072193	0.059211	0.630302
H68	H	0.998061	-0.036102	0.622144
C69	C	0.744397	0.143485	-0.177595
H70	H	0.714044	0.130468	-0.254640
H71	H	0.772816	0.073283	-0.179600
H72	H	0.780808	0.214858	-0.178716
C73	C	0.816088	-0.231667	0.090170
H74	H	0.813210	-0.318224	0.089858
H75	H	0.796997	-0.217742	0.008908
H76	H	0.784470	-0.193115	0.165845
