data_functionalizedCrystal
_audit_creation_method	'MofGen! by Chris Wilmer'
_symmetry_space_group_name_H-M	'P1'
_symmetry_Int_Tables_number	1
_symmetry_cell_setting	triclinic
loop_
_symmetry_equiv_pos_as_xyz
  x,y,z
_cell_length_a	21.395364
_cell_length_b	11.169409
_cell_length_c	21.395361
_cell_angle_alpha	90.041458
_cell_angle_beta	89.954341
_cell_angle_gamma	89.976827
loop_
_atom_site_label
_atom_site_type_symbol
_atom_site_fract_x
_atom_site_fract_y
_atom_site_fract_z
Zn1	Zn	0.957851	-0.678574	0.249138
Zn2	Zn	0.957756	-0.477859	0.353934
Zn3	Zn	0.853068	-0.477897	0.249202
Zn4	Zn	0.853035	-0.678492	0.353909
O5	O	0.905427	-0.578206	0.301546
O6	O	1.045516	-0.651967	0.263023
O7	O	0.943843	-0.309914	0.340079
O8	O	0.867022	-0.504567	0.161515
O9	O	1.045446	-0.504503	0.340017
O10	O	0.944005	-0.652004	0.161468
O11	O	0.866929	-0.309942	0.263132
O12	O	0.765386	-0.504488	0.263108
O13	O	0.866965	-0.846453	0.339973
O14	O	0.765361	-0.651864	0.340035
O15	O	0.943973	-0.846513	0.262999
O16	O	0.943811	-0.504423	0.441609
O17	O	0.866873	-0.651828	0.441590
C18	C	0.742640	-0.578172	0.301576
C19	C	0.672999	-0.578186	0.301604
C20	C	0.640344	-0.655089	0.261579
C21	C	0.574909	-0.655094	0.261563
C22	C	0.542130	-0.578208	0.301582
C23	C	0.574793	-0.501289	0.341610
C24	C	0.640227	-0.501278	0.341621
C25	C	0.438406	-0.568552	0.358009
C26	C	0.372973	-0.568572	0.357999
C27	C	0.340310	-0.578234	0.301548
C28	C	0.373087	-0.587903	0.245105
C29	C	0.438521	-0.587892	0.245116
C30	C	0.471178	-0.578211	0.301574
C31	C	0.236703	-0.655147	0.261501
C32	C	0.171266	-0.655143	0.261484
C33	C	0.171151	-0.501345	0.341536
C34	C	0.236586	-0.501342	0.341548
C35	C	0.269358	-0.578250	0.301532
C36	C	0.905476	-0.891248	0.301476
C37	C	0.905496	-1.024648	0.301446
C38	C	1.068851	-0.578240	0.301516
C39	C	1.138492	-0.578255	0.301503
C40	C	0.905345	-0.578139	0.464333
C41	C	0.905367	-0.578150	0.533975
C42	C	0.905416	-0.266381	0.301570
C43	C	0.905516	-0.132981	0.301423
C44	C	0.905528	-0.578299	0.138122
C45	C	0.905570	-0.578339	0.068481
C46	C	0.945464	-0.501476	0.566677
C47	C	0.945493	-0.501502	0.632112
C48	C	0.905414	-0.578191	0.664843
C49	C	0.865314	-0.654881	0.632133
C50	C	0.865290	-0.654861	0.566699
C51	C	0.848999	-0.587597	0.768571
C52	C	0.849021	-0.587609	0.834004
C53	C	0.905487	-0.578262	0.866664
C54	C	0.961931	-0.568878	0.833882
C55	C	0.961908	-0.568857	0.768448
C56	C	0.905435	-0.578223	0.735795
C57	C	0.945619	-0.501612	0.970318
C58	C	0.945649	-0.501647	1.035755
C59	C	0.865464	-0.655020	1.035774
C60	C	0.865440	-0.654991	0.970339
C61	C	0.905516	-0.578281	0.937615
H62	H	0.548316	-0.717716	0.228967
C63	C	0.989758	-0.417300	1.071727
H64	H	1.013616	-0.371607	1.042864
H65	H	1.017057	-0.463260	1.097199
H66	H	0.965807	-0.364974	1.097305
H67	H	0.346494	-0.595771	0.199137
C68	C	0.821379	-0.739383	1.071768
H69	H	0.797496	-0.785049	1.042917
H70	H	0.794101	-0.693437	1.097349
H71	H	0.845347	-0.791732	1.097238
C72	C	0.474577	-0.598517	0.183037
H73	H	0.518224	-0.597134	0.191131
H74	H	0.463864	-0.533326	0.156640
H75	H	0.463894	-0.671663	0.163044
C76	C	0.272754	-0.739730	0.217481
H77	H	0.243932	-0.785521	0.193634
H78	H	0.298269	-0.791936	0.241483
H79	H	0.298296	-0.693905	0.190158
C80	C	0.676390	-0.739669	0.217555
H81	H	0.647566	-0.785462	0.193711
H82	H	0.701909	-0.791873	0.241554
H83	H	0.701926	-0.693839	0.190230
C84	C	0.135103	-0.416777	0.385560
H85	H	0.091455	-0.427802	0.379825
H86	H	0.145814	-0.336167	0.376349
H87	H	0.145791	-0.434206	0.427671
C88	C	0.989599	-0.417158	0.668095
H89	H	0.983875	-0.428164	0.711752
H90	H	0.980446	-0.336499	0.657420
H91	H	1.031692	-0.434795	0.657316
C92	C	0.989553	-0.417111	0.530683
H93	H	1.013442	-0.371458	0.559535
H94	H	0.965594	-0.364768	0.505206
H95	H	1.016834	-0.463073	0.505108
H96	H	1.007866	-0.561219	0.741759
H97	H	0.832638	-0.717300	0.540072
C98	C	0.786885	-0.597877	0.732649
H99	H	0.794954	-0.596532	0.688984
H100	H	0.760552	-0.532545	0.743433
H101	H	0.766834	-0.670916	0.743361
C102	C	0.538739	-0.416722	0.385633
H103	H	0.495092	-0.427752	0.379899
H104	H	0.549448	-0.336112	0.376419
H105	H	0.549429	-0.434145	0.427744
C106	C	0.135346	-0.739742	0.217454
H107	H	0.164238	-0.785547	0.193629
H108	H	0.109836	-0.693938	0.190120
H109	H	0.109810	-0.791952	0.241454
C110	C	0.272508	-0.416761	0.385583
H111	H	0.243616	-0.370976	0.409419
H112	H	0.298045	-0.364548	0.361591
H113	H	0.298017	-0.462581	0.412916
H114	H	1.007911	-0.561267	0.860472
H115	H	0.832786	-0.717422	0.943711
C116	C	0.989707	-0.417254	0.934316
H117	H	0.983945	-0.428212	0.890661
H118	H	1.031803	-0.434902	0.944981
H119	H	0.980562	-0.336596	0.945088
H120	H	0.346291	-0.560705	0.403958
C121	C	0.474330	-0.557932	0.420109
H122	H	0.445439	-0.552197	0.453722
H123	H	0.499841	-0.488365	0.419264
H124	H	0.499865	-0.626704	0.425656
C125	C	0.676148	-0.416692	0.385656
H126	H	0.647257	-0.370904	0.409491
H127	H	0.701688	-0.364482	0.361665
H128	H	0.701655	-0.462516	0.412989
H129	H	0.803061	-0.595238	0.860690
C130	C	0.821227	-0.739234	0.668134
H131	H	0.826979	-0.728257	0.711788
H132	H	0.830370	-0.819887	0.657364
H133	H	0.779128	-0.721585	0.657466
