data_functionalizedCrystal
_audit_creation_method	'MofGen! by Chris Wilmer'
_symmetry_space_group_name_H-M	'P1'
_symmetry_Int_Tables_number	1
_symmetry_cell_setting	triclinic
loop_
_symmetry_equiv_pos_as_xyz
  x,y,z
_cell_length_a	16.992694
_cell_length_b	8.559649
_cell_length_c	15.455313
_cell_angle_alpha	92.289439
_cell_angle_beta	87.142206
_cell_angle_gamma	80.223444
loop_
_atom_site_label
_atom_site_type_symbol
_atom_site_fract_x
_atom_site_fract_y
_atom_site_fract_z
O1	O	1.023967	0.329735	-0.072017
O2	O	1.523967	0.829735	0.427983
O3	O	0.795905	0.326044	-0.072043
O4	O	1.295905	0.826044	0.427957
O5	O	0.930028	0.097853	-0.072027
O6	O	1.430028	0.597853	0.427973
O7	O	0.889844	0.557925	-0.072033
O8	O	1.389844	1.057925	0.427967
O9	O	0.922362	0.110845	0.072234
O10	O	1.422362	0.610845	0.572234
O11	O	0.788239	0.339035	0.072218
O12	O	1.288239	0.839035	0.572218
O13	O	1.016301	0.342726	0.072244
O14	O	1.516301	0.842726	0.572244
Cu15	Cu	0.901570	0.342067	0.085403
Cu16	Cu	1.401570	0.842067	0.585403
Cu17	Cu	0.910636	0.326703	-0.085202
Cu18	Cu	1.410636	0.826703	0.414798
O19	O	0.882177	0.570917	0.072228
O20	O	1.382177	1.070917	0.572228
C21	C	0.763145	0.327794	0.000084
C22	C	1.263145	0.827794	0.500084
C23	C	0.676954	0.313635	0.000075
C24	C	1.176954	0.813635	0.500075
C25	C	0.618488	0.450242	0.000073
C26	C	1.118488	0.950242	0.500073
C27	C	0.537502	0.436931	0.000086
C28	C	1.037502	0.936931	0.500086
C29	C	0.514985	0.287010	0.000093
C30	C	1.014985	0.787010	0.500093
C31	C	0.573459	0.150392	0.000096
C32	C	1.073459	0.650392	0.500096
C33	C	0.654442	0.163706	0.000090
C34	C	1.154442	0.663706	0.500090
C35	C	0.274709	0.231831	0.000117
C36	C	0.774709	0.731831	0.500117
C37	C	0.193718	0.218527	0.000120
C38	C	0.693718	0.718527	0.500120
C39	C	0.157767	0.505067	0.000111
C40	C	0.657767	1.005067	0.500111
C41	C	0.238755	0.518367	0.000099
C42	C	0.738755	1.018367	0.500099
C43	C	0.297221	0.381750	0.000108
C44	C	0.797221	0.881750	0.500108
N45	N	0.432205	0.273400	0.000102
N46	N	0.932205	0.773400	0.500102
N47	N	0.379998	0.395362	0.000104
N48	N	0.879998	0.895362	0.500104
C49	C	0.929241	0.045208	0.000102
C50	C	1.429241	0.545208	0.500102
C51	C	0.938306	-0.131015	0.000099
C52	C	1.438306	0.368985	0.500099
C53	C	1.049061	0.340976	0.000115
C54	C	1.549061	0.840976	0.500115
C55	C	1.135252	0.355134	0.000119
C56	C	1.635252	0.855134	0.500119
C57	C	0.882965	0.623562	0.000097
C58	C	1.382965	1.123562	0.500097
C59	C	0.873900	0.799784	0.000095
C60	C	1.373900	1.299784	0.500095
N61	N	0.895199	0.352873	0.205398
N62	N	1.395199	0.852873	0.705398
N63	N	0.917014	0.315885	-0.205197
N64	N	1.417014	0.815885	0.294803
C65	C	0.952194	0.255970	0.250799
C66	C	1.452194	0.755970	0.750799
C67	C	0.947382	0.264158	0.341606
C68	C	1.447382	0.764158	0.841606
C69	C	0.885578	0.369258	0.387011
C70	C	1.385578	0.869258	0.887011
C71	C	0.828576	0.466164	0.341604
C72	C	1.328576	0.966164	0.841604
C73	C	0.833386	0.457968	0.250798
C74	C	1.333386	0.957968	0.750798
C75	C	0.864822	0.404595	0.658590
C76	C	1.364822	0.904595	1.158590
C77	C	0.860018	0.412788	0.749402
C78	C	1.360018	0.912788	1.249402
C79	C	0.978824	0.210778	0.749398
C80	C	1.478824	0.710778	1.249398
C81	C	0.983631	0.202598	0.658591
C82	C	1.483631	0.702598	1.158591
C83	C	0.926627	0.299499	0.613191
C84	C	1.426627	0.799499	1.113191
N85	N	0.880659	0.377633	0.479831
N86	N	1.380659	0.877633	0.979831
N87	N	0.931543	0.291114	0.520373
N88	N	1.431543	0.791114	1.020373
H89	H	0.110156	0.616293	0.000106
H90	H	0.610156	1.116293	0.500106
H91	H	0.778250	0.551733	0.378578
H92	H	1.278250	1.051733	0.878578
O93	O	0.263045	0.680064	0.000093
O94	O	0.763045	1.180064	0.500093
H95	H	0.295973	0.698264	0.058884
H96	H	0.795973	1.198264	0.558884
H97	H	0.993792	0.185251	0.378571
H98	H	1.493792	0.685251	0.878571
O99	O	0.717506	0.016365	0.000098
O100	O	1.217506	0.516365	0.500098
H101	H	0.758387	0.010279	-0.058696
H102	H	1.258387	0.510279	0.441304
O103	O	0.169427	0.056820	0.000136
O104	O	0.669427	0.556820	0.500136
H105	H	0.223687	-0.035942	0.000150
H106	H	0.723687	0.464058	0.500150
H107	H	0.809687	0.498379	0.786366
H108	H	1.309687	0.998379	1.286366
H109	H	1.000384	-0.206593	0.000112
H110	H	1.500384	0.293407	0.500112
H111	H	0.811825	-0.124646	0.000091
H112	H	1.311825	0.375354	0.500091
H113	H	0.322303	0.120586	0.000124
H114	H	0.822303	0.620586	0.500124
O115	O	1.050286	0.089226	0.609618
O116	O	1.550286	0.589226	1.109618
H117	H	1.089106	0.023205	0.656444
H118	H	1.589106	0.523205	1.156444
O119	O	1.018853	0.142605	0.201827
O120	O	1.518853	0.642605	0.701827
H121	H	1.057671	0.076586	0.248657
H122	H	1.557671	0.576586	0.748657
O123	O	1.040300	0.106252	0.798362
O124	O	1.540300	0.606252	1.298362
H125	H	1.026571	0.129593	0.869133
H126	H	1.526571	0.629593	1.369133
O127	O	0.803349	0.509120	0.609628
O128	O	1.303349	1.009120	1.109628
H129	H	0.759573	0.583591	0.656459
H130	H	1.259573	1.083591	1.156459
O131	O	0.771916	0.562491	0.201823
O132	O	1.271916	1.062491	0.701823
H133	H	0.728136	0.636963	0.248649
H134	H	1.228136	1.136963	0.748649
H135	H	0.555118	0.028324	0.000115
H136	H	1.055118	0.528324	0.500115
H137	H	0.636813	0.572324	0.000067
H138	H	1.136813	1.072324	0.500067
H139	H	0.489900	0.548172	0.000084
H140	H	0.989900	1.048172	0.500084
