data_functionalizedCrystal
_audit_creation_method	'MofGen! by Chris Wilmer'
_symmetry_space_group_name_H-M	'P1'
_symmetry_Int_Tables_number	1
_symmetry_cell_setting	triclinic
loop_
_symmetry_equiv_pos_as_xyz
  x,y,z
_cell_length_a	16.109301
_cell_length_b	19.288865
_cell_length_c	18.366186
_cell_angle_alpha	90.011479
_cell_angle_beta	89.993673
_cell_angle_gamma	96.701136
loop_
_atom_site_label
_atom_site_type_symbol
_atom_site_fract_x
_atom_site_fract_y
_atom_site_fract_z
O1	O	1.102832	-0.089282	-0.060512
O2	O	1.602832	0.410718	0.439488
O3	O	0.860732	-0.100392	-0.060525
O4	O	1.360732	0.399608	0.439475
O5	O	0.988777	0.006277	-0.060504
O6	O	1.488777	0.506277	0.439496
O7	O	0.974786	-0.195951	-0.060533
O8	O	1.474786	0.304049	0.439467
O9	O	0.988756	0.006282	0.060596
O10	O	1.488756	0.506282	0.560596
O11	O	0.860710	-0.100387	0.060575
O12	O	1.360710	0.399613	0.560575
O13	O	1.102810	-0.089276	0.060587
O14	O	1.602810	0.410724	0.560587
Zn15	Zn	0.981757	-0.094831	0.079808
Zn16	Zn	1.481757	0.405169	0.579808
Zn17	Zn	0.981785	-0.094838	-0.079746
Zn18	Zn	1.481785	0.405162	0.420254
O19	O	0.974765	-0.195945	0.060566
O20	O	1.474765	0.304055	0.560566
C21	C	0.988316	0.032157	0.000048
C22	C	1.488316	0.532157	0.500048
C23	C	0.986965	0.109264	0.000054
C24	C	1.486965	0.609264	0.500054
C25	C	0.829748	-0.099940	0.000023
C26	C	1.329748	0.400060	0.500023
C27	C	0.737457	-0.098590	0.000019
C28	C	1.237457	0.401410	0.500019
N29	N	0.981743	-0.094826	0.188699
N30	N	1.481743	0.405174	0.688699
C31	C	0.514979	-0.158748	0.000019
C32	C	1.014979	0.341252	0.500019
C33	C	0.428263	-0.157475	0.000024
C34	C	0.928263	0.342525	0.500024
C35	C	0.448570	-0.030916	0.000039
C36	C	0.948570	0.469084	0.500039
C37	C	0.535284	-0.032190	0.000040
C38	C	1.035284	0.467810	0.500040
C39	C	0.568486	-0.096108	0.000026
C40	C	1.068486	0.403892	0.500026
C41	C	0.395056	-0.093561	0.000030
C42	C	0.895056	0.406439	0.500030
C43	C	0.301034	-0.092180	0.000036
C44	C	0.801034	0.407820	0.500036
C45	C	0.662513	-0.097489	0.000022
C46	C	1.162513	0.402511	0.500022
C47	C	1.133794	-0.089729	0.000037
C48	C	1.633794	0.410271	0.500037
C49	C	1.226085	-0.091078	0.000037
C50	C	1.726085	0.408922	0.500037
C51	C	0.975226	-0.221825	0.000013
C52	C	1.475226	0.278175	0.500013
C53	C	0.976577	-0.298932	0.000002
C54	C	1.476577	0.201068	0.500002
C55	C	1.062096	0.153781	0.000062
C56	C	1.562096	0.653781	0.500062
C57	C	1.060827	0.226231	0.000050
C58	C	1.560827	0.726231	0.500050
C59	C	0.984421	0.254161	0.000046
C60	C	1.484421	0.754161	0.500046
C61	C	0.909280	0.209634	0.000034
C62	C	1.409280	0.709634	0.500034
C63	C	0.910552	0.137185	0.000039
C64	C	1.410552	0.637185	0.500039
C65	C	0.924350	0.362593	0.042461
C66	C	1.424350	0.862593	0.542461
C67	C	0.923082	0.435041	0.042462
C68	C	1.423082	0.935041	0.542462
C69	C	0.980496	0.477616	0.000029
C70	C	1.480496	0.977616	0.500029
C71	C	1.039193	0.447735	-0.042393
C72	C	1.539193	0.947735	0.457607
C73	C	1.040464	0.375287	-0.042389
C74	C	1.540464	0.875287	0.457611
C75	C	0.983034	0.332718	0.000041
C76	C	1.483034	0.832718	0.500041
C77	C	1.054256	0.600692	0.000023
C78	C	1.554256	1.100692	0.500023
C79	C	1.052983	0.673143	0.000007
C80	C	1.552983	1.173143	0.500007
C81	C	0.901434	0.656544	-0.000001
C82	C	1.401434	1.156544	0.499999
C83	C	0.902709	0.584095	0.000007
C84	C	1.402709	1.084095	0.500007
C85	C	0.979122	0.556173	0.000023
C86	C	1.479122	1.056173	0.500023
N87	N	0.981805	-0.094837	-0.188637
N88	N	1.481805	0.405163	0.311363
C89	C	1.038460	-0.047616	0.226809
C90	C	1.538460	0.452384	0.726809
C91	C	1.038466	-0.047613	0.303037
C92	C	1.538466	0.452387	0.803037
C93	C	0.981762	-0.094831	0.341152
C94	C	1.481762	0.405169	0.841152
C95	C	0.925034	-0.142045	0.303033
C96	C	1.425034	0.357955	0.803033
C97	C	0.925025	-0.142042	0.226807
C98	C	1.425025	0.357958	0.726807
C99	C	0.970632	-0.158093	0.461903
C100	C	1.470632	0.341907	0.961903
C101	C	0.970647	-0.158097	0.538128
C102	C	1.470647	0.341903	1.038128
C103	C	0.981785	-0.094840	0.576259
C104	C	1.481785	0.405160	1.076259
C105	C	0.992926	-0.031577	0.538157
C106	C	1.492926	0.468423	1.038157
C107	C	0.992917	-0.031574	0.461931
C108	C	1.492917	0.468426	0.961931
C109	C	0.981765	-0.094840	0.423807
C110	C	1.481765	0.405160	0.923807
C111	C	1.038511	-0.047623	0.697024
C112	C	1.538511	0.452377	1.197024
C113	C	1.038511	-0.047619	0.773253
C114	C	1.538511	0.452381	1.273253
C115	C	0.925083	-0.142057	0.773248
C116	C	1.425083	0.357943	1.273248
C117	C	0.925080	-0.142055	0.697020
C118	C	1.425080	0.357945	1.197020
C119	C	0.981798	-0.094839	0.658913
C120	C	1.481798	0.405161	1.158913
H121	H	0.542008	-0.210794	0.000013
H122	H	1.042008	0.289206	0.500013
H123	H	1.088256	0.350962	-0.076933
H124	H	1.588256	0.850962	0.423067
H125	H	1.084692	-0.009175	0.665996
H126	H	1.584692	0.490825	1.165996
H127	H	0.875284	0.459363	0.077000
H128	H	1.375284	0.959363	0.577000
N129	N	0.370550	-0.225036	0.000057
N130	N	0.870550	0.274964	0.500057
H131	H	0.404745	-0.265719	0.000061
H132	H	0.904745	0.234281	0.500061
H133	H	0.334111	-0.227293	-0.044822
H134	H	0.834111	0.272707	0.455178
N135	N	0.412759	0.038022	0.000058
N136	N	0.912759	0.538022	0.500058
H137	H	0.349706	0.029325	0.000056
H138	H	0.849706	0.529325	0.500056
H139	H	0.432355	0.065432	-0.044830
H140	H	0.932355	0.565432	0.455170
H141	H	1.114166	0.709389	0.000009
H142	H	1.614166	1.209389	0.500009
N143	N	0.862417	0.316675	0.088226
N144	N	1.362417	0.816675	0.588226
H145	H	0.825046	0.346596	0.115103
H146	H	1.325046	0.846596	0.615103
H147	H	0.893531	0.289974	0.124468
H148	H	1.393531	0.789974	0.624468
H149	H	1.116476	0.577957	0.000033
H150	H	1.616476	1.077957	0.500033
H151	H	0.578853	0.018823	0.000047
H152	H	1.078853	0.518823	0.500047
N153	N	1.144509	0.123665	0.000078
N154	N	1.644509	0.623665	0.500078
H155	H	1.191912	0.162864	0.000080
H156	H	1.691912	0.662864	0.500080
H157	H	1.148350	0.093958	-0.044814
H158	H	1.648350	0.593958	0.455186
N159	N	0.826871	0.239753	0.000026
N160	N	1.326871	0.739753	0.500026
H161	H	0.837465	0.292404	0.000026
H162	H	1.337465	0.792404	0.500026
H163	H	0.793995	0.223474	0.044916
H164	H	1.293995	0.723474	0.544916
H165	H	1.122009	0.262483	0.000054
H166	H	1.622009	0.762483	0.500054
N167	N	1.101127	0.493644	-0.088161
N168	N	1.601127	0.993644	0.411839
H169	H	1.091415	0.544074	-0.081732
H170	H	1.591415	1.044074	0.418268
H171	H	1.093586	0.480114	-0.141080
H172	H	1.593586	0.980114	0.358920
N173	N	0.819024	0.686658	-0.000014
N174	N	1.319024	1.186658	0.499986
H175	H	0.829617	0.739309	-0.000018
H176	H	1.329617	1.239309	0.499982
H177	H	0.786147	0.670382	0.044877
H178	H	1.286147	1.170382	0.544877
H179	H	0.841529	0.547848	0.000005
H180	H	1.341529	1.047848	0.500005
H181	H	0.849369	0.100939	0.000033
H182	H	1.349369	0.600939	0.500033
H183	H	1.084642	-0.009168	0.195784
H184	H	1.584642	0.490832	0.695784
H185	H	1.084653	-0.009167	0.334071
H186	H	1.584653	0.490833	0.834071
N187	N	0.863916	-0.192982	0.814347
N188	N	1.363916	0.307018	1.314347
H189	H	0.872525	-0.185820	0.868419
H190	H	1.372525	0.314180	1.368419
H191	H	0.873328	-0.242260	0.801010
H192	H	1.373328	0.257740	1.301010
H193	H	1.001986	0.019936	0.430911
H194	H	1.501986	0.519936	0.930911
H195	H	1.001996	0.019932	0.569202
H196	H	1.501996	0.519932	1.069202
N197	N	0.863877	-0.192972	0.344143
N198	N	1.363877	0.307028	0.844143
H199	H	0.873258	-0.242273	0.330861
H200	H	1.373258	0.257727	0.830861
H201	H	0.804929	-0.184893	0.330877
H202	H	1.304929	0.315107	0.830877
H203	H	1.084694	-0.009172	0.804283
H204	H	1.584694	0.490828	1.304283
N205	N	0.863905	-0.192974	0.655910
N206	N	1.363905	0.307026	1.155910
H207	H	0.827982	-0.222887	0.691621
H208	H	1.327982	0.277113	1.191621
H209	H	0.895609	-0.223690	0.624267
H210	H	1.395609	0.276310	1.124267
H211	H	0.961581	-0.209609	0.569145
H212	H	1.461581	0.290391	1.069145
N213	N	0.958619	-0.226323	0.420778
N214	N	1.458619	0.273677	0.920778
H215	H	0.951573	-0.266399	0.456480
H216	H	1.451573	0.233601	0.956480
H217	H	1.009108	-0.230387	0.389142
H218	H	1.509108	0.269613	0.889142
H219	H	0.878838	-0.180486	0.195777
H220	H	1.378838	0.319514	0.695777
