data_functionalizedCrystal
_audit_creation_method	'MofGen! by Chris Wilmer'
_symmetry_space_group_name_H-M	'P1'
_symmetry_Int_Tables_number	1
_symmetry_cell_setting	triclinic
loop_
_symmetry_equiv_pos_as_xyz
  x,y,z
_cell_length_a	12.827893
_cell_length_b	25.639239
_cell_length_c	12.827885
_cell_angle_alpha	89.958098
_cell_angle_beta	90.019272
_cell_angle_gamma	89.960147
loop_
_atom_site_label
_atom_site_type_symbol
_atom_site_fract_x
_atom_site_fract_y
_atom_site_fract_z
Zn1	Zn	1.597492	0.208126	0.590761
Zn2	Zn	1.597311	0.295571	0.415984
Zn3	Zn	1.422733	0.208151	0.416034
Zn4	Zn	1.422644	0.295532	0.590684
O5	O	1.510045	0.251845	0.503366
O6	O	1.743704	0.219731	0.567587
O7	O	1.574115	0.284002	0.269754
O8	O	1.446028	0.134983	0.439265
O9	O	1.743571	0.283977	0.439179
O10	O	1.574423	0.134964	0.567636
O11	O	1.445853	0.219775	0.269791
O12	O	1.276485	0.219737	0.439191
O13	O	1.445876	0.283911	0.736930
O14	O	1.276420	0.283935	0.567505
O15	O	1.574336	0.219694	0.736987
O16	O	1.574028	0.368731	0.439105
O17	O	1.445701	0.368703	0.567456
C18	C	1.238535	0.251835	0.503346
C19	C	1.122382	0.251843	0.503362
C20	C	1.070592	0.283660	0.566758
C21	C	0.950542	0.283670	0.566776
C22	C	1.509864	0.387688	0.503290
C23	C	1.509882	0.445802	0.503292
C24	C	1.576795	0.806117	0.570353
C25	C	1.576813	0.860721	0.570377
O26	O	1.633599	0.888917	0.627298
N27	N	1.510032	0.888084	0.503495
C28	C	1.443222	0.860840	0.436592
O29	O	1.386421	0.889129	0.379706
C30	C	1.443200	0.806237	0.436574
C31	C	1.509993	0.778877	0.503453
C32	C	1.643582	0.778756	0.637228
C33	C	1.643566	0.724156	0.637203
C34	C	1.576763	0.696915	0.570303
C35	C	1.509977	0.724276	0.503428
C36	C	1.376386	0.778994	0.369678
C37	C	1.376369	0.724387	0.369666
C38	C	1.443162	0.697027	0.436545
C39	C	1.443158	0.642435	0.436503
N40	N	1.509939	0.615072	0.503385
C41	C	1.576741	0.642312	0.570285
C42	C	1.443271	0.975511	0.436635
C43	C	1.443298	1.030113	0.436647
C44	C	1.576887	1.029990	0.570433
C45	C	1.576866	0.975387	0.570416
C46	C	1.510052	0.948148	0.503517
C47	C	1.576703	0.527647	0.570226
C48	C	1.576684	0.473042	0.570192
C49	C	1.443091	0.473170	0.436410
C50	C	1.443113	0.527770	0.436440
C51	C	1.509923	0.555008	0.503356
O52	O	1.386398	0.614205	0.379614
O53	O	1.633523	0.614017	0.627171
C54	C	1.782615	0.251856	0.503386
C55	C	1.898768	0.251860	0.503395
C56	C	1.510116	0.251795	0.775936
C57	C	1.510146	0.251774	0.892089
C58	C	1.510193	1.115472	0.503476
C59	C	1.510097	1.057358	0.503551
C60	C	1.510034	0.251857	0.231856
C61	C	1.510206	0.251731	0.115703
C62	C	1.573719	0.219991	0.943902
C63	C	1.573752	0.219968	1.063952
H64	H	1.115130	0.310891	0.621024
O65	O	0.951770	0.219288	0.438687
C66	C	0.985490	0.130334	0.388361
C67	C	0.925374	0.167162	0.461692
H68	H	0.964187	0.088181	0.406949
H69	H	0.964016	0.139415	0.304030
H70	H	1.072839	0.136144	0.399862
H71	H	0.838011	0.161372	0.450284
H72	H	0.946934	0.158071	0.545996
H73	H	1.077844	0.224608	0.449104
O74	O	1.638595	0.187598	0.890641
C75	C	1.697644	0.158051	0.722428
C76	C	1.624132	0.194770	0.782612
H77	H	1.685960	0.163829	0.635076
H78	H	1.781940	0.167226	0.743748
H79	H	1.679401	0.115882	0.743916
H80	H	1.642281	0.236951	0.761156
H81	H	1.539857	0.185551	0.761286
O82	O	1.641452	0.554126	0.635335
C83	C	1.655472	0.615720	0.776429
C84	C	1.582022	0.585755	0.702784
H85	H	1.607454	0.641308	0.830965
H86	H	1.703183	0.586804	0.824294
H87	H	1.710171	0.641260	0.728490
H88	H	1.527260	0.560215	0.750642
H89	H	1.534385	0.614700	0.654915
O90	O	1.641678	0.446441	0.635016
C91	C	1.782703	0.384706	0.649189
C92	C	1.709186	0.414805	0.575658
H93	H	1.837288	0.359112	0.601228
H94	H	1.830523	0.413535	0.696991
H95	H	1.734665	0.359160	0.703798
H96	H	1.757143	0.440351	0.520985
H97	H	1.661363	0.385948	0.527929
H98	H	1.455737	0.278964	0.936607
O99	O	0.897531	0.316141	0.631678
C100	C	0.863938	0.341587	0.809319
C101	C	0.924060	0.304789	0.735932
H102	H	0.885348	0.332415	0.893625
H103	H	0.885301	0.383753	0.790914
H104	H	0.776590	0.335812	0.797742
H105	H	1.011422	0.310517	0.747469
H106	H	0.902610	0.262637	0.754355
O107	O	1.708476	0.697662	0.702274
C108	C	1.841021	0.703323	0.834930
C109	C	1.767544	0.733387	0.761302
H110	H	1.888812	0.732194	0.882658
H111	H	1.793058	0.677771	0.889595
H112	H	1.895643	0.677743	0.786983
H113	H	1.712907	0.758995	0.809165
H114	H	1.815572	0.758907	0.706633
O115	O	1.708333	0.805235	0.702328
C116	C	1.722380	0.866828	0.843422
C117	C	1.648917	0.836870	0.769780
H118	H	1.674374	0.892420	0.897960
H119	H	1.770084	0.837908	0.891285
H120	H	1.777085	0.892363	0.795479
H121	H	1.594149	0.811334	0.817641
H122	H	1.601287	0.865818	0.721914
H123	H	1.321996	0.801262	0.315217
H124	H	1.631253	0.953113	0.624875
H125	H	1.628183	0.192759	1.108510
O126	O	1.641874	1.056376	0.635462
C127	C	1.774325	1.050506	0.768209
C128	C	1.700803	1.020558	0.694608
H129	H	1.821972	1.021561	0.816064
H130	H	1.829070	1.076055	0.720340
H131	H	1.726299	1.076079	0.822766
H132	H	1.748745	0.994957	0.640036
H133	H	1.646055	0.995042	0.742542
O134	O	1.378325	1.056607	0.371639
C135	C	1.245866	1.050951	0.238896
C136	C	1.319384	1.020885	0.312478
H137	H	1.198209	1.022083	0.191030
H138	H	1.191130	1.076501	0.286781
H139	H	1.293895	1.076535	0.184349
H140	H	1.271440	0.995273	0.367040
H141	H	1.374124	0.995368	0.264528
H142	H	1.388867	0.953336	0.382150
H143	H	1.321958	0.702212	0.315191
H144	H	1.388734	0.550048	0.381973
O145	O	1.378234	0.446622	0.371526
C146	C	1.319050	0.362551	0.312183
C147	C	1.392543	0.392552	0.385726
H148	H	1.330608	0.318829	0.323621
H149	H	1.234756	0.373273	0.330471
H150	H	1.337428	0.373345	0.227946
H151	H	1.374258	0.381773	0.469987
H152	H	1.476814	0.381826	0.367347
H153	H	1.455780	0.278945	1.071152
