data_functionalizedCrystal
_audit_creation_method	'MofGen! by Chris Wilmer'
_symmetry_space_group_name_H-M	'P1'
_symmetry_Int_Tables_number	1
_symmetry_cell_setting	triclinic
loop_
_symmetry_equiv_pos_as_xyz
  x,y,z
_cell_length_a	14.519709
_cell_length_b	15.944551
_cell_length_c	13.596369
_cell_angle_alpha	89.993059
_cell_angle_beta	90.000291
_cell_angle_gamma	83.589442
loop_
_atom_site_label
_atom_site_type_symbol
_atom_site_fract_x
_atom_site_fract_y
_atom_site_fract_z
O1	O	1.223676	0.110109	-0.081665
O2	O	1.723676	0.610109	0.418335
O3	O	0.955176	0.123076	-0.081696
O4	O	1.455176	0.623076	0.418304
O5	O	1.096758	-0.005672	-0.081671
O6	O	1.596758	0.494328	0.418329
O7	O	1.082094	0.238856	-0.081690
O8	O	1.582094	0.738856	0.418310
O9	O	1.096744	-0.005679	0.081912
O10	O	1.596744	0.494321	0.581912
O11	O	0.955162	0.123069	0.081887
O12	O	1.455162	0.623069	0.581887
O13	O	1.223662	0.110102	0.081917
O14	O	1.723662	0.610102	0.581917
Zn15	Zn	1.089410	0.116584	0.107875
Zn16	Zn	1.589410	0.616584	0.607875
Zn17	Zn	1.089428	0.116593	-0.107653
Zn18	Zn	1.589428	0.616593	0.392347
O19	O	1.082080	0.238850	0.081893
O20	O	1.582080	0.738850	0.581893
C21	C	0.920810	0.122468	0.000092
C22	C	1.420810	0.622468	0.500092
C23	C	0.818432	0.120657	0.000081
C24	C	1.318432	0.620657	0.500081
C25	C	0.443548	0.113990	0.000126
C26	C	0.943548	0.613990	0.500126
C27	C	0.547853	0.115842	0.000113
C28	C	1.047853	0.615842	0.500113
C29	C	0.630987	0.117323	0.000102
C30	C	1.130987	0.617323	0.500102
C31	C	0.735298	0.119175	0.000091
C32	C	1.235298	0.619175	0.500091
C33	C	1.096142	-0.036970	0.000121
C34	C	1.596142	0.463030	0.500121
C35	C	1.094317	-0.130219	0.000121
C36	C	1.594317	0.369781	0.500121
C37	C	1.002196	-0.345209	0.000097
C38	C	1.502196	0.154791	0.500097
C39	C	1.044967	-0.406168	0.080758
C40	C	1.544967	0.093832	0.580758
C41	C	1.091015	-0.300950	0.000113
C42	C	1.591015	0.199050	0.500113
C43	C	1.045002	-0.406144	-0.080522
C44	C	1.545002	0.093856	0.419478
C45	C	1.087820	-0.465867	0.000101
C46	C	1.587820	0.034133	0.500101
C47	C	1.133811	-0.360680	0.080841
C48	C	1.633811	0.139320	0.580841
C49	C	1.133833	-0.360650	-0.080512
C50	C	1.633833	0.139350	0.419488
C51	C	1.176669	-0.421591	0.000169
C52	C	1.676669	0.078409	0.500169
C53	C	1.092854	-0.205945	0.000121
C54	C	1.592854	0.294055	0.500121
C55	C	1.085988	-0.560871	0.000100
C56	C	1.585988	-0.060871	0.500100
C57	C	1.258028	0.110710	0.000128
C58	C	1.758028	0.610710	0.500128
C59	C	1.360406	0.112521	0.000132
C60	C	1.860406	0.612521	0.500132
C61	C	1.082696	0.270148	0.000099
C62	C	1.582696	0.770148	0.500099
C63	C	1.084521	0.363397	0.000092
C64	C	1.584521	0.863397	0.500092
N65	N	1.089404	0.116578	0.254966
N66	N	1.589404	0.616578	0.754966
N67	N	1.089442	0.116593	-0.254745
N68	N	1.589442	0.616593	0.245255
C69	C	1.089427	0.116594	0.656257
C70	C	1.589427	0.616594	1.156257
C71	C	1.089418	0.116592	0.544606
C72	C	1.589418	0.616592	1.044606
C73	C	1.089416	0.116587	0.455615
C74	C	1.589416	0.616587	0.955615
C75	C	1.089406	0.116584	0.343957
C76	C	1.589406	0.616584	0.843957
H77	H	0.928471	-0.312009	0.000169
H78	H	1.428471	0.187991	0.500169
H79	H	1.250458	-0.454643	0.000223
H80	H	1.750458	0.045357	0.500223
C81	C	1.184545	-0.333368	-0.172624
C82	C	1.684545	0.166632	0.327376
H83	H	1.152902	-0.348755	-0.229882
H84	H	1.652902	0.151245	0.270118
H85	H	1.246178	-0.360574	-0.173198
H86	H	1.746178	0.139426	0.326802
H87	H	1.185819	-0.273934	-0.171631
H88	H	1.685819	0.226066	0.328369
C89	C	0.994213	-0.433416	0.172866
C90	C	1.494213	0.066584	0.672866
H91	H	0.932234	-0.407005	0.172762
H92	H	1.432234	0.092995	0.672762
H93	H	1.025164	-0.417091	0.230144
H94	H	1.525164	0.082909	0.730144
H95	H	0.993912	-0.492966	0.172501
H96	H	1.493912	0.007034	0.672501
C97	C	0.994246	-0.433347	-0.172644
C98	C	1.494246	0.066653	0.327356
H99	H	0.932273	-0.406920	-0.172545
H100	H	1.432273	0.093080	0.327455
H101	H	0.993940	-0.492892	-0.172307
H102	H	1.493940	0.007108	0.327693
H103	H	1.025202	-0.416991	-0.229914
H104	H	1.525202	0.083009	0.270086
H105	H	1.171341	-0.340638	0.149108
H106	H	1.671341	0.159362	0.649108
