data_functionalizedCrystal
_audit_creation_method	'MofGen! by Chris Wilmer'
_symmetry_space_group_name_H-M	'P1'
_symmetry_Int_Tables_number	1
_symmetry_cell_setting	triclinic
loop_
_symmetry_equiv_pos_as_xyz
  x,y,z
_cell_length_a	18.050591
_cell_length_b	18.050590
_cell_length_c	18.050591
_cell_angle_alpha	90.007244
_cell_angle_beta	90.007198
_cell_angle_gamma	90.015000
loop_
_atom_site_label
_atom_site_type_symbol
_atom_site_fract_x
_atom_site_fract_y
_atom_site_fract_z
Zn1	Zn	1.135250	-0.295895	0.420004
Zn2	Zn	1.635250	0.204105	0.920004
Zn3	Zn	1.135209	-0.420043	0.295813
Zn4	Zn	1.635209	0.079957	0.795813
Zn5	Zn	1.011097	-0.295864	0.295818
Zn6	Zn	1.511097	0.204136	0.795818
Zn7	Zn	1.011038	-0.420040	0.419951
Zn8	Zn	1.511038	0.079960	0.919951
O9	O	1.073149	-0.357961	0.357896
O10	O	1.573149	0.142039	0.857896
O11	O	1.239169	-0.312378	0.403550
O12	O	1.739169	0.187622	0.903550
O13	O	1.118753	-0.403559	0.191889
O14	O	1.618753	0.096441	0.691889
O15	O	1.027608	-0.191944	0.312316
O16	O	1.527608	0.308056	0.812316
O17	O	1.239139	-0.403589	0.312307
O18	O	1.739139	0.096411	0.812307
O19	O	1.118823	-0.191966	0.403555
O20	O	1.618823	0.308034	0.903555
O21	O	1.027568	-0.312325	0.191893
O22	O	1.527568	0.187675	0.691893
O23	O	0.907164	-0.312322	0.312264
O24	O	1.407164	0.187678	0.812264
O25	O	1.027508	-0.403583	0.523882
O26	O	1.527508	0.096417	1.023882
O27	O	0.907122	-0.403553	0.403464
O28	O	1.407122	0.096447	0.903464
O29	O	1.118766	-0.312375	0.523922
O30	O	1.618766	0.187625	1.023922
O31	O	1.118696	-0.523967	0.312255
O32	O	1.618696	-0.023967	0.812255
O33	O	1.027468	-0.523965	0.403459
O34	O	1.527468	-0.023965	0.903459
C35	C	0.880197	-0.357934	0.357859
C36	C	1.380197	0.142066	0.857859
C37	C	0.797651	-0.357941	0.357861
C38	C	1.297651	0.142059	0.857861
C39	C	1.073092	-0.550913	0.357867
C40	C	1.573092	-0.050913	0.857867
C41	C	1.073135	-0.633458	0.357879
C42	C	1.573135	-0.133458	0.857879
C43	C	0.548827	-0.308278	0.308384
C44	C	1.048827	0.191722	0.808384
C45	C	0.598241	-0.290216	0.376160
C46	C	1.098241	0.209784	0.876160
C47	C	0.500530	-0.357979	0.357922
C48	C	1.000530	0.142021	0.857922
C49	C	0.598198	-0.375987	0.290119
C50	C	1.098198	0.124013	0.790119
C51	C	0.646515	-0.357959	0.357888
C52	C	1.146515	0.142041	0.857888
C53	C	0.548857	-0.339882	0.425734
C54	C	1.048857	0.160118	0.925734
C55	C	0.548810	-0.425685	0.339647
C56	C	1.048810	0.074315	0.839647
C57	C	0.598202	-0.407649	0.407471
C58	C	1.098202	0.092351	0.907471
C59	C	0.416432	-0.357989	0.357940
C60	C	0.916432	0.142011	0.857940
C61	C	0.730612	-0.357949	0.357878
C62	C	1.230612	0.142051	0.857878
C63	C	1.122848	-0.832884	0.308352
C64	C	1.622848	-0.332884	0.808352
C65	C	1.140969	-0.882242	0.376133
C66	C	1.640969	-0.382242	0.876133
C67	C	1.073177	-0.784589	0.357908
C68	C	1.573177	-0.284589	0.857908
C69	C	1.055132	-0.882312	0.290157
C70	C	1.555132	-0.382312	0.790157
C71	C	1.073219	-0.930574	0.357931
C72	C	1.573219	-0.430574	0.857931
C73	C	1.091333	-0.832860	0.425726
C74	C	1.591333	-0.332860	0.925726
C75	C	1.005465	-0.832925	0.339704
C76	C	1.505465	-0.332925	0.839704
C77	C	1.023560	-0.882262	0.407533
C78	C	1.523560	-0.382262	0.907533
C79	C	1.073155	-0.700491	0.357894
C80	C	1.573155	-0.200491	0.857894
C81	C	1.073242	-1.014670	0.357953
C82	C	1.573242	-0.514670	0.857953
C83	C	1.266854	-0.357987	0.357934
C84	C	1.766854	0.142013	0.857934
C85	C	1.349400	-0.357999	0.357950
C86	C	1.849400	0.142001	0.857950
C87	C	1.073135	-0.357982	0.551602
C88	C	1.573135	0.142018	1.051602
C89	C	1.073130	-0.357991	0.634148
C90	C	1.573130	0.142009	1.134148
C91	C	1.073226	-0.164255	0.357942
C92	C	1.573226	0.335745	0.857942
C93	C	1.073259	-0.081709	0.357962
C94	C	1.573259	0.418291	0.857962
C95	C	1.023491	-0.407583	0.882952
C96	C	1.523491	0.092417	1.382952
C97	C	1.005351	-0.339830	0.833563
C98	C	1.505351	0.160170	1.333563
C99	C	1.073123	-0.357969	0.931268
C100	C	1.573123	0.142031	1.431268
C101	C	1.091231	-0.425729	0.833575
C102	C	1.591231	0.074271	1.333575
C103	C	1.073124	-0.357984	0.785283
C104	C	1.573124	0.142016	1.285283
C105	C	1.054947	-0.290180	0.882967
C106	C	1.554947	0.209820	1.382967
C107	C	1.140859	-0.376125	0.882983
C108	C	1.640859	0.123875	1.382983
C109	C	1.122744	-0.308326	0.833616
C110	C	1.622744	0.191674	1.333616
C111	C	1.073120	-0.357962	1.015366
C112	C	1.573120	0.142038	1.515366
C113	C	1.073127	-0.357983	0.701186
C114	C	1.573127	0.142017	1.201186
C115	C	1.073146	-0.357959	1.164944
C116	C	1.573146	0.142041	1.664944
C117	C	1.073119	-0.357961	1.082398
C118	C	1.573119	0.142039	1.582398
H119	H	0.527149	-0.266225	0.266557
H120	H	1.027149	0.233775	0.766557
C121	C	0.966836	-0.911367	0.464226
C122	C	1.466836	-0.411367	0.964226
N123	N	0.924113	-0.933290	0.506929
N124	N	1.424113	-0.433290	1.006929
H125	H	1.106548	-0.483027	0.811880
H126	H	1.606548	0.016973	1.311880
C127	C	0.627577	-0.212853	0.397028
C128	C	1.127577	0.287147	0.897028
N129	N	0.649670	-0.154582	0.412740
N130	N	1.149670	0.345418	0.912740
C131	C	0.519448	-0.503024	0.318749
C132	C	1.019448	-0.003024	0.818749
N133	N	0.497329	-0.561276	0.303000
N134	N	0.997329	-0.061276	0.803000
C135	C	1.179613	-0.803583	0.251798
C136	C	1.679613	-0.303583	0.751798
N137	N	1.222370	-0.781510	0.209207
N138	N	1.722370	-0.281510	0.709207
C139	C	1.179444	-0.251588	0.804529
C140	C	1.679444	0.248412	1.304529
N141	N	1.222146	-0.208851	0.782617
N142	N	1.722146	0.291149	1.282617
H143	H	1.198250	-0.903907	0.391545
H144	H	1.698250	-0.403907	0.891545
C145	C	1.034161	-0.212752	0.912152
C146	C	1.534161	0.287248	1.412152
N147	N	1.018502	-0.154436	0.934135
N148	N	1.518502	0.345564	1.434135
C149	C	0.519702	-0.319198	0.503200
C150	C	1.019702	0.180802	1.003200
N151	N	0.497740	-0.303616	0.561545
N152	N	0.997740	0.196384	1.061545
C153	C	0.928106	-0.803626	0.318852
C154	C	1.428106	-0.303626	0.818852
N155	N	0.869841	-0.781554	0.303137
N156	N	1.369841	-0.281554	0.803137
H157	H	0.619873	-0.391227	0.232794
H158	H	1.119873	0.108773	0.732794
C159	C	1.112071	-0.803642	0.503165
C160	C	1.612071	-0.303642	1.003165
N161	N	1.127694	-0.781632	0.561490
N162	N	1.627694	-0.281632	1.061490
C163	C	1.218221	-0.396899	0.912336
C164	C	1.718221	0.103101	1.412336
N165	N	1.276491	-0.412554	0.934447
N166	N	1.776491	0.087446	1.434447
C167	C	1.034486	-0.911653	0.212740
C168	C	1.534486	-0.411653	0.712740
N169	N	1.018940	-0.933749	0.154427
N170	N	1.518940	-0.433749	0.654427
C171	C	0.966747	-0.464182	0.912224
C172	C	1.466747	0.035818	1.412224
N173	N	0.924005	-0.506809	0.934273
N174	N	1.424005	-0.006809	1.434273
C175	C	0.927966	-0.319082	0.804240
C176	C	1.427966	0.180918	1.304240
N177	N	0.869677	-0.303459	0.782157
N178	N	1.369677	0.196541	1.282157
H179	H	0.619744	-0.449671	0.449397
H180	H	1.119744	0.050329	0.949397
