data_functionalizedCrystal
_audit_creation_method	'MofGen! by Chris Wilmer'
_symmetry_space_group_name_H-M	'P1'
_symmetry_Int_Tables_number	1
_symmetry_cell_setting	triclinic
loop_
_symmetry_equiv_pos_as_xyz
  x,y,z
_cell_length_a	17.077404
_cell_length_b	29.839131
_cell_length_c	29.839126
_cell_angle_alpha	89.975848
_cell_angle_beta	89.980185
_cell_angle_gamma	90.041645
loop_
_atom_site_label
_atom_site_type_symbol
_atom_site_fract_x
_atom_site_fract_y
_atom_site_fract_z
Zn1	Zn	1.199956	-0.178885	-0.254007
Zn2	Zn	1.699956	0.321115	0.245993
Zn3	Zn	1.199820	-0.254006	-0.178877
Zn4	Zn	1.699820	0.245994	0.321123
Zn5	Zn	1.068687	-0.178891	-0.178890
Zn6	Zn	1.568687	0.321109	0.321110
Zn7	Zn	1.068613	-0.253989	-0.253979
Zn8	Zn	1.568613	0.246011	0.246021
O9	O	1.134269	-0.216443	-0.216438
O10	O	1.634269	0.283557	0.283562
O11	O	1.309785	-0.188855	-0.244048
O12	O	1.809785	0.311145	0.255952
O13	O	1.182399	-0.244051	-0.116012
O14	O	1.682399	0.255949	0.383988
O15	O	1.086188	-0.116023	-0.188872
O16	O	1.586188	0.383977	0.311128
O17	O	1.309685	-0.244045	-0.188850
O18	O	1.809685	0.255955	0.311150
O19	O	1.182631	-0.116019	-0.244060
O20	O	1.682631	0.383981	0.255940
O21	O	1.086056	-0.188864	-0.116021
O22	O	1.586056	0.311136	0.383979
O23	O	0.958830	-0.188848	-0.188844
O24	O	1.458830	0.311152	0.311156
O25	O	1.086062	-0.244017	-0.316849
O26	O	1.586062	0.255983	0.183151
O27	O	0.958776	-0.244023	-0.244011
O28	O	1.458776	0.255977	0.255989
O29	O	1.182559	-0.188839	-0.316871
O30	O	1.682559	0.311161	0.183129
O31	O	1.182327	-0.316870	-0.188822
O32	O	1.682327	0.183130	0.311178
O33	O	1.085930	-0.316858	-0.243999
O34	O	1.585930	0.183142	0.256001
C35	C	0.930321	-0.216434	-0.216426
C36	C	1.430321	0.283566	0.283574
C37	C	0.843071	-0.216442	-0.216431
C38	C	1.343071	0.283558	0.283569
C39	C	1.134127	-0.333165	-0.216416
C40	C	1.634127	0.166835	0.283584
C41	C	1.134138	-0.383100	-0.216421
C42	C	1.634138	0.116900	0.283579
C43	C	0.802073	-0.245214	-0.245111
C44	C	1.302073	0.254786	0.254889
C45	C	0.720093	-0.245215	-0.245118
C46	C	1.220093	0.254785	0.254882
C47	C	0.679112	-0.216446	-0.216443
C48	C	1.179112	0.283554	0.283557
C49	C	0.720116	-0.187670	-0.187762
C50	C	1.220116	0.312330	0.312238
C51	C	0.802094	-0.187667	-0.187758
C52	C	1.302094	0.312333	0.312242
C53	C	0.549246	-0.187679	-0.187773
C54	C	1.049246	0.312321	0.312227
C55	C	0.467261	-0.187682	-0.187777
C56	C	0.967261	0.312318	0.312223
C57	C	0.467244	-0.245227	-0.245133
C58	C	0.967244	0.254773	0.254867
C59	C	0.549223	-0.245224	-0.245129
C60	C	1.049223	0.254776	0.254871
C61	C	0.590221	-0.216449	-0.216447
C62	C	1.090221	0.283551	0.283553
C63	C	1.184554	-0.692737	-0.187750
C64	C	1.684554	-0.192737	0.312250
C65	C	1.184651	-0.880410	-0.187767
C66	C	1.684651	-0.380410	0.312233
O67	O	1.227404	-0.904669	-0.163372
O68	O	1.727404	-0.404669	0.336628
N69	N	1.134432	-0.903885	-0.216472
N70	N	1.634432	-0.403885	0.283528
C71	C	1.084188	-0.880438	-0.245177
C72	C	1.584188	-0.380438	0.254823
O73	O	1.041482	-0.904712	-0.269596
O74	O	1.541482	-0.404712	0.230404
C75	C	1.084096	-0.692766	-0.245161
C76	C	1.584096	-0.192766	0.254839
C77	C	1.134313	-0.669294	-0.216451
C78	C	1.634313	-0.169294	0.283549
C79	C	1.234768	-0.669264	-0.159042
C80	C	1.734768	-0.169264	0.340958
C81	C	1.234740	-0.622349	-0.159037
C82	C	1.734740	-0.122349	0.340963
C83	C	1.184499	-0.598906	-0.187738
C84	C	1.684499	-0.098906	0.312262
C85	C	1.134285	-0.622378	-0.216445
C86	C	1.634285	-0.122378	0.283555
C87	C	1.033857	-0.669321	-0.273868
C88	C	1.533857	-0.169321	0.226132
C89	C	1.033840	-0.622400	-0.273862
C90	C	1.533840	-0.122400	0.226138
C91	C	1.084057	-0.598927	-0.245152
C92	C	1.584057	-0.098927	0.254848
C93	C	1.084016	-0.552020	-0.245141
C94	C	1.584016	-0.052020	0.254859
N95	N	1.134235	-0.528545	-0.216436
N96	N	1.634235	-0.028545	0.283564
C97	C	1.184477	-0.551988	-0.187735
C98	C	1.684477	-0.051988	0.312265
C99	C	1.084239	-0.978969	-0.245182
C100	C	1.584239	-0.478969	0.254818
C101	C	1.084261	-1.025887	-0.245186
C102	C	1.584261	-0.525887	0.254814
C103	C	1.184725	-1.025855	-0.187777
C104	C	1.684725	-0.525855	0.312223
C105	C	1.184699	-0.978936	-0.187771
C106	C	1.684699	-0.478936	0.312229
C107	C	1.134459	-0.955494	-0.216477
C108	C	1.634459	-0.455494	0.283523
C109	C	1.184414	-0.453462	-0.187724
C110	C	1.684414	0.046538	0.312276
C111	C	1.184380	-0.406542	-0.187720
C112	C	1.684380	0.093458	0.312280
C113	C	1.083919	-0.406579	-0.245131
C114	C	1.583919	0.093421	0.254869
C115	C	1.083950	-0.453494	-0.245134
C116	C	1.583950	0.046506	0.254866
C117	C	1.134204	-0.476935	-0.216429
C118	C	1.634204	0.023065	0.283571
O119	O	1.041292	-0.527732	-0.269527
O120	O	1.541292	-0.027732	0.230473
O121	O	1.227189	-0.527707	-0.163326
O122	O	1.727189	-0.027707	0.336674
C123	C	1.184582	-0.739652	-0.187756
C124	C	1.684582	-0.239652	0.312244
C125	C	1.134368	-0.763125	-0.216463
C126	C	1.634368	-0.263125	0.283537
C127	C	1.084127	-0.739682	-0.245164
C128	C	1.584127	-0.239682	0.254836
C129	C	1.134390	-0.810042	-0.216466
C130	C	1.634390	-0.310042	0.283534
C131	C	1.184632	-0.833485	-0.187765
C132	C	1.684632	-0.333485	0.312235
C133	C	1.234851	-0.810010	-0.159060
C134	C	1.734851	-0.310010	0.340940
C135	C	1.234823	-0.763095	-0.159054
C136	C	1.734823	-0.263095	0.340946
C137	C	1.033908	-0.763157	-0.273869
C138	C	1.533908	-0.263157	0.226131
C139	C	1.033939	-0.810072	-0.273872
C140	C	1.533939	-0.310072	0.226128
C141	C	1.084180	-0.833515	-0.245171
C142	C	1.584180	-0.333515	0.254829
C143	C	1.339013	-0.216451	-0.216451
C144	C	1.839013	0.283549	0.283549
C145	C	1.426263	-0.216455	-0.216456
C146	C	1.926263	0.283545	0.283544
C147	C	1.134318	-0.216425	-0.333617
C148	C	1.634318	0.283575	0.166383
C149	C	1.134338	-0.216418	-0.383551
C150	C	1.634338	0.283582	0.116449
C151	C	1.134433	-0.099264	-0.216470
C152	C	1.634433	0.400736	0.283530
C153	C	1.134502	-0.049330	-0.216484
C154	C	1.634502	0.450670	0.283516
C155	C	1.084188	-0.187637	-0.693202
C156	C	1.584188	0.312363	-0.193202
C157	C	1.084211	-0.187606	-0.880875
C158	C	1.584211	0.312394	-0.380875
O159	O	1.041532	-0.163181	-0.905147
O160	O	1.541532	0.336819	-0.405147
N161	N	1.134376	-0.216334	-0.904336
N162	N	1.634376	0.283666	-0.404336
C163	C	1.184535	-0.245073	-0.880876
C164	C	1.684535	0.254927	-0.380876
O165	O	1.227198	-0.269510	-0.905137
O166	O	1.727198	0.230490	-0.405137
C167	C	1.184508	-0.245106	-0.693204
C168	C	1.684508	0.254894	-0.193204
C169	C	1.134345	-0.216374	-0.669745
C170	C	1.634345	0.283626	-0.169745
C171	C	1.034029	-0.158908	-0.669744
C172	C	1.534029	0.341092	-0.169744
C173	C	1.034027	-0.158914	-0.622828
C174	C	1.534027	0.341086	-0.122828
C175	C	1.084184	-0.187650	-0.599371
C176	C	1.584184	0.312350	-0.099371
C177	C	1.134343	-0.216380	-0.622830
C178	C	1.634343	0.283620	-0.122830
C179	C	1.234663	-0.273848	-0.669745
C180	C	1.734663	0.226152	-0.169745
C181	C	1.234650	-0.273854	-0.622824
C182	C	1.734650	0.226146	-0.122824
C183	C	1.184488	-0.245122	-0.599365
C184	C	1.684488	0.254878	-0.099365
C185	C	1.184499	-0.245123	-0.552458
C186	C	1.684499	0.254877	-0.052458
N187	N	1.134334	-0.216395	-0.528997
N188	N	1.634334	0.283605	-0.028997
C189	C	1.084176	-0.187659	-0.552453
C190	C	1.584176	0.312341	-0.052453
C191	C	1.184547	-0.245053	-0.979407
C192	C	1.684547	0.254947	-0.479407
C193	C	1.184554	-0.245044	-1.026325
C194	C	1.684554	0.254956	-0.526325
C195	C	1.084229	-0.187578	-1.026321
C196	C	1.584229	0.312422	-0.526321
C197	C	1.084225	-0.187585	-0.979402
C198	C	1.584225	0.312415	-0.479402
C199	C	1.134382	-0.216326	-0.955946
C200	C	1.634382	0.283674	-0.455946
C201	C	1.084176	-0.187674	-0.453928
C202	C	1.584176	0.312326	0.046072
C203	C	1.084181	-0.187682	-0.407008
C204	C	1.584181	0.312318	0.092992
C205	C	1.184503	-0.245150	-0.407016
C206	C	1.684503	0.254850	0.092984
C207	C	1.184502	-0.245141	-0.453932
C208	C	1.684502	0.254859	0.046068
C209	C	1.134332	-0.216401	-0.477386
C210	C	1.634332	0.283599	0.022614
O211	O	1.227149	-0.269539	-0.528157
O212	O	1.727149	0.230461	-0.028157
O213	O	1.041507	-0.163233	-0.528184
O214	O	1.541507	0.336767	-0.028184
C215	C	1.084190	-0.187631	-0.740118
C216	C	1.584190	0.312369	-0.240118
C217	C	1.134350	-0.216361	-0.763576
C218	C	1.634350	0.283639	-0.263576
C219	C	1.184507	-0.245097	-0.740119
C220	C	1.684507	0.254903	-0.240119
C221	C	1.134357	-0.216352	-0.810494
C222	C	1.634357	0.283648	-0.310494
C223	C	1.084200	-0.187616	-0.833951
C224	C	1.584200	0.312384	-0.333951
C225	C	1.034035	-0.158888	-0.810490
C226	C	1.534035	0.341112	-0.310490
C227	C	1.034033	-0.158895	-0.763575
C228	C	1.534033	0.341105	-0.263575
C229	C	1.234672	-0.273825	-0.763580
C230	C	1.734672	0.226175	-0.263580
C231	C	1.234670	-0.273816	-0.810496
C232	C	1.734670	0.226184	-0.310496
C233	C	1.184513	-0.245079	-0.833953
C234	C	1.684513	0.254921	-0.333953
C235	C	1.134266	-0.216427	-0.099716
C236	C	1.634266	0.283573	0.400284
C237	C	1.134397	-0.216308	-0.049782
C238	C	1.634397	0.283692	0.450218
H239	H	0.835434	-0.268644	-0.268460
H240	H	1.335434	0.231356	0.231540
N241	N	1.288773	-0.304812	-0.835793
N242	N	1.788773	0.195188	-0.335793
H243	H	1.281168	-0.300452	-0.869076
H244	H	1.781168	0.199548	-0.369076
H245	H	1.344846	-0.297827	-0.827605
H246	H	1.844846	0.202173	-0.327605
N247	N	1.030085	-1.051197	-0.276146
N248	N	1.530085	-0.551197	0.223854
H249	H	1.042241	-1.043007	-0.308250
H250	H	1.542241	-0.543007	0.191750
H251	H	1.037738	-1.084470	-0.271759
H252	H	1.537738	-0.584470	0.228241
N253	N	1.238869	-0.953620	-0.156812
N254	N	1.738869	-0.453620	0.343188
H255	H	1.206986	-0.934181	-0.135973
H256	H	1.706986	-0.434181	0.364027
H257	H	1.270687	-0.975622	-0.138662
H258	H	1.770687	-0.475622	0.361338
N259	N	0.423073	-0.156659	-0.156835
N260	N	0.923073	0.343341	0.343165
H261	H	0.389040	-0.174898	-0.135984
H262	H	0.889040	0.325102	0.364016
H263	H	0.461547	-0.138443	-0.138698
H264	H	0.961547	0.361557	0.361302
N265	N	1.238607	-0.276133	-0.479230
N266	N	1.738607	0.223867	0.020770
H267	H	1.206674	-0.296949	-0.498681
H268	H	1.706674	0.203051	0.001319
H269	H	1.275005	-0.257849	-0.498686
H270	H	1.775005	0.242151	0.001314
N271	N	0.675873	-0.276255	-0.276044
N272	N	1.175873	0.223745	0.223956
H273	H	0.714274	-0.294484	-0.294205
H274	H	1.214274	0.205516	0.205795
H275	H	0.641826	-0.297017	-0.257713
H276	H	1.141826	0.202983	0.242287
H277	H	0.993186	-0.135498	-0.744479
H278	H	1.493186	0.364502	-0.244479
N279	N	0.593427	-0.276258	-0.276052
N280	N	1.093427	0.223742	0.223948
H281	H	0.555017	-0.294487	-0.294222
H282	H	1.055017	0.205513	0.205778
H283	H	0.627480	-0.257999	-0.296873
H284	H	1.127480	0.242001	0.203127
N285	N	1.238602	-0.276141	-0.381712
N286	N	1.738602	0.223859	0.118288
H287	H	1.230894	-0.271835	-0.348431
H288	H	1.730894	0.228165	0.151569
H289	H	1.226419	-0.308221	-0.389954
H290	H	1.726419	0.191779	0.110046
N291	N	0.979709	-0.737875	-0.304822
N292	N	1.479709	-0.237875	0.195178
H293	H	1.011567	-0.718377	-0.325660
H294	H	1.511567	-0.218377	0.174340
H295	H	0.947913	-0.759897	-0.322975
H296	H	1.447913	-0.259897	0.177025
N297	N	0.423031	-0.276265	-0.276068
N298	N	0.923031	0.223735	0.223932
H299	H	0.364879	-0.271901	-0.271723
H300	H	0.864879	0.228099	0.228277
H301	H	0.437396	-0.269320	-0.308166
H302	H	0.937396	0.230680	0.191834
N303	N	1.238913	-1.051144	-0.156818
N304	N	1.738913	-0.551144	0.343182
H305	H	1.231302	-1.084427	-0.161179
H306	H	1.731302	-0.584427	0.338821
H307	H	1.294964	-1.042909	-0.163842
H308	H	1.794964	-0.542909	0.336158
H309	H	0.582624	-0.164243	-0.164421
H310	H	1.082624	0.335757	0.335579
H311	H	1.043324	-0.164272	-0.473019
H312	H	1.543324	0.335728	0.026981
N313	N	0.675913	-0.156648	-0.156827
N314	N	1.175913	0.343352	0.343173
H315	H	0.641927	-0.135856	-0.175118
H316	H	1.141927	0.364144	0.324882
H317	H	0.641918	-0.174920	-0.135987
H318	H	1.141918	0.325080	0.364013
N319	N	1.030083	-0.156686	-0.381706
N320	N	1.530083	0.343314	0.118294
H321	H	0.998311	-0.138481	-0.403688
H322	H	1.498311	0.361519	0.096312
H323	H	0.993726	-0.174970	-0.362226
H324	H	1.493726	0.325030	0.137774
N325	N	0.979931	-0.127909	-0.695040
N326	N	1.479931	0.372091	-0.195040
H327	H	0.943525	-0.146156	-0.714497
H328	H	1.443525	0.353844	-0.214497
H329	H	0.948212	-0.109719	-0.673025
H330	H	1.448212	0.390281	-0.173025
H331	H	0.835474	-0.164235	-0.164406
H332	H	1.335474	0.335765	0.335594
H333	H	1.275684	-0.688346	-0.135670
H334	H	1.775684	-0.188346	0.364330
H335	H	1.225272	-0.387433	-0.164339
H336	H	1.725272	0.112567	0.335661
N337	N	1.238615	-0.478740	-0.156766
N338	N	1.738615	0.021260	0.343234
H339	H	1.270416	-0.456746	-0.138581
H340	H	1.770416	0.043254	0.361419
H341	H	1.206696	-0.498237	-0.135959
H342	H	1.706696	0.001763	0.364041
N343	N	1.288914	-0.597035	-0.128077
N344	N	1.788914	-0.097035	0.371923
H345	H	1.320746	-0.619011	-0.109901
H346	H	1.820746	-0.119011	0.390099
H347	H	1.325212	-0.577542	-0.146387
H348	H	1.825212	-0.077542	0.353613
H349	H	1.043326	-0.959886	-0.268559
H350	H	1.543326	-0.459886	0.231441
H351	H	1.275514	-0.297227	-0.744487
H352	H	1.775514	0.202773	-0.244487
H353	H	0.992961	-0.688424	-0.297245
H354	H	1.492961	-0.188424	0.202755
N355	N	0.979653	-0.597116	-0.304826
N356	N	1.479653	-0.097116	0.195174
H357	H	0.947848	-0.619108	-0.323012
H358	H	1.447848	-0.119108	0.176988
H359	H	0.943330	-0.577681	-0.286519
H360	H	1.443330	-0.077681	0.213481
N361	N	1.238657	-0.276050	-0.954114
N362	N	1.738657	0.223950	-0.454114
H363	H	1.275057	-0.257798	-0.934658
H364	H	1.775057	0.242202	-0.434658
H365	H	1.206678	-0.296870	-0.934663
H366	H	1.706678	0.203130	-0.434663
H367	H	1.043062	-0.472606	-0.268513
H368	H	1.543062	0.027394	0.231487
H369	H	0.993176	-0.135519	-0.603732
H370	H	1.493176	0.364481	-0.103732
H371	H	1.043011	-0.387484	-0.268498
H372	H	1.543011	0.112516	0.231502
N373	N	1.030126	-0.156593	-0.954102
N374	N	1.530126	0.343407	-0.454102
H375	H	0.998358	-0.138388	-0.976085
H376	H	1.498358	0.361612	-0.476085
H377	H	0.993765	-0.174879	-0.934626
H378	H	1.493765	0.325121	-0.434626
H379	H	1.275510	-0.297245	-0.688837
H380	H	1.775510	0.202755	-0.188837
H381	H	1.275715	-0.743987	-0.135676
H382	H	1.775715	-0.243987	0.364324
N383	N	1.289034	-0.835300	-0.128099
N384	N	1.789034	-0.335300	0.371901
H385	H	1.281424	-0.868583	-0.132461
H386	H	1.781424	-0.368583	0.367539
H387	H	1.345086	-0.827065	-0.135118
H388	H	1.845086	-0.327065	0.364882
H389	H	0.993040	-0.829180	-0.297251
H390	H	1.493040	-0.329180	0.202749
H391	H	1.043391	-0.164179	-1.045427
H392	H	1.543391	0.335821	-0.545427
N393	N	0.979929	-0.127898	-0.835794
N394	N	1.479929	0.372102	-0.335794
H395	H	0.987544	-0.132259	-0.869075
H396	H	1.487544	0.367741	-0.369075
H397	H	0.923859	-0.134896	-0.827581
H398	H	1.423859	0.365104	-0.327581
N399	N	1.238668	-0.276028	-1.051624
N400	N	1.738668	0.223972	-0.551624
H401	H	1.270437	-0.294233	-1.029640
H402	H	1.770437	0.205767	-0.529640
H403	H	1.206691	-0.296815	-1.071080
H404	H	1.706691	0.203185	-0.571080
N405	N	1.288747	-0.304856	-0.597526
N406	N	1.788747	0.195144	-0.097526
H407	H	1.320520	-0.323054	-0.619510
H408	H	1.820520	0.176946	-0.119510
H409	H	1.325103	-0.286577	-0.578071
H410	H	1.825103	0.213423	-0.078071
