data_functionalizedCrystal
_audit_creation_method	'MofGen! by Chris Wilmer'
_symmetry_space_group_name_H-M	'P1'
_symmetry_Int_Tables_number	1
_symmetry_cell_setting	triclinic
loop_
_symmetry_equiv_pos_as_xyz
  x,y,z
_cell_length_a	10.654554
_cell_length_b	14.044190
_cell_length_c	9.730223
_cell_angle_alpha	89.993542
_cell_angle_beta	89.999614
_cell_angle_gamma	88.839310
loop_
_atom_site_label
_atom_site_type_symbol
_atom_site_fract_x
_atom_site_fract_y
_atom_site_fract_z
O1	O	1.681225	0.133249	-0.114313
O2	O	1.317023	0.145938	-0.114316
O3	O	1.493653	0.001573	-0.114288
O4	O	1.504595	0.277614	-0.114342
O5	O	1.493651	0.001576	0.114292
O6	O	1.317021	0.145942	0.114264
O7	O	1.681223	0.133253	0.114267
Zn8	Zn	1.499122	0.139598	0.150557
Zn9	Zn	1.499124	0.139593	-0.150607
O10	O	1.504593	0.277618	0.114238
C11	C	1.270130	0.145007	-0.000026
C12	C	1.130407	0.142217	-0.000026
C13	C	0.938773	0.051970	-0.000020
C14	C	1.070058	0.054591	-0.000011
C15	C	1.059463	0.227227	-0.000037
C16	C	0.928181	0.224605	-0.000037
C17	C	0.878432	-0.035661	-0.000019
C18	C	0.949366	-0.120672	-0.000005
C19	C	1.080651	-0.118051	0.000004
C20	C	1.141002	-0.030419	0.000000
C21	C	1.488865	-0.033771	0.000006
C22	C	1.474586	-0.139091	0.000018
C23	C	1.549751	-0.388883	-0.000035
C24	C	1.448501	-0.331921	-0.000026
C25	C	1.463018	-0.224621	-0.000002
C26	C	1.535236	-0.496193	-0.000060
C27	C	1.728116	0.134184	-0.000026
C28	C	1.867839	0.136974	-0.000035
C29	C	1.509381	0.312962	-0.000059
C30	C	1.523661	0.418282	-0.000080
N31	N	1.499129	0.139601	0.356094
N32	N	1.499126	0.139583	-0.356143
C33	C	1.577365	0.075698	0.428032
C34	C	1.577361	0.075686	0.571915
C35	C	1.420881	0.203489	0.571908
C36	C	1.420880	0.203495	0.428028
C37	C	1.655614	0.011803	0.356098
C38	C	1.733858	-0.052105	0.428037
C39	C	1.733853	-0.052116	0.571920
C40	C	1.655605	0.011780	0.643864
H41	H	1.138403	-0.187270	0.000028
N42	N	1.282602	-0.027588	0.000029
H43	H	1.318385	-0.094736	0.000047
H44	H	1.312052	0.006973	-0.084712
H45	H	1.108612	0.298573	-0.000042
N46	N	1.679008	-0.346744	0.000008
H47	H	1.726240	-0.368496	-0.084721
H48	H	1.671075	-0.274961	0.000084
N49	N	1.655611	0.011820	0.200912
H50	H	1.742540	0.026230	0.166255
H51	H	1.630064	-0.052769	0.166361
H52	H	0.870425	0.293823	-0.000043
N53	N	1.818220	-0.121038	0.350451
H54	H	1.806349	-0.111340	0.248386
H55	H	1.908606	-0.109468	0.375592
H56	H	1.350915	-0.363739	-0.000035
H57	H	1.357172	0.255530	0.369455
N58	N	1.336491	0.272401	0.649498
H59	H	1.348365	0.262701	0.751561
H60	H	1.358541	0.339800	0.624343
H61	H	1.797552	-0.104158	0.630491
N62	N	1.655610	0.011773	0.799052
H63	H	1.594177	0.061951	0.833708
H64	H	1.630150	-0.052841	0.833608
N65	N	0.736833	-0.038480	-0.000027
H66	H	0.707292	-0.072996	-0.084761
H67	H	0.707380	-0.072982	0.084765
N68	N	0.884283	-0.215185	0.000024
H69	H	0.790352	-0.203949	0.000017
H70	H	0.909547	-0.252425	-0.084701
