data_functionalizedCrystal
_audit_creation_method	'MofGen! by Chris Wilmer'
_symmetry_space_group_name_H-M	'P1'
_symmetry_Int_Tables_number	1
_symmetry_cell_setting	triclinic
loop_
_symmetry_equiv_pos_as_xyz
  x,y,z
_cell_length_a	12.837943
_cell_length_b	9.130313
_cell_length_c	12.837942
_cell_angle_alpha	89.998975
_cell_angle_beta	85.171060
_cell_angle_gamma	89.999361
loop_
_atom_site_label
_atom_site_type_symbol
_atom_site_fract_x
_atom_site_fract_y
_atom_site_fract_z
O1	O	1.402329	0.121772	-0.272135
O2	O	1.099196	0.121781	-0.258692
O3	O	1.244041	0.121767	-0.113847
O4	O	1.257484	0.121785	-0.416980
O5	O	1.244039	-0.121831	-0.113851
O6	O	1.099194	-0.121818	-0.258696
O7	O	1.402328	-0.121827	-0.272139
Cu8	Cu	1.250761	-0.144065	-0.265418
Cu9	Cu	1.250763	0.144019	-0.265413
O10	O	1.257483	-0.121814	-0.416984
C11	C	1.060126	-0.000018	-0.254153
C12	C	0.943711	-0.000015	-0.240608
N13	N	1.250767	-0.346688	-0.265422
C14	C	0.718837	-0.000026	-0.403437
C15	C	0.609454	-0.000024	-0.390716
C16	C	0.615562	-0.000020	-0.202445
C17	C	0.724944	-0.000022	-0.215166
C18	C	0.776578	-0.000023	-0.315666
C19	C	0.885962	-0.000014	-0.328386
C20	C	0.892067	-0.000020	-0.140116
C21	C	0.782685	-0.000018	-0.127395
C22	C	1.314925	-0.423346	-0.201310
C23	C	1.314921	-0.576682	-0.201297
C24	C	1.186599	-0.576690	-0.329516
C25	C	1.186598	-0.423356	-0.329523
C26	C	1.379094	-0.346677	-0.137208
C27	C	1.443258	-0.423335	-0.073093
C28	C	1.443254	-0.576672	-0.073080
C29	C	1.379086	-0.653351	-0.137183
C30	C	1.441398	-0.000025	-0.276679
C31	C	1.557813	-0.000019	-0.290223
C32	C	1.239499	-0.000031	-0.074780
C33	C	1.225954	-0.000028	0.041635
N34	N	1.250764	0.346641	-0.265402
C35	C	1.262025	-0.000012	-0.456052
C36	C	1.275569	-0.000005	-0.572467
C37	C	1.388784	-0.000002	0.266510
C38	C	1.376062	0.000000	0.375892
C39	C	1.187791	-0.000009	0.369785
C40	C	1.200513	-0.000012	0.260402
C41	C	1.301012	-0.000011	0.208769
C42	C	1.313732	-0.000024	0.099384
C43	C	1.125462	-0.000024	0.093279
C44	C	1.112741	-0.000021	0.202661
H45	H	0.928000	-0.000017	-0.410218
H46	H	0.573502	-0.000140	-0.120623
H47	H	0.740630	-0.000034	-0.045571
H48	H	0.562446	-0.000031	-0.462189
H49	H	1.495495	-0.360895	-0.020895
H50	H	1.447536	0.000012	0.422901
H51	H	1.105969	0.000005	0.411844
C52	C	1.499326	-0.000010	0.209703
C53	C	1.533955	-0.126511	0.135348
C54	C	1.644499	-0.126520	0.078542
C55	C	1.720414	-0.000030	0.096091
C56	C	1.685788	0.126480	0.170449
C57	C	1.575243	0.126489	0.227255
H58	H	1.477756	-0.220155	0.122355
H59	H	1.670131	-0.220172	0.023498
H60	H	1.802246	-0.000037	0.054040
H61	H	1.741986	0.220124	0.183443
H62	H	1.549611	0.220141	0.282300
H63	H	1.395564	-0.000029	0.057346
C64	C	1.002198	-0.000018	0.259467
C65	C	0.967567	-0.126506	0.333834
C66	C	0.857023	-0.126504	0.390639
C67	C	0.781109	-0.000013	0.373077
C68	C	0.815738	0.126485	0.298707
C69	C	0.926282	0.126483	0.241902
H70	H	1.023765	-0.220151	0.346837
H71	H	0.831389	-0.220147	0.445692
H72	H	0.699277	-0.000011	0.415128
H73	H	0.759540	0.220130	0.285704
H74	H	0.951917	0.220126	0.186849
H75	H	1.495491	-0.639085	-0.020867
H76	H	1.053992	-0.000042	0.046254
H77	H	0.760878	-0.000025	-0.485268
H78	H	1.379081	-0.778208	-0.137159
C79	C	1.116026	-0.661031	-0.400034
C80	C	1.116178	-0.829693	-0.400183
C81	C	1.045607	-0.914031	-0.470705
C82	C	0.974884	-0.829708	-0.541080
C83	C	0.974730	-0.661038	-0.540934
C84	C	1.045301	-0.576699	-0.470412
H85	H	1.168533	-0.892122	-0.348085
H86	H	1.045721	-1.038893	-0.470813
H87	H	0.922643	-0.892141	-0.593285
H88	H	0.922374	-0.598609	-0.593032
H89	H	1.045186	-0.451838	-0.470304
H90	H	1.134354	-0.360941	-0.381727
H91	H	1.379105	-0.221823	-0.137215
H92	H	0.939092	-0.000007	-0.068646
