data_functionalizedCrystal
_audit_creation_method	'MofGen! by Chris Wilmer'
_symmetry_space_group_name_H-M	'P1'
_symmetry_Int_Tables_number	1
_symmetry_cell_setting	triclinic
loop_
_symmetry_equiv_pos_as_xyz
  x,y,z
_cell_length_a	19.377372
_cell_length_b	17.052862
_cell_length_c	17.052862
_cell_angle_alpha	61.493325
_cell_angle_beta	86.939559
_cell_angle_gamma	81.137717
loop_
_atom_site_label
_atom_site_type_symbol
_atom_site_fract_x
_atom_site_fract_y
_atom_site_fract_z
Zr1	Zr	0.747535	1.072668	-0.367978
O2	O	0.676305	1.176171	-0.480144
O3	O	0.753688	0.924054	-0.315166
O4	O	0.788251	1.053692	-0.483724
O5	O	0.632319	1.077232	-0.199586
O6	O	0.894395	1.090040	-0.507509
O7	O	0.641743	1.046532	-0.311586
O8	O	0.832569	0.858140	-0.205990
O9	O	0.694145	1.309132	-0.501105
O10	O	0.854475	1.029015	-0.332656
O11	O	0.768227	1.024800	-0.231321
O12	O	0.808920	1.177433	-0.429777
O13	O	0.722673	1.173218	-0.328442
Zr14	Zr	0.901794	1.179601	-0.227287
Zr15	Zr	0.916824	1.130639	-0.405913
Zr16	Zr	0.732505	1.121631	-0.189352
Zr17	Zr	0.775988	1.284726	-0.401410
Zr18	Zr	0.873341	0.967544	-0.193855
O19	O	0.895641	1.328216	-0.280099
O20	O	0.917011	1.258597	-0.534083
O21	O	0.654935	1.245789	-0.226160
O22	O	0.973024	1.076099	-0.115121
O23	O	0.994394	1.006480	-0.369105
O24	O	0.732318	0.993672	-0.061182
O25	O	1.017010	1.175037	-0.395679
O26	O	0.861078	1.198577	-0.111541
O27	O	0.754934	1.162230	-0.087756
O28	O	1.007586	1.205737	-0.283679
O29	O	0.828706	1.355210	-0.531259
O30	O	0.820623	0.897059	-0.064006
O31	O	0.955184	0.943138	-0.094159
O32	O	0.967131	0.904219	-0.236144
O33	O	0.682198	1.348050	-0.359121
O34	O	0.816760	1.394129	-0.389275
O35	O	0.840409	1.074837	-0.165488
O36	O	0.926656	1.079052	-0.266823
O37	O	0.881102	1.227469	-0.363944
O38	O	0.794854	1.223254	-0.262609
C39	C	0.789075	0.860883	-0.255815
C40	C	0.776996	0.770859	-0.241622
C41	C	0.923029	0.525902	-0.413211
C42	C	0.934376	0.610487	-0.426551
C43	C	0.895032	0.650584	-0.380320
C44	C	0.844339	0.606089	-0.320746
C45	C	0.832986	0.521499	-0.307410
C46	C	0.804990	0.646181	-0.274519
C47	C	0.754297	0.601686	-0.214945
C48	C	0.742947	0.517104	-0.201610
C49	C	0.782291	0.477007	-0.247842
C50	C	0.816343	0.730770	-0.287855
C51	C	0.726301	0.726367	-0.182054
C52	C	0.714953	0.641783	-0.168714
C53	C	0.612911	1.053623	-0.250181
C54	C	0.541044	1.029013	-0.234076
C55	C	0.185790	1.335425	-0.434588
C56	C	0.118266	1.312280	-0.419441
C57	C	0.165831	1.157344	-0.318056
C58	C	0.233360	1.180477	-0.333191
C59	C	0.243333	1.269519	-0.391459
C60	C	0.290903	1.114570	-0.290061
C61	C	0.358427	1.137700	-0.305199
C62	C	0.368407	1.226738	-0.363466
C63	C	0.310857	1.292649	-0.406597
C64	C	0.280929	1.025527	-0.231798
C65	C	0.338472	0.959620	-0.188668
C66	C	0.405997	0.982752	-0.203801
C67	C	0.415977	1.071789	-0.262068
C68	C	0.463547	0.916840	-0.160670
C69	C	0.531070	0.939971	-0.175808
C70	C	0.483500	1.094919	-0.277206
C71	C	1.036418	1.198647	-0.345084
C72	C	1.108285	1.223257	-0.361189
C73	C	0.843465	1.064890	-0.521067
C74	C	0.849845	1.044104	-0.596898
C75	C	0.860254	1.391386	-0.339450
C76	C	0.872333	1.481410	-0.353643
C77	C	0.772705	1.295407	-1.013441
C78	C	0.766706	1.314938	-0.942195
C79	C	0.787490	1.247231	-0.855868
C80	C	0.814274	1.159990	-0.840793
C81	C	0.820269	1.140455	-0.912045
C82	C	0.835055	1.092280	-0.754472
C83	C	0.861839	1.005038	-0.739397
C84	C	0.867833	0.985508	-0.810644
C85	C	0.847048	1.053214	-0.896971
C86	C	0.829060	1.111814	-0.683220
C87	C	0.876624	0.956863	-0.581824
C88	C	0.882623	0.937332	-0.653070
C89	C	0.805864	1.187380	-0.074198
C90	C	0.799484	1.208165	0.001634
C91	C	1.000829	0.933396	-0.303266
C92	C	1.060617	0.867982	-0.305178
C93	C	0.770275	0.922128	-0.032380
C94	C	0.751816	0.852890	0.057644
C95	C	0.982029	0.994640	-0.079832
C96	C	1.035436	0.950012	-0.005912
C97	C	0.667300	1.257629	-0.515433
C98	C	0.613893	1.302257	-0.589353
C99	C	0.648500	1.318874	-0.291999
C100	C	0.588712	1.384288	-0.290087
C101	C	0.879054	1.330141	-0.562885
C102	C	0.897513	1.399379	-0.652909
C103	C	1.051017	0.811142	-0.340447
C104	C	1.107191	0.749683	-0.342261
C105	C	1.172964	0.745062	-0.308799
C106	C	1.182563	0.801910	-0.273529
C107	C	1.126391	0.863371	-0.271722
C108	C	0.780824	0.846496	0.134292
C109	C	0.763478	0.781452	0.218885
C110	C	0.717126	0.722799	0.226828
C111	C	0.688114	0.729198	0.150171
C112	C	0.705457	0.794245	0.065580
C113	C	1.105545	0.931257	-0.024096
C114	C	1.155736	0.889337	0.045349
C115	C	1.135816	0.866166	0.132979
C116	C	1.065701	0.884926	0.151161
C117	C	1.015513	0.926852	0.081716
C118	C	0.543786	1.321023	-0.571170
C119	C	0.493598	1.362969	-0.640620
C120	C	0.513518	1.386144	-0.728250
C121	C	0.583632	1.367379	-0.746432
C122	C	0.633819	1.325438	-0.676984
C123	C	0.598314	1.441134	-0.254826
C124	C	0.542144	1.502611	-0.253036
C125	C	0.476372	1.507235	-0.286501
C126	C	0.466772	1.450384	-0.321767
C127	C	0.522942	1.388913	-0.323563
C128	C	0.943867	1.458015	-0.660823
C129	C	0.961225	1.523068	-0.745405
C130	C	0.932225	1.529487	-0.822072
C131	C	0.885868	1.470842	-0.814155
C132	C	0.868515	1.405787	-0.729574
H133	H	0.904274	0.719456	-0.391185
H134	H	0.807251	1.182847	-0.695502
H135	H	1.176690	0.832028	0.189517
H136	H	0.650373	0.681434	0.156652
H137	H	0.651863	1.437378	-0.227569
H138	H	0.681835	0.799439	0.003175
Cl139	Cl	0.849409	1.478931	-0.910546
Cl140	Cl	0.510857	1.317447	-0.367887
H141	H	0.318975	1.365163	-0.454020
H142	H	1.212823	0.874065	0.030529
Cl143	Cl	0.045925	1.395143	-0.473677
Cl144	Cl	1.040671	0.855790	0.261330
Cl145	Cl	0.998099	0.666419	-0.501444
Cl146	Cl	0.496043	1.206863	-0.350449
Cl147	Cl	0.810232	1.332085	-0.719640
H148	H	1.218697	0.695011	-0.310275
H149	H	0.527552	1.302152	-0.499822
Cl150	Cl	0.554228	1.574067	-0.208694
Cl151	Cl	1.265253	0.796085	-0.231461
Cl152	Cl	0.453294	1.255818	-0.382501
Cl153	Cl	1.130605	0.960385	-0.134253
H154	H	0.193908	1.407939	-0.482012
Cl155	Cl	0.980335	1.449963	-0.564454
Cl156	Cl	0.405460	1.386547	-0.617742
Cl157	Cl	0.968339	0.816939	-0.382525
Cl158	Cl	0.603415	0.857115	-0.121591
Cl159	Cl	0.746567	1.380508	-1.121959
H160	H	0.599844	1.386253	-0.817789
Cl161	Cl	0.880070	0.786696	-0.362745
H162	H	0.889635	0.914467	-0.798362
H163	H	0.955054	0.493252	-0.450852
H164	H	0.225946	1.006696	-0.219481
H165	H	0.773058	0.408129	-0.236979
H166	H	1.134216	0.909646	-0.242996
Cl167	Cl	0.721953	1.301845	-0.699857
H168	H	0.818566	0.894248	0.127841
H169	H	0.851932	1.037317	-0.954990
H170	H	0.413213	1.454159	-0.349013
H171	H	0.893546	0.901730	-0.511532
H172	H	0.787109	0.776254	0.281292
H173	H	0.998969	1.570813	-0.751834
H174	H	0.703011	0.669838	0.295713
Cl175	Cl	0.927376	0.950418	0.104593
H176	H	0.701664	0.480883	-0.153108
H177	H	0.946360	1.582463	-0.890938
Cl178	Cl	0.916291	0.827660	-0.634131
Cl179	Cl	0.450417	1.438868	-0.815547
Cl180	Cl	0.325926	0.847686	-0.115421
Cl181	Cl	0.651229	0.585835	-0.093820
H182	H	0.430641	1.557292	-0.285034
H183	H	0.157700	1.084845	-0.270616
H184	H	1.099362	0.703401	-0.370981
H185	H	0.694262	0.759015	-0.144411
Cl186	Cl	0.779951	1.271788	-0.766301
H187	H	0.455416	0.844341	-0.113235
H188	H	0.744898	1.385970	-0.954475
