data_functionalizedCrystal
_audit_creation_method	'MofGen! by Chris Wilmer'
_symmetry_space_group_name_H-M	'P1'
_symmetry_Int_Tables_number	1
_symmetry_cell_setting	triclinic
loop_
_symmetry_equiv_pos_as_xyz
  x,y,z
_cell_length_a	15.995292
_cell_length_b	15.995350
_cell_length_c	13.330367
_cell_angle_alpha	89.997588
_cell_angle_beta	89.991273
_cell_angle_gamma	83.480495
loop_
_atom_site_label
_atom_site_type_symbol
_atom_site_fract_x
_atom_site_fract_y
_atom_site_fract_z
O1	O	1.111020	0.107694	-0.083446
O2	O	0.867238	0.121073	-0.083441
O3	O	0.995793	-0.007506	-0.083443
O4	O	0.982465	0.236272	-0.083444
O5	O	0.995774	-0.007509	0.083405
O6	O	0.867219	0.121070	0.083406
O7	O	1.111001	0.107691	0.083402
Cu8	Cu	0.989108	0.114380	0.098638
Cu9	Cu	0.989130	0.114384	-0.098678
O10	O	0.982446	0.236270	0.083403
C11	C	0.995232	-0.038702	-0.000021
C12	C	0.993580	-0.131652	-0.000026
C13	C	0.836033	0.120527	-0.000017
C14	C	0.743080	0.118894	-0.000015
C15	C	0.987648	-0.469398	-0.000023
C16	C	0.896094	-0.421945	-0.000396
C17	C	0.897746	-0.325255	-0.000019
C18	C	0.990591	-0.301838	-0.000025
C19	C	1.035738	-0.342927	0.095250
C20	C	1.033438	-0.439562	0.095330
C21	C	1.035350	-0.439917	-0.094407
C22	C	1.035329	-0.342972	-0.095666
C23	C	0.992259	-0.207141	-0.000023
C24	C	0.985983	-0.564095	-0.000018
C25	C	0.405341	0.112893	-0.000027
C26	C	0.428654	0.205697	-0.000400
C27	C	0.525329	0.207461	-0.000020
C28	C	0.572897	0.115871	-0.000022
C29	C	0.543785	0.069471	0.095253
C30	C	0.446994	0.068354	0.095329
C31	C	0.447160	0.066462	-0.094408
C32	C	0.543653	0.069902	-0.095663
C33	C	0.667593	0.117549	-0.000015
C34	C	0.310646	0.111212	-0.000026
C35	C	1.142206	0.108237	-0.000025
C36	C	1.235159	0.109870	-0.000033
C37	C	0.983006	0.267466	-0.000021
C38	C	0.984658	0.360416	-0.000022
N39	N	0.989099	0.114377	0.237420
N40	N	0.989146	0.114380	-0.237459
C41	C	0.932204	0.171296	0.710043
C42	C	1.046079	0.057465	0.710010
C43	C	1.046070	0.057462	0.604992
C44	C	0.989127	0.114378	0.552494
C45	C	0.932194	0.171297	0.605015
C46	C	1.103008	0.000551	0.552463
C47	C	1.103001	0.000547	0.447438
C48	C	1.046054	0.057459	0.394939
C49	C	0.989118	0.114379	0.447466
C50	C	0.932175	0.171295	0.394969
C51	C	0.875235	0.228212	0.447494
C52	C	0.875247	0.228209	0.552516
C53	C	1.046042	0.057462	0.289917
C54	C	0.932166	0.171296	0.289941
H55	H	0.862256	-0.296824	-0.068316
C56	C	0.990760	-0.306073	-0.190861
C57	C	0.897148	-0.315595	-0.208330
C58	C	0.852557	-0.278686	-0.303508
C59	C	0.901579	-0.232255	-0.381217
C60	C	0.995196	-0.222731	-0.363750
C61	C	1.039787	-0.259640	-0.268572
H62	H	0.860855	-0.349968	-0.150803
H63	H	0.783255	-0.285737	-0.316438
H64	H	0.868570	-0.204933	-0.451674
H65	H	1.031489	-0.188359	-0.421277
H66	H	1.109089	-0.252590	-0.255642
C67	C	0.588204	-0.020407	-0.103442
C68	C	0.577860	-0.084268	-0.019157
C69	C	0.622420	-0.174578	-0.026926
C70	C	0.677323	-0.201027	-0.118981
C71	C	0.687669	-0.137165	-0.203273
C72	C	0.643110	-0.046855	-0.195503
H73	H	0.537215	-0.064691	0.048994
H74	H	0.614760	-0.221853	0.035473
H75	H	0.710308	-0.267880	-0.124733
H76	H	0.728314	-0.156742	-0.271424
H77	H	0.650769	0.000420	-0.257902
H78	H	0.563836	0.101691	0.166158
C79	C	0.408985	0.105681	-0.191989
C80	C	0.465610	0.143974	-0.268866
C81	C	0.427424	0.183175	-0.366449
C82	C	0.332613	0.184084	-0.387155
C83	C	0.275982	0.145790	-0.310276
C84	C	0.314168	0.106588	-0.212693
H85	H	0.535800	0.143302	-0.253540
H86	H	0.469347	0.211523	-0.423360
H87	H	0.304346	0.213104	-0.459393
H88	H	0.205792	0.146461	-0.325602
H89	H	0.272246	0.078240	-0.155782
H90	H	1.103948	-0.328815	0.098789
C91	C	1.124238	-0.483157	0.101181
C92	C	1.151262	-0.541846	0.189795
C93	C	1.242059	-0.585438	0.195654
C94	C	1.305832	-0.570341	0.112897
C95	C	1.278809	-0.511650	0.024277
C96	C	1.188012	-0.468057	0.018418
H97	H	1.104053	-0.553023	0.251062
H98	H	1.262063	-0.628885	0.261257
H99	H	1.373045	-0.602611	0.117234
H100	H	1.326018	-0.500472	-0.036990
H101	H	1.168008	-0.424610	-0.047185
H102	H	0.885793	0.217641	0.247204
H103	H	1.103036	-0.327624	-0.101423
C104	C	0.428257	-0.025819	-0.095289
C105	C	0.462456	-0.084994	-0.180621
C106	C	0.443546	-0.177272	-0.181493
C107	C	0.390437	-0.210374	-0.097034
C108	C	0.356235	-0.151198	-0.011695
C109	C	0.375144	-0.058921	-0.010823
H110	H	0.501773	-0.060491	-0.243148
H111	H	0.468866	-0.221077	-0.244667
H112	H	0.376439	-0.278683	-0.097679
H113	H	0.316918	-0.175701	0.050833
H114	H	0.349825	-0.015115	0.052351
C115	C	0.993356	-0.304590	0.191043
C116	C	0.917843	-0.236056	0.183014
C117	C	0.875455	-0.197721	0.278804
C118	C	0.908579	-0.227919	0.382623
C119	C	0.984096	-0.296456	0.390656
C120	C	1.026484	-0.334791	0.294866
H121	H	0.893319	-0.213698	0.106157
H122	H	0.819553	-0.146985	0.272857
H123	H	0.877201	-0.199541	0.453532
H124	H	1.008620	-0.318814	0.467512
H125	H	1.082386	-0.385527	0.300813
C126	C	0.390837	0.254030	-0.092699
C127	C	0.448975	0.290897	-0.169004
C128	C	0.411150	0.339228	-0.261308
C129	C	0.315187	0.350692	-0.277306
C130	C	0.257043	0.313824	-0.200998
C131	C	0.294868	0.265493	-0.108695
H132	H	0.520018	0.282412	-0.157164
H133	H	0.454193	0.366521	-0.317795
H134	H	0.287187	0.386470	-0.345634
H135	H	0.186000	0.322309	-0.212839
H136	H	0.251825	0.238200	-0.052207
C137	C	0.994926	-0.467650	-0.191966
C138	C	0.918076	-0.517431	-0.187171
C139	C	0.877641	-0.545164	-0.284724
C140	C	0.914056	-0.523115	-0.387071
C141	C	0.990910	-0.473331	-0.391869
C142	C	1.031345	-0.445599	-0.294317
H143	H	0.891115	-0.533755	-0.111404
H144	H	0.820748	-0.582017	-0.281171
H145	H	0.884124	-0.543644	-0.459285
H146	H	1.017870	-0.457007	-0.467636
H147	H	1.088238	-0.408745	-0.297870
H148	H	0.885841	0.217634	0.752812
H149	H	1.102853	-0.471692	-0.095051
C150	C	0.812599	0.290819	0.389742
C151	C	0.748570	0.258075	0.317554
C152	C	0.685937	0.320681	0.259798
C153	C	0.687334	0.416031	0.274229
C154	C	0.751365	0.448780	0.346420
C155	C	0.813998	0.386174	0.404176
H156	H	0.747534	0.187487	0.306869
H157	H	0.638536	0.296437	0.206358
H158	H	0.640969	0.462376	0.231474
H159	H	0.752401	0.519369	0.357105
H160	H	0.861399	0.410418	0.457616
H161	H	0.859508	-0.440468	-0.068719
H162	H	1.092445	0.011130	0.752757
C163	C	1.165644	-0.062054	0.610203
C164	C	1.132940	-0.126108	0.682411
C165	C	1.195579	-0.188718	0.740154
C166	C	1.290922	-0.187273	0.725690
C167	C	1.323631	-0.123216	0.653478
C168	C	1.260992	-0.060607	0.595735
H169	H	1.062357	-0.127180	0.693122
H170	H	1.171365	-0.236137	0.793610
H171	H	1.337291	-0.233620	0.768435
H172	H	1.394214	-0.122145	0.642768
H173	H	1.285206	-0.013188	0.542279
H174	H	0.828889	0.274549	0.595289
H175	H	0.420169	0.100486	0.166550
C176	C	0.551041	0.256545	-0.092289
C177	C	0.612299	0.212840	-0.170191
C178	C	0.638001	0.261925	-0.262467
C179	C	0.602446	0.354716	-0.276841
C180	C	0.541185	0.398426	-0.198937
C181	C	0.515483	0.349341	-0.106661
H182	H	0.638622	0.144146	-0.159552
H183	H	0.683351	0.229567	-0.320136
H184	H	0.621473	0.391052	-0.345149
H185	H	0.514862	0.467120	-0.209575
H186	H	0.470133	0.381699	-0.048991
H187	H	0.859655	-0.441532	0.067549
H188	H	1.149364	-0.045798	0.404678
H189	H	1.092406	0.011125	0.247156
C190	C	0.427324	-0.023564	0.101184
C191	C	0.375958	-0.052540	0.189799
C192	C	0.356290	-0.144454	0.195663
C193	C	0.387987	-0.207393	0.112912
C194	C	0.439356	-0.178418	0.024291
C195	C	0.459025	-0.086503	0.018427
H196	H	0.352491	-0.005948	0.251062
H197	H	0.318263	-0.165903	0.261267
H198	H	0.373428	-0.275433	0.117253
H199	H	0.462823	-0.225009	-0.036972
H200	H	0.497051	-0.065054	-0.047177
H201	H	1.000501	-0.457858	0.166554
C202	C	0.849615	-0.287532	0.092477
C203	C	0.772082	-0.222100	0.078913
C204	C	0.724021	-0.184347	0.171449
C205	C	0.753494	-0.212026	0.277549
C206	C	0.831030	-0.277461	0.291117
C207	C	0.879091	-0.315214	0.198582
H208	H	0.750261	-0.201607	0.000368
H209	H	0.666623	-0.135907	0.161404
H210	H	0.717916	-0.184079	0.346050
H211	H	0.852851	-0.297954	0.369663
H212	H	0.936489	-0.363654	0.208626
H213	H	0.399628	0.241269	0.067542
H214	H	0.543725	0.244016	0.068393
H215	H	0.575653	0.002073	0.098794
H216	H	0.562230	0.103685	-0.166146
