data_functionalizedCrystal
_audit_creation_method	'MofGen! by Chris Wilmer'
_symmetry_space_group_name_H-M	'P1'
_symmetry_Int_Tables_number	1
_symmetry_cell_setting	triclinic
loop_
_symmetry_equiv_pos_as_xyz
  x,y,z
_cell_length_a	19.188905
_cell_length_b	19.188930
_cell_length_c	13.930277
_cell_angle_alpha	89.990320
_cell_angle_beta	89.985661
_cell_angle_gamma	83.139668
loop_
_atom_site_label
_atom_site_type_symbol
_atom_site_fract_x
_atom_site_fract_y
_atom_site_fract_z
O1	O	0.926159	0.087084	-0.080000
O2	O	1.259492	0.420417	0.253334
O3	O	1.592825	0.753751	0.586667
O4	O	0.722845	0.098836	-0.079968
O5	O	1.056178	0.432170	0.253365
O6	O	1.389512	0.765503	0.586698
O7	O	0.830369	-0.008696	-0.079966
O8	O	1.163702	0.324637	0.253367
O9	O	1.497036	0.657971	0.586700
O10	O	0.818635	0.194616	-0.080002
O11	O	1.151968	0.527950	0.253331
O12	O	1.485301	0.861283	0.586665
O13	O	0.830354	-0.008698	0.079696
O14	O	1.163688	0.324635	0.413029
O15	O	1.497021	0.657968	0.746362
O16	O	0.722830	0.098834	0.079693
O17	O	1.056163	0.432167	0.413027
O18	O	1.389497	0.765501	0.746360
O19	O	0.926144	0.087082	0.079662
O20	O	1.259477	0.420415	0.412995
O21	O	1.592811	0.753748	0.746329
Zn22	Zn	0.824485	0.092958	0.105028
Zn23	Zn	1.157818	0.426291	0.438361
Zn24	Zn	1.491151	0.759624	0.771694
Zn25	Zn	0.824504	0.092960	-0.105334
Zn26	Zn	1.157838	0.426294	0.228000
Zn27	Zn	1.491171	0.759627	0.561333
O28	O	0.818620	0.194614	0.079660
O29	O	1.151953	0.527947	0.412993
O30	O	1.485286	0.861281	0.746327
C31	C	0.696826	0.098458	-0.000133
C32	C	1.030160	0.431791	0.333200
C33	C	1.363493	0.765124	0.666533
C34	C	0.619321	0.097324	-0.000120
C35	C	0.952654	0.430657	0.333213
C36	C	1.285987	0.763991	0.666546
C37	C	0.582937	0.096781	-0.087154
C38	C	0.916270	0.430114	0.246179
C39	C	1.249604	0.763447	0.579512
C40	C	0.510113	0.095708	-0.087166
C41	C	0.843447	0.429041	0.246167
C42	C	1.176780	0.762374	0.579500
C43	C	0.473678	0.095164	-0.000139
C44	C	0.807012	0.428497	0.333194
C45	C	1.140345	0.761830	0.666528
C46	C	0.510070	0.095711	0.086907
C47	C	0.843403	0.429045	0.420240
C48	C	1.176737	0.762378	0.753573
C49	C	0.582891	0.096791	0.086916
C50	C	0.916225	0.430125	0.420249
C51	C	1.249558	0.763458	0.753583
N52	N	0.364652	0.053734	0.064634
N53	N	0.697985	0.387068	0.397968
N54	N	1.031319	0.720401	0.731301
N55	N	0.295475	0.052707	0.064620
N56	N	0.628808	0.386040	0.397953
N57	N	0.962142	0.719373	0.731286
C58	C	0.254272	0.091911	-0.000162
C59	C	0.587605	0.425244	0.333172
C60	C	0.920938	0.758578	0.666505
N61	N	0.284860	0.132173	-0.064942
N62	N	0.618193	0.465506	0.268391
N63	N	0.951526	0.798840	0.601725
N64	N	0.354043	0.133198	-0.064930
N65	N	0.687377	0.466531	0.268403
N66	N	1.020710	0.799864	0.601737
C67	C	0.394716	0.093993	-0.000139
C68	C	0.728049	0.427326	0.333194
C69	C	1.061382	0.760660	0.666527
C70	C	0.138924	0.090205	-0.087214
C71	C	0.472257	0.423539	0.246119
C72	C	0.805591	0.756872	0.579452
C73	C	0.066098	0.089137	-0.087223
C74	C	0.399432	0.422470	0.246111
C75	C	0.732765	0.755803	0.579444
C76	C	0.066058	0.089133	0.086853
C77	C	0.399391	0.422467	0.420186
C78	C	0.732724	0.755800	0.753520
C79	C	0.138881	0.090209	0.086859
C80	C	0.472214	0.423542	0.420192
C81	C	0.805547	0.756876	0.753525
C82	C	0.175310	0.090742	-0.000178
C83	C	0.508643	0.424075	0.333156
C84	C	0.841977	0.757408	0.666489
C85	C	0.829982	-0.034708	-0.000132
C86	C	1.163315	0.298625	0.333201
C87	C	1.496648	0.631959	0.666534
C88	C	0.828841	-0.112213	-0.000124
C89	C	1.162174	0.221121	0.333209
C90	C	1.495508	0.554454	0.666543
C91	C	0.891933	-0.157142	-0.000129
C92	C	1.225266	0.176191	0.333204
C93	C	1.558599	0.509525	0.666537
C94	C	0.890861	-0.229966	-0.000144
C95	C	1.224194	0.103367	0.333189
C96	C	1.557528	0.436701	0.666522
C97	C	0.826694	-0.257857	-0.000135
C98	C	1.160027	0.075477	0.333198
C99	C	1.493361	0.408810	0.666531
C100	C	0.763594	-0.212917	-0.000135
C101	C	1.096927	0.120416	0.333198
C102	C	1.430261	0.453749	0.666531
C103	C	0.764668	-0.140095	-0.000130
C104	C	1.098001	0.193238	0.333203
C105	C	1.431334	0.526572	0.666537
N106	N	0.777641	-0.365858	0.054208
N107	N	1.110974	-0.032525	0.387542
N108	N	1.444308	0.300809	0.720875
N109	N	0.776626	-0.435037	0.054205
N110	N	1.109959	-0.101703	0.387538
N111	N	1.443292	0.231630	0.720872
C112	C	0.823456	-0.477265	-0.000154
C113	C	1.156789	-0.143932	0.333179
C114	C	1.490122	0.189402	0.666513
N115	N	0.871351	-0.447703	-0.054498
N116	N	1.204684	-0.114370	0.278835
N117	N	1.538017	0.218964	0.612169
N118	N	0.872368	-0.378518	-0.054490
N119	N	1.205701	-0.045185	0.278843
N120	N	1.539035	0.288148	0.612176
C121	C	0.825523	-0.336819	-0.000142
C122	C	1.158856	-0.003486	0.333191
C123	C	1.492190	0.329848	0.666525
C124	C	0.885390	-0.601159	-0.000177
C125	C	1.218723	-0.267826	0.333156
C126	C	1.552056	0.065508	0.666490
C127	C	0.884315	-0.673984	-0.000198
C128	C	1.217649	-0.340650	0.333135
C129	C	1.550982	-0.007317	0.666468
C130	C	0.757047	-0.656933	-0.000180
C131	C	1.090380	-0.323600	0.333154
C132	C	1.423714	0.009733	0.666487
C133	C	0.758123	-0.584110	-0.000168
C134	C	1.091456	-0.250777	0.333165
C135	C	1.424790	0.082556	0.666498
C136	C	0.822296	-0.556228	-0.000162
C137	C	1.155630	-0.222894	0.333171
C138	C	1.488963	0.110439	0.666504
C139	C	0.952163	0.087460	-0.000175
C140	C	1.285496	0.420794	0.333158
C141	C	1.618829	0.754127	0.666491
C142	C	1.029668	0.088594	-0.000194
C143	C	1.363001	0.421927	0.333139
C144	C	1.696335	0.755261	0.666472
C145	C	0.819007	0.220626	-0.000176
C146	C	1.152341	0.553959	0.333157
C147	C	1.485674	0.887293	0.666491
C148	C	0.820148	0.298131	-0.000191
C149	C	1.153481	0.631464	0.333143
C150	C	1.486815	0.964797	0.666476
N151	N	0.824476	0.092955	0.248594
N152	N	1.157810	0.426288	0.581927
N153	N	1.491143	0.759622	0.915260
N154	N	0.824518	0.092957	-0.248900
N155	N	1.157851	0.426291	0.084433
N156	N	1.491185	0.759624	0.417767
C157	C	0.776891	0.140557	0.700862
C158	C	1.110224	0.473891	1.034195
C159	C	1.443557	0.807224	1.367529
C160	C	0.872137	0.045358	0.700833
C161	C	1.205470	0.378692	1.034167
C162	C	1.538804	0.712025	1.367500
C163	C	0.872129	0.045356	0.600338
C164	C	1.205462	0.378689	0.933671
C165	C	1.538795	0.712023	1.267004
C166	C	0.824501	0.092956	0.550099
C167	C	1.157835	0.426289	0.883433
C168	C	1.491168	0.759623	1.216766
C169	C	0.776882	0.140558	0.600357
C170	C	1.110216	0.473891	0.933690
C171	C	1.443549	0.807225	1.267024
C172	C	0.919751	-0.002240	0.550072
C173	C	1.253085	0.331093	0.883406
C174	C	1.586418	0.664426	1.216739
C175	C	0.919746	-0.002244	0.449571
C176	C	1.253079	0.331089	0.782904
C177	C	1.586412	0.664423	1.116237
C178	C	0.872114	0.045353	0.399331
C179	C	1.205448	0.378687	0.732664
C180	C	1.538781	0.712020	1.065997
C181	C	0.824493	0.092957	0.449594
C182	C	1.157826	0.426290	0.782928
C183	C	1.491160	0.759623	1.116261
C184	C	0.776866	0.140556	0.399356
C185	C	1.110199	0.473890	0.732690
C186	C	1.443532	0.807223	1.066023
C187	C	0.729241	0.188157	0.449618
C188	C	1.062574	0.521490	0.782951
C189	C	1.395907	0.854824	1.116285
C190	C	0.729251	0.188155	0.550117
C191	C	1.062585	0.521488	0.883450
C192	C	1.395918	0.854822	1.216784
C193	C	0.872104	0.045355	0.298832
C194	C	1.205437	0.378689	0.632165
C195	C	1.538770	0.712022	0.965498
C196	C	0.776857	0.140557	0.298851
C197	C	1.110191	0.473890	0.632184
C198	C	1.443524	0.807224	0.965518
H199	H	0.168585	0.090646	-0.158085
H200	H	0.501919	0.423980	0.175249
H201	H	0.835252	0.757313	0.508582
Br202	Br	0.984393	-0.066832	0.618249
Br203	Br	1.317726	0.266501	0.951582
Br204	Br	1.651060	0.599835	1.284915
Br205	Br	0.188263	0.090945	0.204983
Br206	Br	0.521596	0.424278	0.538316
Br207	Br	0.854929	0.757611	0.871650
Br208	Br	0.979024	-0.119304	-0.000148
Br209	Br	1.312358	0.214029	0.333185
Br210	Br	1.645691	0.547362	0.666519
Br211	Br	0.664623	0.252752	0.618330
Br212	Br	0.997956	0.586085	0.951664
Br213	Br	1.331290	0.919419	1.284997
H214	H	0.738071	0.179316	0.257953
H215	H	1.071404	0.512650	0.591287
H216	H	1.404738	0.845983	0.924620
H217	H	0.942239	-0.266555	-0.000152
H218	H	1.275573	0.066779	0.333181
H219	H	1.608906	0.400112	0.666514
H220	H	0.036476	0.088698	-0.158099
H221	H	0.369809	0.422032	0.175234
H222	H	0.703142	0.755365	0.508568
Br223	Br	0.632374	0.097505	-0.205274
Br224	Br	0.965707	0.430838	0.128059
Br225	Br	1.299040	0.764172	0.461392
Br226	Br	0.676510	-0.250767	-0.000135
Br227	Br	1.009843	0.082567	0.333198
Br228	Br	1.343176	0.415900	0.666531
Br229	Br	0.712254	0.205151	0.769067
Br230	Br	1.045588	0.538485	1.102401
Br231	Br	1.378921	0.871818	1.435734
H232	H	0.612515	0.097234	0.157792
H233	H	0.945848	0.430568	0.491125
H234	H	1.279181	0.763901	0.824458
Br235	Br	0.460724	0.094972	-0.205292
Br236	Br	0.794058	0.428305	0.128041
Br237	Br	1.127391	0.761638	0.461374
H238	H	0.937644	-0.578456	-0.000177
H239	H	1.270977	-0.245123	0.333157
H240	H	1.604310	0.088211	0.666490
H241	H	0.036392	0.088695	0.157712
H242	H	0.369725	0.422028	0.491046
H243	H	0.703059	0.755362	0.824379
H244	H	0.713289	-0.103513	-0.000125
H245	H	1.046622	0.229821	0.333208
H246	H	1.379956	0.563154	0.666541
H247	H	0.935694	-0.710565	-0.000208
H248	H	1.269028	-0.377232	0.333126
H249	H	1.602361	-0.043899	0.666459
H250	H	0.704801	-0.679641	-0.000177
H251	H	1.038134	-0.346308	0.333156
H252	H	1.371468	-0.012975	0.666490
Br253	Br	0.672494	-0.523130	-0.000160
Br254	Br	1.005827	-0.189797	0.333173
Br255	Br	1.339160	0.143537	0.666506
H256	H	0.690465	0.226916	0.408703
H257	H	1.023798	0.560250	0.742036
H258	H	1.357132	0.893583	1.075369
Br259	Br	0.936778	-0.019233	0.769010
Br260	Br	1.270112	0.314100	1.102343
Br261	Br	1.603445	0.647433	1.435676
H262	H	0.958524	-0.041003	0.408654
H263	H	1.291857	0.292330	0.741987
H264	H	1.625190	0.625663	1.075320
H265	H	0.480400	0.095270	0.157765
H266	H	0.813733	0.428603	0.491098
H267	H	1.147066	0.761937	0.824432
Br268	Br	0.936739	-0.019234	0.230625
Br269	Br	1.270072	0.314099	0.563958
Br270	Br	1.603406	0.647432	0.897292
