data_functionalizedCrystal
_audit_creation_method	'MofGen! by Chris Wilmer'
_symmetry_space_group_name_H-M	'P1'
_symmetry_Int_Tables_number	1
_symmetry_cell_setting	triclinic
loop_
_symmetry_equiv_pos_as_xyz
  x,y,z
_cell_length_a	14.908571
_cell_length_b	12.759394
_cell_length_c	14.908694
_cell_angle_alpha	93.269693
_cell_angle_beta	83.592472
_cell_angle_gamma	86.711101
loop_
_atom_site_label
_atom_site_type_symbol
_atom_site_fract_x
_atom_site_fract_y
_atom_site_fract_z
Zn1	Zn	1.413387	-0.553121	-0.591519
Zn2	Zn	1.404569	-0.718063	-0.440158
Zn3	Zn	1.253288	-0.531632	-0.431454
Zn4	Zn	1.262001	-0.717981	-0.582756
O5	O	1.333311	-0.630199	-0.511472
O6	O	1.538885	-0.584029	-0.578751
O7	O	1.377164	-0.684373	-0.312337
O8	O	1.274569	-0.387466	-0.452712
O9	O	1.532407	-0.705210	-0.467546
O10	O	1.392194	-0.403254	-0.570311
O11	O	1.266018	-0.547403	-0.305943
O12	O	1.127776	-0.547324	-0.444215
O13	O	1.289420	-0.705072	-0.710584
O14	O	1.134178	-0.684234	-0.555376
O15	O	1.400643	-0.583950	-0.717022
O16	O	1.385614	-0.865068	-0.459049
O17	O	1.280869	-0.865009	-0.563815
C18	C	1.098133	-0.613439	-0.497900
C19	C	0.997524	-0.606296	-0.492116
C20	C	1.333256	-0.903161	-0.511447
C21	C	1.333317	-1.019944	-0.511471
C22	C	0.815175	-0.735635	-0.596842
C23	C	0.720644	-0.728927	-0.591410
C24	C	0.713930	-0.586167	-0.475825
C25	C	0.808461	-0.592875	-0.481257
C26	C	0.859080	-0.667613	-0.541767
C27	C	0.953612	-0.674325	-0.547193
C28	C	0.946897	-0.531561	-0.431613
C29	C	0.852366	-0.524853	-0.426181
C30	C	1.442479	-1.019965	-0.402470
C31	C	1.497084	-1.074839	-0.347981
C32	C	1.497138	-1.184566	-0.348008
C33	C	1.442584	-1.239422	-0.402533
C34	C	1.387979	-1.184548	-0.457021
C35	C	1.387928	-1.074818	-0.456986
C36	C	1.278823	-1.184528	-0.566027
C37	C	1.278762	-1.074800	-0.565995
C38	C	1.224268	-1.239384	-0.620551
C39	C	1.169657	-1.184509	-0.675036
C40	C	1.169604	-1.074775	-0.675005
C41	C	1.224157	-1.019926	-0.620484
C42	C	1.569408	-0.647026	-0.525097
C43	C	1.670018	-0.654196	-0.530903
C44	C	1.346987	-0.646899	-0.747565
C45	C	1.352815	-0.654015	-0.848173
C46	C	1.333393	-0.356174	-0.511518
C47	C	1.333428	-0.239401	-0.511538
C48	C	1.248008	-0.524761	-1.030570
C49	C	1.253480	-0.531444	-1.125100
C50	C	1.369227	-0.674067	-1.131767
C51	C	1.363754	-0.667384	-1.037236
C52	C	1.303144	-0.592728	-0.986641
C53	C	1.297677	-0.586041	-0.892109
C54	C	1.413418	-0.728668	-0.898777
C55	C	1.418890	-0.735351	-0.993307
C56	C	1.319741	-0.613493	-0.276300
C57	C	1.314089	-0.606093	-0.175702
H58	H	0.856389	-0.796494	-0.646107
O59	O	1.199827	-0.465567	-1.167806
C60	C	1.083833	-0.450283	-1.267517
C61	C	1.144533	-0.525007	-1.219191
H62	H	1.039125	-0.498311	-1.309088
H63	H	1.039511	-0.395799	-1.215148
H64	H	1.127979	-0.401411	-1.314143
H65	H	1.100456	-0.573947	-1.172568
H66	H	1.188860	-0.579421	-1.271608
H67	H	1.248328	-0.525248	-0.850915
O68	O	1.428063	-0.746507	-1.181061
C69	C	1.487708	-0.820083	-1.329646
C70	C	1.421059	-0.737972	-1.273933
H71	H	1.482054	-0.813226	-1.404743
H72	H	1.559658	-0.805545	-1.315364
H73	H	1.470706	-0.902328	-1.310065
H74	H	1.437978	-0.655695	-1.293481
H75	H	1.349128	-0.752603	-1.288221
H76	H	1.125247	-1.229182	-0.719430
H77	H	1.224113	-0.930579	-0.620448
O78	O	1.466850	-0.794798	-0.856058
C79	C	1.472826	-0.929917	-0.749973
C80	C	1.412208	-0.855104	-0.798303
H81	H	1.428673	-0.978678	-0.703253
H82	H	1.517065	-0.984491	-0.802336
H83	H	1.517629	-0.881904	-0.708501
H84	H	1.367351	-0.903032	-0.839773
H85	H	1.368030	-0.800527	-0.745895
H86	H	0.672700	-0.525313	-0.426567
O87	O	1.002651	-0.746949	-0.606049
C88	C	0.999327	-0.887871	-0.720090
C89	C	0.943685	-0.805660	-0.653486
H90	H	0.951676	-0.935376	-0.758446
H91	H	1.046323	-0.846262	-0.770090
H92	H	1.041182	-0.942889	-0.680987
H93	H	0.901777	-0.750618	-0.692513
H94	H	0.896746	-0.847338	-0.603486
O95	O	1.189216	-0.452271	-0.981281
C96	C	1.129456	-0.378808	-0.832693
C97	C	1.196092	-0.460936	-0.888401
H98	H	1.134979	-0.385800	-0.757588
H99	H	1.146451	-0.296513	-0.852141
H100	H	1.057550	-0.393359	-0.847116
H101	H	1.268021	-0.446483	-0.874007
H102	H	1.179018	-0.543203	-0.868944
H103	H	1.468235	-0.796137	-1.034515
H104	H	0.684900	-0.784315	-0.636261
H105	H	1.541504	-1.030166	-0.303589
H106	H	1.224320	-1.328730	-0.620574
H107	H	0.811139	-0.464001	-0.376919
O108	O	1.116614	-1.021600	-0.728068
C109	C	1.081514	-0.995695	-0.879464
C110	C	1.141572	-1.056005	-0.819473
H111	H	1.101683	-1.023472	-0.953378
H112	H	1.007613	-1.011050	-0.859390
H113	H	1.090826	-0.907848	-0.870031
H114	H	1.132339	-1.143869	-0.828875
H115	H	1.215450	-1.040562	-0.839561
O116	O	0.989452	-0.465328	-0.378150
C117	C	1.015899	-0.285508	-0.336168
C118	C	0.967635	-0.360389	-0.396753
H119	H	0.998293	-0.200650	-0.351200
H120	H	0.993043	-0.297258	-0.262070
H121	H	1.092152	-0.303195	-0.350426
H122	H	0.891375	-0.342749	-0.382574
H123	H	0.990565	-0.348625	-0.470832
H124	H	1.442427	-0.930618	-0.402429
H125	H	1.541607	-1.229245	-0.303644
H126	H	1.442641	-1.328769	-0.402559
