data_functionalizedCrystal
_audit_creation_method	'MofGen! by Chris Wilmer'
_symmetry_space_group_name_H-M	'P1'
_symmetry_Int_Tables_number	1
_symmetry_cell_setting	triclinic
loop_
_symmetry_equiv_pos_as_xyz
  x,y,z
_cell_length_a	18.101395
_cell_length_b	18.101398
_cell_length_c	18.101389
_cell_angle_alpha	90.008593
_cell_angle_beta	89.983159
_cell_angle_gamma	89.974090
loop_
_atom_site_label
_atom_site_type_symbol
_atom_site_fract_x
_atom_site_fract_y
_atom_site_fract_z
Zn1	Zn	-0.295010	-1.132121	-0.418536
Zn2	Zn	0.038323	-0.798788	-0.085203
Zn3	Zn	0.371657	-0.465454	0.248131
Zn4	Zn	-0.418836	-1.132017	-0.294698
Zn5	Zn	-0.085502	-0.798683	0.038635
Zn6	Zn	0.247831	-0.465350	0.371969
Zn7	Zn	-0.295001	-1.008280	-0.294731
Zn8	Zn	0.038332	-0.674946	0.038602
Zn9	Zn	0.371665	-0.341613	0.371936
Zn10	Zn	-0.418803	-1.008231	-0.418520
Zn11	Zn	-0.085470	-0.674897	-0.085187
Zn12	Zn	0.247864	-0.341564	0.248146
O13	O	-0.356912	-1.070162	-0.356621
O14	O	-0.023579	-0.736829	-0.023288
O15	O	0.309754	-0.403495	0.310045
O16	O	-0.311453	-1.235740	-0.402101
O17	O	0.021880	-0.902407	-0.068768
O18	O	0.355214	-0.569073	0.264566
O19	O	-0.402419	-1.115580	-0.191069
O20	O	-0.069085	-0.782246	0.142264
O21	O	0.264248	-0.448913	0.475597
O22	O	-0.191370	-1.024772	-0.311175
O23	O	0.141964	-0.691438	0.022159
O24	O	0.475297	-0.358105	0.355492
O25	O	-0.402427	-1.235663	-0.311118
O26	O	-0.069094	-0.902330	0.022216
O27	O	0.264239	-0.568997	0.355549
O28	O	-0.191376	-1.115757	-0.402133
O29	O	0.141957	-0.782424	-0.068800
O30	O	0.475291	-0.449091	0.264533
O31	O	-0.311438	-1.024671	-0.191094
O32	O	0.021895	-0.691338	0.142240
O33	O	0.355228	-0.358004	0.475573
O34	O	-0.311407	-0.904640	-0.311159
O35	O	0.021927	-0.571307	0.022174
O36	O	0.355260	-0.237974	0.355507
O37	O	-0.402371	-1.024688	-0.522155
O38	O	-0.069038	-0.691355	-0.188822
O39	O	0.264295	-0.358021	0.144511
O40	O	-0.402363	-0.904604	-0.402107
O41	O	-0.069030	-0.571271	-0.068774
O42	O	0.264304	-0.237938	0.264560
O43	O	-0.311421	-1.115710	-0.522167
O44	O	0.021912	-0.782376	-0.188833
O45	O	0.355245	-0.449043	0.144500
O46	O	-0.522464	-1.115532	-0.311103
O47	O	-0.189131	-0.782199	0.022231
O48	O	0.144202	-0.448865	0.355564
O49	O	-0.522440	-1.024587	-0.402075
O50	O	-0.189107	-0.691254	-0.068741
O51	O	0.144226	-0.357920	0.264592
C52	C	-0.356881	-0.877751	-0.356636
C53	C	-0.023548	-0.544418	-0.023302
C54	C	0.309786	-0.211085	0.310031
C55	C	-0.356885	-0.795437	-0.356659
C56	C	-0.023552	-0.462104	-0.023326
C57	C	0.309782	-0.128771	0.310007
C58	C	-0.356925	-0.496346	-0.356634
C59	C	-0.023591	-0.163013	-0.023301
C60	C	0.309742	0.170320	0.310032
C61	C	-0.414429	-0.527674	-0.413573
C62	C	-0.081096	-0.194340	-0.080240
C63	C	0.252237	0.138993	0.253094
C64	C	-0.414250	-0.613292	-0.413805
C65	C	-0.080917	-0.279959	-0.080472
C66	C	0.252416	0.053375	0.252862
C67	C	-0.356906	-0.644729	-0.356647
C68	C	-0.023572	-0.311396	-0.023313
C69	C	0.309761	0.021938	0.310020
C70	C	-0.278907	-0.613675	-0.377973
C71	C	0.054427	-0.280341	-0.044640
C72	C	0.387760	0.052992	0.288694
C73	C	-0.279251	-0.528029	-0.378379
C74	C	0.054082	-0.194696	-0.045046
C75	C	0.387416	0.138637	0.288287
C76	C	-0.376732	-0.527894	-0.278231
C77	C	-0.043399	-0.194560	0.055102
C78	C	0.289935	0.138773	0.388435
C79	C	-0.378445	-0.613544	-0.278649
C80	C	-0.045111	-0.280210	0.054685
C81	C	0.288222	0.053123	0.388018
C82	C	-0.356890	-0.728588	-0.356652
C83	C	-0.023557	-0.395255	-0.023319
C84	C	0.309776	-0.061922	0.310014
C85	C	-0.356935	-0.412487	-0.356630
C86	C	-0.023602	-0.079154	-0.023297
C87	C	0.309732	0.254180	0.310036
C88	C	-0.549323	-1.070063	-0.356600
C89	C	-0.215990	-0.736730	-0.023266
C90	C	0.117344	-0.403396	0.310067
C91	C	-0.631637	-1.070088	-0.356615
C92	C	-0.298304	-0.736755	-0.023282
C93	C	0.035030	-0.403422	0.310052
C94	C	-0.930728	-1.070251	-0.356655
C95	C	-0.597395	-0.736917	-0.023322
C96	C	-0.264061	-0.403584	0.310012
C97	C	-0.899419	-1.013163	-0.414034
C98	C	-0.566085	-0.679830	-0.080701
C99	C	-0.232752	-0.346497	0.252633
C100	C	-0.813801	-1.012892	-0.413855
C101	C	-0.480467	-0.679559	-0.080521
C102	C	-0.147134	-0.346225	0.252812
C103	C	-0.782346	-1.070170	-0.356636
C104	C	-0.449012	-0.736837	-0.023302
C105	C	-0.115679	-0.403503	0.310031
C106	C	-0.813481	-1.049041	-0.278590
C107	C	-0.480147	-0.715708	0.054743
C108	C	-0.146814	-0.382374	0.388077
C109	C	-0.899126	-1.048673	-0.278933
C110	C	-0.565793	-0.715340	0.054400
C111	C	-0.232459	-0.382006	0.387733
C112	C	-0.899083	-1.148592	-0.376634
C113	C	-0.565749	-0.815259	-0.043301
C114	C	-0.232416	-0.481926	0.290032
C115	C	-0.813432	-1.148132	-0.378346
C116	C	-0.480098	-0.814798	-0.045013
C117	C	-0.146765	-0.481465	0.288321
C118	C	-0.698486	-1.070126	-0.356620
C119	C	-0.365153	-0.736793	-0.023287
C120	C	-0.031819	-0.403459	0.310047
C121	C	-1.014587	-1.070293	-0.356665
C122	C	-0.681254	-0.736960	-0.023332
C123	C	-0.347921	-0.403627	0.310001
C124	C	-0.163751	-1.070282	-0.356659
C125	C	0.169583	-0.736948	-0.023326
C126	C	0.502916	-0.403615	0.310007
C127	C	-0.081436	-1.070333	-0.356676
C128	C	0.251897	-0.736999	-0.023342
C129	C	0.585230	-0.403666	0.309991
C130	C	-0.356894	-1.070205	-0.549783
C131	C	-0.023560	-0.736871	-0.216450
C132	C	0.309773	-0.403538	0.116883
C133	C	-0.356886	-1.070223	-0.632097
C134	C	-0.023552	-0.736890	-0.298764
C135	C	0.309781	-0.403556	0.034569
C136	C	-0.356941	-0.263324	-0.356613
C137	C	-0.023608	0.070009	-0.023279
C138	C	0.309725	0.403343	0.310054
C139	C	-0.356945	-0.345638	-0.356622
C140	C	-0.023612	-0.012305	-0.023288
C141	C	0.309721	0.321029	0.310045
C142	C	-0.356747	-1.070266	-0.931189
C143	C	-0.023414	-0.736933	-0.597855
C144	C	0.309920	-0.403600	-0.264522
C145	C	-0.413788	-1.012801	-0.899856
C146	C	-0.080455	-0.679467	-0.566523
C147	C	0.252878	-0.346134	-0.233190
C148	C	-0.414053	-1.012956	-0.814238
C149	C	-0.080720	-0.679623	-0.480905
C150	C	0.252614	-0.346289	-0.147571
C151	C	-0.356816	-1.070244	-0.782806
C152	C	-0.023483	-0.736911	-0.449473
C153	C	0.309851	-0.403577	-0.116139
C154	C	-0.378007	-1.148269	-0.813891
C155	C	-0.044674	-0.814936	-0.480558
C156	C	0.288660	-0.481603	-0.147224
C157	C	-0.378381	-1.147949	-0.899536
C158	C	-0.045048	-0.814616	-0.566203
C159	C	0.288285	-0.481283	-0.232869
C160	C	-0.278388	-1.050385	-0.899616
C161	C	0.054946	-0.717051	-0.566283
C162	C	0.388279	-0.383718	-0.232949
C163	C	-0.278840	-1.048649	-0.813966
C164	C	0.054493	-0.715315	-0.480632
C165	C	0.387827	-0.381982	-0.147299
C166	C	-0.356854	-1.070236	-0.698946
C167	C	-0.023520	-0.736903	-0.365613
C168	C	0.309813	-0.403570	-0.032280
C169	C	-0.356711	-1.070279	-1.015048
C170	C	-0.023378	-0.736946	-0.681715
C171	C	0.309956	-0.403612	-0.348381
C172	C	-0.356878	-1.070162	-0.164211
C173	C	-0.023544	-0.736829	0.169123
C174	C	0.309789	-0.403495	0.502456
C175	C	-0.356677	-1.070287	-0.081897
C176	C	-0.023344	-0.736954	0.251436
C177	C	0.309990	-0.403621	0.584770
H178	H	-0.432635	-0.506280	-0.258851
H179	H	-0.099301	-0.172947	0.074482
H180	H	0.234032	0.160386	0.407815
H181	H	-0.793106	-1.089313	-0.234673
H182	H	-0.459773	-0.755979	0.098660
H183	H	-0.126439	-0.422646	0.431994
Br184	Br	-0.313701	-0.649205	-0.204137
Br185	Br	0.019632	-0.315872	0.129196
Br186	Br	0.352965	0.017461	0.462529
H187	H	-0.334846	-0.507635	-0.235807
H188	H	-0.001513	-0.174302	0.097526
H189	H	0.331821	0.159031	0.430860
H190	H	-0.435840	-0.633848	-0.262564
H191	H	-0.102507	-0.300515	0.070769
H192	H	0.230826	0.032819	0.404102
H193	H	-0.262449	-0.508068	-0.435695
H194	H	0.070884	-0.174735	-0.102362
H195	H	0.404217	0.158598	0.230971
Br196	Br	-0.510851	-1.034877	-0.780089
Br197	Br	-0.177518	-0.701543	-0.446756
Br198	Br	0.155815	-0.368210	-0.113422
H199	H	-0.400662	-0.954768	-0.920458
H200	H	-0.067329	-0.621434	-0.587124
H201	H	0.266004	-0.288101	-0.253791
Br202	Br	-0.779515	-1.174692	-0.474080
Br203	Br	-0.446182	-0.841359	-0.140747
Br204	Br	-0.112849	-0.508026	0.192587
Br205	Br	-0.205557	-0.647615	-0.311010
Br206	Br	0.127777	-0.314282	0.022323
Br207	Br	0.461110	0.019051	0.355656
H208	H	-0.471516	-1.025796	-0.921380
H209	H	-0.138183	-0.692463	-0.588046
H210	H	0.195151	-0.359129	-0.254713
Br211	Br	-0.246210	-0.957201	-0.935616
Br212	Br	0.087123	-0.623868	-0.602282
Br213	Br	0.420456	-0.290534	-0.268949
Br214	Br	-0.777830	-0.954601	-0.249869
Br215	Br	-0.444497	-0.621268	0.083464
Br216	Br	-0.111163	-0.287934	0.416797
H217	H	-0.920997	-0.955448	-0.400967
H218	H	-0.587664	-0.622114	-0.067634
H219	H	-0.254331	-0.288781	0.265699
Br220	Br	-0.510664	-0.648289	-0.391561
Br221	Br	-0.177330	-0.314956	-0.058228
Br222	Br	0.156003	0.018377	0.275106
H223	H	-0.262860	-0.991229	-0.793649
H224	H	0.070474	-0.657896	-0.460316
H225	H	0.403807	-0.324562	-0.126982
H226	H	-0.401146	-0.633794	-0.471896
H227	H	-0.067813	-0.300461	-0.138562
H228	H	0.265520	0.032872	0.194771
Br229	Br	-0.312095	-1.221685	-0.934087
Br230	Br	0.021239	-0.888352	-0.600754
Br231	Br	0.354572	-0.555018	-0.267421
Br232	Br	-0.310938	-1.221553	-0.779964
Br233	Br	0.022396	-0.888220	-0.446630
Br234	Br	0.355729	-0.554887	-0.113297
Br235	Br	-0.204242	-1.113327	-0.778317
Br236	Br	0.129091	-0.779994	-0.444983
Br237	Br	0.462425	-0.446661	-0.111650
H238	H	-0.435663	-1.164804	-0.919516
H239	H	-0.102330	-0.831470	-0.586183
H240	H	0.231004	-0.498137	-0.252850
Br241	Br	-0.250394	-0.649447	-0.472463
Br242	Br	0.082940	-0.316114	-0.139130
Br243	Br	0.416273	0.017220	0.194203
H244	H	-0.920642	-1.167856	-0.432575
H245	H	-0.587309	-0.834523	-0.099241
H246	H	-0.253976	-0.501190	0.234092
H247	H	-0.792748	-1.026111	-0.471725
H248	H	-0.459415	-0.692778	-0.138392
H249	H	-0.126082	-0.359445	0.194942
H250	H	-0.793370	-0.954823	-0.400621
H251	H	-0.460036	-0.621490	-0.067288
H252	H	-0.126703	-0.288157	0.266045
H253	H	-0.919978	-1.026251	-0.472092
H254	H	-0.586645	-0.692918	-0.138759
H255	H	-0.253311	-0.359585	0.194575
H256	H	-0.792016	-1.192915	-0.339599
H257	H	-0.458683	-0.859582	-0.006266
H258	H	-0.125350	-0.526248	0.327067
H259	H	-0.919161	-0.991406	-0.262007
H260	H	-0.585827	-0.658072	0.071326
H261	H	-0.252494	-0.324739	0.404659
Br262	Br	-0.472465	-1.176852	-0.778149
Br263	Br	-0.139132	-0.843519	-0.444816
Br264	Br	0.194201	-0.510185	-0.111483
H265	H	-0.472458	-0.507058	-0.400357
H266	H	-0.139125	-0.173725	-0.067024
H267	H	0.194208	0.159608	0.266310
H268	H	-0.401491	-0.506163	-0.471328
H269	H	-0.068158	-0.172830	-0.137995
H270	H	0.265175	0.160504	0.195338
Br271	Br	-0.205423	-0.493487	-0.312274
Br272	Br	0.127910	-0.160153	0.021059
Br273	Br	0.461244	0.173180	0.354392
Br274	Br	-0.207553	-1.120146	-0.933386
Br275	Br	0.125780	-0.786813	-0.600053
Br276	Br	0.459113	-0.453480	-0.266719
Br277	Br	-0.933654	-1.114960	-0.205245
Br278	Br	-0.600320	-0.781627	0.128088
Br279	Br	-0.266987	-0.448293	0.461422
H280	H	-0.919329	-1.191125	-0.334843
H281	H	-0.585995	-0.857791	-0.001510
H282	H	-0.252662	-0.524458	0.331824
H283	H	-0.400791	-0.955097	-0.793221
H284	H	-0.067458	-0.621764	-0.459887
H285	H	0.265875	-0.288430	-0.126554
