data_functionalizedCrystal
_audit_creation_method	'MofGen! by Chris Wilmer'
_symmetry_space_group_name_H-M	'P1'
_symmetry_Int_Tables_number	1
_symmetry_cell_setting	triclinic
loop_
_symmetry_equiv_pos_as_xyz
  x,y,z
_cell_length_a	16.625548
_cell_length_b	16.625539
_cell_length_c	16.625545
_cell_angle_alpha	89.971893
_cell_angle_beta	90.026626
_cell_angle_gamma	89.979432
loop_
_atom_site_label
_atom_site_type_symbol
_atom_site_fract_x
_atom_site_fract_y
_atom_site_fract_z
Zn1	Zn	1.232663	-0.455910	-0.320977
Zn2	Zn	1.732663	0.044090	0.179023
Zn3	Zn	1.232559	-0.321078	-0.455820
Zn4	Zn	1.732559	0.178922	0.044180
Zn5	Zn	1.097825	-0.321091	-0.321008
Zn6	Zn	1.597825	0.178909	0.178992
Zn7	Zn	1.097788	-0.455868	-0.455774
Zn8	Zn	1.597788	0.044132	0.044226
O9	O	1.165209	-0.388487	-0.388395
O10	O	1.665209	0.111513	0.111605
O11	O	1.345482	-0.438037	-0.338871
O12	O	1.845482	0.061963	0.161129
O13	O	1.214658	-0.208247	-0.437969
O14	O	1.714658	0.291753	0.062031
O15	O	1.115771	-0.338998	-0.208171
O16	O	1.615771	0.161002	0.291829
O17	O	1.345405	-0.338976	-0.437940
O18	O	1.845405	0.161024	0.062060
O19	O	1.214836	-0.438050	-0.208149
O20	O	1.714836	0.061950	0.291851
O21	O	1.115670	-0.208257	-0.338923
O22	O	1.615670	0.291743	0.161077
O23	O	0.984988	-0.338957	-0.338878
O24	O	1.484988	0.161043	0.161122
O25	O	1.115708	-0.568706	-0.437861
O26	O	1.615708	-0.068706	0.062139
O27	O	0.984961	-0.437977	-0.437891
O28	O	1.484961	0.062023	0.062109
O29	O	1.214800	-0.568737	-0.338826
O30	O	1.714800	-0.068737	0.161174
O31	O	1.214622	-0.338935	-0.568647
O32	O	1.714622	0.161065	-0.068647
O33	O	1.115607	-0.437965	-0.568613
O34	O	1.615607	0.062035	-0.068613
C35	C	0.955718	-0.388464	-0.388383
C36	C	1.455718	0.111536	0.111617
C37	C	0.866097	-0.388474	-0.388398
C38	C	1.366097	0.111526	0.111602
C39	C	0.537921	-0.388508	-0.388403
C40	C	1.037921	0.111492	0.111597
C41	C	0.629230	-0.388496	-0.388399
C42	C	1.129230	0.111504	0.111601
C43	C	0.702006	-0.388490	-0.388401
C44	C	1.202006	0.111510	0.111599
C45	C	0.793320	-0.388480	-0.388396
C46	C	1.293320	0.111520	0.111604
C47	C	1.165261	-0.598796	-0.388335
C48	C	1.665261	-0.098796	0.111665
C49	C	1.165284	-0.688417	-0.388309
C50	C	1.665284	-0.188417	0.111691
C51	C	1.165321	-1.016593	-0.388219
C52	C	1.665321	-0.516593	0.111781
C53	C	1.165308	-0.925284	-0.388247
C54	C	1.665308	-0.425284	0.111753
C55	C	1.165303	-0.852508	-0.388265
C56	C	1.665303	-0.352508	0.111735
C57	C	1.165289	-0.761194	-0.388291
C58	C	1.665289	-0.261194	0.111709
C59	C	1.375518	-0.388510	-0.388407
C60	C	1.875518	0.111490	0.111593
C61	C	1.465139	-0.388520	-0.388412
C62	C	1.965139	0.111480	0.111588
C63	C	1.165121	-0.388462	-0.597886
C64	C	1.665121	0.111538	-0.097886
C65	C	1.165158	-0.388478	-0.687507
C66	C	1.665158	0.111522	-0.187507
C67	C	1.165203	-0.178996	-0.388397
C68	C	1.665203	0.321004	0.111603
C69	C	1.165337	-0.089375	-0.388195
C70	C	1.665337	0.410625	0.111805
C71	C	1.165189	-0.388494	-0.760289
C72	C	1.665189	0.111506	-0.260289
C73	C	1.165236	-0.388511	-0.851598
C74	C	1.665236	0.111489	-0.351598
C75	C	1.165278	-0.388522	-0.924374
C76	C	1.665278	0.111478	-0.424374
C77	C	1.165324	-0.388538	-1.015688
C78	C	1.665324	0.111462	-0.515688
C79	C	1.165319	-0.388530	-0.178086
C80	C	1.665319	0.111470	0.321914
C81	C	1.165366	-0.388548	-0.088465
C82	C	1.665366	0.111452	0.411535
