data_functionalizedCrystal
_audit_creation_method	'MofGen! by Chris Wilmer'
_symmetry_space_group_name_H-M	'P1'
_symmetry_Int_Tables_number	1
_symmetry_cell_setting	triclinic
loop_
_symmetry_equiv_pos_as_xyz
  x,y,z
_cell_length_a	15.995343
_cell_length_b	16.109301
_cell_length_c	15.186229
_cell_angle_alpha	89.998944
_cell_angle_beta	90.001292
_cell_angle_gamma	83.475384
loop_
_atom_site_label
_atom_site_type_symbol
_atom_site_fract_x
_atom_site_fract_y
_atom_site_fract_z
O1	O	1.110962	0.107130	0.073138
O2	O	1.444296	0.440463	0.406471
O3	O	1.777629	0.773797	0.739804
O4	O	0.867183	0.120370	0.073158
O5	O	1.200516	0.453704	0.406492
O6	O	1.533849	0.787037	0.739825
O7	O	0.995769	-0.007279	0.073145
O8	O	1.329103	0.326054	0.406478
O9	O	1.662436	0.659387	0.739811
O10	O	0.982376	0.234779	0.073151
O11	O	1.315709	0.568113	0.406485
O12	O	1.649042	0.901446	0.739818
O13	O	0.995754	-0.007272	-0.073313
O14	O	1.329088	0.326061	0.260021
O15	O	1.662421	0.659395	0.593354
O16	O	0.867168	0.120378	-0.073299
O17	O	1.200501	0.453711	0.260034
O18	O	1.533834	0.787044	0.593368
O19	O	1.110947	0.107137	-0.073320
O20	O	1.444281	0.440471	0.260014
O21	O	1.777614	0.773804	0.593347
Zn22	Zn	0.989055	0.113759	-0.096563
Zn23	Zn	1.322388	0.447092	0.236771
Zn24	Zn	1.655722	0.780425	0.570104
Zn25	Zn	0.989075	0.113749	0.096401
Zn26	Zn	1.322408	0.447082	0.429735
Zn27	Zn	1.655742	0.780416	0.763068
O28	O	0.982361	0.234787	-0.073306
O29	O	1.315694	0.568120	0.260027
O30	O	1.649027	0.901453	0.593361
C31	C	0.835980	0.119828	-0.000068
C32	C	1.169314	0.453161	0.333266
C33	C	1.502647	0.786494	0.666599
C34	C	0.743030	0.118190	-0.000060
C35	C	1.076363	0.451523	0.333274
C36	C	1.409697	0.784857	0.666607
C37	C	0.572844	0.115218	-0.000071
C38	C	0.906178	0.448551	0.333262
C39	C	1.239511	0.781884	0.666595
C40	C	0.549524	0.023074	-0.000074
C41	C	0.882857	0.356408	0.333260
C42	C	1.216191	0.689741	0.666593
C43	C	0.452847	0.021341	-0.000411
C44	C	0.786180	0.354674	0.332922
C45	C	1.119513	0.688007	0.666255
C46	C	0.405286	0.112290	-0.000082
C47	C	0.738619	0.445623	0.333251
C48	C	1.071952	0.778957	0.666585
C49	C	0.434356	0.158625	-0.083549
C50	C	0.767689	0.491959	0.249785
C51	C	1.101022	0.825292	0.583118
C52	C	0.531148	0.159718	-0.083614
C53	C	0.864481	0.493051	0.249720
C54	C	1.197815	0.826385	0.583053
C55	C	0.531075	0.161059	0.082942
C56	C	0.864409	0.494392	0.416275
C57	C	1.197742	0.827726	0.749608
C58	C	0.434581	0.157657	0.084033
C59	C	0.767915	0.490991	0.417367
C60	C	1.101248	0.824324	0.750700
C61	C	0.310588	0.110640	-0.000091
C62	C	0.643921	0.443973	0.333242
C63	C	0.977254	0.777307	0.666576
C64	C	0.667542	0.116870	-0.000068
C65	C	1.000875	0.450203	0.333265
C66	C	1.334209	0.783537	0.666598
C67	C	0.995219	-0.038251	-0.000083
C68	C	1.328553	0.295083	0.333251
C69	C	1.661886	0.628416	0.666584
C70	C	0.993593	-0.130546	-0.000079
C71	C	1.326926	0.202787	0.333254
C72	C	1.660259	0.536120	0.666587
C73	C	1.142150	0.107680	-0.000092
C74	C	1.475483	0.441013	0.333242
C75	C	1.808816	0.774346	0.666575
C76	C	1.235100	0.109317	-0.000094
C77	C	1.568433	0.442651	0.333239
C78	C	1.901767	0.775984	0.666573
C79	C	0.982911	0.265758	-0.000077
C80	C	1.316244	0.599091	0.333257
C81	C	1.649577	0.932425	0.666590
C82	C	0.984537	0.358054	-0.000074
C83	C	1.317871	0.691387	0.333259
C84	C	1.651204	1.024720	0.666592
N85	N	0.989048	0.113765	-0.228255
N86	N	1.322381	0.447098	0.105078
N87	N	1.655714	0.780431	0.438411
C88	C	0.913554	0.667035	-0.000065
C89	C	1.246888	1.000368	0.333269
C90	C	1.580221	1.333702	0.666602
C91	C	0.912018	0.580314	-0.000066
C92	C	1.245351	0.913648	0.333267
C93	C	1.578685	1.246981	0.666601
C94	C	1.064582	0.560478	-0.000092
C95	C	1.397915	0.893811	0.333242
C96	C	1.731248	1.227145	0.666575
C97	C	1.066117	0.647197	-0.000096
C98	C	1.399450	0.980530	0.333237
C99	C	1.732784	1.313864	0.666570
C100	C	0.990601	0.700474	-0.000078
C101	C	1.323934	1.033807	0.333255
C102	C	1.657267	1.367140	0.666588
C103	C	0.987529	0.527034	-0.000075
C104	C	1.320863	0.860367	0.333258
C105	C	1.654196	1.193701	0.666592
C106	C	0.985864	0.433008	-0.000077
C107	C	1.319198	0.766341	0.333257
C108	C	1.652531	1.099674	0.666590
C109	C	0.992266	0.794506	-0.000079
C110	C	1.325599	1.127839	0.333255
C111	C	1.658932	1.461173	0.666588
C112	C	1.039829	0.164205	-0.453981
C113	C	1.373163	0.497538	-0.120648
C114	C	1.706496	0.830872	0.212686
C115	C	1.039838	0.164199	-0.546171
C116	C	1.373172	0.497532	-0.212837
C117	C	1.706505	0.830866	0.120496
C118	C	0.938305	0.063290	-0.546174
C119	C	1.271639	0.396624	-0.212840
C120	C	1.604972	0.729957	0.120493
C121	C	0.938301	0.063292	-0.453986
C122	C	1.271635	0.396626	-0.120652
C123	C	1.604968	0.729959	0.212681
C124	C	0.989062	0.113754	-0.407892
C125	C	1.322395	0.447088	-0.074558
C126	C	1.655728	0.780421	0.258775
C127	C	0.989075	0.113746	-0.592269
C128	C	1.322408	0.447080	-0.258936
C129	C	1.655742	0.780413	0.074397
C130	C	0.989084	0.113740	-0.692226
C131	C	1.322418	0.447073	-0.358892
C132	C	1.655751	0.780406	-0.025559
C133	C	0.989054	0.113760	-0.307929
C134	C	1.322387	0.447094	0.025404
C135	C	1.655720	0.780427	0.358737
N136	N	0.989089	0.113736	0.228094
N137	N	1.322422	0.447070	0.561427
N138	N	1.655756	0.780403	0.894761
H139	H	0.434413	-0.014754	-0.060596
H140	H	0.767747	0.318579	0.272738
H141	H	1.101080	0.651913	0.606071
H142	H	0.557936	0.128010	-0.146245
H143	H	0.891269	0.461343	0.187088
H144	H	1.224603	0.794677	0.520421
Cl145	Cl	0.818620	0.734008	-0.000048
Cl146	Cl	1.151953	1.067342	0.333286
Cl147	Cl	1.485286	1.400675	0.666619
Cl148	Cl	0.815155	0.538281	-0.000050
Cl149	Cl	1.148488	0.871615	0.333283
Cl150	Cl	1.481822	1.204948	0.666616
Cl151	Cl	0.553624	0.264040	-0.089113
Cl152	Cl	0.886957	0.597374	0.244221
Cl153	Cl	1.220291	0.930707	0.577554
H154	H	1.081179	0.205280	-0.583693
H155	H	1.414513	0.538613	-0.250359
H156	H	1.747846	0.871946	0.082974
Cl157	Cl	0.592790	-0.032078	0.092323
Cl158	Cl	0.926123	0.301255	0.425656
Cl159	Cl	1.259456	0.634589	0.758990
Cl160	Cl	0.423503	-0.034658	0.091946
Cl161	Cl	0.756836	0.298675	0.425280
Cl162	Cl	1.090170	0.632008	0.758613
Cl163	Cl	0.594274	-0.031168	-0.092351
Cl164	Cl	0.927608	0.302165	0.240982
Cl165	Cl	1.260941	0.635498	0.574316
Cl166	Cl	0.385162	0.261970	-0.087982
Cl167	Cl	0.718495	0.595304	0.245352
Cl168	Cl	1.051828	0.928637	0.578685
H169	H	1.126064	0.517090	-0.000105
H170	H	1.459398	0.850423	0.333229
H171	H	1.792731	1.183757	0.666562
H172	H	0.896977	0.022207	-0.583715
H173	H	1.230310	0.355540	-0.250381
H174	H	1.563644	0.688873	0.082952
Cl175	Cl	1.162984	0.689237	-0.000115
Cl176	Cl	1.496317	1.022571	0.333219
Cl177	Cl	1.829650	1.355904	0.666552
Cl178	Cl	1.103649	0.227636	-0.396037
Cl179	Cl	1.436982	0.560969	-0.062704
Cl180	Cl	1.770316	0.894303	0.270629
Cl181	Cl	0.874472	-0.000135	-0.396040
Cl182	Cl	1.207805	0.333199	-0.062707
Cl183	Cl	1.541139	0.666532	0.270626
H184	H	0.414266	0.126839	-0.145902
H185	H	0.747600	0.460173	0.187431
H186	H	1.080933	0.793506	0.520764
H187	H	0.559360	0.131985	0.146227
H188	H	0.892693	0.465318	0.479560
H189	H	1.226026	0.798651	0.812893
H190	H	0.416039	0.123914	0.145783
H191	H	0.749373	0.457247	0.479116
H192	H	1.082706	0.790581	0.812450
H193	H	0.401607	0.224019	0.089334
H194	H	0.734940	0.557352	0.422667
H195	H	1.068274	0.890686	0.756000
H196	H	0.545070	0.228882	0.083748
H197	H	0.878403	0.562215	0.417081
H198	H	1.211737	0.895549	0.750415
