data_functionalizedCrystal
_audit_creation_method	'MofGen! by Chris Wilmer'
_symmetry_space_group_name_H-M	'P1'
_symmetry_Int_Tables_number	1
_symmetry_cell_setting	triclinic
loop_
_symmetry_equiv_pos_as_xyz
  x,y,z
_cell_length_a	16.992694
_cell_length_b	23.532407
_cell_length_c	16.053802
_cell_angle_alpha	92.544672
_cell_angle_beta	87.249047
_cell_angle_gamma	86.758451
loop_
_atom_site_label
_atom_site_type_symbol
_atom_site_fract_x
_atom_site_fract_y
_atom_site_fract_z
O1	O	1.042772	0.118472	-0.069339
O2	O	1.376105	0.451805	0.263995
O3	O	1.709439	0.785138	0.597328
O4	O	0.814498	0.117146	-0.069363
O5	O	1.147832	0.450480	0.263970
O6	O	1.481165	0.783813	0.597304
O7	O	0.935518	0.035219	-0.069335
O8	O	1.268851	0.368553	0.263998
O9	O	1.602185	0.701886	0.597332
O10	O	0.921752	0.200399	-0.069367
O11	O	1.255086	0.533732	0.263966
O12	O	1.588419	0.867065	0.597300
O13	O	0.928857	0.039709	0.069523
O14	O	1.262190	0.373042	0.402856
O15	O	1.595524	0.706376	0.736189
O16	O	0.807837	0.121636	0.069494
O17	O	1.141171	0.454969	0.402828
O18	O	1.474504	0.788303	0.736161
O19	O	1.036111	0.122961	0.069519
O20	O	1.369444	0.456295	0.402852
O21	O	1.702778	0.789628	0.736185
Zn22	Zn	0.920917	0.123011	0.091553
Zn23	Zn	1.254250	0.456345	0.424886
Zn24	Zn	1.587583	0.789678	0.758220
Zn25	Zn	0.929693	0.117096	-0.091397
Zn26	Zn	1.263026	0.450429	0.241936
Zn27	Zn	1.596359	0.783763	0.575269
O28	O	0.915091	0.204888	0.069490
O29	O	1.248425	0.538222	0.402824
O30	O	1.581758	0.871555	0.736157
C31	C	0.781969	0.117687	0.000063
C32	C	1.115302	0.451021	0.333396
C33	C	1.448635	0.784354	0.666729
C34	C	0.694964	0.112604	0.000054
C35	C	1.028298	0.445937	0.333387
C36	C	1.361631	0.779271	0.666721
C37	C	0.644342	0.161650	0.000045
C38	C	0.977676	0.494983	0.333379
C39	C	1.311009	0.828317	0.666712
C40	C	0.562592	0.156871	0.000058
C41	C	0.895926	0.490204	0.333391
C42	C	1.229259	0.823537	0.666724
C43	C	0.531466	0.103045	0.000073
C44	C	0.864800	0.436378	0.333406
C45	C	1.198133	0.769711	0.666740
C46	C	0.582095	0.053995	0.000084
C47	C	0.915428	0.387328	0.333418
C48	C	1.248761	0.720662	0.666751
C49	C	0.663843	0.058775	0.000078
C50	C	0.997176	0.392108	0.333411
C51	C	1.330510	0.725442	0.666745
C52	C	0.288022	0.083234	0.000099
C53	C	0.621355	0.416567	0.333432
C54	C	0.954688	0.749900	0.666766
C55	C	0.206267	0.078457	0.000103
C56	C	0.539601	0.411791	0.333436
C57	C	0.872934	0.745124	0.666770
C58	C	0.186770	0.181334	0.000078
C59	C	0.520104	0.514667	0.333411
C60	C	0.853437	0.848000	0.666745
C61	C	0.268521	0.186109	0.000066
C62	C	0.601855	0.519442	0.333400
C63	C	0.935188	0.852775	0.666733
C64	C	0.319142	0.137059	0.000082
C65	C	0.652476	0.470392	0.333416
C66	C	0.985809	0.803726	0.666749
N67	N	0.447905	0.098158	0.000083
N68	N	0.781238	0.431492	0.333416
N69	N	1.114572	0.764825	0.666750
N70	N	0.402702	0.141946	0.000078
N71	N	0.736035	0.475280	0.333411
N72	N	1.069368	0.808613	0.666745
C73	C	0.931837	0.016231	0.000096
C74	C	1.265170	0.349564	0.333429
C75	C	1.598504	0.682897	0.666763
C76	C	0.930783	-0.047038	0.000102
C77	C	1.264116	0.286295	0.333436
C78	C	1.597449	0.619628	0.666769
C79	C	0.995791	-0.442917	0.000063
C80	C	1.329124	-0.109584	0.333397
C81	C	1.662458	0.223750	0.666730
C82	C	0.994812	-0.502366	0.000057
C83	C	1.328145	-0.169033	0.333390
C84	C	1.661479	0.164301	0.666724
O85	O	1.055075	-0.536121	0.000033
O86	O	1.388408	-0.202788	0.333366
O87	O	1.721742	0.130546	0.666699
N88	N	0.922865	-0.528562	0.000050
N89	N	1.256199	-0.195229	0.333383
N90	N	1.589532	0.138104	0.666717
C91	C	0.851893	-0.495307	0.000041
C92	C	1.185227	-0.161974	0.333374
C93	C	1.518560	0.171360	0.666707
O94	O	0.790607	-0.523048	0.000033
O95	O	1.123941	-0.189715	0.333367
O96	O	1.457274	0.143619	0.666700
C97	C	0.852873	-0.435859	0.000041
C98	C	1.186207	-0.102526	0.333375
C99	C	1.519540	0.230807	0.666708
C100	C	0.924824	-0.409666	0.000057
C101	C	1.258158	-0.076332	0.333390
C102	C	1.591491	0.257001	0.666723
C103	C	1.067736	-0.416723	0.000078
C104	C	1.401069	-0.083390	0.333411
C105	C	1.734403	0.249944	0.666745
C106	C	1.068715	-0.357278	0.000086
C107	C	1.402048	-0.023945	0.333419
C108	C	1.735381	0.309389	0.666753
C109	C	0.997748	-0.324027	0.000079
C110	C	1.331081	0.009306	0.333413
C111	C	1.664415	0.342640	0.666746
C112	C	0.925803	-0.350221	0.000065
C113	C	1.259136	-0.016887	0.333398
C114	C	1.592469	0.316446	0.666731
C115	C	0.781902	-0.402605	0.000026
C116	C	1.115236	-0.069272	0.333359
C117	C	1.448569	0.264062	0.666693
C118	C	0.782889	-0.343154	0.000026
C119	C	1.116222	-0.009820	0.333359
C120	C	1.449555	0.323513	0.666693
C121	C	0.854840	-0.316960	0.000042
C122	C	1.188173	0.016373	0.333375
C123	C	1.521506	0.349707	0.666708
C124	C	0.855814	-0.257525	0.000066
C125	C	1.189148	0.075809	0.333399
C126	C	1.522481	0.409142	0.666733
N127	N	0.927761	-0.231328	0.000073
N128	N	1.261094	0.102005	0.333407
N129	N	1.594428	0.435339	0.666740
C130	C	0.998728	-0.264579	0.000080
C131	C	1.332061	0.068754	0.333413
C132	C	1.665395	0.402087	0.666747
C133	C	0.849841	-0.620151	0.000038
C134	C	1.183174	-0.286818	0.333372
C135	C	1.516508	0.046515	0.666705
C136	C	0.848860	-0.679598	0.000044
C137	C	1.182193	-0.346265	0.333377
C138	C	1.515526	-0.012931	0.666710
C139	C	0.991779	-0.686653	0.000058
C140	C	1.325112	-0.353319	0.333392
C141	C	1.658446	-0.019986	0.666725
C142	C	0.992759	-0.627205	0.000059
C143	C	1.326092	-0.293872	0.333392
C144	C	1.659426	0.039462	0.666726
C145	C	0.921788	-0.593955	0.000045
C146	C	1.255121	-0.260622	0.333379
C147	C	1.588454	0.072712	0.666712
C148	C	1.000777	-0.139740	0.000097
C149	C	1.334111	0.193593	0.333431
C150	C	1.667444	0.526927	0.666764
C151	C	1.001749	-0.080289	0.000109
C152	C	1.335083	0.253044	0.333442
C153	C	1.668416	0.586377	0.666776
C154	C	0.858831	-0.073240	0.000090
C155	C	1.192164	0.260093	0.333423
C156	C	1.525497	0.593427	0.666756
C157	C	0.857858	-0.132685	0.000083
C158	C	1.191191	0.200648	0.333416
C159	C	1.524525	0.533981	0.666749
C160	C	0.928838	-0.165934	0.000084
C161	C	1.262171	0.167399	0.333417
C162	C	1.595505	0.500732	0.666750
O163	O	0.795583	-0.223734	0.000087
O164	O	1.128917	0.109600	0.333420
O165	O	1.462250	0.442933	0.666754
O166	O	1.060004	-0.236831	0.000076
O167	O	1.393338	0.096503	0.333410
O168	O	1.726671	0.429836	0.666743
C169	C	1.068641	0.122420	0.000091
C170	C	1.401974	0.455753	0.333424
C171	C	1.735307	0.789087	0.666758
C172	C	1.155645	0.127503	0.000094
C173	C	1.488979	0.460837	0.333428
C174	C	1.822312	0.794170	0.666761
C175	C	0.918773	0.223877	0.000058
C176	C	1.252106	0.557210	0.333391
C177	C	1.585439	0.890543	0.666724
C178	C	0.919827	0.287146	0.000046
C179	C	1.253160	0.620479	0.333379
C180	C	1.586494	0.953812	0.666713
N181	N	0.914933	0.127048	0.216412
N182	N	1.248266	0.460382	0.549745
N183	N	1.581599	0.793715	0.883079
N184	N	0.935683	0.113055	-0.216256
N185	N	1.269016	0.446388	0.117077
N186	N	1.602350	0.779722	0.450410
C187	C	0.966445	0.092202	0.260118
C188	C	1.299779	0.425536	0.593451
C189	C	1.633112	0.758869	0.926785
C190	C	0.962267	0.095032	0.347524
C191	C	1.295600	0.428365	0.680857
C192	C	1.628933	0.761699	1.014190
C193	C	0.906579	0.132711	0.391222
C194	C	1.239912	0.466044	0.724555
C195	C	1.573245	0.799378	1.057889
C196	C	0.855061	0.167558	0.347510
C197	C	1.188394	0.500892	0.680843
C198	C	1.521727	0.834225	1.014177
C199	C	0.859236	0.164725	0.260106
C200	C	1.192569	0.498059	0.593439
C201	C	1.525903	0.831392	0.926772
C202	C	0.888340	0.145069	0.652627
C203	C	1.221674	0.478403	0.985961
C204	C	1.555007	0.811736	1.319294
C205	C	0.884170	0.147901	0.740038
C206	C	1.217504	0.481234	1.073371
C207	C	1.550837	0.814568	1.406704
C208	C	0.991376	0.075374	0.740045
C209	C	1.324709	0.408707	1.073379
C210	C	1.658043	0.742040	1.406712
C211	C	0.995550	0.072546	0.652640
C212	C	1.328883	0.405880	0.985973
C213	C	1.662216	0.739213	1.319306
C214	C	0.944029	0.107392	0.608935
C215	C	1.277362	0.440725	0.942268
C216	C	1.610695	0.774058	1.275602
N217	N	0.902308	0.135606	0.480565
N218	N	1.235641	0.468939	0.813898
N219	N	1.568975	0.802272	1.147231
N220	N	0.948296	0.104494	0.519594
N221	N	1.281630	0.437827	0.852927
N222	N	1.614963	0.771160	1.186261
H223	H	0.180928	0.034624	0.000115
H224	H	0.514262	0.367957	0.333448
H225	H	0.847595	0.701290	0.666781
H226	H	0.705059	0.018836	0.000085
H227	H	1.038393	0.352170	0.333418
H228	H	1.371726	0.685503	0.666751
H229	H	1.125529	-0.443790	0.000080
H230	H	1.458863	-0.110457	0.333414
H231	H	1.792196	0.222876	0.666747
F232	F	0.824896	0.188008	0.786539
F233	F	1.158230	0.521341	1.119872
F234	F	1.491563	0.854674	1.453206
F235	F	1.017091	0.057944	0.394039
F236	F	1.350425	0.391278	0.727372
F237	F	1.683758	0.724611	1.060706
F238	F	1.078332	-0.052416	0.000125
F239	F	1.411666	0.280917	0.333458
F240	F	1.744999	0.614251	0.666792
F241	F	0.772279	-0.707468	0.000042
F242	F	1.105613	-0.374135	0.333376
F243	F	1.438946	-0.040801	0.666709
H244	H	0.329228	0.043294	0.000113
H245	H	0.662561	0.376627	0.333446
H246	H	0.995895	0.709961	0.666779
H247	H	1.058576	-0.166805	0.000095
H248	H	1.391909	0.166528	0.333428
H249	H	1.725243	0.499862	0.666762
H250	H	0.556745	0.010169	0.000109
H251	H	0.890078	0.343502	0.333442
H252	H	1.223412	0.676836	0.666775
H253	H	0.669678	0.205481	0.000032
H254	H	1.003012	0.538814	0.333365
H255	H	1.336345	0.872147	0.666699
H256	H	0.521379	0.196809	0.000049
H257	H	0.854712	0.530143	0.333383
H258	H	1.188045	0.863476	0.666716
F259	F	0.804406	0.201812	0.213592
F260	F	1.137740	0.535145	0.546925
F261	F	1.471073	0.868479	0.880258
H262	H	0.293858	0.229939	0.000044
H263	H	0.627191	0.563272	0.333378
H264	H	0.960525	0.896606	0.666711
H265	H	0.145546	0.221267	0.000067
H266	H	0.478880	0.554600	0.333400
H267	H	0.812213	0.887933	0.666733
H268	H	0.799269	-0.154012	0.000093
H269	H	1.132602	0.179321	0.333427
H270	H	1.465935	0.512654	0.666760
F271	F	1.025721	0.052102	0.213619
F272	F	1.359054	0.385435	0.546953
F273	F	1.692387	0.718768	0.880286
H274	H	1.127305	-0.335957	0.000095
H275	H	1.460638	-0.002624	0.333429
H276	H	1.793971	0.330710	0.666762
H277	H	1.033321	0.047004	0.775638
H278	H	1.366654	0.380337	1.108971
H279	H	1.699988	0.713670	1.442304
H280	H	0.801051	-0.046156	0.000087
H281	H	1.134385	0.287177	0.333421
H282	H	1.467718	0.620511	0.666754
F283	F	1.069338	-0.599333	0.000075
F284	F	1.402671	-0.266000	0.333409
F285	F	1.736005	0.067333	0.666742
F286	F	1.067309	-0.722052	0.000061
F287	F	1.400642	-0.388718	0.333395
F288	F	1.733975	-0.055385	0.666728
H289	H	0.792043	-0.593082	0.000034
H290	H	1.125377	-0.259749	0.333368
H291	H	1.458710	0.073585	0.666701
F292	F	0.705321	-0.430469	0.000006
F293	F	1.038655	-0.097136	0.333339
F294	F	1.371988	0.236197	0.666673
F295	F	0.833511	0.182155	0.606121
F296	F	1.166844	0.515489	0.939454
F297	F	1.500177	0.848822	1.272787
F298	F	1.054819	0.032445	0.606134
F299	F	1.388153	0.365778	0.939467
F300	F	1.721486	0.699112	1.272800
H301	H	0.725094	-0.316084	0.000014
H302	H	1.058427	0.017249	0.333347
H303	H	1.391760	0.350583	0.666680
H304	H	0.809714	0.198235	0.383094
H305	H	1.143048	0.531569	0.716427
H306	H	1.476381	0.864902	1.049761
