data_functionalizedCrystal
_audit_creation_method	'MofGen! by Chris Wilmer'
_symmetry_space_group_name_H-M	'P1'
_symmetry_Int_Tables_number	1
_symmetry_cell_setting	triclinic
loop_
_symmetry_equiv_pos_as_xyz
  x,y,z
_cell_length_a	23.532407
_cell_length_b	23.532407
_cell_length_c	12.996460
_cell_angle_alpha	89.989202
_cell_angle_beta	89.999749
_cell_angle_gamma	82.848678
loop_
_atom_site_label
_atom_site_type_symbol
_atom_site_fract_x
_atom_site_fract_y
_atom_site_fract_z
O1	O	0.755260	0.069136	-0.085449
O2	O	1.255260	0.569136	0.414551
O3	O	0.589397	0.079139	-0.085480
O4	O	1.089397	0.579139	0.414520
O5	O	0.677330	-0.008794	-0.085445
O6	O	1.177330	0.491206	0.414555
O7	O	0.667327	0.157069	-0.085484
O8	O	1.167327	0.657069	0.414516
O9	O	0.677321	-0.008799	0.085689
O10	O	1.177321	0.491201	0.585689
O11	O	0.589388	0.079134	0.085653
O12	O	1.089388	0.579134	0.585653
O13	O	0.755251	0.069131	0.085685
O14	O	1.255251	0.569131	0.585685
Cu15	Cu	0.672319	0.074132	0.101295
Cu16	Cu	1.172319	0.574132	0.601295
Cu17	Cu	0.672329	0.074138	-0.101091
Cu18	Cu	1.172329	0.574138	0.398909
O19	O	0.667318	0.157064	0.085649
O20	O	1.167318	0.657064	0.585649
C21	C	0.568176	0.078882	0.000083
C22	C	1.068176	0.578882	0.500083
C23	C	0.504959	0.078116	0.000071
C24	C	1.004959	0.578116	0.500071
C25	C	0.105856	0.125350	0.000107
C26	C	0.605856	0.625350	0.500107
C27	C	0.046456	0.124638	0.000113
C28	C	0.546456	0.624638	0.500113
O29	O	0.009711	0.168424	0.000140
O30	O	0.509711	0.668424	0.500140
N31	N	0.023830	0.072362	0.000124
N32	N	0.523830	0.572362	0.500124
C33	C	0.060607	0.020794	0.000139
C34	C	0.560607	0.520794	0.500139
O35	O	0.035908	-0.023737	0.000149
O36	O	0.535908	0.476263	0.500149
C37	C	0.120006	0.021506	0.000140
C38	C	0.620006	0.521506	0.500140
C39	C	0.142629	0.073785	0.000118
C40	C	0.642629	0.573785	0.500118
C41	C	0.128479	0.177625	0.000087
C42	C	0.628479	0.677625	0.500087
C43	C	0.187876	0.178336	0.000078
C44	C	0.687876	0.678336	0.500078
C45	C	0.224649	0.126772	0.000090
C46	C	0.724649	0.626772	0.500090
C47	C	0.202025	0.074496	0.000110
C48	C	0.702025	0.574496	0.500110
C49	C	0.156783	-0.030062	0.000162
C50	C	0.656783	0.469938	0.500162
C51	C	0.216185	-0.029345	0.000163
C52	C	0.716185	0.470655	0.500163
C53	C	0.238808	0.022934	0.000142
C54	C	0.738808	0.522934	0.500142
C55	C	0.298194	0.023643	0.000113
C56	C	0.798194	0.523643	0.500113
N57	N	0.320820	0.075920	0.000103
N58	N	0.820820	0.575920	0.500103
C59	C	0.284048	0.127484	0.000091
C60	C	0.784048	0.627484	0.500091
C61	C	-0.064135	0.019302	0.000139
C62	C	0.435865	0.519302	0.500139
C63	C	-0.123533	0.018589	0.000130
C64	C	0.376467	0.518589	0.500130
C65	C	-0.137680	0.122434	0.000107
C66	C	0.362320	0.622434	0.500107
C67	C	-0.078281	0.123146	0.000108
C68	C	0.421719	0.623146	0.500108
C69	C	-0.041509	0.071578	0.000128
C70	C	0.458491	0.571578	0.500128
C71	C	0.408784	0.128974	0.000072
C72	C	0.908784	0.628974	0.500072
C73	C	0.468186	0.129680	0.000060
C74	C	0.968186	0.629680	0.500060
C75	C	0.482329	0.025836	0.000089
C76	C	0.982329	0.525836	0.500089
C77	C	0.422932	0.025129	0.000096
C78	C	0.922932	0.525129	0.500096
C79	C	0.386160	0.076702	0.000091
C80	C	0.886160	0.576702	0.500091
O81	O	0.334974	-0.020119	0.000091
O82	O	0.834974	0.479881	0.500091
O83	O	0.308755	0.172007	0.000094
O84	O	0.808755	0.672007	0.500094
C85	C	0.677071	-0.030013	0.000125
C86	C	1.177071	0.469987	0.500125
C87	C	0.676305	-0.093230	0.000132
C88	C	1.176305	0.406770	0.500132
C89	C	0.723539	-0.492333	0.000085
C90	C	1.223539	0.007667	0.500085
C91	C	0.722827	-0.551733	0.000077
C92	C	1.222827	-0.051733	0.500077
O93	O	0.766613	-0.588478	0.000047
O94	O	1.266613	-0.088478	0.500047
N95	N	0.670551	-0.574359	0.000068
N96	N	1.170551	-0.074359	0.500068
C97	C	0.618983	-0.537582	0.000056
C98	C	1.118983	-0.037582	0.500056
O99	O	0.574452	-0.562281	0.000047
O100	O	1.074452	-0.062281	0.500047
C101	C	0.619695	-0.478182	0.000057
C102	C	1.119695	0.021818	0.500057
C103	C	0.671974	-0.455560	0.000076
C104	C	1.171974	0.044440	0.500076
C105	C	0.775814	-0.469710	0.000104
C106	C	1.275814	0.030290	0.500104
C107	C	0.776525	-0.410313	0.000113
C108	C	1.276525	0.089687	0.500113
C109	C	0.724961	-0.373540	0.000105
C110	C	1.224961	0.126460	0.500105
C111	C	0.672685	-0.396164	0.000086
C112	C	1.172685	0.103836	0.500086
C113	C	0.568127	-0.441406	0.000038
C114	C	1.068127	0.058594	0.500038
C115	C	0.568844	-0.382004	0.000037
C116	C	1.068844	0.117996	0.500037
C117	C	0.621123	-0.359381	0.000057
C118	C	1.121123	0.140619	0.500057
C119	C	0.621832	-0.299995	0.000087
C120	C	1.121832	0.200005	0.500087
N121	N	0.674109	-0.277368	0.000097
N122	N	1.174109	0.222632	0.500097
C123	C	0.725673	-0.314141	0.000105
C124	C	1.225673	0.185859	0.500105
C125	C	0.617491	-0.662324	0.000053
C126	C	1.117491	-0.162324	0.500053
C127	C	0.616778	-0.721722	0.000060
C128	C	1.116778	-0.221722	0.500060
C129	C	0.720623	-0.735869	0.000079
C130	C	1.220623	-0.235869	0.500079
C131	C	0.721335	-0.676470	0.000080
C132	C	1.221335	-0.176470	0.500080
C133	C	0.669767	-0.639698	0.000062
C134	C	1.169767	-0.139698	0.500062
C135	C	0.727163	-0.189405	0.000127
C136	C	1.227163	0.310595	0.500127
C137	C	0.727869	-0.130003	0.000141
C138	C	1.227869	0.369997	0.500141
C139	C	0.624025	-0.115860	0.000117
C140	C	1.124025	0.384140	0.500117
C141	C	0.623318	-0.175257	0.000108
C142	C	1.123318	0.324743	0.500108
C143	C	0.674891	-0.212029	0.000110
C144	C	1.174891	0.287971	0.500110
O145	O	0.578070	-0.263215	0.000113
O146	O	1.078070	0.236785	0.500113
O147	O	0.770196	-0.289433	0.000101
O148	O	1.270196	0.210567	0.500101
C149	C	0.776472	0.069388	0.000120
C150	C	1.276472	0.569388	0.500120
C151	C	0.839689	0.070154	0.000124
C152	C	1.339689	0.570154	0.500124
C153	C	0.667577	0.178283	0.000078
C154	C	1.167577	0.678283	0.500078
C155	C	0.668343	0.241500	0.000063
C156	C	1.168343	0.741500	0.500063
N157	N	0.672315	0.074128	0.243642
N158	N	1.172315	0.574128	0.743642
N159	N	0.672337	0.074138	-0.243438
N160	N	1.172337	0.574138	0.256562
C161	C	0.672329	0.074138	0.663456
C162	C	1.172329	0.574138	1.163456
C163	C	0.672323	0.074137	0.546651
C164	C	1.172323	0.574137	1.046651
C165	C	0.672322	0.074134	0.453553
C166	C	1.172322	0.574134	0.953553
C167	C	0.672316	0.074132	0.336740
C168	C	1.172316	0.574132	0.836740
H169	H	-0.059867	0.165717	0.000096
H170	H	0.440133	0.665717	0.500096
F171	F	0.211944	0.233980	0.000061
F172	F	0.711944	0.733980	0.500061
H173	H	0.486602	0.172255	0.000042
H174	H	0.986602	0.672255	0.500042
F175	F	-0.176827	0.177314	0.000098
F176	F	0.323173	0.677314	0.500098
F177	F	0.369658	0.183864	0.000068
F178	F	0.869658	0.683864	0.500068
H179	H	0.512280	-0.016146	0.000094
H180	H	1.012280	0.483854	0.500094
H181	H	-0.141947	-0.023982	0.000132
H182	H	0.358053	0.476018	0.500132
F183	F	-0.025003	-0.035587	0.000150
F184	F	0.474997	0.464413	0.500150
F185	F	0.089351	0.232512	0.000074
F186	F	0.589351	0.732512	0.500074
H187	H	0.526850	-0.352066	0.000022
H188	H	1.026850	0.147934	0.500022
H189	H	0.575496	-0.632386	0.000048
H190	H	1.075496	-0.132386	0.500048
H191	H	0.819097	-0.391900	0.000125
H192	H	1.319097	0.108100	0.500125
F193	F	0.561135	-0.745792	0.000057
F194	F	1.061135	-0.245792	0.500057
H195	H	0.817806	-0.499645	0.000107
H196	H	1.317806	0.000355	0.500107
F197	F	0.776978	-0.652399	0.000100
F198	F	1.276978	-0.152399	0.500100
F199	F	0.512483	-0.465469	0.000012
F200	F	1.012483	0.034531	0.500012
H201	H	0.138375	-0.072634	0.000180
H202	H	0.638375	0.427366	0.500180
H203	H	0.246123	-0.071339	0.000181
H204	H	0.746123	0.428661	0.500181
H205	H	0.762610	-0.765821	0.000082
H206	H	1.262610	-0.265821	0.500082
F207	F	0.398854	-0.030513	0.000119
F208	F	0.898854	0.469487	0.500119
H209	H	0.770443	-0.111587	0.000160
H210	H	1.270443	0.388413	0.500160
H211	H	0.769159	-0.219337	0.000124
H212	H	1.269159	0.280663	0.500124
F213	F	0.567676	-0.199335	0.000105
F214	F	1.067676	0.300665	0.500105
H215	H	0.582043	-0.085909	0.000113
H216	H	1.082043	0.414091	0.500113
