data_functionalizedCrystal
_audit_creation_method	'MofGen! by Chris Wilmer'
_symmetry_space_group_name_H-M	'P1'
_symmetry_Int_Tables_number	1
_symmetry_cell_setting	triclinic
loop_
_symmetry_equiv_pos_as_xyz
  x,y,z
_cell_length_a	23.532407
_cell_length_b	23.532407
_cell_length_c	10.868271
_cell_angle_alpha	89.990218
_cell_angle_beta	89.998361
_cell_angle_gamma	82.848712
loop_
_atom_site_label
_atom_site_type_symbol
_atom_site_fract_x
_atom_site_fract_y
_atom_site_fract_z
O1	O	0.755259	0.069136	-0.102257
O2	O	1.005259	0.319136	0.147743
O3	O	1.255259	0.569136	0.397743
O4	O	1.505259	0.819136	0.647743
O5	O	0.589396	0.079139	-0.102278
O6	O	0.839396	0.329139	0.147722
O7	O	1.089396	0.579139	0.397722
O8	O	1.339396	0.829139	0.647722
O9	O	0.677329	-0.008795	-0.102244
O10	O	0.927329	0.241205	0.147756
O11	O	1.177329	0.491205	0.397756
O12	O	1.427329	0.741205	0.647756
O13	O	0.667326	0.157069	-0.102291
O14	O	0.917326	0.407069	0.147709
O15	O	1.167326	0.657069	0.397709
O16	O	1.417326	0.907069	0.647709
O17	O	0.677322	-0.008798	0.102400
O18	O	0.927322	0.241202	0.352400
O19	O	1.177322	0.491202	0.602400
O20	O	1.427322	0.741202	0.852400
O21	O	0.589389	0.079135	0.102366
O22	O	0.839389	0.329135	0.352366
O23	O	1.089389	0.579135	0.602366
O24	O	1.339389	0.829135	0.852366
O25	O	0.755252	0.069132	0.102388
O26	O	1.005252	0.319132	0.352388
O27	O	1.255252	0.569132	0.602388
O28	O	1.505252	0.819132	0.852388
Zn29	Zn	0.672319	0.074133	0.134869
Zn30	Zn	0.922319	0.324133	0.384869
Zn31	Zn	1.172319	0.574133	0.634869
Zn32	Zn	1.422319	0.824133	0.884869
Zn33	Zn	0.672329	0.074138	-0.134759
Zn34	Zn	0.922329	0.324138	0.115241
Zn35	Zn	1.172329	0.574138	0.365241
Zn36	Zn	1.422329	0.824138	0.615241
O37	O	0.667319	0.157065	0.102354
O38	O	0.917319	0.407065	0.352354
O39	O	1.167319	0.657065	0.602354
O40	O	1.417319	0.907065	0.852354
C41	C	0.568176	0.078882	0.000042
C42	C	0.818176	0.328882	0.250042
C43	C	1.068176	0.578882	0.500042
C44	C	1.318176	0.828882	0.750042
C45	C	0.504959	0.078116	0.000035
C46	C	0.754959	0.328116	0.250035
C47	C	1.004959	0.578116	0.500035
C48	C	1.254959	0.828116	0.750035
C49	C	0.238792	0.022921	0.000084
C50	C	0.488792	0.272921	0.250084
C51	C	0.738792	0.522921	0.500084
C52	C	0.988792	0.772921	0.750084
C53	C	0.298192	0.023632	0.000083
C54	C	0.548192	0.273632	0.250083
C55	C	0.798192	0.523632	0.500083
C56	C	1.048192	0.773632	0.750083
O57	O	0.334937	-0.020153	0.000138
O58	O	0.584937	0.229847	0.250138
O59	O	0.834937	0.479847	0.500138
O60	O	1.084937	0.729847	0.750138
N61	N	0.320818	0.075909	0.000060
N62	N	0.570818	0.325909	0.250060
N63	N	0.820818	0.575909	0.500060
N64	N	1.070818	0.825909	0.750060
C65	C	0.284041	0.127477	0.000050
C66	C	0.534041	0.377477	0.250050
C67	C	0.784041	0.627477	0.500050
C68	C	1.034041	0.877477	0.750050
O69	O	0.308740	0.172007	0.000032
O70	O	0.558740	0.422007	0.250032
O71	O	0.808740	0.672007	0.500032
O72	O	1.058740	0.922007	0.750032
C73	C	0.224642	0.126765	0.000059
C74	C	0.474642	0.376765	0.250059
C75	C	0.724642	0.626765	0.500059
C76	C	0.974642	0.876765	0.750059
C77	C	0.202019	0.074485	0.000070
C78	C	0.452019	0.324485	0.250070
C79	C	0.702019	0.574485	0.500070
C80	C	0.952019	0.824485	0.750070
C81	C	0.216169	-0.029354	0.000095
C82	C	0.466169	0.220646	0.250095
C83	C	0.716169	0.470646	0.500095
C84	C	0.966169	0.720646	0.750095
C85	C	0.156772	-0.030066	0.000094
C86	C	0.406772	0.219934	0.250094
C87	C	0.656772	0.469934	0.500094
C88	C	0.906772	0.719934	0.750094
C89	C	0.119999	0.021499	0.000080
C90	C	0.369999	0.271499	0.250080
C91	C	0.619999	0.521499	0.500080
C92	C	0.869999	0.771499	0.750080
C93	C	0.142623	0.073774	0.000068
C94	C	0.392623	0.323774	0.250068
C95	C	0.642623	0.573774	0.500068
C96	C	0.892623	0.823774	0.750068
C97	C	0.187865	0.178333	0.000058
C98	C	0.437865	0.428333	0.250058
C99	C	0.687865	0.678333	0.500058
C100	C	0.937865	0.928333	0.750058
C101	C	0.128463	0.177616	0.000069
C102	C	0.378463	0.427616	0.250069
C103	C	0.628463	0.677616	0.500069
C104	C	0.878463	0.927616	0.750069
C105	C	0.105840	0.125336	0.000079
C106	C	0.355840	0.375336	0.250079
C107	C	0.605840	0.625336	0.500079
C108	C	0.855840	0.875336	0.750079
C109	C	0.046454	0.124627	0.000053
C110	C	0.296454	0.374627	0.250053
C111	C	0.546454	0.624627	0.500053
C112	C	0.796454	0.874627	0.750053
N113	N	0.023828	0.072351	0.000076
N114	N	0.273828	0.322351	0.250076
N115	N	0.523828	0.572351	0.500076
N116	N	0.773828	0.822351	0.750076
C117	C	0.060600	0.020787	0.000089
C118	C	0.310600	0.270787	0.250089
C119	C	0.560600	0.520787	0.500089
C120	C	0.810600	0.770787	0.750089
C121	C	0.408783	0.128968	0.000033
C122	C	0.658783	0.378968	0.250033
C123	C	0.908783	0.628968	0.500033
C124	C	1.158783	0.878968	0.750033
C125	C	0.468181	0.129681	0.000015
C126	C	0.718181	0.379681	0.250015
C127	C	0.968181	0.629681	0.500015
C128	C	1.218181	0.879681	0.750015
C129	C	0.482328	0.025836	0.000050
C130	C	0.732328	0.275836	0.250050
C131	C	0.982328	0.525836	0.500050
C132	C	1.232328	0.775836	0.750050
C133	C	0.422929	0.025124	0.000059
C134	C	0.672929	0.275124	0.250059
C135	C	0.922929	0.525124	0.500059
C136	C	1.172929	0.775124	0.750059
C137	C	0.386157	0.076692	0.000056
C138	C	0.636157	0.326692	0.250056
C139	C	0.886157	0.576692	0.500056
C140	C	1.136157	0.826692	0.750056
C141	C	-0.064136	0.019297	0.000085
C142	C	0.185864	0.269297	0.250085
C143	C	0.435864	0.519297	0.500085
C144	C	0.685864	0.769297	0.750085
C145	C	-0.123538	0.018590	0.000078
C146	C	0.126462	0.268590	0.250078
C147	C	0.376462	0.518590	0.500078
C148	C	0.626462	0.768590	0.750078
C149	C	-0.137680	0.122435	0.000049
C150	C	0.112320	0.372435	0.250049
C151	C	0.362320	0.622435	0.500049
C152	C	0.612320	0.872435	0.750049
C153	C	-0.078284	0.123142	0.000049
C154	C	0.171716	0.373142	0.250049
C155	C	0.421716	0.623142	0.500049
C156	C	0.671716	0.873142	0.750049
C157	C	-0.041512	0.071568	0.000071
C158	C	0.208488	0.321568	0.250071
C159	C	0.458488	0.571568	0.500071
C160	C	0.708488	0.821568	0.750071
O161	O	0.009675	0.168390	0.000003
O162	O	0.259675	0.418390	0.250003
O163	O	0.509675	0.668390	0.500003
O164	O	0.759675	0.918390	0.750003
O165	O	0.035892	-0.023737	0.000124
O166	O	0.285892	0.226263	0.250124
O167	O	0.535892	0.476263	0.500124
O168	O	0.785892	0.726263	0.750124
C169	C	0.677071	-0.030012	0.000081
C170	C	0.927071	0.219988	0.250081
C171	C	1.177071	0.469988	0.500081
C172	C	1.427071	0.719988	0.750081
C173	C	0.676305	-0.093229	0.000090
C174	C	0.926305	0.156771	0.250090
C175	C	1.176305	0.406771	0.500090
C176	C	1.426305	0.656771	0.750090
C177	C	0.723538	-0.492332	0.000029
C178	C	0.973538	-0.242332	0.250029
C179	C	1.223538	0.007668	0.500029
C180	C	1.473538	0.257668	0.750029
C181	C	0.722827	-0.551733	0.000020
C182	C	0.972827	-0.301733	0.250020
C183	C	1.222827	-0.051733	0.500020
C184	C	1.472827	0.198267	0.750020
O185	O	0.766613	-0.588477	-0.000020
O186	O	1.016613	-0.338477	0.249980
O187	O	1.266613	-0.088477	0.499980
O188	O	1.516613	0.161523	0.749980
N189	N	0.670551	-0.574359	0.000014
N190	N	0.920551	-0.324359	0.250014
N191	N	1.170551	-0.074359	0.500014
N192	N	1.420551	0.175641	0.750014
C193	C	0.618982	-0.537581	0.000005
C194	C	0.868982	-0.287581	0.250005
C195	C	1.118982	-0.037581	0.500005
C196	C	1.368982	0.212419	0.750005
O197	O	0.574452	-0.562281	-0.000002
O198	O	0.824452	-0.312281	0.249998
O199	O	1.074452	-0.062281	0.499998
O200	O	1.324452	0.187719	0.749998
C201	C	0.619695	-0.478182	0.000005
C202	C	0.869695	-0.228182	0.250005
C203	C	1.119695	0.021818	0.500005
C204	C	1.369695	0.271818	0.750005
C205	C	0.671974	-0.455559	0.000024
C206	C	0.921974	-0.205559	0.250024
C207	C	1.171974	0.044441	0.500024
C208	C	1.421974	0.294441	0.750024
C209	C	0.775814	-0.469709	0.000046
C210	C	1.025814	-0.219709	0.250046
C211	C	1.275814	0.030291	0.500046
C212	C	1.525814	0.280291	0.750046
C213	C	0.776525	-0.410313	0.000058
C214	C	1.026525	-0.160313	0.250058
C215	C	1.276525	0.089687	0.500058
C216	C	1.526525	0.339687	0.750058
C217	C	0.724961	-0.373540	0.000052
C218	C	0.974961	-0.123540	0.250052
C219	C	1.224961	0.126460	0.500052
C220	C	1.474961	0.376460	0.750052
C221	C	0.672685	-0.396163	0.000036
C222	C	0.922685	-0.146163	0.250036
C223	C	1.172685	0.103837	0.500036
C224	C	1.422685	0.353837	0.750036
C225	C	0.568127	-0.441406	-0.000012
C226	C	0.818127	-0.191406	0.249988
C227	C	1.068127	0.058594	0.499988
C228	C	1.318127	0.308594	0.749988
C229	C	0.568843	-0.382003	-0.000012
C230	C	0.818843	-0.132003	0.249988
C231	C	1.068843	0.117997	0.499988
C232	C	1.318843	0.367997	0.749988
C233	C	0.621123	-0.359381	0.000006
C234	C	0.871123	-0.109381	0.250006
C235	C	1.121123	0.140619	0.500006
C236	C	1.371123	0.390619	0.750006
C237	C	0.621832	-0.299994	0.000042
C238	C	0.871832	-0.049994	0.250042
C239	C	1.121832	0.200006	0.500042
C240	C	1.371832	0.450006	0.750042
N241	N	0.674109	-0.277368	0.000048
N242	N	0.924109	-0.027368	0.250048
N243	N	1.174109	0.222632	0.500048
N244	N	1.424109	0.472632	0.750048
C245	C	0.725673	-0.314141	0.000053
C246	C	0.975673	-0.064141	0.250053
C247	C	1.225673	0.185859	0.500053
C248	C	1.475673	0.435859	0.750053
C249	C	0.617491	-0.662324	0.000001
C250	C	0.867491	-0.412324	0.250001
C251	C	1.117491	-0.162324	0.500001
C252	C	1.367491	0.087676	0.750001
C253	C	0.616778	-0.721722	0.000010
C254	C	0.866778	-0.471722	0.250010
C255	C	1.116778	-0.221722	0.500010
C256	C	1.366778	0.028278	0.750010
C257	C	0.720623	-0.735869	0.000022
C258	C	0.970623	-0.485869	0.250022
C259	C	1.220623	-0.235869	0.500022
C260	C	1.470623	0.014131	0.750022
C261	C	0.721335	-0.676470	0.000023
C262	C	0.971335	-0.426470	0.250023
C263	C	1.221335	-0.176470	0.500023
C264	C	1.471335	0.073530	0.750023
C265	C	0.669767	-0.639698	0.000007
C266	C	0.919767	-0.389698	0.250007
C267	C	1.169767	-0.139698	0.500007
C268	C	1.419767	0.110302	0.750007
C269	C	0.727163	-0.189404	0.000079
C270	C	0.977163	0.060596	0.250079
C271	C	1.227163	0.310596	0.500079
C272	C	1.477163	0.560596	0.750079
C273	C	0.727869	-0.130002	0.000096
C274	C	0.977869	0.119998	0.250096
C275	C	1.227869	0.369998	0.500096
C276	C	1.477869	0.619998	0.750096
C277	C	0.624025	-0.115860	0.000077
C278	C	0.874025	0.134140	0.250077
C279	C	1.124025	0.384140	0.500077
C280	C	1.374025	0.634140	0.750077
C281	C	0.623318	-0.175257	0.000066
C282	C	0.873318	0.074743	0.250066
C283	C	1.123318	0.324743	0.500066
C284	C	1.373318	0.574743	0.750066
C285	C	0.674891	-0.212028	0.000063
C286	C	0.924891	0.037972	0.250063
C287	C	1.174891	0.287972	0.500063
C288	C	1.424891	0.537972	0.750063
O289	O	0.578069	-0.263215	0.000077
O290	O	0.828069	-0.013215	0.250077
O291	O	1.078069	0.236785	0.500077
O292	O	1.328069	0.486785	0.750077
O293	O	0.770196	-0.289433	0.000044
O294	O	1.020196	-0.039433	0.250044
O295	O	1.270196	0.210567	0.500044
O296	O	1.520196	0.460567	0.750044
C297	C	0.776472	0.069389	0.000065
C298	C	1.026472	0.319389	0.250065
C299	C	1.276472	0.569389	0.500065
C300	C	1.526472	0.819389	0.750065
C301	C	0.839689	0.070155	0.000064
C302	C	1.089689	0.320155	0.250064
C303	C	1.339689	0.570155	0.500064
C304	C	1.589689	0.820155	0.750064
C305	C	0.667577	0.178283	0.000026
C306	C	0.917577	0.428283	0.250026
C307	C	1.167577	0.678283	0.500026
C308	C	1.417577	0.928283	0.750026
C309	C	0.668343	0.241500	0.000008
C310	C	0.918343	0.491500	0.250008
C311	C	1.168343	0.741500	0.500008
C312	C	1.418343	0.991500	0.750008
N313	N	0.672317	0.074130	0.318883
N314	N	0.922317	0.324130	0.568883
N315	N	1.172317	0.574130	0.818883
N316	N	1.422317	0.824130	1.068883
N317	N	0.672336	0.074137	-0.318773
N318	N	0.922336	0.324137	-0.068773
N319	N	1.172336	0.574137	0.181227
N320	N	1.422336	0.824137	0.431227
C321	C	0.672326	0.074137	0.569889
C322	C	0.922326	0.324137	0.819889
C323	C	1.172326	0.574137	1.069889
C324	C	1.422326	0.824137	1.319889
C325	C	0.672319	0.074135	0.430211
C326	C	0.922319	0.324135	0.680211
C327	C	1.172319	0.574135	0.930211
C328	C	1.422319	0.824135	1.180211
H329	H	0.206274	0.220904	0.000044
H330	H	0.456274	0.470904	0.250044
H331	H	0.706274	0.720904	0.500044
H332	H	0.956274	0.970904	0.750044
Cl333	Cl	-0.049843	0.188865	0.000020
Cl334	Cl	0.200157	0.438865	0.250020
Cl335	Cl	0.450157	0.688865	0.500020
Cl336	Cl	0.700157	0.938865	0.750020
H337	H	-0.141954	-0.023984	0.000083
H338	H	0.108046	0.226016	0.250083
H339	H	0.358046	0.476016	0.500083
H340	H	0.608046	0.726016	0.750083
Cl341	Cl	-0.017919	-0.045539	0.000109
Cl342	Cl	0.232081	0.204461	0.250109
Cl343	Cl	0.482081	0.454461	0.500109
Cl344	Cl	0.732081	0.704461	0.750109
H345	H	0.574207	-0.740135	0.000016
H346	H	0.824207	-0.490135	0.250016
H347	H	1.074207	-0.240135	0.500016
H348	H	1.324207	0.009865	0.750016
H349	H	0.526850	-0.352065	-0.000027
H350	H	0.776850	-0.102065	0.249973
H351	H	1.026850	0.147935	0.499973
H352	H	1.276850	0.397935	0.749973
H353	H	0.138359	-0.072637	0.000107
H354	H	0.388359	0.177363	0.250107
H355	H	0.638359	0.427363	0.500107
H356	H	0.888359	0.677363	0.750107
H357	H	0.819097	-0.391900	0.000067
H358	H	1.069097	-0.141900	0.250067
H359	H	1.319097	0.108100	0.500067
H360	H	1.569097	0.358100	0.750067
H361	H	0.246104	-0.071347	0.000110
H362	H	0.496104	0.178653	0.250110
H363	H	0.746104	0.428653	0.500110
H364	H	0.996104	0.678653	0.750110
Cl365	Cl	0.840647	-0.515928	0.000055
Cl366	Cl	1.090647	-0.265928	0.250055
Cl367	Cl	1.340647	-0.015928	0.500055
Cl368	Cl	1.590647	0.234072	0.750055
Cl369	Cl	0.552656	-0.616101	-0.000004
Cl370	Cl	0.802656	-0.366101	0.249996
Cl371	Cl	1.052656	-0.116101	0.499996
Cl372	Cl	1.302656	0.133899	0.749996
Cl373	Cl	0.793597	-0.101567	0.000116
Cl374	Cl	1.043597	0.148433	0.250116
Cl375	Cl	1.293597	0.398433	0.500116
Cl376	Cl	1.543597	0.648433	0.750116
H377	H	0.378846	0.170964	0.000021
H378	H	0.628846	0.420964	0.250021
H379	H	0.878846	0.670964	0.500021
H380	H	1.128846	0.920964	0.750021
H381	H	0.769159	-0.219337	0.000071
H382	H	1.019159	0.030663	0.250071
H383	H	1.269159	0.280663	0.500071
H384	H	1.519159	0.530663	0.750071
Cl385	Cl	0.557594	-0.203698	0.000066
Cl386	Cl	0.807594	0.046302	0.250066
Cl387	Cl	1.057594	0.296302	0.500066
Cl388	Cl	1.307594	0.546302	0.750066
H389	H	0.763906	-0.658055	0.000036
H390	H	1.013906	-0.408055	0.250036
H391	H	1.263906	-0.158055	0.500036
H392	H	1.513906	0.091945	0.750036
H393	H	0.762610	-0.765821	0.000021
H394	H	1.012610	-0.515821	0.250021
H395	H	1.262610	-0.265821	0.500021
H396	H	1.512610	-0.015821	0.750021
Cl397	Cl	0.502400	-0.469830	-0.000043
Cl398	Cl	0.752400	-0.219830	0.249957
Cl399	Cl	1.002400	0.030170	0.499957
Cl400	Cl	1.252400	0.280170	0.749957
Cl401	Cl	0.394496	-0.040601	0.000079
Cl402	Cl	0.644496	0.209399	0.250079
Cl403	Cl	0.894496	0.459399	0.500079
Cl404	Cl	1.144496	0.709399	0.750079
H405	H	0.098525	0.219610	0.000071
H406	H	0.348525	0.469610	0.250071
H407	H	0.598525	0.719610	0.500071
H408	H	0.848525	0.969610	0.750071
H409	H	0.512280	-0.016150	0.000061
H410	H	0.762280	0.233850	0.250061
H411	H	1.012280	0.483850	0.500061
H412	H	1.262280	0.733850	0.750061
Cl413	Cl	0.559205	-0.069621	0.000067
Cl414	Cl	0.809205	0.180379	0.250067
Cl415	Cl	1.059205	0.430379	0.500067
Cl416	Cl	1.309205	0.680379	0.750067
Cl417	Cl	0.496613	0.195407	-0.000024
Cl418	Cl	0.746613	0.445407	0.249976
Cl419	Cl	0.996613	0.695407	0.499976
Cl420	Cl	1.246613	0.945407	0.749976
Cl421	Cl	-0.183920	0.187255	0.000026
Cl422	Cl	0.066080	0.437255	0.250026
Cl423	Cl	0.316080	0.687255	0.500026
Cl424	Cl	0.566080	0.937255	0.750026
