data_functionalizedCrystal
_audit_creation_method	'MofGen! by Chris Wilmer'
_symmetry_space_group_name_H-M	'P1'
_symmetry_Int_Tables_number	1
_symmetry_cell_setting	triclinic
loop_
_symmetry_equiv_pos_as_xyz
  x,y,z
_cell_length_a	17.038272
_cell_length_b	17.038272
_cell_length_c	13.330367
_cell_angle_alpha	89.995338
_cell_angle_beta	89.998118
_cell_angle_gamma	91.111556
loop_
_atom_site_label
_atom_site_type_symbol
_atom_site_fract_x
_atom_site_fract_y
_atom_site_fract_z
O1	O	1.048758	0.170536	-0.083299
O2	O	0.820947	0.167829	-0.083328
O3	O	0.933498	0.055277	-0.083306
O4	O	0.936206	0.283088	-0.083321
O5	O	0.933481	0.055273	0.083541
O6	O	0.820929	0.167825	0.083519
O7	O	1.048740	0.170533	0.083548
Cu8	Cu	0.934833	0.169178	0.098768
Cu9	Cu	0.934854	0.169183	-0.098548
O10	O	0.936189	0.283084	0.083526
C11	C	0.791645	0.165364	0.000091
C12	C	0.704361	0.158016	0.000080
C13	C	0.931027	0.025982	0.000117
C14	C	0.923679	-0.061301	0.000116
C15	C	0.991142	-0.106911	0.000126
C16	C	0.984233	-0.188923	0.000115
C17	C	0.909860	-0.225324	0.000102
C18	C	0.842391	-0.179708	0.000090
C19	C	0.849301	-0.097698	0.000093
C20	C	0.885449	-0.472712	0.000085
C21	C	0.878545	-0.554728	0.000085
C22	C	1.020387	-0.563937	0.000109
C23	C	1.027291	-0.481924	0.000118
C24	C	0.959822	-0.436316	0.000100
C25	C	0.902796	-0.309153	0.000095
C26	C	0.966886	-0.352488	0.000101
C27	C	0.658752	0.225479	0.000077
C28	C	0.576740	0.218570	0.000091
C29	C	0.540339	0.144197	0.000102
C30	C	0.585954	0.076728	0.000109
C31	C	0.667965	0.083638	0.000102
C32	C	0.292951	0.119787	0.000130
C33	C	0.210935	0.112882	0.000134
C34	C	0.201726	0.254725	0.000119
C35	C	0.283739	0.261628	0.000105
C36	C	0.329347	0.194159	0.000118
C37	C	0.456510	0.137133	0.000113
C38	C	0.413174	0.201224	0.000113
C39	C	1.078042	0.172997	0.000126
C40	C	1.165326	0.180346	0.000131
C41	C	0.938660	0.312379	0.000100
C42	C	0.946008	0.399663	0.000095
N43	N	0.934824	0.169175	0.237549
N44	N	0.934869	0.169180	-0.237330
C45	C	0.885012	0.219000	0.710162
C46	C	0.984716	0.119361	0.710150
C47	C	0.984707	0.119358	0.605132
C48	C	0.934851	0.169178	0.552624
C49	C	0.885003	0.219000	0.605134
C50	C	1.034559	0.069543	0.552614
C51	C	1.034553	0.069538	0.447589
C52	C	0.984692	0.119354	0.395079
C53	C	0.934842	0.169178	0.447596
C54	C	0.884985	0.218997	0.395088
C55	C	0.835131	0.268817	0.447603
C56	C	0.835142	0.268816	0.552624
C57	C	0.984680	0.119356	0.290057
C58	C	0.884977	0.218997	0.290060
H59	H	1.051705	-0.077279	0.000143
Br60	Br	0.708145	0.326419	0.000051
H61	H	1.075146	0.028972	0.404838
Br62	Br	0.817304	0.286606	0.218807
Br63	Br	0.139826	0.346284	0.000103
Br64	Br	0.757739	-0.035798	0.000072
H65	H	0.181300	0.052315	0.000142
Br66	Br	0.767489	0.336425	0.623896
Br67	Br	1.052384	0.051759	0.781407
Br68	Br	0.767479	0.336435	0.376331
Br69	Br	1.067819	-0.303086	0.000109
H70	H	0.844419	0.259561	0.752923
H71	H	1.025275	0.078797	0.247305
Br72	Br	0.777603	-0.604129	0.000078
Br73	Br	0.793884	-0.410825	0.000055
Br74	Br	1.128229	-0.432528	0.000104
H75	H	0.556310	0.016172	0.000132
H76	H	1.039170	-0.226054	0.000126
Br77	Br	0.354838	0.028221	0.000149
Br78	Br	0.741455	-0.229109	0.000055
Br79	Br	0.514844	0.310133	0.000082
Br80	Br	0.333134	0.362567	0.000079
H81	H	0.442816	0.261778	0.000110
Br82	Br	1.102228	0.001940	0.623870
H83	H	0.426863	0.076578	0.000151
H84	H	0.842241	-0.338800	0.000087
H85	H	1.075316	-0.601079	0.000122
H86	H	0.705099	0.028702	0.000104
