data_functionalizedCrystal
_audit_creation_method	'MofGen! by Chris Wilmer'
_symmetry_space_group_name_H-M	'P1'
_symmetry_Int_Tables_number	1
_symmetry_cell_setting	triclinic
loop_
_symmetry_equiv_pos_as_xyz
  x,y,z
_cell_length_a	18.426585
_cell_length_b	14.560438
_cell_length_c	18.426585
_cell_angle_alpha	120.001884
_cell_angle_beta	89.997893
_cell_angle_gamma	60.001220
loop_
_atom_site_label
_atom_site_type_symbol
_atom_site_fract_x
_atom_site_fract_y
_atom_site_fract_z
Zr1	Zr	0.699148	1.005271	0.095246
O2	O	0.583270	1.196879	0.211139
O3	O	0.734670	0.813663	0.059712
O4	O	0.734674	1.005263	0.211121
O5	O	0.583264	1.005286	-0.059695
O6	O	0.854105	1.005257	0.211114
O7	O	0.583266	1.005279	0.059731
O8	O	0.854098	0.662519	-0.059728
O9	O	0.583271	1.348023	0.211147
O10	O	0.838951	0.892469	0.044561
O11	O	0.749819	0.892479	-0.044561
O12	O	0.749824	1.118063	0.133703
O13	O	0.660692	1.118073	0.044582
Zr14	Zr	0.889623	1.005271	-0.095235
Zr15	Zr	0.889627	1.005261	0.095235
Zr16	Zr	0.699144	1.005281	-0.095224
Zr17	Zr	0.699150	1.246328	0.095259
Zr18	Zr	0.889621	0.764214	-0.095247
O19	O	0.854101	1.196879	-0.059701
O20	O	0.854106	1.196865	0.211124
O21	O	0.583265	1.196894	-0.059685
O22	O	1.005501	0.813663	-0.211128
O23	O	1.005506	0.813649	0.059697
O24	O	0.734665	0.813678	-0.211112
O25	O	1.005507	1.005257	0.059707
O26	O	0.854097	1.005279	-0.211109
O27	O	0.734666	1.005286	-0.211102
O28	O	1.005505	1.005263	-0.059719
O29	O	0.734676	1.348015	0.211138
O30	O	0.854095	0.662527	-0.211127
O31	O	1.005500	0.662519	-0.211135
O32	O	1.005503	0.662511	-0.059737
O33	O	0.583268	1.348031	0.059748
O34	O	0.734673	1.348023	0.059739
O35	O	0.838947	0.892479	-0.133692
O36	O	0.928079	0.892469	-0.044571
O37	O	0.838952	1.118063	0.044572
O38	O	0.749820	1.118073	-0.044549
C39	C	0.794384	0.703746	-0.000010
C40	C	0.794383	0.601411	-0.000015
C41	C	0.728587	0.636625	0.065796
C42	C	0.728591	0.540485	0.065818
C43	C	0.860190	0.373918	-0.065788
C44	C	0.860189	0.470057	-0.065806
C45	C	0.679447	0.509162	0.174799
C46	C	0.613639	0.544377	0.240604
C47	C	0.525637	0.649099	0.268789
C48	C	0.503428	0.718608	0.231159
C49	C	0.569233	0.683387	0.165348
C50	C	0.657244	0.578669	0.137178
C51	C	0.909325	0.501387	-0.174786
C52	C	0.975127	0.466167	-0.240602
C53	C	1.063131	0.361439	-0.268796
C54	C	1.085339	0.291918	-0.231181
C55	C	1.019538	0.327138	-0.165365
C56	C	0.931534	0.431873	-0.137170
C57	C	0.556126	1.005284	0.000019
C58	C	0.475263	1.005288	0.000024
C59	C	0.409592	1.005293	0.000024
C60	C	0.327210	1.005288	0.000016
C61	C	0.261553	1.005274	0.000005
C62	C	0.179166	1.005268	-0.000002
C63	C	1.032645	1.005258	-0.000008
C64	C	1.113508	1.005254	-0.000013
C65	C	0.794390	1.005258	0.238255
C66	C	0.794392	1.005254	0.319115
C67	C	0.794387	1.306797	0.000021
C68	C	0.794388	1.409132	0.000026
C69	C	0.794393	1.005249	0.384782
C70	C	0.794393	1.005255	0.467168
C71	C	0.794390	1.005269	0.532836
C72	C	0.794388	1.005274	0.615228
C73	C	0.794382	1.005284	0.761756
C74	C	0.794385	1.005288	0.680896
C75	C	1.032643	0.703733	-0.000023
C76	C	1.113506	0.601394	-0.000033
C77	C	0.794379	0.703758	-0.238259
C78	C	0.794377	0.601428	-0.319124
C79	C	1.032639	0.703746	-0.238273
C80	C	1.113499	0.601411	-0.319142
C81	C	0.556132	1.306797	0.238284
C82	C	0.475272	1.409132	0.319154
C83	C	0.556128	1.306809	0.000035
C84	C	0.475265	1.409149	0.000044
C85	C	0.794392	1.306784	0.238271
C86	C	0.794394	1.409115	0.319135
C87	C	1.104956	0.553334	0.046496
C88	C	1.180928	0.457189	0.046504
C89	C	1.265448	0.409098	-0.000022
C90	C	1.273997	0.457167	-0.046552
C91	C	1.198026	0.553317	-0.046555
C92	C	0.840900	0.553372	-0.403633
C93	C	0.840894	0.457235	-0.479621
C94	C	0.794370	0.409149	-0.471099
C95	C	0.747842	0.457214	-0.386582
C96	C	0.747843	0.553356	-0.310595
C97	C	1.198006	0.553348	-0.310599
C98	C	1.273991	0.457207	-0.386577
C99	C	1.265467	0.409123	-0.471098
C100	C	1.180951	0.457196	-0.479639
C101	C	1.104968	0.553342	-0.403662
C102	C	0.390765	1.457206	0.310611
C103	C	0.314780	1.553377	0.386589
C104	C	0.323304	1.601466	0.471109
C105	C	0.407820	1.553387	0.479651
C106	C	0.483803	1.457225	0.403673
C107	C	0.483815	1.457219	-0.046477
C108	C	0.407843	1.553390	-0.046464
C109	C	0.323323	1.601484	0.000065
C110	C	0.314774	1.553411	0.046591
C111	C	0.390745	1.457247	0.046584
C112	C	0.840927	1.457170	0.310585
C113	C	0.840947	1.553308	0.386559
C114	C	0.794428	1.601395	0.471082
C115	C	0.747893	1.553330	0.479631
C116	C	0.747880	1.457187	0.403658
H117	H	0.472056	0.677768	0.322371
H118	H	1.156999	0.206636	-0.254142
C119	C	0.544818	0.759831	0.123956
H120	H	0.596614	0.723855	0.080726
H121	H	0.520656	0.848184	0.169125
H122	H	0.502129	0.754600	0.096467
C123	C	0.239763	1.707258	0.000063
H124	H	0.256968	1.728984	-0.034316
H125	H	0.205388	1.782286	0.059339
H126	H	0.205390	1.675743	-0.024856
C127	C	1.171513	0.404315	0.097680
H128	H	1.228859	0.340173	0.091032
H129	H	1.139947	0.366805	0.074694
H130	H	1.139935	0.473355	0.158894
C131	C	1.011993	0.606223	0.097684
H132	H	1.017794	0.563831	0.125401
H133	H	0.980413	0.590467	0.057535
H134	H	0.980426	0.697008	0.141717
H135	H	0.631729	0.487777	0.271241
C136	C	0.892087	0.404370	-0.572579
H137	H	0.919805	0.446766	-0.566764
H138	H	0.851937	0.420139	-0.604155
H139	H	0.936116	0.313584	-0.604159
H140	H	0.245947	1.592583	0.084474
H141	H	0.552610	1.418083	0.410640
H142	H	1.174024	0.418032	-0.548466
C143	C	1.349008	0.303324	-0.000021
H144	H	1.331803	0.281585	0.034348
H145	H	1.383389	0.334821	0.024887
H146	H	1.383375	0.228292	-0.059303
H147	H	0.794446	1.679681	0.532937
H148	H	1.342824	0.417998	-0.084432
H149	H	1.036162	0.592462	-0.410630
H150	H	1.205000	0.592435	-0.084450
C151	C	1.207401	0.606227	-0.217637
H152	H	1.268617	0.563832	-0.223443
H153	H	1.179702	0.590464	-0.186060
H154	H	1.179694	0.697012	-0.186061
H155	H	0.245971	1.592506	0.379617
H156	H	0.414821	1.592516	-0.084355
C157	C	0.776250	0.393973	0.143804
H158	H	0.780044	0.357615	0.175631
H159	H	0.813480	0.423396	0.154654
H160	H	0.794942	0.329824	0.082000
C161	C	0.892066	0.606267	-0.413025
H162	H	0.919758	0.563880	-0.474243
H163	H	0.936100	0.590509	-0.385331
H164	H	0.851894	0.697052	-0.385310
C165	C	0.381370	1.404340	0.217648
H166	H	0.320154	1.446769	0.223455
H167	H	0.409066	1.313562	0.186062
H168	H	0.409080	1.420109	0.186083
C169	C	0.696718	1.606245	0.572609
H170	H	0.703387	1.670397	0.616625
H171	H	0.719680	1.537235	0.579288
H172	H	0.635503	1.643781	0.579283
C173	C	0.239718	1.707224	0.554676
H174	H	0.188171	1.728949	0.537475
H175	H	0.239698	1.782257	0.589062
H176	H	0.239710	1.675692	0.589039
H177	H	0.383771	1.418111	0.084464
H178	H	0.794377	0.330864	-0.532979
C179	C	0.696682	0.404296	-0.377219
H180	H	0.703360	0.340144	-0.434581
H181	H	0.635469	0.473304	-0.345645
H182	H	0.719674	0.366760	-0.345666
H183	H	1.342801	0.418076	-0.379607
C184	C	0.417185	1.606283	0.572625
H185	H	0.359825	1.670426	0.616644
H186	H	0.448755	1.643796	0.579307
H187	H	0.448741	1.537251	0.579290
C188	C	0.892104	1.404284	0.217617
H189	H	0.885433	1.340147	0.173586
H190	H	0.953313	1.366765	0.210949
H191	H	0.869128	1.473320	0.210958
C192	C	0.576780	1.404333	-0.097657
H193	H	0.620810	1.340167	-0.091011
H194	H	0.583444	1.473362	-0.074673
H195	H	0.583442	1.366826	-0.158870
H196	H	0.878839	1.592433	0.379581
H197	H	0.709961	0.592470	-0.241787
H198	H	1.116705	0.332756	-0.322397
C199	C	0.950702	0.542628	-0.281986
H200	H	1.002493	0.506643	-0.325227
H201	H	0.926552	0.630976	-0.236817
H202	H	0.908001	0.537413	-0.309461
H203	H	0.674999	0.743575	0.119362
C204	C	0.696678	1.404351	0.413075
H205	H	0.668970	1.446776	0.474297
H206	H	0.736819	1.313571	0.385369
H207	H	0.652639	1.420140	0.385384
H208	H	1.327344	0.330835	-0.532956
H209	H	0.913767	0.266961	-0.119353
C210	C	0.406616	0.833754	0.262123
H211	H	0.402812	0.870085	0.230274
H212	H	0.387886	0.897926	0.323923
H213	H	0.369419	0.804268	0.251250
C214	C	1.043966	0.250671	-0.123986
H215	H	1.105804	0.183257	-0.150198
H216	H	1.011313	0.214012	-0.134436
H217	H	1.029863	0.307574	-0.061790
H218	H	0.837666	0.586674	-0.151828
