data_functionalizedCrystal
_audit_creation_method	'MofGen! by Chris Wilmer'
_symmetry_space_group_name_H-M	'P1'
_symmetry_Int_Tables_number	1
_symmetry_cell_setting	triclinic
loop_
_symmetry_equiv_pos_as_xyz
  x,y,z
_cell_length_a	13.339070
_cell_length_b	9.483290
_cell_length_c	10.967829
_cell_angle_alpha	91.624131
_cell_angle_beta	99.821693
_cell_angle_gamma	82.537817
loop_
_atom_site_label
_atom_site_type_symbol
_atom_site_fract_x
_atom_site_fract_y
_atom_site_fract_z
O1	O	1.315215	0.265738	0.578069
O2	O	1.022447	0.246023	0.499397
O3	O	1.180714	0.212944	0.367359
O4	O	1.156949	0.298816	0.710108
O5	O	1.208030	-0.018154	0.409976
O6	O	1.049764	0.014925	0.542014
O7	O	1.342532	0.034640	0.620687
Cu8	Cu	1.198642	0.003681	0.585242
Cu9	Cu	1.166337	0.276981	0.534842
O10	O	1.184265	0.067718	0.752725
C11	C	0.998714	0.127144	0.507416
C12	C	0.887298	0.117218	0.467804
N13	N	1.221371	-0.188543	0.620692
C14	C	1.194707	0.086183	0.343902
C15	C	1.195692	0.052772	0.210513
C16	C	0.515616	0.194408	0.775807
C17	C	0.620296	0.203739	0.813027
C18	C	0.687051	0.182109	0.726725
C19	C	0.649117	0.151147	0.603195
C20	C	0.544426	0.141826	0.565969
C21	C	0.715861	0.129527	0.516887
C22	C	0.677926	0.098565	0.393357
C23	C	0.573245	0.089245	0.356137
C24	C	0.506490	0.110875	0.442439
C25	C	0.820552	0.138848	0.554113
C26	C	0.849362	0.086267	0.344275
C27	C	0.744682	0.076935	0.307054
C28	C	1.366265	0.153522	0.612667
C29	C	1.477680	0.163457	0.652278
C30	C	1.173030	-0.279664	0.545288
C31	C	1.191965	-0.439676	0.574800
N32	N	1.143616	0.469204	0.499385
C33	C	1.181981	0.157594	0.128973
C34	C	1.182999	0.123065	-0.008892
C35	C	1.170272	0.194483	0.776181
C36	C	1.169286	0.227902	0.909568
H37	H	0.772285	0.189712	0.757037
O38	O	0.921352	0.062931	0.251181
H39	H	0.919290	-0.045652	0.211093
O40	O	1.070216	-0.477237	0.384927
H41	H	1.037680	-0.568326	0.334188
H42	H	0.851429	0.164052	0.654693
O43	O	0.661217	0.237100	0.946258
H44	H	0.597217	0.250552	1.000021
H45	H	1.195486	0.007753	-0.041143
O46	O	0.393582	0.100802	0.402288
H47	H	0.353542	0.121043	0.483056
H48	H	1.156780	0.343214	-0.058186
H49	H	1.117620	-0.239214	0.458888
O50	O	1.212255	-0.099965	0.167798
H51	H	1.144753	-0.123272	0.099573
O52	O	0.443623	0.217724	0.868885
H53	H	0.364459	0.206030	0.822246
O54	O	0.703764	0.043549	0.173819
H55	H	0.619755	0.040710	0.162439
H56	H	0.542361	0.064049	0.255548
H57	H	1.276771	-0.228991	0.707101
O58	O	1.265373	-0.493227	0.689255
H59	H	1.268736	-0.610505	0.694466
H60	H	1.169483	0.272898	0.161228
