data_functionalizedCrystal
_audit_creation_method	'MofGen! by Chris Wilmer'
_symmetry_space_group_name_H-M	'P1'
_symmetry_Int_Tables_number	1
_symmetry_cell_setting	triclinic
loop_
_symmetry_equiv_pos_as_xyz
  x,y,z
_cell_length_a	12.759401
_cell_length_b	21.295417
_cell_length_c	12.759393
_cell_angle_alpha	89.961877
_cell_angle_beta	89.981504
_cell_angle_gamma	90.029863
loop_
_atom_site_label
_atom_site_type_symbol
_atom_site_fract_x
_atom_site_fract_y
_atom_site_fract_z
Zn1	Zn	1.606146	-0.250569	-0.593933
Zn2	Zn	1.605994	-0.355853	-0.418233
Zn3	Zn	1.430448	-0.250602	-0.418273
Zn4	Zn	1.430390	-0.355805	-0.593875
O5	O	1.518245	-0.303208	-0.506079
O6	O	1.753147	-0.264542	-0.570634
O7	O	1.582668	-0.341926	-0.271218
O8	O	1.453842	-0.162509	-0.441616
O9	O	1.753035	-0.341894	-0.441548
O10	O	1.582927	-0.162484	-0.570673
O11	O	1.453695	-0.264598	-0.271246
O12	O	1.283419	-0.264551	-0.441559
O13	O	1.453744	-0.341811	-0.740904
O14	O	1.283377	-0.341843	-0.570573
O15	O	1.582871	-0.264495	-0.740947
O16	O	1.582613	-0.443936	-0.441492
O17	O	1.453597	-0.443901	-0.570535
C18	C	1.245277	-0.303196	-0.506064
C19	C	1.128501	-0.303206	-0.506083
C20	C	1.518111	-0.466759	-0.506025
C21	C	1.518150	-0.536727	-0.506038
C22	C	1.073644	-0.343516	-0.573150
C23	C	0.963920	-0.343524	-0.573161
C24	C	0.963919	-0.262910	-0.439031
C25	C	1.073641	-0.262899	-0.439025
C26	C	1.073644	-0.390061	-0.650586
C27	C	0.963920	-0.390069	-0.650597
C28	C	1.585325	-0.569524	-0.573286
C29	C	1.585362	-0.635267	-0.573312
C30	C	1.518235	-0.668210	-0.506071
C31	C	1.451046	-0.635405	-0.438818
C32	C	1.451003	-0.569664	-0.438802
N33	N	1.510296	-0.771479	-0.414125
N34	N	1.510342	-0.833930	-0.414143
C35	C	1.518357	-0.866284	-0.506118
N36	N	1.526345	-0.833828	-0.598076
N37	N	1.526304	-0.771371	-0.598056
C38	C	1.518273	-0.739495	-0.506082
C39	C	1.585577	-0.970367	-0.573400
C40	C	1.585607	-1.036111	-0.573428
C41	C	1.451296	-1.036248	-0.438925
C42	C	1.451260	-0.970505	-0.438907
C43	C	1.518407	-0.937569	-0.506143
C44	C	1.792278	-0.303220	-0.506094
C45	C	1.909054	-0.303225	-0.506100
C46	C	1.518318	-0.303144	-0.780112
C47	C	1.518350	-0.303117	-0.896889
C48	C	1.518408	-0.139017	-0.506155
C49	C	1.518477	-0.069049	-0.506188
C50	C	1.585595	-0.262855	-0.951775
C51	C	1.585620	-0.262832	-1.061499
C52	C	1.451151	-0.343339	-1.061441
C53	C	1.451122	-0.343358	-0.951719
C54	C	1.663233	-0.216376	-0.951809
C55	C	1.663258	-0.216353	-1.061533
C56	C	1.518232	-0.303225	-0.233111
C57	C	1.518404	-0.303075	-0.116335
H58	H	1.118301	-0.230071	-0.384420
C59	C	1.377215	-0.387606	-1.121758
H60	H	1.386866	-0.381831	-1.194966
H61	H	1.306629	-0.378395	-1.103777
H62	H	1.392553	-0.429907	-1.103752
H63	H	1.634165	-0.170033	-1.095590
C64	C	1.377132	-0.387635	-0.891348
H65	H	1.337103	-0.411598	-0.939720
H66	H	1.331378	-0.363550	-0.848563
H67	H	1.417271	-0.415080	-0.848525
C68	C	1.633840	-0.150525	-0.911616
H69	H	1.621762	-0.123430	-0.969544
H70	H	1.689531	-0.134335	-0.870267
H71	H	1.572074	-0.153186	-0.870252
H72	H	0.919238	-0.230093	-0.384435
C73	C	1.659269	-0.671351	-0.647277
H74	H	1.699258	-0.642319	-0.687311
H75	H	1.619083	-0.697000	-0.693028
H76	H	1.705081	-0.696987	-0.607112
H77	H	1.396564	-0.943800	-0.384142
H78	H	1.640249	-0.943549	-0.628152
H79	H	1.740497	-0.233853	-0.917770
H80	H	0.929930	-0.372666	-0.727953
C81	C	1.113928	-0.372493	-0.760554
H82	H	1.056038	-0.365269	-0.805783
H83	H	1.155279	-0.405874	-0.787485
H84	H	1.155309	-0.335487	-0.756236
H85	H	1.744623	-0.229411	-1.091309
C86	C	1.659505	-1.072187	-0.647404
H87	H	1.699492	-1.043153	-0.687435
H88	H	1.619312	-1.097832	-0.693158
H89	H	1.705318	-1.097828	-0.607250
C90	C	0.923632	-0.455909	-0.620951
H91	H	0.981520	-0.482979	-0.608740
H92	H	0.882286	-0.472151	-0.676593
H93	H	0.882246	-0.453214	-0.559213
H94	H	1.107638	-0.436347	-0.621293
C95	C	1.659182	-0.533297	-0.647243
H96	H	1.699192	-0.562250	-0.687302
H97	H	1.704961	-0.507647	-0.607082
H98	H	1.618952	-0.507651	-0.692988
H99	H	1.396388	-0.662231	-0.384073
C100	C	1.377113	-0.533586	-0.364819
H101	H	1.337141	-0.562619	-0.324771
H102	H	1.331301	-0.507942	-0.404959
H103	H	1.417322	-0.507944	-0.319065
H104	H	1.396632	-1.063069	-0.384183
