data_functionalizedCrystal
_audit_creation_method	'MofGen! by Chris Wilmer'
_symmetry_space_group_name_H-M	'P1'
_symmetry_Int_Tables_number	1
_symmetry_cell_setting	triclinic
loop_
_symmetry_equiv_pos_as_xyz
  x,y,z
_cell_length_a	27.732048
_cell_length_b	27.732048
_cell_length_c	26.809956
_cell_angle_alpha	89.981467
_cell_angle_beta	89.990422
_cell_angle_gamma	82.642654
loop_
_atom_site_label
_atom_site_type_symbol
_atom_site_fract_x
_atom_site_fract_y
_atom_site_fract_z
O1	O	0.057516	0.640935	-0.041513
O2	O	0.557516	1.140935	0.458487
O3	O	0.066261	0.500142	-0.041509
O4	O	0.566261	1.000142	0.458491
O5	O	-0.008508	0.574911	-0.041501
O6	O	0.491492	1.074911	0.458499
O7	O	0.132285	0.566166	-0.041520
O8	O	0.632285	1.066166	0.458480
O9	O	-0.008508	0.574889	0.041458
O10	O	0.491492	1.074889	0.541458
O11	O	0.066261	0.500119	0.041451
O12	O	0.566261	1.000119	0.541451
O13	O	0.057516	0.640913	0.041446
O14	O	0.557516	1.140913	0.541446
Zn15	Zn	0.061889	0.570512	0.054620
Zn16	Zn	0.561889	1.070512	0.554620
Zn17	Zn	0.061889	0.570542	-0.054682
Zn18	Zn	0.561889	1.070542	0.445318
O19	O	0.132285	0.566143	0.041439
O20	O	0.632285	1.066143	0.541439
C21	C	-0.026515	0.574716	-0.000020
C22	C	0.473485	1.074716	0.499980
C23	C	-0.080170	0.574164	-0.000016
C24	C	0.419830	1.074164	0.499984
C25	C	0.057699	0.658931	-0.000035
C26	C	0.557699	1.158931	0.499965
C27	C	0.058252	0.712586	-0.000041
C28	C	0.558252	1.212586	0.499959
C29	C	0.066078	0.482124	-0.000028
C30	C	0.566078	0.982124	0.499972
C31	C	0.065525	0.428469	-0.000026
C32	C	0.565525	0.928469	0.499974
C33	C	-0.418985	0.614867	-0.000043
C34	C	0.081015	1.114867	0.499957
C35	C	-0.620645	0.612816	-0.000050
C36	C	-0.120645	1.112816	0.499950
O37	O	-0.651900	0.650037	-0.000073
O38	O	-0.151900	1.150037	0.499927
N39	N	-0.639768	0.568481	-0.000048
N40	N	-0.139768	1.068481	0.499952
C41	C	-0.608474	0.524656	-0.000048
C42	C	-0.108474	1.024656	0.499952
O43	O	-0.629367	0.486899	-0.000052
O44	O	-0.129367	0.986899	0.499948
C45	C	-0.406815	0.526707	-0.000045
C46	C	0.093185	1.026707	0.499955
C47	C	-0.387694	0.571045	-0.000041
C48	C	0.112306	1.071045	0.499959
C49	C	-0.399864	0.659202	-0.000041
C50	C	0.100136	1.159202	0.499959
C51	C	-0.349452	0.659714	-0.000036
C52	C	0.150548	1.159714	0.499964
C53	C	-0.318161	0.615892	-0.000034
C54	C	0.181839	1.115892	0.499966
C55	C	-0.337282	0.571557	-0.000037
C56	C	0.162718	1.071557	0.499963
C57	C	-0.375521	0.482882	-0.000048
C58	C	0.124479	0.982882	0.499952
C59	C	-0.325104	0.483399	-0.000048
C60	C	0.174896	0.983399	0.499952
C61	C	-0.305983	0.527737	-0.000045
C62	C	0.194017	1.027737	0.499955
C63	C	-0.255580	0.528248	-0.000031
C64	C	0.244420	1.028248	0.499969
N65	N	-0.236456	0.572583	-0.000033
N66	N	0.263544	1.072583	0.499967
C67	C	-0.267747	0.616405	-0.000034
C68	C	0.232253	1.116405	0.499966
C69	C	-0.714348	0.523582	-0.000049
C70	C	-0.214348	1.023582	0.499951
C71	C	-0.764762	0.523069	-0.000049
C72	C	-0.264762	1.023069	0.499951
C73	C	-0.776930	0.611230	-0.000052
C74	C	-0.276930	1.111230	0.499948
C75	C	-0.726514	0.611742	-0.000048
C76	C	-0.226514	1.111742	0.499952
C77	C	-0.695224	0.567917	-0.000051
C78	C	-0.195224	1.067917	0.499949
C79	C	-0.161878	0.617477	-0.000025
C80	C	0.338122	1.117477	0.499975
C81	C	-0.111461	0.617986	-0.000018
C82	C	0.388539	1.117986	0.499982
C83	C	-0.099298	0.529825	-0.000018
C84	C	0.400702	1.029825	0.499982
C85	C	-0.149710	0.529316	-0.000021
C86	C	0.350290	1.029316	0.499979
C87	C	-0.180999	0.573147	-0.000027
C88	C	0.319001	1.073147	0.499973
O89	O	-0.224296	0.491047	-0.000013
O90	O	0.275704	0.991047	0.499987
O91	O	-0.246844	0.654156	-0.000042
O92	O	0.253156	1.154156	0.499958
C93	C	-0.469397	0.614355	-0.000048
C94	C	0.030603	1.114355	0.499952
C95	C	-0.488518	0.570021	-0.000050
C96	C	0.011482	1.070021	0.499950
C97	C	-0.457228	0.526198	-0.000048
C98	C	0.042772	1.026198	0.499952
C99	C	-0.538933	0.569508	-0.000050
C100	C	-0.038933	1.069508	0.499950
C101	C	-0.570223	0.613330	-0.000052
C102	C	-0.070223	1.113330	0.499948
C103	C	-0.551100	0.657665	-0.000054
C104	C	-0.051100	1.157665	0.499946
C105	C	-0.500688	0.658177	-0.000049
C106	C	-0.000688	1.158177	0.499951
C107	C	-0.476351	0.481863	-0.000047
C108	C	0.023649	0.981863	0.499953
C109	C	-0.526764	0.481355	-0.000050
C110	C	-0.026764	0.981355	0.499950
C111	C	-0.558054	0.525177	-0.000052
C112	C	-0.058054	1.025177	0.499948
C113	C	0.150292	0.566338	-0.000043
C114	C	0.650292	1.066338	0.499957
C115	C	0.203947	0.566891	-0.000050
C116	C	0.703947	1.066891	0.499950
N117	N	0.061888	0.570495	0.129216
N118	N	0.561888	1.070495	0.629216
C119	C	0.017548	1.051401	-0.000018
C120	C	0.517548	1.551401	0.499982
C121	C	0.019599	1.253060	-0.000017
C122	C	0.519599	1.753060	0.499983
O123	O	-0.017621	1.284316	0.000010
O124	O	0.482379	1.784316	0.500010
N125	N	0.063935	1.272184	-0.000024
N126	N	0.563935	1.772184	0.499976
C127	C	0.107760	1.240890	-0.000028
C128	C	0.607760	1.740890	0.499972
O129	O	0.145517	1.261783	-0.000030
O130	O	0.645517	1.761783	0.499970
C131	C	0.105709	1.039231	-0.000026
C132	C	0.605709	1.539231	0.499974
C133	C	0.061371	1.020110	-0.000024
C134	C	0.561371	1.520110	0.499976
C135	C	-0.026786	1.032280	-0.000015
C136	C	0.473214	1.532280	0.499985
C137	C	-0.027298	0.981868	-0.000018
C138	C	0.472702	1.481868	0.499982
C139	C	0.016524	0.950577	-0.000024
C140	C	0.516524	1.450577	0.499976
C141	C	0.060858	0.969698	-0.000027
C142	C	0.560858	1.469698	0.499973
C143	C	0.149534	1.007937	-0.000027
C144	C	0.649534	1.507937	0.499973
C145	C	0.149017	0.957520	-0.000025
C146	C	0.649017	1.457520	0.499975
C147	C	0.104679	0.938399	-0.000023
C148	C	0.604679	1.438399	0.499977
C149	C	0.104168	0.887996	-0.000036
C150	C	0.604168	1.387996	0.499964
N151	N	0.059833	0.868872	-0.000029
N152	N	0.559833	1.368872	0.499971
C153	C	0.016011	0.900163	-0.000023
C154	C	0.516011	1.400163	0.499977
C155	C	0.108834	1.346764	-0.000031
C156	C	0.608834	1.846764	0.499969
C157	C	0.109347	1.397178	-0.000032
C158	C	0.609347	1.897178	0.499968
C159	C	0.021186	1.409345	-0.000019
C160	C	0.521186	1.909345	0.499981
C161	C	0.020674	1.358930	-0.000021
C162	C	0.520674	1.858930	0.499979
C163	C	0.064499	1.327640	-0.000023
C164	C	0.564499	1.827640	0.499977
C165	C	0.014938	0.794293	-0.000030
C166	C	0.514938	1.294293	0.499970
C167	C	0.014430	0.743876	-0.000035
C168	C	0.514430	1.243876	0.499965
C169	C	0.102591	0.731713	-0.000045
C170	C	0.602591	1.231713	0.499955
C171	C	0.103099	0.782126	-0.000042
C172	C	0.603099	1.282126	0.499958
C173	C	0.059269	0.813415	-0.000033
C174	C	0.559269	1.313415	0.499967
O175	O	0.141369	0.856712	-0.000057
O176	O	0.641369	1.356712	0.499943
O177	O	-0.021740	0.879260	-0.000011
O178	O	0.478260	1.379260	0.499989
C179	C	0.018061	1.101813	-0.000015
C180	C	0.518061	1.601813	0.499985
C181	C	0.062395	1.120934	-0.000018
C182	C	0.562395	1.620934	0.499982
C183	C	0.106217	1.089643	-0.000024
C184	C	0.606217	1.589643	0.499976
C185	C	0.062908	1.171348	-0.000019
C186	C	0.562908	1.671348	0.499981
C187	C	0.019086	1.202639	-0.000013
C188	C	0.519086	1.702639	0.499987
C189	C	-0.025249	1.183515	-0.000006
C190	C	0.474751	1.683515	0.499994
C191	C	-0.025761	1.133103	-0.000009
C192	C	0.474239	1.633103	0.499991
C193	C	0.150553	1.108767	-0.000031
C194	C	0.650553	1.608767	0.499969
C195	C	0.151061	1.159180	-0.000029
C196	C	0.651061	1.659180	0.499971
C197	C	0.107239	1.190470	-0.000023
C198	C	0.607239	1.690470	0.499977
N199	N	0.061885	0.570563	-0.129278
N200	N	0.561885	1.070563	0.370722
C201	C	0.090999	0.599633	0.473837
C202	C	0.590999	1.099633	0.973837
C203	C	0.090999	0.599648	0.682715
C204	C	0.590999	1.099648	1.182715
O205	O	0.115745	0.624410	0.709714
O206	O	0.615745	1.124410	1.209714
N207	N	0.061884	0.570554	0.708843
N208	N	0.561884	1.070554	1.208843
C209	C	0.032764	0.541456	0.682749
C210	C	0.532764	1.041456	1.182749
O211	O	0.007996	0.516713	0.709765
O212	O	0.507996	1.016713	1.209765
C213	C	0.032762	0.541443	0.473872
C214	C	0.532762	1.041443	0.973872
C215	C	0.061883	0.570536	0.447746
C216	C	0.561883	1.070536	0.947746
C217	C	0.120117	0.628724	0.447711
C218	C	0.620117	1.128724	0.947711
C219	C	0.120119	0.628717	0.395495
C220	C	0.620119	1.128717	0.895495
C221	C	0.091003	0.599620	0.369404
C222	C	0.591003	1.099620	0.869404
C223	C	0.061885	0.570530	0.395530
C224	C	0.561885	1.070530	0.895530
C225	C	0.003640	0.512348	0.447779
C226	C	0.503640	1.012348	0.947779
C227	C	0.003641	0.512348	0.395556
C228	C	0.503641	1.012348	0.895556
C229	C	0.032762	0.541441	0.369431
C230	C	0.532762	1.041441	0.869431
C231	C	0.032770	0.541426	0.317223
C232	C	0.532770	1.041426	0.817223
N233	N	0.061886	0.570521	0.291095
N234	N	0.561886	1.070521	0.791095
C235	C	0.091002	0.599618	0.317185
C236	C	0.591002	1.099618	0.817185
C237	C	0.032768	0.541464	0.792412
C238	C	0.532768	1.041464	1.292412
C239	C	0.032769	0.541466	0.844631
C240	C	0.532769	1.041466	1.344631
C241	C	0.091003	0.599660	0.844593
C242	C	0.591003	1.099660	1.344593
C243	C	0.091004	0.599654	0.792373
C244	C	0.591004	1.099654	1.292373
C245	C	0.061883	0.570558	0.766284
C246	C	0.561883	1.070558	1.266284
C247	C	0.091004	0.599602	0.207528
C248	C	0.591004	1.099602	0.707528
C249	C	0.091005	0.599592	0.155307
C250	C	0.591005	1.099592	0.655307
C251	C	0.032769	0.541401	0.155349
C252	C	0.532769	1.041401	0.655349
C253	C	0.032769	0.541409	0.207565
C254	C	0.532769	1.041409	0.707565
C255	C	0.061889	0.570514	0.233653
C256	C	0.561889	1.070514	0.733653
O257	O	0.008033	0.516682	0.290192
O258	O	0.508033	1.016682	0.790192
O259	O	0.115758	0.624365	0.290160
O260	O	0.615758	1.124365	0.790160
C261	C	0.090998	0.599639	0.526053
C262	C	0.590998	1.099639	1.026053
C263	C	0.061879	0.570548	0.552179
C264	C	0.561879	1.070548	1.052179
C265	C	0.032763	0.541451	0.526088
C266	C	0.532763	1.041451	1.026088
C267	C	0.061880	0.570551	0.604398
C268	C	0.561880	1.070551	1.104398
C269	C	0.090997	0.599648	0.630489
C270	C	0.590997	1.099648	1.130489
C271	C	0.120112	0.628742	0.604360
C272	C	0.620112	1.128742	1.104360
C273	C	0.120114	0.628736	0.552144
C274	C	0.620114	1.128736	1.052144
C275	C	0.003648	0.512357	0.552217
C276	C	0.503648	1.012357	1.052217
C277	C	0.003649	0.512365	0.604433
C278	C	0.503649	1.012365	1.104433
C279	C	0.032765	0.541462	0.630524
C280	C	0.532765	1.041462	1.130524
H281	H	-0.095896	0.654093	-0.000014
H282	H	0.404104	1.154093	0.499986
H283	H	-0.187348	0.653168	-0.000031
H284	H	0.312652	1.153168	0.499969
H285	H	-0.710950	0.647846	-0.000046
H286	H	-0.210950	1.147846	0.499954
F287	F	-0.170060	0.482127	-0.000016
F288	F	0.329940	0.982127	0.499984
F289	F	-0.329109	0.706905	-0.000043
F290	F	0.170891	1.206905	0.499957
F291	F	-0.433159	0.705848	-0.000043
F292	F	0.066841	1.205848	0.499957
H293	H	-0.063403	0.966305	-0.000014
H294	H	0.436597	1.466305	0.499986
H295	H	-0.020752	0.819764	-0.000022
H296	H	0.479248	1.319764	0.499978
F297	F	0.196725	1.028276	-0.000030
F298	F	0.696725	1.528276	0.499970
F299	F	-0.065987	0.483189	-0.000016
F300	F	0.434013	0.983189	0.499984
F301	F	0.151120	0.659676	0.367697
F302	F	0.651120	1.159676	0.867697
H303	H	-0.802415	0.646911	-0.000053
H304	H	-0.302415	1.146911	0.499947
H305	H	0.145452	1.412741	-0.000041
H306	H	0.645452	1.912741	0.499959
F307	F	0.151110	0.659696	0.475471
F308	F	0.651110	1.159696	0.975471
H309	H	-0.062473	1.057752	-0.000009
H310	H	0.437527	1.557752	0.499991
H311	H	-0.020074	0.488654	0.374317
H312	H	0.479926	0.988654	0.874317
F313	F	0.121997	0.630620	0.764573
F314	F	0.621997	1.130620	1.264573
F315	F	-0.785106	0.475878	-0.000043
F316	F	-0.285106	0.975878	0.499957
H317	H	-0.450879	0.446177	-0.000046
H318	H	0.049121	0.946177	0.499954
F319	F	0.121990	0.630628	0.872370
F320	F	0.621990	1.130628	1.372370
H321	H	-0.021677	0.728311	-0.000034
H322	H	0.478323	1.228311	0.499966
F323	F	0.001781	0.510495	0.872430
F324	F	0.501781	1.010495	1.372430
H325	H	-0.015430	1.343366	-0.000019
H326	H	0.484570	1.843366	0.499981
H327	H	0.184706	0.932045	-0.000024
H328	H	0.684706	1.432045	0.499976
F329	F	-0.395860	0.435691	-0.000053
F330	F	0.104140	0.935691	0.499947
F331	F	0.150289	0.802476	-0.000051
F332	F	0.650289	1.302476	0.499949
F333	F	-0.480345	0.705368	-0.000049
F334	F	0.019655	1.205368	0.499951
H335	H	0.009063	0.517713	0.228838
H336	H	0.509063	1.017713	0.728838
H337	H	-0.576585	0.693347	-0.000053
H338	H	-0.076585	1.193347	0.499947
F339	F	-0.025453	1.442656	-0.000014
F340	F	0.474547	1.942656	0.499986
H341	H	0.186239	1.083295	-0.000035
H342	H	0.686239	1.583295	0.499965
H343	H	0.114721	0.623283	0.134037
H344	H	0.614721	1.123283	0.634037
F345	F	0.149227	0.698403	-0.000054
F346	F	0.649227	1.198403	0.499946
F347	F	-0.072952	1.112760	-0.000009
F348	F	0.427048	1.612760	0.499991
H349	H	-0.688875	0.487892	-0.000050
H350	H	-0.188875	0.987892	0.499950
F351	F	0.155482	1.313467	-0.000035
F352	F	0.655482	1.813467	0.499965
H353	H	-0.060931	1.209001	-0.000004
H354	H	0.439069	1.709001	0.499996
F355	F	0.001778	0.510486	0.764652
F356	F	0.501778	1.010486	1.264652
F357	F	-0.027355	0.481382	0.475573
F358	F	0.472645	0.981382	0.975573
F359	F	-0.291805	0.436752	-0.000052
F360	F	0.208195	0.936752	0.499948
F361	F	0.198255	1.179523	-0.000035
F362	F	0.698255	1.679523	0.499965
H363	H	-0.542327	0.445246	-0.000049
H364	H	-0.042327	0.945246	0.499951
F365	F	0.121995	0.630579	0.235285
F366	F	0.621995	1.130579	0.735285
F367	F	0.001784	0.510434	0.127572
F368	F	0.501784	1.010434	0.627572
F369	F	0.151111	0.659698	0.524346
F370	F	0.651111	1.159698	1.024346
F371	F	0.151102	0.659708	0.632137
F372	F	0.651102	1.159708	1.132137
H373	H	-0.020064	0.488669	0.625700
H374	H	0.479936	0.988669	1.125700
F375	F	-0.027338	0.481380	0.524456
F376	F	0.472662	0.981380	1.024456
