data_functionalizedCrystal
_audit_creation_method	'MofGen! by Chris Wilmer'
_symmetry_space_group_name_H-M	'P1'
_symmetry_Int_Tables_number	1
_symmetry_cell_setting	triclinic
loop_
_symmetry_equiv_pos_as_xyz
  x,y,z
_cell_length_a	21.395362
_cell_length_b	16.625546
_cell_length_c	21.395364
_cell_angle_alpha	90.015968
_cell_angle_beta	90.025888
_cell_angle_gamma	90.038346
loop_
_atom_site_label
_atom_site_type_symbol
_atom_site_fract_x
_atom_site_fract_y
_atom_site_fract_z
Zn1	Zn	0.957784	-0.320773	0.354586
Zn2	Zn	1.457784	0.179227	0.854586
Zn3	Zn	0.957734	-0.455583	0.249808
Zn4	Zn	1.457734	0.044417	0.749808
Zn5	Zn	0.853032	-0.320805	0.249787
Zn6	Zn	1.353032	0.179195	0.749787
Zn7	Zn	0.852983	-0.455605	0.354513
Zn8	Zn	1.352983	0.044395	0.854513
O9	O	0.905383	-0.388191	0.302173
O10	O	1.405383	0.111809	0.802173
O11	O	1.045455	-0.338633	0.340726
O12	O	1.545455	0.161367	0.840726
O13	O	0.943845	-0.437708	0.162128
O14	O	1.443845	0.062292	0.662128
O15	O	0.866968	-0.207968	0.263710
O16	O	1.366968	0.292032	0.763710
O17	O	1.045419	-0.437677	0.263747
O18	O	1.545419	0.062323	0.763747
O19	O	0.943929	-0.207945	0.340705
O20	O	1.443929	0.292055	0.840705
O21	O	0.866920	-0.338687	0.162112
O22	O	1.366920	0.161313	0.662112
O23	O	0.765347	-0.338709	0.263640
O24	O	1.265347	0.161291	0.763640
O25	O	0.866885	-0.437716	0.442200
O26	O	1.366885	0.062284	0.942200
O27	O	0.765311	-0.437746	0.340581
O28	O	1.265311	0.062254	0.840581
O29	O	0.943882	-0.338655	0.442254
O30	O	1.443882	0.161345	0.942254
O31	O	0.943798	-0.568418	0.263676
O32	O	1.443798	-0.068418	0.763676
O33	O	0.866837	-0.568434	0.340602
O34	O	1.366837	-0.068434	0.840602
C35	C	0.742595	-0.388234	0.302101
C36	C	1.242595	0.111766	0.802101
C37	C	0.672954	-0.388272	0.302084
C38	C	1.172954	0.111728	0.802084
C39	C	0.640239	-0.439909	0.342088
C40	C	1.140239	0.060091	0.842088
C41	C	0.574803	-0.439889	0.342116
C42	C	1.074803	0.060111	0.842116
C43	C	0.542086	-0.388241	0.302129
C44	C	1.042086	0.111759	0.802129
C45	C	0.574809	-0.336594	0.262123
C46	C	1.074809	0.163406	0.762123
C47	C	0.640243	-0.336609	0.262100
C48	C	1.140243	0.163391	0.762100
C49	C	0.438378	-0.381742	0.245724
C50	C	0.938378	0.118258	0.745724
C51	C	0.372945	-0.381732	0.245745
C52	C	0.872945	0.118268	0.745745
C53	C	0.340265	-0.388188	0.302198
C54	C	0.840265	0.111812	0.802198
C55	C	0.373026	-0.394671	0.358632
C56	C	0.873026	0.105329	0.858632
C57	C	0.438460	-0.394686	0.358610
C58	C	0.938460	0.105314	0.858610
C59	C	0.471133	-0.388218	0.302149
C60	C	0.971133	0.111782	0.802149
C61	C	0.236597	-0.439806	0.342236
C62	C	0.736597	0.060194	0.842236
C63	C	0.171161	-0.439781	0.342264
C64	C	0.671161	0.060219	0.842264
C65	C	0.171168	-0.336490	0.262266
C66	C	0.671168	0.163510	0.762266
C67	C	0.236603	-0.336511	0.262242
C68	C	0.736603	0.163489	0.762242
C69	C	0.269314	-0.388174	0.302226
C70	C	0.769314	0.111826	0.802226
C71	C	0.905324	-0.597682	0.302147
C72	C	1.405324	-0.097682	0.802147
C73	C	0.905356	-0.687303	0.302157
C74	C	1.405356	-0.187303	0.802157
C75	C	0.905465	-1.015479	0.302222
C76	C	1.405465	-0.515479	0.802222
C77	C	0.905433	-0.924171	0.302206
C78	C	1.405433	-0.424171	0.802206
C79	C	0.905410	-0.851394	0.302189
C80	C	1.405410	-0.351394	0.802189
C81	C	0.905378	-0.760080	0.302173
C82	C	1.405378	-0.260080	0.802173
C83	C	1.068806	-0.388149	0.302247
C84	C	1.568806	0.111851	0.802247
C85	C	1.138448	-0.388131	0.302278
C86	C	1.638448	0.111869	0.802278
C87	C	0.905384	-0.388184	0.465597
C88	C	1.405384	0.111816	0.965597
C89	C	0.905384	-0.388181	0.535238
C90	C	1.405384	0.111819	1.035238
C91	C	0.905460	-0.177883	0.302213
C92	C	1.405460	0.322117	0.802213
C93	C	0.905492	-0.088261	0.302231
C94	C	1.405492	0.411739	0.802231
C95	C	0.945447	-0.336610	1.037063
C96	C	1.445447	0.163390	1.537063
C97	C	0.945454	-0.336611	0.971627
C98	C	1.445454	0.163389	1.471627
C99	C	0.905367	-0.388184	0.938876
C100	C	1.405367	0.111816	1.438876
C101	C	0.865282	-0.439775	0.971566
C102	C	1.365282	0.060225	1.471566
C103	C	0.865281	-0.439777	1.037000
C104	C	1.365281	0.060223	1.537000
C105	C	0.848917	-0.394562	0.835181
C106	C	1.348917	0.105438	1.335181
C107	C	0.848917	-0.394553	0.769748
C108	C	1.348917	0.105447	1.269748
C109	C	0.905370	-0.388181	0.737055
C110	C	1.405370	0.111819	1.237055
C111	C	0.961826	-0.381800	0.769804
C112	C	1.461826	0.118200	1.269804
C113	C	0.961825	-0.381802	0.835238
C114	C	1.461825	0.118198	1.335238
C115	C	0.905364	-0.388188	0.867924
C116	C	1.405364	0.111812	1.367924
C117	C	0.945463	-0.336599	0.633421
C118	C	1.445463	0.163401	1.133421
C119	C	0.945470	-0.336607	0.567985
C120	C	1.445470	0.163393	1.067985
C121	C	0.865293	-0.439766	0.567924
C122	C	1.365293	0.060234	1.067924
C123	C	0.865291	-0.439763	0.633360
C124	C	1.365291	0.060237	1.133360
C125	C	0.905375	-0.388175	0.666104
C126	C	1.405375	0.111825	1.166104
C127	C	0.905375	-0.388209	1.139386
C128	C	1.405375	0.111791	1.639386
C129	C	0.905365	-0.388190	1.069745
C130	C	1.405365	0.111810	1.569745
H131	H	0.144530	-0.294433	0.229711
H132	H	0.644530	0.205567	0.729711
H133	H	0.263240	-0.294467	0.229664
H134	H	0.763240	0.205533	0.729664
Cl135	Cl	0.814888	-0.504627	1.078088
Cl136	Cl	1.314888	-0.004627	1.578088
Cl137	Cl	0.130032	-0.504698	0.392563
Cl138	Cl	0.630032	-0.004698	0.892563
Cl139	Cl	0.995842	-0.271734	0.674589
Cl140	Cl	1.495842	0.228266	1.174589
H141	H	0.802948	-0.399749	0.743090
H142	H	1.302948	0.100251	1.243090
Cl143	Cl	0.479643	-0.402831	0.429551
Cl144	Cl	0.979643	0.097169	0.929551
Cl145	Cl	0.331767	-0.373581	0.174801
Cl146	Cl	0.831767	0.126419	0.674801
H147	H	0.464981	-0.376481	0.199750
H148	H	0.964981	0.123519	0.699750
Cl149	Cl	0.533679	-0.271661	0.211857
Cl150	Cl	1.033679	0.228339	0.711857
Cl151	Cl	0.995868	-0.271761	0.526898
Cl152	Cl	1.495868	0.228239	1.026898
H153	H	0.802942	-0.399752	0.861794
H154	H	1.302942	0.100248	1.361794
H155	H	0.666880	-0.294558	0.229525
H156	H	1.166880	0.205442	0.729525
Cl157	Cl	0.814904	-0.504611	0.526757
Cl158	Cl	1.314904	-0.004611	1.026757
Cl159	Cl	0.814898	-0.504609	0.674447
Cl160	Cl	1.314898	-0.004609	1.174447
H161	H	1.007793	-0.376609	0.861899
H162	H	1.507793	0.123391	1.361899
H163	H	0.666868	-0.481975	0.374647
H164	H	1.166868	0.018025	0.874647
H165	H	0.548161	-0.481938	0.374694
H166	H	1.048161	0.018062	0.874694
Cl167	Cl	0.331950	-0.402783	0.429607
Cl168	Cl	0.831950	0.097217	0.929607
H169	H	0.263232	-0.481869	0.374796
H170	H	0.763232	0.018131	0.874796
H171	H	0.978090	-0.294606	1.063719
H172	H	1.478090	0.205394	1.563719
H173	H	0.978093	-0.294605	0.945013
H174	H	1.478093	0.205395	1.445013
H175	H	1.007795	-0.376608	0.743187
H176	H	1.507795	0.123392	1.243187
H177	H	0.832644	-0.481767	0.944896
H178	H	1.332644	0.018233	1.444896
