data_functionalizedCrystal
_audit_creation_method	'MofGen! by Chris Wilmer'
_symmetry_space_group_name_H-M	'P1'
_symmetry_Int_Tables_number	1
_symmetry_cell_setting	triclinic
loop_
_symmetry_equiv_pos_as_xyz
  x,y,z
_cell_length_a	14.853569
_cell_length_b	11.792241
_cell_length_c	13.330367
_cell_angle_alpha	89.995231
_cell_angle_beta	89.994419
_cell_angle_gamma	83.914490
loop_
_atom_site_label
_atom_site_type_symbol
_atom_site_fract_x
_atom_site_fract_y
_atom_site_fract_z
O1	O	1.196945	0.148190	-0.083378
O2	O	0.934554	0.165840	-0.083390
O3	O	1.072117	-0.008195	-0.083377
O4	O	1.059382	0.322225	-0.083391
O5	O	1.072097	-0.008199	0.083470
O6	O	0.934534	0.165836	0.083457
O7	O	1.196925	0.148186	0.083469
Cu8	Cu	1.065728	0.157010	0.098698
Cu9	Cu	1.065751	0.157015	-0.098618
O10	O	1.059362	0.322221	0.083456
C11	C	0.900952	0.165038	0.000032
C12	C	0.800859	0.162640	0.000028
C13	C	0.764076	0.058135	0.000029
C14	C	0.743592	0.264893	0.000031
C15	C	0.649549	0.262644	0.000032
C16	C	0.612765	0.158139	0.000033
C17	C	0.670025	0.055883	0.000033
C18	C	0.592282	0.364899	0.000042
C19	C	0.498233	0.362654	0.000045
C20	C	0.461448	0.258147	0.000039
C21	C	0.518714	0.155887	0.000037
C22	C	0.481930	0.051381	0.000038
C23	C	0.539195	-0.050880	0.000030
C24	C	0.633240	-0.048624	0.000027
C25	C	0.367403	0.255891	0.000042
C26	C	0.387879	0.049129	0.000043
C27	C	1.071307	-0.050483	0.000047
C28	C	1.068913	-0.176482	0.000045
C29	C	1.064510	-0.407167	0.000028
C30	C	1.066956	-0.278797	0.000038
C31	C	1.230527	0.148988	0.000045
C32	C	1.330620	0.151385	0.000043
C33	C	1.060172	0.364509	0.000030
C34	C	1.062566	0.490508	0.000025
N35	N	1.065718	0.157007	0.237479
N36	N	1.065769	0.157010	-0.237400
C37	C	1.004836	0.234047	0.710096
C38	C	1.126691	0.079974	0.710076
C39	C	1.126681	0.079970	0.605058
C40	C	1.065748	0.157008	0.552554
C41	C	1.004826	0.234049	0.605068
C42	C	1.187609	0.002939	0.552535
C43	C	1.187602	0.002933	0.447511
C44	C	1.126664	0.079966	0.395005
C45	C	1.065738	0.157009	0.447526
C46	C	1.004805	0.234046	0.395022
C47	C	0.943874	0.311085	0.447540
C48	C	0.943888	0.311081	0.552562
C49	C	1.126650	0.079969	0.289983
C50	C	1.004795	0.234047	0.289993
H51	H	0.451616	0.445921	0.000050
H52	H	1.176305	0.017258	0.752828
C53	C	0.876850	0.395826	0.389781
C54	C	0.807693	0.351313	0.317591
C55	C	0.740671	0.436053	0.259827
C56	C	0.742806	0.565305	0.274253
C57	C	0.811966	0.609824	0.346447
C58	C	0.878988	0.525085	0.404210
H59	H	0.806110	0.255627	0.306909
H60	H	0.689474	0.403096	0.206385
H61	H	0.693193	0.628034	0.231493
H62	H	0.813549	0.705510	0.357129
H63	H	0.930185	0.558042	0.457653
C64	C	0.696232	-0.161101	0.000030
C65	C	0.691744	-0.246703	0.086671
C66	C	0.754741	-0.359177	0.086679
C67	C	0.822226	-0.386051	0.000046
C68	C	0.826716	-0.300448	-0.086602
C69	C	0.763719	-0.187973	-0.086610
H70	H	0.641785	-0.226811	0.150808
H71	H	0.751417	-0.422546	0.150822
H72	H	0.868860	-0.469312	0.000051
H73	H	0.876675	-0.320339	-0.150740
H74	H	0.767044	-0.124604	-0.150753
C75	C	0.347421	-0.065832	0.000044
C76	C	0.368800	-0.150819	0.086679
C77	C	0.328343	-0.265779	0.086680
C78	C	0.266506	-0.295751	0.000046
C79	C	0.245123	-0.210762	-0.086596
C80	C	0.285581	-0.095802	-0.086597
H81	H	0.414579	-0.128634	0.150817
H82	H	0.344172	-0.328693	0.150819
H83	H	0.236556	-0.380851	0.000047
H84	H	0.199345	-0.232947	-0.150734
H85	H	0.269752	-0.032887	-0.150736
C86	C	0.498726	-0.165834	0.000034
C87	C	0.520097	-0.250822	0.086671
C88	C	0.479624	-0.365771	0.086676
C89	C	0.417779	-0.395733	0.000045
C90	C	0.396405	-0.310743	-0.086598
C91	C	0.436878	-0.195793	-0.086603
H92	H	0.565881	-0.228644	0.150806
H93	H	0.495447	-0.428686	0.150816
H94	H	0.387819	-0.480825	0.000050
H95	H	0.350621	-0.332920	-0.150733
H96	H	0.421055	-0.132878	-0.150743
H97	H	0.320783	0.339150	0.000057
H98	H	0.955172	0.296777	0.247251
H99	H	0.955224	0.296768	0.752860
H100	H	0.810704	-0.025124	0.000018
H101	H	0.622239	0.449981	0.000048
C102	C	1.254634	-0.081799	0.610283
C103	C	1.357300	-0.079651	0.595824
C104	C	1.424328	-0.164395	0.653575
C105	C	1.388691	-0.251287	0.725784
C106	C	1.286020	-0.253438	0.740246
C107	C	1.218992	-0.168694	0.682495
H108	H	1.383685	-0.015326	0.542368
H109	H	1.500332	-0.162802	0.642869
H110	H	1.438309	-0.314020	0.768534
H111	H	1.259635	-0.317763	0.793702
H112	H	1.142988	-0.170287	0.693201
H113	H	0.894281	0.373804	0.595329
H114	H	1.237214	-0.059796	0.404756
H115	H	0.773547	0.349977	0.000037
H116	H	1.176263	0.017251	0.247227
