data_functionalizedCrystal
_audit_creation_method	'MofGen! by Chris Wilmer'
_symmetry_space_group_name_H-M	'P1'
_symmetry_Int_Tables_number	1
_symmetry_cell_setting	triclinic
loop_
_symmetry_equiv_pos_as_xyz
  x,y,z
_cell_length_a	12.759394
_cell_length_b	12.759395
_cell_length_c	17.077395
_cell_angle_alpha	89.984885
_cell_angle_beta	90.025055
_cell_angle_gamma	89.984599
loop_
_atom_site_label
_atom_site_type_symbol
_atom_site_fract_x
_atom_site_fract_y
_atom_site_fract_z
Zn1	Zn	-0.418264	-1.606193	0.443844
Zn2	Zn	-0.593961	-1.606106	0.312582
Zn3	Zn	-0.418298	-1.430514	0.312593
Zn4	Zn	-0.593903	-1.430484	0.443807
O5	O	-0.506106	-1.518324	0.378206
O6	O	-0.441580	-1.753203	0.426442
O7	O	-0.570697	-1.582789	0.202737
O8	O	-0.271272	-1.453867	0.330023
O9	O	-0.570664	-1.753138	0.330005
O10	O	-0.271247	-1.582938	0.426452
O11	O	-0.441638	-1.453782	0.202744
O12	O	-0.441582	-1.283489	0.329988
O13	O	-0.570566	-1.453816	0.553659
O14	O	-0.570599	-1.283466	0.426390
O15	O	-0.441524	-1.582909	0.553686
O16	O	-0.740974	-1.582760	0.329970
O17	O	-0.740932	-1.453731	0.426381
C18	C	-0.506089	-1.245357	0.378187
C19	C	-0.506107	-1.128580	0.378197
C20	C	-0.640669	-1.128596	0.478419
C21	C	-0.707957	-1.073743	0.528531
C22	C	-0.707968	-0.964021	0.528538
C23	C	-0.640681	-0.909150	0.478429
C24	C	-0.573393	-0.964003	0.428317
C25	C	-0.573391	-1.073727	0.428314
C26	C	-0.438827	-0.963987	0.328101
C27	C	-0.438820	-1.073709	0.328088
C28	C	-0.371540	-0.909116	0.277992
C29	C	-0.304255	-0.963969	0.227875
C30	C	-0.304248	-1.073697	0.227869
C31	C	-0.371531	-1.128562	0.277976
C32	C	-0.779074	-1.518261	0.378188
C33	C	-0.895850	-1.518330	0.378206
C34	C	-0.895841	-1.652789	0.277889
C35	C	-0.950697	-1.720045	0.227740
C36	C	-1.060419	-1.720107	0.227761
C37	C	-1.115287	-1.652907	0.277939
C38	C	-1.060431	-1.585650	0.328088
C39	C	-0.950707	-1.585594	0.328059
C40	C	-1.060440	-1.451199	0.428407
C41	C	-0.950718	-1.451130	0.428383
C42	C	-1.115308	-1.383999	0.478585
C43	C	-1.060452	-1.316735	0.528731
C44	C	-0.950724	-1.316675	0.528707
C45	C	-0.895862	-1.383873	0.478532
C46	C	-0.232073	-1.518416	0.378243
C47	C	-0.115296	-1.518455	0.378258
C48	C	-0.506035	-1.518369	0.582951
C49	C	-0.506005	-1.518388	0.670201
C50	C	-0.506120	-0.792357	0.378221
C51	C	-0.506115	-0.909134	0.378212
C52	C	-0.506102	-1.518340	0.174259
C53	C	-0.505836	-1.518524	0.087009
C54	C	-0.438670	-1.585724	1.046030
C55	C	-0.438707	-1.585702	0.964050
C56	C	-0.505905	-1.518475	0.923050
C57	C	-0.573079	-1.451272	0.964034
C58	C	-0.573046	-1.451300	1.046013
C59	C	-0.573139	-1.451218	0.793164
C60	C	-0.573170	-1.451189	0.711180
C61	C	-0.438800	-1.585620	0.711201
C62	C	-0.438768	-1.585648	0.793180
C63	C	-0.505940	-1.518443	0.834159
H64	H	-0.640674	-1.217937	0.478412
Cl65	Cl	-0.371532	-1.266498	0.277970
H66	H	-0.371549	-0.819775	0.278005
H67	H	-0.384016	-1.640426	0.930689
Cl68	Cl	-0.657489	-1.366818	1.097530
H69	H	-0.627797	-1.396539	0.930645
Cl70	Cl	-0.354176	-1.670232	1.097565
H71	H	-0.249471	-0.919284	0.187084
H72	H	-0.384044	-1.640386	0.826560
H73	H	-0.249446	-1.118352	0.187067
H74	H	-1.105134	-1.262031	0.569585
Cl75	Cl	-0.640682	-0.771213	0.478451
Cl76	Cl	-0.881771	-1.232125	0.591760
Cl77	Cl	-0.792549	-1.142728	0.591515
H78	H	-1.204628	-1.652972	0.277958
Cl79	Cl	-0.354385	-1.670136	0.659685
Cl80	Cl	-0.657656	-1.366679	0.659637
Cl81	Cl	-0.792554	-0.895060	0.591540
Cl82	Cl	-0.881716	-1.804526	0.164666
H83	H	-1.204649	-1.384058	0.478602
Cl84	Cl	-0.757905	-1.653011	0.278079
H85	H	-0.627841	-1.396496	0.826527
H86	H	-1.105082	-1.774878	0.186929
Cl87	Cl	-0.757926	-1.384110	0.478726
