data_functionalizedCrystal
_audit_creation_method	'MofGen! by Chris Wilmer'
_symmetry_space_group_name_H-M	'P1'
_symmetry_Int_Tables_number	1
_symmetry_cell_setting	triclinic
loop_
_symmetry_equiv_pos_as_xyz
  x,y,z
_cell_length_a	13.897449
_cell_length_b	18.101395
_cell_length_c	13.897441
_cell_angle_alpha	89.970274
_cell_angle_beta	89.981404
_cell_angle_gamma	90.032384
loop_
_atom_site_label
_atom_site_type_symbol
_atom_site_fract_x
_atom_site_fract_y
_atom_site_fract_z
Zn1	Zn	1.474592	-0.294788	-0.545380
Zn2	Zn	1.807926	0.038546	-0.212047
Zn3	Zn	2.141259	0.371879	0.121286
Zn4	Zn	1.474455	-0.418641	-0.384082
Zn5	Zn	1.807788	-0.085308	-0.050748
Zn6	Zn	2.141121	0.248025	0.282585
Zn7	Zn	1.313288	-0.294821	-0.384099
Zn8	Zn	1.646621	0.038512	-0.050766
Zn9	Zn	1.979954	0.371846	0.282568
Zn10	Zn	1.313225	-0.418595	-0.545334
Zn11	Zn	1.646559	-0.085261	-0.212001
Zn12	Zn	1.979892	0.248072	0.121332
O13	O	1.393890	-0.356711	-0.464724
O14	O	1.727223	-0.023378	-0.131390
O15	O	2.060557	0.309955	0.201943
O16	O	1.609556	-0.311223	-0.523996
O17	O	1.942889	0.022110	-0.190663
O18	O	2.276222	0.355444	0.142671
O19	O	1.453044	-0.402250	-0.249102
O20	O	1.786377	-0.068916	0.084231
O21	O	2.119710	0.264417	0.417565
O22	O	1.334769	-0.191184	-0.405520
O23	O	1.668102	0.142150	-0.072186
O24	O	2.001435	0.475483	0.261147
O25	O	1.609455	-0.402218	-0.405490
O26	O	1.942788	-0.068884	-0.072157
O27	O	2.276121	0.264449	0.261176
O28	O	1.453279	-0.191159	-0.524013
O29	O	1.786612	0.142174	-0.190679
O30	O	2.119945	0.475507	0.142654
O31	O	1.334635	-0.311279	-0.249115
O32	O	1.667968	0.022054	0.084218
O33	O	2.001302	0.355387	0.417552
O34	O	1.178298	-0.311234	-0.405475
O35	O	1.511631	0.022099	-0.072142
O36	O	1.844964	0.355432	0.261192
O37	O	1.334663	-0.402138	-0.680322
O38	O	1.667996	-0.068805	-0.346989
O39	O	2.001330	0.264528	-0.013655
O40	O	1.178252	-0.402170	-0.523934
O41	O	1.511585	-0.068837	-0.190600
O42	O	1.844919	0.264496	0.142733
O43	O	1.453218	-0.311178	-0.680356
O44	O	1.786552	0.022156	-0.347023
O45	O	2.119885	0.355489	-0.013689
O46	O	1.452984	-0.522268	-0.405445
O47	O	1.786317	-0.188935	-0.072112
O48	O	2.119650	0.144399	0.261221
O49	O	1.334529	-0.522234	-0.523917
O50	O	1.667863	-0.188901	-0.190584
O51	O	2.001196	0.144433	0.142750
C52	C	1.143276	-0.356701	-0.464702
C53	C	1.476609	-0.023368	-0.131368
C54	C	1.809942	0.309965	0.201965
C55	C	1.036062	-0.356715	-0.464715
C56	C	1.369395	-0.023382	-0.131382
C57	C	1.702728	0.309952	0.201951
C58	C	0.839767	-0.356718	-0.464741
C59	C	1.173100	-0.023384	-0.131407
C60	C	1.506433	0.309949	0.201926
C61	C	0.948999	-0.356714	-0.464724
C62	C	1.282332	-0.023381	-0.131390
C63	C	1.615666	0.309953	0.201943
C64	C	1.393761	-0.549122	-0.464695
C65	C	1.727094	-0.215789	-0.131362
C66	C	2.060428	0.117545	0.201971
C67	C	1.393794	-0.631436	-0.464716
C68	C	1.727127	-0.298103	-0.131382
C69	C	2.060461	0.035231	0.201951
C70	C	1.394006	-0.930527	-0.464767
C71	C	1.727339	-0.597193	-0.131434
C72	C	2.060672	-0.263860	0.201899
C73	C	1.319650	-0.899211	-0.539492
C74	C	1.652984	-0.565878	-0.206158
C75	C	1.986317	-0.232544	0.127175
C76	C	1.319297	-0.813593	-0.539258
C77	C	1.652630	-0.480260	-0.205925
C78	C	1.985964	-0.146926	0.127409
C79	C	1.393901	-0.782144	-0.464743
C80	C	1.727234	-0.448811	-0.131409
C81	C	2.060567	-0.115478	0.201924
C82	C	1.366379	-0.813299	-0.363084
C83	C	1.699712	-0.479966	-0.029750
C84	C	2.033045	-0.146633	0.303583
C85	C	1.365899	-0.898945	-0.363531
C86	C	1.699233	-0.565611	-0.030198
C87	C	2.032566	-0.232278	0.303136
C88	C	1.496046	-0.898868	-0.490807
C89	C	1.829379	-0.565535	-0.157474
C90	C	2.162713	-0.232201	0.175859
C91	C	1.495446	-0.813217	-0.493037
C92	C	1.828779	-0.479883	-0.159703
C93	C	2.162113	-0.146550	0.173630
C94	C	1.393843	-0.698285	-0.464722
C95	C	1.727176	-0.364952	-0.131389
C96	C	2.060510	-0.031618	0.201944
C97	C	1.394061	-1.014386	-0.464781
C98	C	1.727394	-0.681053	-0.131448
C99	C	2.060728	-0.347720	0.201886
C100	C	1.645483	-0.356722	-0.464746
C101	C	1.978816	-0.023388	-0.131413
C102	C	2.312150	0.309945	0.201920
C103	C	1.752697	-0.356726	-0.464756
C104	C	2.086030	-0.023393	-0.131423
C105	C	2.419364	0.309941	0.201911
C106	C	1.393949	-0.356649	-0.716317
C107	C	1.727282	-0.023316	-0.382984
C108	C	2.060616	0.310018	-0.049650
C109	C	1.393974	-0.356623	-0.823531
C110	C	1.727308	-0.023289	-0.490198
C111	C	2.060641	0.310044	-0.156864
C112	C	1.394046	-0.163549	-0.464773
C113	C	1.727379	0.169784	-0.131440
C114	C	2.060713	0.503117	0.201893
C115	C	1.394112	-0.081235	-0.464795
C116	C	1.727446	0.252098	-0.131461
C117	C	2.060779	0.585431	0.201872
C118	C	1.393994	-0.356602	-0.910601
C119	C	1.727327	-0.023268	-0.577267
C120	C	2.060661	0.310065	-0.243934
C121	C	1.394022	-0.356568	-1.019833
C122	C	1.727355	-0.023235	-0.686500
C123	C	2.060688	0.310098	-0.353167
C124	C	1.393887	-0.356720	-0.214109
C125	C	1.727220	-0.023386	0.119224
C126	C	2.060553	0.309947	0.452557
C127	C	1.394048	-0.356538	-0.106896
C128	C	1.727382	-0.023204	0.226437
C129	C	2.060715	0.310129	0.559771
H130	H	1.336699	-0.919756	-0.615115
H131	H	1.670032	-0.586423	-0.281781
H132	H	2.003365	-0.253089	0.051552
N133	N	1.267097	-0.925507	-0.334324
N134	N	1.600431	-0.592174	-0.000990
N135	N	1.933764	-0.258841	0.332343
H136	H	1.272315	-0.956615	-0.274200
H137	H	1.605648	-0.623281	0.059133
H138	H	1.938981	-0.289948	0.392467
H139	H	1.224315	-0.881544	-0.321330
H140	H	1.557649	-0.548211	0.012004
H141	H	1.890982	-0.214878	0.345337
N142	N	1.268614	-0.784991	-0.333344
N143	N	1.601947	-0.451657	-0.000010
N144	N	1.935281	-0.118324	0.333323
H145	H	1.251545	-0.805347	-0.267843
H146	H	1.584878	-0.472013	0.065491
H147	H	1.918211	-0.138680	0.398824
H148	H	1.270018	-0.729249	-0.330545
H149	H	1.603351	-0.395915	0.002788
H150	H	1.936685	-0.062582	0.336122
N151	N	1.572719	-0.784854	-0.426209
N152	N	1.906052	-0.451521	-0.092876
N153	N	2.239385	-0.118187	0.240458
H154	H	1.542862	-0.751314	-0.376420
H155	H	1.876195	-0.417980	-0.043087
H156	H	2.209529	-0.084647	0.290247
H157	H	1.604854	-0.827936	-0.393057
H158	H	1.938187	-0.494602	-0.059724
H159	H	2.271521	-0.161269	0.273610
H160	H	1.417707	-0.919663	-0.305957
H161	H	1.751040	-0.586330	0.027376
H162	H	2.084374	-0.252996	0.360709
N163	N	1.529291	-0.927404	-0.587324
N164	N	1.862625	-0.594071	-0.253991
N165	N	2.195958	-0.260737	0.079343
H166	H	1.478537	-0.961149	-0.615148
H167	H	1.811870	-0.627815	-0.281815
H168	H	2.145204	-0.294482	0.051518
H169	H	1.540276	-0.884415	-0.632368
H170	H	1.873609	-0.551081	-0.299035
H171	H	2.206942	-0.217748	0.034298
N172	N	1.220067	-0.927794	-0.516935
N173	N	1.553400	-0.594461	-0.183602
N174	N	1.886733	-0.261128	0.149731
H175	H	1.194842	-0.956765	-0.573675
H176	H	1.528176	-0.623432	-0.240342
H177	H	1.861509	-0.290098	0.092991
H178	H	1.222984	-0.960911	-0.458501
H179	H	1.556317	-0.627578	-0.125168
H180	H	1.889651	-0.294244	0.208166
H181	H	1.551443	-0.919119	-0.436383
H182	H	1.884777	-0.585785	-0.103050
H183	H	2.218110	-0.252452	0.230284
H184	H	1.516200	-0.792851	-0.567852
H185	H	1.849534	-0.459518	-0.234519
H186	H	2.182867	-0.126184	0.098815
N187	N	1.219115	-0.786534	-0.516404
N188	N	1.552449	-0.453200	-0.183070
N189	N	1.885782	-0.119867	0.150263
H190	H	1.175013	-0.830242	-0.506436
H191	H	1.508346	-0.496908	-0.173103
H192	H	1.841679	-0.163575	0.160230
H193	H	1.220848	-0.755681	-0.455898
H194	H	1.554181	-0.422348	-0.122565
H195	H	1.887515	-0.089014	0.210768
N196	N	1.342094	-0.785679	-0.639104
N197	N	1.675428	-0.452345	-0.305771
N198	N	2.008761	-0.119012	0.027563
H199	H	1.407651	-0.804086	-0.659296
H200	H	1.740984	-0.470752	-0.325963
H201	H	2.074318	-0.137419	0.007370
H202	H	1.291943	-0.804377	-0.685704
H203	H	1.625276	-0.471044	-0.352371
H204	H	1.958609	-0.137711	-0.019038
H205	H	1.418832	-0.792930	-0.305891
H206	H	1.752165	-0.459597	0.027443
H207	H	2.085498	-0.126263	0.360776
