data_functionalizedCrystal
_audit_creation_method	'MofGen! by Chris Wilmer'
_symmetry_space_group_name_H-M	'P1'
_symmetry_Int_Tables_number	1
_symmetry_cell_setting	triclinic
loop_
_symmetry_equiv_pos_as_xyz
  x,y,z
_cell_length_a	12.759399
_cell_length_b	12.759401
_cell_length_c	12.759393
_cell_angle_alpha	90.022497
_cell_angle_beta	89.969094
_cell_angle_gamma	89.984062
loop_
_atom_site_label
_atom_site_type_symbol
_atom_site_fract_x
_atom_site_fract_y
_atom_site_fract_z
Zn1	Zn	-0.418192	-1.606263	-0.594061
Zn2	Zn	-0.593908	-1.606153	-0.418380
Zn3	Zn	-0.418246	-1.430562	-0.418391
Zn4	Zn	-0.593832	-1.430553	-0.594012
O5	O	-0.506045	-1.518383	-0.506211
O6	O	-0.441511	-1.753270	-0.570772
O7	O	-0.570660	-1.582818	-0.271360
O8	O	-0.271218	-1.453919	-0.441719
O9	O	-0.570608	-1.753189	-0.441700
O10	O	-0.271178	-1.583006	-0.570783
O11	O	-0.441602	-1.453812	-0.271369
O12	O	-0.441529	-1.283540	-0.441672
O13	O	-0.570479	-1.453903	-0.741040
O14	O	-0.570531	-1.283533	-0.570700
O15	O	-0.441437	-1.582997	-0.741075
O16	O	-0.740919	-1.582809	-0.441652
O17	O	-0.740863	-1.453796	-0.570689
C18	C	-0.506029	-1.245415	-0.506183
C19	C	-0.506047	-1.128639	-0.506195
C20	C	-0.573320	-1.073801	-0.573273
C21	C	-0.573323	-0.964077	-0.573291
C22	C	-0.438776	-0.964038	-0.439145
C23	C	-0.438769	-1.073760	-0.439133
C24	C	-0.779012	-1.518318	-0.506187
C25	C	-0.895789	-1.518387	-0.506212
C26	C	-0.950645	-1.585641	-0.439099
C27	C	-1.060369	-1.585708	-0.439134
C28	C	-1.060371	-1.451259	-0.573398
C29	C	-0.950649	-1.451198	-0.573368
C30	C	-0.232011	-1.518476	-0.506258
C31	C	-0.115235	-1.518516	-0.506278
C32	C	-0.505944	-1.518461	-0.780244
C33	C	-0.505901	-1.518495	-0.897021
C34	C	-0.506059	-0.792416	-0.506233
C35	C	-0.506057	-0.909193	-0.506225
C36	C	-0.438698	-1.585719	-0.951903
C37	C	-0.438653	-1.585737	-1.061628
C38	C	-0.573022	-1.451303	-1.061577
C39	C	-0.573061	-1.451281	-0.951855
C40	C	-0.506069	-1.518365	-0.233244
C41	C	-0.505816	-1.518535	-0.116467
H42	H	-0.383981	-1.118411	-0.384510
C43	C	-1.120718	-1.377345	-0.647260
C44	C	-1.105528	-1.385850	-0.766699
C45	C	-1.165871	-1.311931	-0.840561
C46	C	-1.241403	-1.229507	-0.794982
C47	C	-1.256595	-1.220998	-0.675536
C48	C	-1.196253	-1.294918	-0.601675
H49	H	-1.049612	-1.446868	-0.800445
H50	H	-1.154623	-1.318229	-0.928983
H51	H	-1.286072	-1.174787	-0.849659
H52	H	-1.312512	-1.159980	-0.641791
H53	H	-1.207500	-1.288619	-0.513253
H54	H	-0.627785	-1.396532	-0.907169
H55	H	-0.905980	-1.640352	-0.384418
H56	H	-0.905982	-1.396432	-0.628024
C57	C	-0.647315	-1.134169	-0.647048
C58	C	-0.766742	-1.119050	-0.638275
C59	C	-0.840736	-1.179414	-0.712054
C60	C	-0.795304	-1.254898	-0.794607
C61	C	-0.675871	-1.270021	-0.803384
C62	C	-0.601876	-1.209656	-0.729604
H63	H	-0.800379	-1.063169	-0.577161
H64	H	-0.929148	-1.168219	-0.705557
H65	H	-0.850079	-1.299584	-0.849223
H66	H	-0.642233	-1.325902	-0.864498
H67	H	-0.513464	-1.220851	-0.736102
C68	C	-0.647328	-0.903754	-0.647073
C69	C	-0.601911	-0.828379	-0.729652
C70	C	-0.675919	-0.768055	-0.803438
C71	C	-0.795344	-0.783107	-0.794646
C72	C	-0.840767	-0.858486	-0.712064
C73	C	-0.766759	-0.918809	-0.638278
H74	H	-0.513500	-0.817233	-0.736164
H75	H	-0.642293	-0.712255	-0.864571
H76	H	-0.850129	-0.738453	-0.849267
H77	H	-0.929177	-0.869631	-0.705552
H78	H	-0.800385	-0.974609	-0.577145
H79	H	-1.105028	-1.640474	-0.384486
C80	C	-0.364815	-1.659643	-0.891584
C81	C	-0.245374	-1.651110	-0.906689
C82	C	-0.171486	-1.725033	-0.846373
C83	C	-0.217040	-1.807490	-0.770952
C84	C	-0.336488	-1.816027	-0.755843
C85	C	-0.410376	-1.742104	-0.816159
H86	H	-0.211646	-1.590067	-0.962524
H87	H	-0.083063	-1.718713	-0.857558
H88	H	-0.162344	-1.862213	-0.726302
H89	H	-0.370216	-1.877070	-0.700008
H90	H	-0.498799	-1.748424	-0.804974
C91	C	-0.364730	-1.659686	-1.121998
C92	C	-0.290857	-1.733613	-1.061678
C93	C	-0.216929	-1.807564	-1.122048
C94	C	-0.216873	-1.807588	-1.242738
C95	C	-0.290748	-1.733659	-1.303065
C96	C	-0.364676	-1.659708	-1.242695
H97	H	-0.290896	-1.733598	-0.972330
H98	H	-0.162241	-1.862292	-1.077390
H99	H	-0.162146	-1.862331	-1.287428
H100	H	-0.290709	-1.733674	-1.392413
H101	H	-0.419364	-1.604980	-1.287354
H102	H	-0.384003	-0.919343	-0.384543
H103	H	-0.627704	-1.396583	-1.106237
