data_functionalizedCrystal
_audit_creation_method	'MofGen! by Chris Wilmer'
_symmetry_space_group_name_H-M	'P1'
_symmetry_Int_Tables_number	1
_symmetry_cell_setting	triclinic
loop_
_symmetry_equiv_pos_as_xyz
  x,y,z
_cell_length_a	14.044220
_cell_length_b	14.853567
_cell_length_c	13.330367
_cell_angle_alpha	90.004582
_cell_angle_beta	89.994700
_cell_angle_gamma	91.588096
loop_
_atom_site_label
_atom_site_type_symbol
_atom_site_fract_x
_atom_site_fract_y
_atom_site_fract_z
O1	O	0.123767	-1.206175	-0.083357
O2	O	0.623767	-0.706175	0.416643
O3	O	0.138510	-0.944883	-0.083374
O4	O	0.638510	-0.444883	0.416626
O5	O	-0.006851	-1.071607	-0.083356
O6	O	0.493149	-0.571607	0.416644
O7	O	0.269128	-1.079451	-0.083375
O8	O	0.769128	-0.579451	0.416625
O9	O	-0.006854	-1.071587	0.083491
O10	O	0.493146	-0.571587	0.583491
O11	O	0.138507	-0.944863	0.083473
O12	O	0.638507	-0.444863	0.583473
O13	O	0.123764	-1.206154	0.083490
O14	O	0.623764	-0.706154	0.583490
Cu15	Cu	0.131135	-1.075507	0.098716
Cu16	Cu	0.631135	-0.575507	0.598716
Cu17	Cu	0.131139	-1.075531	-0.098600
Cu18	Cu	0.631139	-0.575531	0.401400
O19	O	0.269125	-1.079431	0.083472
O20	O	0.769125	-0.579431	0.583472
C21	C	0.137841	-0.911231	0.000047
C22	C	0.637841	-0.411231	0.500047
C23	C	0.135839	-0.810989	0.000041
C24	C	0.635839	-0.310989	0.500041
C25	C	-0.042172	-1.068163	0.000068
C26	C	0.457828	-0.568163	0.500068
C27	C	-0.147411	-1.057921	0.000069
C28	C	0.352589	-0.557921	0.500069
C29	C	0.124433	-1.239806	0.000067
C30	C	0.624433	-0.739806	0.500067
C31	C	0.126435	-1.340048	0.000067
C32	C	0.626435	-0.840048	0.500067
C33	C	-0.340097	-1.039197	0.000053
C34	C	0.159903	-0.539197	0.500053
C35	C	-0.397635	-1.111836	0.000055
C36	C	0.102365	-0.611836	0.500055
C37	C	-0.504852	-1.101418	0.000046
C38	C	-0.004852	-0.601418	0.500046
C39	C	-0.232870	-1.049614	0.000062
C40	C	0.267130	-0.549614	0.500062
C41	C	0.304446	-1.082874	0.000046
C42	C	0.804446	-0.582874	0.500046
C43	C	0.409685	-1.093116	0.000039
C44	C	0.909685	-0.593116	0.500039
N45	N	0.131132	-1.075496	0.237498
N46	N	0.631132	-0.575496	0.737498
C47	C	0.041029	-0.390944	0.000070
C48	C	0.541029	0.109056	0.500070
C49	C	0.213721	-0.383345	0.000057
C50	C	0.713721	0.116655	0.500057
C51	C	0.215604	-0.477528	0.000054
C52	C	0.715604	0.022472	0.500054
C53	C	0.130197	-0.528423	0.000057
C54	C	0.630197	-0.028423	0.500057
C55	C	0.042908	-0.485135	0.000064
C56	C	0.542908	0.014865	0.500064
C57	C	0.302891	-0.520822	0.000037
C58	C	0.802891	-0.020822	0.500037
C59	C	0.304777	-0.615011	0.000032
C60	C	0.804777	-0.115011	0.500032
C61	C	0.219369	-0.665908	0.000043
C62	C	0.719369	-0.165908	0.500043
C63	C	0.132077	-0.622615	0.000051
C64	C	0.632077	-0.122615	0.500051
C65	C	0.046670	-0.673510	0.000054
C66	C	0.546670	-0.173510	0.500054
C67	C	-0.040623	-0.630218	0.000069
C68	C	0.459377	-0.130218	0.500069
C69	C	-0.042499	-0.536032	0.000074
C70	C	0.457501	-0.036032	0.500074
C71	C	0.221246	-0.760094	0.000038
C72	C	0.721246	-0.260094	0.500038
C73	C	0.048550	-0.767702	0.000048
C74	C	0.548550	-0.267702	0.500048
N75	N	0.131135	-1.075548	-0.237381
N76	N	0.631135	-0.575548	0.262619
C77	C	0.195480	-1.019413	0.710112
C78	C	0.695480	-0.519413	1.210112
C79	C	0.066791	-1.131672	0.710097
C80	C	0.566791	-0.631672	1.210097
C81	C	0.066788	-1.131662	0.605078
C82	C	0.566788	-0.631662	1.105078
C83	C	0.131133	-1.075527	0.552572
C84	C	0.631133	-0.575527	1.052572
C85	C	0.195481	-1.019403	0.605084
C86	C	0.695481	-0.519403	1.105084
C87	C	0.002448	-1.187792	0.552558
C88	C	0.502448	-0.687792	1.052558
C89	C	0.002443	-1.187785	0.447534
C90	C	0.502443	-0.687785	0.947534
C91	C	0.066784	-1.131644	0.395025
C92	C	0.566784	-0.631644	0.895025
C93	C	0.131134	-1.075517	0.447544
C94	C	0.631134	-0.575517	0.947544
C95	C	0.195479	-1.019382	0.395038
C96	C	0.695479	-0.519382	0.895038
C97	C	0.259825	-0.963249	0.447555
C98	C	0.759825	-0.463249	0.947555
C99	C	0.259822	-0.963262	0.552576
C100	C	0.759822	-0.463262	1.052576
C101	C	0.066787	-1.131631	0.290004
C102	C	0.566787	-0.631631	0.790004
C103	C	0.195480	-1.019372	0.290010
C104	C	0.695480	-0.519372	0.790010
H105	H	-0.366371	-1.181849	-0.000008
H106	H	0.133629	-0.681849	0.499992
F107	F	0.263955	-0.959671	0.766002
F108	F	0.763955	-0.459671	1.266002
H109	H	-0.021000	-0.809134	0.000054
H110	H	0.479000	-0.309134	0.500054
F111	F	-0.001681	-1.191418	0.765977
F112	F	0.498319	-0.691418	1.265977
H113	H	-0.371358	-0.969191	0.000046
H114	H	0.128642	-0.469191	0.500046
H115	H	0.292318	-0.795338	0.000027
H116	H	0.792318	-0.295338	0.500027
F117	F	-0.131516	-0.684395	0.000065
F118	F	0.368484	-0.184395	0.500065
H119	H	-0.113569	-0.500776	0.000110
H120	H	0.386431	-0.000776	0.500110
H121	H	-0.030044	-0.355691	0.000086
H122	H	0.469956	0.144309	0.500086
F123	F	0.304612	-0.329177	0.000041
F124	F	0.804612	0.170823	0.500041
F125	F	0.328309	-0.903514	0.391663
F126	F	0.828309	-0.403514	0.891663
F127	F	0.393780	-0.466652	0.000019
F128	F	0.893780	0.033348	0.500019
H129	H	0.375856	-0.650251	0.000020
H130	H	0.875856	-0.150251	0.500020
H131	H	0.247874	-0.973656	0.247266
H132	H	0.747874	-0.473656	0.747266
F133	F	0.328300	-0.903528	0.608472
F134	F	0.828300	-0.403528	1.108472
F135	F	-0.066040	-1.247522	0.391649
F136	F	0.433960	-0.747522	0.891649
H137	H	-0.049936	-1.233500	0.595312
H138	H	0.450064	-0.733500	1.095312
H139	H	0.014402	-1.177338	0.247250
H140	H	0.514402	-0.677338	0.747250
