data_functionalizedCrystal
_audit_creation_method	'MofGen! by Chris Wilmer'
_symmetry_space_group_name_H-M	'P1'
_symmetry_Int_Tables_number	1
_symmetry_cell_setting	triclinic
loop_
_symmetry_equiv_pos_as_xyz
  x,y,z
_cell_length_a	14.044220
_cell_length_b	13.101039
_cell_length_c	14.971486
_cell_angle_alpha	86.633875
_cell_angle_beta	88.401503
_cell_angle_gamma	93.659868
loop_
_atom_site_label
_atom_site_type_symbol
_atom_site_fract_x
_atom_site_fract_y
_atom_site_fract_z
O1	O	1.263154	0.085106	0.211146
O2	O	1.596487	0.418440	0.544480
O3	O	1.929820	0.751773	0.877813
O4	O	0.987177	0.085132	0.203363
O5	O	1.320511	0.418466	0.536696
O6	O	1.653844	0.751799	0.870029
O7	O	1.132562	0.085111	0.077637
O8	O	1.465895	0.418445	0.410971
O9	O	1.799229	0.751778	0.744304
O10	O	1.117769	0.085127	0.336871
O11	O	1.451102	0.418461	0.670205
O12	O	1.784436	0.751794	1.003538
O13	O	1.122131	-0.085317	0.086674
O14	O	1.455464	0.248016	0.420008
O15	O	1.788798	0.581350	0.753341
O16	O	0.976746	-0.085296	0.212400
O17	O	1.310080	0.248037	0.545733
O18	O	1.643413	0.581371	0.879066
O19	O	1.252723	-0.085322	0.220183
O20	O	1.586056	0.248011	0.553516
O21	O	1.919389	0.581345	0.886850
Zn22	Zn	1.113078	-0.112368	0.217726
Zn23	Zn	1.446412	0.220965	0.551059
Zn24	Zn	1.779745	0.554298	0.884393
Zn25	Zn	1.126822	0.112178	0.205820
Zn26	Zn	1.460155	0.445512	0.539153
Zn27	Zn	1.793488	0.778845	0.872486
O28	O	1.107338	-0.085301	0.345908
O29	O	1.440671	0.248032	0.679242
O30	O	1.774005	0.581366	1.012575
C31	C	0.946644	-0.000079	0.204474
C32	C	1.279977	0.333255	0.537808
C33	C	1.613310	0.666588	0.871141
C34	C	0.841407	-0.000069	0.194313
C35	C	1.174740	0.333264	0.527646
C36	C	1.508074	0.666598	0.860979
N37	N	1.103706	-0.265615	0.225852
N38	N	1.437039	0.067718	0.559185
N39	N	1.770372	0.401051	0.892519
C40	C	1.090954	-0.474656	0.236916
C41	C	1.424287	-0.141323	0.570249
C42	C	1.757620	0.192010	0.903583
C43	C	1.148951	-0.525540	0.186626
C44	C	1.482284	-0.192207	0.519959
C45	C	1.815617	0.141126	0.853293
C46	C	1.141855	-0.641858	0.192782
C47	C	1.475189	-0.308524	0.526115
C48	C	1.808522	0.024809	0.859449
C49	C	1.098048	-0.358328	0.230761
C50	C	1.431381	-0.024995	0.564094
C51	C	1.764714	0.308338	0.897428
C52	C	0.648723	-0.000090	0.175737
C53	C	0.982057	0.333243	0.509071
C54	C	1.315390	0.666576	0.842404
C55	C	0.591172	-0.000090	0.247804
C56	C	0.924505	0.333243	0.581137
C57	C	1.257838	0.666576	0.914471
C58	C	0.483956	-0.000102	0.237468
C59	C	0.817289	0.333231	0.570802
C60	C	1.150623	0.666564	0.904135
C61	C	0.755949	-0.000079	0.186072
C62	C	1.089282	0.333255	0.519405
C63	C	1.422616	0.666588	0.852738
C64	C	1.293256	-0.000109	0.219071
C65	C	1.626590	0.333224	0.552405
C66	C	1.959923	0.666558	0.885738
C67	C	1.398494	-0.000112	0.229233
C68	C	1.731827	0.333221	0.562566
C69	C	2.065160	0.666555	0.895899
C70	C	1.126685	-0.000103	0.048779
C71	C	1.460018	0.333231	0.382112
C72	C	1.793352	0.666564	0.715446
C73	C	1.124702	-0.000101	-0.050674
C74	C	1.458036	0.333232	0.282659
C75	C	1.791369	0.666565	0.615992
N76	N	1.136202	0.265426	0.197687
N77	N	1.469535	0.598759	0.531021
N78	N	1.802869	0.932092	0.864354
C79	C	1.210112	-0.000110	-0.101171
C80	C	1.543445	0.333223	0.232163
C81	C	1.876779	0.666556	0.565496
C82	C	1.208244	-0.000100	-0.194618
C83	C	1.541577	0.333234	0.138715
C84	C	1.874911	0.666567	0.472049
C85	C	1.120965	-0.000088	-0.237567
C86	C	1.454298	0.333246	0.095767
C87	C	1.787632	0.666579	0.429100
C88	C	1.035549	-0.000076	-0.187063
C89	C	1.368882	0.333257	0.146270
C90	C	1.702216	0.666591	0.479603
C91	C	1.037418	-0.000079	-0.093618
C92	C	1.370752	0.333254	0.239715
C93	C	1.704085	0.666588	0.573048
C94	C	1.031658	-0.000072	-0.381833
C95	C	1.364992	0.333261	-0.048499
C96	C	1.698325	0.666595	0.284834
C97	C	1.029788	-0.000071	-0.475284
C98	C	1.363122	0.333263	-0.141951
C99	C	1.696455	0.666596	0.191383
C100	C	1.202484	-0.000092	-0.482832
C101	C	1.535818	0.333241	-0.149499
C102	C	1.869151	0.666574	0.183835
C103	C	1.204354	-0.000096	-0.389387
C104	C	1.537687	0.333238	-0.056054
C105	C	1.871020	0.666571	0.277280
C106	C	1.118937	-0.000086	-0.338890
C107	C	1.452270	0.333248	-0.005557
C108	C	1.785604	0.666581	0.327776
C109	C	1.113215	-0.000085	0.374767
C110	C	1.446549	0.333248	0.708100
C111	C	1.779882	0.666582	1.041433
C112	C	1.115198	-0.000079	0.474220
C113	C	1.448532	0.333254	0.807553
C114	C	1.781865	0.666587	1.140886
H115	H	1.035976	-0.518445	0.284591
H116	H	1.369310	-0.185112	0.617924
H117	H	1.702643	0.148221	0.951258
O118	O	1.221785	-0.467543	0.123469
O119	O	1.555118	-0.134210	0.456803
O120	O	1.888452	0.199124	0.790136
H121	H	1.216006	-0.383960	0.128486
H122	H	1.549340	-0.050626	0.461820
H123	H	1.882673	0.282707	0.795153
O124	O	1.294619	-0.000101	-0.537285
O125	O	1.627952	0.333232	-0.203952
O126	O	1.961286	0.666566	0.129381
H127	H	1.302164	0.069370	-0.583710
H128	H	1.635497	0.402704	-0.250377
H129	H	1.968830	0.736037	0.082956
O130	O	0.632567	-0.000073	0.339812
O131	O	0.965900	0.333260	0.673145
O132	O	1.299234	0.666593	1.006479
H133	H	0.604045	-0.069539	0.380344
H134	H	0.937378	0.263794	0.713677
H135	H	1.270711	0.597127	1.047010
O136	O	0.607341	-0.000096	0.083730
O137	O	0.940675	0.333238	0.417063
O138	O	1.274008	0.666571	0.750397
H139	H	0.528403	-0.000094	0.089949
H140	H	0.861736	0.333239	0.423282
H141	H	1.195069	0.666572	0.756616
O142	O	0.945293	-0.000080	-0.039154
O143	O	1.278627	0.333253	0.294179
O144	O	1.611960	0.666587	0.627512
H145	H	0.946260	0.069387	-0.000085
H146	H	1.279593	0.402721	0.333249
H147	H	1.612926	0.736054	0.666582
H148	H	1.277793	-0.000109	-0.235728
H149	H	1.611127	0.333224	0.097605
H150	H	1.944460	0.666558	0.430939
H151	H	1.281184	-0.000126	-0.066209
H152	H	1.614518	0.333207	0.267125
H153	H	1.947851	0.666540	0.600458
H154	H	1.275424	-0.000113	-0.354421
H155	H	1.608757	0.333221	-0.021087
H156	H	1.942090	0.666554	0.312246
O157	O	0.935656	-0.000040	-0.521614
O158	O	1.268990	0.333293	-0.188281
O159	O	1.602323	0.666626	0.145052
H160	H	0.876575	-0.000015	-0.470805
H161	H	1.209909	0.333319	-0.137472
H162	H	1.543242	0.666652	0.195862
H163	H	0.962103	-0.000061	-0.340721
H164	H	1.295436	0.333272	-0.007388
H165	H	1.628770	0.666605	0.325946
O166	O	0.941411	-0.000075	-0.233385
O167	O	1.274744	0.333258	0.099948
O168	O	1.608077	0.666592	0.433281
H169	H	0.940679	0.069382	-0.279467
H170	H	1.274013	0.402715	0.053866
H171	H	1.607346	0.736049	0.387199
