data_functionalizedCrystal
_audit_creation_method	'MofGen! by Chris Wilmer'
_symmetry_space_group_name_H-M	'P1'
_symmetry_Int_Tables_number	1
_symmetry_cell_setting	triclinic
loop_
_symmetry_equiv_pos_as_xyz
  x,y,z
_cell_length_a	10.489741
_cell_length_b	22.010155
_cell_length_c	10.489741
_cell_angle_alpha	89.995414
_cell_angle_beta	84.539174
_cell_angle_gamma	90.005851
loop_
_atom_site_label
_atom_site_type_symbol
_atom_site_fract_x
_atom_site_fract_y
_atom_site_fract_z
O1	O	1.694063	0.050487	0.179950
O2	O	1.322867	0.050497	0.196843
O3	O	1.516911	0.050488	0.002799
O4	O	1.500019	0.050496	0.373995
O5	O	1.516876	-0.050562	0.002828
O6	O	1.322832	-0.050554	0.196872
O7	O	1.694028	-0.050563	0.179979
Cu8	Cu	1.508426	-0.059785	0.188428
Cu9	Cu	1.508468	0.059719	0.188394
O10	O	1.499983	-0.050555	0.374024
C11	C	1.275318	-0.000027	0.195582
C12	C	1.133688	-0.000024	0.191765
N13	N	1.508406	-0.143838	0.188452
C14	C	1.065548	-0.000032	0.068300
C15	C	0.973439	0.049791	0.126609
C16	C	0.973438	-0.049837	0.126667
C17	C	1.043444	0.049840	0.250125
C18	C	1.043453	-0.049832	0.250165
C19	C	0.951371	0.000003	0.308564
C20	C	1.594396	-0.563621	0.102484
C21	C	1.594402	-0.627228	0.102475
O22	O	1.667463	-0.660123	0.029398
N23	N	1.508467	-0.659045	0.188367
C24	C	1.422512	-0.627250	0.274265
O25	O	1.349418	-0.660153	0.347322
C26	C	1.422501	-0.563644	0.274267
C27	C	1.508450	-0.531831	0.188378
C28	C	1.680337	-0.531808	0.016600
C29	C	1.680333	-0.468204	0.016611
C30	C	1.594387	-0.436414	0.102505
C31	C	1.508446	-0.468227	0.188388
C32	C	1.336541	-0.531850	0.360158
C33	C	1.336537	-0.468240	0.360151
C34	C	1.422486	-0.436426	0.274262
C35	C	1.422496	-0.372834	0.274293
N36	N	1.508430	-0.341018	0.188400
C37	C	1.594376	-0.372808	0.102506
C38	C	1.422540	-0.760828	0.274254
C39	C	1.422556	-0.824433	0.274260
C40	C	1.594445	-0.824407	0.102467
C41	C	1.594434	-0.760801	0.102469
C42	C	1.508475	-0.729012	0.188362
C43	C	1.594361	-0.239237	0.102536
C44	C	1.594352	-0.175628	0.102558
C45	C	1.422460	-0.175659	0.274345
C46	C	1.422472	-0.239263	0.274328
C47	C	1.508428	-0.271050	0.188413
O48	O	1.349469	-0.339899	0.347329
O49	O	1.667447	-0.339897	0.029451
C50	C	1.741577	-0.000038	0.181241
C51	C	1.883206	-0.000037	0.185058
C52	C	1.515618	-0.000037	-0.044718
C53	C	1.511801	-0.000036	-0.186348
N54	N	1.508498	0.143771	0.188361
C55	C	1.388336	-0.000028	-0.254488
C56	C	1.446642	-0.049852	-0.346596
C57	C	1.446706	0.049775	-0.346599
C58	C	1.570158	-0.049901	-0.276591
C59	C	1.570205	0.049771	-0.276584
C60	C	1.628600	-0.000065	-0.368665
C61	C	1.501277	-0.000028	0.421541
C62	C	1.505094	-0.000026	0.563170
H63	H	0.942439	0.091911	0.074356
H64	H	1.622338	-0.092071	-0.245746
C65	C	1.687519	-0.141166	0.009008
C66	C	1.665572	-0.156676	-0.116492
C67	C	1.751355	-0.124959	-0.202740
H68	H	1.772828	-0.151576	0.023493
H69	H	1.675269	-0.098716	0.021136
H70	H	1.677832	-0.199116	-0.128615
H71	H	1.580279	-0.146264	-0.131018
H72	H	1.739105	-0.082508	-0.190611
H73	H	1.836659	-0.135371	-0.188243
H74	H	1.736467	-0.135473	-0.287901
H75	H	1.664425	-0.850302	0.032526
C76	C	1.329106	-0.858859	0.367577
C77	C	1.253823	-0.817397	0.442773
C78	C	1.167703	-0.849085	0.528736
H79	H	1.375322	-0.883675	0.421248
H80	H	1.275516	-0.883658	0.321201
H81	H	1.307406	-0.792608	0.489145
H82	H	1.207579	-0.792579	0.389138
H83	H	1.114113	-0.873884	0.482361
H84	H	1.213930	-0.873900	0.582398
H85	H	1.116605	-0.820957	0.579759
C86	C	1.243266	-0.433617	0.453273
C87	C	1.261625	-0.371103	0.434886
C88	C	1.175720	-0.339191	0.520636
H89	H	1.257810	-0.443975	0.538597
H90	H	1.157986	-0.444012	0.438569
H91	H	1.346885	-0.360712	0.449600
H92	H	1.247070	-0.360727	0.349580
H93	H	1.090440	-0.349586	0.505932
H94	H	1.190271	-0.349554	0.605955
H95	H	1.188157	-0.296772	0.508165
C96	C	1.687812	-0.726210	0.009374
C97	C	1.766542	-0.689674	0.078018
C98	C	1.852553	-0.657801	-0.007721
H99	H	1.641509	-0.701366	-0.044167
H100	H	1.739075	-0.754222	-0.041798
H101	H	1.715284	-0.661666	0.129169
H102	H	1.812873	-0.714503	0.131556
H103	H	1.903817	-0.685813	-0.058893
H104	H	1.806239	-0.632961	-0.061258
H105	H	1.905989	-0.633012	0.038841
H106	H	1.750316	-0.442306	-0.053331
C107	C	1.329427	-0.726240	0.367600
C108	C	1.398081	-0.689712	0.446335
C109	C	1.312350	-0.657840	0.532328
H110	H	1.278223	-0.754233	0.418873
H111	H	1.275915	-0.701393	0.321242
H112	H	1.451571	-0.714557	0.492689
H113	H	1.449281	-0.661708	0.395097
H114	H	1.258838	-0.632993	0.485970
H115	H	1.261151	-0.685837	0.583592
H116	H	1.358919	-0.633048	0.585752
H117	H	1.352497	-0.265165	0.344280
C118	C	1.329297	-0.141168	0.367800
C119	C	1.351133	-0.156627	0.493361
C120	C	1.265341	-0.124857	0.579479
H121	H	1.243989	-0.151568	0.353279
H122	H	1.341616	-0.098725	0.355579
H123	H	1.338803	-0.199060	0.505578
H124	H	1.436424	-0.146224	0.507923
H125	H	1.277659	-0.082414	0.567257
H126	H	1.180038	-0.135260	0.564946
H127	H	1.280152	-0.135337	0.664681
C128	C	0.932162	-0.106077	0.057221
C129	C	0.969323	-0.158124	0.120925
C130	C	0.931313	-0.209940	0.056988
H131	H	0.971603	-0.106100	-0.028132
H132	H	0.841716	-0.105903	0.056012
H133	H	1.059752	-0.158299	0.122120
H134	H	0.929886	-0.158122	0.206274
H135	H	0.840867	-0.209765	0.055779
H136	H	0.970757	-0.209956	-0.028363
H137	H	0.956510	-0.245260	0.100209
C138	C	1.764098	-0.000228	-0.434513
C139	C	1.828109	-0.052489	-0.399010
C140	C	1.952922	-0.052667	-0.459659
H141	H	1.808454	0.034787	-0.409531
H142	H	1.760983	0.000075	-0.524732
H143	H	1.831230	-0.052787	-0.308811
H144	H	1.783791	-0.087512	-0.423993
H145	H	1.949807	-0.052363	-0.549878
H146	H	1.997266	-0.017649	-0.434672
H147	H	1.996365	-0.088127	-0.435588
C148	C	1.687480	-0.273776	0.009115
C149	C	1.618838	-0.310280	-0.069675
C150	C	1.704579	-0.342100	-0.155753
H151	H	1.741033	-0.298637	0.055367
H152	H	1.738640	-0.245733	-0.042100
H153	H	1.567699	-0.338320	-0.018466
H154	H	1.565289	-0.285433	-0.115955
H155	H	1.755739	-0.314057	-0.206969
H156	H	1.758127	-0.366958	-0.109491
H157	H	1.658018	-0.366867	-0.209230
C158	C	1.252888	-0.000120	-0.188514
C159	C	1.165074	-0.000707	-0.281018
C160	C	1.040292	-0.000804	-0.220291
H161	H	1.239980	0.035280	-0.137118
H162	H	1.240711	-0.035198	-0.135980
H163	H	1.177245	0.034368	-0.333530
H164	H	1.177941	-0.036105	-0.332419
H165	H	1.028116	-0.035882	-0.167757
H166	H	1.027398	0.034597	-0.168896
H167	H	0.980696	-0.001208	-0.283045
H168	H	1.622416	0.091894	-0.245552
C169	C	1.084296	0.106095	0.319797
C170	C	0.976171	0.140996	0.359506
C171	C	1.013755	0.192817	0.423701
H172	H	1.141508	0.129453	0.263801
H173	H	1.125909	0.094212	0.392422
H174	H	0.934578	0.152880	0.286891
H175	H	0.918947	0.117656	0.415517
H176	H	1.055368	0.180934	0.496327
H177	H	1.070967	0.216170	0.367698
H178	H	0.940397	0.216501	0.450662
C179	C	1.773807	-0.566206	-0.076716
C180	C	1.849077	-0.524719	-0.151895
C181	C	1.935220	-0.556379	-0.237859
H182	H	1.727608	-0.591024	-0.130399
H183	H	1.827403	-0.591000	-0.030342
H184	H	1.795488	-0.499935	-0.198266
H185	H	1.895304	-0.499899	-0.098248
H186	H	1.988816	-0.581173	-0.191484
H187	H	1.889010	-0.581196	-0.291532
H188	H	1.986308	-0.528235	-0.288869
H189	H	1.394465	0.091902	-0.377575
H190	H	1.115238	0.000028	-0.033196
H191	H	0.901947	0.000032	0.410168
C192	C	1.243147	-0.566455	0.453201
C193	C	1.164466	-0.602981	0.384481
C194	C	1.078419	-0.634872	0.470152
H195	H	1.191840	-0.538472	0.504375
H196	H	1.289463	-0.591304	0.506746
H197	H	1.118154	-0.578134	0.330958
H198	H	1.215737	-0.630976	0.333311
H199	H	1.124735	-0.659721	0.523698
H200	H	1.027121	-0.606884	0.521322
H201	H	1.025032	-0.659663	0.423539
H202	H	1.074484	-0.091955	0.302375
H203	H	1.394387	-0.091973	-0.377595
