data_functionalizedCrystal
_audit_creation_method	'MofGen! by Chris Wilmer'
_symmetry_space_group_name_H-M	'P1'
_symmetry_Int_Tables_number	1
_symmetry_cell_setting	triclinic
loop_
_symmetry_equiv_pos_as_xyz
  x,y,z
_cell_length_a	19.121414
_cell_length_b	13.897447
_cell_length_c	13.897433
_cell_angle_alpha	90.067446
_cell_angle_beta	92.388631
_cell_angle_gamma	87.537521
loop_
_atom_site_label
_atom_site_type_symbol
_atom_site_fract_x
_atom_site_fract_y
_atom_site_fract_z
Zn1	Zn	1.073912	0.320729	-0.482652
Zn2	Zn	1.407246	0.654063	-0.149319
Zn3	Zn	1.740579	0.987396	0.184014
Zn4	Zn	1.073771	0.482174	-0.321373
Zn5	Zn	1.407104	0.815508	0.011960
Zn6	Zn	1.740438	1.148841	0.345293
Zn7	Zn	0.956404	0.327765	-0.328237
Zn8	Zn	1.289738	0.661099	0.005096
Zn9	Zn	1.623071	0.994432	0.338429
Zn10	Zn	0.956441	0.488861	-0.489483
Zn11	Zn	1.289774	0.822194	-0.156149
Zn12	Zn	1.623107	1.155527	0.177184
O13	O	1.015132	0.404882	-0.405436
O14	O	1.348466	0.738216	-0.072103
O15	O	1.681799	1.071549	0.261230
O16	O	1.172174	0.336402	-0.455527
O17	O	1.505508	0.669736	-0.122194
O18	O	1.838841	1.003069	0.211140
O19	O	1.058128	0.461838	-0.187306
O20	O	1.391461	0.795172	0.146027
O21	O	1.724794	1.128505	0.479360
O22	O	0.972036	0.191848	-0.348735
O23	O	1.305369	0.525181	-0.015402
O24	O	1.638703	0.858515	0.317932
O25	O	1.172070	0.455015	-0.337036
O26	O	1.505404	0.788349	-0.003703
O27	O	1.838737	1.121682	0.329631
O28	O	1.058369	0.186678	-0.462183
O29	O	1.391702	0.520012	-0.128850
O30	O	1.725035	0.853345	0.204484
O31	O	0.971899	0.348395	-0.192349
O32	O	1.305232	0.681728	0.140984
O33	O	1.638566	1.015061	0.474317
O34	O	0.858129	0.354878	-0.355358
O35	O	1.191462	0.688211	-0.022025
O36	O	1.524795	1.021545	0.311309
O37	O	0.972098	0.466411	-0.623554
O38	O	1.305431	0.799744	-0.290221
O39	O	1.638765	1.133078	0.043113
O40	O	0.858155	0.473234	-0.473824
O41	O	1.191489	0.806567	-0.140491
O42	O	1.524822	1.139901	0.192842
O43	O	1.058404	0.342886	-0.618536
O44	O	1.391737	0.676219	-0.285203
O45	O	1.725071	1.009552	0.048131
O46	O	1.058163	0.618046	-0.343659
O47	O	1.391496	0.951379	-0.010326
O48	O	1.724830	1.284712	0.323008
O49	O	0.971961	0.622958	-0.467168
O50	O	1.305294	0.956291	-0.133835
O51	O	1.638628	1.289625	0.199498
C52	C	0.832659	0.415546	-0.416078
C53	C	1.165992	0.748879	-0.082744
C54	C	1.499326	1.082212	0.250589
C55	C	0.754596	0.420131	-0.420653
C56	C	1.087929	0.753464	-0.087320
C57	C	1.421263	1.086797	0.246014
C58	C	1.015070	0.655500	-0.405430
C59	C	1.348403	0.988834	-0.072097
C60	C	1.681736	1.322167	0.261237
C61	C	1.015107	0.762712	-0.405456
C62	C	1.348441	1.096045	-0.072122
C63	C	1.681774	1.429379	0.261211
C64	C	0.717887	0.360570	-0.361225
C65	C	1.051221	0.693903	-0.027892
C66	C	1.384554	1.027237	0.305442
C67	C	0.644539	0.364887	-0.365524
C68	C	0.977872	0.698220	-0.032190
C69	C	1.311206	1.031553	0.301143
C70	C	0.607901	0.428759	-0.429256
C71	C	0.941234	0.762093	-0.095923
C72	C	1.274567	1.095426	0.237411
C73	C	0.644614	0.488326	-0.488686
C74	C	0.977948	0.821660	-0.155353
C75	C	1.311281	1.154993	0.177980
C76	C	0.717961	0.484014	-0.484382
C77	C	1.051295	0.817348	-0.151049
C78	C	1.384628	1.150681	0.182284
C79	C	0.386442	0.444872	-0.445328
C80	C	0.719775	0.778205	-0.111995
C81	C	1.053108	1.111538	0.221338
C82	C	0.313090	0.449177	-0.449630
C83	C	0.646423	0.782511	-0.116297
C84	C	0.979756	1.115844	0.217037
C85	C	0.313019	0.325738	-0.326465
C86	C	0.646353	0.659071	0.006868
C87	C	0.979686	0.992405	0.340201
C88	C	0.386368	0.321427	-0.322171
C89	C	0.719701	0.654761	0.011163
C90	C	1.053034	0.988094	0.344496
C91	C	0.423075	0.380998	-0.381598
C92	C	0.756408	0.714331	-0.048264
C93	C	1.089742	1.047665	0.285069
C94	C	0.532927	0.433171	-0.433654
C95	C	0.866260	0.766504	-0.100320
C96	C	1.199593	1.099838	0.233013
C97	C	0.498047	0.376591	-0.377195
C98	C	0.831381	0.709924	-0.043861
C99	C	1.164714	1.043257	0.289472
C100	C	1.015139	0.849780	-0.405480
C101	C	1.348473	1.183113	-0.072147
C102	C	1.681806	1.516447	0.261187
C103	C	1.015186	0.959010	-0.405507
C104	C	1.348520	1.292343	-0.072174
C105	C	1.681853	1.625676	0.261159
C106	C	1.198318	0.394178	-0.394754
C107	C	1.531651	0.727512	-0.061421
C108	C	1.864985	1.060845	0.271913
C109	C	1.276381	0.389617	-0.390202
C110	C	1.609714	0.722950	-0.056869
C111	C	1.943048	1.056283	0.276465
C112	C	1.015271	0.404609	-0.657022
C113	C	1.348604	0.737943	-0.323688
C114	C	1.681938	1.071276	0.009645
C115	C	1.015330	0.404493	-0.764232
C116	C	1.348663	0.737826	-0.430899
C117	C	1.681997	1.071160	-0.097566
C118	C	1.015209	1.153285	-0.405475
C119	C	1.348542	1.486618	-0.072142
C120	C	1.681875	1.819952	0.261191
C121	C	1.015228	1.046070	-0.405524
C122	C	1.348561	1.379403	-0.072191
C123	C	1.681894	1.712736	0.261142
C124	C	1.015034	0.405082	-0.154827
C125	C	1.348368	0.738416	0.178506
C126	C	1.681701	1.071749	0.511839
C127	C	1.015111	0.404919	-0.047609
C128	C	1.348445	0.738252	0.285724
C129	C	1.681778	1.071586	0.619057
C130	C	1.015268	0.404627	0.148694
C131	C	1.348601	0.737960	0.482028
C132	C	1.681934	1.071293	0.815361
C133	C	1.015183	0.404792	0.039457
C134	C	1.348516	0.738125	0.372791
C135	C	1.681850	1.071459	0.706124
H136	H	0.614654	0.316392	-0.317125
H137	H	0.947987	0.649725	0.016208
H138	H	1.281321	0.983058	0.349542
C139	C	0.710668	0.606450	-0.606567
C140	C	1.044002	0.939783	-0.273233
C141	C	1.377335	1.273117	0.060100
C142	C	0.758314	0.549480	-0.549713
C143	C	1.091648	0.882813	-0.216379
C144	C	1.424981	1.216146	0.116954
H145	H	0.735582	0.646864	-0.646902
H146	H	1.068915	0.980197	-0.313568
H147	H	1.402248	1.313530	0.019765
H148	H	0.682026	0.645009	-0.566160
H149	H	1.015359	0.978342	-0.232827
H150	H	1.348692	1.311675	0.100507
H151	H	0.682092	0.566111	-0.645208
H152	H	1.015426	0.899444	-0.311875
H153	H	1.348759	1.232778	0.021458
H154	H	0.786887	0.589819	-0.511066
H155	H	1.120221	0.923152	-0.177732
H156	H	1.453554	1.256486	0.155601
H157	H	0.786969	0.510918	-0.590124
H158	H	1.120302	0.844251	-0.256791
H159	H	1.453636	1.177584	0.076543
C160	C	0.540357	0.554727	-0.554995
C161	C	0.873691	0.888061	-0.221661
C162	C	1.207024	1.221394	0.111672
C163	C	0.492652	0.503362	-0.503726
C164	C	0.825985	0.836695	-0.170393
C165	C	1.159318	1.170029	0.162940
H166	H	0.515490	0.598061	-0.598252
H167	H	0.848824	0.931394	-0.264919
H168	H	1.182157	1.264727	0.068415
H169	H	0.569001	0.511031	-0.590269
H170	H	0.902334	0.844365	-0.256936
H171	H	1.235667	1.177698	0.076398
H172	H	0.568927	0.589938	-0.511230
H173	H	0.902260	0.923272	-0.177897
H174	H	1.235594	1.256605	0.155437
H175	H	0.464085	0.468145	-0.547491
H176	H	0.797419	0.801479	-0.214157
H177	H	1.130752	1.134812	0.119176
H178	H	0.463996	0.547064	-0.468450
H179	H	0.797330	0.880397	-0.135117
H180	H	1.130663	1.213731	0.198217
C181	C	0.580442	0.358285	-0.242643
C182	C	0.913775	0.691618	0.090690
C183	C	1.247109	1.024952	0.424023
C184	C	0.538321	0.306384	-0.307143
C185	C	0.871655	0.639717	0.026191
C186	C	1.204988	0.973050	0.359524
H187	H	0.605313	0.314938	-0.199403
H188	H	0.938646	0.648272	0.133930
H189	H	1.271980	0.981605	0.467264
H190	H	0.551794	0.401959	-0.207352
H191	H	0.885127	0.735293	0.125981
H192	H	1.218460	1.068626	0.459315
H193	H	0.612794	0.393145	-0.277435
H194	H	0.946127	0.726478	0.055899
H195	H	1.279461	1.059811	0.389232
H196	H	0.505966	0.271530	-0.272352
H197	H	0.839299	0.604863	0.060982
H198	H	1.172632	0.938196	0.394315
H199	H	0.566972	0.262692	-0.342437
H200	H	0.900305	0.596026	-0.009104
H201	H	1.233639	0.929359	0.324229
C202	C	0.320522	0.570754	-0.570958
C203	C	0.653856	0.904087	-0.237625
C204	C	0.987189	1.237420	0.095709
C205	C	0.272815	0.519380	-0.519701
C206	C	0.606148	0.852714	-0.186368
C207	C	0.939482	1.186047	0.146965
H208	H	0.295657	0.614089	-0.614215
H209	H	0.628990	0.947422	-0.280882
H210	H	0.962323	1.280755	0.052451
H211	H	0.349170	0.527063	-0.606231
H212	H	0.682504	0.860396	-0.272898
H213	H	1.015837	1.193730	0.060435
H214	H	0.349087	0.605964	-0.527186
H215	H	0.682421	0.939297	-0.193853
H216	H	1.015754	1.272630	0.139480
H217	H	0.244253	0.484164	-0.563473
H218	H	0.577586	0.817498	-0.230140
H219	H	0.910920	1.150831	0.103194
H220	H	0.244155	0.563077	-0.484426
H221	H	0.577488	0.896410	-0.151093
H222	H	0.910822	1.229744	0.182241
H223	H	0.416194	0.269422	-0.270266
H224	H	0.749527	0.602756	0.063067
H225	H	1.082860	0.936089	0.396400
C226	C	0.710443	0.239005	-0.239902
C227	C	1.043776	0.572338	0.093431
C228	C	1.377110	0.905671	0.426765
C229	C	0.758157	0.290364	-0.291161
C230	C	1.091490	0.623698	0.042172
C231	C	1.424823	0.957031	0.375506
H232	H	0.735304	0.195669	-0.196640
H233	H	1.068637	0.529003	0.136693
H234	H	1.401970	0.862336	0.470027
H235	H	0.681875	0.203805	-0.283665
H236	H	1.015208	0.537138	0.049669
H237	H	1.348542	0.870472	0.383002
H238	H	0.681798	0.282711	-0.204624
H239	H	1.015132	0.616044	0.128709
H240	H	1.348465	0.949377	0.462042
H241	H	0.786798	0.246658	-0.326444
H242	H	1.120131	0.579992	0.006889
H243	H	1.453465	0.913325	0.340222
H244	H	0.786736	0.325566	-0.247392
H245	H	1.120070	0.658899	0.085941
H246	H	1.453403	0.992233	0.419274
H247	H	0.416320	0.493378	-0.493718
H248	H	0.749653	0.826711	-0.160385
H249	H	1.082987	1.160045	0.172949
C250	C	0.290422	0.163708	-0.281078
C251	C	0.623755	0.497042	0.052256
C252	C	0.957088	0.830375	0.385589
C253	C	0.272667	0.260269	-0.261140
C254	C	0.606000	0.593602	0.072193
C255	C	0.939334	0.926936	0.405526
H256	H	0.265506	0.123293	-0.240748
H257	H	0.598839	0.456626	0.092585
H258	H	0.932173	0.789959	0.425919
H259	H	0.339341	0.152006	-0.269390
H260	H	0.672675	0.485339	0.063943
H261	H	1.006008	0.818673	0.397276
H262	H	0.278447	0.150338	-0.346615
H263	H	0.611780	0.483671	-0.013282
H264	H	0.945113	0.817004	0.320051
H265	H	0.284647	0.273642	-0.195604
H266	H	0.617980	0.606975	0.137729
H267	H	0.951314	0.940308	0.471063
H268	H	0.223736	0.271976	-0.272820
H269	H	0.557070	0.605309	0.060513
H270	H	0.890403	0.938643	0.393847
H271	H	0.614778	0.540338	-0.540574
H272	H	0.948111	0.873671	-0.207241
H273	H	1.281444	1.207004	0.126092
