data_functionalizedCrystal
_audit_creation_method	'MofGen! by Chris Wilmer'
_symmetry_space_group_name_H-M	'P1'
_symmetry_Int_Tables_number	1
_symmetry_cell_setting	triclinic
loop_
_symmetry_equiv_pos_as_xyz
  x,y,z
_cell_length_a	17.640112
_cell_length_b	18.050590
_cell_length_c	17.640968
_cell_angle_alpha	101.233828
_cell_angle_beta	87.860920
_cell_angle_gamma	101.243844
loop_
_atom_site_label
_atom_site_type_symbol
_atom_site_fract_x
_atom_site_fract_y
_atom_site_fract_z
Zn1	Zn	1.247780	-0.021338	0.195079
Zn2	Zn	1.747780	0.478662	0.695079
Zn3	Zn	1.222020	-0.174557	0.068090
Zn4	Zn	1.722020	0.325443	0.568090
Zn5	Zn	1.095115	-0.069647	0.093723
Zn6	Zn	1.595115	0.430353	0.593723
Zn7	Zn	1.120761	-0.164781	0.220672
Zn8	Zn	1.620761	0.335219	0.720672
O9	O	1.171419	-0.107581	0.144391
O10	O	1.671419	0.392419	0.644391
O11	O	1.350631	-0.025537	0.156795
O12	O	1.850631	0.474463	0.656795
O13	O	1.183673	-0.184949	-0.034784
O14	O	1.683673	0.315051	0.465216
O15	O	1.115414	0.040698	0.107185
O16	O	1.615414	0.540698	0.607185
O17	O	1.331706	-0.138106	0.063497
O18	O	1.831706	0.361894	0.563497
O19	O	1.227576	0.076190	0.181651
O20	O	1.727576	0.576190	0.681651
O21	O	1.090436	-0.107872	-0.015951
O22	O	1.590436	0.392128	0.484049
O23	O	0.992249	-0.098393	0.132001
O24	O	1.492249	0.401607	0.632001
O25	O	1.159123	-0.121445	0.323551
O26	O	1.659123	0.378555	0.823551
O27	O	1.011090	-0.168288	0.225271
O28	O	1.511090	0.331712	0.725271
O29	O	1.252443	-0.016058	0.304748
O30	O	1.752443	0.483942	0.804748
O31	O	1.208540	-0.277197	0.088314
O32	O	1.708540	0.222803	0.588314
O33	O	1.134145	-0.270015	0.200415
O34	O	1.634145	0.229985	0.700415
C35	C	0.974116	-0.137522	0.184195
C36	C	1.474116	0.362478	0.684195
C37	C	0.889712	-0.150345	0.201242
C38	C	1.389712	0.349655	0.701242
C39	C	1.171354	-0.300549	0.144373
C40	C	1.671354	0.199451	0.644373
C41	C	1.171401	-0.383085	0.144376
C42	C	1.671401	0.116915	0.644376
C43	C	0.563040	-0.010153	0.014898
C44	C	1.063040	0.489847	0.514898
C45	C	0.483732	-0.022215	0.030926
C46	C	0.983732	0.477785	0.530926
C47	C	0.503372	-0.095166	0.127879
C48	C	1.003372	0.404834	0.627879
C49	C	0.582684	-0.083107	0.111862
C50	C	1.082684	0.416893	0.611862
C51	C	0.612511	-0.040601	0.055370
C52	C	1.112511	0.459399	0.555370
C53	C	0.632155	-0.113555	0.152334
C54	C	1.132155	0.386445	0.652334
C55	C	0.711459	-0.101500	0.136315
C56	C	1.211459	0.398500	0.636315
C57	C	0.741292	-0.058998	0.079824
C58	C	1.241292	0.441002	0.579824
C59	C	0.691815	-0.028547	0.039351
C60	C	1.191815	0.471453	0.539351
C61	C	0.602326	-0.156065	0.208822
C62	C	1.102326	0.343935	0.708822
C63	C	0.651797	-0.186513	0.249295
C64	C	1.151797	0.313487	0.749295
C65	C	0.731103	-0.174454	0.233280
C66	C	1.231103	0.325546	0.733280
C67	C	0.760936	-0.131952	0.176788
C68	C	1.260936	0.368048	0.676788
C69	C	0.780581	-0.204905	0.273753
C70	C	1.280581	0.295095	0.773753
C71	C	0.859885	-0.192851	0.257734
C72	C	1.359885	0.307149	0.757734
C73	C	0.840241	-0.119897	0.160769
C74	C	1.340241	0.380103	0.660769
C75	C	1.211977	-0.586382	0.083465
C76	C	1.711977	-0.086382	0.583465
C77	C	1.244542	-0.617065	0.149036
C78	C	1.744542	-0.117065	0.649036
C79	C	1.171451	-0.534202	0.144398
C80	C	1.671451	-0.034202	0.644398
C81	C	1.138970	-0.650582	0.078842
C82	C	1.638970	-0.150582	0.578842
C83	C	1.171498	-0.680175	0.144412
C84	C	1.671498	-0.180175	0.644412
C85	C	1.204058	-0.563783	0.209998
C86	C	1.704058	-0.063783	0.709998
C87	C	1.098444	-0.597312	0.139764
C88	C	1.598444	-0.097312	0.639764
C89	C	1.130992	-0.627965	0.205388
C90	C	1.630992	-0.127965	0.705388
C91	C	1.171425	-0.450110	0.144388
C92	C	1.671425	0.049890	0.644388
C93	C	1.171526	-0.764263	0.144430
C94	C	1.671526	-0.264263	0.644430
C95	C	1.369493	-0.077523	0.104432
C96	C	1.869493	0.422477	0.604432
C97	C	1.453900	-0.064714	0.087404
C98	C	1.953900	0.435286	0.587404
C99	C	1.211517	-0.062272	0.342476
C100	C	1.711517	0.437728	0.842476
C101	C	1.228605	-0.042964	0.426888
C102	C	1.728605	0.457036	0.926888
C103	C	1.171508	0.086148	0.144422
C104	C	1.671508	0.586148	0.644422
C105	C	1.171546	0.168703	0.144435
C106	C	1.671546	0.668703	0.644435
C107	C	1.131520	-0.152653	-0.052932
C108	C	1.631520	0.347347	0.447068
C109	C	1.114580	-0.171729	-0.137373
C110	C	1.614580	0.328271	0.362627
C111	C	1.041898	-0.253812	0.753452
C112	C	1.541898	0.246188	1.253452
C113	C	1.057970	-0.235658	0.832766
C114	C	1.557970	0.264342	1.332766
C115	C	1.155137	-0.125928	0.813178
C116	C	1.655137	0.374072	1.313178
C117	C	1.139070	-0.144071	0.733860
C118	C	1.639070	0.355929	1.233860
C119	C	1.082450	-0.208015	0.704004
C120	C	1.582450	0.291985	1.204004
C121	C	1.179622	-0.098273	0.684412
C122	C	1.679622	0.401727	1.184412
C123	C	1.163559	-0.116417	0.605101
C124	C	1.663559	0.383583	1.105101
C125	C	1.106944	-0.180359	0.575238
C126	C	1.606944	0.319641	1.075238
C127	C	1.066387	-0.226159	0.624693
C128	C	1.566387	0.273841	1.124693
C129	C	1.236245	-0.034332	0.714270
C130	C	1.736245	0.465668	1.214270
C131	C	1.276797	0.011465	0.664822
C132	C	1.776797	0.511465	1.164822
C133	C	1.260731	-0.006676	0.585510
C134	C	1.760731	0.493324	1.085510
C135	C	1.204116	-0.070618	0.555647
C136	C	1.704116	0.429382	1.055647
C137	C	1.301287	0.039124	0.536056
C138	C	1.801287	0.539124	1.036056
C139	C	1.285224	0.020980	0.456744
C140	C	1.785224	0.520980	0.956744
C141	C	1.188053	-0.088762	0.476336
C142	C	1.688053	0.411238	0.976336
H143	H	0.864529	-0.085271	0.114779
H144	H	1.364529	0.414729	0.614779
H145	H	0.995775	-0.305867	0.729145
H146	H	1.495775	0.194133	1.229145
Cl147	Cl	1.086753	-0.203174	0.475531
Cl148	Cl	1.586753	0.296826	0.975531
Cl149	Cl	0.502625	-0.171231	0.228951
Cl150	Cl	1.002625	0.328769	0.728951
Cl151	Cl	1.116866	-0.169145	0.438797
Cl152	Cl	1.616866	0.330855	0.938797
Cl153	Cl	0.600544	0.043290	-0.056117
Cl154	Cl	1.100544	0.543290	0.443883
H155	H	0.900166	-0.217643	0.290691
H156	H	1.400166	0.282357	0.790691
H157	H	1.024944	-0.272957	0.873026
H158	H	1.524944	0.227043	1.373026
H159	H	0.479075	-0.129777	0.173873
H160	H	0.979075	0.370223	0.673873
Cl161	Cl	1.078125	-0.656135	0.285028
Cl162	Cl	1.578125	-0.156135	0.785028
H163	H	0.756282	-0.239520	0.319743
H164	H	1.256282	0.260480	0.819743
H165	H	0.716104	0.006080	-0.006639
H166	H	1.216104	0.506080	0.493361
Cl167	Cl	0.995201	-0.306541	0.587154
Cl168	Cl	1.495201	0.193459	1.087154
H169	H	1.246273	-0.567974	0.031977
H170	H	1.746273	-0.067974	0.531977
Cl171	Cl	1.226315	-0.045546	0.850719
Cl172	Cl	1.726315	0.454454	1.350719
Cl173	Cl	0.840990	-0.043847	0.059680
Cl174	Cl	1.340990	0.456153	0.559680
H175	H	1.111479	-0.688087	0.023396
H176	H	1.611479	-0.188087	0.523396
H177	H	1.306304	-0.626228	0.152968
H178	H	1.806304	-0.126228	0.652968
Cl179	Cl	1.003105	-0.583145	0.133659
Cl180	Cl	1.503105	-0.083145	0.633659
Cl181	Cl	1.256441	-0.011525	0.813976
Cl182	Cl	1.756441	0.488475	1.313976
H183	H	1.322899	0.063527	0.689142
H184	H	1.822899	0.563527	1.189142
Cl185	Cl	1.372471	0.119500	0.573598
Cl186	Cl	1.872471	0.619500	1.073598
Cl187	Cl	1.336207	0.078552	0.394577
Cl188	Cl	1.836207	0.578552	0.894577
H189	H	1.231501	-0.526367	0.265506
H190	H	1.731501	-0.026367	0.765506
H191	H	0.443455	0.002589	-0.002031
H192	H	0.943455	0.502589	0.497969
H193	H	0.627500	-0.221124	0.295288
H194	H	1.127500	0.278876	0.795288
