data_functionalizedCrystal
_audit_creation_method	'MofGen! by Chris Wilmer'
_symmetry_space_group_name_H-M	'P1'
_symmetry_Int_Tables_number	1
_symmetry_cell_setting	triclinic
loop_
_symmetry_equiv_pos_as_xyz
  x,y,z
_cell_length_a	14.519709
_cell_length_b	12.996460
_cell_length_c	10.654550
_cell_angle_alpha	89.994020
_cell_angle_beta	95.917462
_cell_angle_gamma	89.999966
loop_
_atom_site_label
_atom_site_type_symbol
_atom_site_fract_x
_atom_site_fract_y
_atom_site_fract_z
O1	O	1.224722	0.085432	-0.164625
O2	O	1.724722	0.585432	0.335375
O3	O	0.956346	0.085464	-0.184012
O4	O	1.456346	0.585464	0.315988
O5	O	1.096705	0.085441	0.008480
O6	O	1.596705	0.585441	0.508480
O7	O	1.084364	0.085455	-0.357117
O8	O	1.584364	0.585455	0.142883
O9	O	1.096690	-0.085693	0.008491
O10	O	1.596690	0.414307	0.508491
O11	O	0.956331	-0.085670	-0.184001
O12	O	1.456331	0.414330	0.315999
O13	O	1.224708	-0.085701	-0.164615
O14	O	1.724708	0.414299	0.335385
Cu15	Cu	1.090518	-0.101311	-0.174307
Cu16	Cu	1.590518	0.398689	0.325693
Cu17	Cu	1.090535	0.101074	-0.174320
Cu18	Cu	1.590535	0.601074	0.325680
O19	O	1.084349	-0.085678	-0.357107
O20	O	1.584349	0.414322	0.142893
C21	C	0.921974	-0.000099	-0.183103
C22	C	1.421974	0.499901	0.316897
C23	C	0.819579	-0.000087	-0.180396
C24	C	1.319579	0.499913	0.319604
C25	C	0.444631	-0.000134	-0.170428
C26	C	0.944631	0.499866	0.329572
C27	C	0.548954	-0.000121	-0.173196
C28	C	1.048954	0.499879	0.326804
C29	C	0.632102	-0.000110	-0.175412
C30	C	1.132102	0.499890	0.324588
C31	C	0.736431	-0.000098	-0.178180
C32	C	1.236431	0.499902	0.321820
N33	N	1.090512	-0.243659	-0.174297
N34	N	1.590512	0.256341	0.325703
C35	C	1.090534	-0.663473	-0.174321
C36	C	1.590534	-0.163473	0.325679
C37	C	1.090525	-0.546668	-0.174319
C38	C	1.590525	-0.046668	0.325681
C39	C	1.090524	-0.453569	-0.174310
C40	C	1.590524	0.046431	0.325690
C41	C	1.090514	-0.336757	-0.174306
C42	C	1.590514	0.163243	0.325694
C43	C	1.259079	-0.000136	-0.165524
C44	C	1.759079	0.499864	0.334476
C45	C	1.361475	-0.000141	-0.168231
C46	C	1.861475	0.499859	0.331769
C47	C	1.095791	-0.000125	0.055275
C48	C	1.595791	0.499875	0.555275
C49	C	1.093080	-0.000123	0.194692
C50	C	1.593080	0.499877	0.694692
N51	N	1.090548	0.243421	-0.174319
N52	N	1.590548	0.743421	0.325681
C53	C	1.085262	-0.000110	-0.403901
C54	C	1.585262	0.499890	0.096099
C55	C	1.087973	-0.000105	-0.543318
C56	C	1.587973	0.499895	-0.043318
C57	C	1.175721	-0.000133	0.274972
C58	C	1.675721	0.499867	0.774972
C59	C	1.173168	-0.000120	0.405968
C60	C	1.673168	0.499880	0.905968
C61	C	1.005326	-0.000093	0.376391
C62	C	1.505326	0.499907	0.876391
C63	C	1.007880	-0.000098	0.245397
C64	C	1.507880	0.499902	0.745397
C65	C	1.270505	0.059830	0.602745
C66	C	1.770505	0.559830	1.102745
C67	C	1.353150	0.059803	0.683031
C68	C	1.853150	0.559803	1.183031
C69	C	1.428065	-0.000177	0.653583
C70	C	1.928065	0.499823	1.153583
C71	C	1.420338	-0.060156	0.543852
C72	C	1.920338	0.439844	1.043852
C73	C	1.337692	-0.060139	0.463573
C74	C	1.837692	0.439861	0.963573
C75	C	1.262780	-0.000134	0.493020
C76	C	1.762780	0.499866	0.993020
C77	C	0.910549	-0.060057	0.048619
C78	C	1.410549	0.439943	0.548619
C79	C	0.827902	-0.060046	-0.031662
C80	C	1.327902	0.439954	0.468338
C81	C	0.752979	-0.000072	-0.002218
C82	C	1.252979	0.499928	0.497782
C83	C	0.760696	0.059891	0.107515
C84	C	1.260696	0.559891	0.607515
C85	C	0.843344	0.059881	0.187796
C86	C	1.343344	0.559881	0.687796
C87	C	0.918267	-0.000092	0.158343
C88	C	1.418267	0.499908	0.658343
H89	H	1.245096	-0.000151	0.233692
H90	H	1.745096	0.499849	0.733692
H91	H	1.481341	-0.109006	0.519894
H92	H	1.981341	0.390994	1.019894
H93	H	0.685678	-0.000082	-0.067587
H94	H	1.185678	0.499918	0.432413
H95	H	1.495357	-0.000198	0.718961
H96	H	1.995357	0.499802	1.218961
H97	H	1.359436	0.108646	0.772372
H98	H	1.859436	0.608646	1.272372
H99	H	1.331399	-0.108976	0.374236
H100	H	1.831399	0.391024	0.874236
F101	F	1.190780	0.123689	0.634083
F102	F	1.690780	0.623689	1.134083
F103	F	0.914655	-0.000065	0.430368
F104	F	1.414655	0.499935	0.930368
H105	H	0.849628	0.108722	0.277138
H106	H	1.349628	0.608722	0.777138
H107	H	0.699680	0.108707	0.131506
H108	H	1.199680	0.608707	0.631506
F109	F	0.819682	-0.123888	-0.148435
F110	F	1.319682	0.376112	0.351565
H111	H	0.971564	-0.108874	0.024616
H112	H	1.471564	0.391126	0.524616
