data_functionalizedCrystal
_audit_creation_method	'MofGen! by Chris Wilmer'
_symmetry_space_group_name_H-M	'P1'
_symmetry_Int_Tables_number	1
_symmetry_cell_setting	triclinic
loop_
_symmetry_equiv_pos_as_xyz
  x,y,z
_cell_length_a	10.723023
_cell_length_b	10.723023
_cell_length_c	15.455313
_cell_angle_alpha	92.691554
_cell_angle_beta	87.293456
_cell_angle_gamma	84.467548
loop_
_atom_site_label
_atom_site_type_symbol
_atom_site_fract_x
_atom_site_fract_y
_atom_site_fract_z
O1	O	1.662611	0.169611	-0.072126
O2	O	1.299459	0.186365	-0.072129
O3	O	1.489412	-0.003588	-0.072124
O4	O	1.472658	0.359564	-0.072131
O5	O	1.478549	0.007230	0.072138
O6	O	1.288596	0.197183	0.072133
O7	O	1.651749	0.180429	0.072135
Cu8	Cu	1.469181	0.189793	0.085307
Cu9	Cu	1.482027	0.177001	-0.085300
O10	O	1.461795	0.370382	0.072131
C11	C	1.247528	0.190555	0.000002
C12	C	1.108974	0.186908	0.000001
C13	C	0.898379	0.187116	0.074730
C14	C	1.041582	0.190885	0.074733
C15	C	1.482762	-0.044679	0.000006
C16	C	1.479115	-0.183233	0.000003
C17	C	1.483116	-0.250603	-0.074730
C18	C	1.479347	-0.393806	-0.074734
C19	C	1.703680	0.176239	0.000003
C20	C	1.842234	0.179886	-0.000002
C21	C	1.468446	0.411473	-0.000001
C22	C	1.472093	0.550027	-0.000004
N23	N	1.460154	0.198790	0.205302
N24	N	1.491063	0.167994	-0.205295
C25	C	1.540881	0.118122	0.250698
C26	C	1.534067	0.124937	0.341506
C27	C	1.446530	0.212428	0.386916
C28	C	1.365794	0.293101	0.341513
C29	C	1.372604	0.286278	0.250707
C30	C	1.417137	0.241843	0.658496
C31	C	1.410336	0.248663	0.749309
C32	C	1.578608	0.080497	0.749295
C33	C	1.585415	0.073687	0.658487
C34	C	1.504675	0.154355	0.613093
N35	N	1.439565	0.219400	0.479736
N36	N	1.511635	0.147376	0.520274
H37	H	0.900183	0.176495	-0.063981
N38	N	1.483919	-0.470516	-0.159490
H39	H	1.489294	-0.413353	-0.209360
H40	H	1.559994	-0.534223	-0.162844
N41	N	1.105544	0.199093	0.159492
H42	H	1.168758	0.123552	0.162954
H43	H	1.149775	0.278043	0.162898
N44	N	0.821347	0.190775	0.159319
H45	H	0.757273	0.266565	0.162987
H46	H	0.776991	0.112031	0.162135
H47	H	1.060678	0.180709	-0.063983
N48	N	1.315905	0.343033	0.798278
H49	H	1.257429	0.297669	0.835970
H50	H	1.361324	0.401537	0.835886
H51	H	1.306865	0.351965	0.213747
N52	N	1.679839	-0.020667	0.609510
H53	H	1.634521	-0.079188	0.571839
H54	H	1.738284	0.024813	0.571878
N55	N	1.467563	-0.373269	0.084752
H56	H	1.387156	-0.383830	0.119152
H57	H	1.541657	-0.402779	0.119083
H58	H	1.472890	-0.231572	0.063982
H59	H	1.489327	-0.202262	-0.138708
H60	H	1.612168	0.046883	0.213731
N61	N	1.621179	0.037974	0.390470
H62	H	1.677687	-0.018465	0.347924
H63	H	1.673904	0.089135	0.428116
H64	H	1.644341	0.014820	0.786264
N65	N	1.330050	0.328839	0.609542
H66	H	1.273567	0.385297	0.652090
H67	H	1.381106	0.381618	0.571847
N68	N	1.271369	0.387459	0.390486
H69	H	1.279305	0.379544	0.454900
H70	H	1.287723	0.474928	0.374601
