data_functionalizedCrystal
_audit_creation_method	'MofGen! by Chris Wilmer'
_symmetry_space_group_name_H-M	'P1'
_symmetry_Int_Tables_number	1
_symmetry_cell_setting	triclinic
loop_
_symmetry_equiv_pos_as_xyz
  x,y,z
_cell_length_a	6.817900
_cell_length_b	13.563541
_cell_length_c	17.110486
_cell_angle_alpha	111.125513
_cell_angle_beta	99.060439
_cell_angle_gamma	104.704624
loop_
_atom_site_label
_atom_site_type_symbol
_atom_site_fract_x
_atom_site_fract_y
_atom_site_fract_z
V1	V	-4.002410	-0.153240	-0.280179
O2	O	-3.964091	0.007704	-0.240342
O3	O	-3.979384	-0.304176	-0.311447
O4	O	-3.931851	-0.150733	-0.387235
O5	O	-4.011954	-0.146801	-0.164029
V6	V	-4.485622	-0.134007	-0.262255
O7	O	-4.264352	-0.195429	-0.319496
O8	O	-4.673877	-0.091817	-0.222938
O9	O	-4.285441	0.016929	-0.230987
O10	O	-4.641338	-0.294950	-0.302093
O11	O	-4.593475	-0.140446	-0.378405
O12	O	-4.332974	-0.136513	-0.155199
C13	C	-3.831275	-0.340975	-0.315590
C14	C	-3.893588	-0.464367	-0.341869
C15	C	-3.956312	-0.749165	-0.112315
C16	C	-3.897752	-0.633232	-0.087623
C17	C	-3.896708	-0.591010	-0.151182
C18	C	-3.954230	-0.664732	-0.239439
C19	C	-4.012780	-0.780676	-0.264133
C20	C	-3.953176	-0.622521	-0.303000
C21	C	-4.010697	-0.696243	-0.391256
C22	C	-4.069242	-0.812175	-0.415947
C23	C	-4.070286	-0.854398	-0.352387
C24	C	-3.894626	-0.506577	-0.278306
C25	C	-3.951094	-0.538088	-0.430123
C26	C	-4.009654	-0.654021	-0.454816
C27	C	-3.770640	-0.145243	-0.412263
C28	C	-3.794401	-0.144192	-0.500000
C29	C	-3.987782	-0.149239	-0.546460
C30	C	-4.010097	-0.148251	-0.628897
C31	C	-3.839031	-0.142225	-0.664876
C32	C	-3.645633	-0.137175	-0.618409
C33	C	-3.623317	-0.138155	-0.535971
C34	C	-3.897291	-0.138982	-0.913523
C35	C	-3.919624	-0.138006	-0.995969
C36	C	-4.284086	-0.149080	-1.006451
C37	C	-4.261756	-0.150066	-0.924012
C38	C	-4.068358	-0.145010	-0.877551
C39	C	-3.861837	-0.141218	-0.749142
C40	C	-4.045550	-0.146008	-0.793284
C41	C	-4.096894	0.053723	-0.226843
C42	C	-4.013818	0.177113	-0.200569
C43	C	-4.157529	-0.142007	-0.130167
C44	C	-4.113005	-0.143052	-0.042429
H45	H	-4.117980	-0.948799	-0.372488
H46	H	-3.780309	-0.133095	-1.025259
H47	H	-4.116056	-0.872197	-0.487810
H48	H	-4.127091	-0.154153	-0.517175
H49	H	-4.167561	-0.152353	-0.666719
H50	H	-4.056493	-0.714061	-0.526675
H51	H	-3.950242	-0.503712	-0.481879
H52	H	-3.465832	-0.134018	-0.498135
H53	H	-3.957156	-0.783554	-0.060575
F54	F	-4.443833	-0.156483	-0.885728
F55	F	-3.836537	-0.554781	0.006302
H56	H	-4.441544	-0.153194	-1.044288
H57	H	-3.722562	-0.136316	-0.778447
H58	H	-4.184827	-0.150911	-0.763985
F59	F	-3.691474	-0.133624	-0.864093
H60	H	-3.506346	-0.132262	-0.647708
H61	H	-3.849016	-0.496611	-0.131072
F62	F	-3.833415	-0.428130	-0.184380
