data_functionalizedCrystal
_audit_creation_method	'MofGen! by Chris Wilmer'
_symmetry_space_group_name_H-M	'P1'
_symmetry_Int_Tables_number	1
_symmetry_cell_setting	triclinic
loop_
_symmetry_equiv_pos_as_xyz
  x,y,z
_cell_length_a	16.625548
_cell_length_b	18.101395
_cell_length_c	16.625539
_cell_angle_alpha	89.972352
_cell_angle_beta	89.979432
_cell_angle_gamma	90.032172
loop_
_atom_site_label
_atom_site_type_symbol
_atom_site_fract_x
_atom_site_fract_y
_atom_site_fract_z
Zn1	Zn	1.232632	-0.294807	-0.455913
Zn2	Zn	1.482632	-0.044807	-0.205913
Zn3	Zn	1.732632	0.205193	0.044087
Zn4	Zn	1.982632	0.455193	0.294087
Zn5	Zn	1.232515	-0.418656	-0.321082
Zn6	Zn	1.482515	-0.168656	-0.071082
Zn7	Zn	1.732515	0.081344	0.178918
Zn8	Zn	1.982515	0.331344	0.428918
Zn9	Zn	1.097794	-0.294835	-0.321094
Zn10	Zn	1.347794	-0.044835	-0.071094
Zn11	Zn	1.597794	0.205165	0.178906
Zn12	Zn	1.847794	0.455165	0.428906
Zn13	Zn	1.097744	-0.418614	-0.455872
Zn14	Zn	1.347744	-0.168614	-0.205872
Zn15	Zn	1.597744	0.081386	0.044128
Zn16	Zn	1.847744	0.331386	0.294128
O17	O	1.165171	-0.356728	-0.388490
O18	O	1.415171	-0.106728	-0.138490
O19	O	1.665171	0.143272	0.111510
O20	O	1.915171	0.393272	0.361510
O21	O	1.345449	-0.311242	-0.438040
O22	O	1.595449	-0.061242	-0.188040
O23	O	1.845449	0.188758	0.061960
O24	O	2.095449	0.438758	0.311960
O25	O	1.214616	-0.402261	-0.208251
O26	O	1.464616	-0.152261	0.041749
O27	O	1.714616	0.097739	0.291749
O28	O	1.964616	0.347739	0.541749
O29	O	1.115750	-0.191199	-0.339000
O30	O	1.365750	0.058801	-0.089000
O31	O	1.615750	0.308801	0.161000
O32	O	1.865750	0.558801	0.411000
O33	O	1.345363	-0.402233	-0.338980
O34	O	1.595363	-0.152233	-0.088980
O35	O	1.845363	0.097767	0.161020
O36	O	2.095363	0.347767	0.411020
O37	O	1.214815	-0.191178	-0.438051
O38	O	1.464815	0.058822	-0.188051
O39	O	1.714815	0.308822	0.061949
O40	O	1.964815	0.558822	0.311949
O41	O	1.115637	-0.311290	-0.208260
O42	O	1.365637	-0.061290	0.041740
O43	O	1.615637	0.188710	0.291740
O44	O	1.865637	0.438710	0.541740
O45	O	0.984955	-0.311249	-0.338960
O46	O	1.234955	-0.061249	-0.088960
O47	O	1.484955	0.188751	0.161040
O48	O	1.734955	0.438751	0.411040
O49	O	1.115665	-0.402161	-0.568710
O50	O	1.365665	-0.152161	-0.318710
O51	O	1.615665	0.097839	-0.068710
O52	O	1.865665	0.347839	0.181290
O53	O	0.984918	-0.402188	-0.437981
O54	O	1.234918	-0.152188	-0.187981
O55	O	1.484918	0.097812	0.062019
O56	O	1.734918	0.347812	0.312019
O57	O	1.214767	-0.311201	-0.568740
O58	O	1.464767	-0.061201	-0.318740
O59	O	1.714767	0.188799	-0.068740
O60	O	1.964767	0.438799	0.181260
O61	O	1.214567	-0.522284	-0.338940
O62	O	1.464567	-0.272284	-0.088940
O63	O	1.714567	-0.022284	0.161060
O64	O	1.964567	0.227716	0.411060
O65	O	1.115552	-0.522252	-0.437969
O66	O	1.365552	-0.272252	-0.187969
O67	O	1.615552	-0.022252	0.062031
O68	O	1.865552	0.227748	0.312031
C69	C	0.955680	-0.356718	-0.388467
C70	C	1.205680	-0.106718	-0.138467
C71	C	1.455680	0.143282	0.111533
C72	C	1.705680	0.393282	0.361533
C73	C	0.866059	-0.356731	-0.388477
C74	C	1.116059	-0.106731	-0.138477
C75	C	1.366059	0.143269	0.111523
C76	C	1.616059	0.393269	0.361523
C77	C	1.165063	-0.549139	-0.388466
C78	C	1.415063	-0.299139	-0.138466
C79	C	1.665063	-0.049139	0.111534
C80	C	1.915063	0.200861	0.361534
C81	C	1.165091	-0.631453	-0.388483
C82	C	1.415091	-0.381453	-0.138483
C83	C	1.665091	-0.131453	0.111517
C84	C	1.915091	0.118547	0.361517
C85	C	0.537884	-0.356736	-0.388511
C86	C	0.787884	-0.106736	-0.138511
C87	C	1.037884	0.143264	0.111489
C88	C	1.287884	0.393264	0.361489
C89	C	0.629192	-0.356732	-0.388499
C90	C	0.879192	-0.106732	-0.138499
C91	C	1.129192	0.143268	0.111501
C92	C	1.379192	0.393268	0.361501
C93	C	0.701969	-0.356734	-0.388494
C94	C	0.951969	-0.106734	-0.138494
C95	C	1.201969	0.143266	0.111506
C96	C	1.451969	0.393266	0.361506
C97	C	0.793283	-0.356729	-0.388483
C98	C	1.043283	-0.106729	-0.138483
C99	C	1.293283	0.143271	0.111517
C100	C	1.543283	0.393271	0.361517
C101	C	1.165268	-0.930544	-0.388527
C102	C	1.415268	-0.680544	-0.138527
C103	C	1.665268	-0.430544	0.111473
C104	C	1.915268	-0.180544	0.361473
C105	C	1.103114	-0.899230	-0.450988
C106	C	1.353114	-0.649230	-0.200988
C107	C	1.603114	-0.399230	0.049012
C108	C	1.853114	-0.149230	0.299012
C109	C	1.102819	-0.813612	-0.450793
C110	C	1.352819	-0.563612	-0.200793
C111	C	1.602819	-0.313612	0.049207
C112	C	1.852819	-0.063612	0.299207
C113	C	1.165180	-0.782161	-0.388506
C114	C	1.415180	-0.532161	-0.138506
C115	C	1.665180	-0.282161	0.111494
C116	C	1.915180	-0.032161	0.361494
C117	C	1.142173	-0.813313	-0.303528
C118	C	1.392173	-0.563313	-0.053528
C119	C	1.642173	-0.313313	0.196472
C120	C	1.892173	-0.063313	0.446472
C121	C	1.141772	-0.898959	-0.303901
C122	C	1.391772	-0.648959	-0.053901
C123	C	1.641772	-0.398959	0.196099
C124	C	1.891772	-0.148959	0.446099
C125	C	1.250565	-0.898886	-0.410295
C126	C	1.500565	-0.648886	-0.160295
C127	C	1.750565	-0.398886	0.089705
C128	C	2.000565	-0.148886	0.339705
C129	C	1.250063	-0.813235	-0.412159
C130	C	1.500063	-0.563235	-0.162159
C131	C	1.750063	-0.313235	0.087841
C132	C	2.000063	-0.063235	0.337841
C133	C	1.165132	-0.698302	-0.388489
C134	C	1.415132	-0.448302	-0.138489
C135	C	1.665132	-0.198302	0.111511
C136	C	1.915132	0.051698	0.361511
C137	C	1.165314	-1.014403	-0.388538
C138	C	1.415314	-0.764403	-0.138538
C139	C	1.665314	-0.514403	0.111462
C140	C	1.915314	-0.264403	0.361462
C141	C	1.375480	-0.356739	-0.388513
C142	C	1.625480	-0.106739	-0.138513
C143	C	1.875480	0.143261	0.111487
C144	C	2.125480	0.393261	0.361487
C145	C	1.465101	-0.356744	-0.388523
C146	C	1.715101	-0.106744	-0.138523
C147	C	1.965101	0.143256	0.111477
C148	C	2.215101	0.393256	0.361477
C149	C	1.165224	-0.356673	-0.598799
C150	C	1.415224	-0.106673	-0.348799
C151	C	1.665224	0.143327	-0.098799
C152	C	1.915224	0.393327	0.151201
C153	C	1.165246	-0.356649	-0.688420
C154	C	1.415246	-0.106649	-0.438420
C155	C	1.665246	0.143351	-0.188420
C156	C	1.915246	0.393351	0.061580
C157	C	1.165302	-0.163566	-0.388531
C158	C	1.415302	0.086434	-0.138531
C159	C	1.665302	0.336434	0.111469
C160	C	1.915302	0.586434	0.361469
C161	C	1.165357	-0.081252	-0.388549
C162	C	1.415357	0.168748	-0.138549
C163	C	1.665357	0.418748	0.111451
C164	C	1.915357	0.668748	0.361451
C165	C	1.165283	-0.356567	-1.016596
C166	C	1.415283	-0.106567	-0.766596
C167	C	1.665283	0.143433	-0.516596
C168	C	1.915283	0.393433	-0.266596
C169	C	1.165271	-0.356592	-0.925287
C170	C	1.415271	-0.106592	-0.675287
C171	C	1.665271	0.143408	-0.425287
C172	C	1.915271	0.393408	-0.175287
C173	C	1.165265	-0.356609	-0.852511
C174	C	1.415265	-0.106609	-0.602511
C175	C	1.665265	0.143391	-0.352511
C176	C	1.915265	0.393391	-0.102511
C177	C	1.165252	-0.356633	-0.761197
C178	C	1.415252	-0.106633	-0.511197
C179	C	1.665252	0.143367	-0.261197
C180	C	1.915252	0.393367	-0.011197
C181	C	1.165165	-0.356730	-0.178999
C182	C	1.415165	-0.106730	0.071001
C183	C	1.665165	0.143270	0.321001
C184	C	1.915165	0.393270	0.571001
C185	C	1.165299	-0.356545	-0.089378
C186	C	1.415299	-0.106545	0.160622
C187	C	1.665299	0.143455	0.410622
C188	C	1.915299	0.393455	0.660622
H189	H	1.117214	-0.792547	-0.513803
H190	H	1.367214	-0.542547	-0.263803
H191	H	1.617214	-0.292547	-0.013803
H192	H	1.867214	-0.042547	0.236197
H193	H	1.117366	-0.919777	-0.514202
H194	H	1.367366	-0.669777	-0.264202
H195	H	1.617366	-0.419777	-0.014202
H196	H	1.867366	-0.169777	0.235798
F197	F	1.020980	-0.927459	-0.432392
F198	F	1.270980	-0.677459	-0.182392
F199	F	1.520980	-0.427459	0.067608
F200	F	1.770980	-0.177459	0.317608
F201	F	1.061537	-0.785368	-0.278992
F202	F	1.311537	-0.535368	-0.028992
F203	F	1.561537	-0.285368	0.221008
F204	F	1.811537	-0.035368	0.471008
H205	H	1.271540	-0.920433	-0.471205
H206	H	1.521540	-0.670433	-0.221205
H207	H	1.771540	-0.420433	0.028795
H208	H	2.021540	-0.170433	0.278795
H209	H	1.039595	-0.793190	-0.436373
H210	H	1.289595	-0.543190	-0.186373
H211	H	1.539595	-0.293190	0.063627
H212	H	1.789595	-0.043190	0.313627
F213	F	1.060275	-0.925160	-0.279799
F214	F	1.310275	-0.675160	-0.029799
F215	F	1.560275	-0.425160	0.220201
F216	F	1.810275	-0.175160	0.470201
H217	H	1.185078	-0.919675	-0.255776
H218	H	1.435078	-0.669675	-0.005776
H219	H	1.685078	-0.419675	0.244224
H220	H	1.935078	-0.169675	0.494224
F221	F	1.199481	-0.786689	-0.241037
F222	F	1.449481	-0.536689	0.008963
F223	F	1.699481	-0.286689	0.258963
F224	F	1.949481	-0.036689	0.508963
F225	F	1.272743	-0.786619	-0.493902
F226	F	1.522743	-0.536619	-0.243902
F227	F	1.772743	-0.286619	0.006098
F228	F	2.022743	-0.036619	0.256098
H229	H	1.296871	-0.919135	-0.364802
H230	H	1.546871	-0.669135	-0.114802
H231	H	1.796871	-0.419135	0.135198
H232	H	2.046871	-0.169135	0.385198
H233	H	1.298821	-0.791822	-0.369981
H234	H	1.548821	-0.541822	-0.119981
H235	H	1.798821	-0.291822	0.130019
H236	H	2.048821	-0.041822	0.380019
