data_functionalizedCrystal
_audit_creation_method	'MofGen! by Chris Wilmer'
_symmetry_space_group_name_H-M	'P1'
_symmetry_Int_Tables_number	1
_symmetry_cell_setting	triclinic
loop_
_symmetry_equiv_pos_as_xyz
  x,y,z
_cell_length_a	33.510554
_cell_length_b	33.509711
_cell_length_c	33.506470
_cell_angle_alpha	60.004186
_cell_angle_beta	60.008358
_cell_angle_gamma	59.994760
loop_
_atom_site_label
_atom_site_type_symbol
_atom_site_fract_x
_atom_site_fract_y
_atom_site_fract_z
O1	O	0.055430	-0.583081	0.487524
O2	O	0.020931	-0.453975	0.392819
O3	O	0.102693	-0.535652	0.392731
O4	O	-0.026332	-0.501404	0.487613
O5	O	0.129823	-0.508526	0.419767
O6	O	0.048062	-0.426850	0.419856
O7	O	0.082561	-0.555956	0.514561
Cu8	Cu	0.067789	-0.488926	0.469677
Cu9	Cu	0.035703	-0.521005	0.437703
O10	O	0.000799	-0.474279	0.514649
N11	N	0.090357	-0.466366	0.492168
N12	N	0.013139	-0.543569	0.415212
C13	C	0.143028	-0.279707	0.544737
C14	C	0.143165	-0.413746	0.678712
C15	C	0.143043	-0.413725	0.544739
C16	C	0.277090	-0.413694	0.544637
C17	C	0.157791	-0.323929	0.559462
C18	C	0.157869	-0.398994	0.634489
C19	C	0.232865	-0.398963	0.559407
C20	C	0.157801	-0.398982	0.559463
C21	C	0.124237	-0.223419	0.525994
C22	C	0.124262	-0.432490	0.525997
C23	C	0.176583	-0.380217	0.578205
C24	C	0.358938	-0.399566	0.501510
C25	C	0.410104	-0.416609	0.484423
C26	C	0.410135	-0.499402	0.515995
C27	C	0.358969	-0.482358	0.533084
C28	C	0.136554	-0.197822	0.475693
C29	C	0.119469	-0.146653	0.458657
C30	C	0.077755	-0.146680	0.542223
C31	C	0.094840	-0.197850	0.559260
C32	C	0.073954	-0.420144	0.538396
C33	C	0.056884	-0.437203	0.521352
C34	C	0.140427	-0.478952	0.479524
C35	C	0.157498	-0.461894	0.496561
C36	C	0.074158	-0.420182	0.760618
C37	C	0.057149	-0.437256	0.811786
C38	C	0.140732	-0.479014	0.811717
C39	C	0.157740	-0.461942	0.760547
C40	C	0.124452	-0.432525	0.734999
C41	C	0.333372	-0.432439	0.525839
C42	C	-0.020612	-0.577650	0.170305
C43	C	-0.020943	-0.788098	0.380897
C44	C	-0.020912	-0.577638	0.380991
C45	C	-0.231336	-0.577418	0.380585
C46	C	-0.129735	-0.611383	0.346870
C47	C	-0.054722	-0.611464	0.347017
C48	C	-0.073450	-0.630202	0.328195
C49	C	-0.087616	-0.712029	0.371239
C50	C	-0.070599	-0.763199	0.388315
C51	C	0.012191	-0.763282	0.356872
C52	C	-0.004828	-0.712113	0.339795
C53	C	-0.155381	-0.623711	0.397158
C54	C	-0.206547	-0.606601	0.414133
C55	C	-0.206417	-0.564839	0.330529
C56	C	-0.155251	-0.581949	0.313554
C57	C	-0.067051	-0.561160	0.334643
C58	C	-0.050026	-0.544131	0.351759
C59	C	-0.008343	-0.627704	0.393612
C60	C	-0.025368	-0.644736	0.376502
C61	C	-0.066922	-0.561168	0.246303
C62	C	-0.049794	-0.544141	0.195134
C63	C	-0.008048	-0.627719	0.195183
C64	C	-0.025175	-0.644745	0.246352
C65	C	-0.054614	-0.611468	0.271911
C66	C	-0.054732	-0.686488	0.346980
C67	C	-0.002117	-0.558258	0.114025
C68	C	-0.002879	-0.844379	0.399940
C69	C	-0.002504	-0.558243	0.399473
C70	C	-0.287615	-0.558285	0.398601
N71	N	0.434975	-0.466279	0.491900
O72	O	0.591199	-0.470749	0.375150
O73	O	0.591395	-0.565767	0.504116
O74	O	0.591311	-0.565550	0.422329
O75	O	0.591283	-0.470966	0.456937
O76	O	0.510024	-0.538522	0.449509
O77	O	0.510108	-0.538739	0.531297
O78	O	0.509913	-0.443721	0.402330
Cu79	Cu	0.502588	-0.488762	0.469295
Cu80	Cu	0.598719	-0.520726	0.437151
O81	O	0.509997	-0.443938	0.484117
N82	N	0.666332	-0.543209	0.414541
N83	N	0.090323	-0.121809	0.492157
O84	O	-0.026342	0.034503	0.487582
O85	O	0.102626	0.034543	0.392540
O86	O	0.020797	0.034507	0.392812
O87	O	0.055487	0.034539	0.487310
O88	O	0.047933	-0.046785	0.419900
O89	O	0.129763	-0.046749	0.419628
O90	O	0.000794	-0.046789	0.514670
Cu91	Cu	0.067756	-0.054192	0.469623
Cu92	Cu	0.035664	0.041946	0.437588
O93	O	0.082623	-0.046753	0.514399
N94	N	0.013091	0.109564	0.415054
N95	N	0.090671	-0.466416	0.836606
O96	O	0.086120	-0.583065	0.992910
O97	O	-0.008880	-0.454051	0.992954
O98	O	-0.008658	-0.535864	0.992931
O99	O	0.085897	-0.501252	0.992933
O100	O	0.018407	-0.508749	0.911642
O101	O	0.018185	-0.426936	0.911665
O102	O	0.113185	-0.555949	0.911621
Cu103	Cu	0.068156	-0.488967	0.904221
Cu104	Cu	0.036148	-0.521034	1.000355
O105	O	0.112963	-0.474136	0.911644
N106	N	0.013633	-0.543590	1.067970
C107	C	0.031262	-0.424144	0.393290
C108	C	0.132513	-0.525291	0.393180
C109	C	0.072229	-0.585787	0.514090
C110	C	-0.029022	-0.484640	0.514200
C111	C	0.550775	-0.565338	0.533954
C112	C	0.550672	-0.565070	0.432670
C113	C	0.550530	-0.444149	0.372492
C114	C	0.550635	-0.444418	0.473776
C115	C	0.132408	-0.005998	0.392963
C116	C	0.031106	-0.006142	0.393333
C117	C	-0.029021	-0.006147	0.514213
C118	C	0.072314	-0.006104	0.513878
C119	C	-0.008430	-0.424240	0.952316
C120	C	-0.008150	-0.525550	0.952271
C121	C	0.112735	-0.585760	0.952260
C122	C	0.112461	-0.484444	0.952286
H123	H	0.016194	-0.427197	0.832639
C124	C	0.550622	-0.404276	0.483775
C125	C	0.508372	-0.355128	0.480333
C126	C	0.508358	-0.314986	0.490333
C127	C	0.550594	-0.323990	0.503774
C128	C	0.592847	-0.373140	0.507217
C129	C	0.592861	-0.413282	0.497217
H130	H	0.477103	-0.348461	0.470383
H131	H	0.477079	-0.278602	0.487784
H132	H	0.550584	-0.294274	0.511176
H133	H	0.624116	-0.379807	0.517168
H134	H	0.624140	-0.449666	0.499766
C135	C	0.037391	-0.387796	0.570769
C136	C	0.000612	-0.407388	0.620134
C137	C	-0.035951	-0.375039	0.652509
C138	C	-0.035736	-0.323097	0.635517
C139	C	0.001044	-0.303501	0.586149
C140	C	0.037608	-0.335851	0.553775
H141	H	0.000452	-0.445842	0.632715
H142	H	-0.063179	-0.389545	0.689054
H143	H	-0.062803	-0.299150	0.659482
H144	H	0.001205	-0.265048	0.573569
H145	H	0.064835	-0.321345	0.517229
C146	C	0.550688	-0.605213	0.422670
C147	C	0.508518	-0.626289	0.454340
C148	C	0.508534	-0.666432	0.444340
C149	C	0.550718	-0.685499	0.402670
C150	C	0.592890	-0.664423	0.370997
C151	C	0.592875	-0.624280	0.380997
H152	H	0.477288	-0.612174	0.485189
H153	H	0.477315	-0.682034	0.467787
H154	H	0.550729	-0.715216	0.395268
H155	H	0.624120	-0.678538	0.340148
H156	H	0.624094	-0.608678	0.357551
C157	C	0.550449	-0.403846	0.322458
C158	C	0.592617	-0.382767	0.290951
C159	C	0.592536	-0.342464	0.240917
C160	C	0.550288	-0.323238	0.222388
C161	C	0.508117	-0.344316	0.253895
C162	C	0.508198	-0.384620	0.303930
H163	H	0.623894	-0.396999	0.304667
H164	H	0.623754	-0.326860	0.217593
H165	H	0.550228	-0.293403	0.185350
H166	H	0.476840	-0.330084	0.240180
H167	H	0.476980	-0.400223	0.327253
H168	H	0.550826	-0.595166	0.570996
H169	H	0.023675	-0.006147	0.363643
H170	H	0.169370	-0.005761	0.363053
H171	H	-0.090896	-0.534066	0.267110
H172	H	-0.097376	-0.783993	0.408060
H173	H	-0.037843	-0.532946	0.952238
H174	H	-0.066081	-0.477343	0.543993
H175	H	-0.066059	-0.006159	0.544050
C176	C	0.082183	-0.635889	0.554276
C177	C	0.050507	-0.667457	0.575343
C178	C	0.060461	-0.717559	0.615529
C179	C	0.102091	-0.736093	0.634648
C180	C	0.133770	-0.704525	0.613582
C181	C	0.123816	-0.654423	0.573395
H182	H	0.019687	-0.653738	0.561189
H183	H	0.037010	-0.740928	0.631124
H184	H	0.109459	-0.773182	0.664397
H185	H	0.164589	-0.718244	0.627735
H186	H	0.147267	-0.631054	0.557800
H187	H	0.079744	-0.006095	0.543566
C188	C	-0.048725	-0.374186	0.952334
C189	C	-0.038963	-0.333904	0.952344
C190	C	-0.079258	-0.283851	0.952362
C191	C	-0.129315	-0.274079	0.952370
C192	C	-0.139080	-0.314363	0.952359
C193	C	-0.098785	-0.364416	0.952341
H194	H	-0.001905	-0.341137	0.952339
H195	H	-0.072029	-0.254030	0.952370
H196	H	-0.159144	-0.237026	0.952383
H197	H	-0.176137	-0.307130	0.952364
H198	H	-0.106014	-0.394237	0.952333
C199	C	0.153030	-0.635814	0.952242
C200	C	0.143267	-0.676096	0.952232
C201	C	0.183562	-0.726150	0.952214
C202	C	0.233619	-0.735922	0.952207
C203	C	0.243384	-0.695638	0.952218
C204	C	0.203089	-0.645584	0.952235
H205	H	0.106210	-0.668864	0.952237
H206	H	0.176333	-0.755971	0.952206
H207	H	0.263448	-0.772974	0.952194
H208	H	0.280442	-0.702870	0.952212
H209	H	0.210318	-0.615764	0.952243
H210	H	0.142166	-0.477036	0.952281
H211	H	0.167840	-0.502959	0.832516
C212	C	0.213067	-0.475519	0.732368
C213	C	0.245199	-0.460620	0.739376
C214	C	0.300525	-0.474195	0.711198
C215	C	0.323720	-0.502670	0.676013
C216	C	0.291588	-0.517571	0.669004
C217	C	0.236262	-0.503996	0.697182
H218	H	0.228028	-0.439539	0.765424
H219	H	0.324310	-0.463165	0.716387
H220	H	0.364676	-0.512720	0.655154
H221	H	0.308758	-0.538652	0.642956
H222	H	0.212476	-0.515026	0.691993
C223	C	0.001546	-0.423628	0.534986
C224	C	-0.030534	-0.438543	0.589038
C225	C	-0.085871	-0.424969	0.602670
C226	C	-0.109129	-0.396480	0.562249
C227	C	-0.077048	-0.381563	0.508193
C228	C	-0.021711	-0.395137	0.494562
H229	H	-0.013318	-0.459634	0.618963
H230	H	-0.109619	-0.436012	0.642686
H231	H	-0.150093	-0.386432	0.572340
H232	H	-0.094265	-0.360472	0.478268
H233	H	0.002037	-0.384094	0.454546
H234	H	0.047048	-0.396226	0.739820
H235	H	0.167497	-0.502899	0.455559
C236	C	0.021307	-0.374043	0.353103
C237	C	0.024806	-0.370645	0.303955
C238	C	0.014851	-0.320544	0.263768
C239	C	0.001397	-0.273841	0.272728
C240	C	-0.002102	-0.277238	0.321878
C241	C	0.007853	-0.327339	0.362065
H242	H	0.034766	-0.405218	0.297320
H243	H	0.017441	-0.318030	0.227383
H244	H	-0.005972	-0.236754	0.242979
H245	H	-0.012062	-0.242665	0.328513
H246	H	0.005263	-0.329853	0.398449
H247	H	0.338156	-0.509129	0.552896
C248	C	0.212836	-0.475460	0.482927
C249	C	0.244999	-0.529496	0.497782
C250	C	0.300335	-0.543058	0.484148
C251	C	0.323507	-0.502585	0.455659
C252	C	0.291344	-0.448546	0.440802
C253	C	0.236008	-0.434984	0.454436
H254	H	0.227846	-0.559460	0.518873
H255	H	0.324144	-0.583062	0.495147
H256	H	0.364470	-0.512625	0.445567
H257	H	0.308497	-0.418582	0.419711
H258	H	0.212198	-0.394980	0.443437
C259	C	0.438292	-0.554312	0.523961
C260	C	0.410172	-0.590475	0.550724
C261	C	0.438332	-0.645386	0.558689
C262	C	0.494613	-0.664134	0.539892
C263	C	0.522736	-0.627970	0.513128
C264	C	0.494576	-0.573060	0.505163
H265	H	0.368506	-0.576598	0.564640
H266	H	0.417512	-0.672157	0.578502
H267	H	0.515458	-0.704782	0.545789
H268	H	0.564401	-0.641848	0.499212
H269	H	0.515395	-0.546289	0.485350
H270	H	0.430920	-0.389838	0.464614
C271	C	0.182574	-0.535145	0.352926
C272	C	0.222821	-0.585223	0.362764
C273	C	0.272881	-0.595077	0.322510
C274	C	0.282694	-0.554854	0.272419
C275	C	0.242446	-0.504773	0.262580
C276	C	0.192386	-0.494919	0.302833
H277	H	0.215557	-0.615001	0.399846
H278	H	0.302675	-0.632151	0.329794
H279	H	0.319752	-0.562149	0.242621
H280	H	0.249710	-0.474995	0.225498
H281	H	0.162592	-0.457846	0.295549
H282	H	0.160490	-0.218637	0.448603
C283	C	0.330780	-0.344653	0.493543
C284	C	0.358905	-0.308495	0.466783
C285	C	0.330749	-0.253583	0.458813
C286	C	0.274468	-0.234829	0.477604
C287	C	0.246340	-0.270989	0.504366
C288	C	0.274496	-0.325901	0.512335
H289	H	0.400570	-0.322376	0.452871
H290	H	0.351571	-0.226815	0.439002
H291	H	0.253626	-0.194180	0.471705
H292	H	0.204675	-0.257107	0.518278
H293	H	0.253673	-0.352668	0.532146
H294	H	0.053825	-0.125861	0.569312
C295	C	0.133017	-0.118492	0.403324
C296	C	0.165357	-0.146618	0.366733
C297	C	0.178906	-0.118459	0.311399
C298	C	0.160115	-0.062174	0.292657
C299	C	0.127773	-0.034045	0.329249
C300	C	0.114224	-0.062204	0.384582
H301	H	0.179269	-0.188286	0.380606
H302	H	0.202848	-0.139282	0.284312
H303	H	0.170145	-0.041330	0.251696
H304	H	0.113862	0.007623	0.315376
H305	H	0.090283	-0.041381	0.411670
H306	H	0.084809	-0.218687	0.600218
C307	C	-0.063344	-0.488806	0.166971
C308	C	-0.048477	-0.456703	0.174056
C309	C	-0.062027	-0.401369	0.145892
C310	C	-0.090444	-0.378137	0.110643
C311	C	-0.105313	-0.410240	0.103557
C312	C	-0.091763	-0.465574	0.131721
H313	H	-0.027440	-0.473900	0.200150
H314	H	-0.051020	-0.377604	0.151138
H315	H	-0.100475	-0.337176	0.089795
H316	H	-0.126351	-0.393043	0.077463
H317	H	-0.102770	-0.489339	0.126475
C318	C	0.024324	-0.664325	0.167072
C319	C	0.037857	-0.719654	0.195243
C320	C	0.070229	-0.756262	0.167132
C321	C	0.089068	-0.737539	0.110850
C322	C	0.075535	-0.682207	0.082675
C323	C	0.043163	-0.645599	0.110786
H324	H	0.023911	-0.733516	0.236909
H325	H	0.080247	-0.797223	0.187989
H326	H	0.113032	-0.764638	0.090040
H327	H	0.089481	-0.668345	0.041009
H328	H	0.033145	-0.604639	0.089930
H329	H	-0.015148	-0.685706	0.267200
H330	H	-0.090949	-0.534065	0.310634
H331	H	0.015562	-0.654800	0.417614
C332	C	-0.063582	-0.488797	0.338148
C333	C	-0.095865	-0.452196	0.305712
C334	C	-0.109421	-0.396862	0.292100
C335	C	-0.090692	-0.378130	0.310925
C336	C	-0.058407	-0.414731	0.343363
C337	C	-0.044852	-0.470064	0.356974
H338	H	-0.109731	-0.466062	0.291775
H339	H	-0.133320	-0.369768	0.268088
H340	H	-0.100727	-0.337168	0.300848
H341	H	-0.044542	-0.400864	0.357299
H342	H	-0.020952	-0.497159	0.380987
H343	H	0.021953	-0.691318	0.320042
C344	C	-0.011799	-0.700068	0.390089
C345	C	0.042240	-0.732225	0.375263
C346	C	0.055815	-0.787556	0.388840
C347	C	0.015352	-0.810730	0.417243
C348	C	-0.038690	-0.778573	0.432071
C349	C	-0.052265	-0.723242	0.418494
H350	H	0.072196	-0.715071	0.354236
H351	H	0.095821	-0.811361	0.377863
H352	H	0.025401	-0.851689	0.427294
H353	H	-0.068646	-0.795727	0.453098
H354	H	-0.092271	-0.699437	0.429470
H355	H	0.052828	-0.784146	0.351024
H356	H	-0.128252	-0.691169	0.377093
C357	C	-0.127310	-0.656087	0.433802
C358	C	-0.092143	-0.639137	0.433640
C359	C	-0.064072	-0.671514	0.470285
C360	C	-0.071169	-0.720841	0.507094
C361	C	-0.106338	-0.737793	0.507257
C362	C	-0.134408	-0.705416	0.470612
H363	H	-0.086888	-0.602620	0.406391
H364	H	-0.038038	-0.658965	0.470164
H365	H	-0.050389	-0.744808	0.534221
H366	H	-0.111593	-0.774310	0.534506
H367	H	-0.160443	-0.717966	0.470733
C368	C	-0.234762	-0.620156	0.469454
C369	C	-0.206696	-0.652530	0.506100
C370	C	-0.234910	-0.666084	0.561420
C371	C	-0.291191	-0.647263	0.580093
C372	C	-0.319260	-0.614887	0.543446
C373	C	-0.291046	-0.601333	0.488126
H374	H	-0.165031	-0.666464	0.492278
H375	H	-0.214131	-0.690051	0.588549
H376	H	-0.312076	-0.657296	0.621044
H377	H	-0.360925	-0.600953	0.557268
H378	H	-0.311826	-0.577366	0.460998
H379	H	-0.227194	-0.540877	0.303400
H380	H	-0.134369	-0.571905	0.272603
