data_functionalizedCrystal
_audit_creation_method	'MofGen! by Chris Wilmer'
_symmetry_space_group_name_H-M	'P1'
_symmetry_Int_Tables_number	1
_symmetry_cell_setting	triclinic
loop_
_symmetry_equiv_pos_as_xyz
  x,y,z
_cell_length_a	18.215407
_cell_length_b	16.625545
_cell_length_c	18.215399
_cell_angle_alpha	90.026887
_cell_angle_beta	90.019833
_cell_angle_gamma	90.026006
loop_
_atom_site_label
_atom_site_type_symbol
_atom_site_fract_x
_atom_site_fract_y
_atom_site_fract_z
Zn1	Zn	1.125069	-0.321000	0.416121
Zn2	Zn	1.124975	-0.455841	0.293057
Zn3	Zn	1.002001	-0.321027	0.293069
Zn4	Zn	1.001966	-0.455796	0.416082
O5	O	1.063503	-0.388416	0.354582
O6	O	1.228040	-0.338895	0.399808
O7	O	1.108639	-0.437987	0.190074
O8	O	1.018380	-0.208191	0.309413
O9	O	1.227972	-0.437961	0.309394
O10	O	1.108797	-0.208171	0.399819
O11	O	1.018290	-0.338940	0.190083
O12	O	0.899012	-0.338896	0.309375
O13	O	1.018319	-0.437885	0.519072
O14	O	0.898986	-0.437910	0.399753
O15	O	1.108763	-0.338851	0.519100
O16	O	1.108604	-0.568667	0.309356
O17	O	1.018229	-0.568634	0.399742
C18	C	0.872296	-0.388402	0.354561
C19	C	0.790497	-0.388415	0.354570
C20	C	0.602309	-0.440053	0.401570
C21	C	0.525450	-0.440056	0.401579
C22	C	0.525448	-0.336793	0.307611
C23	C	0.602305	-0.336787	0.307606
C24	C	0.640734	-0.388422	0.354584
C25	C	0.487018	-0.388430	0.354598
C26	C	0.403684	-0.388433	0.354608
C27	C	0.724073	-0.388418	0.354576
C28	C	1.063423	-0.597907	0.354559
C29	C	1.063456	-0.687528	0.354574
C30	C	1.063484	-0.760310	0.354589
C31	C	1.063527	-0.851619	0.354605
C32	C	1.063565	-0.924395	0.354614
C33	C	1.063608	-1.015709	0.354629
C34	C	1.255456	-0.388430	0.354604
C35	C	1.337254	-0.388436	0.354613
C36	C	1.063547	-0.388360	0.546535
C37	C	1.063567	-0.388336	0.628334
C38	C	1.063603	-0.178107	0.354622
C39	C	1.063646	-0.088486	0.354639
C40	C	1.063500	-0.388413	0.163376
C41	C	1.063624	-0.388210	0.081578
C42	C	1.110677	-0.336721	0.816544
C43	C	1.110686	-0.336698	0.893403
C44	C	1.016508	-0.439827	0.893362
C45	C	1.016496	-0.439846	0.816505
C46	C	1.063585	-0.388294	0.778098
C47	C	1.063606	-0.388252	0.931814
C48	C	1.063615	-0.388227	1.015148
C49	C	1.063575	-0.388318	0.694759
H50	H	0.633592	-0.294737	0.269344
H51	H	0.494150	-0.294755	0.269361
C52	C	1.162463	-0.280008	0.774299
H53	H	1.190505	-0.249283	0.808207
H54	H	1.194513	-0.310853	0.744314
H55	H	1.134313	-0.244881	0.744323
C56	C	0.644582	-0.496846	0.453244
H57	H	0.695859	-0.489456	0.446507
H58	H	0.632013	-0.485118	0.502711
H59	H	0.631959	-0.551009	0.442381
H60	H	0.494168	-0.482098	0.439841
H61	H	1.149032	-0.294701	0.924703
H62	H	0.978142	-0.481842	0.785201
C63	C	0.964721	-0.496536	0.935612
H64	H	0.971478	-0.489145	0.986892
H65	H	0.915277	-0.484740	0.923011
H66	H	0.975472	-0.550716	0.923004
