data_functionalizedCrystal
_audit_creation_method	'MofGen! by Chris Wilmer'
_symmetry_space_group_name_H-M	'P1'
_symmetry_Int_Tables_number	1
_symmetry_cell_setting	triclinic
loop_
_symmetry_equiv_pos_as_xyz
  x,y,z
_cell_length_a	27.732048
_cell_length_b	18.366186
_cell_length_c	19.288857
_cell_angle_alpha	89.991598
_cell_angle_beta	82.887882
_cell_angle_gamma	89.996446
loop_
_atom_site_label
_atom_site_type_symbol
_atom_site_fract_x
_atom_site_fract_y
_atom_site_fract_z
O1	O	0.641178	-0.060459	0.082650
O2	O	0.974512	0.272874	0.415983
O3	O	1.307845	0.606207	0.749316
O4	O	0.500423	-0.060482	0.095216
O5	O	0.833756	0.272852	0.428550
O6	O	1.167089	0.606185	0.761883
O7	O	0.574870	-0.060461	-0.012223
O8	O	0.908203	0.272872	0.321110
O9	O	1.241536	0.606205	0.654444
O10	O	0.566731	-0.060480	0.190089
O11	O	0.900065	0.272853	0.523422
O12	O	1.233398	0.606187	0.856756
O13	O	0.574857	0.060638	-0.012228
O14	O	0.908190	0.393972	0.321105
O15	O	1.241524	0.727305	0.654438
O16	O	0.500410	0.060618	0.095211
O17	O	0.833743	0.393951	0.428545
O18	O	1.167077	0.727284	0.761878
O19	O	0.641166	0.060640	0.082644
O20	O	0.974499	0.393973	0.415978
O21	O	1.307832	0.727307	0.749311
Zn22	Zn	0.570786	0.079856	0.088927
Zn23	Zn	0.904119	0.413189	0.422260
Zn24	Zn	1.237452	0.746523	0.755594
Zn25	Zn	0.570802	-0.079698	0.088934
Zn26	Zn	0.904136	0.253636	0.422267
Zn27	Zn	1.237469	0.586969	0.755600
O28	O	0.566719	0.060619	0.190084
O29	O	0.900052	0.393953	0.523417
O30	O	1.233385	0.727286	0.856751
C31	C	0.482409	0.000065	0.094950
C32	C	0.815742	0.333398	0.428283
C33	C	1.149075	0.666732	0.761617
C34	C	0.428751	0.000057	0.094156
C35	C	0.762085	0.333390	0.427489
C36	C	1.095418	0.666724	0.760822
N37	N	0.570778	0.188747	0.088922
N38	N	0.904111	0.522080	0.422255
N39	N	1.237445	0.855414	0.755589
N40	N	0.570814	-0.188589	0.088933
N41	N	0.904147	0.144744	0.422267
N42	N	1.237481	0.478078	0.755600
C43	C	0.090112	0.000083	0.152645
C44	C	0.423445	0.333416	0.485978
C45	C	0.756778	0.666750	0.819311
C46	C	-0.111557	0.000090	0.149697
C47	C	0.221777	0.333423	0.483031
C48	C	0.555110	0.666756	0.816364
O49	O	-0.142652	0.000116	0.203181
O50	O	0.190682	0.333450	0.536515
O51	O	0.524015	0.666783	0.869848
N52	N	-0.130872	0.000094	0.085990
N53	N	0.202462	0.333428	0.419324
N54	N	0.535795	0.666761	0.752657
C55	C	-0.099766	0.000102	0.023015
C56	C	0.233567	0.333435	0.356349
C57	C	0.566901	0.666769	0.689682
O58	O	-0.120822	0.000114	-0.031239
O59	O	0.212511	0.333447	0.302094
O60	O	0.545845	0.666780	0.635428
C61	C	0.101901	0.000100	0.025963
C62	C	0.435235	0.333434	0.359297
C63	C	0.768568	0.666767	0.692630
C64	C	0.121213	0.000088	0.089675
C65	C	0.454547	0.333422	0.423008
C66	C	0.787880	0.666755	0.756341
C67	C	0.109424	0.000072	0.216351
C68	C	0.442758	0.333405	0.549684
C69	C	0.776091	0.666738	0.883017
C70	C	0.159838	0.000066	0.217087
C71	C	0.493172	0.333399	0.550420
C72	C	0.826505	0.666733	0.883754
C73	C	0.190940	0.000072	0.154117
C74	C	0.524273	0.333405	0.487450
C75	C	0.857607	0.666738	0.820784
C76	C	0.171628	0.000083	0.090411
C77	C	0.504961	0.333416	0.423744
C78	C	0.838294	0.666749	0.757077
C79	C	0.133006	0.000113	-0.037011
C80	C	0.466339	0.333447	0.296323
C81	C	0.799673	0.666780	0.629656
C82	C	0.183426	0.000115	-0.036268
C83	C	0.516759	0.333448	0.297065
C84	C	0.850092	0.666782	0.630399
C85	C	0.202738	0.000103	0.027443
C86	C	0.536071	0.333436	0.360776
C87	C	0.869404	0.666770	0.694110
C88	C	0.253143	0.000083	0.028177
C89	C	0.586477	0.333416	0.361510
C90	C	0.919810	0.666749	0.694844
N91	N	0.272458	0.000078	0.091884
N92	N	0.605792	0.333411	0.425217
N93	N	0.939125	0.666745	0.758551
C94	C	0.241357	0.000073	0.154854
C95	C	0.574690	0.333406	0.488187
C96	C	0.908023	0.666739	0.821521
C97	C	-0.205645	0.000101	0.021472
C98	C	0.127689	0.333435	0.354806
C99	C	0.461022	0.666768	0.688139
C100	C	-0.256061	0.000101	0.020735
C101	C	0.077272	0.333434	0.354068
C102	C	0.410605	0.666767	0.687402
C103	C	-0.267849	0.000090	0.147417
C104	C	0.065485	0.333423	0.480751
C105	C	0.398818	0.666756	0.814084
C106	C	-0.217431	0.000085	0.148154
C107	C	0.115902	0.333419	0.481487
C108	C	0.449236	0.666752	0.814821
C109	C	-0.186330	0.000097	0.085179
C110	C	0.147004	0.333430	0.418513
C111	C	0.480337	0.666763	0.751846
C112	C	0.347231	0.000060	0.156395
C113	C	0.680564	0.333393	0.489728
C114	C	1.013897	0.666727	0.823062
C115	C	0.397650	0.000051	0.157126
C116	C	0.730983	0.333385	0.490459
C117	C	1.064316	0.666718	0.823792
C118	C	0.409432	0.000066	0.030444
C119	C	0.742766	0.333399	0.363777
C120	C	1.076099	0.666733	0.697110
C121	C	0.359018	0.000071	0.029713
C122	C	0.692351	0.333404	0.363046
C123	C	1.025684	0.666738	0.696379
C124	C	0.327917	0.000070	0.092694
C125	C	0.661251	0.333404	0.426028
C126	C	0.994584	0.666737	0.759361
O127	O	0.284267	0.000064	-0.025278
O128	O	0.617600	0.333398	0.308055
O129	O	0.950934	0.666731	0.641388
O130	O	0.262422	0.000077	0.209101
O131	O	0.595755	0.333410	0.542434
O132	O	0.929089	0.666744	0.875767
C133	C	0.039698	0.000089	0.151909
C134	C	0.373031	0.333422	0.485242
C135	C	0.706364	0.666755	0.818575
C136	C	0.020385	0.000100	0.088202
C137	C	0.353718	0.333433	0.421536
C138	C	0.687052	0.666766	0.754869
C139	C	0.051487	0.000105	0.025232
C140	C	0.384820	0.333439	0.358566
C141	C	0.718153	0.666772	0.691899
C142	C	-0.030032	0.000099	0.087465
C143	C	0.303302	0.333432	0.420799
C144	C	0.636635	0.666766	0.754132
C145	C	-0.061133	0.000093	0.150435
C146	C	0.272200	0.333427	0.483769
C147	C	0.605534	0.666760	0.817102
C148	C	-0.041818	0.000089	0.214142
C149	C	0.291515	0.333422	0.547476
C150	C	0.624848	0.666755	0.880809
C151	C	0.008596	0.000083	0.214879
C152	C	0.341929	0.333416	0.548212
C153	C	0.675263	0.666750	0.881545
C154	C	0.032172	0.000110	-0.038475
C155	C	0.365505	0.333443	0.294859
C156	C	0.698838	0.666777	0.628192
C157	C	-0.018243	0.000115	-0.039206
C158	C	0.315090	0.333448	0.294128
C159	C	0.648424	0.666781	0.627461
C160	C	-0.049345	0.000109	0.023764
C161	C	0.283989	0.333443	0.357098
C162	C	0.617322	0.666776	0.690431
C163	C	0.659180	0.000092	0.082911
C164	C	0.992513	0.333425	0.416244
C165	C	1.325846	0.666758	0.749577
C166	C	0.712837	0.000095	0.083705
C167	C	1.046170	0.333428	0.417038
C168	C	1.379504	0.666762	0.750372
C169	C	0.574602	0.000089	-0.038101
C170	C	0.907935	0.333422	0.295233
C171	C	1.241269	0.666756	0.628566
C172	C	0.573818	0.000091	-0.115200
C173	C	0.907151	0.333424	0.218134
C174	C	1.240484	0.666758	0.551467
C175	C	0.603754	0.226857	0.041371
C176	C	0.937087	0.560190	0.374704
C177	C	1.270421	0.893523	0.708038
C178	C	0.603757	0.303084	0.041368
C179	C	0.937090	0.636418	0.374701
C180	C	1.270424	0.969751	0.708034
C181	C	0.570789	0.341200	0.088928
C182	C	0.904122	0.674533	0.422261
C183	C	1.237455	1.007866	0.755594
C184	C	0.537807	0.303081	0.136482
C185	C	0.871140	0.636414	0.469816
C186	C	1.204473	0.969748	0.803149
C187	C	0.537801	0.226855	0.136479
C188	C	0.871135	0.560188	0.469813
C189	C	1.204468	0.893521	0.803146
C190	C	0.564317	0.461954	0.152256
C191	C	0.897650	0.795287	0.485589
C192	C	1.230983	1.128620	0.818923
C193	C	0.564326	0.538179	0.152260
C194	C	0.897659	0.871512	0.485593
C195	C	1.230992	1.204845	0.818926
C196	C	0.570802	0.576307	0.088936
C197	C	0.904136	0.909641	0.422269
C198	C	1.237469	1.242974	0.755603
C199	C	0.577281	0.538202	0.025606
C200	C	0.910614	0.871535	0.358939
C201	C	1.243948	1.204868	0.692273
C202	C	0.577276	0.461975	0.025603
C203	C	0.910609	0.795309	0.358937
C204	C	1.243942	1.128642	0.692270
C205	C	0.570791	0.423855	0.088936
C206	C	0.904124	0.757188	0.422269
C207	C	1.237457	1.090521	0.755602
C208	C	0.603783	0.697072	0.041378
C209	C	0.937117	1.030405	0.374711
C210	C	1.270450	1.363738	0.708044
C211	C	0.603783	0.773301	0.041374
C212	C	0.937117	1.106634	0.374707
C213	C	1.270450	1.439968	0.708040
C214	C	0.537835	0.773296	0.136494
C215	C	0.871169	1.106630	0.469828
C216	C	1.204502	1.439963	0.803161
C217	C	0.537833	0.697068	0.136492
C218	C	0.871167	1.030402	0.469826
C219	C	1.204500	1.363735	0.803159
C220	C	0.570810	0.658961	0.088935
C221	C	0.904143	0.992294	0.422268
C222	C	1.237477	1.325627	0.755601
C223	C	0.573459	-0.065920	-0.151405
C224	C	0.906792	0.267413	0.181928
C225	C	1.240125	0.600746	0.515262
C226	C	0.572715	-0.065926	-0.223846
C227	C	0.906048	0.267407	0.109487
C228	C	1.239382	0.600741	0.442820
C229	C	0.572340	0.000084	-0.260082
C230	C	0.905673	0.333417	0.073252
C231	C	1.239007	0.666750	0.406585
C232	C	0.572697	0.066104	-0.223867
C233	C	0.906030	0.399437	0.109467
C234	C	1.239363	0.732771	0.442800
C235	C	0.573435	0.066108	-0.151426
C236	C	0.906769	0.399441	0.181908
C237	C	1.240102	0.732774	0.515241
C238	C	0.599477	0.050656	-0.380484
C239	C	0.932810	0.383989	-0.047151
C240	C	1.266143	0.717322	0.286182
C241	C	0.598741	0.050649	-0.452925
C242	C	0.932074	0.383982	-0.119591
C243	C	1.265407	0.717316	0.213742
C244	C	0.570059	0.000075	-0.483513
C245	C	0.903392	0.333409	-0.150180
C246	C	1.236726	0.666742	0.183154
C247	C	0.542120	-0.050505	-0.441654
C248	C	0.875453	0.282829	-0.108320
C249	C	1.208786	0.616162	0.225013
C250	C	0.542859	-0.050501	-0.369213
C251	C	0.876192	0.282832	-0.035879
C252	C	1.209525	0.616166	0.297454
C253	C	0.571539	0.000087	-0.338632
C254	C	0.904872	0.333420	-0.005298
C255	C	1.238205	0.666754	0.328035
C256	C	0.568893	-0.065947	-0.598268
C257	C	0.902226	0.267387	-0.264934
C258	C	1.235560	0.600720	0.068399
C259	C	0.568146	-0.065950	-0.670710
C260	C	0.901479	0.267384	-0.337376
C261	C	1.234813	0.600717	-0.004043
C262	C	0.568133	0.066082	-0.670730
C263	C	0.901466	0.399415	-0.337396
C264	C	1.234799	0.732749	-0.004063
C265	C	0.568874	0.066083	-0.598288
C266	C	0.902208	0.399416	-0.264955
C267	C	1.235541	0.732750	0.068379
C268	C	0.569257	0.000067	-0.562062
C269	C	0.902590	0.333400	-0.228728
C270	C	1.235923	0.666733	0.104605
C271	C	0.566986	0.000067	0.215961
C272	C	0.900320	0.333401	0.549295
C273	C	1.233653	0.666734	0.882628
C274	C	0.567770	0.000061	0.293060
C275	C	0.901104	0.333394	0.626394
C276	C	1.234437	0.666727	0.959727
H277	H	0.413370	0.000041	0.209009
H278	H	0.746704	0.333374	0.542343
H279	H	1.080037	0.666708	0.875676
Cl280	Cl	0.645207	0.178950	-0.018418
Cl281	Cl	0.978540	0.512284	0.314915
Cl282	Cl	1.311873	0.845617	0.648249
Cl283	Cl	0.572263	-0.148918	-0.269372
Cl284	Cl	0.905597	0.184415	0.063962
Cl285	Cl	1.238930	0.517749	0.397295
Cl286	Cl	0.071264	0.000117	-0.117646
Cl287	Cl	0.404597	0.333450	0.215688
Cl288	Cl	0.737931	0.666784	0.549021
Cl289	Cl	0.308141	0.000058	0.235573
Cl290	Cl	0.641474	0.333392	0.568906
Cl291	Cl	0.974807	0.666725	0.902240
Cl292	Cl	0.506058	-0.114085	-0.480098
Cl293	Cl	0.839391	0.219249	-0.146765
Cl294	Cl	1.172724	0.552582	0.186568
Cl295	Cl	0.569370	-0.148937	-0.552722
Cl296	Cl	0.902703	0.184396	-0.219389
Cl297	Cl	1.236036	0.517730	0.113945
H298	H	0.024315	0.000074	0.266759
H299	H	0.357648	0.333408	0.600092
H300	H	0.690981	0.666741	0.933425
H301	H	0.175557	0.000056	0.268967
H302	H	0.508891	0.333389	0.602300
H303	H	0.842224	0.666723	0.935634
H304	H	0.520108	-0.091683	-0.335133
H305	H	0.853442	0.241650	-0.001800
H306	H	1.186775	0.574983	0.331533
Cl307	Cl	0.108741	0.000116	-0.117110
Cl308	Cl	0.442074	0.333450	0.216223
Cl309	Cl	0.775408	0.666783	0.549556
Cl310	Cl	0.569326	0.149074	-0.552770
Cl311	Cl	0.902659	0.482407	-0.219436
Cl312	Cl	1.235992	0.815741	0.113897
H313	H	0.573726	0.119864	-0.121947
H314	H	0.907059	0.453197	0.211386
H315	H	1.240392	0.786530	0.544719
H316	H	0.084106	0.000070	0.267631
H317	H	0.417439	0.333403	0.600965
H318	H	0.750772	0.666737	0.934298
Cl319	Cl	0.633866	0.114232	-0.505541
Cl320	Cl	0.967199	0.447565	-0.172207
Cl321	Cl	1.300533	0.780898	0.161126
Cl322	Cl	0.635550	0.114224	-0.342041
Cl323	Cl	0.968883	0.447558	-0.008708
Cl324	Cl	1.302217	0.780891	0.324625
Cl325	Cl	0.572221	0.149088	-0.269417
Cl326	Cl	0.905555	0.482421	0.063916
Cl327	Cl	1.238888	0.815754	0.397249
H328	H	-0.201711	0.000080	0.200033
H329	H	0.131622	0.333413	0.533366
H330	H	0.464956	0.666746	0.866700
Cl331	Cl	0.567691	-0.148943	-0.716225
Cl332	Cl	0.901024	0.184390	-0.382892
Cl333	Cl	1.234358	0.517723	-0.049559
H334	H	-0.033961	0.000119	-0.091091
H335	H	0.299372	0.333452	0.242242
H336	H	0.632705	0.666785	0.575576
Cl337	Cl	0.645217	0.351002	-0.018416
Cl338	Cl	0.978550	0.684335	0.314918
Cl339	Cl	1.311883	1.017668	0.648251
H340	H	-0.293180	0.000085	0.198690
H341	H	0.040153	0.333419	0.532023
H342	H	0.373486	0.666752	0.865357
H343	H	0.343293	0.000070	-0.022166
H344	H	0.676627	0.333403	0.311167
H345	H	1.009960	0.666737	0.644501
H346	H	0.582549	0.430953	-0.025962
H347	H	0.915883	0.764286	0.307371
H348	H	1.249216	1.097620	0.640704
Cl349	Cl	0.222522	0.000131	-0.115441
Cl350	Cl	0.555855	0.333464	0.217892
Cl351	Cl	0.889188	0.666797	0.551225
Cl352	Cl	0.585428	0.586126	-0.054006
Cl353	Cl	0.918761	0.919459	0.279327
Cl354	Cl	1.252094	1.252793	0.612660
Cl355	Cl	-0.280333	0.000097	-0.059362
Cl356	Cl	0.053001	0.333431	0.273971
Cl357	Cl	0.386334	0.666764	0.607304
Cl358	Cl	0.496378	0.649155	0.196277
Cl359	Cl	0.829712	0.982488	0.529611
Cl360	Cl	1.163045	1.315821	0.862944
Cl361	Cl	-0.166552	0.000114	-0.057704
Cl362	Cl	0.166781	0.333447	0.275629
Cl363	Cl	0.500114	0.666781	0.608962
H364	H	0.434764	0.000068	-0.020825
H365	H	0.768098	0.333401	0.312509
H366	H	1.101431	0.666735	0.645842
Cl367	Cl	0.645237	0.649164	-0.018412
Cl368	Cl	0.978570	0.982497	0.314921
Cl369	Cl	1.311904	1.315831	0.648255
Cl370	Cl	0.496386	0.821207	0.196279
Cl371	Cl	0.829719	1.154541	0.529612
Cl372	Cl	1.163053	1.487874	0.862946
H373	H	0.630635	0.804330	0.002648
H374	H	0.963968	1.137664	0.335982
H375	H	1.297301	1.470997	0.669315
Cl376	Cl	-0.080927	0.000079	0.293304
Cl377	Cl	0.252406	0.333412	0.626637
Cl378	Cl	0.585740	0.666745	0.959970
Cl379	Cl	0.556185	0.586075	0.231873
Cl380	Cl	0.889518	0.919408	0.565207
Cl381	Cl	1.222851	1.252742	0.898540
H382	H	0.559034	0.430915	0.203825
H383	H	0.892367	0.764249	0.537158
H384	H	1.225701	1.097582	0.870492
H385	H	0.567824	0.119829	-0.700231
H386	H	0.901157	0.453162	-0.366897
H387	H	1.234490	0.786495	-0.033564
H388	H	0.510963	0.334118	0.175205
H389	H	0.844296	0.667452	0.508539
H390	H	1.177629	1.000785	0.841872
Cl391	Cl	0.496343	0.178942	0.196264
Cl392	Cl	0.829677	0.512276	0.529597
Cl393	Cl	1.163010	0.845609	0.862930
H394	H	0.573769	-0.119676	-0.121914
H395	H	0.907102	0.213657	0.211419
H396	H	1.240435	0.546990	0.544753
