data_functionalizedCrystal
_audit_creation_method	'MofGen! by Chris Wilmer'
_symmetry_space_group_name_H-M	'P1'
_symmetry_Int_Tables_number	1
_symmetry_cell_setting	triclinic
loop_
_symmetry_equiv_pos_as_xyz
  x,y,z
_cell_length_a	12.759401
_cell_length_b	12.594516
_cell_length_c	12.759393
_cell_angle_alpha	90.028918
_cell_angle_beta	90.022037
_cell_angle_gamma	90.018434
loop_
_atom_site_label
_atom_site_type_symbol
_atom_site_fract_x
_atom_site_fract_y
_atom_site_fract_z
Zn1	Zn	1.606241	-0.423683	0.594062
Zn2	Zn	1.606121	-0.601699	0.418387
Zn3	Zn	1.430540	-0.423736	0.418394
Zn4	Zn	1.430521	-0.601621	0.594021
O5	O	1.518356	-0.512685	0.506216
O6	O	1.753246	-0.447308	0.570773
O7	O	1.582788	-0.578147	0.271367
O8	O	1.453905	-0.274783	0.441717
O9	O	1.753158	-0.578096	0.441705
O10	O	1.582992	-0.274744	0.570780
O11	O	1.453789	-0.447398	0.271372
O12	O	1.283516	-0.447322	0.441677
O13	O	1.453873	-0.577962	0.741048
O14	O	1.283502	-0.578013	0.570710
O15	O	1.582974	-0.447232	0.741078
O16	O	1.582770	-0.750635	0.441665
O17	O	1.453757	-0.750577	0.570703
C18	C	1.245388	-0.512666	0.506190
C19	C	1.128612	-0.512683	0.506204
C20	C	1.073700	-0.580676	0.438912
C21	C	0.963976	-0.580694	0.438940
C22	C	0.964085	-0.444718	0.573554
C23	C	1.073807	-0.444706	0.573531
C24	C	0.813977	-0.706192	0.401222
C25	C	0.759062	-0.774175	0.333913
C26	C	0.794608	-0.790388	0.231364
C27	C	0.885068	-0.738602	0.196102
C28	C	0.939978	-0.670611	0.263405
C29	C	0.904433	-0.654419	0.365969
C30	C	1.223808	-0.319206	0.611238
C31	C	1.278720	-0.251209	0.678536
C32	C	1.243176	-0.234985	0.781087
C33	C	1.152712	-0.286752	0.816345
C34	C	1.097800	-0.354749	0.749047
C35	C	1.133352	-0.370975	0.646497
C36	C	1.518277	-0.789226	0.506202
C37	C	1.518339	-0.907531	0.506231
C38	C	1.448226	-1.047555	0.576379
C39	C	1.544008	-0.976643	0.602154
C40	C	1.422567	-0.976872	0.480502
C41	C	1.614343	-1.047404	0.532095
C42	C	1.492838	-1.047640	0.410399
C43	C	1.588686	-0.976759	0.436137
C44	C	1.792389	-0.512705	0.506243
C45	C	1.909166	-0.512713	0.506255
C46	C	1.518434	-0.512583	0.780250
C47	C	1.518468	-0.512539	0.897027
C48	C	1.518464	-0.235064	0.506254
C49	C	1.518510	-0.116758	0.506270
C50	C	1.518338	-0.512710	0.233249
C51	C	1.518508	-0.512453	0.116473
C52	C	1.585696	-0.444457	0.951906
C53	C	1.585713	-0.444411	1.061630
C54	C	1.451273	-0.580538	1.061586
C55	C	1.451251	-0.580578	0.951864
C56	C	1.623333	-0.318833	1.211606
C57	C	1.690577	-0.250760	1.266489
C58	C	1.793091	-0.234441	1.230899
C59	C	1.828381	-0.286210	1.140428
C60	C	1.761143	-0.354290	1.085550
C61	C	1.658615	-0.370589	1.121138
C62	C	1.413642	-0.706158	0.801886
C63	C	1.346408	-0.774245	0.747007
C64	C	1.243892	-0.790575	0.782594
C65	C	1.208606	-0.738825	0.873069
C66	C	1.275840	-0.670738	0.927949
C67	C	1.378354	-0.654406	0.892353
H68	H	1.252765	-0.332422	0.527736
H69	H	1.388936	-1.078637	0.635729
O70	O	1.384449	-0.830013	0.649387
H71	H	1.320471	-0.880091	0.617200
H72	H	1.341501	-0.945884	0.458725
O73	O	1.721758	-1.088263	0.561072
H74	H	1.743061	-1.059120	0.640381
H75	H	1.648118	-0.945871	0.376832
H76	H	1.123765	-0.273534	0.899848
H77	H	0.749891	-0.845746	0.176563
O78	O	1.572681	-0.935313	0.709517
H79	H	1.514296	-0.963654	0.767592
H80	H	1.661834	-0.208610	1.340151
O81	O	0.775630	-0.688708	0.511831
H82	H	0.774418	-0.765656	0.554183
H83	H	0.685408	-0.816338	0.362633
H84	H	1.287888	-0.179604	0.835876
O85	O	1.464135	-1.088987	0.303057
H86	H	1.384494	-1.060794	0.281858
O87	O	1.376295	-0.195371	0.640516
H88	H	1.391800	-0.218087	0.557903
H89	H	1.247101	-0.628600	1.001618
H90	H	1.640426	-0.389052	0.907261
O91	O	1.799185	-0.410120	0.987970
H92	H	1.881768	-0.387334	0.972436
O93	O	1.938960	-0.268625	1.102049
H94	H	1.979785	-0.212585	1.155405
H95	H	1.539856	-0.332105	1.240586
H96	H	1.497116	-0.692859	0.772896
O97	O	1.865618	-0.161006	1.290078
H98	H	1.823855	-0.127745	1.358958
O99	O	1.378777	-0.653924	1.120730
H100	H	1.390091	-0.642466	1.206247
O101	O	1.098031	-0.756423	0.911460
H102	H	1.057204	-0.812450	0.858093
H103	H	1.189155	-0.846027	0.737907
H104	H	1.013626	-0.628445	0.234694
O105	O	1.132816	-0.653996	0.366306
H106	H	1.076194	-0.701285	0.319526
H107	H	0.913996	-0.751799	0.112592
H108	H	1.024132	-0.396889	0.777758
O109	O	0.904976	-0.371384	0.646153
H110	H	0.819453	-0.382803	0.634855
