data_functionalizedCrystal
_audit_creation_method	'MofGen! by Chris Wilmer'
_symmetry_space_group_name_H-M	'P1'
_symmetry_Int_Tables_number	1
_symmetry_cell_setting	triclinic
loop_
_symmetry_equiv_pos_as_xyz
  x,y,z
_cell_length_a	10.654550
_cell_length_b	9.016244
_cell_length_c	10.654548
_cell_angle_alpha	90.000363
_cell_angle_beta	84.484601
_cell_angle_gamma	90.010882
loop_
_atom_site_label
_atom_site_type_symbol
_atom_site_fract_x
_atom_site_fract_y
_atom_site_fract_z
O1	O	1.667846	0.123456	0.176394
O2	O	1.302367	0.123431	0.193200
O3	O	1.493511	0.123441	0.002057
O4	O	1.476703	0.123446	0.367536
O5	O	1.493483	-0.123240	0.002062
O6	O	1.302339	-0.123249	0.193204
O7	O	1.667818	-0.123225	0.176398
Cu8	Cu	1.485076	-0.145761	0.184801
Cu9	Cu	1.485109	0.145968	0.184796
O10	O	1.476675	-0.123235	0.367540
C11	C	1.255555	0.000088	0.191968
C12	C	1.116112	0.000079	0.188276
N13	N	1.485062	-0.350947	0.184804
C14	C	1.036626	0.000102	0.300818
C15	C	0.905605	0.000128	0.297341
C16	C	0.933570	0.000113	0.068771
C17	C	1.064588	0.000077	0.072249
C18	C	1.088150	0.000104	0.416844
C19	C	1.008662	0.000129	0.529395
C20	C	0.877642	0.000154	0.525919
C21	C	0.826108	0.000155	0.409891
C22	C	1.382499	-0.585985	0.286710
C23	C	1.382726	-0.414094	0.287091
C24	C	1.616358	-0.413276	0.214570
C25	C	1.615798	-0.585221	0.215291
C26	C	1.457632	-0.585495	0.052799
C27	C	1.454619	-0.413541	0.053655
C28	C	1.714630	0.000122	0.177630
C29	C	1.854073	0.000141	0.181322
C30	C	1.492263	0.000103	-0.044739
C31	C	1.488572	0.000110	-0.184182
N32	N	1.485133	0.351154	0.184784
C33	C	1.483365	0.134576	-0.380716
C34	C	1.486848	0.134578	-0.249696
C35	C	1.486824	-0.134367	-0.249696
C36	C	1.483350	-0.134367	-0.380715
C37	C	1.481628	0.269053	-0.446221
C38	C	1.483378	0.403531	-0.380716
C39	C	1.486862	0.403532	-0.249696
C40	C	1.488596	0.269055	-0.184181
C41	C	1.477922	0.000107	0.414336
C42	C	1.481614	0.000109	0.553779
H43	H	1.194832	0.000090	0.419688
H44	H	1.050630	0.000115	0.623860
Cl45	Cl	0.777718	0.000171	0.667408
H46	H	1.400399	-0.372945	0.385013
Cl47	Cl	0.661394	0.000166	0.405525
Cl48	Cl	0.868783	0.000122	-0.077081
Cl49	Cl	1.164520	0.000045	-0.069234
Cl50	Cl	1.232081	-0.349031	0.259533
H51	H	1.488298	0.513030	-0.196367
H52	H	1.284635	-0.627385	0.269083
H53	H	1.399942	-0.629175	0.384077
Cl54	Cl	1.652942	-0.647117	0.363956
H55	H	1.694617	-0.626799	0.144041
Cl56	Cl	1.737157	-0.350126	0.103079
Cl57	Cl	1.654341	-0.346768	0.361555
H58	H	1.363916	-0.628949	0.024459
Cl59	Cl	1.305493	-0.350651	0.018814
H60	H	1.491444	0.269067	-0.077498
Cl61	Cl	1.481156	-0.303415	-0.463071
Cl62	Cl	1.488997	-0.303411	-0.167333
Cl63	Cl	1.562403	-0.347208	-0.069073
H64	H	1.532465	-0.626143	-0.023065
H65	H	1.478787	0.269067	-0.552904
H66	H	1.481976	0.513017	-0.434068
