data_functionalizedCrystal
_audit_creation_method	'MofGen! by Chris Wilmer'
_symmetry_space_group_name_H-M	'P1'
_symmetry_Int_Tables_number	1
_symmetry_cell_setting	triclinic
loop_
_symmetry_equiv_pos_as_xyz
  x,y,z
_cell_length_a	19.288840
_cell_length_b	15.538191
_cell_length_c	18.366186
_cell_angle_alpha	89.995484
_cell_angle_beta	89.983729
_cell_angle_gamma	65.199056
loop_
_atom_site_label
_atom_site_type_symbol
_atom_site_fract_x
_atom_site_fract_y
_atom_site_fract_z
O1	O	0.892003	0.117530	-0.060660
O2	O	0.685769	0.133424	-0.060634
O3	O	0.829031	-0.011828	-0.060656
O4	O	0.748741	0.262782	-0.060638
O5	O	0.829015	-0.011835	0.060444
O6	O	0.685753	0.133417	0.060466
O7	O	0.891987	0.117523	0.060439
Zn8	Zn	0.788867	0.125469	0.079679
Zn9	Zn	0.788889	0.125478	-0.079874
O10	O	0.748725	0.262775	0.060461
C11	C	0.660011	0.132913	-0.000081
C12	C	0.583287	0.131390	-0.000071
C13	C	0.547276	0.130662	-0.066084
C14	C	0.475189	0.129220	-0.066093
C15	C	0.439123	0.128487	-0.000085
C16	C	0.475142	0.129220	0.065936
C17	C	0.547224	0.130672	0.065944
C18	C	0.344162	0.070948	0.050472
C19	C	0.272084	0.069491	0.050462
C20	C	0.216797	0.124015	-0.000105
C21	C	0.233602	0.179984	-0.050674
C22	C	0.305684	0.181435	-0.050667
C23	C	0.360962	0.126914	-0.000086
C24	C	0.102620	0.121725	-0.066132
C25	C	0.030530	0.120288	-0.066139
C26	C	0.030488	0.120279	0.065893
C27	C	0.102573	0.121725	0.065898
C28	C	0.138637	0.122443	-0.000117
C29	C	0.837424	-0.046963	-0.000110
C30	C	0.862446	-0.151646	-0.000120
C31	C	0.613857	-0.438352	-0.000072
C32	C	0.637386	-0.536720	-0.000074
C33	C	0.769736	-0.559741	-0.000091
C34	C	0.746217	-0.461372	-0.000093
C35	C	0.668277	-0.400685	-0.000083
C36	C	0.800637	-0.423706	-0.000104
C37	C	0.777120	-0.325346	-0.000102
C38	C	0.699183	-0.264652	-0.000090
C39	C	0.644759	-0.302325	-0.000081
C40	C	0.878577	-0.484395	-0.000109
C41	C	0.932997	-0.446728	-0.000120
C42	C	0.909480	-0.348366	-0.000123
C43	C	0.831543	-0.287673	-0.000111
C44	C	0.963903	-0.310694	-0.000132
C45	C	0.940386	-0.212334	-0.000130
C46	C	0.808026	-0.189313	-0.000109
C47	C	0.917745	0.118034	-0.000116
C48	C	0.994469	0.119557	-0.000130
C49	C	0.740333	0.297910	-0.000087
C50	C	0.715310	0.402593	-0.000081
N51	N	0.788858	0.125462	0.188571
N52	N	0.788906	0.125478	-0.188765
C53	C	0.852302	0.061176	0.226661
C54	C	0.852307	0.061172	0.302889
C55	C	0.788871	0.125470	0.341023
C56	C	0.725417	0.189761	0.302923
C57	C	0.725411	0.189757	0.226697
C58	C	0.758107	0.211396	0.461790
C59	C	0.758119	0.211401	0.538015
C60	C	0.788888	0.125481	0.576131
C61	C	0.819662	0.039553	0.538013
C62	C	0.819655	0.039549	0.461786
C63	C	0.788871	0.125481	0.423678
C64	C	0.852342	0.061185	0.696876
C65	C	0.852343	0.061180	0.773106
C66	C	0.725454	0.189777	0.773139
C67	C	0.725452	0.189774	0.696911
C68	C	0.788899	0.125480	0.658784
H69	H	0.389174	0.026545	0.091653
O70	O	0.920764	-0.008168	0.655745
H71	H	0.964877	-0.052884	0.695042
O72	O	0.323811	0.241808	-0.105196
H73	H	0.273260	0.279487	-0.140358
O74	O	0.724900	0.304076	0.420686
H75	H	0.730052	0.289639	0.361278
O76	O	0.560694	-0.236861	-0.000075
H77	H	0.546809	-0.191495	0.049283
H78	H	0.673792	0.242126	0.665895
H79	H	0.844717	-0.030412	0.569045
O80	O	0.724943	0.304076	0.579127
H81	H	0.703536	0.363820	0.539818
H82	H	0.904006	0.008826	0.804120
O83	O	-0.008373	0.119536	0.137117
H84	H	-0.016914	0.184096	0.168731
H85	H	0.673766	0.242112	0.333976
H86	H	0.445772	0.128626	0.119681
O87	O	0.586062	0.131463	0.137151
H88	H	0.641306	0.067866	0.140314
H89	H	0.550390	-0.388936	-0.000069
H90	H	0.673746	0.242107	0.195683
O91	O	0.920743	-0.008167	0.343981
H92	H	0.910086	0.002637	0.403391
O93	O	0.253966	0.009125	0.105005
H94	H	0.239230	-0.043419	0.075697
O95	O	0.141417	0.122524	0.137098
H96	H	0.104230	0.121775	0.182997
H97	H	0.673802	0.242126	0.804187
H98	H	1.027362	-0.360119	-0.000133
O99	O	0.586170	0.131449	-0.137282
H100	H	0.549010	0.130709	-0.183188
O101	O	0.673810	-0.158562	-0.000080
H102	H	0.639040	-0.127655	-0.049429
O103	O	0.436340	0.128416	-0.137295
H104	H	0.473531	0.129149	-0.183197
O105	O	0.173980	0.238805	-0.105217
H106	H	0.121029	0.228407	-0.096722
O107	O	0.723961	-0.123846	-0.000096
H108	H	0.696744	-0.137204	-0.049448
O109	O	0.578688	-0.577351	-0.000069
H110	H	0.520542	-0.518623	-0.000067
H111	H	0.897722	-0.564485	-0.000117
H112	H	0.131981	0.122319	-0.119885
H113	H	0.903963	0.008821	0.195621
H114	H	0.001208	0.119701	-0.119897
H115	H	0.833195	-0.609165	-0.000097
H116	H	0.996456	-0.496153	-0.000125
H117	H	0.984701	-0.181665	-0.000138
O118	O	0.852832	-0.053122	0.420670
H119	H	0.874225	-0.112872	0.459974
