data_functionalizedCrystal
_audit_creation_method	'MofGen! by Chris Wilmer'
_symmetry_space_group_name_H-M	'P1'
_symmetry_Int_Tables_number	1
_symmetry_cell_setting	triclinic
loop_
_symmetry_equiv_pos_as_xyz
  x,y,z
_cell_length_a	27.731994
_cell_length_b	17.038278
_cell_length_c	16.098538
_cell_angle_alpha	92.913375
_cell_angle_beta	87.290733
_cell_angle_gamma	86.865519
loop_
_atom_site_label
_atom_site_type_symbol
_atom_site_fract_x
_atom_site_fract_y
_atom_site_fract_z
O1	O	0.647204	0.089267	-0.069149
O2	O	1.147204	0.589267	0.430851
O3	O	0.507057	0.103448	-0.069178
O4	O	1.007057	0.603448	0.430822
O5	O	0.576298	-0.017447	-0.069143
O6	O	1.076298	0.482553	0.430857
O7	O	0.577964	0.210162	-0.069185
O8	O	1.077964	0.710162	0.430815
O9	O	0.572252	-0.010412	0.069368
O10	O	1.072252	0.489588	0.569368
O11	O	0.503011	0.110483	0.069332
O12	O	1.003011	0.610483	0.569332
O13	O	0.643159	0.096302	0.069362
O14	O	1.143159	0.596302	0.569362
Zn15	Zn	0.572442	0.104509	0.091339
Zn16	Zn	1.072442	0.604509	0.591339
Zn17	Zn	0.577773	0.095241	-0.091155
Zn18	Zn	1.077773	0.595241	0.408845
O19	O	0.573918	0.217196	0.069326
O20	O	1.073918	0.717196	0.569326
C21	C	0.487013	0.106674	0.000074
C22	C	0.987013	0.606674	0.500074
C23	C	0.433317	0.105797	0.000063
C24	C	0.933317	0.605797	0.500063
C25	C	0.572760	-0.043039	0.000116
C26	C	1.072760	0.456961	0.500116
C27	C	0.568239	-0.129778	0.000126
C28	C	1.068239	0.370222	0.500126
C29	C	0.540473	-0.619861	0.000044
C30	C	1.040473	-0.119861	0.500044
C31	C	0.544724	-0.538361	0.000053
C32	C	1.044724	-0.038361	0.500053
C33	C	0.590477	-0.507474	0.000074
C34	C	1.090477	-0.007474	0.500074
C35	C	0.631983	-0.558093	0.000078
C36	C	1.131983	-0.058093	0.500078
C37	C	0.627733	-0.639591	0.000063
C38	C	1.127733	-0.139591	0.500063
C39	C	0.605495	-0.261895	0.000115
C40	C	1.105495	0.238105	0.500115
C41	C	0.609742	-0.180390	0.000132
C42	C	1.109742	0.319610	0.500132
C43	C	0.522482	-0.160664	0.000106
C44	C	1.022482	0.339336	0.500106
C45	C	0.518235	-0.242164	0.000096
C46	C	1.018235	0.257836	0.500096
C47	C	0.559741	-0.292776	0.000095
C48	C	1.059741	0.207224	0.500095
C49	C	0.594823	-0.424168	0.000086
C50	C	1.094823	0.075832	0.500086
C51	C	0.555396	-0.376081	0.000077
C52	C	1.055396	0.123919	0.500077
C53	C	0.098140	0.104111	0.075599
C54	C	0.598140	0.604111	0.575599
C55	C	-0.103671	0.100779	0.075609
C56	C	0.396329	0.600779	0.575609
O57	O	-0.131641	0.103575	0.139820
O58	O	0.368359	0.603575	0.639820
N59	N	-0.126700	0.096530	0.000107
N60	N	0.373300	0.596530	0.500107
C61	C	-0.099272	0.093109	-0.075403
C62	C	0.400728	0.593109	0.424597
O63	O	-0.123489	0.089411	-0.139622
O64	O	0.376511	0.589411	0.360378
C65	C	0.102538	0.096436	-0.075413
C66	C	0.602538	0.596436	0.424587
C67	C	0.125564	0.100693	0.000094
C68	C	0.625564	0.600693	0.500094
C69	C	0.121165	0.108366	0.151100
C70	C	0.621165	0.608366	0.651100
C71	C	0.171615	0.109204	0.151096
C72	C	0.671615	0.609204	0.651096
C73	C	0.199039	0.105786	0.075592
C74	C	0.699039	0.605786	0.575592
C75	C	0.176013	0.101530	0.000091
C76	C	0.676013	0.601530	0.500091
C77	C	0.129966	0.093010	-0.150922
C78	C	0.629966	0.593010	0.349078
C79	C	0.180421	0.093840	-0.150917
C80	C	0.680421	0.593840	0.349083
C81	C	0.203446	0.098097	-0.075410
C82	C	0.703446	0.598097	0.424590
C83	C	0.253887	0.098949	-0.075416
C84	C	0.753887	0.598949	0.424584
N85	N	0.276915	0.103198	0.000086
N86	N	0.776915	0.603198	0.500086
C87	C	0.249491	0.106616	0.075590
C88	C	0.749491	0.606616	0.575590
C89	C	-0.205225	0.091365	-0.075393
C90	C	0.294775	0.591365	0.424607
C91	C	-0.255678	0.090534	-0.075391
C92	C	0.244322	0.590534	0.424609
C93	C	-0.260073	0.098202	0.075621
C94	C	0.239927	0.598202	0.575621
C95	C	-0.209620	0.099038	0.075618
C96	C	0.290380	0.599038	0.575618
C97	C	-0.182197	0.095613	0.000109
C98	C	0.317803	0.595613	0.500109
C99	C	0.355439	0.108375	0.075577
C100	C	0.855439	0.608375	0.575577
C101	C	0.405893	0.109215	0.075567
C102	C	0.905893	0.609215	0.575567
C103	C	0.410285	0.101543	-0.075445
C104	C	0.910285	0.601543	0.424555
C105	C	0.359835	0.100707	-0.075435
C106	C	0.859835	0.600707	0.424565
C107	C	0.332413	0.104120	0.000083
C108	C	0.832413	0.604120	0.500083
O109	O	0.281887	0.096146	-0.139594
O110	O	0.781887	0.596146	0.360406
O111	O	0.273718	0.110296	0.139799
O112	O	0.773718	0.610296	0.639799
C113	C	0.047690	0.103274	0.075602
C114	C	0.547690	0.603274	0.575602
C115	C	0.024665	0.099018	0.000101
C116	C	0.524665	0.599018	0.500101
C117	C	0.052089	0.095600	-0.075403
C118	C	0.552089	0.595600	0.424597
C119	C	-0.025788	0.098188	0.000103
C120	C	0.474212	0.598188	0.500103
C121	C	-0.053212	0.101606	0.075607
C122	C	0.446788	0.601606	0.575607
C123	C	-0.030183	0.105855	0.151109
C124	C	0.469817	0.605855	0.651109
C125	C	0.020266	0.106692	0.151106
C126	C	0.520266	0.606692	0.651106
C127	C	0.029060	0.091352	-0.150905
C128	C	0.529060	0.591352	0.349095
C129	C	-0.021390	0.090516	-0.150896
C130	C	0.478610	0.590516	0.349104
C131	C	-0.048814	0.093934	-0.075392
C132	C	0.451186	0.593934	0.424608
C133	C	0.663202	0.093076	0.000108
C134	C	1.163202	0.593076	0.500108
C135	C	0.716898	0.093953	0.000113
C136	C	1.216898	0.593953	0.500113
C137	C	0.577456	0.242789	0.000066
C138	C	1.077456	0.742789	0.500066
C139	C	0.581976	0.329527	0.000050
C140	C	1.081976	0.829527	0.500050
N141	N	0.568808	0.110834	0.215886
N142	N	1.068808	0.610834	0.715886
N143	N	0.581411	0.088909	-0.215703
N144	N	1.081411	0.588909	0.284297
C145	C	0.598209	0.059539	0.259486
C146	C	1.098209	0.559539	0.759486
C147	C	0.595671	0.063971	0.346674
C148	C	1.095671	0.563971	0.846674
C149	C	0.563735	0.119702	0.390260
C150	C	1.063735	0.619702	0.890260
C151	C	0.534331	0.170999	0.346653
C152	C	1.034331	0.670999	0.846653
C153	C	0.536866	0.166563	0.259467
C154	C	1.036866	0.666563	0.759467
C155	C	0.554542	0.135770	0.653505
C156	C	1.054542	0.635770	1.153505
C157	C	0.552010	0.140204	0.740697
C158	C	1.052010	0.640204	1.240697
C159	C	0.613350	0.033175	0.740712
C160	C	1.113350	0.533175	1.240712
C161	C	0.615885	0.028747	0.653524
C162	C	1.115885	0.528747	1.153524
C163	C	0.586479	0.080041	0.609925
C164	C	1.086479	0.580041	1.109925
C165	C	0.561141	0.124235	0.479380
C166	C	1.061141	0.624235	0.979380
C167	C	0.589071	0.075504	0.520807
C168	C	1.089071	0.575504	1.020807
H169	H	0.503216	-0.645002	0.000037
H170	H	1.003216	-0.145002	0.500037
F171	F	0.500338	0.230309	0.393041
F172	F	1.000338	0.730309	0.893041
F173	F	0.643516	-0.391289	0.000110
F174	F	1.143516	0.108711	0.500110
H175	H	0.647002	-0.155245	0.000150
H176	H	1.147002	0.344755	0.500150
H177	H	0.637291	-0.008587	0.776218
H178	H	1.137291	0.491413	1.276218
F179	F	0.505572	0.221156	0.213066
F180	F	1.005572	0.721156	0.713066
H181	H	0.619611	0.022203	0.382173
H182	H	1.119611	0.522203	0.882173
F183	F	0.527153	0.183549	0.525772
F184	F	1.027153	0.683549	1.025772
H185	H	0.518143	-0.401232	0.000056
H186	H	1.018143	0.098768	0.500056
F187	F	0.500550	-0.484499	0.000040
F188	F	1.000550	0.015501	0.500040
F189	F	0.335328	0.096189	-0.155797
F190	F	0.835328	0.596189	0.344203
F191	F	0.469538	-0.275030	0.000072
F192	F	0.969538	0.224970	0.500072
H193	H	-0.040132	0.087056	-0.212387
H194	H	0.459868	0.587056	0.287613
F195	F	0.623057	0.016190	0.474419
F196	F	1.123057	0.516190	0.974419
H197	H	0.432622	0.098763	-0.136918
H198	H	0.932622	0.598763	0.363082
H199	H	0.051384	0.088566	-0.212391
H200	H	0.551384	0.588566	0.287609
F201	F	0.091986	0.112007	0.231469
F202	F	0.591986	0.612007	0.731469
H203	H	0.530600	0.177538	0.618014
H204	H	1.030600	0.677538	1.118014
F205	F	0.478312	-0.106794	0.000103
F206	F	0.978312	0.393206	0.500103
F207	F	0.649670	-0.315749	0.000120
F208	F	1.149670	0.184251	0.500120
F209	F	0.044765	0.111222	0.231472
F210	F	0.544765	0.611222	0.731472
F211	F	0.671906	-0.693457	0.000065
F212	F	1.171906	-0.193457	0.500065
H213	H	0.669237	-0.532938	0.000096
H214	H	1.169237	-0.032938	0.500096
H215	H	0.526002	0.185590	0.776181
H216	H	1.026002	0.685590	1.276181
F217	F	0.430395	0.113748	0.155936
F218	F	0.930395	0.613748	0.655936
F219	F	0.326262	0.112006	0.155952
F220	F	0.826262	0.612006	0.655952
F221	F	-0.176045	0.087720	-0.155766
F222	F	0.323955	0.587720	0.344234
F223	F	0.649876	-0.030567	0.607138
F224	F	1.149876	0.469433	1.107138
H225	H	-0.190877	0.102505	0.137103
H226	H	0.309123	0.602505	0.637103
F227	F	0.196114	0.113730	0.231462
F228	F	0.696114	0.613730	0.731462
F229	F	0.632203	0.000226	0.213107
F230	F	1.132203	0.500226	0.713107
F231	F	-0.289269	0.101840	0.155979
F232	F	0.210731	0.601840	0.655979
H233	H	-0.274421	0.087081	-0.136877
H234	H	0.225579	0.587081	0.363123
F235	F	0.105471	0.088478	-0.231288
F236	F	0.605471	0.588478	0.268712
F237	F	0.209605	0.090192	-0.231287
F238	F	0.709605	0.590192	0.268713
F239	F	-0.059379	0.109496	0.231467
F240	F	0.440621	0.609496	0.731467
