data_functionalizedCrystal
_audit_creation_method	'MofGen! by Chris Wilmer'
_symmetry_space_group_name_H-M	'P1'
_symmetry_Int_Tables_number	1
_symmetry_cell_setting	triclinic
loop_
_symmetry_equiv_pos_as_xyz
  x,y,z
_cell_length_a	18.215407
_cell_length_b	16.120444
_cell_length_c	18.215399
_cell_angle_alpha	87.129468
_cell_angle_beta	90.016899
_cell_angle_gamma	92.923917
loop_
_atom_site_label
_atom_site_type_symbol
_atom_site_fract_x
_atom_site_fract_y
_atom_site_fract_z
Zn1	Zn	1.110204	-0.331973	0.430910
Zn2	Zn	1.103869	-0.471395	0.314081
Zn3	Zn	0.987136	-0.331993	0.307864
Zn4	Zn	0.980861	-0.471342	0.437110
O5	O	1.045517	-0.401676	0.372491
O6	O	1.212347	-0.350482	0.415419
O7	O	1.088358	-0.452934	0.210273
O8	O	1.008739	-0.215325	0.318990
O9	O	1.207693	-0.452915	0.329585
O10	O	1.099157	-0.215310	0.409391
O11	O	1.002595	-0.350516	0.205706
O12	O	0.883320	-0.350464	0.325002
O13	O	0.998044	-0.452823	0.539270
O14	O	0.878710	-0.452843	0.419958
O15	O	1.093072	-0.350430	0.534715
O16	O	1.082274	-0.588054	0.335597
O17	O	0.991901	-0.588015	0.425986
C18	C	0.854312	-0.401650	0.372479
C19	C	0.772513	-0.401659	0.372492
C20	C	0.505070	-0.455072	0.421874
C21	C	0.581929	-0.455065	0.421870
C22	C	0.586706	-0.348299	0.323122
C23	C	0.509848	-0.348311	0.323123
C24	C	0.469032	-0.401696	0.372503
C25	C	0.622749	-0.401677	0.372498
C26	C	0.706083	-0.401669	0.372494
C27	C	0.385692	-0.401705	0.372507
C28	C	1.035739	-0.618285	0.382155
C29	C	1.031623	-0.710951	0.386314
C30	C	1.067050	-0.921893	0.351076
C31	C	1.024121	-0.880608	0.393914
C32	C	1.028296	-0.786202	0.389684
C33	C	1.062876	-1.016307	0.355305
C34	C	1.237469	-0.401702	0.372504
C35	C	1.319268	-0.401713	0.372510
C36	C	1.045565	-0.401618	0.564442
C37	C	1.045585	-0.401594	0.646239
C38	C	1.055354	-0.184221	0.362806
C39	C	1.059546	-0.091555	0.358678
C40	C	1.045515	-0.401673	0.181285
C41	C	1.045648	-0.401463	0.099477
C42	C	1.095085	-0.348228	0.832061
C43	C	1.095095	-0.348204	0.908918
C44	C	0.996143	-0.454831	0.913650
C45	C	0.996130	-0.454850	0.836794
C46	C	1.045605	-0.401550	0.796001
C47	C	1.045628	-0.401506	0.949715
C48	C	1.045638	-0.401480	1.033048
C49	C	1.045594	-0.401575	0.712663
H50	H	0.611267	-0.498530	0.462072
Br51	Br	0.642103	-0.275847	0.256112
Br52	Br	1.162229	-0.275891	0.776701
H53	H	0.955863	-0.498228	0.946873
H54	H	0.984234	-0.916163	0.433767
Br55	Br	0.460934	-0.275872	0.256110
Br56	Br	0.928967	-0.527214	0.787851
Br57	Br	1.133528	-0.862634	0.284655
H58	H	1.135386	-0.304782	0.938274
H59	H	0.471839	-0.498542	0.462082
