data_functionalizedCrystal
_audit_creation_method	'MofGen! by Chris Wilmer'
_symmetry_space_group_name_H-M	'P1'
_symmetry_Int_Tables_number	1
_symmetry_cell_setting	triclinic
loop_
_symmetry_equiv_pos_as_xyz
  x,y,z
_cell_length_a	15.624803
_cell_length_b	14.519709
_cell_length_c	14.185569
_cell_angle_alpha	76.819419
_cell_angle_beta	85.691254
_cell_angle_gamma	83.966891
loop_
_atom_site_label
_atom_site_type_symbol
_atom_site_fract_x
_atom_site_fract_y
_atom_site_fract_z
O1	O	1.079913	0.239584	-0.476355
O2	O	1.579913	0.739584	0.023645
O3	O	0.838902	0.231990	-0.388663
O4	O	1.338902	0.731990	0.111337
O5	O	0.965800	0.102125	-0.434826
O6	O	1.465800	0.602125	0.065174
O7	O	0.953015	0.369449	-0.430192
O8	O	1.453015	0.869449	0.069808
O9	O	1.003286	0.063766	-0.281628
O10	O	1.503286	0.563766	0.218372
O11	O	0.876388	0.193632	-0.235465
O12	O	1.376388	0.693632	0.264535
O13	O	1.117400	0.201225	-0.323157
O14	O	1.617400	0.701225	0.176843
Cu15	Cu	1.000317	0.193926	-0.265323
Cu16	Cu	1.500317	0.693926	0.234677
Cu17	Cu	0.955985	0.239289	-0.446497
Cu18	Cu	1.455985	0.739289	0.053503
O19	O	0.990502	0.331090	-0.276994
O20	O	1.490502	0.831090	0.223006
C21	C	0.826800	0.209354	-0.300842
C22	C	1.326800	0.709354	0.199158
C23	C	0.734893	0.199041	-0.267401
C24	C	1.234893	0.699041	0.232599
C25	C	0.330522	0.269642	-0.575052
C26	C	0.830522	0.769642	-0.075052
C27	C	0.244163	0.259933	-0.543628
C28	C	0.744163	0.759933	-0.043628
C29	C	0.285009	0.218114	-0.376611
C30	C	0.785009	0.718114	0.123389
C31	C	0.371373	0.227815	-0.408020
C32	C	0.871373	0.727815	0.091980
C33	C	0.394122	0.253580	-0.507242
C34	C	0.894122	0.753580	-0.007242
C35	C	0.434973	0.211753	-0.340210
C36	C	0.934973	0.711753	0.159790
C37	C	0.521329	0.221458	-0.371618
C38	C	1.021329	0.721458	0.128382
C39	C	0.544085	0.247225	-0.470835
C40	C	1.044085	0.747225	0.029165
C41	C	0.480478	0.263285	-0.538649
C42	C	0.980478	0.763285	-0.038649
C43	C	0.412222	0.185994	-0.240989
C44	C	0.912222	0.685994	0.259011
C45	C	0.475822	0.169932	-0.173179
C46	C	0.975822	0.669932	0.326821
C47	C	0.562181	0.179630	-0.204586
C48	C	1.062181	0.679630	0.295414
C49	C	0.584937	0.205398	-0.303803
C50	C	1.084937	0.705398	0.196197
C51	C	0.625788	0.163570	-0.136772
C52	C	1.125788	0.663570	0.363228
C53	C	0.712144	0.173275	-0.168179
C54	C	1.212144	0.673275	0.331821
C55	C	0.671293	0.215103	-0.335211
C56	C	1.171293	0.715103	0.164789
C57	C	0.983947	0.048532	-0.358010
C58	C	1.483947	0.548532	0.141990
C59	C	0.982163	-0.054011	-0.357360
C60	C	1.482163	0.445989	0.142640
C61	C	0.975586	-0.429496	-0.354993
C62	C	1.475586	0.070504	0.145007
C63	C	0.977413	-0.325024	-0.355650
C64	C	1.477413	0.174976	0.144350
C65	C	0.978874	-0.241757	-0.356176
C66	C	1.478874	0.258243	0.143824
C67	C	0.980701	-0.137278	-0.356834
C68	C	1.480701	0.362722	0.143166
C69	C	1.129501	0.223862	-0.410981
C70	C	1.629501	0.723862	0.089019
C71	C	1.221407	0.234177	-0.444427
C72	C	1.721407	0.734177	0.055573
C73	C	0.972354	0.384684	-0.353812
C74	C	1.472354	0.884684	0.146188
C75	C	0.974137	0.487228	-0.354468
C76	C	1.474137	0.987228	0.145532
N77	N	1.031504	0.162019	-0.137897
N78	N	1.531504	0.662019	0.362103
N79	N	0.924804	0.271189	-0.573925
N80	N	1.424804	0.771189	-0.073925
C81	C	0.833176	0.364890	0.301900
C82	C	1.333176	0.864890	0.801900
C83	C	0.856806	0.340728	0.398325
C84	C	1.356806	0.840728	0.898325
C85	C	0.969197	0.225781	0.357401
C86	C	1.469197	0.725781	0.857401
C87	C	0.945574	0.249930	0.260971
C88	C	1.445574	0.749930	0.760971
C89	C	0.877564	0.319486	0.233229
C90	C	1.377564	0.819486	0.733229
C91	C	0.989961	0.204526	0.192300
C92	C	1.489961	0.704526	0.692300
C93	C	0.966343	0.228677	0.095877
C94	C	1.466343	0.728677	0.595877
C95	C	0.898337	0.298232	0.068126
C96	C	1.398337	0.798232	0.568126
C97	C	0.853946	0.343637	0.136806
C98	C	1.353946	0.843637	0.636806
C99	C	1.057975	0.134976	0.220043
C100	C	1.557975	0.634976	0.720043
C101	C	1.102363	0.089572	0.151372
C102	C	1.602363	0.589572	0.651372
C103	C	1.078741	0.113718	0.054948
C104	C	1.578741	0.613718	0.554948
C105	C	1.010735	0.183272	0.027197
C106	C	1.510735	0.683272	0.527197
C107	C	1.123133	0.068313	-0.013732
C108	C	1.623133	0.568313	0.486268
C109	C	1.099514	0.092464	-0.110155
C110	C	1.599514	0.592464	0.389845
C111	C	0.987117	0.207423	-0.069226
C112	C	1.487117	0.707423	0.430774
H113	H	0.689816	0.236080	-0.416007
H114	H	1.189816	0.736080	0.083993
H115	H	0.763929	0.160201	-0.112961
H116	H	1.263929	0.660201	0.387039
H117	H	0.341903	0.178098	-0.215420
H118	H	0.841903	0.678098	0.284580
F119	F	0.176475	0.277034	-0.615809
F120	F	0.676475	0.777034	-0.115809
F121	F	0.601563	0.136162	-0.031176
F122	F	1.101563	0.636162	0.468824
F123	F	0.873205	0.323939	-0.034499
F124	F	1.373205	0.823939	0.465501
H125	H	0.614402	0.255132	-0.496405
H126	H	1.114402	0.755132	0.003595
F127	F	1.083112	0.109280	0.322666
F128	F	1.583112	0.609280	0.822666
H129	H	1.157740	0.032941	0.173971
H130	H	1.657740	0.532941	0.673971
F131	F	0.760784	0.438911	0.272376
F132	F	1.260784	0.938911	0.772376
H133	H	0.499001	0.284263	-0.619445
H134	H	0.999001	0.784263	-0.119445
H135	H	1.178513	0.011686	0.008868
H136	H	1.678513	0.511686	0.508868
H137	H	0.349044	0.290620	-0.655848
H138	H	0.849044	0.790620	-0.155848
H139	H	1.135660	0.055491	-0.166069
H140	H	1.635660	0.555491	0.333931
H141	H	0.266473	0.197139	-0.295824
H142	H	0.766473	0.697139	0.204176
F143	F	0.914724	0.281444	-0.098750
F144	F	1.414724	0.781444	0.401250
H145	H	0.820655	0.377709	0.454236
H146	H	1.320655	0.877709	0.954236
F147	F	0.451600	0.142515	-0.067583
F148	F	0.951600	0.642515	0.432417
H149	H	0.798559	0.400269	0.114220
H150	H	1.298559	0.900269	0.614220
F151	F	1.041579	0.151759	0.386935
F152	F	1.541579	0.651759	0.886935
