data_functionalizedCrystal
_audit_creation_method	'MofGen! by Chris Wilmer'
_symmetry_space_group_name_H-M	'P1'
_symmetry_Int_Tables_number	1
_symmetry_cell_setting	triclinic
loop_
_symmetry_equiv_pos_as_xyz
  x,y,z
_cell_length_a	17.699083
_cell_length_b	11.026607
_cell_length_c	16.176319
_cell_angle_alpha	89.996049
_cell_angle_beta	89.998611
_cell_angle_gamma	95.934516
loop_
_atom_site_label
_atom_site_type_symbol
_atom_site_fract_x
_atom_site_fract_y
_atom_site_fract_z
O1	O	1.025155	0.153399	-0.068626
O2	O	0.807518	0.173357	-0.068652
O3	O	0.898299	-0.013222	-0.068638
O4	O	0.934374	0.339978	-0.068640
O5	O	0.898282	-0.013234	0.068855
O6	O	0.807501	0.173345	0.068841
O7	O	1.025137	0.153387	0.068867
Cu8	Cu	0.916317	0.163365	0.081408
Cu9	Cu	0.916338	0.163379	-0.081193
O10	O	0.934357	0.339966	0.068853
C11	C	0.779214	0.172636	0.000091
C12	C	0.694902	0.170490	0.000080
C13	C	0.661328	0.280008	0.000080
C14	C	0.582106	0.277985	0.000091
C15	C	0.536460	0.166443	0.000096
C16	C	0.570039	0.056917	0.000099
C17	C	0.649259	0.058941	0.000094
C18	C	0.250554	0.048751	0.000119
C19	C	0.171329	0.046735	0.000121
C20	C	0.183402	0.267794	0.000116
C21	C	0.262621	0.269819	0.000111
C22	C	0.296194	0.160293	0.000118
C23	C	0.382094	0.162488	0.000108
C24	C	0.450561	0.164247	0.000100
C25	C	0.891635	-0.058419	0.000106
C26	C	0.871796	-0.193075	0.000101
C27	C	0.926576	-0.267042	0.000107
C28	C	0.906072	-0.406216	0.000101
C29	C	1.053441	0.154108	0.000122
C30	C	1.137754	0.156254	0.000127
C31	C	0.941021	0.385163	0.000107
C32	C	0.960860	0.519819	0.000106
N33	N	0.916308	0.163354	0.195773
N34	N	0.916352	0.163380	-0.195559
C35	C	0.956526	0.080771	0.239044
C36	C	0.956530	0.080770	0.325591
C37	C	0.916320	0.163358	0.368866
C38	C	0.876097	0.245946	0.325590
C39	C	0.876089	0.245940	0.239044
C40	C	0.876126	0.245969	0.674618
C41	C	0.876138	0.245970	0.761169
C42	C	0.956566	0.080798	0.761165
C43	C	0.956559	0.080792	0.674619
C44	C	0.916333	0.163375	0.631350
C45	C	0.916328	0.163374	0.537506
C46	C	0.916328	0.163366	0.462709
H47	H	0.299783	0.360648	0.000103
H48	H	0.989277	0.013523	0.360821
H49	H	0.277879	-0.040432	0.000126
H50	H	0.989318	0.013551	0.796403
O51	O	0.995600	0.000426	0.197138
C52	C	1.031112	-0.072445	0.253893
H53	H	0.999909	-0.073747	0.315589
H54	H	1.029457	-0.169345	0.228895
H55	H	1.092684	-0.033170	0.263088
H56	H	0.134166	-0.044102	0.000127
O57	O	0.837044	0.326309	0.632722
C58	C	0.801545	0.399184	0.689479
H59	H	0.832762	0.400493	0.751165
H60	H	0.803194	0.496082	0.664469
H61	H	0.739975	0.359909	0.698698
O62	O	0.836982	0.326005	0.367718
C63	C	0.781450	0.261135	0.417777
H64	H	0.798657	0.166154	0.430745
H65	H	0.776384	0.311794	0.478634
H66	H	0.724404	0.253003	0.384434
H67	H	0.676594	-0.030240	0.000094
H68	H	0.989305	0.013545	0.639387
O69	O	0.837016	0.326028	0.803300
C70	C	0.781490	0.261146	0.853360
H71	H	0.798705	0.166169	0.866324
H72	H	0.776423	0.311800	0.914218
H73	H	0.724443	0.253006	0.820018
H74	H	0.156058	0.356975	0.000115
O75	O	0.837011	0.326282	0.197136
C76	C	0.801507	0.399160	0.253888
H77	H	0.832721	0.400475	0.315576
H78	H	0.803156	0.496056	0.228874
H79	H	0.739938	0.359884	0.263104
H80	H	0.698488	0.370838	0.000075
H81	H	0.843990	-0.445918	0.000088
O82	O	0.549616	0.384483	0.000053
C83	C	0.606892	0.483365	0.000063
H84	H	0.661591	0.452403	-0.025973
H85	H	0.588221	0.560088	-0.039855
H86	H	0.617178	0.517565	0.066023
H87	H	0.532868	-0.033903	0.000115
H88	H	0.988654	-0.227333	0.000119
H89	H	1.022943	-0.440480	0.000052
O90	O	0.797762	-0.240577	-0.000021
C91	C	0.783035	-0.312866	-0.071245
H92	H	0.838410	-0.344425	-0.094979
H93	H	0.741651	-0.395710	-0.055238
H94	H	0.757138	-0.256922	-0.121109
