data_functionalizedCrystal
_audit_creation_method	'MofGen! by Chris Wilmer'
_symmetry_space_group_name_H-M	'P1'
_symmetry_Int_Tables_number	1
_symmetry_cell_setting	triclinic
loop_
_symmetry_equiv_pos_as_xyz
  x,y,z
_cell_length_a	12.594516
_cell_length_b	16.120490
_cell_length_c	16.120297
_cell_angle_alpha	89.870317
_cell_angle_beta	87.122232
_cell_angle_gamma	87.108688
loop_
_atom_site_label
_atom_site_type_symbol
_atom_site_fract_x
_atom_site_fract_y
_atom_site_fract_z
Zn1	Zn	-0.539335	1.247500	0.534573
Zn2	Zn	-0.708779	1.254467	0.395527
Zn3	Zn	-0.521340	1.115488	0.388492
Zn4	Zn	-0.707789	1.108423	0.527499
O5	O	-0.619311	1.181469	0.461523
O6	O	-0.569758	1.364792	0.522032
O7	O	-0.676798	1.241904	0.278227
O8	O	-0.374785	1.133040	0.407887
O9	O	-0.694247	1.369911	0.419875
O10	O	-0.388006	1.230029	0.515211
O11	O	-0.539088	1.139796	0.273059
O12	O	-0.538127	0.998183	0.401028
O13	O	-0.692560	1.120999	0.644804
O14	O	-0.675110	0.992992	0.503156
O15	O	-0.568798	1.223178	0.650000
O16	O	-0.857590	1.235053	0.413017
O17	O	-0.856862	1.127755	0.509977
C18	C	-0.604559	0.965415	0.450562
C19	C	-0.598276	0.872985	0.445892
C20	C	-0.651898	0.660028	0.485746
C21	C	-0.586812	0.703759	0.437366
C22	C	-0.593192	0.797925	0.442111
C23	C	-0.645520	0.565853	0.481001
C24	C	-0.895848	1.181415	0.461512
C25	C	-1.014158	1.181467	0.461539
C26	C	-1.083051	1.123104	0.514236
C27	C	-1.147864	1.106692	0.437333
C28	C	-1.160151	1.197954	0.538459
C29	C	-1.077407	1.165016	0.384593
C30	C	-1.089693	1.256312	0.485773
C31	C	-1.154472	1.239931	0.408818
C32	C	-0.341697	1.181546	0.461553
C33	C	-0.223394	1.181578	0.461566
C34	C	-0.632576	1.170524	0.678418
C35	C	-0.638228	1.165859	0.770846
C36	C	-0.634121	1.398368	0.472527
C37	C	-0.640432	1.490797	0.477217
C38	C	-0.606024	1.192421	0.245474
C39	C	-0.600083	1.197246	0.153054
C40	C	-0.648523	1.157312	0.940072
C41	C	-0.589791	1.205790	0.983834
C42	C	-0.595519	1.201035	1.077997
C43	C	-0.642796	1.162067	0.845900
H44	H	-0.712407	0.693308	0.530725
C45	C	-0.558522	0.611615	0.320665
C46	C	-0.505145	0.658854	0.376605
H47	H	-0.508112	0.583900	0.283144
H48	H	-0.598488	0.571794	0.350397
H49	H	-0.605154	0.647120	0.290505
H50	H	-0.458518	0.623348	0.406769
H51	H	-0.465161	0.698680	0.346869
H52	H	-1.041385	1.151042	0.319532
C53	C	-1.069829	0.978102	0.548729
C54	C	-1.040708	1.056372	0.574297
H55	H	-1.043680	0.936905	0.585803
H56	H	-1.145194	0.977355	0.548787
H57	H	-1.040346	0.966959	0.494259
H58	H	-1.070198	1.067518	0.628765
H59	H	-0.965328	1.057121	0.574248
C60	C	-1.293868	1.022525	0.409257
C61	C	-1.182650	1.021315	0.409669
H62	H	-1.315338	0.969817	0.392178
H63	H	-1.323383	1.034595	0.463525
H64	H	-1.318307	1.063976	0.371777
H65	H	-1.158211	0.979868	0.447154
H66	H	-1.153123	1.009235	0.355393
C67	C	-1.154346	1.289216	0.268150
C68	C	-1.196539	1.306625	0.348606
H69	H	-1.180325	1.330386	0.230977
H70	H	-1.078894	1.289234	0.267485
H71	H	-1.175222	1.236225	0.251421
H72	H	-1.175657	1.359614	0.365337
H73	H	-1.272008	1.306616	0.349273
C74	C	-0.410717	1.247689	0.958972
C75	C	-0.516100	1.266645	0.938960
H76	H	-0.365226	1.285255	0.931263
H77	H	-0.404964	1.252433	1.017274
H78	H	-0.390488	1.192523	0.941935
H79	H	-0.536332	1.321809	0.956002
H80	H	-0.521858	1.261909	0.880644
C81	C	-0.827598	1.115432	0.964945
C82	C	-0.722215	1.096471	0.984953
H83	H	-0.873090	1.077870	0.992657
H84	H	-0.847818	1.170594	0.981972
H85	H	-0.833355	1.110679	0.906635
H86	H	-0.716455	1.101230	1.043262
H87	H	-0.701988	1.041295	0.967931
H88	H	-1.063910	1.319539	0.506285
H89	H	-1.196295	1.211855	0.603499
