data_functionalizedCrystal
_audit_creation_method	'MofGen! by Chris Wilmer'
_symmetry_space_group_name_H-M	'P1'
_symmetry_Int_Tables_number	1
_symmetry_cell_setting	triclinic
loop_
_symmetry_equiv_pos_as_xyz
  x,y,z
_cell_length_a	23.532407
_cell_length_b	23.532407
_cell_length_c	14.421503
_cell_angle_alpha	90.006857
_cell_angle_beta	89.987551
_cell_angle_gamma	82.848713
loop_
_atom_site_label
_atom_site_type_symbol
_atom_site_fract_x
_atom_site_fract_y
_atom_site_fract_z
O1	O	0.755250	0.069131	0.077013
O2	O	1.088584	0.402464	0.410346
O3	O	1.421917	0.735797	0.743679
O4	O	0.589387	0.079134	0.077042
O5	O	0.922720	0.412467	0.410376
O6	O	1.256054	0.745801	0.743709
O7	O	0.677320	-0.008799	0.077001
O8	O	1.010654	0.324534	0.410334
O9	O	1.343987	0.657867	0.743667
O10	O	0.667317	0.157064	0.077055
O11	O	1.000651	0.490397	0.410388
O12	O	1.333984	0.823731	0.743721
O13	O	0.677331	-0.008794	-0.077223
O14	O	1.010664	0.324540	0.256111
O15	O	1.343998	0.657873	0.589444
O16	O	0.589398	0.079139	-0.077181
O17	O	0.922731	0.412473	0.256152
O18	O	1.256064	0.745806	0.589486
O19	O	0.755261	0.069136	-0.077211
O20	O	1.088594	0.402470	0.256123
O21	O	1.421928	0.735803	0.589456
Cu22	Cu	0.672330	0.074138	-0.091278
Cu23	Cu	1.005664	0.407472	0.242056
Cu24	Cu	1.338997	0.740805	0.575389
Cu25	Cu	0.672318	0.074132	0.091109
Cu26	Cu	1.005651	0.407465	0.424443
Cu27	Cu	1.338985	0.740798	0.757776
O28	O	0.667328	0.157070	-0.077169
O29	O	1.000661	0.490403	0.256164
O30	O	1.333994	0.823736	0.589498
C31	C	0.568176	0.078882	-0.000066
C32	C	0.901510	0.412215	0.333267
C33	C	1.234843	0.745549	0.666601
C34	C	0.504959	0.078116	-0.000056
C35	C	0.838293	0.411449	0.333278
C36	C	1.171626	0.744783	0.666611
C37	C	0.677071	-0.030013	-0.000116
C38	C	1.010404	0.303321	0.333218
C39	C	1.343738	0.636654	0.666551
C40	C	0.676305	-0.093230	-0.000130
C41	C	1.009638	0.240104	0.333204
C42	C	1.342972	0.573437	0.666537
C43	C	0.621110	-0.359397	-0.000062
C44	C	0.954443	-0.026064	0.333271
C45	C	1.287776	0.307270	0.666605
C46	C	0.621821	-0.299997	-0.000069
C47	C	0.955154	0.033336	0.333264
C48	C	1.288488	0.366670	0.666598
O49	O	0.578035	-0.263252	-0.000032
O50	O	0.911368	0.070081	0.333301
O51	O	1.244702	0.403414	0.666635
N52	N	0.674097	-0.277371	-0.000089
N53	N	1.007431	0.055963	0.333244
N54	N	1.340764	0.389296	0.666578
C55	C	0.725666	-0.314148	-0.000092
C56	C	1.058999	0.019185	0.333241
C57	C	1.392332	0.352518	0.666574
O58	O	0.770196	-0.289449	-0.000109
O59	O	1.103529	0.043885	0.333224
O60	O	1.436863	0.377218	0.666557
C61	C	0.724954	-0.373547	-0.000079
C62	C	1.058287	-0.040214	0.333255
C63	C	1.391620	0.293119	0.666588
C64	C	0.672674	-0.396170	-0.000068
C65	C	1.006007	-0.062837	0.333265
C66	C	1.339341	0.270497	0.666599
C67	C	0.568834	-0.382020	-0.000050
C68	C	0.902167	-0.048687	0.333283
C69	C	1.235501	0.284646	0.666616
C70	C	0.568123	-0.441417	-0.000045
C71	C	0.901456	-0.108083	0.333289
C72	C	1.234790	0.225250	0.666622
C73	C	0.619687	-0.478189	-0.000051
C74	C	0.953021	-0.144856	0.333283
C75	C	1.286354	0.188477	0.666616
C76	C	0.671963	-0.455566	-0.000062
C77	C	1.005296	-0.122233	0.333271
C78	C	1.338629	0.211101	0.666604
C79	C	0.776521	-0.410324	-0.000075
C80	C	1.109854	-0.076990	0.333258
C81	C	1.443188	0.256343	0.666591
C82	C	0.775805	-0.469726	-0.000061
C83	C	1.109138	-0.136393	0.333273
C84	C	1.442471	0.196940	0.666606
C85	C	0.723525	-0.492349	-0.000050
C86	C	1.056858	-0.159016	0.333283
C87	C	1.390192	0.174318	0.666617
C88	C	0.722816	-0.551735	-0.000063
C89	C	1.056149	-0.218402	0.333270
C90	C	1.389482	0.114931	0.666604
N91	N	0.670539	-0.574361	-0.000043
N92	N	1.003873	-0.241028	0.333290
N93	N	1.337206	0.092305	0.666624
C94	C	0.618975	-0.537589	-0.000037
C95	C	0.952309	-0.204255	0.333296
C96	C	1.285642	0.129078	0.666630
C97	C	0.727157	-0.189406	-0.000120
C98	C	1.060490	0.143928	0.333213
C99	C	1.393824	0.477261	0.666547
C100	C	0.727870	-0.130008	-0.000141
C101	C	1.061203	0.203326	0.333193
C102	C	1.394536	0.536659	0.666526
C103	C	0.624025	-0.115860	-0.000115
C104	C	0.957358	0.217473	0.333218
C105	C	1.290691	0.550806	0.666551
C106	C	0.623313	-0.175260	-0.000102
C107	C	0.956646	0.158074	0.333232
C108	C	1.289979	0.491407	0.666565
C109	C	0.674881	-0.212032	-0.000100
C110	C	1.008214	0.121301	0.333233
C111	C	1.341547	0.454635	0.666567
C112	C	0.617486	-0.662325	-0.000026
C113	C	0.950819	-0.328992	0.333307
C114	C	1.284152	0.004341	0.666641
C115	C	0.616779	-0.721727	-0.000024
C116	C	0.950112	-0.388394	0.333309
C117	C	1.283446	-0.055061	0.666642
C118	C	0.720623	-0.735869	-0.000045
C119	C	1.053957	-0.402536	0.333289
C120	C	1.387290	-0.069203	0.666622
C121	C	0.721330	-0.676473	-0.000051
C122	C	1.054664	-0.343139	0.333282
C123	C	1.387997	-0.009806	0.666616
C124	C	0.669757	-0.639701	-0.000039
C125	C	1.003090	-0.306368	0.333295
C126	C	1.336423	0.026965	0.666628
O127	O	0.766579	-0.588514	-0.000096
O128	O	1.099912	-0.255181	0.333237
O129	O	1.433245	0.078152	0.666570
O130	O	0.574452	-0.562296	-0.000008
O131	O	0.907785	-0.228963	0.333325
O132	O	1.241119	0.104370	0.666659
C133	C	0.105856	0.125350	-0.000082
C134	C	0.439190	0.458683	0.333251
C135	C	0.772523	0.792016	0.666584
C136	C	0.046456	0.124638	-0.000088
C137	C	0.379789	0.457971	0.333245
C138	C	0.713123	0.791305	0.666578
O139	O	0.009712	0.168424	-0.000108
O140	O	0.343045	0.501757	0.333225
O141	O	0.676378	0.835091	0.666559
N142	N	0.023830	0.072362	-0.000104
N143	N	0.357163	0.405695	0.333230
N144	N	0.690497	0.739028	0.666563
C145	C	0.060607	0.020794	-0.000123
C146	C	0.393941	0.354127	0.333211
C147	C	0.727274	0.687460	0.666544
O148	O	0.035908	-0.023737	-0.000137
O149	O	0.369241	0.309596	0.333196
O150	O	0.702574	0.642930	0.666529
C151	C	0.120007	0.021506	-0.000123
C152	C	0.453340	0.354839	0.333210
C153	C	0.786673	0.688172	0.666543
C154	C	0.142629	0.073785	-0.000099
C155	C	0.475962	0.407119	0.333235
C156	C	0.809296	0.740452	0.666568
C157	C	0.128480	0.177625	-0.000059
C158	C	0.461813	0.510958	0.333275
C159	C	0.795146	0.844292	0.666608
C160	C	0.187876	0.178336	-0.000051
C161	C	0.521209	0.511670	0.333282
C162	C	0.854542	0.845003	0.666616
C163	C	0.224649	0.126772	-0.000067
C164	C	0.557982	0.460105	0.333266
C165	C	0.891315	0.793439	0.666599
C166	C	0.202025	0.074496	-0.000091
C167	C	0.535359	0.407830	0.333242
C168	C	0.868692	0.741163	0.666576
C169	C	0.156783	-0.030062	-0.000149
C170	C	0.490116	0.303271	0.333184
C171	C	0.823450	0.636605	0.666518
C172	C	0.216185	-0.029345	-0.000150
C173	C	0.549519	0.303988	0.333183
C174	C	0.882852	0.637321	0.666516
C175	C	0.238808	0.022934	-0.000126
C176	C	0.572141	0.356268	0.333208
C177	C	0.905475	0.689601	0.666541
C178	C	0.298194	0.023643	-0.000100
C179	C	0.631528	0.356977	0.333234
C180	C	0.964861	0.690310	0.666567
N181	N	0.320821	0.075920	-0.000084
N182	N	0.654154	0.409253	0.333249
N183	N	0.987487	0.742586	0.666583
C184	C	0.284048	0.127484	-0.000068
C185	C	0.617381	0.460817	0.333265
C186	C	0.950714	0.794151	0.666599
C187	C	-0.064135	0.019302	-0.000123
C188	C	0.269198	0.352635	0.333210
C189	C	0.602532	0.685969	0.666544
C190	C	-0.123533	0.018589	-0.000115
C191	C	0.209800	0.351923	0.333218
C192	C	0.543134	0.685256	0.666551
C193	C	-0.137680	0.122434	-0.000083
C194	C	0.195653	0.455768	0.333250
C195	C	0.528986	0.789101	0.666584
C196	C	-0.078281	0.123146	-0.000084
C197	C	0.255052	0.456480	0.333250
C198	C	0.588385	0.789813	0.666583
C199	C	-0.041509	0.071578	-0.000107
C200	C	0.291824	0.404912	0.333226
C201	C	0.625158	0.738245	0.666559
C202	C	0.408784	0.128974	-0.000051
C203	C	0.742118	0.462307	0.333282
C204	C	1.075451	0.795640	0.666616
C205	C	0.468186	0.129680	-0.000040
C206	C	0.801520	0.463014	0.333294
C207	C	1.134853	0.796347	0.666627
C208	C	0.482329	0.025836	-0.000077
C209	C	0.815662	0.359169	0.333256
C210	C	1.148995	0.692503	0.666589
C211	C	0.422932	0.025129	-0.000084
C212	C	0.756265	0.358462	0.333250
C213	C	1.089598	0.691796	0.666583
C214	C	0.386161	0.076702	-0.000074
C215	C	0.719494	0.410036	0.333259
C216	C	1.052827	0.743369	0.666593
O217	O	0.334974	-0.020119	-0.000084
O218	O	0.668307	0.313214	0.333249
O219	O	1.001640	0.646547	0.666583
O220	O	0.308756	0.172007	-0.000066
O221	O	0.642089	0.505340	0.333268
O222	O	0.975422	0.838674	0.666601
C223	C	0.776472	0.069388	-0.000100
C224	C	1.109805	0.402722	0.333233
C225	C	1.443138	0.736055	0.666566
C226	C	0.839689	0.070154	-0.000104
C227	C	1.173022	0.403487	0.333229
C228	C	1.506356	0.736821	0.666562
C229	C	0.667577	0.178283	-0.000050
C230	C	1.000911	0.511616	0.333283
C231	C	1.334244	0.844949	0.666616
C232	C	0.668343	0.241500	-0.000031
C233	C	1.001677	0.574833	0.333303
C234	C	1.335010	0.908166	0.666636
N235	N	0.672343	0.074143	-0.219559
N236	N	1.005677	0.407476	0.113774
N237	N	1.339010	0.740809	0.447108
C238	C	0.713012	0.033473	-0.469207
C239	C	1.046346	0.366807	-0.135874
C240	C	1.379679	0.700140	0.197460
C241	C	0.661614	0.022704	-0.530999
C242	C	0.994947	0.356037	-0.197666
C243	C	1.328280	0.689371	0.135668
C244	C	0.672331	0.074136	-0.408720
C245	C	1.005664	0.407469	-0.075387
C246	C	1.338997	0.740803	0.257946
C247	C	0.723718	0.084872	-0.531022
C248	C	1.057051	0.418205	-0.197689
C249	C	1.390384	0.751539	0.135645
C250	C	0.672323	0.074128	-0.591442
C251	C	1.005656	0.407461	-0.258108
C252	C	1.338990	0.740795	0.075225
C253	C	0.620906	0.063341	-0.469152
C254	C	0.954239	0.396674	-0.135818
C255	C	1.287573	0.730008	0.197515
C256	C	0.683044	0.125531	-0.469169
C257	C	1.016377	0.458865	-0.135836
C258	C	1.349710	0.792198	0.197497
C259	C	0.631608	0.114784	-0.530933
C260	C	0.964941	0.448117	-0.197600
C261	C	1.298274	0.781451	0.135733
C262	C	0.672336	0.074139	-0.303459
C263	C	1.005669	0.407472	0.029874
C264	C	1.339003	0.740806	0.363208
C265	C	0.672312	0.074125	-0.696701
C266	C	1.005645	0.407459	-0.363367
C267	C	1.338979	0.740792	-0.030034
N268	N	0.672309	0.074123	0.219391
N269	N	1.005643	0.407456	0.552724
N270	N	1.338976	0.740790	0.886057
H271	H	0.574205	-0.740143	-0.000020
H272	H	0.907538	-0.406810	0.333313
H273	H	1.240871	-0.073476	0.666647
H274	H	0.098544	0.219617	-0.000049
H275	H	0.431878	0.552951	0.333284
H276	H	0.765211	0.886284	0.666618
Cl277	Cl	0.840637	-0.515951	-0.000056
Cl278	Cl	1.173971	-0.182618	0.333278
Cl279	Cl	1.507304	0.150716	0.666611
Cl280	Cl	0.578432	0.167874	-0.572519
Cl281	Cl	0.911765	0.501207	-0.239186
Cl282	Cl	1.245098	0.834541	0.094148
Cl283	Cl	0.502396	-0.469847	-0.000020
Cl284	Cl	0.835730	-0.136514	0.333314
Cl285	Cl	1.169063	0.196820	0.666647
Cl286	Cl	0.790815	0.098897	-0.572987
Cl287	Cl	1.124149	0.432231	-0.239654
Cl288	Cl	1.457482	0.765564	0.093680
H289	H	0.770441	-0.111594	-0.000164
H290	H	1.103774	0.221739	0.333170
H291	H	1.437108	0.555073	0.666503
H292	H	0.652545	-0.020763	-0.558158
H293	H	0.985878	0.312570	-0.224825
H294	H	1.319212	0.645903	0.108508
H295	H	0.246123	-0.071339	-0.000171
H296	H	0.579457	0.261994	0.333163
H297	H	0.912790	0.595327	0.666496
H298	H	0.575489	-0.632392	-0.000016
H299	H	0.908823	-0.299059	0.333318
H300	H	1.242156	0.034274	0.666651
H301	H	0.580742	-0.193674	-0.000097
H302	H	0.914075	0.139659	0.333237
H303	H	1.247409	0.472992	0.666570
H304	H	-0.059866	0.165717	-0.000069
H305	H	0.273467	0.499050	0.333265
H306	H	0.606800	0.832384	0.666598
Cl307	Cl	0.528568	-0.038984	-0.000102
Cl308	Cl	0.861901	0.294349	0.333232
Cl309	Cl	1.195235	0.627683	0.666565
H310	H	0.692129	0.168985	-0.441990
H311	H	1.025462	0.502318	-0.108657
H312	H	1.358795	0.835652	0.224677
H313	H	-0.141947	-0.023982	-0.000121
H314	H	0.191387	0.309352	0.333212
H315	H	0.524720	0.642685	0.666545
H316	H	0.577436	0.054207	-0.442089
H317	H	0.910769	0.387541	-0.108756
H318	H	1.244103	0.720874	0.224578
H319	H	0.763901	-0.658053	-0.000073
H320	H	1.097234	-0.324719	0.333260
H321	H	1.430567	0.008614	0.666594
Cl322	Cl	-0.183920	0.187258	-0.000068
Cl323	Cl	0.149413	0.520592	0.333266
Cl324	Cl	0.482746	0.853925	0.666599
H325	H	-0.034198	-0.022693	-0.000134
H326	H	0.299136	0.310640	0.333199
H327	H	0.632469	0.643973	0.666533
Cl328	Cl	0.766073	-0.019644	-0.427356
Cl329	Cl	1.099407	0.313690	-0.094023
Cl330	Cl	1.432740	0.647023	0.239311
H331	H	0.526842	-0.352085	-0.000042
H332	H	0.860175	-0.018752	0.333291
H333	H	1.193509	0.314582	0.666624
H334	H	0.486602	0.172255	-0.000019
H335	H	0.819935	0.505588	0.333314
H336	H	1.153269	0.838921	0.666648
Cl337	Cl	0.791992	-0.235629	-0.000130
Cl338	Cl	1.125325	0.097705	0.333204
Cl339	Cl	1.458659	0.431038	0.666537
Cl340	Cl	0.394491	-0.040595	-0.000119
Cl341	Cl	0.727824	0.292739	0.333214
Cl342	Cl	1.061158	0.626072	0.666547
H343	H	0.762606	-0.765820	-0.000054
H344	H	1.095939	-0.432487	0.333279
H345	H	1.429272	-0.099154	0.666613
H346	H	0.819093	-0.391915	-0.000083
H347	H	1.152426	-0.058582	0.333250
H348	H	1.485759	0.274751	0.666583
Cl349	Cl	0.362567	0.193810	-0.000038
Cl350	Cl	0.695900	0.527143	0.333296
Cl351	Cl	1.029233	0.860477	0.666629
Cl352	Cl	0.216306	0.244063	-0.000027
Cl353	Cl	0.549640	0.577396	0.333307
Cl354	Cl	0.882973	0.910730	0.666640
H355	H	0.582038	-0.085909	-0.000111
H356	H	0.915372	0.247424	0.333222
H357	H	1.248705	0.580758	0.666556
H358	H	0.138374	-0.072634	-0.000170
H359	H	0.471708	0.260700	0.333163
H360	H	0.805041	0.594033	0.666497
