data_functionalizedCrystal
_audit_creation_method	'MofGen! by Chris Wilmer'
_symmetry_space_group_name_H-M	'P1'
_symmetry_Int_Tables_number	1
_symmetry_cell_setting	triclinic
loop_
_symmetry_equiv_pos_as_xyz
  x,y,z
_cell_length_a	26.374263
_cell_length_b	26.373608
_cell_length_c	26.370205
_cell_angle_alpha	60.005297
_cell_angle_beta	60.010839
_cell_angle_gamma	59.993700
loop_
_atom_site_label
_atom_site_type_symbol
_atom_site_fract_x
_atom_site_fract_y
_atom_site_fract_z
O1	O	0.070152	-0.740800	0.619517
O2	O	0.026377	-0.576764	0.499159
O3	O	0.130245	-0.680560	0.499088
O4	O	-0.033715	-0.637003	0.619589
O5	O	0.164701	-0.646107	0.533470
O6	O	0.060833	-0.542310	0.533541
O7	O	0.104608	-0.706346	0.653899
Cu8	Cu	0.085867	-0.621182	0.596859
Cu9	Cu	0.045119	-0.661927	0.556199
O10	O	0.000741	-0.602549	0.653971
N11	N	0.114528	-0.592529	0.625461
N12	N	0.016463	-0.690587	0.527598
C13	C	0.181428	-0.355400	0.692330
C14	C	0.181530	-0.525690	0.862573
C15	C	0.181440	-0.525667	0.692313
C16	C	0.351736	-0.525673	0.692271
C17	C	0.200174	-0.411588	0.711047
C18	C	0.200232	-0.506954	0.806384
C19	C	0.295546	-0.506943	0.711016
C20	C	0.200182	-0.506940	0.711037
C21	C	0.157567	-0.283881	0.668507
C22	C	0.157587	-0.549500	0.668479
C23	C	0.224035	-0.483107	0.734871
C24	C	0.455739	-0.507754	0.637520
C25	C	0.520749	-0.529425	0.615835
C26	C	0.520768	-0.634611	0.655947
C27	C	0.455759	-0.612939	0.677633
C28	C	0.173240	-0.251367	0.604595
C29	C	0.151546	-0.186351	0.582941
C30	C	0.098512	-0.186369	0.689113
C31	C	0.120206	-0.251385	0.710768
C32	C	0.093669	-0.533798	0.684205
C33	C	0.071992	-0.555464	0.662532
C34	C	0.178144	-0.608536	0.609422
C35	C	0.199825	-0.586869	0.631088
C36	C	0.093821	-0.533842	0.966616
C37	C	0.072187	-0.555526	1.031630
C38	C	0.178370	-0.608608	1.031591
C39	C	0.200004	-0.586926	0.966576
C40	C	0.157728	-0.549541	0.934090
C41	C	0.423247	-0.549509	0.668416
C42	C	-0.097522	-0.709158	0.508557
C43	C	-0.002050	-0.709295	0.413344
C44	C	-0.002241	-0.804604	0.508735
C45	C	-0.002225	-0.709288	0.508793
C46	C	-0.026009	-0.733087	0.484858
N47	N	0.552340	-0.592538	0.625346
O48	O	0.750867	-0.598274	0.477076
O49	O	0.751048	-0.718989	0.640960
O50	O	0.750981	-0.718715	0.537020
O51	O	0.750934	-0.598547	0.581017
O52	O	0.647701	-0.684348	0.571512
O53	O	0.647768	-0.684622	0.675452
O54	O	0.647587	-0.563907	0.511569
Cu55	Cu	0.638247	-0.621127	0.596660
Cu56	Cu	0.760388	-0.661769	0.555869
O57	O	0.647654	-0.564181	0.615509
N58	N	0.846295	-0.690358	0.527176
N59	N	0.114503	-0.154778	0.625499
O60	O	-0.033701	0.043855	0.619632
O61	O	0.130190	0.043858	0.498933
O62	O	0.026233	0.043841	0.499224
O63	O	0.070257	0.043872	0.619341
O64	O	0.060690	-0.059448	0.533654
O65	O	0.164647	-0.059431	0.533363
O66	O	0.000756	-0.059434	0.654062
Cu67	Cu	0.085848	-0.068863	0.596857
Cu68	Cu	0.045099	0.053287	0.556138
O69	O	0.104714	-0.059417	0.653771
N70	N	0.016435	0.139202	0.527497
N71	N	0.114760	-0.592585	1.063190
O72	O	0.108896	-0.740779	1.261808
O73	O	-0.011787	-0.576838	1.261822
O74	O	-0.011509	-0.680779	1.261780
O75	O	0.108618	-0.636838	1.261850
O76	O	0.022916	-0.646341	1.158496
O77	O	0.022638	-0.542399	1.158538
O78	O	0.143321	-0.706341	1.158524
Cu79	Cu	0.086123	-0.621225	1.149100
Cu80	Cu	0.045411	-0.661953	1.271246
O81	O	0.143044	-0.602399	1.158566
N82	N	0.016774	-0.690600	1.357156
C83	C	0.039504	-0.538867	0.499769
C84	C	0.168130	-0.667407	0.499680
C85	C	0.091482	-0.744243	0.653289
C86	C	-0.037145	-0.615703	0.653378
C87	C	0.699429	-0.718429	0.678853
C88	C	0.699348	-0.718091	0.550135
C89	C	0.699202	-0.564465	0.473677
C90	C	0.699287	-0.564805	0.602393
C91	C	0.168023	-0.007659	0.499484
C92	C	0.039327	-0.007807	0.499887
C93	C	-0.037119	-0.007789	0.653468
C94	C	0.091620	-0.007770	0.653109
C95	C	-0.011194	-0.538964	1.210181
C96	C	-0.010843	-0.667676	1.210109
C97	C	0.142729	-0.744214	1.210165
C98	C	0.142386	-0.615494	1.210214
H99	H	0.059391	-0.503396	0.940172
O100	O	0.187472	-0.604396	1.210256
C101	C	0.241068	-0.657728	1.210238
H102	H	0.227509	-0.700421	1.229779
H103	H	0.274835	-0.652718	1.160688
C104	C	0.288967	-0.612648	1.226753
C105	C	0.272313	-0.665084	1.250759
H106	H	0.308243	-0.617185	1.251746
H107	H	0.252860	-0.576716	1.226763
H108	H	0.317104	-0.608479	1.185462
H109	H	0.244172	-0.669248	1.292046
H110	H	0.308417	-0.701018	1.250757
O111	O	0.010085	-0.540184	1.063124
C112	C	-0.022583	-0.502548	1.020506
H113	H	0.008406	-0.478911	0.974160
H114	H	-0.036609	-0.532534	1.013591
C115	C	-0.119246	-0.481890	1.102820
C116	C	-0.081186	-0.452855	1.045899
H117	H	-0.155397	-0.451239	1.118485
H118	H	-0.097238	-0.507248	1.131534
H119	H	-0.130927	-0.506878	1.097050
H120	H	-0.069499	-0.427875	1.051671
H121	H	-0.103194	-0.427492	1.017187
O122	O	0.224082	-0.007285	0.454219
C123	C	0.262707	-0.007173	0.476532
H124	H	0.232834	0.012181	0.516539
H125	H	0.294300	-0.056660	0.493560
C126	C	0.339266	0.009884	0.374720
C127	C	0.302575	0.033660	0.423855
H128	H	0.363861	0.035069	0.342227
H129	H	0.313245	0.009806	0.359688
H130	H	0.365588	-0.031354	0.388919
H131	H	0.276248	0.074895	0.409658
H132	H	0.328593	0.033746	0.438883
H133	H	0.212798	-0.639038	1.058038
O134	O	0.699394	-0.763206	0.539001
C135	C	0.699444	-0.816804	0.592321
H136	H	0.719017	-0.816266	0.621964
H137	H	0.649912	-0.817577	0.620372
C138	C	0.715928	-0.875696	0.536219
C139	C	0.739972	-0.875038	0.572625
H140	H	0.740925	-0.911618	0.524071
H141	H	0.715892	-0.839586	0.500297
H142	H	0.674652	-0.876337	0.559601
H143	H	0.781244	-0.874389	0.549241
H144	H	0.740016	-0.911150	0.608543
O145	O	0.028466	-0.482681	0.454609
C146	C	0.081822	-0.482545	0.401057
H147	H	0.124482	-0.519276	0.414687
H148	H	0.076814	-0.493357	0.367308
C149	C	0.036845	-0.373060	0.352992
C150	C	0.089243	-0.418170	0.369735
H151	H	0.041422	-0.333351	0.333669
H152	H	0.000898	-0.373152	0.389070
H153	H	0.032677	-0.382079	0.324871
H154	H	0.093405	-0.409156	0.397861
H155	H	0.125191	-0.418076	0.333660
H156	H	0.699142	-0.526565	0.426612
O157	O	0.699243	-0.519827	0.613733
C158	C	0.699314	-0.542457	0.674764
H159	H	0.679803	-0.582342	0.704146
H160	H	0.748875	-0.559755	0.673820
C161	C	0.682764	-0.440943	0.666926
C162	C	0.658796	-0.489927	0.703016
H163	H	0.657773	-0.408540	0.684354
H164	H	0.682718	-0.425697	0.625808
H165	H	0.724064	-0.455367	0.666143
H166	H	0.617500	-0.475505	0.703793
H167	H	0.658834	-0.505169	0.744136
H168	H	0.252044	-0.599714	0.940097
H169	H	0.029900	-0.007810	0.462151
O170	O	-0.093349	-0.604519	0.698466
C171	C	-0.131941	-0.543500	0.676006
H172	H	-0.102032	-0.514013	0.636124
H173	H	-0.163303	-0.544442	0.658757
C174	C	-0.208865	-0.551622	0.777630
C175	C	-0.172131	-0.515404	0.728650
H176	H	-0.233658	-0.534292	0.810103
H177	H	-0.182867	-0.592733	0.792762
H178	H	-0.234995	-0.552405	0.763248
H179	H	-0.145997	-0.514629	0.743030
H180	H	-0.198126	-0.474293	0.713521
O181	O	-0.093317	-0.007750	0.698596
C182	C	-0.131973	-0.007772	0.676254
H183	H	-0.115164	0.011766	0.623355
H184	H	-0.130297	-0.057325	0.692056
C185	C	-0.219811	0.008751	0.766934
C186	C	-0.199170	0.032754	0.701962
H187	H	-0.261262	0.033747	0.782793
H188	H	-0.193768	0.008764	0.781988
H189	H	-0.218410	-0.032542	0.780093
H190	H	-0.200564	0.074043	0.688803
H191	H	-0.225215	0.032749	0.686906
H192	H	0.699474	-0.756325	0.725922
O193	O	0.102974	-0.007799	0.698074
C194	C	0.164014	-0.007782	0.675445
H195	H	0.193381	-0.027332	0.635576
H196	H	0.163094	0.041770	0.658126
C197	C	0.156195	-0.024283	0.776943
C198	C	0.192266	-0.048299	0.727980
H199	H	0.173622	-0.049273	0.809349
H200	H	0.115071	-0.024292	0.792189
H201	H	0.155432	0.017010	0.762503
H202	H	0.193023	-0.089588	0.742418
H203	H	0.233392	-0.048298	0.712738
O204	O	-0.056321	-0.482742	1.210101
C205	C	-0.035095	-0.435930	1.156614
H206	H	0.017838	-0.453023	1.138791
H207	H	-0.052706	-0.424314	1.119144
C208	C	-0.124636	-0.356402	1.194769
C209	C	-0.059623	-0.377395	1.172882
H210	H	-0.139768	-0.320293	1.204803
H211	H	-0.138938	-0.387940	1.230804
H212	H	-0.139304	-0.346726	1.163541
H213	H	-0.044957	-0.387077	1.204113
H214	H	-0.045319	-0.345857	1.136853
O215	O	0.052556	-0.497478	0.720493
C216	C	-0.008508	-0.488274	0.729730
H217	H	-0.008410	-0.495532	0.690535
H218	H	-0.027113	-0.522881	0.776042
C219	C	-0.050329	-0.412755	0.778345
C220	C	-0.050210	-0.421664	0.730203
H221	H	-0.076054	-0.371668	0.778640
H222	H	-0.009190	-0.418957	0.772124
H223	H	-0.065832	-0.441598	0.816934
H224	H	-0.034700	-0.392826	0.691615
H225	H	-0.091348	-0.415455	0.736417
O226	O	-0.055771	-0.678959	1.210004
C227	C	-0.033153	-0.740007	1.209987
H228	H	0.019744	-0.756369	1.190477
H229	H	-0.048886	-0.772139	1.259523
C230	C	-0.123615	-0.721091	1.193374
C231	C	-0.058647	-0.741185	1.169406
H232	H	-0.139343	-0.721818	1.168343
H233	H	-0.138856	-0.679962	1.193387
H234	H	-0.136718	-0.747870	1.234653
H235	H	-0.045545	-0.714401	1.128131
H236	H	-0.043405	-0.782309	1.169385
H237	H	0.212545	-0.638970	0.578981
O238	O	0.261935	-0.602192	0.615770
C239	C	0.294565	-0.639803	0.578103
H240	H	0.263567	-0.663447	0.586411
H241	H	0.308541	-0.609795	0.527183
C242	C	0.391278	-0.660442	0.584316
C243	C	0.353206	-0.689487	0.594523
H244	H	0.427452	-0.691088	0.594442
H245	H	0.369295	-0.635101	0.609691
H246	H	0.402918	-0.635436	0.541882
H247	H	0.341561	-0.714485	0.636957
H248	H	0.375188	-0.714833	0.569156
O249	O	0.424295	-0.653583	0.707610
C250	C	0.466938	-0.714214	0.711102
H251	H	0.513267	-0.711739	0.672696
H252	H	0.473878	-0.739033	0.758211
C253	C	0.384660	-0.753304	0.750328
C254	C	0.441560	-0.750263	0.703155
H255	H	0.369005	-0.775542	0.745429
H256	H	0.355929	-0.712456	0.747978
H257	H	0.390451	-0.773984	0.789582
H258	H	0.435767	-0.729576	0.663903
H259	H	0.470289	-0.791108	0.705498
H260	H	0.215222	-0.676694	0.461838
H261	H	0.180620	-0.791296	1.210154
H262	H	0.547237	-0.686258	0.663446
O263	O	0.552288	-0.488824	0.585726
C264	C	0.536360	-0.444681	0.532143
H265	H	0.518474	-0.464711	0.517211
H266	H	0.498627	-0.400853	0.542778
C267	C	0.616062	-0.404005	0.497754
C268	C	0.594099	-0.428609	0.479412
H269	H	0.651677	-0.394088	0.465227
H270	H	0.626792	-0.433743	0.533855
H271	H	0.584612	-0.367485	0.506617
H272	H	0.625546	-0.465132	0.470557
H273	H	0.583376	-0.398876	0.443308
O274	O	0.424058	-0.446153	0.628599
C275	C	0.359710	-0.435976	0.654374
H276	H	0.350829	-0.475711	0.657503
H277	H	0.341281	-0.433675	0.702827
C278	C	0.337217	-0.325489	0.609006
C279	C	0.326310	-0.374290	0.612845
H280	H	0.316613	-0.287437	0.583391
H281	H	0.380570	-0.332345	0.591643
H282	H	0.321859	-0.323580	0.649387
H283	H	0.341674	-0.376203	0.572466
H284	H	0.282959	-0.367432	0.630200
O285	O	0.209502	-0.282835	0.563458
C286	C	0.218690	-0.240193	0.502402
H287	H	0.179486	-0.193852	0.502533
H288	H	0.264998	-0.233273	0.483761
C289	C	0.267280	-0.322479	0.460549
C290	C	0.219126	-0.265563	0.460710
H291	H	0.267552	-0.338128	0.434830
H292	H	0.261092	-0.351208	0.501684
H293	H	0.305865	-0.316704	0.445017
H294	H	0.180542	-0.271339	0.476249
H295	H	0.225307	-0.236835	0.419577
H296	H	0.019945	-0.542665	0.675322
H297	H	0.164306	-0.159876	0.530897
H298	H	0.107441	-0.277854	0.762810
O299	O	0.062297	-0.154870	0.730226
C300	C	0.095162	-0.170750	0.767782
H301	H	0.133015	-0.217950	0.768401
H302	H	0.117215	-0.134154	0.748223
C303	C	0.003646	-0.115798	0.833633
C304	C	0.050135	-0.173773	0.834397
H305	H	-0.024129	-0.117660	0.874723
H306	H	-0.018496	-0.105097	0.808329
H307	H	0.022031	-0.085307	0.817330
H308	H	0.031750	-0.204260	0.850692
H309	H	0.072272	-0.184479	0.859705
O310	O	0.102622	-0.800503	0.698331
C311	C	0.117224	-0.847275	0.677009
H312	H	0.097219	-0.826087	0.638418
H313	H	0.169811	-0.869117	0.658340
C314	C	0.113731	-0.923504	0.778465
C315	C	0.089157	-0.897481	0.731070
H316	H	0.096421	-0.954475	0.811812
H317	H	0.103896	-0.891994	0.792830
H318	H	0.157553	-0.941701	0.762900
H319	H	0.045337	-0.879278	0.746634
H320	H	0.098984	-0.928990	0.716709
