data_functionalizedCrystal
_audit_creation_method	'MofGen! by Chris Wilmer'
_symmetry_space_group_name_H-M	'P1'
_symmetry_Int_Tables_number	1
_symmetry_cell_setting	triclinic
loop_
_symmetry_equiv_pos_as_xyz
  x,y,z
_cell_length_a	13.262522
_cell_length_b	17.699104
_cell_length_c	16.176319
_cell_angle_alpha	90.007741
_cell_angle_beta	105.923156
_cell_angle_gamma	83.883526
loop_
_atom_site_label
_atom_site_type_symbol
_atom_site_fract_x
_atom_site_fract_y
_atom_site_fract_z
O1	O	1.392452	0.101944	0.381811
O2	O	1.086836	0.113029	0.313102
O3	O	1.248267	-0.002663	0.349388
O4	O	1.231021	0.217636	0.345525
O5	O	1.248245	-0.002670	0.211890
O6	O	1.086814	0.113021	0.175604
O7	O	1.392430	0.101937	0.244313
Cu8	Cu	1.239620	0.107478	0.197404
Cu9	Cu	1.239646	0.107487	0.360011
O10	O	1.230999	0.217629	0.208027
C11	C	1.047722	0.112404	0.235562
C12	C	0.931206	0.110544	0.209366
C13	C	0.876463	0.109667	0.122105
C14	C	0.766992	0.107912	0.097486
C15	C	0.712254	0.107040	0.160127
C16	C	0.766996	0.107922	0.247390
C17	C	0.876479	0.109671	0.272011
C18	C	0.712270	0.107044	0.310033
C19	C	0.767013	0.107926	0.397296
C20	C	0.876484	0.109675	0.421913
C21	C	0.931223	0.110548	0.359272
C22	C	0.602787	0.105295	0.285412
C23	C	0.602804	0.105299	0.435318
C24	C	0.712274	0.107054	0.459936
C25	C	1.247634	-0.030866	0.280499
C26	C	1.245769	-0.114892	0.280079
C27	C	1.330008	-0.639386	0.299042
C28	C	1.331754	-0.560434	0.299427
C29	C	1.236988	-0.512241	0.278119
C30	C	1.140469	-0.543002	0.256417
C31	C	1.138724	-0.621953	0.256026
C32	C	1.147505	-0.224605	0.257992
C33	C	1.149257	-0.145650	0.258387
C34	C	1.340535	-0.163086	0.301392
C35	C	1.338790	-0.242037	0.301002
C36	C	1.242272	-0.272791	0.279295
C37	C	1.240379	-0.358400	0.278876
C38	C	1.238879	-0.426634	0.278544
C39	C	1.431545	0.102562	0.321856
C40	C	1.548060	0.104422	0.348056
C41	C	1.231632	0.245832	0.276918
C42	C	1.233497	0.329858	0.277343
N43	N	1.239609	0.107472	0.083036
C44	C	1.311112	0.056265	0.055844
C45	C	1.311118	0.056264	-0.030702
C46	C	1.239624	0.107474	-0.090053
C47	C	1.168113	0.158684	-0.062857
C48	C	1.168104	0.158681	0.023687
C49	C	1.168149	0.158698	-0.411877
C50	C	1.168166	0.158699	-0.498425
C51	C	1.311163	0.056282	-0.466265
C52	C	1.311154	0.056278	-0.379722
C53	C	1.239640	0.107485	-0.352534
C54	C	1.239633	0.107484	-0.258691
C55	C	1.239635	0.107479	-0.183893
N56	N	1.239665	0.107488	0.474381
H57	H	0.921055	0.110383	0.492968
O58	O	1.034630	-0.655131	0.232616
H59	H	1.029266	-0.690685	0.287444
H60	H	1.369374	0.014580	-0.331398
O61	O	1.432226	-0.691360	0.322017
H62	H	1.436028	-0.727737	0.378915
O63	O	1.388220	0.001027	0.119858
H64	H	1.437933	-0.034586	0.086404
H65	H	1.109896	0.200378	-0.111187
H66	H	1.109877	0.200378	0.045824
H67	H	1.410343	-0.535396	0.317095
H68	H	0.558225	0.104583	0.214361
O69	O	0.594179	0.105157	0.133580
H70	H	0.565307	0.104699	0.062378
O71	O	1.444641	-0.129915	0.324805
H72	H	1.490169	-0.149263	0.279009
H73	H	0.756861	0.107772	0.530987
O74	O	1.388257	0.001047	-0.060029
H75	H	1.437984	-0.034551	-0.004216
H76	H	0.722430	0.107184	0.026437
H77	H	0.921042	0.110371	0.071113
O78	O	1.091068	0.213947	-0.562442
H79	H	1.041338	0.249555	-0.528998
H80	H	0.558236	0.104590	0.486325
O81	O	1.091030	0.213932	-0.382553
H82	H	1.041330	0.249548	-0.438364
H83	H	1.369391	0.014584	-0.488411
H84	H	1.415958	-0.281273	0.318357
H85	H	1.072082	-0.106412	0.241033
H86	H	1.063309	-0.503757	0.239063
O87	O	1.049299	0.112443	0.385830
H88	H	1.087650	0.061381	0.362097
O89	O	1.043409	-0.257773	0.234583
H90	H	0.977809	-0.210996	0.219841
