data_functionalizedCrystal
_audit_creation_method	'MofGen! by Chris Wilmer'
_symmetry_space_group_name_H-M	'P1'
_symmetry_Int_Tables_number	1
_symmetry_cell_setting	triclinic
loop_
_symmetry_equiv_pos_as_xyz
  x,y,z
_cell_length_a	29.839131
_cell_length_b	29.839135
_cell_length_c	29.839125
_cell_angle_alpha	90.001264
_cell_angle_beta	89.988394
_cell_angle_gamma	90.042543
loop_
_atom_site_label
_atom_site_type_symbol
_atom_site_fract_x
_atom_site_fract_y
_atom_site_fract_z
Zn1	Zn	-0.178930	0.686727	-0.253827
Zn2	Zn	0.071070	0.936727	-0.003827
Zn3	Zn	0.321070	1.186727	0.246173
Zn4	Zn	0.571070	1.436727	0.496173
Zn5	Zn	-0.254034	0.686657	-0.178697
Zn6	Zn	-0.004034	0.936657	0.071303
Zn7	Zn	0.245966	1.186657	0.321303
Zn8	Zn	0.495966	1.436657	0.571303
Zn9	Zn	-0.178920	0.611608	-0.178729
Zn10	Zn	0.071080	0.861608	0.071271
Zn11	Zn	0.321080	1.111608	0.321271
Zn12	Zn	0.571080	1.361608	0.571271
Zn13	Zn	-0.254035	0.611557	-0.253818
Zn14	Zn	-0.004035	0.861557	-0.003818
Zn15	Zn	0.245965	1.111557	0.246182
Zn16	Zn	0.495965	1.361557	0.496182
O17	O	-0.216480	0.649137	-0.216267
O18	O	0.033520	0.899137	0.033733
O19	O	0.283520	1.149137	0.283733
O20	O	0.533520	1.399137	0.533733
O21	O	-0.188896	0.749585	-0.243851
O22	O	0.061104	0.999585	0.006149
O23	O	0.311104	1.249585	0.256149
O24	O	0.561104	1.499585	0.506149
O25	O	-0.244065	0.676693	-0.115834
O26	O	0.005935	0.926693	0.134166
O27	O	0.255935	1.176693	0.384166
O28	O	0.505935	1.426693	0.634166
O29	O	-0.116054	0.621623	-0.188708
O30	O	0.133946	0.871623	0.061292
O31	O	0.383946	1.121623	0.311292
O32	O	0.633946	1.371623	0.561292
O33	O	-0.244075	0.749533	-0.188653
O34	O	0.005925	0.999533	0.061347
O35	O	0.255925	1.249533	0.311347
O36	O	0.505925	1.499533	0.561347
O37	O	-0.116062	0.676812	-0.243882
O38	O	0.133938	0.926812	0.006118
O39	O	0.383938	1.176812	0.256118
O40	O	0.633938	1.426812	0.506118
O41	O	-0.188880	0.621555	-0.115857
O42	O	0.061120	0.871555	0.134143
O43	O	0.311120	1.121555	0.384143
O44	O	0.561120	1.371555	0.634143
O45	O	-0.188881	0.548734	-0.188699
O46	O	0.061119	0.798734	0.061301
O47	O	0.311119	1.048734	0.311301
O48	O	0.561119	1.298734	0.561301
O49	O	-0.244077	0.621537	-0.316686
O50	O	0.005923	0.871537	-0.066686
O51	O	0.255923	1.121537	0.183314
O52	O	0.505923	1.371537	0.433314
O53	O	-0.244067	0.548697	-0.243867
O54	O	0.005933	0.798697	0.006133
O55	O	0.255933	1.048697	0.256133
O56	O	0.505933	1.298697	0.506133
O57	O	-0.188897	0.676764	-0.316693
O58	O	0.061103	0.926764	-0.066693
O59	O	0.311103	1.176764	0.183307
O60	O	0.561103	1.426764	0.433307
O61	O	-0.316901	0.676645	-0.188644
O62	O	-0.066901	0.926645	0.061356
O63	O	0.183099	1.176645	0.311356
O64	O	0.433099	1.426645	0.561356
O65	O	-0.316902	0.621469	-0.243835
O66	O	-0.066902	0.871469	0.006165
O67	O	0.183098	1.121469	0.256165
O68	O	0.433098	1.371469	0.506165
C69	C	-0.333202	0.649056	-0.216245
C70	C	-0.083202	0.899056	0.033755
C71	C	0.166798	1.149056	0.283755
C72	C	0.416798	1.399056	0.533755
C73	C	-0.383137	0.649062	-0.216251
C74	C	-0.133137	0.899062	0.033749
C75	C	0.116863	1.149062	0.283749
C76	C	0.366863	1.399062	0.533749
C77	C	-0.216474	0.532415	-0.216286
C78	C	0.033526	0.782415	0.033714
C79	C	0.283526	1.032415	0.283714
C80	C	0.533526	1.282415	0.533714
C81	C	-0.216482	0.482480	-0.216304
C82	C	0.033518	0.732480	0.033696
C83	C	0.283518	0.982480	0.283696
C84	C	0.533518	1.232480	0.533696
C85	C	-0.216488	0.649153	-0.333446
C86	C	0.033512	0.899153	-0.083446
C87	C	0.283512	1.149153	0.166554
C88	C	0.533512	1.399153	0.416554
C89	C	-0.216492	0.649159	-0.383380
C90	C	0.033508	0.899159	-0.133380
C91	C	0.283508	1.149159	0.116620
C92	C	0.533508	1.399159	0.366620
C93	C	-0.692767	0.677919	-0.187571
C94	C	-0.442767	0.927919	0.062429
C95	C	-0.192767	1.177919	0.312429
C96	C	0.057233	1.427919	0.562429
C97	C	-0.880440	0.677975	-0.187589
C98	C	-0.630440	0.927975	0.062411
C99	C	-0.380440	1.177975	0.312411
C100	C	-0.130440	1.427975	0.562411
O101	O	-0.904694	0.702445	-0.163188
O102	O	-0.654694	0.952445	0.086812
O103	O	-0.404694	1.202445	0.336812
O104	O	-0.154694	1.452445	0.586812
N105	N	-0.903922	0.649230	-0.216301
N106	N	-0.653922	0.899230	0.033699
N107	N	-0.403922	1.149230	0.283699
N108	N	-0.153922	1.399230	0.533699
C109	C	-0.880482	0.620472	-0.245014
C110	C	-0.630482	0.870472	0.004986
C111	C	-0.380482	1.120472	0.254986
C112	C	-0.130482	1.370472	0.504986
O113	O	-0.904761	0.596028	-0.269439
O114	O	-0.654761	0.846028	-0.019439
O115	O	-0.404761	1.096028	0.230561
O116	O	-0.154761	1.346028	0.480561
C117	C	-0.692810	0.620419	-0.244998
C118	C	-0.442810	0.870419	0.005002
C119	C	-0.192810	1.120419	0.255002
C120	C	0.057190	1.370419	0.505002
C121	C	-0.669331	0.649162	-0.216280
C122	C	-0.419331	0.899162	0.033720
C123	C	-0.169331	1.149162	0.283720
C124	C	0.080669	1.399162	0.533720
C125	C	-0.669288	0.706660	-0.158857
C126	C	-0.419288	0.956660	0.091143
C127	C	-0.169288	1.206660	0.341143
C128	C	0.080712	1.456660	0.591143
C129	C	-0.622372	0.706644	-0.158851
C130	C	-0.372372	0.956644	0.091149
C131	C	-0.122372	1.206644	0.341149
C132	C	0.127628	1.456644	0.591149
C133	C	-0.598936	0.677887	-0.187560
C134	C	-0.348936	0.927887	0.062440
C135	C	-0.098936	1.177887	0.312440
C136	C	0.151064	1.427887	0.562440
C137	C	-0.622416	0.649146	-0.216275
C138	C	-0.372416	0.899146	0.033725
C139	C	-0.122416	1.149146	0.283725
C140	C	0.127584	1.399146	0.533725
C141	C	-0.669372	0.591664	-0.273712
C142	C	-0.419372	0.841664	-0.023712
C143	C	-0.169372	1.091664	0.226288
C144	C	0.080628	1.341664	0.476288
C145	C	-0.622451	0.591654	-0.273707
C146	C	-0.372451	0.841654	-0.023707
C147	C	-0.122451	1.091654	0.226293
C148	C	0.127549	1.341654	0.476293
C149	C	-0.598971	0.620397	-0.244989
C150	C	-0.348971	0.870397	0.005011
C151	C	-0.098971	1.120397	0.255011
C152	C	0.151029	1.370397	0.505011
C153	C	-0.552064	0.620374	-0.244978
C154	C	-0.302064	0.870374	0.005022
C155	C	-0.052064	1.120374	0.255022
C156	C	0.197936	1.370374	0.505022
N157	N	-0.528582	0.649118	-0.216266
N158	N	-0.278582	0.899118	0.033734
N159	N	-0.028582	1.149118	0.283734
N160	N	0.221418	1.399118	0.533734
C161	C	-0.552018	0.677875	-0.187556
C162	C	-0.302018	0.927875	0.062444
C163	C	-0.052018	1.177875	0.312444
C164	C	0.197982	1.427875	0.562444
C165	C	-0.979013	0.620501	-0.245019
C166	C	-0.729013	0.870501	0.004981
C167	C	-0.479013	1.120501	0.254981
C168	C	-0.229013	1.370501	0.504981
C169	C	-1.025931	0.620514	-0.245022
C170	C	-0.775931	0.870514	0.004978
C171	C	-0.525931	1.120514	0.254978
C172	C	-0.275931	1.370514	0.504978
C173	C	-1.025885	0.678017	-0.187598
C174	C	-0.775885	0.928017	0.062402
C175	C	-0.525885	1.178017	0.312402
C176	C	-0.275885	1.428017	0.562402
C177	C	-0.978967	0.678002	-0.187593
C178	C	-0.728967	0.928002	0.062407
C179	C	-0.478967	1.178002	0.312407
C180	C	-0.228967	1.428002	0.562407
C181	C	-0.955531	0.649246	-0.216307
C182	C	-0.705531	0.899246	0.033693
C183	C	-0.455531	1.149246	0.283693
C184	C	-0.205531	1.399246	0.533693
C185	C	-0.453493	0.677839	-0.187546
C186	C	-0.203493	0.927839	0.062454
C187	C	0.046507	1.177839	0.312454
C188	C	0.296507	1.427839	0.562454
C189	C	-0.406573	0.677819	-0.187542
C190	C	-0.156573	0.927819	0.062458
C191	C	0.093427	1.177819	0.312458
C192	C	0.343427	1.427819	0.562458
C193	C	-0.406623	0.620318	-0.244967
C194	C	-0.156623	0.870318	0.005033
C195	C	0.093377	1.120318	0.255033
C196	C	0.343377	1.370318	0.505033
C197	C	-0.453538	0.620336	-0.244970
C198	C	-0.203538	0.870336	0.005030
C199	C	0.046462	1.120336	0.255030
C200	C	0.296462	1.370336	0.505030
C201	C	-0.476972	0.649100	-0.216258
C202	C	-0.226972	0.899100	0.033742
C203	C	0.023028	1.149100	0.283742
C204	C	0.273028	1.399100	0.533742
O205	O	-0.527781	0.595919	-0.269370
O206	O	-0.277781	0.845919	-0.019370
O207	O	-0.027781	1.095919	0.230630
O208	O	0.222219	1.345919	0.480630
O209	O	-0.527731	0.702322	-0.163142
O210	O	-0.277731	0.952322	0.086858
O211	O	-0.027731	1.202322	0.336858
O212	O	0.222269	1.452322	0.586858
C213	C	-0.739683	0.677935	-0.187577
C214	C	-0.489683	0.927935	0.062423
C215	C	-0.239683	1.177935	0.312423
C216	C	0.010317	1.427935	0.562423
C217	C	-0.763162	0.649194	-0.216292
C218	C	-0.513162	0.899194	0.033708
C219	C	-0.263162	1.149194	0.283708
C220	C	-0.013162	1.399194	0.533708
C221	C	-0.739726	0.620437	-0.245001
C222	C	-0.489726	0.870437	0.004999
C223	C	-0.239726	1.120437	0.254999
C224	C	0.010274	1.370437	0.504999
C225	C	-0.810080	0.649207	-0.216295
C226	C	-0.560080	0.899207	0.033705
C227	C	-0.310080	1.149207	0.283705
C228	C	-0.060080	1.399207	0.533705
C229	C	-0.833516	0.677963	-0.187586
C230	C	-0.583516	0.927963	0.062414
C231	C	-0.333516	1.177963	0.312414
C232	C	-0.083516	1.427963	0.562414
C233	C	-0.810034	0.706708	-0.158874
C234	C	-0.560034	0.956708	0.091126
C235	C	-0.310034	1.206708	0.341126
C236	C	-0.060034	1.456708	0.591126
C237	C	-0.763119	0.706692	-0.158868
C238	C	-0.513119	0.956692	0.091132
C239	C	-0.263119	1.206692	0.341132
C240	C	-0.013119	1.456692	0.591132
C241	C	-0.763207	0.591693	-0.273714
C242	C	-0.513207	0.841693	-0.023714
C243	C	-0.263207	1.091693	0.226286
C244	C	-0.013207	1.341693	0.476286
C245	C	-0.810123	0.591711	-0.273717
C246	C	-0.560123	0.841711	-0.023717
C247	C	-0.310123	1.091711	0.226283
C248	C	-0.060123	1.341711	0.476283
C249	C	-0.833559	0.620468	-0.245008
C250	C	-0.583559	0.870468	0.004992
C251	C	-0.333559	1.120468	0.254992
C252	C	-0.083559	1.370468	0.504992
C253	C	-0.099301	0.649231	-0.216300
C254	C	0.150699	0.899231	0.033700
C255	C	0.400699	1.149231	0.283700
C256	C	0.650699	1.399231	0.533700
C257	C	-0.049367	0.649271	-0.216313
C258	C	0.200633	0.899271	0.033687
C259	C	0.450633	1.149271	0.283687
C260	C	0.700633	1.399271	0.533687
C261	C	-0.216487	0.766316	-0.216249
C262	C	0.033513	1.016316	0.033751
C263	C	0.283513	1.266316	0.283751
C264	C	0.533513	1.516316	0.533751
C265	C	-0.216489	0.816250	-0.216242
C266	C	0.033511	1.066250	0.033758
C267	C	0.283511	1.316250	0.283758
C268	C	0.533511	1.566250	0.533758
C269	C	-0.245222	1.172810	-0.187539
C270	C	0.004778	1.422810	0.062461
C271	C	0.254778	1.672810	0.312461
C272	C	0.504778	1.922810	0.562461
C273	C	-0.245221	0.985137	-0.187521
C274	C	0.004779	1.235137	0.062479
C275	C	0.254779	1.485137	0.312479
C276	C	0.504779	1.735137	0.562479
O277	O	-0.269665	0.960850	-0.163091
O278	O	-0.019665	1.210850	0.086909
O279	O	0.230335	1.460850	0.336909
O280	O	0.480335	1.710850	0.586909
N281	N	-0.216493	0.961695	-0.216257
N282	N	0.033507	1.211695	0.033743
N283	N	0.283507	1.461695	0.283743
N284	N	0.533507	1.711695	0.533743
C285	C	-0.187764	0.985174	-0.245002
C286	C	0.062236	1.235174	0.004998
C287	C	0.312236	1.485174	0.254998
C288	C	0.562236	1.735174	0.504998
O289	O	-0.163332	0.960929	-0.269446
O290	O	0.086668	1.210929	-0.019446
O291	O	0.336668	1.460929	0.230554
O292	O	0.586668	1.710929	0.480554
C293	C	-0.187768	1.172846	-0.245021
C294	C	0.062232	1.422846	0.004979
C295	C	0.312232	1.672846	0.254979
C296	C	0.562232	1.922846	0.504979
C297	C	-0.216495	1.196286	-0.216280
C298	C	0.033505	1.446286	0.033720
C299	C	0.283505	1.696286	0.283720
C300	C	0.533505	1.946286	0.533720
C301	C	-0.273948	1.196250	-0.158800
C302	C	-0.023948	1.446250	0.091200
C303	C	0.226052	1.696250	0.341200
C304	C	0.476052	1.946250	0.591200
C305	C	-0.273946	1.243166	-0.158803
C306	C	-0.023946	1.493166	0.091197
C307	C	0.226054	1.743166	0.341197
C308	C	0.476054	1.993166	0.591197
C309	C	-0.245219	1.266641	-0.187545
C310	C	0.004781	1.516641	0.062455
C311	C	0.254781	1.766641	0.312455
C312	C	0.504781	2.016641	0.562455
C313	C	-0.216494	1.243201	-0.216283
C314	C	0.033506	1.493201	0.033717
C315	C	0.283506	1.743201	0.283717
C316	C	0.533506	1.993201	0.533717
C317	C	-0.159042	1.196324	-0.273768
C318	C	0.090958	1.446324	-0.023768
C319	C	0.340958	1.696324	0.226232
C320	C	0.590958	1.946324	0.476232
C321	C	-0.159047	1.243245	-0.273771
C322	C	0.090953	1.493245	-0.023771
C323	C	0.340953	1.743245	0.226229
C324	C	0.590953	1.993245	0.476229
C325	C	-0.187774	1.266685	-0.245030
C326	C	0.062226	1.516685	0.004970
C327	C	0.312226	1.766685	0.254970
C328	C	0.562226	2.016685	0.504970
C329	C	-0.187765	1.313593	-0.245028
C330	C	0.062235	1.563593	0.004972
C331	C	0.312235	1.813593	0.254972
C332	C	0.562235	2.063593	0.504972
N333	N	-0.216493	1.337035	-0.216292
N334	N	0.033507	1.587035	0.033708
N335	N	0.283507	1.837035	0.283708
N336	N	0.533507	2.087035	0.533708
C337	C	-0.245220	1.313559	-0.187550
C338	C	0.004780	1.563559	0.062450
C339	C	0.254780	1.813559	0.312450
C340	C	0.504780	2.063559	0.562450
C341	C	-0.187764	0.886643	-0.244988
C342	C	0.062236	1.136643	0.005012
C343	C	0.312236	1.386643	0.255012
C344	C	0.562236	1.636643	0.505012
C345	C	-0.187762	0.839726	-0.244983
C346	C	0.062238	1.089726	0.005017
C347	C	0.312238	1.339726	0.255017
C348	C	0.562238	1.589726	0.505017
C349	C	-0.245220	0.839692	-0.187503
C350	C	0.004780	1.089692	0.062497
C351	C	0.254780	1.339692	0.312497
C352	C	0.504780	1.589692	0.562497
C353	C	-0.245219	0.886611	-0.187506
C354	C	0.004781	1.136611	0.062494
C355	C	0.254781	1.386611	0.312494
C356	C	0.504781	1.636611	0.562494
C357	C	-0.216492	0.910086	-0.216252
C358	C	0.033508	1.160086	0.033748
C359	C	0.283508	1.410086	0.283748
C360	C	0.533508	1.660086	0.533748
C361	C	-0.245214	1.412085	-0.187559
C362	C	0.004786	1.662085	0.062441
C363	C	0.254786	1.912085	0.312441
C364	C	0.504786	2.162085	0.562441
C365	C	-0.245209	1.459005	-0.187563
C366	C	0.004791	1.709005	0.062437
C367	C	0.254791	1.959005	0.312437
C368	C	0.504791	2.209005	0.562437
C369	C	-0.187753	1.459034	-0.245044
C370	C	0.062247	1.709034	0.004956
C371	C	0.312247	1.959034	0.254956
C372	C	0.562247	2.209034	0.504956
C373	C	-0.187757	1.412118	-0.245039
C374	C	0.062243	1.662118	0.004961
C375	C	0.312243	1.912118	0.254961
C376	C	0.562243	2.162118	0.504961
C377	C	-0.216491	1.388645	-0.216294
C378	C	0.033509	1.638645	0.033706
C379	C	0.283509	1.888645	0.283706
C380	C	0.533509	2.138645	0.533706
O381	O	-0.163337	1.337909	-0.269448
O382	O	0.086663	1.587909	-0.019448
O383	O	0.336663	1.837909	0.230552
O384	O	0.586663	2.087909	0.480552
O385	O	-0.269656	1.337813	-0.163116
O386	O	-0.019656	1.587813	0.086884
O387	O	0.230344	1.837813	0.336884
O388	O	0.480344	2.087813	0.586884
C389	C	-0.245224	1.125895	-0.187536
C390	C	0.004776	1.375895	0.062464
C391	C	0.254776	1.625895	0.312464
C392	C	0.504776	1.875895	0.562464
C393	C	-0.216499	1.102455	-0.216274
C394	C	0.033501	1.352455	0.033726
C395	C	0.283501	1.602455	0.283726
C396	C	0.533501	1.852455	0.533726
C397	C	-0.187772	1.125931	-0.245016
C398	C	0.062228	1.375931	0.004984
C399	C	0.312228	1.625931	0.254984
C400	C	0.562228	1.875931	0.504984
C401	C	-0.216497	1.055537	-0.216269
C402	C	0.033503	1.305537	0.033731
C403	C	0.283503	1.555537	0.283731
C404	C	0.533503	1.805537	0.533731
C405	C	-0.245224	1.032062	-0.187527
C406	C	0.004776	1.282062	0.062473
C407	C	0.254776	1.532062	0.312473
C408	C	0.504776	1.782062	0.562473
C409	C	-0.273953	1.055504	-0.158791
C410	C	-0.023953	1.305504	0.091209
C411	C	0.226047	1.555504	0.341209
C412	C	0.476047	1.805504	0.591209
C413	C	-0.273951	1.102419	-0.158794
C414	C	-0.023951	1.352419	0.091206
C415	C	0.226049	1.602419	0.341206
C416	C	0.476049	1.852419	0.591206
C417	C	-0.159043	1.102488	-0.273752
C418	C	0.090957	1.352488	-0.023752
C419	C	0.340957	1.602488	0.226248
C420	C	0.590957	1.852488	0.476248
C421	C	-0.159047	1.055573	-0.273746
C422	C	0.090953	1.305573	-0.023746
C423	C	0.340953	1.555573	0.226254
C424	C	0.590953	1.805573	0.476254
C425	C	-0.187774	1.032097	-0.245004
C426	C	0.062226	1.282097	0.004996
C427	C	0.312226	1.532097	0.254996
C428	C	0.562226	1.782097	0.504996
C429	C	-0.245121	0.620434	-0.739964
C430	C	0.004879	0.870434	-0.489964
C431	C	0.254879	1.120434	-0.239964
C432	C	0.504879	1.370434	0.010036
C433	C	-0.245173	0.620418	-0.552291
C434	C	0.004827	0.870418	-0.302291
C435	C	0.254827	1.120418	-0.052291
C436	C	0.504827	1.370418	0.197709
O437	O	-0.269598	0.595950	-0.528024
O438	O	-0.019598	0.845950	-0.278024
O439	O	0.230402	1.095950	-0.028024
O440	O	0.480402	1.345950	0.221976
N441	N	-0.216450	0.649169	-0.528825
N442	N	0.033550	0.899169	-0.278825
N443	N	0.283550	1.149169	-0.028825
N444	N	0.533550	1.399169	0.221175
C445	C	-0.187711	0.677925	-0.552281
C446	C	0.062289	0.927925	-0.302281
C447	C	0.312289	1.177925	-0.052281
C448	C	0.562289	1.427925	0.197719
O449	O	-0.163279	0.702376	-0.528016
O450	O	0.086721	0.952376	-0.278016
O451	O	0.336721	1.202376	-0.028016
O452	O	0.586721	1.452376	0.221984
C453	C	-0.187657	0.677938	-0.739953
C454	C	0.062343	0.927938	-0.489953
C455	C	0.312343	1.177938	-0.239953
C456	C	0.562343	1.427938	0.010047
C457	C	-0.216385	0.649188	-0.763416
C458	C	0.033615	0.899188	-0.513416
C459	C	0.283615	1.149188	-0.263416
C460	C	0.533615	1.399188	-0.013416
C461	C	-0.273845	0.591686	-0.763427
C462	C	-0.023845	0.841686	-0.513427
C463	C	0.226155	1.091686	-0.263427
C464	C	0.476155	1.341686	-0.013427
C465	C	-0.273834	0.591692	-0.810343
C466	C	-0.023834	0.841692	-0.560343
C467	C	0.226166	1.091692	-0.310343
C468	C	0.476166	1.341692	-0.060343
C469	C	-0.245098	0.620446	-0.833795
C470	C	0.004902	0.870446	-0.583795
C471	C	0.254902	1.120446	-0.333795
C472	C	0.504902	1.370446	-0.083795
C473	C	-0.216373	0.649194	-0.810332
C474	C	0.033627	0.899194	-0.560332
C475	C	0.283627	1.149194	-0.310332
C476	C	0.533627	1.399194	-0.060332
C477	C	-0.158916	0.706691	-0.763408
C478	C	0.091084	0.956691	-0.513408
C479	C	0.341084	1.206691	-0.263408
C480	C	0.591084	1.456691	-0.013408
C481	C	-0.158904	0.706691	-0.810329
C482	C	0.091096	0.956691	-0.560329
C483	C	0.341096	1.206691	-0.310329
C484	C	0.591096	1.456691	-0.060329
C485	C	-0.187632	0.677941	-0.833792
C486	C	0.062368	0.927941	-0.583792
C487	C	0.312368	1.177941	-0.333792
C488	C	0.562368	1.427941	-0.083792
C489	C	-0.187625	0.677954	-0.880700
C490	C	0.062375	0.927954	-0.630700
C491	C	0.312375	1.177954	-0.380700
C492	C	0.562375	1.427954	-0.130700
N493	N	-0.216348	0.649203	-0.904165
N494	N	0.033652	0.899203	-0.654165
N495	N	0.283652	1.149203	-0.404165
N496	N	0.533652	1.399203	-0.154165
C497	C	-0.245084	0.620449	-0.880713
C498	C	0.004916	0.870449	-0.630713
C499	C	0.254916	1.120449	-0.380713
C500	C	0.504916	1.370449	-0.130713
C501	C	-0.187742	0.677916	-0.453750
C502	C	0.062258	0.927916	-0.203750
C503	C	0.312258	1.177916	0.046250
C504	C	0.562258	1.427916	0.296250
C505	C	-0.187756	0.677914	-0.406833
C506	C	0.062244	0.927914	-0.156833
C507	C	0.312244	1.177914	0.093167
C508	C	0.562244	1.427914	0.343167
C509	C	-0.245217	0.620406	-0.406846
C510	C	0.004783	0.870406	-0.156846
C511	C	0.254783	1.120406	0.093154
C512	C	0.504783	1.370406	0.343154
C513	C	-0.245205	0.620411	-0.453764
C514	C	0.004795	0.870411	-0.203764
C515	C	0.254795	1.120411	0.046236
C516	C	0.504795	1.370411	0.296236
C517	C	-0.216464	0.649165	-0.477216
C518	C	0.033536	0.899165	-0.227216
C519	C	0.283536	1.149165	0.022784
C520	C	0.533536	1.399165	0.272784
C521	C	-0.245058	0.620464	-0.979239
C522	C	0.004942	0.870464	-0.729239
C523	C	0.254942	1.120464	-0.479239
C524	C	0.504942	1.370464	-0.229239
C525	C	-0.245045	0.620474	-1.026158
C526	C	0.004955	0.870474	-0.776158
C527	C	0.254955	1.120474	-0.526158
C528	C	0.504955	1.370474	-0.276158
C529	C	-0.187582	0.677980	-1.026141
C530	C	0.062418	0.927980	-0.776141
C531	C	0.312418	1.177980	-0.526141
C532	C	0.562418	1.427980	-0.276141
C533	C	-0.187597	0.677972	-0.979226
C534	C	0.062403	0.927972	-0.729226
C535	C	0.312403	1.177972	-0.479226
C536	C	0.562403	1.427972	-0.229226
C537	C	-0.216336	0.649210	-0.955776
C538	C	0.033664	0.899210	-0.705776
C539	C	0.283664	1.149210	-0.455776
C540	C	0.533664	1.399210	-0.205776
O541	O	-0.163209	0.702406	-0.904996
O542	O	0.086791	0.952406	-0.654996
O543	O	0.336791	1.202406	-0.404996
O544	O	0.586791	1.452406	-0.154996
O545	O	-0.269505	0.595994	-0.904986
O546	O	-0.019505	0.845994	-0.654986
O547	O	0.230495	1.095994	-0.404986
O548	O	0.480495	1.345994	-0.154986
C549	C	-0.245132	0.620428	-0.693049
C550	C	0.004868	0.870428	-0.443049
C551	C	0.254868	1.120428	-0.193049
C552	C	0.504868	1.370428	0.056951
C553	C	-0.216408	0.649176	-0.669586
C554	C	0.033592	0.899176	-0.419586
C555	C	0.283592	1.149176	-0.169586
C556	C	0.533592	1.399176	0.080414
C557	C	-0.187671	0.677930	-0.693038
C558	C	0.062329	0.927930	-0.443038
C559	C	0.312329	1.177930	-0.193038
C560	C	0.562329	1.427930	0.056962
C561	C	-0.216422	0.649173	-0.622668
C562	C	0.033578	0.899173	-0.372668
C563	C	0.283578	1.149173	-0.122668
C564	C	0.533578	1.399173	0.127332
C565	C	-0.245158	0.620419	-0.599215
C566	C	0.004842	0.870419	-0.349215
C567	C	0.254842	1.120419	-0.099215
C568	C	0.504842	1.370419	0.150785
C569	C	-0.273880	0.591668	-0.622681
C570	C	-0.023880	0.841668	-0.372681
C571	C	0.226120	1.091668	-0.122681
C572	C	0.476120	1.341668	0.127319
C573	C	-0.273868	0.591674	-0.669596
C574	C	-0.023868	0.841674	-0.419596
C575	C	0.226132	1.091674	-0.169596
C576	C	0.476132	1.341674	0.080404
C577	C	-0.158949	0.706682	-0.669572
C578	C	0.091051	0.956682	-0.419572
C579	C	0.341051	1.206682	-0.169572
C580	C	0.591051	1.456682	0.080428
C581	C	-0.158963	0.706674	-0.622657
C582	C	0.091037	0.956674	-0.372657
C583	C	0.341037	1.206674	-0.122657
C584	C	0.591037	1.456674	0.127343
C585	C	-0.187700	0.677919	-0.599204
C586	C	0.062300	0.927919	-0.349204
C587	C	0.312300	1.177919	-0.099204
C588	C	0.562300	1.427919	0.150796
C589	C	-0.216439	0.649148	-0.099545
C590	C	0.033561	0.899148	0.150455
C591	C	0.283561	1.149148	0.400455
C592	C	0.533561	1.399148	0.650455
C593	C	-0.216309	0.649228	-0.049611
C594	C	0.033691	0.899228	0.200389
C595	C	0.283691	1.149228	0.450389
C596	C	0.533691	1.399228	0.700389
H597	H	-0.387458	0.701225	-0.164155
H598	H	-0.137458	0.951225	0.085845
H599	H	0.112542	1.201225	0.335845
H600	H	0.362542	1.451225	0.585845
C601	C	-0.127443	1.269065	-0.305393
C602	C	0.122557	1.519065	-0.055393
C603	C	0.372557	1.769065	0.194607
C604	C	0.622557	2.019065	0.444607
N605	N	-0.103638	1.288511	-0.329210
N606	N	0.146362	1.538511	-0.079210
N607	N	0.396362	1.788511	0.170790
N608	N	0.646362	2.038511	0.420790
C609	C	-0.305460	0.560051	-0.737637
C610	C	-0.055460	0.810051	-0.487637
C611	C	0.194540	1.060051	-0.237637
C612	C	0.444540	1.310051	0.012363
N613	N	-0.329277	0.536224	-0.718215
N614	N	-0.079277	0.786224	-0.468215
N615	N	0.170723	1.036224	-0.218215
N616	N	0.420723	1.286224	0.031785
H617	H	-0.268456	0.597040	-0.960151
H618	H	-0.018456	0.847040	-0.710151
H619	H	0.231544	1.097040	-0.460151
H620	H	0.481544	1.347040	-0.210151
C621	C	-0.156156	0.709544	-0.381028
C622	C	0.093844	0.959544	-0.131028
C623	C	0.343844	1.209544	0.118972
C624	C	0.593844	1.459544	0.368972
N625	N	-0.132352	0.733366	-0.361594
N626	N	0.117648	0.983366	-0.111594
N627	N	0.367648	1.233366	0.138406
N628	N	0.617648	1.483366	0.388406
C629	C	-0.737298	0.738310	-0.127275
C630	C	-0.487298	0.988310	0.122725
C631	C	-0.237298	1.238310	0.372725
C632	C	0.012702	1.488310	0.622725
N633	N	-0.717852	0.762126	-0.103476
N634	N	-0.467852	1.012126	0.146524
N635	N	-0.217852	1.262126	0.396524
N636	N	0.032148	1.512126	0.646524
H637	H	-0.959935	0.597083	-0.268402
H638	H	-0.709935	0.847083	-0.018402
H639	H	-0.459935	1.097083	0.231598
H640	H	-0.209935	1.347083	0.481598
H641	H	-0.268597	0.597000	-0.472865
H642	H	-0.018597	0.847000	-0.222865
H643	H	0.231403	1.097000	0.027135
H644	H	0.481403	1.347000	0.277135
C645	C	-0.596675	0.560019	-0.305295
C646	C	-0.346675	0.810019	-0.055295
C647	C	-0.096675	1.060019	0.194705
C648	C	0.153325	1.310019	0.444705
N649	N	-0.577261	0.536191	-0.329087
N650	N	-0.327261	0.786191	-0.079087
N651	N	-0.077261	1.036191	0.170913
N652	N	0.172739	1.286191	0.420913
C653	C	-0.305552	1.268943	-0.127189
C654	C	-0.055552	1.518943	0.122811
C655	C	0.194448	1.768943	0.372811
C656	C	0.444448	2.018943	0.622811
N657	N	-0.329361	1.288356	-0.103377
N658	N	-0.079361	1.538356	0.146623
N659	N	0.170639	1.788356	0.396623
N660	N	0.420639	2.038356	0.646623
C661	C	-0.156156	0.912460	-0.276609
C662	C	0.093844	1.162460	-0.026609
C663	C	0.343844	1.412460	0.223391
C664	C	0.593844	1.662460	0.473391
N665	N	-0.132346	0.931903	-0.300424
N666	N	0.117654	1.181903	-0.050424
N667	N	0.367654	1.431903	0.199576
N668	N	0.617654	1.681903	0.449576
H669	H	-0.297261	0.568262	-0.688696
H670	H	-0.047261	0.818262	-0.438696
H671	H	0.202739	1.068262	-0.188696
H672	H	0.452739	1.318262	0.061304
C673	C	-0.156156	0.813947	-0.276597
C674	C	0.093844	1.063947	-0.026597
C675	C	0.343844	1.313947	0.223403
C676	C	0.593844	1.563947	0.473403
N677	N	-0.132352	0.794532	-0.300412
N678	N	0.117648	1.044532	-0.050412
N679	N	0.367648	1.294532	0.199588
N680	N	0.617648	1.544532	0.449588
C681	C	-0.155970	0.709603	-1.051948
C682	C	0.094030	0.959603	-0.801948
C683	C	0.344030	1.209603	-0.551948
C684	C	0.594030	1.459603	-0.301948
N685	N	-0.132155	0.733418	-1.071387
N686	N	0.117845	0.983418	-0.821387
N687	N	0.367845	1.233418	-0.571387
N688	N	0.617845	1.483418	-0.321387
H689	H	-0.744129	0.568276	-0.297093
H690	H	-0.494129	0.818276	-0.047093
H691	H	-0.244129	1.068276	0.202907
H692	H	0.005871	1.318276	0.452907
C693	C	-0.835945	0.560088	-0.305310
C694	C	-0.585945	0.810088	-0.055310
C695	C	-0.335945	1.060088	0.194690
C696	C	-0.085945	1.310088	0.444690
N697	N	-0.855392	0.536274	-0.329108
N698	N	-0.605392	0.786274	-0.079108
N699	N	-0.355392	1.036274	0.170892
N700	N	-0.105392	1.286274	0.420892
C701	C	-0.305556	1.128197	-0.127179
C702	C	-0.055556	1.378197	0.122821
C703	C	0.194444	1.628197	0.372821
C704	C	0.444444	1.878197	0.622821
N705	N	-0.329363	1.147610	-0.103365
N706	N	-0.079363	1.397610	0.146635
N707	N	0.170637	1.647610	0.396635
N708	N	0.420637	1.897610	0.646635
H709	H	-0.472567	0.701263	-0.164167
H710	H	-0.222567	0.951263	0.085833
H711	H	0.027433	1.201263	0.335833
H712	H	0.277433	1.451263	0.585833
C713	C	-0.127436	1.128305	-0.305368
C714	C	0.122564	1.378305	-0.055368
C715	C	0.372564	1.628305	0.194632
C716	C	0.622564	1.878305	0.444632
N717	N	-0.103624	1.147748	-0.329181
N718	N	0.146376	1.397748	-0.079181
N719	N	0.396376	1.647748	0.170819
N720	N	0.646376	1.897748	0.420819
H721	H	-0.829124	0.730121	-0.135497
H722	H	-0.579124	0.980121	0.114503
H723	H	-0.329124	1.230121	0.364503
H724	H	-0.079124	1.480121	0.614503
C725	C	-0.156153	1.386334	-0.276653
C726	C	0.093847	1.636334	-0.026653
C727	C	0.343847	1.886334	0.223347
C728	C	0.593847	2.136334	0.473347
N729	N	-0.132352	1.366916	-0.300469
N730	N	0.117648	1.616916	-0.050469
N731	N	0.367648	1.866916	0.199531
N732	N	0.617648	2.116916	0.449531
H733	H	-0.297280	0.568257	-0.603578
H734	H	-0.047280	0.818257	-0.353578
H735	H	0.202720	1.068257	-0.103578
H736	H	0.452720	1.318257	0.146422
C737	C	-0.156154	1.484866	-0.276658
C738	C	0.093846	1.734866	-0.026658
C739	C	0.343846	1.984866	0.223342
C740	C	0.593846	2.234866	0.473342
N741	N	-0.132356	1.504324	-0.300472
N742	N	0.117644	1.754324	-0.050472
N743	N	0.367644	2.004324	0.199528
N744	N	0.617644	2.254324	0.449528
C745	C	-0.156125	0.709552	-0.479541
C746	C	0.093875	0.959552	-0.229541
C747	C	0.343875	1.209552	0.020459
C748	C	0.593875	1.459552	0.270459
N749	N	-0.132313	0.733383	-0.498965
N750	N	0.117687	0.983383	-0.248965
N751	N	0.367687	1.233383	0.001035
N752	N	0.617687	1.483383	0.251035
H753	H	-0.135523	0.730103	-0.744312
H754	H	0.114477	0.980103	-0.494312
H755	H	0.364477	1.230103	-0.244312
H756	H	0.614477	1.480103	0.005688
H757	H	-0.387534	0.596903	-0.268341
H758	H	-0.137534	0.846903	-0.018341
H759	H	0.112466	1.096903	0.231659
H760	H	0.362466	1.346903	0.481659
H761	H	-0.959853	0.701407	-0.164209
H762	H	-0.709853	0.951407	0.085791
H763	H	-0.459853	1.201407	0.335791
H764	H	-0.209853	1.451407	0.585791
H765	H	-0.268440	0.597062	-1.045260
H766	H	-0.018440	0.847062	-0.795260
H767	H	0.231560	1.097062	-0.545260
H768	H	0.481560	1.347062	-0.295260
H769	H	-0.164208	0.701385	-0.960121
H770	H	0.085792	0.951385	-0.710121
H771	H	0.335792	1.201385	-0.460121
H772	H	0.585792	1.451385	-0.210121
H773	H	-0.297226	0.568279	-0.829442
H774	H	-0.047226	0.818279	-0.579442
H775	H	0.202774	1.068279	-0.329442
H776	H	0.452774	1.318279	-0.079442
C777	C	-0.127288	0.738325	-0.836123
C778	C	0.122712	0.988325	-0.586123
C779	C	0.372712	1.238325	-0.336123
C780	C	0.622712	1.488325	-0.086123
N781	N	-0.103475	0.762152	-0.855550
N782	N	0.146525	1.012152	-0.605550
N783	N	0.396525	1.262152	-0.355550
N784	N	0.646525	1.512152	-0.105550
H785	H	-0.268602	1.478087	-0.164157
H786	H	-0.018602	1.728087	0.085843
H787	H	0.231398	1.978087	0.335843
H788	H	0.481398	2.228087	0.585843
C789	C	-0.127358	0.738302	-0.596853
C790	C	0.122642	0.988302	-0.346853
C791	C	0.372642	1.238302	-0.096853
C792	C	0.622642	1.488302	0.153147
N793	N	-0.103549	0.762121	-0.577419
N794	N	0.146451	1.012121	-0.327419
N795	N	0.396451	1.262121	-0.077419
N796	N	0.646451	1.512121	0.172581
H797	H	-0.135548	0.730097	-0.688662
H798	H	0.114452	0.980097	-0.438662
H799	H	0.364452	1.230097	-0.188662
H800	H	0.614452	1.480097	0.061338
H801	H	-0.603258	0.730050	-0.135468
H802	H	-0.353258	0.980050	0.114532
H803	H	-0.103258	1.230050	0.364532
H804	H	0.146742	1.480050	0.614532
C805	C	-0.276822	0.813860	-0.155890
C806	C	-0.026822	1.063860	0.094110
C807	C	0.223178	1.313860	0.344110
C808	C	0.473178	1.563860	0.594110
N809	N	-0.300627	0.794401	-0.132082
N810	N	-0.050627	1.044401	0.117918
N811	N	0.199373	1.294401	0.367918
N812	N	0.449373	1.544401	0.617918
H813	H	-0.688365	0.730080	-0.135478
H814	H	-0.438365	0.980080	0.114522
H815	H	-0.188365	1.230080	0.364522
H816	H	0.061635	1.480080	0.614522
C817	C	-0.305553	1.029672	-0.127176
C818	C	-0.055553	1.279672	0.122824
C819	C	0.194447	1.529672	0.372824
C820	C	0.444447	1.779672	0.622824
N821	N	-0.329355	1.010212	-0.103367
N822	N	-0.079355	1.260212	0.146633
N823	N	0.170645	1.510212	0.396633
N824	N	0.420645	1.760212	0.646633
C825	C	-1.051674	0.709652	-0.156020
C826	C	-0.801674	0.959652	0.093980
C827	C	-0.551674	1.209652	0.343980
C828	C	-0.301674	1.459652	0.593980
N829	N	-1.071100	0.733481	-0.132240
N830	N	-0.821100	0.983481	0.117760
N831	N	-0.571100	1.233481	0.367760
N832	N	-0.321100	1.483481	0.617760
H833	H	-0.268616	0.596994	-0.387743
H834	H	-0.018616	0.846994	-0.137743
H835	H	0.231384	1.096994	0.112257
H836	H	0.481384	1.346994	0.362257
H837	H	-0.688480	0.568256	-0.297095
H838	H	-0.438480	0.818256	-0.047095
H839	H	-0.188480	1.068256	0.202905
H840	H	0.061520	1.318256	0.452905
H841	H	-0.135649	1.036492	-0.297150
H842	H	0.114351	1.286492	-0.047150
H843	H	0.364351	1.536492	0.202850
H844	H	0.614351	1.786492	0.452850
H845	H	-0.268613	1.392979	-0.164153
H846	H	-0.018613	1.642979	0.085847
H847	H	0.231387	1.892979	0.335847
H848	H	0.481387	2.142979	0.585847
H849	H	-0.135651	1.177248	-0.297173
H850	H	0.114349	1.427248	-0.047173
H851	H	0.364349	1.677248	0.202827
H852	H	0.614349	1.927248	0.452827
H853	H	-1.045044	0.597104	-0.268403
H854	H	-0.795044	0.847104	-0.018403
H855	H	-0.545044	1.097104	0.231597
H856	H	-0.295044	1.347104	0.481597
H857	H	-0.297343	1.177141	-0.135395
H858	H	-0.047343	1.427141	0.114605
H859	H	0.202657	1.677141	0.364605
H860	H	0.452657	1.927141	0.614605
C861	C	-0.479366	0.588716	-0.276559
C862	C	-0.229366	0.838716	-0.026559
C863	C	0.020634	1.088716	0.223441
C864	C	0.270634	1.338716	0.473441
N865	N	-0.498817	0.564902	-0.300356
N866	N	-0.248817	0.814902	-0.050356
N867	N	0.001183	1.064902	0.199644
N868	N	0.251183	1.314902	0.449644
H869	H	-0.268612	0.905692	-0.164103
H870	H	-0.018612	1.155692	0.085897
H871	H	0.231388	1.405692	0.335897
H872	H	0.481388	1.655692	0.585897
