data_functionalizedCrystal
_audit_creation_method	'MofGen! by Chris Wilmer'
_symmetry_space_group_name_H-M	'P1'
_symmetry_Int_Tables_number	1
_symmetry_cell_setting	triclinic
loop_
_symmetry_equiv_pos_as_xyz
  x,y,z
_cell_length_a	13.897449
_cell_length_b	13.897448
_cell_length_c	12.827885
_cell_angle_alpha	89.967724
_cell_angle_beta	89.977049
_cell_angle_gamma	90.018519
loop_
_atom_site_label
_atom_site_type_symbol
_atom_site_fract_x
_atom_site_fract_y
_atom_site_fract_z
Zn1	Zn	1.474698	-0.383947	-0.590928
Zn2	Zn	1.808032	-0.050614	-0.257595
Zn3	Zn	2.141365	0.282720	0.075739
Zn4	Zn	1.474594	-0.545273	-0.416181
Zn5	Zn	1.807927	-0.211940	-0.082847
Zn6	Zn	2.141260	0.121393	0.250486
Zn7	Zn	1.313389	-0.383996	-0.416191
Zn8	Zn	1.646722	-0.050663	-0.082858
Zn9	Zn	1.980055	0.282670	0.250476
Zn10	Zn	1.313369	-0.545204	-0.590870
Zn11	Zn	1.646703	-0.211871	-0.257537
Zn12	Zn	1.980036	0.121463	0.075797
O13	O	1.394013	-0.464605	-0.503542
O14	O	1.727346	-0.131272	-0.170209
O15	O	2.060679	0.202062	0.163124
O16	O	1.609666	-0.405356	-0.567767
O17	O	1.942999	-0.072022	-0.234434
O18	O	2.276333	0.261311	0.098899
O19	O	1.453174	-0.523929	-0.269946
O20	O	1.786507	-0.190596	0.063388
O21	O	2.119840	0.142737	0.396721
O22	O	1.334839	-0.249008	-0.439399
O23	O	1.668172	0.084325	-0.106065
O24	O	2.001506	0.417659	0.227268
O25	O	1.609589	-0.523881	-0.439381
O26	O	1.942923	-0.190548	-0.106048
O27	O	2.276256	0.142785	0.227286
O28	O	1.453352	-0.248972	-0.567777
O29	O	1.786686	0.084362	-0.234444
O30	O	2.120019	0.417695	0.098889
O31	O	1.334737	-0.405440	-0.269953
O32	O	1.668071	-0.072106	0.063380
O33	O	2.001404	0.261227	0.396713
O34	O	1.178405	-0.405372	-0.439342
O35	O	1.511738	-0.072039	-0.106009
O36	O	1.845071	0.261294	0.227324
O37	O	1.334806	-0.523763	-0.737114
O38	O	1.668139	-0.190430	-0.403780
O39	O	2.001472	0.142904	-0.070447
O40	O	1.178390	-0.523811	-0.567678
O41	O	1.511724	-0.190478	-0.234345
O42	O	1.845057	0.142856	0.098988
O43	O	1.453333	-0.405288	-0.737156
O44	O	1.786667	-0.071955	-0.403823
O45	O	2.120000	0.261378	-0.070490
O46	O	1.453155	-0.680246	-0.439325
O47	O	1.786488	-0.346912	-0.105992
O48	O	2.119822	-0.013579	0.227342
O49	O	1.334704	-0.680195	-0.567668
O50	O	1.668037	-0.346861	-0.234335
O51	O	2.001371	-0.013528	0.098998
C52	C	1.143398	-0.464590	-0.503506
C53	C	1.476732	-0.131257	-0.170173
C54	C	1.810065	0.202076	0.163161
C55	C	1.036184	-0.464607	-0.503515
C56	C	1.369518	-0.131274	-0.170182
C57	C	1.702851	0.202060	0.163152
C58	C	0.949115	-0.464610	-0.503532
C59	C	1.282448	-0.131277	-0.170199
C60	C	1.615781	0.202056	0.163134
C61	C	0.839882	-0.464617	-0.503564
C62	C	1.173215	-0.131284	-0.170231
C63	C	1.506549	0.202050	0.163102
C64	C	1.393942	-0.715219	-0.503512
C65	C	1.727275	-0.381886	-0.170179
C66	C	2.060609	-0.048553	0.163155
C67	C	1.394000	-0.822433	-0.503534
C68	C	1.727334	-0.489100	-0.170201
C69	C	2.060667	-0.155767	0.163133
C70	C	1.394102	-1.018728	-0.503600
C71	C	1.727435	-0.685395	-0.170266
C72	C	2.060768	-0.352062	0.163067
C73	C	1.394043	-0.909496	-0.503566
C74	C	1.727376	-0.576163	-0.170233
C75	C	2.060709	-0.242829	0.163100
C76	C	1.645605	-0.464621	-0.503579
C77	C	1.978939	-0.131287	-0.170246
C78	C	2.312272	0.202046	0.163087
C79	C	1.752819	-0.464627	-0.503595
C80	C	2.086153	-0.131294	-0.170262
C81	C	2.419486	0.202039	0.163071
C82	C	1.394079	-0.464512	-0.776113
C83	C	1.727412	-0.131179	-0.442779
C84	C	2.060746	0.202154	-0.109446
C85	C	1.394107	-0.464473	-0.892266
C86	C	1.727441	-0.131140	-0.558933
C87	C	2.060774	0.202194	-0.225599
C88	C	1.394109	-0.213012	-0.503596
C89	C	1.727443	0.120321	-0.170262
C90	C	2.060776	0.453655	0.163071
C91	C	1.394151	-0.105798	-0.503618
C92	C	1.727484	0.227535	-0.170285
C93	C	2.060817	0.560869	0.163048
C94	C	1.335520	-0.405829	-0.944054
C95	C	1.668853	-0.072496	-0.610721
C96	C	2.002187	0.260838	-0.277388
C97	C	1.335548	-0.405787	-1.064105
C98	C	1.668881	-0.072454	-0.730771
C99	C	2.002215	0.260880	-0.397438
C100	C	1.394002	-0.464628	-0.232032
C101	C	1.727335	-0.131294	0.101301
C102	C	2.060668	0.202039	0.434634
C103	C	1.394160	-0.464395	-0.115880
C104	C	1.727494	-0.131062	0.217454
C105	C	2.060827	0.202271	0.550787
H106	H	1.285337	-0.355657	-0.899516
H107	H	1.618670	-0.022324	-0.566182
H108	H	1.952003	0.311010	-0.232849
H109	H	1.444326	-0.514602	-1.071350
H110	H	1.777659	-0.181268	-0.738016
H111	H	2.110992	0.152065	-0.404683
H112	H	1.285393	-0.355576	-1.108642
H113	H	1.618727	-0.022242	-0.775308
H114	H	1.952060	0.311091	-0.441975
C115	C	1.461817	-0.532345	-0.952431
C116	C	1.795150	-0.199011	-0.619097
C117	C	2.128483	0.134322	-0.285764
N118	N	1.512788	-0.583497	-0.997745
N119	N	1.846122	-0.250163	-0.664412
N120	N	2.179455	0.083170	-0.331079
