data_functionalizedCrystal
_audit_creation_method	'MofGen! by Chris Wilmer'
_symmetry_space_group_name_H-M	'P1'
_symmetry_Int_Tables_number	1
_symmetry_cell_setting	triclinic
loop_
_symmetry_equiv_pos_as_xyz
  x,y,z
_cell_length_a	10.868271
_cell_length_b	17.699083
_cell_length_c	17.699103
_cell_angle_alpha	96.712962
_cell_angle_beta	90.010093
_cell_angle_gamma	90.001712
loop_
_atom_site_label
_atom_site_type_symbol
_atom_site_fract_x
_atom_site_fract_y
_atom_site_fract_z
O1	O	0.102163	-1.004082	0.095711
O2	O	0.102205	-0.783705	0.108163
O3	O	0.102160	-0.900112	-0.008251
O4	O	0.102209	-0.887675	0.212125
O5	O	-0.102485	-0.900102	-0.008256
O6	O	-0.102439	-0.783695	0.108159
O7	O	-0.102481	-1.004073	0.095706
Zn8	Zn	-0.134952	-0.893883	0.101932
Zn9	Zn	0.134676	-0.893895	0.101938
O10	O	-0.102436	-0.887666	0.212121
C11	C	-0.000112	-0.755503	0.107715
C12	C	-0.000097	-0.671485	0.106376
N13	N	-0.318966	-0.893879	0.101927
C14	C	-0.569972	-0.893891	0.101936
C15	C	-0.430295	-0.893882	0.101933
C16	C	-0.000166	-0.899659	-0.036450
C17	C	-0.000176	-0.898315	-0.120468
N18	N	0.318690	-0.893904	0.101936
C19	C	-0.000161	-1.032275	0.096155
C20	C	-0.000168	-1.116293	0.097493
C21	C	-0.000082	-0.622869	0.174709
C22	C	-0.000098	-0.543925	0.173447
C23	C	-0.000121	-0.513600	0.103851
C24	C	-0.000139	-0.562222	0.035513
C25	C	-0.000132	-0.641164	0.036776
C26	C	-0.000171	-0.243859	0.030418
C27	C	-0.000174	-0.164910	0.029160
C28	C	-0.000137	-0.146620	0.167088
C29	C	-0.000130	-0.225562	0.168351
C30	C	-0.000155	-0.274177	0.100014
C31	C	-0.000140	-0.359777	0.101383
C32	C	-0.000127	-0.428002	0.102480
C33	C	0.111458	-0.890096	-0.636176
C34	C	0.111447	-0.891358	-0.557233
C35	C	-0.000113	-0.891982	-0.517777
C36	C	-0.111668	-0.891352	-0.557270
C37	C	-0.111656	-0.890095	-0.636212
C38	C	-0.111721	-0.896422	-0.238903
C39	C	-0.111724	-0.897677	-0.159955
C40	C	0.111382	-0.897685	-0.159924
C41	C	0.111394	-0.896428	-0.238867
C42	C	-0.000160	-0.895802	-0.278353
C43	C	-0.000147	-0.894434	-0.363952
C44	C	-0.000127	-0.893344	-0.432178
C45	C	-0.000107	-0.888119	0.240320
C46	C	-0.000089	-0.889463	0.324337
H47	H	-0.000063	-0.647553	0.231382
H48	H	-0.000175	-0.537525	-0.021153
H49	H	-0.000123	-0.107027	0.222732
O50	O	0.000078	-0.688362	-0.029622
C51	C	0.106034	-0.728119	-0.147145
C52	C	0.105970	-0.674638	-0.071968
H53	H	0.191624	-0.717031	-0.181410
H54	H	0.106119	-0.789764	-0.134332
H55	H	0.020342	-0.717118	-0.181373
H56	H	0.191647	-0.685570	-0.037704
H57	H	0.105820	-0.613010	-0.084835
H58	H	0.202279	-0.891874	-0.525087
O59	O	-0.220123	-0.889447	-0.674451
C60	C	-0.441423	-0.889619	-0.666161
C61	C	-0.318671	-0.890332	-0.622761
H62	H	-0.521132	-0.890351	-0.624391
H63	H	-0.447072	-0.836073	-0.696081
H64	H	-0.446935	-0.941965	-0.710158
H65	H	-0.313077	-0.838022	-0.578728
H66	H	-0.313074	-0.943913	-0.592893
H67	H	-0.000192	-0.283432	-0.025227
H68	H	-0.000085	-0.504345	0.229090
O69	O	-0.000164	-0.254894	0.236023
C70	C	-0.000064	-0.228418	0.372701
C71	C	-0.000049	-0.195100	0.296116
H72	H	0.000055	-0.180091	0.421307
H73	H	-0.085725	-0.264895	0.376788
H74	H	0.085562	-0.264941	0.376702
H75	H	-0.085617	-0.158542	0.292064
H76	H	0.085668	-0.158666	0.292062
H77	H	0.202215	-0.898197	-0.127765
O78	O	-0.000041	-0.135541	-0.038497
C79	C	0.105969	-0.126976	-0.156758
C80	C	0.105953	-0.160302	-0.080177
H81	H	0.191669	-0.146968	-0.190471
H82	H	0.020370	-0.147029	-0.190569
H83	H	0.105913	-0.062204	-0.145900
H84	H	0.106052	-0.225074	-0.090966
H85	H	0.191545	-0.140189	-0.046391
O86	O	0.219901	-0.889376	-0.674409
C87	C	0.410555	-0.823407	-0.689877
C88	C	0.287802	-0.824142	-0.646508
H89	H	0.465476	-0.770662	-0.667347
H90	H	0.465659	-0.876563	-0.681356
H91	H	0.391363	-0.822431	-0.753081
H92	H	0.306882	-0.825092	-0.583290
H93	H	0.232736	-0.770990	-0.655092
H94	H	0.202237	-0.895915	-0.270987
O95	O	-0.220210	-0.898316	-0.121747
C96	C	-0.441509	-0.898130	-0.130098
C97	C	-0.318749	-0.897427	-0.173464
H98	H	-0.521210	-0.897396	-0.171890
H99	H	-0.447181	-0.951674	-0.100176
H100	H	-0.447010	-0.845781	-0.086106
H101	H	-0.313165	-0.949740	-0.217493
H102	H	-0.313128	-0.843850	-0.203334
H103	H	-0.202555	-0.895913	-0.271043
H104	H	-0.202502	-0.891865	-0.525139
