data_functionalizedCrystal
_audit_creation_method	'MofGen! by Chris Wilmer'
_symmetry_space_group_name_H-M	'P1'
_symmetry_Int_Tables_number	1
_symmetry_cell_setting	triclinic
loop_
_symmetry_equiv_pos_as_xyz
  x,y,z
_cell_length_a	10.065875
_cell_length_b	19.288864
_cell_length_c	19.288865
_cell_angle_alpha	96.863755
_cell_angle_beta	81.246539
_cell_angle_gamma	81.270043
loop_
_atom_site_label
_atom_site_type_symbol
_atom_site_fract_x
_atom_site_fract_y
_atom_site_fract_z
O1	O	0.113949	-0.931584	0.076365
O2	O	0.613949	-0.431584	0.576365
O3	O	0.113858	-0.729315	0.088062
O4	O	0.613858	-0.229315	0.588062
O5	O	0.113879	-0.836292	-0.018915
O6	O	0.613879	-0.336292	0.481085
O7	O	0.113928	-0.824607	0.183341
O8	O	0.613928	-0.324607	0.683341
O9	O	-0.113113	-0.815893	0.001566
O10	O	0.386887	-0.315893	0.501566
O11	O	-0.113134	-0.708916	0.108542
O12	O	0.386866	-0.208916	0.608542
O13	O	-0.113043	-0.911185	0.096845
O14	O	0.386957	-0.411185	0.596845
Zn15	Zn	-0.149129	-0.806812	0.105946
Zn16	Zn	0.350871	-0.306812	0.605946
Zn17	Zn	0.149944	-0.833688	0.078962
Zn18	Zn	0.649944	-0.333688	0.578962
O19	O	-0.113064	-0.804208	0.203822
O20	O	0.386936	-0.304208	0.703822
C21	C	0.000350	-0.693238	0.097927
C22	C	0.500350	-0.193238	0.597927
C23	C	0.000314	-0.616131	0.096801
C24	C	0.500314	-0.116131	0.596801
N25	N	-0.353238	-0.788474	0.124361
N26	N	0.146762	-0.288474	0.624361
C27	C	0.000379	-0.825716	-0.034551
C28	C	0.500379	-0.325716	0.465449
C29	C	0.000366	-0.824586	-0.111653
C30	C	0.500366	-0.324586	0.388347
C31	C	-0.421009	-0.827304	0.085365
C32	C	0.078991	-0.327304	0.585365
C33	C	-0.578179	-0.813196	0.099543
C34	C	-0.078179	-0.313196	0.599543
N35	N	0.354053	-0.852032	0.060541
N36	N	0.854053	-0.352032	0.560541
C37	C	0.000468	-0.947262	0.086980
C38	C	0.500468	-0.447262	0.586980
C39	C	0.000513	-1.024370	0.088105
C40	C	0.500513	-0.524370	0.588105
C41	C	0.000350	-0.571438	0.159566
C42	C	0.500350	-0.071438	0.659566
C43	C	0.000365	-0.498992	0.158504
C44	C	0.500365	0.001008	0.658504
C45	C	0.000371	-0.471245	0.094671
C46	C	0.500371	0.028755	0.594671
C47	C	0.000327	-0.515948	0.031899
C48	C	0.500327	-0.015948	0.531899
C49	C	0.000298	-0.588390	0.032964
C50	C	0.500298	-0.088390	0.532964
C51	C	0.079930	-0.370133	0.037314
C52	C	0.579930	0.129867	0.537314
C53	C	0.079967	-0.297692	0.036251
C54	C	0.579967	0.202308	0.536251
C55	C	0.000453	-0.247807	0.091384
C56	C	0.500453	0.252193	0.591384
C57	C	-0.079081	-0.270372	0.147591
C58	C	0.420919	0.229628	0.647591
C59	C	-0.079110	-0.342815	0.148656
C60	C	0.420890	0.157185	0.648656
C61	C	0.000401	-0.392694	0.093509
C62	C	0.500401	0.107306	0.593509
C63	C	0.000503	-0.124559	0.153002
C64	C	0.500503	0.375441	0.653002
C65	C	0.000510	-0.052112	0.151938
C66	C	0.500510	0.447888	0.651938
C67	C	0.000485	-0.069070	0.025330
C68	C	0.500485	0.430930	0.525330
C69	C	0.000465	-0.141515	0.026397
C70	C	0.500465	0.358485	0.526397
C71	C	0.000481	-0.169255	0.090234
C72	C	0.500481	0.330745	0.590234
C73	C	0.000388	-0.887355	-0.156351
C74	C	0.500388	-0.387355	0.343649
C75	C	0.000409	-0.886297	-0.228800
C76	C	0.500409	-0.386297	0.271200
C77	C	0.000381	-0.822462	-0.256545
C78	C	0.500381	-0.322462	0.243455
C79	C	0.000367	-0.759685	-0.211838
C80	C	0.500367	-0.259685	0.288162
C81	C	0.000360	-0.760746	-0.139392
C82	C	0.500360	-0.260746	0.360608
C83	C	-0.079152	-0.765135	-0.357657
C84	C	0.420848	-0.265135	0.142343
C85	C	-0.079153	-0.764075	-0.430101
C86	C	0.420847	-0.264075	0.069899
C87	C	0.000410	-0.819185	-0.479993
C88	C	0.500410	-0.319185	0.020007
C89	C	0.079957	-0.875365	-0.457433
C90	C	0.579957	-0.375365	0.042567
C91	C	0.079950	-0.876427	-0.384986
C92	C	0.579950	-0.376427	0.115014
C93	C	0.000390	-0.821304	-0.335100
C94	C	0.500390	-0.321304	0.164900
C95	C	0.000457	-0.880811	-0.603250
C96	C	0.500457	-0.380811	-0.103250
C97	C	0.000486	-0.879751	-0.675701
C98	C	0.500486	-0.379751	-0.175701
C99	C	0.000431	-0.753135	-0.658735
C100	C	0.500431	-0.253135	-0.158735
C101	C	0.000415	-0.754199	-0.586288
C102	C	0.500415	-0.254199	-0.086288
C103	C	0.000421	-0.818038	-0.558549
C104	C	0.500421	-0.318038	-0.058549
C105	C	0.000439	-0.814785	0.219458
C106	C	0.500439	-0.314785	0.719458
C107	C	0.000461	-0.815915	0.296559
C108	C	0.500461	-0.315915	0.796559
H109	H	-0.362676	-0.870990	0.041479
H110	H	0.137324	-0.370990	0.541479
H111	H	-0.143873	-0.361184	0.194420
H112	H	0.356127	0.138816	0.694420
H113	H	-0.411573	-0.744783	0.168242
H114	H	0.088427	-0.244783	0.668242
H115	H	0.000269	-0.624780	-0.018148
H116	H	0.500269	-0.124780	0.481852
H117	H	0.000366	-0.594020	0.211547
H118	H	0.500366	-0.094020	0.711547
H119	H	-0.143831	-0.229756	0.192486
H120	H	0.356169	0.270244	0.692486
C121	C	0.000507	-0.155077	0.223219
C122	C	0.500507	0.344923	0.723219
H123	H	0.000511	-0.118078	0.260451
H124	H	0.500511	0.381922	0.760451
H125	H	0.079657	-0.190113	0.219125
H126	H	0.579657	0.309887	0.719125
H127	H	-0.078668	-0.175854	0.233408
H128	H	0.421332	0.324146	0.733408
C129	C	0.000419	-0.957578	-0.125844
C130	C	0.500419	-0.457578	0.374156
H131	H	0.000449	-0.994811	-0.162847
H132	H	0.500449	-0.494811	0.337153
H133	H	-0.078734	-0.953514	-0.090799
H134	H	0.421266	-0.453514	0.409201
H135	H	0.079591	-0.967737	-0.105075
H136	H	0.579591	-0.467737	0.394925
C137	C	0.000405	-0.682917	-0.689243
C138	C	0.500405	-0.182917	-0.189243
H139	H	0.000396	-0.645685	-0.652243
H140	H	0.500396	-0.145685	-0.152243
H141	H	-0.078746	-0.672755	-0.710020
H142	H	0.421254	-0.172755	-0.210020
H143	H	0.079579	-0.686988	-0.724284
H144	H	0.579579	-0.186988	-0.224284
C145	C	-0.567168	-0.911054	0.001252
C146	C	-0.067168	-0.411054	0.501252
H147	H	-0.630070	-0.933582	-0.021378
H148	H	-0.130070	-0.433582	0.478622
H149	H	-0.511387	-0.944946	0.021069
H150	H	-0.011387	-0.444946	0.521069
H151	H	-0.511458	-0.891041	-0.032521
H152	H	-0.011458	-0.391041	0.467479
H153	H	-0.636509	-0.769502	0.143426
H154	H	-0.136509	-0.269502	0.643426
C155	C	0.000446	-0.190681	-0.042647
C156	C	0.500446	0.309319	0.457353
H157	H	0.000462	-0.163783	-0.080818
H158	H	0.500462	0.336217	0.419182
H159	H	-0.078720	-0.212165	-0.037723
H160	H	0.421280	0.287835	0.462277
H161	H	0.079604	-0.226423	-0.052003
H162	H	0.579604	0.273577	0.447997
C163	C	0.000412	-0.449819	0.227545
C164	C	0.500412	0.050181	0.727545
H165	H	0.000419	-0.402701	0.217767
H166	H	0.500419	0.097299	0.717767
H167	H	0.079574	-0.465339	0.246584
H168	H	0.579574	0.034661	0.746584
H169	H	-0.078751	-0.451073	0.260875
H170	H	0.421249	0.048927	0.760875
H171	H	0.144689	-0.410746	-0.007585
H172	H	0.644689	0.089254	0.492415
H173	H	0.000532	-0.015722	0.203051
H174	H	0.500532	0.484278	0.703051
C175	C	0.000368	-0.685149	-0.537115
C176	C	0.500368	-0.185149	-0.037115
H177	H	0.000342	-0.646978	-0.564012
H178	H	0.500342	-0.146978	-0.064012
H179	H	0.079518	-0.690043	-0.515633
H180	H	0.579518	-0.190043	-0.015633
H181	H	-0.078807	-0.675820	-0.501369
H182	H	0.421193	-0.175820	-0.001369
H183	H	-0.143950	-0.720255	-0.317038
H184	H	0.356050	-0.220255	0.182962
C185	C	0.000499	-0.038558	-0.044886
C186	C	0.500499	0.461442	0.455114
H187	H	0.000531	0.010987	-0.036533
H188	H	0.500531	0.510987	0.463467
H189	H	-0.078663	-0.046782	-0.063583
H190	H	0.421337	0.453218	0.436417
H191	H	0.079661	-0.061046	-0.077859
H192	H	0.579661	0.438954	0.422141
C193	C	0.167455	-0.272873	-0.025569
C194	C	0.667455	0.227127	0.474431
H195	H	0.156101	-0.222585	-0.018302
H196	H	0.656101	0.277415	0.481698
H197	H	0.139479	-0.288377	-0.068826
H198	H	0.639479	0.211623	0.431174
H199	H	0.260776	-0.292338	-0.027707
H200	H	0.760776	0.207662	0.472293
H201	H	0.000350	-0.493353	-0.020076
H202	H	0.500350	0.006647	0.479924
C203	C	0.000332	-0.689468	-0.242354
C204	C	0.500332	-0.189468	0.257646
H205	H	0.000325	-0.697824	-0.291901
H206	H	0.500325	-0.197824	0.208099
H207	H	0.079477	-0.670744	-0.234133
H208	H	0.579477	-0.170744	0.265867
H209	H	-0.078848	-0.656518	-0.219859
H210	H	0.421152	-0.156518	0.280141
H211	H	0.000432	-0.937413	-0.265201
H212	H	0.500432	-0.437413	0.234799
C213	C	-0.166642	-0.702281	-0.454916
C214	C	0.333358	-0.202281	0.045084
H215	H	-0.155256	-0.709544	-0.505207
H216	H	0.344744	-0.209544	-0.005207
H217	H	-0.138690	-0.659014	-0.439408
H218	H	0.361310	-0.159014	0.060592
H219	H	-0.259968	-0.700169	-0.435449
H220	H	0.240032	-0.200169	0.064551
H221	H	0.144722	-0.922169	-0.366621
H222	H	0.644722	-0.422169	0.133379
C223	C	0.000323	-0.691695	-0.090220
C224	C	0.500323	-0.191695	0.409780
H225	H	0.000303	-0.653524	-0.117117
H226	H	0.500303	-0.153524	0.382883
H227	H	0.079471	-0.696591	-0.068736
H228	H	0.579471	-0.196591	0.431264
H229	H	-0.078854	-0.682365	-0.054476
H230	H	0.421146	-0.182365	0.445524
H231	H	0.144746	-0.920241	-0.498055
H232	H	0.644746	-0.420241	0.001945
H233	H	0.000468	-0.932793	-0.580665
H234	H	0.500468	-0.432793	-0.080665
H235	H	0.000511	-0.930868	-0.712095
H236	H	0.500511	-0.430868	-0.212095
