data_functionalizedCrystal
_audit_creation_method	'MofGen! by Chris Wilmer'
_symmetry_space_group_name_H-M	'P1'
_symmetry_Int_Tables_number	1
_symmetry_cell_setting	triclinic
loop_
_symmetry_equiv_pos_as_xyz
  x,y,z
_cell_length_a	10.654550
_cell_length_b	10.489716
_cell_length_c	9.730223
_cell_angle_alpha	90.002678
_cell_angle_beta	89.996251
_cell_angle_gamma	84.507019
loop_
_atom_site_label
_atom_site_type_symbol
_atom_site_fract_x
_atom_site_fract_y
_atom_site_fract_z
O1	O	1.667902	0.179158	-0.114390
O2	O	1.302430	0.196228	-0.114366
O3	O	1.493499	0.002089	-0.114383
O4	O	1.476834	0.373297	-0.114372
O5	O	1.493496	0.002094	0.114197
O6	O	1.302428	0.196233	0.114214
O7	O	1.667900	0.179163	0.114190
Zn8	Zn	1.485164	0.187699	0.150494
Zn9	Zn	1.485167	0.187692	-0.150670
O10	O	1.476832	0.373302	0.114208
C11	C	1.255631	0.194977	-0.000073
C12	C	1.116186	0.191227	-0.000065
C13	C	1.492245	-0.045440	-0.000097
C14	C	1.488499	-0.187069	-0.000110
C15	C	1.036744	0.305533	-0.000082
C16	C	0.905722	0.302002	-0.000106
C17	C	0.933597	0.069849	-0.000102
C18	C	1.064616	0.073382	-0.000068
C19	C	1.020650	0.439565	-0.000090
C20	C	0.889628	0.436034	-0.000114
C21	C	1.605668	-0.284800	-0.000105
C22	C	1.543755	-0.362133	-0.112799
C23	C	1.543725	-0.362092	0.112563
C24	C	1.426635	-0.262537	-0.112897
C25	C	1.426623	-0.262491	0.112566
C26	C	1.364623	-0.339775	-0.000156
C27	C	1.714700	0.180414	-0.000105
C28	C	1.854144	0.184164	-0.000123
C29	C	1.478085	0.420831	-0.000081
C30	C	1.481831	0.562460	-0.000078
N31	N	1.485171	0.187702	0.356030
N32	N	1.485169	0.187679	-0.356206
C33	C	1.569798	0.101767	0.427949
C34	C	1.569795	0.101752	0.571832
C35	C	1.400533	0.273618	0.571865
C36	C	1.400532	0.273626	0.427985
C37	C	1.667523	0.002545	0.427931
C38	C	1.667520	0.002530	0.571814
H39	H	0.891592	-0.026097	-0.000126
C40	C	1.360523	-0.204572	0.239574
C41	C	1.235063	-0.233911	0.240454
C42	C	1.174150	-0.180593	0.357454
H43	H	1.362606	-0.114253	0.238311
H44	H	1.402216	-0.238845	0.319613
H45	H	1.193381	-0.199633	0.160436
H46	H	1.232943	-0.324221	0.241738
H47	H	1.215843	-0.214866	0.437493
H48	H	1.176242	-0.090276	0.356181
H49	H	1.089023	-0.200502	0.358073
C50	C	1.609812	-0.419936	-0.239896
C51	C	1.655475	-0.322480	-0.318389
C52	C	1.716357	-0.375676	-0.435464
H53	H	1.551836	-0.462545	-0.293108
H54	H	1.678133	-0.479510	-0.212848
H55	H	1.587163	-0.262928	-0.345438
H56	H	1.713466	-0.279863	-0.265218
H57	H	1.784678	-0.435251	-0.408417
H58	H	1.658374	-0.418285	-0.488665
H59	H	1.747357	-0.309563	-0.488730
H60	H	1.593211	-0.405586	0.207835
C61	C	1.059555	0.509439	0.127585
C62	C	0.952367	0.548650	0.205651
C63	C	0.988159	0.613002	0.323280
H64	H	1.100334	0.582295	0.101207
H65	H	1.115754	0.453620	0.180819
H66	H	0.896189	0.604466	0.152427
H67	H	0.911574	0.475819	0.232064
H68	H	1.044358	0.557184	0.376514
H69	H	1.028939	0.685853	0.296889
H70	H	0.915440	0.639605	0.376268
C71	C	1.308585	0.366702	0.650169
C72	C	1.231127	0.298012	0.732789
C73	C	1.146420	0.383720	0.804952
H74	H	1.258061	0.417921	0.586886
H75	H	1.354198	0.420207	0.706383
H76	H	1.185517	0.244529	0.676579
H77	H	1.281615	0.246798	0.796097
H78	H	1.192033	0.437226	0.861167
H79	H	1.095905	0.434934	0.741660
H80	H	1.093862	0.337127	0.861028
H81	H	1.129294	-0.019697	-0.000035
H82	H	1.056322	0.482240	-0.098776
H83	H	0.843971	0.476542	0.098572
H84	H	1.646043	-0.095500	0.388876
H85	H	1.331611	0.343590	0.369430
C86	C	1.789237	0.043933	0.368670
C87	C	1.869867	0.071356	0.476076
C88	C	1.982006	0.109472	0.421537
H89	H	1.770920	0.118249	0.313750
H90	H	1.828943	-0.023148	0.313751
H91	H	1.830169	0.138431	0.530972
H92	H	1.888220	-0.002943	0.531005
H93	H	2.021712	0.042391	0.366617
H94	H	1.963676	0.183785	0.366617
H95	H	2.036731	0.128072	0.494402
C96	C	1.741617	-0.252133	-0.000082
C97	C	1.803286	-0.304725	0.116804
C98	C	1.928523	-0.274671	0.116839
H99	H	1.743255	-0.161757	0.000790
H100	H	1.783110	-0.286472	-0.080217
H101	H	1.761805	-0.270381	0.196918
H102	H	1.801683	-0.395101	0.115957
H103	H	1.970015	-0.309010	0.036704
H104	H	1.930148	-0.184294	0.117708
H105	H	1.970384	-0.310360	0.196138
C106	C	1.360853	-0.204546	-0.240047
C107	C	1.365259	-0.071579	-0.238630
C108	C	1.304700	-0.018117	-0.355750
H109	H	1.275459	-0.223553	-0.240500
H110	H	1.402199	-0.239458	-0.320011
H111	H	1.323910	-0.036679	-0.158687
H112	H	1.450636	-0.052536	-0.238198
H113	H	1.346046	-0.053029	-0.435714
H114	H	1.219311	-0.037133	-0.356192
H115	H	1.307692	0.072104	-0.354810
H116	H	1.636972	-0.090123	0.616429
H117	H	1.764040	0.024385	0.610859
H118	H	0.847915	0.486533	-0.095780
H119	H	1.262629	-0.364156	-0.000210
