data_functionalizedCrystal
_audit_creation_method	'MofGen! by Chris Wilmer'
_symmetry_space_group_name_H-M	'P1'
_symmetry_Int_Tables_number	1
_symmetry_cell_setting	triclinic
loop_
_symmetry_equiv_pos_as_xyz
  x,y,z
_cell_length_a	17.038272
_cell_length_b	7.088929
_cell_length_c	8.559649
_cell_angle_alpha	84.655815
_cell_angle_beta	80.445110
_cell_angle_gamma	96.660609
loop_
_atom_site_label
_atom_site_type_symbol
_atom_site_fract_x
_atom_site_fract_y
_atom_site_fract_z
O1	O	1.007820	-0.158741	0.359357
O2	O	0.780514	-0.158797	0.353897
O3	O	0.914193	-0.158762	0.126746
O4	O	0.874141	-0.158776	0.586507
O5	O	0.932062	0.159218	0.096317
O6	O	0.798383	0.159183	0.323467
O7	O	1.025689	0.159239	0.328927
Cu8	Cu	0.913668	0.188245	0.323418
Cu9	Cu	0.892535	-0.187803	0.359405
O10	O	0.892010	0.159204	0.556077
C11	C	0.760617	0.000186	0.333712
C12	C	0.674712	0.000164	0.318885
C13	C	0.926163	0.000225	0.052414
C14	C	0.935197	0.000217	-0.123737
N15	N	0.928537	0.452737	0.298107
C16	C	0.616440	0.000162	0.455037
C17	C	0.535726	0.000188	0.441091
C18	C	0.513286	0.000204	0.290993
C19	C	0.571565	0.000212	0.154830
C20	C	0.652278	0.000199	0.168776
C21	C	0.270482	0.000257	0.241723
C22	C	0.189762	0.000264	0.227788
C23	C	0.153929	0.000244	0.514051
C24	C	0.234645	0.000219	0.527985
C25	C	0.292917	0.000237	0.391821
C26	C	0.430783	0.000225	0.276735
C27	C	0.375419	0.000230	0.406079
C28	C	1.045585	0.000252	0.349112
C29	C	1.131490	0.000261	0.363941
N30	N	0.877673	-0.452295	0.384705
C31	C	0.880040	0.000213	0.630410
C32	C	0.871005	0.000209	0.806562
H33	H	0.634703	0.000147	0.577264
Br34	Br	0.456644	0.000179	0.625880
H35	H	0.106476	0.000232	0.624907
Br36	Br	0.789811	0.411604	0.534287
H37	H	0.252907	0.000184	0.650213
Br38	Br	1.016414	0.588845	0.148546
H39	H	0.809136	0.000199	-0.118350
H40	H	0.699723	0.000200	0.057906
Br41	Br	0.159311	0.000326	0.024066
Br42	Br	1.038328	0.000277	-0.248893
H43	H	0.553289	0.000253	0.032613
Br44	Br	0.400321	0.000245	0.073035
H45	H	0.393694	0.000227	0.528287
H46	H	0.317919	0.000273	0.130848
