data_functionalizedCrystal
_audit_creation_method	'MofGen! by Chris Wilmer'
_symmetry_space_group_name_H-M	'P1'
_symmetry_Int_Tables_number	1
_symmetry_cell_setting	triclinic
loop_
_symmetry_equiv_pos_as_xyz
  x,y,z
_cell_length_a	13.339070
_cell_length_b	9.065218
_cell_length_c	7.540329
_cell_angle_alpha	89.998628
_cell_angle_beta	89.997732
_cell_angle_gamma	100.322590
loop_
_atom_site_label
_atom_site_type_symbol
_atom_site_fract_x
_atom_site_fract_y
_atom_site_fract_z
O1	O	-1.349081	-0.742385	0.147519
O2	O	-1.053661	-0.644942	0.147512
O3	O	-1.207477	-0.481402	0.147512
O4	O	-1.195265	-0.905925	0.147519
O5	O	-1.207472	-0.481398	-0.147453
O6	O	-1.053655	-0.644938	-0.147453
O7	O	-1.349075	-0.742381	-0.147446
Cu8	Cu	-1.201365	-0.693659	-0.174382
Cu9	Cu	-1.201371	-0.693664	0.174448
O10	O	-1.195259	-0.905921	-0.147446
C11	C	-1.206301	-0.425956	0.000033
C12	C	-1.202791	-0.260745	0.000041
C13	C	-1.015818	-0.628480	0.000029
C14	C	-0.903067	-0.579416	0.000026
C15	C	-1.386918	-0.758843	0.000041
C16	C	-1.499669	-0.807907	0.000056
C17	C	-0.541769	-0.960908	0.000061
C18	C	-0.647704	-1.007010	0.000069
C19	C	-0.711550	-0.900116	0.000057
C20	C	-0.669450	-0.747111	0.000040
C21	C	-0.563505	-0.701004	0.000046
C22	C	-0.733286	-0.640212	0.000042
C23	C	-0.691186	-0.487207	0.000025
C24	C	-0.585251	-0.441108	0.000029
C25	C	-0.521405	-0.548003	0.000040
C26	C	-0.839231	-0.686319	0.000036
C27	C	-0.860967	-0.426415	0.000021
C28	C	-0.755032	-0.380313	0.000013
C29	C	-1.196436	-0.961367	0.000038
C30	C	-1.199945	-1.126579	0.000041
N31	N	-1.201368	-0.693658	-0.419730
N32	N	-1.201376	-0.693656	0.419797
H33	H	-0.797807	-0.937662	0.000068
C34	C	-0.472330	-1.076786	0.000355
C35	C	-0.410868	-1.057874	0.152093
C36	C	-0.346877	-1.164588	0.152415
H37	H	-0.512443	-1.174584	0.000449
H38	H	-0.430484	-1.064184	-0.102448
H39	H	-0.452709	-1.070488	0.254869
H40	H	-0.370734	-0.960097	0.152031
H41	H	-0.305031	-1.151987	0.049613
H42	H	-0.386998	-1.262380	0.152504
H43	H	-0.305161	-1.151762	0.255358
H44	H	-0.550977	-0.316522	0.000035
C45	C	-0.930394	-0.310506	0.000284
C46	C	-0.991875	-0.329412	0.152009
C47	C	-1.055859	-0.222687	0.152307
H48	H	-0.890276	-0.212711	0.000379
H49	H	-0.972228	-0.323101	-0.102527
H50	H	-0.950046	-0.316804	0.254794
H51	H	-1.032015	-0.427185	0.151947
H52	H	-1.097692	-0.235283	0.049496
H53	H	-1.015732	-0.124900	0.152397
H54	H	-1.097588	-0.235509	0.255241
H55	H	-0.873498	-0.810896	0.000044
H56	H	-0.681974	-1.131586	0.000097
H57	H	-0.720739	-0.255734	0.000014
H58	H	-0.435143	-0.510474	0.000033
