data_functionalizedCrystal
_audit_creation_method	'MofGen! by Chris Wilmer'
_symmetry_space_group_name_H-M	'P1'
_symmetry_Int_Tables_number	1
_symmetry_cell_setting	triclinic
loop_
_symmetry_equiv_pos_as_xyz
  x,y,z
_cell_length_a	21.395362
_cell_length_b	19.121063
_cell_length_c	19.121264
_cell_angle_alpha	90.118627
_cell_angle_beta	87.584759
_cell_angle_gamma	92.485681
loop_
_atom_site_label
_atom_site_type_symbol
_atom_site_fract_x
_atom_site_fract_y
_atom_site_fract_z
Zn1	Zn	0.932244	-0.262025	0.408637
Zn2	Zn	1.265577	0.071308	0.741970
Zn3	Zn	1.598911	0.404642	1.075303
Zn4	Zn	0.931803	-0.384234	0.296393
Zn5	Zn	1.265136	-0.050901	0.629726
Zn6	Zn	1.598469	0.282433	0.963059
Zn7	Zn	0.831761	-0.267045	0.291376
Zn8	Zn	1.165094	0.066289	0.624710
Zn9	Zn	1.498428	0.399622	0.958043
Zn10	Zn	0.822784	-0.379266	0.413550
Zn11	Zn	1.156118	-0.045933	0.746883
Zn12	Zn	1.489451	0.287401	1.080217
O13	O	0.879648	-0.323142	0.352489
O14	O	1.212981	0.010191	0.685822
O15	O	1.546315	0.343524	1.019156
O16	O	1.019863	-0.278215	0.393790
O17	O	1.353196	0.055119	0.727124
O18	O	1.686529	0.388452	1.060457
O19	O	0.922104	-0.372868	0.197623
O20	O	1.255437	-0.039535	0.530956
O21	O	1.588771	0.293798	0.864289
O22	O	0.849032	-0.168269	0.302775
O23	O	1.182365	0.165065	0.636109
O24	O	1.515699	0.498398	0.969442
O25	O	1.019538	-0.368001	0.311325
O26	O	1.352872	-0.034668	0.644659
O27	O	1.686205	0.298666	0.977992
O28	O	0.922856	-0.164581	0.388926
O29	O	1.256190	0.168752	0.722260
O30	O	1.589523	0.502086	1.055593
O31	O	0.848604	-0.286770	0.193937
O32	O	1.181937	0.046564	0.527270
O33	O	1.515271	0.379897	0.860604
O34	O	0.742893	-0.281952	0.307540
O35	O	1.076227	0.051381	0.640873
O36	O	1.409560	0.384714	0.974206
O37	O	0.833732	-0.359534	0.511003
O38	O	1.167065	-0.026201	0.844336
O39	O	1.500399	0.307133	1.177670
O40	O	0.736298	-0.364401	0.397300
O41	O	1.069631	-0.031068	0.730634
O42	O	1.402965	0.302266	1.063967
O43	O	0.914152	-0.273398	0.507393
O44	O	1.247485	0.059936	0.840726
O45	O	1.580818	0.393269	1.174060
O46	O	0.913400	-0.481685	0.316090
O47	O	1.246733	-0.148351	0.649423
O48	O	1.580066	0.184982	0.982756
O49	O	0.833304	-0.478035	0.402165
O50	O	1.166637	-0.144701	0.735498
O51	O	1.499971	0.188632	1.068831
C52	C	0.716862	-0.323183	0.352409
C53	C	1.050195	0.010150	0.685742
C54	C	1.383529	0.343484	1.019076
C55	C	0.647220	-0.323216	0.352392
C56	C	0.980553	0.010117	0.685726
C57	C	1.313887	0.343450	1.019059
C58	C	0.611089	-0.366210	0.399066
C59	C	0.944422	-0.032876	0.732399
C60	C	1.277756	0.300457	1.065733
C61	C	0.545653	-0.366191	0.399097
C62	C	0.878987	-0.032858	0.732430
C63	C	1.212320	0.300476	1.065763
C64	C	0.516351	-0.323187	0.352441
C65	C	0.849684	0.010146	0.685775
C66	C	1.183018	0.343479	1.019108
C67	C	0.552490	-0.280185	0.305764
C68	C	0.885823	0.053148	0.639097
C69	C	1.219157	0.386481	0.972431
C70	C	0.617925	-0.280200	0.305740
C71	C	0.951258	0.053133	0.639073
C72	C	1.284591	0.386467	0.972406
C73	C	0.415166	-0.320223	0.289087
C74	C	0.748500	0.013110	0.622421
C75	C	1.081833	0.346443	0.955754
C76	C	0.349733	-0.320214	0.289111
C77	C	0.683066	0.013120	0.622444
C78	C	1.016399	0.346453	0.955777
C79	C	0.314529	-0.323138	0.352517
C80	C	0.647863	0.010195	0.685850
C81	C	0.981196	0.343528	1.019183
C82	C	0.344766	-0.326087	0.415902
C83	C	0.678100	0.007246	0.749235
C84	C	1.011433	0.340580	1.082568
C85	C	0.410201	-0.326102	0.415877
C86	C	0.743534	0.007232	0.749211
C87	C	1.076868	0.340565	1.082544
C88	C	0.445399	-0.323166	0.352463
C89	C	0.778732	0.010167	0.685796
C90	C	1.112065	0.343500	1.019129
C91	C	0.207445	-0.366114	0.399227
C92	C	0.540778	-0.032780	0.732561
C93	C	0.874112	0.300553	1.065894
C94	C	0.142008	-0.366090	0.399259
C95	C	0.475342	-0.032757	0.732592
C96	C	0.808675	0.300577	1.065925
C97	C	0.148846	-0.280088	0.305920
C98	C	0.482180	0.053245	0.639253
C99	C	0.815513	0.386578	0.972587
C100	C	0.214282	-0.280108	0.305895
C101	C	0.547615	0.053225	0.639228
C102	C	0.880949	0.386559	0.972561
C103	C	0.243577	-0.323124	0.352547
C104	C	0.576911	0.010209	0.685881
C105	C	0.910244	0.343542	1.019214
C106	C	0.872346	-0.505298	0.360220
C107	C	1.205680	-0.171965	0.693553
C108	C	1.539013	0.161369	1.026886
C109	C	0.869279	-0.583224	0.363551
C110	C	1.202612	-0.249890	0.696884
C111	C	1.535946	0.083443	1.030217
C112	C	0.909569	-0.621709	0.320338
C113	C	1.242903	-0.288376	0.653671
C114	C	1.576236	0.044958	0.987005
C115	C	0.906688	-0.694928	0.323475
C116	C	1.240021	-0.361595	0.656808
C117	C	1.573355	-0.028262	0.990141
C118	C	0.863513	-0.729661	0.369821
C119	C	1.196846	-0.396328	0.703154
C120	C	1.530180	-0.062995	1.036488
C121	C	0.823221	-0.691171	0.413038
C122	C	1.156555	-0.357837	0.746372
C123	C	1.489888	-0.024504	1.079705
C124	C	0.826106	-0.617953	0.409905
C125	C	1.159439	-0.284619	0.743238
C126	C	1.492773	0.048714	1.076571
C127	C	0.852718	-0.950639	0.381526
C128	C	1.186052	-0.617306	0.714859
C129	C	1.519385	-0.283972	1.048193
C130	C	0.849835	-1.023862	0.384655
C131	C	1.183169	-0.690529	0.717988
C132	C	1.516502	-0.357196	1.051322
C133	C	0.933303	-1.027615	0.295092
C134	C	1.266637	-0.694282	0.628425
C135	C	1.599970	-0.360948	0.961758
C136	C	0.936182	-0.954395	0.291959
C137	C	1.269515	-0.621062	0.625293
C138	C	1.602848	-0.287729	0.958626
C139	C	0.895892	-0.915911	0.335179
C140	C	1.229225	-0.582578	0.668513
C141	C	1.562559	-0.249244	1.001846
C142	C	0.860566	-0.804503	0.373027
C143	C	1.193899	-0.471170	0.706360
C144	C	1.527232	-0.137837	1.039693
C145	C	0.898843	-0.841070	0.331977
C146	C	1.232176	-0.507737	0.665310
C147	C	1.565510	-0.174404	0.998643
C148	C	1.043070	-0.323102	0.352569
C149	C	1.376403	0.010231	0.685903
C150	C	1.709736	0.343565	1.019236
C151	C	1.112710	-0.323085	0.352604
C152	C	1.446044	0.010248	0.685937
C153	C	1.779377	0.343582	1.019270
C154	C	0.872990	-0.315352	0.535347
C155	C	1.206323	0.017982	0.868680
C156	C	1.539656	0.351315	1.202013
C157	C	0.870153	-0.312032	0.613270
C158	C	1.203486	0.021302	0.946603
C159	C	1.536819	0.354635	1.279937
C160	C	0.886995	-0.140275	0.344743
C161	C	1.220328	0.193059	0.678076
C162	C	1.553661	0.526392	1.011410
C163	C	0.890126	-0.062348	0.341442
C164	C	1.223459	0.270986	0.674776
C165	C	1.556792	0.604319	1.008109
C166	C	0.907084	-0.355296	0.651800
C167	C	1.240417	-0.021963	0.985133
C168	C	1.573751	0.311370	1.318467
C169	C	0.904418	-0.352169	0.725017
C170	C	1.237752	-0.018835	1.058350
C171	C	1.571085	0.314498	1.391683
C172	C	0.864817	-0.305779	0.759702
C173	C	1.198151	0.027555	1.093035
C174	C	1.531484	0.360888	1.426369
C175	C	0.827884	-0.262509	0.721167
C176	C	1.161218	0.070824	1.054500
C177	C	1.494551	0.404157	1.387833
C178	C	0.830554	-0.265634	0.647951
C179	C	1.163887	0.067699	0.981285
C180	C	1.497221	0.401032	1.314618
C181	C	0.854846	-0.294098	0.980669
C182	C	1.188180	0.039236	1.314002
C183	C	1.521513	0.372569	1.647336
C184	C	0.852178	-0.290978	1.053890
C185	C	1.185512	0.042356	1.387223
C186	C	1.518845	0.375689	1.720557
C187	C	0.928713	-0.380636	1.057735
C188	C	1.262047	-0.047303	1.391068
C189	C	1.595380	0.286030	1.724401
C190	C	0.931376	-0.383760	0.984518
C191	C	1.264710	-0.050427	1.317851
C192	C	1.598043	0.282907	1.651185
C193	C	0.894446	-0.340488	0.945989
C194	C	1.227779	-0.007155	1.279322
C195	C	1.561113	0.326179	1.612655
C196	C	0.862090	-0.302582	0.834541
C197	C	1.195424	0.030751	1.167875
C198	C	1.528757	0.364085	1.501208
C199	C	0.897177	-0.343682	0.871151
C200	C	1.230510	-0.010348	1.204484
C201	C	1.563844	0.322985	1.537817
C202	C	0.886274	-0.330919	1.170343
C203	C	1.219608	0.002414	1.503676
C204	C	1.552941	0.335747	1.837010
C205	C	0.889110	-0.334242	1.092420
C206	C	1.222443	-0.000909	1.425753
C207	C	1.555776	0.332424	1.759087
H208	H	0.434818	-0.328500	0.467487
H209	H	0.768151	0.004833	0.800821
H210	H	1.101484	0.338166	1.134154
H211	H	0.825411	-0.832791	0.410761
H212	H	1.158745	-0.499458	0.744094
H213	H	1.492078	-0.166124	1.077427
H214	H	0.516230	-0.401201	0.437107
H215	H	0.849563	-0.067868	0.770440
H216	H	1.182897	0.265466	1.103773
H217	H	0.966106	-1.058956	0.259906
H218	H	1.299439	-0.725623	0.593239
H219	H	1.632772	-0.392290	0.926572
H220	H	0.443824	-0.317839	0.237451
H221	H	0.777157	0.015494	0.570784
H222	H	1.110491	0.348828	0.904118
H223	H	0.528628	-0.245170	0.267778
H224	H	0.861961	0.088163	0.601111
H225	H	1.195295	0.421497	0.934445
H226	H	0.243700	-0.245102	0.267884
H227	H	0.577034	0.088232	0.601218
H228	H	0.910367	0.421565	0.934551
H229	H	0.325119	-0.317817	0.237499
H230	H	0.658452	0.015516	0.570832
H231	H	0.991785	0.348850	0.904166
H232	H	0.944724	-0.593435	0.282595
H233	H	1.278057	-0.260101	0.615928
H234	H	1.611391	0.073232	0.949261
H235	H	0.814684	-1.052139	0.422408
H236	H	1.148018	-0.718806	0.755741
H237	H	1.481351	-0.385473	1.089075
H238	H	0.788070	-0.719456	0.450778
H239	H	1.121403	-0.386123	0.784111
H240	H	1.454737	-0.052789	1.117444
H241	H	0.795643	-0.224735	0.749413
H242	H	1.128977	0.108599	1.082747
H243	H	1.462310	0.441932	1.416080
H244	H	0.124989	-0.245070	0.267935
H245	H	0.458322	0.088263	0.601269
H246	H	0.791656	0.421596	0.934602
H247	H	0.647342	-0.245188	0.267732
H248	H	0.980676	0.088146	0.601065
H249	H	1.314009	0.421479	0.934399
H250	H	0.316105	-0.328467	0.467533
H251	H	0.649438	0.004866	0.800866
H252	H	0.982772	0.338200	1.134200
H253	H	0.829846	-0.264813	0.862790
H254	H	1.163179	0.068520	1.196124
H255	H	1.496512	0.401854	1.529457
H256	H	0.971338	-0.926117	0.254220
H257	H	1.304671	-0.592784	0.587554
H258	H	1.638005	-0.259451	0.920887
H259	H	0.231299	-0.401136	0.437218
H260	H	0.564632	-0.067803	0.770552
H261	H	0.897965	0.265530	1.103885
H262	H	0.819912	-0.919311	0.416716
H263	H	1.153245	-0.585977	0.750050
H264	H	1.486578	-0.252644	1.083383
H265	H	0.634937	-0.401236	0.437056
H266	H	0.968270	-0.067903	0.770389
H267	H	1.301604	0.265431	1.103722
H268	H	0.793298	-0.586618	0.445094
H269	H	1.126631	-0.253285	0.778427
H270	H	1.459965	0.080048	1.111761
H271	H	0.800482	-0.230401	0.616581
H272	H	1.133815	0.102932	0.949914
H273	H	1.467149	0.436265	1.283247
H274	H	0.929422	-0.381449	0.842907
H275	H	1.262756	-0.048116	1.176240
H276	H	1.596089	0.285217	1.509573
H277	H	0.112591	-0.401099	0.437270
H278	H	0.445924	-0.067766	0.770604
H279	H	0.779258	0.265568	1.103937
H280	H	0.939496	-0.726260	0.288286
H281	H	1.272829	-0.392927	0.621619
H282	H	1.606163	-0.059593	0.954952
H283	H	0.933998	-0.812788	0.294244
H284	H	1.267331	-0.479455	0.627577
H285	H	1.600665	-0.146122	0.960911
H286	H	0.939334	-0.393070	0.623564
H287	H	1.272667	-0.059737	0.956898
H288	H	1.606000	0.273597	1.290231
H289	H	0.934492	-0.387399	0.756385
H290	H	1.267825	-0.054066	1.089718
H291	H	1.601159	0.279267	1.423051
H292	H	0.963613	-0.421547	0.956283
H293	H	1.296947	-0.088213	1.289616
H294	H	1.630280	0.245120	1.622949
H295	H	0.958781	-0.415864	1.089113
H296	H	1.292115	-0.082531	1.422446
H297	H	1.625448	0.250802	1.755780
H298	H	0.819932	-0.253196	1.082128
H299	H	1.153265	0.080137	1.415462
H300	H	1.486599	0.413471	1.748795
H301	H	0.824772	-0.258865	0.949308
H302	H	1.158105	0.074468	1.282641
H303	H	1.491439	0.407801	1.615974
