data_functionalizedCrystal
_audit_creation_method	'MofGen! by Chris Wilmer'
_symmetry_space_group_name_H-M	'P1'
_symmetry_Int_Tables_number	1
_symmetry_cell_setting	triclinic
loop_
_symmetry_equiv_pos_as_xyz
  x,y,z
_cell_length_a	14.853567
_cell_length_b	15.995350
_cell_length_c	13.330367
_cell_angle_alpha	89.997588
_cell_angle_beta	89.995418
_cell_angle_gamma	83.563653
loop_
_atom_site_label
_atom_site_type_symbol
_atom_site_fract_x
_atom_site_fract_y
_atom_site_fract_z
O1	O	1.196221	0.109317	-0.083349
O2	O	0.933744	0.122339	-0.083366
O3	O	1.072158	-0.006051	-0.083356
O4	O	1.057808	0.237707	-0.083359
O5	O	1.072138	-0.006054	0.083491
O6	O	0.933724	0.122336	0.083481
O7	O	1.196201	0.109314	0.083498
Cu8	Cu	1.064961	0.115825	0.098724
Cu9	Cu	1.064985	0.115828	-0.098592
O10	O	1.057788	0.237704	0.083488
C11	C	0.900146	0.121748	0.000056
C12	C	0.800065	0.119980	0.000049
C13	C	0.387644	0.036238	0.000072
C14	C	0.366158	0.188769	0.000070
C15	C	0.460189	0.190432	0.000067
C16	C	0.517953	0.114996	0.000065
C17	C	0.481685	0.037899	0.000066
C18	C	0.496464	0.267528	0.000055
C19	C	0.590501	0.269194	0.000051
C20	C	0.648266	0.193758	0.000056
C21	C	0.611993	0.116657	0.000059
C22	C	0.669757	0.041221	0.000057
C23	C	0.633485	-0.035880	0.000067
C24	C	0.539450	-0.037538	0.000072
C25	C	0.742302	0.195415	0.000051
C26	C	0.763797	0.042882	0.000051
C27	C	1.071555	-0.037248	0.000065
C28	C	1.069776	-0.130201	0.000060
C29	C	1.063389	-0.467956	0.000063
C30	C	0.964813	-0.420636	-0.000318
C31	C	0.966592	-0.323944	0.000058
C32	C	1.066557	-0.300391	0.000061
C33	C	1.115167	-0.341414	0.095340
C34	C	1.112690	-0.438053	0.095419
C35	C	1.114749	-0.438405	-0.094317
C36	C	1.114726	-0.341460	-0.095576
C37	C	1.068353	-0.205692	0.000063
C38	C	1.061596	-0.562655	0.000067
C39	C	1.229799	0.109906	0.000074
C40	C	1.329881	0.111674	0.000074
C41	C	1.058391	0.268901	0.000064
C42	C	1.060170	0.361854	0.000064
N43	N	1.064951	0.115822	0.237506
N44	N	1.065002	0.115825	-0.237374
C45	C	1.003693	0.172657	0.710124
C46	C	1.126301	0.058993	0.710101
C47	C	1.126291	0.058990	0.605082
C48	C	1.064982	0.115823	0.552580
C49	C	1.003682	0.172658	0.605096
C50	C	1.187595	0.002162	0.552559
C51	C	1.187588	0.002158	0.447534
C52	C	1.126274	0.058987	0.395030
C53	C	1.064971	0.115824	0.447552
C54	C	1.003662	0.172656	0.395050
C55	C	0.942354	0.229490	0.447570
C56	C	0.942368	0.229487	0.552592
C57	C	1.126260	0.058989	0.290008
C58	C	1.003652	0.172657	0.290022
H59	H	0.358108	-0.026536	0.000084
C60	C	0.302626	0.271743	0.000061
H61	H	0.337695	0.317897	0.000051
H62	H	0.265487	0.274268	0.058241
H63	H	0.265505	0.274261	-0.058133
C64	C	0.936215	0.235175	0.232272
H65	H	0.944985	0.227037	0.162202
H66	H	0.946002	0.291073	0.249484
H67	H	0.876048	0.225973	0.249492
C68	C	0.911802	-0.447167	0.091455
H69	H	0.852319	-0.418294	0.090643
H70	H	0.941885	-0.433479	0.151128
H71	H	0.908485	-0.506106	0.089197
C72	C	0.432930	0.350501	0.000043
H73	H	0.467998	0.396656	0.000024
H74	H	0.395796	0.353029	0.058227
H75	H	0.395805	0.353013	-0.058147
H76	H	0.928108	-0.296125	0.068470
C77	C	1.193689	-0.003519	0.232240
H78	H	1.230202	-0.037368	0.278550
H79	H	1.231205	0.026666	0.191257
H80	H	1.161253	-0.038436	0.191284
H81	H	0.810823	-0.018548	0.000053
H82	H	1.176222	0.012725	0.752851
C83	C	0.936262	0.235172	0.767890
H84	H	0.945048	0.227038	0.837958
H85	H	0.876097	0.225978	0.750687
H86	H	0.946056	0.291073	0.750673
H87	H	0.892440	0.275767	0.404811
C88	C	1.213217	-0.320621	-0.103338
H89	H	1.240630	-0.346226	-0.161756
H90	H	1.246072	-0.341406	-0.045716
H91	H	1.213712	-0.261375	-0.107339
H92	H	0.620025	0.331975	0.000042
H93	H	1.237516	-0.044106	0.595309
C94	C	1.255014	-0.060363	0.389770
H95	H	1.291524	-0.094213	0.436081
H96	H	1.292535	-0.030184	0.348785
H97	H	1.222573	-0.095277	0.348817
C98	C	0.782202	0.280213	0.000037
H99	H	0.846479	0.270399	0.000028
H100	H	0.762373	0.311282	0.058215
H101	H	0.762380	0.311271	-0.058159
C102	C	0.914961	-0.285600	-0.092197
H103	H	0.892704	-0.329114	-0.130242
H104	H	0.954689	-0.257263	-0.132510
H105	H	0.865615	-0.246779	-0.070749
H106	H	1.079186	-0.314251	-0.166061
H107	H	0.509909	-0.100310	0.000103
C108	C	0.697030	-0.118854	0.000065
H109	H	0.758227	-0.106817	0.000063
H110	H	0.686037	-0.150466	-0.058113
H111	H	0.686041	-0.150460	0.058261
H112	H	0.925422	-0.439212	-0.068644
H113	H	1.185062	-0.470217	0.099744
C114	C	1.064772	-0.462837	0.191622
H115	H	1.046996	-0.413866	0.230285
H116	H	1.105044	-0.500762	0.229719
H117	H	1.012698	-0.489160	0.174209
C118	C	1.214380	-0.322224	0.100138
H119	H	1.242493	-0.347619	0.158304
H120	H	1.216107	-0.263086	0.102993
H121	H	1.245753	-0.344148	0.042077
C122	C	1.069530	-0.303143	0.191124
H123	H	1.020860	-0.262175	0.173254
H124	H	1.112580	-0.277355	0.229678
H125	H	1.046973	-0.346295	0.229525
C126	C	1.071221	-0.466193	-0.191875
H127	H	1.021311	-0.496079	-0.175956
H128	H	1.114722	-0.501616	-0.229077
H129	H	1.050753	-0.418018	-0.230769
H130	H	1.187429	-0.470081	-0.094956
C131	C	0.874946	0.292004	0.610365
H132	H	0.883742	0.283870	0.680431
H133	H	0.814777	0.282814	0.593174
H134	H	0.884741	0.347905	0.593146
