data_functionalizedCrystal
_audit_creation_method	'MofGen! by Chris Wilmer'
_symmetry_space_group_name_H-M	'P1'
_symmetry_Int_Tables_number	1
_symmetry_cell_setting	triclinic
loop_
_symmetry_equiv_pos_as_xyz
  x,y,z
_cell_length_a	12.759401
_cell_length_b	19.805405
_cell_length_c	19.805398
_cell_angle_alpha	89.972363
_cell_angle_beta	89.986886
_cell_angle_gamma	90.027935
loop_
_atom_site_label
_atom_site_type_symbol
_atom_site_fract_x
_atom_site_fract_y
_atom_site_fract_z
Zn1	Zn	1.606100	-0.269462	-0.382662
Zn2	Zn	1.605979	-0.382648	-0.269470
Zn3	Zn	1.430422	-0.269481	-0.269492
Zn4	Zn	1.430354	-0.382618	-0.382622
O5	O	1.518214	-0.326052	-0.326062
O6	O	1.753105	-0.284481	-0.367654
O7	O	1.582669	-0.367656	-0.174756
O8	O	1.453805	-0.174762	-0.284530
O9	O	1.753016	-0.367638	-0.284493
O10	O	1.582875	-0.174748	-0.367675
O11	O	1.453688	-0.284513	-0.174772
O12	O	1.283392	-0.284484	-0.284491
O13	O	1.453690	-0.367587	-0.477344
O14	O	1.283342	-0.367605	-0.367608
O15	O	1.582809	-0.284453	-0.477373
O16	O	1.582603	-0.477360	-0.284455
O17	O	1.453572	-0.477338	-0.367587
C18	C	1.245247	-0.326044	-0.326048
C19	C	1.128470	-0.326057	-0.326058
C20	C	1.518096	-0.501908	-0.326029
C21	C	1.518141	-0.577140	-0.326037
C22	C	1.073609	-0.369404	-0.369269
C23	C	0.963885	-0.369406	-0.369283
C24	C	0.963892	-0.282713	-0.282869
C25	C	1.073614	-0.282707	-0.282859
C26	C	1.585393	-0.612473	-0.282796
C27	C	1.585437	-0.683162	-0.282811
C28	C	1.518224	-0.718516	-0.326064
C29	C	1.450970	-0.683178	-0.369311
C30	C	1.450931	-0.612491	-0.369299
C31	C	1.451125	-0.968251	-0.369361
C32	C	1.451166	-1.038943	-0.369368
C33	C	1.585631	-1.038922	-0.282873
C34	C	1.585592	-0.968235	-0.282861
C35	C	1.518342	-0.932903	-0.326110
C36	C	1.518296	-0.856255	-0.326094
C37	C	1.518264	-0.795163	-0.326077
C38	C	1.792247	-0.326061	-0.326075
C39	C	1.909024	-0.326065	-0.326081
C40	C	1.518255	-0.326015	-0.502604
C41	C	1.518273	-0.325999	-0.577836
C42	C	1.518361	-0.149509	-0.326109
C43	C	1.518424	-0.074277	-0.326130
C44	C	1.585632	-0.282591	-1.039644
C45	C	1.585615	-0.282611	-0.968955
C46	C	1.518380	-0.325905	-0.933598
C47	C	1.451165	-0.369185	-0.968933
C48	C	1.451188	-0.369167	-1.039621
C49	C	1.451074	-0.369258	-0.683860
C50	C	1.451054	-0.369271	-0.613168
C51	C	1.585501	-0.282703	-0.613195
C52	C	1.585524	-0.282685	-0.683882
C53	C	1.518313	-0.325967	-0.719211
C54	C	1.518333	-0.325945	-0.795859
C55	C	1.518354	-0.325924	-0.856951
C56	C	1.518233	-0.326041	-0.150206
C57	C	1.518419	-0.325866	-0.074974
H58	H	0.919223	-0.404703	-0.404470
C59	C	1.377147	-0.929387	-0.416927
C60	C	1.422592	-0.880735	-0.470086
C61	C	1.348611	-0.841866	-0.517653
C62	C	1.229186	-0.851649	-0.512061
C63	C	1.183735	-0.900304	-0.458899
C64	C	1.257716	-0.939173	-0.411332
H65	H	1.511004	-0.873491	-0.474228
H66	H	1.382258	-0.805848	-0.557007
H67	H	1.174421	-0.822876	-0.547272
H68	H	1.095323	-0.907548	-0.454757
H69	H	1.224069	-0.975190	-0.371978
H70	H	1.118283	-0.247405	-0.247672
H71	H	0.919215	-0.247420	-0.247697
H72	H	1.396435	-1.067726	-0.404596
H73	H	1.640120	-0.583693	-0.247571
C74	C	1.659421	-0.722024	-0.235244
C75	C	1.650922	-0.712361	-0.158292
C76	C	1.724915	-0.751220	-0.110726
C77	C	1.807407	-0.799743	-0.140111
C78	C	1.815910	-0.809409	-0.217067
C79	C	1.741917	-0.770549	-0.264634
H80	H	1.589853	-0.676439	-0.136536
H81	H	1.718620	-0.744065	-0.053758
H82	H	1.862181	-0.828510	-0.104899
H83	H	1.876979	-0.845330	-0.238823
H84	H	1.748212	-0.777704	-0.321602
H85	H	1.396426	-0.404438	-0.940140
C86	C	1.133953	-0.417081	-0.416792
C87	C	1.118811	-0.494020	-0.411132
C88	C	1.179151	-0.541696	-0.458658
C89	C	1.254633	-0.512435	-0.511844
C90	C	1.269778	-0.435492	-0.517505
C91	C	1.209438	-0.387815	-0.469979
H92	H	1.062932	-0.515684	-0.371759
H93	H	1.167940	-0.598655	-0.454467
H94	H	1.299300	-0.547728	-0.547025
H95	H	1.325657	-0.413828	-0.556878
H96	H	1.220649	-0.330857	-0.474171
C97	C	1.659618	-1.077788	-0.235303
C98	C	1.659675	-1.155542	-0.235314
C99	C	1.733657	-1.194406	-0.187744
C100	C	1.807583	-1.155517	-0.140163
C101	C	1.807530	-1.077759	-0.140151
C102	C	1.733547	-1.038895	-0.187721
H103	H	1.604947	-1.184333	-0.270538
H104	H	1.733696	-1.251967	-0.187754
H105	H	1.862350	-1.184286	-0.104949
H106	H	1.862257	-1.048967	-0.104927
H107	H	1.733508	-0.981334	-0.187711
H108	H	1.640319	-0.939452	-0.247637
C109	C	1.659548	-0.235004	-0.930095
C110	C	1.651030	-0.158056	-0.939834
C111	C	1.724969	-0.110447	-0.900975
C112	C	1.807426	-0.139784	-0.852379
C113	C	1.815948	-0.216735	-0.842639
C114	C	1.742009	-0.264345	-0.881497
H115	H	1.589988	-0.136336	-0.975809
H116	H	1.718660	-0.053482	-0.908186
H117	H	1.862160	-0.104540	-0.823614
H118	H	1.876990	-0.238456	-0.806663
H119	H	1.748318	-0.321310	-0.874286
H120	H	1.396249	-0.711969	-0.404532
C121	C	1.659446	-0.235096	-0.574331
C122	C	1.613952	-0.181969	-0.525744
C123	C	1.687891	-0.134363	-0.486882
C124	C	1.807325	-0.139883	-0.496608
C125	C	1.852826	-0.193012	-0.545197
C126	C	1.778886	-0.240619	-0.584059
H127	H	1.525534	-0.177881	-0.518543
H128	H	1.654208	-0.095033	-0.450913
H129	H	1.862059	-0.104642	-0.467840
H130	H	1.941243	-0.197101	-0.552398
H131	H	1.812569	-0.279948	-0.620028
H132	H	1.396296	-0.404525	-0.584382
C133	C	1.377093	-0.416835	-0.722716
C134	C	1.303100	-0.464430	-0.683822
C135	C	1.229093	-0.511995	-0.722681
C136	C	1.229079	-0.511964	-0.800435
C137	C	1.303075	-0.464367	-0.839333
C138	C	1.377081	-0.416802	-0.800473
H139	H	1.303108	-0.464455	-0.626261
H140	H	1.174317	-0.547230	-0.693886
H141	H	1.174295	-0.547175	-0.829201
H142	H	1.303067	-0.464343	-0.896894
H143	H	1.431858	-0.381568	-0.829269
H144	H	1.396170	-0.583723	-0.404512
C145	C	1.377259	-0.416774	-1.078487
C146	C	1.303304	-0.464399	-1.039599
C147	C	1.229381	-0.512013	-1.078464
C148	C	1.229412	-0.512002	-1.156217
C149	C	1.303369	-0.464375	-1.195109
C150	C	1.377293	-0.416762	-1.156244
H151	H	1.303278	-0.464409	-0.982037
H152	H	1.174633	-0.547270	-1.049673
H153	H	1.174689	-0.547249	-1.184987
H154	H	1.303395	-0.464366	-1.252671
H155	H	1.432041	-0.381505	-1.185035
H156	H	1.640270	-0.247428	-0.712666
H157	H	1.640375	-0.247332	-1.068426
