data_functionalizedCrystal
_audit_creation_method	'MofGen! by Chris Wilmer'
_symmetry_space_group_name_H-M	'P1'
_symmetry_Int_Tables_number	1
_symmetry_cell_setting	triclinic
loop_
_symmetry_equiv_pos_as_xyz
  x,y,z
_cell_length_a	17.640112
_cell_length_b	19.121063
_cell_length_c	17.640968
_cell_angle_alpha	81.648500
_cell_angle_beta	92.139080
_cell_angle_gamma	103.148881
loop_
_atom_site_label
_atom_site_type_symbol
_atom_site_fract_x
_atom_site_fract_y
_atom_site_fract_z
Zn1	Zn	1.247036	-0.020114	-0.196194
Zn2	Zn	1.215936	-0.164540	-0.077209
Zn3	Zn	1.092687	-0.065650	-0.097361
Zn4	Zn	1.115017	-0.155325	-0.229281
O5	O	1.167669	-0.101407	-0.150011
O6	O	1.349741	-0.024071	-0.158129
O7	O	1.177226	-0.174335	0.025122
O8	O	1.116833	0.038363	-0.105059
O9	O	1.326892	-0.130180	-0.070712
O10	O	1.230232	0.071818	-0.177670
O11	O	1.086676	-0.101681	0.010316
O12	O	0.988819	-0.092746	-0.137142
O13	O	1.154890	-0.114475	-0.329896
O14	O	1.005224	-0.158630	-0.234062
O15	O	1.251884	-0.015136	-0.305587
O16	O	1.198878	-0.261289	-0.102795
O17	O	1.124733	-0.254519	-0.214521
C18	C	0.969322	-0.129630	-0.191380
C19	C	0.884471	-0.141717	-0.209096
C20	C	0.562686	-0.009571	-0.015428
C21	C	0.482957	-0.020940	-0.032086
C22	C	0.500055	-0.089704	-0.132851
C23	C	0.579787	-0.078338	-0.116204
C24	C	0.611096	-0.038271	-0.057491
C25	C	0.628197	-0.107038	-0.158266
C26	C	0.707921	-0.095675	-0.141618
C27	C	0.739236	-0.055612	-0.082906
C28	C	0.690820	-0.026908	-0.040842
C29	C	0.596886	-0.147109	-0.216975
C30	C	0.645295	-0.175809	-0.259038
C31	C	0.725022	-0.164442	-0.242393
C32	C	0.756337	-0.124379	-0.183682
C33	C	0.773438	-0.193146	-0.284457
C34	C	0.853163	-0.181784	-0.267809
C35	C	0.836061	-0.113017	-0.167033
C36	C	1.160878	-0.283301	-0.160074
C37	C	1.158048	-0.361101	-0.164389
C38	C	1.195368	-0.401138	-0.108278
C39	C	1.192712	-0.474238	-0.112340
C40	C	1.152731	-0.507299	-0.172510
C41	C	1.115410	-0.467255	-0.228626
C42	C	1.118071	-0.394156	-0.224567
C43	C	1.142766	-0.727835	-0.187679
C44	C	1.140106	-0.800941	-0.191733
C45	C	1.217410	-0.807918	-0.075447
C46	C	1.220063	-0.734818	-0.071390
C47	C	1.182746	-0.694779	-0.127508
C48	C	1.150013	-0.582019	-0.176662
C49	C	1.185469	-0.620060	-0.123359
C50	C	1.366791	-0.073074	-0.108482
C51	C	1.451644	-0.061001	-0.090784
C52	C	1.209347	-0.058698	-0.345729
C53	C	1.227107	-0.040499	-0.429132
C54	C	1.174511	0.081204	-0.139922
C55	C	1.177426	0.159022	-0.135622
C56	C	1.033051	-0.239247	-0.766711
C57	C	1.049756	-0.222134	-0.845077
C58	C	1.150747	-0.118701	-0.819756
C59	C	1.134048	-0.135803	-0.741387
C60	C	1.075199	-0.196077	-0.714871
C61	C	1.176197	-0.092633	-0.689546
C62	C	1.159501	-0.109736	-0.611183
C63	C	1.100657	-0.170009	-0.584660
C64	C	1.058504	-0.213180	-0.636508
C65	C	1.235048	-0.032362	-0.716063
C66	C	1.277197	0.010807	-0.664223
C67	C	1.260498	-0.006292	-0.585859
C68	C	1.201654	-0.066565	-0.559336
C69	C	1.302651	0.036879	-0.534012
C70	C	1.285956	0.019776	-0.455648
C71	C	1.184959	-0.083668	-0.480973
C72	C	1.126199	-0.143893	0.044957
C73	C	1.108594	-0.161874	0.128402
H74	H	0.716316	0.005731	0.006957
H75	H	0.804153	-0.046363	-0.069350
H76	H	0.985113	-0.288314	-0.745124
H77	H	0.588182	0.023068	0.032371
H78	H	1.087682	-0.361557	-0.270259
C79	C	0.739460	-0.236775	-0.348107
C80	C	0.752762	-0.306850	-0.331422
C81	C	0.721467	-0.347063	-0.390037
H82	H	0.763625	-0.213820	-0.395286
H83	H	0.685035	-0.239485	-0.351998
H84	H	0.807177	-0.304137	-0.327541
H85	H	0.728596	-0.329826	-0.284254
H86	H	0.667042	-0.349772	-0.393927
H87	H	0.745635	-0.324101	-0.437212
H88	H	0.730481	-0.394614	-0.378721
H89	H	0.892580	-0.205153	-0.302061
H90	H	0.474551	-0.122329	-0.180653
C91	C	1.263547	-0.698798	-0.006171
C92	C	1.323013	-0.640524	-0.036169
C93	C	1.363075	-0.607319	0.023888
H94	H	1.285468	-0.733023	0.026705
H95	H	1.228461	-0.681565	0.022034
H96	H	1.358092	-0.657758	-0.064361
H97	H	1.301113	-0.606284	-0.069039
H98	H	1.327990	-0.590086	0.052093
H99	H	1.384991	-0.641549	0.056761
H100	H	1.403423	-0.567773	0.003543
C101	C	1.082436	-0.188721	-0.499605
C102	C	1.021892	-0.250755	-0.487479
C103	C	1.005092	-0.268020	-0.409136
H104	H	1.067099	-0.149356	-0.482049
H105	H	1.127448	-0.197731	-0.472243
H106	H	0.976889	-0.241742	-0.514832
H107	H	1.037211	-0.290134	-0.505018
H108	H	1.050104	-0.277029	-0.381774
H109	H	0.989758	-0.228650	-0.391587
H110	H	0.964016	-0.310115	-0.400898
H111	H	0.531968	-0.156359	-0.230528
H112	H	1.227921	-0.374226	-0.059278
C113	C	1.233244	-0.517596	-0.051321
C114	C	1.268805	-0.473003	0.002256
C115	C	1.306144	-0.512922	0.058485
H116	H	1.271618	-0.535084	-0.074599
H117	H	1.196069	-0.557432	-0.026232
H118	H	1.305977	-0.433180	-0.022830
H119	H	1.230449	-0.455514	0.025554
H120	H	1.268969	-0.552758	0.083574
H121	H	1.344514	-0.530408	0.035199
H122	H	1.330271	-0.482673	0.094847
H123	H	1.248641	-0.018440	-0.779872
C124	C	0.611159	-0.219256	-0.322779
C125	C	0.530981	-0.223051	-0.328370
C126	C	0.499513	-0.263059	-0.387088
H127	H	0.620039	-0.266861	-0.311660
H128	H	0.635314	-0.196205	-0.369944
H129	H	0.506833	-0.246104	-0.281215
H130	H	0.522078	-0.175458	-0.339500
H131	H	0.523667	-0.240008	-0.434253
H132	H	0.508399	-0.310661	-0.375963
H133	H	0.445110	-0.265634	-0.390894
H134	H	1.218025	-0.593138	-0.074370
H135	H	1.325113	0.059881	-0.685823
C136	C	1.096828	-0.836902	-0.257088
C137	C	1.148736	-0.862188	-0.298515
C138	C	1.108895	-0.895330	-0.358713
H139	H	1.074978	-0.802657	-0.290011
H140	H	1.056445	-0.876488	-0.236892
H141	H	1.189104	-0.822607	-0.318711
H142	H	1.170588	-0.896442	-0.265614
H143	H	1.068512	-0.934917	-0.338518
H144	H	1.087046	-0.861081	-0.391630
H145	H	1.144106	-0.912497	-0.386825
C146	C	1.366490	0.102305	-0.562960
C147	C	1.372081	0.108049	-0.642684
C148	C	1.430874	0.168316	-0.669378
H149	H	1.414713	0.096621	-0.540059
H150	H	1.354347	0.144978	-0.549898
H151	H	1.384228	0.065386	-0.655740
H152	H	1.323873	0.113744	-0.665605
H153	H	1.418731	0.210990	-0.656316
H154	H	1.479092	0.162627	-0.646472
H155	H	1.434670	0.172226	-0.723474
H156	H	1.247793	-0.840524	-0.029759
C157	C	1.331774	0.066756	-0.399484
C158	C	1.386868	0.123214	-0.439480
C159	C	1.429086	0.166510	-0.387767
H160	H	1.357590	0.038122	-0.363433
H161	H	1.297220	0.086474	-0.373333
H162	H	1.421418	0.103496	-0.465619
H163	H	1.361073	0.151865	-0.475528
H164	H	1.394532	0.186229	-0.361616
H165	H	1.454897	0.137870	-0.351719
H166	H	1.466467	0.204826	-0.414898
C167	C	1.102153	-0.684508	-0.248649
C168	C	1.066547	-0.729118	-0.302193
C169	C	1.029111	-0.689231	-0.358363
H170	H	1.139257	-0.644656	-0.273787
H171	H	1.063795	-0.667052	-0.225288
H172	H	1.104901	-0.746563	-0.325552
H173	H	1.029432	-0.768969	-0.277078
H174	H	0.990753	-0.671774	-0.335003
H175	H	1.066220	-0.649381	-0.383495
H176	H	1.004942	-0.719494	-0.394696
C177	C	1.072131	-0.503211	-0.293978
C178	C	1.124035	-0.528495	-0.335414
C179	C	1.084189	-0.561629	-0.395614
H180	H	1.050280	-0.468963	-0.326895
H181	H	1.031748	-0.542798	-0.273784
H182	H	1.164403	-0.488913	-0.355608
H183	H	1.145887	-0.562752	-0.302518
H184	H	1.043806	-0.601216	-0.375420
H185	H	1.062340	-0.527376	-0.428526
H186	H	1.119398	-0.578794	-0.423732
H187	H	1.198664	-0.069627	-0.841357
H188	H	0.861557	-0.080377	-0.119234
H189	H	1.010566	-0.262247	-0.614920
H190	H	0.443545	0.002440	0.002166
H191	H	1.117458	-0.608946	-0.225652
H192	H	1.137021	-0.132735	-0.459385
H193	H	1.015429	-0.257293	-0.887285
