data_functionalizedCrystal
_audit_creation_method	'MofGen! by Chris Wilmer'
_symmetry_space_group_name_H-M	'P1'
_symmetry_Int_Tables_number	1
_symmetry_cell_setting	triclinic
loop_
_symmetry_equiv_pos_as_xyz
  x,y,z
_cell_length_a	16.992694
_cell_length_b	26.210047
_cell_length_c	16.992695
_cell_angle_alpha	89.995410
_cell_angle_beta	90.668223
_cell_angle_gamma	90.003955
loop_
_atom_site_label
_atom_site_type_symbol
_atom_site_fract_x
_atom_site_fract_y
_atom_site_fract_z
O1	O	1.050856	0.042366	0.166906
O2	O	0.822456	0.042381	0.165074
O3	O	0.935741	0.042369	0.051790
O4	O	0.937572	0.042377	0.280190
O5	O	0.935719	-0.042489	0.051807
O6	O	0.822434	-0.042478	0.165092
O7	O	1.050834	-0.042493	0.166923
Cu8	Cu	0.936632	-0.050233	0.166009
Cu9	Cu	0.936658	0.050121	0.165989
O10	O	0.937550	-0.042481	0.280208
C11	C	0.793085	-0.000047	0.162727
C12	C	0.705600	-0.000041	0.155699
N13	N	0.936619	-0.120817	0.166023
C14	C	0.659610	-0.000039	0.223517
C15	C	0.577409	-0.000046	0.216908
C16	C	0.541201	-0.000052	0.142480
C17	C	0.587198	-0.000055	0.074657
C18	C	0.669397	-0.000052	0.081267
C19	C	0.295886	-0.000066	0.115086
C20	C	0.213681	-0.000069	0.108481
C21	C	0.203898	-0.000060	0.250732
C22	C	0.286099	-0.000054	0.257336
C23	C	0.332089	-0.000060	0.189512
N24	N	0.457178	-0.000058	0.135723
N25	N	0.416110	-0.000058	0.196270
C26	C	0.986816	-0.473336	0.115838
C27	C	0.986833	-0.686995	0.115828
O28	O	1.029481	-0.714621	0.073160
N29	N	0.936661	-0.713711	0.165972
C30	C	0.886479	-0.687009	0.216117
O31	O	0.843800	-0.714636	0.258761
C32	C	0.886459	-0.473352	0.216123
C33	C	0.936639	-0.446638	0.165982
C34	C	1.036991	-0.446623	0.065700
C35	C	1.036990	-0.393211	0.065706
C36	C	0.986813	-0.366513	0.115850
C37	C	0.936637	-0.393227	0.165988
C38	C	0.836273	-0.446651	0.266264
C39	C	0.836271	-0.393233	0.266259
C40	C	0.886451	-0.366520	0.216118
C41	C	0.886459	-0.313117	0.216137
N42	N	0.936630	-0.286401	0.165994
C43	C	0.986807	-0.313099	0.115850
C44	C	0.886494	-0.799183	0.216112
C45	C	0.886500	-0.852597	0.216112
C46	C	0.986853	-0.852579	0.115822
C47	C	0.986850	-0.799164	0.115826
C48	C	0.936665	-0.772466	0.165969
C49	C	0.986800	-0.200931	0.115867
C50	C	0.986796	-0.147515	0.115880
C51	C	0.886441	-0.147538	0.216167
C52	C	0.886447	-0.200949	0.216157
C53	C	0.936629	-0.227645	0.166001
O54	O	0.843826	-0.285458	0.258776
O55	O	1.029467	-0.285464	0.073200
C56	C	0.986818	-0.526748	0.115832
C57	C	0.936642	-0.553461	0.165969
C58	C	0.886465	-0.526763	0.216113
C59	C	0.936648	-0.606875	0.165969
C60	C	0.986825	-0.633573	0.115826
C61	C	1.036996	-0.606857	0.065682
C62	C	1.036995	-0.553446	0.065688
C63	C	0.836294	-0.553479	0.266256
C64	C	0.836300	-0.606891	0.266247
C65	C	0.886477	-0.633589	0.216103
C66	C	1.080205	-0.000064	0.169270
C67	C	1.167690	-0.000067	0.176299
C68	C	0.933374	-0.000060	0.022439
C69	C	0.926345	-0.000059	-0.065046
N70	N	0.936677	0.120705	0.165968
C71	C	0.994163	-0.000064	-0.111037
C72	C	0.987554	-0.000059	-0.193238
C73	C	0.913127	-0.000052	-0.229446
C74	C	0.845303	-0.000046	-0.183449
C75	C	0.851913	-0.000047	-0.101250
C76	C	0.885732	-0.000043	-0.474760
C77	C	0.879127	-0.000043	-0.556966
C78	C	1.021379	-0.000056	-0.566749
C79	C	1.027982	-0.000060	-0.484547
C80	C	0.960159	-0.000051	-0.438558
N81	N	0.906369	-0.000048	-0.313468
N82	N	0.966917	-0.000051	-0.354537
C83	C	0.939917	-0.000051	0.309559
C84	C	0.946945	-0.000048	0.397044
H85	H	0.689084	-0.000034	0.284124
Cl86	Cl	1.087734	-0.000078	-0.065526
H87	H	1.077855	-0.628603	0.024856
H88	H	0.539966	-0.000044	0.272133
Cl89	Cl	0.541678	-0.000066	-0.018910
Cl90	Cl	1.049886	-0.113935	0.052842
H91	H	1.076596	-0.000062	-0.604202
H92	H	1.027711	-0.777417	0.074997
H93	H	0.784703	-0.000037	-0.212936
H94	H	0.795439	-0.628637	0.307085
Cl95	Cl	1.072816	-0.000067	-0.251052
H96	H	0.315574	-0.000043	0.317942
H97	H	1.088589	-0.000066	-0.455073
Cl98	Cl	0.146078	-0.000055	0.335990
H99	H	0.796688	-0.000043	-0.063804
Cl100	Cl	0.773209	-0.519923	0.329301
Cl101	Cl	1.049889	-0.234483	0.052814
Cl102	Cl	0.785554	-0.000038	-0.602483
H103	H	0.184203	-0.000073	0.047870
H104	H	0.333322	-0.000072	0.059859
Cl105	Cl	0.727214	-0.000056	-0.003994
Cl106	Cl	0.800468	-0.000031	-0.416955
H107	H	1.077848	-0.371464	0.024875
Cl108	Cl	1.100080	-0.480177	0.002655
H109	H	0.795411	-0.468394	0.307092
H110	H	1.077856	-0.531699	0.024859
H111	H	1.027710	-0.874325	0.074994
Cl112	Cl	0.823425	-0.886173	0.279160
H113	H	0.795401	-0.371499	0.307090
Cl114	Cl	0.823401	-0.765627	0.279157
Cl115	Cl	0.823364	-0.113966	0.279203
Cl116	Cl	0.823370	-0.234531	0.279203
