data_functionalizedCrystal
_audit_creation_method	'MofGen! by Chris Wilmer'
_symmetry_space_group_name_H-M	'P1'
_symmetry_Int_Tables_number	1
_symmetry_cell_setting	triclinic
loop_
_symmetry_equiv_pos_as_xyz
  x,y,z
_cell_length_a	12.837943
_cell_length_b	11.295483
_cell_length_c	12.837942
_cell_angle_alpha	94.530417
_cell_angle_beta	85.171060
_cell_angle_gamma	94.538773
loop_
_atom_site_label
_atom_site_type_symbol
_atom_site_fract_x
_atom_site_fract_y
_atom_site_fract_z
O1	O	1.408689	0.099003	-0.265788
O2	O	1.105556	0.099010	-0.252345
O3	O	1.250401	0.098999	-0.107500
O4	O	1.263845	0.099013	-0.410633
O5	O	1.237676	-0.099051	-0.120201
O6	O	1.092832	-0.099040	-0.265045
O7	O	1.395965	-0.099047	-0.278489
Cu8	Cu	1.243237	-0.117127	-0.272927
Cu9	Cu	1.258285	0.117090	-0.257907
O10	O	1.251121	-0.099037	-0.423333
C11	C	1.060125	-0.000014	-0.254153
C12	C	0.943710	-0.000012	-0.240609
N13	N	1.232661	-0.281863	-0.283491
C14	C	0.718835	-0.000021	-0.403439
C15	C	0.609453	-0.000020	-0.390717
C16	C	0.615561	-0.000016	-0.202446
C17	C	0.724943	-0.000017	-0.215167
C18	C	0.776576	-0.000018	-0.315667
C19	C	0.885961	-0.000011	-0.328387
C20	C	0.892066	-0.000016	-0.140117
C21	C	0.782684	-0.000015	-0.127396
C22	C	1.344996	-0.531161	-0.171231
C23	C	1.337012	-0.655824	-0.179223
C24	C	1.208702	-0.655854	-0.307459
C25	C	1.216687	-0.531191	-0.299467
C26	C	1.284837	-0.468849	-0.231353
C27	C	1.292826	-0.344183	-0.223367
C28	C	1.164512	-0.344216	-0.351597
C29	C	1.156528	-0.468879	-0.359589
C30	C	1.441396	-0.000021	-0.276680
C31	C	1.557812	-0.000015	-0.290224
C32	C	1.239497	-0.000025	-0.074781
C33	C	1.225953	-0.000023	0.041634
N34	N	1.268868	0.281825	-0.247335
C35	C	1.262024	-0.000010	-0.456052
C36	C	1.275569	-0.000004	-0.572467
C37	C	1.388784	-0.000002	0.266509
C38	C	1.376062	0.000000	0.375892
C39	C	1.187791	-0.000008	0.369784
C40	C	1.200512	-0.000010	0.260402
C41	C	1.301011	-0.000009	0.208768
C42	C	1.313731	-0.000020	0.099383
C43	C	1.125461	-0.000019	0.093278
C44	C	1.112740	-0.000017	0.202660
H45	H	0.928000	-0.000014	-0.410219
O46	O	1.079408	-0.000004	0.425497
H47	H	1.041896	0.080722	0.408220
H48	H	1.395563	-0.000023	0.057344
H49	H	1.348320	-0.293425	-0.167908
O50	O	1.497171	0.000001	0.210807
H51	H	1.556070	0.000011	0.269337
H52	H	1.400494	-0.480401	-0.115777
O53	O	1.004346	-0.000034	0.258350
H54	H	1.010243	-0.000043	0.344111
O55	O	1.470728	-0.000006	0.438175
H56	H	1.542743	-0.000017	0.383889
H57	H	1.053990	-0.000034	0.046252
H58	H	0.573495	-0.000114	-0.120630
H59	H	0.562444	-0.000025	-0.462191
O60	O	1.099623	-0.277010	-0.416453
H61	H	1.015164	-0.300962	-0.396552
H62	H	0.760876	-0.000020	-0.485269
O63	O	1.401909	-0.723038	-0.114392
H64	H	1.450645	-0.658739	-0.065696
H65	H	0.740628	-0.000028	-0.045572
H66	H	0.939091	-0.000006	-0.068646
H67	H	1.153209	-0.706630	-0.362909
O68	O	1.083032	-0.536121	-0.433061
H69	H	1.087592	-0.633276	-0.428525
