data_functionalizedCrystal
_audit_creation_method	'MofGen! by Chris Wilmer'
_symmetry_space_group_name_H-M	'P1'
_symmetry_Int_Tables_number	1
_symmetry_cell_setting	triclinic
loop_
_symmetry_equiv_pos_as_xyz
  x,y,z
_cell_length_a	14.908783
_cell_length_b	13.897448
_cell_length_c	13.897441
_cell_angle_alpha	90.030599
_cell_angle_beta	93.321823
_cell_angle_gamma	93.308624
loop_
_atom_site_label
_atom_site_type_symbol
_atom_site_fract_x
_atom_site_fract_y
_atom_site_fract_z
Zn1	Zn	1.379289	-0.298996	0.630631
Zn2	Zn	1.879289	0.201004	1.130631
Zn3	Zn	1.379190	-0.460324	0.469326
Zn4	Zn	1.879190	0.039676	0.969326
Zn5	Zn	1.228415	-0.308335	0.460024
Zn6	Zn	1.728415	0.191665	0.960024
Zn7	Zn	1.228398	-0.469549	0.621259
Zn8	Zn	1.728398	0.030451	1.121259
O9	O	1.303823	-0.384301	0.545310
O10	O	1.803823	0.115699	1.045310
O11	O	1.505524	-0.312628	0.617049
O12	O	2.005524	0.187372	1.117049
O13	O	1.359155	-0.440210	0.333108
O14	O	1.859155	0.059790	0.833108
O15	O	1.248478	-0.172112	0.482685
O16	O	1.748478	0.327888	0.982685
O17	O	1.505452	-0.431155	0.498539
O18	O	2.005452	0.068845	0.998539
O19	O	1.359324	-0.165251	0.608029
O20	O	1.859324	0.334749	1.108029
O21	O	1.248381	-0.328545	0.326274
O22	O	1.748381	0.171455	0.826274
O23	O	1.102165	-0.337489	0.473597
O24	O	1.602165	0.162511	0.973597
O25	O	1.248448	-0.446877	0.757486
O26	O	1.748448	0.053123	1.257486
O27	O	1.102152	-0.455932	0.592055
O28	O	1.602152	0.044068	1.092055
O29	O	1.359308	-0.321573	0.764371
O30	O	1.859308	0.178427	1.264371
O31	O	1.359139	-0.596532	0.489451
O32	O	1.859139	-0.096532	0.989451
O33	O	1.248352	-0.603310	0.601075
O34	O	1.748352	-0.103310	1.101075
C35	C	1.069424	-0.398726	0.530800
C36	C	1.569424	0.101274	1.030800
C37	C	0.969146	-0.404920	0.524616
C38	C	1.469146	0.095080	1.024616
C39	C	0.780789	-0.293306	0.636588
C40	C	1.280789	0.206694	1.136588
C41	C	0.686570	-0.299122	0.630780
C42	C	1.186570	0.200878	1.130780
C43	C	0.686487	-0.422364	0.507189
C44	C	1.186487	0.077636	1.007189
C45	C	0.780706	-0.416547	0.512997
C46	C	1.280706	0.083453	1.012997
C47	C	0.827854	-0.352017	0.577699
C48	C	1.327854	0.147983	1.077699
C49	C	0.922075	-0.346206	0.583511
C50	C	1.422075	0.153794	1.083511
C51	C	0.921990	-0.469442	0.459916
C52	C	1.421990	0.030558	0.959916
C53	C	0.827771	-0.475259	0.454108
C54	C	1.327771	0.024741	0.954108
C55	C	1.303757	-0.634919	0.545278
C56	C	1.803757	-0.134919	1.045278
C57	C	1.303812	-0.742130	0.545302
C58	C	1.803812	-0.242130	1.045302
C59	C	1.303906	-0.938419	0.545368
C60	C	1.803906	-0.438419	1.045368
C61	C	1.303851	-0.829190	0.545334
C62	C	1.803851	-0.329190	1.045334
C63	C	1.539138	-0.369821	0.559877
C64	C	2.039138	0.130179	1.059877
C65	C	1.639415	-0.363650	0.566084
C66	C	2.139415	0.136350	1.066084
C67	C	1.303887	-0.384212	0.796907
C68	C	1.803887	0.115788	1.296907
C69	C	1.303914	-0.384174	0.904123
C70	C	1.803914	0.115826	1.404123
C71	C	1.303914	-0.132702	0.545365
C72	C	1.803914	0.367298	1.045365
C73	C	1.303952	-0.025486	0.545388
C74	C	1.803952	0.474514	1.045388
C75	C	1.303811	-0.384317	0.294695
C76	C	1.803811	0.115683	0.794695
C77	C	1.303959	-0.384073	0.187491
C78	C	1.803959	0.115927	0.687491
C79	C	1.303939	-0.384107	1.100420
C80	C	1.803939	0.115893	1.600420
C81	C	1.303923	-0.384147	0.991186
C82	C	1.803923	0.115853	1.491186
H83	H	0.648253	-0.251311	0.678731
H84	H	1.148253	0.248689	1.178731
N85	N	0.828969	-0.227396	0.702667
N86	N	1.328969	0.272604	1.202667
N87	N	0.913092	-0.222210	0.707841
N88	N	1.413092	0.277790	1.207841
H89	H	0.947120	-0.175660	0.754510
H90	H	1.447120	0.324340	1.254510
N91	N	0.970252	-0.280289	0.649585
N92	N	1.470252	0.219711	1.149585
N93	N	1.054375	-0.275099	0.654762
N94	N	1.554375	0.224901	1.154762
H95	H	1.088400	-0.228541	0.701425
H96	H	1.588400	0.271459	1.201425
H97	H	0.789370	-0.527794	0.401426
H98	H	1.289370	-0.027794	0.901426
N99	N	0.638321	-0.488284	0.441110
N100	N	1.138321	0.011716	0.941110
N101	N	0.648821	-0.576651	0.448003
N102	N	1.148821	-0.076651	0.948003
H103	H	0.614805	-0.623209	0.401333
H104	H	1.114805	-0.123209	0.901333
H105	H	0.960321	-0.517257	0.411971
H106	H	1.460321	-0.017257	0.911971
