data_functionalizedCrystal
_audit_creation_method	'MofGen! by Chris Wilmer'
_symmetry_space_group_name_H-M	'P1'
_symmetry_Int_Tables_number	1
_symmetry_cell_setting	triclinic
loop_
_symmetry_equiv_pos_as_xyz
  x,y,z
_cell_length_a	16.109301
_cell_length_b	19.288864
_cell_length_c	15.186229
_cell_angle_alpha	90.021780
_cell_angle_beta	89.986602
_cell_angle_gamma	96.701137
loop_
_atom_site_label
_atom_site_type_symbol
_atom_site_fract_x
_atom_site_fract_y
_atom_site_fract_z
O1	O	0.103723	-0.921599	-0.073514
O2	O	0.603723	-0.421599	0.426486
O3	O	0.117714	-0.719371	-0.073454
O4	O	0.617714	-0.219371	0.426546
O5	O	-0.010331	-0.826040	-0.073477
O6	O	0.489669	-0.326040	0.426523
O7	O	0.231769	-0.814930	-0.073491
O8	O	0.731769	-0.314930	0.426509
O9	O	-0.010352	-0.826026	0.072981
O10	O	0.489648	-0.326026	0.572981
O11	O	0.117694	-0.719357	0.073003
O12	O	0.617694	-0.219357	0.573003
O13	O	0.103702	-0.921584	0.072944
O14	O	0.603702	-0.421584	0.572944
Zn15	Zn	0.110695	-0.820468	0.096227
Zn16	Zn	0.610695	-0.320468	0.596227
Zn17	Zn	0.110722	-0.820487	-0.096737
Zn18	Zn	0.610722	-0.320487	0.403263
O19	O	0.231748	-0.814915	0.072966
O20	O	0.731748	-0.314915	0.572966
C21	C	-0.041315	-0.825583	-0.000247
C22	C	0.458685	-0.325583	0.499753
C23	C	-0.133606	-0.824234	-0.000246
C24	C	0.366394	-0.324234	0.499754
C25	C	0.117254	-0.693487	-0.000218
C26	C	0.617254	-0.193487	0.499782
C27	C	0.115902	-0.616380	-0.000194
C28	C	0.615902	-0.116380	0.499806
C29	C	0.104163	-0.947469	-0.000295
C30	C	0.604163	-0.447469	0.499705
C31	C	0.105514	-1.024576	-0.000324
C32	C	0.605514	-0.524576	0.499676
C33	C	-0.356084	-0.884391	-0.000277
C34	C	0.143916	-0.384391	0.499723
C35	C	-0.442800	-0.883118	-0.000284
C36	C	0.057200	-0.383118	0.499716
C37	C	-0.422493	-0.756559	-0.000243
C38	C	0.077507	-0.256559	0.499757
C39	C	-0.335778	-0.757833	-0.000243
C40	C	0.164222	-0.257833	0.499757
C41	C	-0.302577	-0.821751	-0.000255
C42	C	0.197423	-0.321751	0.499745
C43	C	-0.476007	-0.819204	-0.000263
C44	C	0.023993	-0.319204	0.499737
C45	C	-0.570028	-0.817823	-0.000270
C46	C	-0.070028	-0.317823	0.499730
C47	C	-0.208549	-0.823133	-0.000250
C48	C	0.291451	-0.323133	0.499750
C49	C	0.262732	-0.815372	-0.000265
C50	C	0.762732	-0.315372	0.499735
C51	C	0.355022	-0.816722	-0.000273
C52	C	0.855022	-0.316722	0.499727
N53	N	0.110676	-0.820460	0.227919
N54	N	0.610676	-0.320460	0.727919
C55	C	0.191034	-0.571863	-0.000213
C56	C	0.691034	-0.071863	0.499787
C57	C	0.189764	-0.499413	-0.000222
C58	C	0.689764	0.000587	0.499778
C59	C	0.113359	-0.471483	-0.000231
C60	C	0.613359	0.028517	0.499769
C61	C	0.038218	-0.516009	-0.000208
C62	C	0.538218	-0.016009	0.499792
C63	C	0.039489	-0.588458	-0.000190
C64	C	0.539489	-0.088458	0.499810
C65	C	0.053303	-0.363082	-0.051568
C66	C	0.553303	0.136918	0.448432
C67	C	0.052034	-0.290635	-0.051592
C68	C	0.552034	0.209365	0.448408
C69	C	0.109433	-0.248028	-0.000284
C70	C	0.609433	0.251972	0.499716
C71	C	0.168115	-0.277876	0.051035
C72	C	0.668115	0.222124	0.551035
C73	C	0.169386	-0.350324	0.051054
C74	C	0.669386	0.149676	0.551054
C75	C	0.111971	-0.392925	-0.000251
C76	C	0.611971	0.107075	0.499749
C77	C	0.183193	-0.124952	-0.000312
C78	C	0.683193	0.375048	0.499688
C79	C	0.181920	-0.052501	-0.000316
C80	C	0.681920	0.447499	0.499684
C81	C	0.030372	-0.069099	-0.000311
C82	C	0.530372	0.430901	0.499689
C83	C	0.031647	-0.141548	-0.000298
C84	C	0.531647	0.358452	0.499702
C85	C	0.108060	-0.169470	-0.000303
C86	C	0.608060	0.330530	0.499697
N87	N	0.110734	-0.820501	-0.228430
N88	N	0.610734	-0.320501	0.271570
C89	C	0.060417	-0.778370	0.545888
C90	C	0.560417	-0.278370	1.045888
C91	C	0.060405	-0.778364	0.453698
C92	C	0.560405	-0.278364	0.953698
C93	C	0.160995	-0.862596	0.453608
C94	C	0.660995	-0.362596	0.953608
C95	C	0.161002	-0.862605	0.545796
C96	C	0.661002	-0.362605	1.045796
C97	C	0.110715	-0.820488	0.591934
C98	C	0.610715	-0.320488	1.091934
C99	C	0.110695	-0.820473	0.407556
C100	C	0.610695	-0.320473	0.907556
C101	C	0.110683	-0.820467	0.307600
C102	C	0.610683	-0.320467	0.807600
C103	C	0.110726	-0.820495	0.691896
C104	C	0.610726	-0.320495	1.191896
H105	H	-0.329054	-0.936438	-0.000290
H106	H	0.170946	-0.436438	0.499710
Cl107	Cl	0.276380	0.003465	-0.000335
Cl108	Cl	0.776380	0.503465	0.499665
Cl109	Cl	-0.065682	-0.033994	-0.000312
Cl110	Cl	0.434318	0.466006	0.499688
H111	H	0.201961	-0.896906	0.583287
H112	H	0.701961	-0.396906	1.083287
H113	H	0.006560	-0.397768	-0.093354
H114	H	0.506560	0.102232	0.406646
Cl115	Cl	-0.510063	-0.961870	-0.000314
Cl116	Cl	-0.010063	-0.461870	0.499686
Cl117	Cl	-0.464239	-0.676209	-0.000227
Cl118	Cl	0.035761	-0.176209	0.499773
Cl119	Cl	-0.002806	-0.725427	0.603886
Cl120	Cl	0.497194	-0.225427	1.103886
Cl121	Cl	-0.002825	-0.725410	0.395816
Cl122	Cl	0.497175	-0.225410	0.895816
Cl123	Cl	0.284222	-0.443438	-0.000244
Cl124	Cl	0.784222	0.056562	0.499756
Cl125	Cl	-0.268507	-0.679079	-0.000223
Cl126	Cl	0.231493	-0.179079	0.499777
Cl127	Cl	0.287095	-0.606961	-0.000215
Cl128	Cl	0.787095	-0.106961	0.499785
H129	H	-0.029534	-0.177795	-0.000287
H130	H	0.470466	0.322205	0.499713
H131	H	0.217164	-0.374623	0.092843
H132	H	0.717164	0.125377	0.592843
H133	H	0.214854	-0.243186	0.092815
H134	H	0.714854	0.256814	0.592815
Cl135	Cl	-0.057835	-0.480899	-0.000214
Cl136	Cl	0.442165	0.019101	0.499786
Cl137	Cl	0.279253	-0.160057	-0.000309
Cl138	Cl	0.779253	0.339943	0.499691
Cl139	Cl	-0.021728	-0.253119	-0.116116
Cl140	Cl	0.478272	0.246881	0.383884
Cl141	Cl	-0.054970	-0.644425	-0.000167
Cl142	Cl	0.445030	-0.144425	0.499833
Cl143	Cl	0.224214	-0.915536	0.395600
Cl144	Cl	0.724214	-0.415536	0.895600
