data_functionalizedCrystal
_audit_creation_method	'MofGen! by Chris Wilmer'
_symmetry_space_group_name_H-M	'P1'
_symmetry_Int_Tables_number	1
_symmetry_cell_setting	triclinic
loop_
_symmetry_equiv_pos_as_xyz
  x,y,z
_cell_length_a	16.959454
_cell_length_b	16.959455
_cell_length_c	16.959447
_cell_angle_alpha	89.985678
_cell_angle_beta	90.026736
_cell_angle_gamma	89.982978
loop_
_atom_site_label
_atom_site_type_symbol
_atom_site_fract_x
_atom_site_fract_y
_atom_site_fract_z
Zn1	Zn	-0.314730	-1.208384	0.446928
Zn2	Zn	0.185270	-0.708384	0.946928
Zn3	Zn	-0.446923	-1.208306	0.314758
Zn4	Zn	0.053077	-0.708306	0.814758
Zn5	Zn	-0.314755	-1.076212	0.314766
Zn6	Zn	0.185245	-0.576212	0.814766
Zn7	Zn	-0.446864	-1.076177	0.446897
Zn8	Zn	0.053136	-0.576177	0.946897
O9	O	-0.380818	-1.142270	0.380837
O10	O	0.119182	-0.642270	0.880837
O11	O	-0.332280	-1.318984	0.429406
O12	O	0.167720	-0.818984	0.929406
O13	O	-0.429426	-1.190766	0.204148
O14	O	0.070574	-0.690766	0.704148
O15	O	-0.204141	-1.093792	0.332314
O16	O	0.295859	-0.593792	0.832314
O17	O	-0.429402	-1.318927	0.332301
O18	O	0.070598	-0.818927	0.832301
O19	O	-0.204123	-1.190898	0.429413
O20	O	0.295877	-0.690898	0.929413
O21	O	-0.332323	-1.093717	0.204154
O22	O	0.167677	-0.593717	0.704154
O23	O	-0.332265	-0.965597	0.332283
O24	O	0.167735	-0.465597	0.832283
O25	O	-0.429301	-1.093732	0.557512
O26	O	0.070699	-0.593732	1.057512
O27	O	-0.429325	-0.965571	0.429359
O28	O	0.070675	-0.465571	0.929359
O29	O	-0.332223	-1.190864	0.557535
O30	O	0.167777	-0.690864	1.057535
O31	O	-0.557526	-1.190732	0.332270
O32	O	-0.057526	-0.690732	0.832270
O33	O	-0.557482	-1.093657	0.429352
O34	O	-0.057482	-0.593657	0.929352
C35	C	-0.380792	-0.936904	0.380819
C36	C	0.119208	-0.436904	0.880819
C37	C	-0.380800	-0.849047	0.380830
C38	C	0.119200	-0.349047	0.880830
C39	C	-0.586184	-1.142204	0.380824
C40	C	-0.086184	-0.642204	0.880824
C41	C	-0.674041	-1.142248	0.380844
C42	C	-0.174041	-0.642248	0.880844
C43	C	-0.380753	-1.142303	0.587006
C44	C	0.119247	-0.642303	1.087006
C45	C	-0.380725	-1.142317	0.674862
C46	C	0.119275	-0.642317	1.174862
C47	C	-1.045524	-1.091796	0.431382
C48	C	-0.545524	-0.591796	0.931382
C49	C	-1.045509	-1.192963	0.330373
C50	C	-0.545509	-0.692963	0.830373
C51	C	-0.962963	-1.192936	0.330365
C52	C	-0.462963	-0.692936	0.830365
C53	C	-0.921694	-1.142337	0.380867
C54	C	-0.421694	-0.642337	0.880867
C55	C	-0.962970	-1.091765	0.431375
C56	C	-0.462970	-0.591765	0.931375
C57	C	-0.921680	-1.243501	0.279852
C58	C	-0.421680	-0.743501	0.779852
C59	C	-0.839130	-1.243475	0.279842
C60	C	-0.339130	-0.743475	0.779842
C61	C	-0.797859	-1.192879	0.330348
C62	C	-0.297859	-0.692879	0.830348
C63	C	-0.839140	-1.142306	0.380859
C64	C	-0.339140	-0.642306	0.880859
C65	C	-0.797871	-1.091707	0.431360
C66	C	-0.297871	-0.591707	0.931360
C67	C	-0.839151	-1.041137	0.481876
C68	C	-0.339151	-0.541137	0.981876
C69	C	-0.921699	-1.041170	0.481881
C70	C	-0.421699	-0.541170	0.981881
C71	C	-0.715310	-1.192847	0.330343
C72	C	-0.215310	-0.692847	0.830343
C73	C	-0.715317	-1.091676	0.431353
C74	C	-0.215317	-0.591676	0.931353
C75	C	-0.174650	-1.142358	0.380868
C76	C	0.325350	-0.642358	0.880868
C77	C	-0.086793	-1.142395	0.380881
C78	C	0.413207	-0.642395	0.880881
C79	C	-0.380845	-1.348438	0.380856
C80	C	0.119155	-0.848438	0.880856
C81	C	-0.380856	-1.436295	0.380864
C82	C	0.119144	-0.936295	0.880864
C83	C	-0.330238	-0.477560	0.330395
C84	C	0.169762	0.022440	0.830395
C85	C	-0.431463	-0.477582	0.431324
C86	C	0.068537	0.022418	0.931324
C87	C	-0.431452	-0.560128	0.431320
C88	C	0.068548	-0.060128	0.931320
C89	C	-0.380834	-0.601394	0.380851
C90	C	0.119166	-0.101394	0.880851
C91	C	-0.330226	-0.560114	0.330387
C92	C	0.169774	-0.060114	0.830387
C93	C	-0.482064	-0.601414	0.481777
C94	C	0.017936	-0.101414	0.981777
C95	C	-0.482055	-0.683965	0.481773
C96	C	0.017945	-0.183965	0.981773
C97	C	-0.431432	-0.725233	0.431308
C98	C	0.068568	-0.225233	0.931308
C99	C	-0.380822	-0.683948	0.380843
C100	C	0.119178	-0.183948	0.880843
C101	C	-0.330204	-0.725213	0.330374
C102	C	0.169796	-0.225213	0.830374
C103	C	-0.279589	-0.683930	0.279913
C104	C	0.220411	-0.183930	0.779913
C105	C	-0.279603	-0.601381	0.279922
C106	C	0.220397	-0.101381	0.779922
C107	C	-0.431418	-0.807781	0.431299
C108	C	0.068582	-0.307781	0.931299
C109	C	-0.330193	-0.807767	0.330366
C110	C	0.169807	-0.307767	0.830366
C111	C	-0.380826	-1.142283	0.175471
C112	C	0.119174	-0.642283	0.675471
C113	C	-0.380631	-1.142422	0.087615
C114	C	0.119369	-0.642422	0.587615
C115	C	-0.431185	-1.091839	1.046328
C116	C	0.068815	-0.591839	1.546328
C117	C	-0.330097	-1.192983	1.046348
C118	C	0.169903	-0.692983	1.546348
C119	C	-0.330114	-1.192962	0.963802
C120	C	0.169886	-0.692962	1.463802
C121	C	-0.380668	-1.142380	0.922515
C122	C	0.119332	-0.642380	1.422515
C123	C	-0.431205	-1.091818	0.963775
C124	C	0.068795	-0.591818	1.463775
C125	C	-0.279584	-1.243529	0.922536
C126	C	0.220416	-0.743529	1.422536
C127	C	-0.279599	-1.243510	0.839985
C128	C	0.220401	-0.743510	1.339985
C129	C	-0.330149	-1.192923	0.798697
C130	C	0.169851	-0.692923	1.298697
C131	C	-0.380688	-1.142359	0.839962
C132	C	0.119312	-0.642359	1.339962
C133	C	-0.431242	-1.091776	0.798675
C134	C	0.068758	-0.591776	1.298675
C135	C	-0.481777	-1.041207	0.839938
C136	C	0.018223	-0.541207	1.339938
C137	C	-0.481756	-1.041231	0.922487
C138	C	0.018244	-0.541231	1.422487
C139	C	-0.330171	-1.192899	0.716149
C140	C	0.169829	-0.692899	1.216149
C141	C	-0.431262	-1.091755	0.716122
C142	C	0.068738	-0.591755	1.216122
H143	H	-0.805540	-0.999936	0.522991
H144	H	-0.305540	-0.499936	1.022991
H145	H	-0.681704	-1.234016	0.289211
H146	H	-0.181704	-0.734016	0.789211
H147	H	-0.523280	-0.567810	0.522860
H148	H	-0.023280	-0.067810	1.022860
H149	H	-0.472630	-0.841390	0.472381
H150	H	0.027370	-0.341390	0.972381
N151	N	-0.485776	-1.037184	0.671593
N152	N	0.014224	-0.537184	1.171593
H153	H	-0.517780	-1.005153	0.710261
H154	H	-0.017780	-0.505153	1.210261
H155	H	-0.522374	-1.069325	0.637332
H156	H	-0.022374	-0.569325	1.137332
N157	N	-0.225086	-1.298044	0.795491
N158	N	0.274914	-0.798044	1.295491
H159	H	-0.188459	-1.265925	0.761254
H160	H	0.311541	-0.765925	1.261254
H161	H	-0.257271	-1.334644	0.761276
H162	H	0.242729	-0.834644	1.261276
N163	N	-0.536242	-0.986678	0.966990
N164	N	-0.036242	-0.486678	1.466990
H165	H	-0.528555	-0.994366	1.025549
H166	H	-0.028555	-0.494366	1.525549
H167	H	-0.592705	-0.998936	0.952556
H168	H	-0.092705	-0.498936	1.452556
N169	N	-0.670804	-1.037097	0.485817
N170	N	-0.170804	-0.537097	0.985817
H171	H	-0.636509	-1.069180	0.522471
H172	H	-0.136509	-0.569180	1.022471
H173	H	-0.709530	-1.005078	0.517763
H174	H	-0.209530	-0.505078	1.017763
N175	N	-0.275587	-0.852273	0.275941
N176	N	0.224413	-0.352273	0.775941
H177	H	-0.243526	-0.813593	0.243980
H178	H	0.256474	-0.313593	0.743980
H179	H	-0.307707	-0.886506	0.239298
H180	H	0.192293	-0.386506	0.739298
H181	H	-0.472327	-1.050665	1.079928
H182	H	0.027673	-0.550665	1.579928
N183	N	-0.275579	-1.247543	1.090873
N184	N	0.224421	-0.747543	1.590873
H185	H	-0.283236	-1.239885	1.149429
H186	H	0.216764	-0.739885	1.649429
H187	H	-0.219128	-1.235259	1.076460
H188	H	0.280872	-0.735259	1.576460
N189	N	-0.536644	-0.728483	0.536200
N190	N	-0.036644	-0.228483	1.036200
H191	H	-0.524438	-0.714134	0.592697
H192	H	-0.024438	-0.214134	1.092697
H193	H	-0.528934	-0.787025	0.528476
H194	H	-0.028934	-0.287025	1.028476
H195	H	-0.289028	-1.234074	0.682556
H196	H	0.210972	-0.734074	1.182556
N197	N	-1.090026	-1.247522	0.275901
N198	N	-0.590026	-0.747522	0.775901
H199	H	-1.124239	-1.284141	0.308056
H200	H	-0.624239	-0.784141	0.808056
H201	H	-1.051306	-1.279502	0.243909
H202	H	-0.551306	-0.779502	0.743909
N203	N	-0.225065	-1.298087	0.967063
N204	N	0.274935	-0.798087	1.467063
H205	H	-0.232719	-1.290423	1.025618
H206	H	0.267281	-0.790423	1.525618
H207	H	-0.168615	-1.285808	0.952646
H208	H	0.331385	-0.785808	1.452646
N209	N	-0.966203	-1.298066	0.225391
N210	N	-0.466203	-0.798066	0.725391
H211	H	-0.951796	-1.354530	0.237711
H212	H	-0.451796	-0.854530	0.737711
H213	H	-0.951869	-1.285752	0.168922
H214	H	-0.451869	-0.785752	0.668922
N215	N	-0.966221	-0.986628	0.536357
N216	N	-0.466221	-0.486628	1.036357
H217	H	-1.024777	-0.994323	0.528694
H218	H	-0.524777	-0.494323	1.028694
H219	H	-0.951834	-0.930180	0.523999
H220	H	-0.451834	-0.430180	1.023999
H221	H	-0.238379	-0.717539	0.238818
H222	H	0.261621	-0.217539	0.738818
H223	H	-1.079138	-1.050626	0.472513
H224	H	-0.579138	-0.550626	0.972513
H225	H	-0.805524	-1.284651	0.238711
H226	H	-0.305524	-0.784651	0.738711
H227	H	-0.238397	-0.567761	0.238838
H228	H	0.261603	-0.067761	0.738838
H229	H	-0.289026	-0.443944	0.289313
H230	H	0.210974	0.056056	0.789313
N231	N	-0.486064	-0.433079	0.485749
N232	N	0.013936	0.066921	0.985749
H233	H	-0.478394	-0.374520	0.478094
H234	H	0.021606	0.125480	0.978094
H235	H	-0.473830	-0.447525	0.542221
H236	H	0.026170	0.052475	1.042221
H237	H	-0.522942	-1.000026	0.806312
H238	H	-0.022942	-0.500026	1.306312
