data_functionalizedCrystal
_audit_creation_method	'MofGen! by Chris Wilmer'
_symmetry_space_group_name_H-M	'P1'
_symmetry_Int_Tables_number	1
_symmetry_cell_setting	triclinic
loop_
_symmetry_equiv_pos_as_xyz
  x,y,z
_cell_length_a	15.995350
_cell_length_b	10.654541
_cell_length_c	14.472311
_cell_angle_alpha	90.005469
_cell_angle_beta	90.006675
_cell_angle_gamma	96.011848
loop_
_atom_site_label
_atom_site_type_symbol
_atom_site_fract_x
_atom_site_fract_y
_atom_site_fract_z
O1	O	0.117581	-1.666314	-0.076808
O2	O	0.128788	-1.300688	-0.076815
O3	O	0.001355	-1.493496	-0.076810
O4	O	0.245014	-1.473506	-0.076812
O5	O	0.001374	-1.493467	0.076872
O6	O	0.128807	-1.300660	0.076867
O7	O	0.117600	-1.666285	0.076874
Cu8	Cu	0.123205	-1.483470	0.090903
Cu9	Cu	0.123183	-1.483504	-0.090844
O10	O	0.245033	-1.473478	0.076870
C11	C	0.127975	-1.253887	0.000025
C12	C	0.125514	-1.114475	0.000022
C13	C	-0.029835	-1.492655	0.000029
C14	C	-0.122800	-1.490177	0.000024
N15	N	0.123221	-1.483455	0.218734
C16	C	-0.460599	-1.481280	0.000027
C17	C	-0.413962	-1.343966	-0.000321
C18	C	-0.317257	-1.346444	0.000025
C19	C	-0.293013	-1.485693	0.000025
C20	C	-0.333686	-1.553405	0.087784
C21	C	-0.430342	-1.549955	0.087858
C22	C	-0.430706	-1.552825	-0.086907
C23	C	-0.333761	-1.552792	-0.088067
C24	C	-0.198301	-1.488195	0.000027
C25	C	-0.555311	-1.478783	0.000031
C26	C	0.276223	-1.474318	0.000028
C27	C	0.369188	-1.476796	0.000027
C28	C	0.118413	-1.713087	0.000032
C29	C	0.120874	-1.852498	0.000029
C30	C	0.277895	-1.084514	0.000009
C31	C	0.352926	-1.004039	-0.000001
C32	C	0.350609	-0.873052	-0.000002
C33	C	0.273253	-0.822537	0.000010
C34	C	0.198222	-0.903011	0.000020
C35	C	0.200547	-1.034000	0.000018
C36	C	0.045843	-0.932972	0.000040
C37	C	0.048158	-1.063961	0.000034
C38	C	-0.031513	-0.882458	0.000052
C39	C	-0.106546	-0.962933	0.000055
C40	C	-0.104226	-1.093928	0.000055
C41	C	-0.026873	-1.144435	0.000044
C42	C	0.123205	-1.483473	0.407234
C43	C	0.191368	-1.380288	0.446462
C44	C	0.191180	-1.379933	0.553550
C45	C	0.123192	-1.483491	0.592825
C46	C	0.035557	-1.455407	0.553935
C47	C	0.035964	-1.454656	0.446814
C48	C	0.141891	-1.615058	0.446696
C49	C	0.143863	-1.614186	0.553824
C50	C	0.123178	-1.483504	0.697713
C51	C	0.123213	-1.483458	0.302346
N52	N	0.123176	-1.483509	0.781325
H53	H	-0.289151	-1.293217	-0.062884
N54	N	0.436357	-1.058521	-0.000011
H55	H	0.426444	-1.153712	-0.000012
H56	H	0.469209	-1.029091	-0.056988
H57	H	-0.432819	-1.289095	-0.063255
N58	N	-0.312640	-1.687307	-0.095088
H59	H	-0.366196	-1.746632	-0.094306
H60	H	-0.281357	-1.698556	-0.154633
H61	H	-0.451514	-1.507943	-0.153424
N62	N	0.076067	-1.716764	0.413088
H63	H	0.076954	-1.719827	0.343346
H64	H	0.088430	-1.801028	0.438723
N65	N	0.280389	-1.225793	0.000009
H66	H	0.251019	-1.263232	-0.056957
H67	H	0.340794	-1.245483	0.000033
N68	N	0.014374	-1.327570	0.413727
H69	H	0.004683	-1.272562	0.468728
H70	H	0.062304	-1.286010	0.375434
H71	H	-0.433865	-1.289315	0.062260
H72	H	-0.016436	-1.528594	0.579372
H73	H	0.411706	-0.807528	-0.000004
H74	H	0.271373	-0.715878	0.000020
H75	H	0.256693	-1.396651	0.420713
N76	N	-0.280739	-1.275444	0.083496
H77	H	-0.327472	-1.242419	0.120213
H78	H	-0.250545	-1.334048	0.123413
N79	N	-0.454965	-1.484506	0.174744
H80	H	-0.494987	-1.544120	0.212073
H81	H	-0.403012	-1.458164	0.212568
N82	N	-0.034018	-0.741180	0.000069
H83	H	0.025251	-0.697862	0.000062
H84	H	-0.064543	-0.715618	-0.056895
H85	H	0.256286	-1.396582	0.579846
H86	H	-0.306807	-1.503287	-0.152990
H87	H	-0.461879	-1.654066	-0.087498
N88	N	-0.033359	-1.550406	0.412465
H89	H	-0.074121	-1.506559	0.373809
H90	H	-0.008326	-1.615876	0.373707
N91	N	-0.472291	-1.683485	0.093138
H92	H	-0.427972	-1.744325	0.095412
H93	H	-0.508111	-1.693524	0.150660
H94	H	0.179122	-1.282283	0.579192
N95	N	-0.185153	-1.180723	0.000077
H96	H	-0.234504	-1.128841	0.000086
H97	H	-0.187529	-1.235733	-0.056895
H98	H	-0.169523	-0.921792	0.000064
H99	H	-0.024976	-1.251090	0.000033
N100	N	0.082470	-1.720637	0.589212
H101	H	0.113870	-1.782436	0.624784
H102	H	0.040209	-1.685397	0.631178
N103	N	0.224814	-1.650973	0.410930
H104	H	0.215138	-1.732827	0.375432
H105	H	0.251066	-1.582229	0.368815
H106	H	0.179480	-1.283180	0.419559
H107	H	0.018881	-1.360572	0.580784
N108	N	0.229266	-1.642437	0.587482
H109	H	0.254467	-1.570886	0.627828
H110	H	0.223217	-1.723346	0.624364
H111	H	-0.318967	-1.655707	0.091047
H112	H	-0.305570	-1.506352	0.153093
