data_functionalizedCrystal
_audit_creation_method	'MofGen! by Chris Wilmer'
_symmetry_space_group_name_H-M	'P1'
_symmetry_Int_Tables_number	1
_symmetry_cell_setting	triclinic
loop_
_symmetry_equiv_pos_as_xyz
  x,y,z
_cell_length_a	14.971486
_cell_length_b	17.038272
_cell_length_c	14.048226
_cell_angle_alpha	89.993466
_cell_angle_beta	89.998499
_cell_angle_gamma	87.362843
loop_
_atom_site_label
_atom_site_type_symbol
_atom_site_fract_x
_atom_site_fract_y
_atom_site_fract_z
O1	O	1.194576	0.101897	-0.079052
O2	O	1.694576	0.601897	0.420948
O3	O	0.935090	0.114100	-0.079077
O4	O	1.435090	0.614100	0.420923
O5	O	1.063291	-0.005819	-0.079057
O6	O	1.563291	0.494181	0.420943
O7	O	1.066375	0.221816	-0.079072
O8	O	1.566375	0.721816	0.420928
O9	O	1.063274	-0.005826	0.079264
O10	O	1.563274	0.494174	0.579264
O11	O	0.935073	0.114093	0.079244
O12	O	1.435073	0.614093	0.579244
O13	O	1.194559	0.101890	0.079270
O14	O	1.694559	0.601890	0.579270
Zn15	Zn	1.064813	0.107990	0.104394
Zn16	Zn	1.564813	0.607990	0.604394
Zn17	Zn	1.064836	0.108000	-0.104201
Zn18	Zn	1.564836	0.608000	0.395799
O19	O	1.066358	0.221809	0.079249
O20	O	1.566358	0.721809	0.579249
C21	C	0.901716	0.113551	0.000080
C22	C	1.401716	0.613551	0.500080
C23	C	0.802296	0.111915	0.000070
C24	C	1.302296	0.611915	0.500070
C25	C	1.060477	-0.034954	0.000103
C26	C	1.560477	0.465046	0.500103
C27	C	1.052107	-0.121756	0.000102
C28	C	1.552107	0.378244	0.500102
C29	C	0.750345	0.182364	0.000067
C30	C	1.250345	0.682364	0.500067
C31	C	0.656930	0.180823	0.000081
C32	C	1.156930	0.680823	0.500081
C33	C	0.615468	0.108832	0.000092
C34	C	1.115468	0.608832	0.500092
C35	C	0.667426	0.038378	0.000098
C36	C	1.167426	0.538378	0.500098
C37	C	0.760839	0.039920	0.000091
C38	C	1.260839	0.539920	0.500091
C39	C	0.472723	0.035169	0.000111
C40	C	0.972723	0.535169	0.500111
C41	C	0.379303	0.033626	0.000117
C42	C	0.879303	0.533626	0.500117
C43	C	0.368815	0.176072	0.000102
C44	C	0.868815	0.676072	0.500102
C45	C	0.462228	0.177614	0.000095
C46	C	0.962228	0.677614	0.500095
C47	C	0.514179	0.107159	0.000099
C48	C	1.014179	0.607159	0.500099
C49	C	1.128951	-0.171781	0.000111
C50	C	1.628951	0.328219	0.500111
C51	C	1.121081	-0.253341	0.000101
C52	C	1.621081	0.246659	0.500101
C53	C	1.036367	-0.284874	0.000089
C54	C	1.536367	0.215126	0.500089
C55	C	0.959518	-0.234843	0.000078
C56	C	1.459518	0.265157	0.500078
C57	C	0.967388	-0.153285	0.000081
C58	C	1.467388	0.346715	0.500081
C59	C	1.008563	-0.530664	0.000073
C60	C	1.508563	-0.030664	0.500073
C61	C	1.000698	-0.612229	0.000073
C62	C	1.500698	-0.112229	0.500073
C63	C	1.162262	-0.630721	0.000095
C64	C	1.662262	-0.130721	0.500095
C65	C	1.170125	-0.549161	0.000103
C66	C	1.670125	-0.049161	0.500103
C67	C	1.093276	-0.499137	0.000087
C68	C	1.593276	0.000863	0.500087
C69	C	1.028321	-0.368241	0.000082
C70	C	1.528321	0.131759	0.500082
C71	C	1.101323	-0.415771	0.000087
C72	C	1.601323	0.084229	0.500087
C73	C	1.227933	0.102440	0.000110
C74	C	1.727933	0.602440	0.500110
C75	C	1.327353	0.104075	0.000114
C76	C	1.827353	0.604075	0.500114
C77	C	1.069172	0.250944	0.000087
C78	C	1.569172	0.750944	0.500087
C79	C	1.077542	0.337746	0.000082
C80	C	1.577542	0.837746	0.500082
N81	N	1.064804	0.107984	0.246754
N82	N	1.564804	0.607984	0.746754
N83	N	1.064851	0.108000	-0.246562
N84	N	1.564851	0.608000	0.253438
C85	C	1.121592	0.054906	0.296581
C86	C	1.621592	0.554906	0.796581
C87	C	1.121599	0.054905	0.396239
C88	C	1.621599	0.554905	0.896239
C89	C	1.064820	0.107987	0.446068
C90	C	1.564820	0.607987	0.946068
C91	C	1.008026	0.161067	0.396234
C92	C	1.508026	0.661067	0.896234
C93	C	1.008016	0.161064	0.296578
C94	C	1.508016	0.661064	0.796578
C95	C	1.008052	0.161073	0.603948
C96	C	1.508052	0.661073	1.103948
C97	C	1.008063	0.161078	0.703611
C98	C	1.508063	0.661078	1.203611
C99	C	1.121635	0.054915	0.703609
C100	C	1.621635	0.554915	1.203609
C101	C	1.121625	0.054911	0.603953
C102	C	1.621625	0.554911	1.103953
C103	C	1.064831	0.107993	0.554126
C104	C	1.564831	0.607993	1.054126
H105	H	0.784097	0.240987	0.000058
H106	H	1.284097	0.740987	0.500058
Cl107	Cl	0.936650	0.227804	0.541312
Cl108	Cl	1.436650	0.727804	1.041312
H109	H	0.890541	-0.260524	0.000062
H110	H	1.390541	0.239476	0.500062
Cl111	Cl	0.911950	-0.467788	0.000050
Cl112	Cl	1.411950	0.032212	0.500050
H113	H	0.961791	0.204285	0.436810
H114	H	1.461791	0.704285	0.936810
Cl115	Cl	0.826149	-0.048648	0.000099
Cl116	Cl	1.326149	0.451352	0.500099
Cl117	Cl	0.591624	0.269391	0.000071
Cl118	Cl	1.091624	0.769391	0.500071
Cl119	Cl	0.514351	0.268118	0.000071
Cl120	Cl	1.014351	0.768118	0.500071
H121	H	1.167839	0.011685	0.436808
H122	H	1.667839	0.511685	0.936808
Cl123	Cl	0.921826	-0.407890	0.000062
Cl124	Cl	1.421826	0.092110	0.500062
Cl125	Cl	1.192980	-0.011826	0.233950
Cl126	Cl	1.692980	0.488174	0.733950
Cl127	Cl	0.894192	-0.651869	0.000064
Cl128	Cl	1.394192	-0.151869	0.500064
H129	H	1.167877	0.011694	0.744184
H130	H	1.667877	0.511694	1.244184
Cl131	Cl	1.258867	-0.693612	0.000113
Cl132	Cl	1.758867	-0.193612	0.500113
H133	H	0.904813	-0.112555	0.000073
H134	H	1.404813	0.387445	0.500073
Cl135	Cl	0.615301	-0.052126	0.000117
Cl136	Cl	1.115301	0.447874	0.500117
Cl137	Cl	0.327180	-0.056878	0.000162
Cl138	Cl	0.827180	0.443122	0.500162
Cl139	Cl	0.936679	0.227811	0.766245
Cl140	Cl	1.436679	0.727811	1.266245
H141	H	1.167862	0.011692	0.563383
H142	H	1.667862	0.511692	1.063383
H143	H	0.326511	0.233438	0.000103
H144	H	0.826511	0.733438	0.500103
Cl145	Cl	1.235454	-0.132148	0.000135
Cl146	Cl	1.735454	0.367852	0.500135
H147	H	1.239108	-0.523493	0.000113
H148	H	1.739108	-0.023493	0.500113
Cl149	Cl	0.538032	-0.053404	0.000118
Cl150	Cl	1.038032	0.446596	0.500118
Cl151	Cl	1.217690	-0.316226	0.000115
Cl152	Cl	1.717690	0.183774	0.500115
Cl153	Cl	1.207817	-0.376128	0.000097
Cl154	Cl	1.707817	0.123872	0.500097
H155	H	0.961772	0.204284	0.256010
H156	H	1.461772	0.704284	0.756010
