data_functionalizedCrystal
_audit_creation_method	'MofGen! by Chris Wilmer'
_symmetry_space_group_name_H-M	'P1'
_symmetry_Int_Tables_number	1
_symmetry_cell_setting	triclinic
loop_
_symmetry_equiv_pos_as_xyz
  x,y,z
_cell_length_a	15.995343
_cell_length_b	10.489716
_cell_length_c	15.072220
_cell_angle_alpha	90.002992
_cell_angle_beta	89.991823
_cell_angle_gamma	84.009160
loop_
_atom_site_label
_atom_site_type_symbol
_atom_site_fract_x
_atom_site_fract_y
_atom_site_fract_z
O1	O	1.111981	0.164354	-0.073685
O2	O	0.868327	0.184667	-0.073706
O3	O	0.995709	-0.011167	-0.073698
O4	O	0.984599	0.360188	-0.073693
O5	O	0.995677	-0.011156	0.073867
O6	O	0.868295	0.184678	0.073859
O7	O	1.111950	0.164365	0.073880
Zn8	Zn	0.990117	0.174523	0.097299
Zn9	Zn	0.990159	0.174509	-0.097125
O10	O	0.984567	0.360199	0.073872
C11	C	0.837111	0.183834	0.000074
C12	C	0.744145	0.181322	0.000066
C13	C	0.573931	0.176762	0.000078
C14	C	0.549742	0.035399	0.000076
C15	C	0.453048	0.032740	0.000416
C16	C	0.406345	0.172270	0.000088
C17	C	0.435843	0.243356	0.084189
C18	C	0.532645	0.245032	0.084254
C19	C	0.532604	0.247090	-0.083561
C20	C	0.436078	0.241871	-0.084661
C21	C	0.311631	0.169739	0.000097
C22	C	0.668644	0.179297	0.000075
C23	C	0.994858	-0.058682	0.000082
C24	C	0.992361	-0.200278	0.000073
C25	C	1.070476	-0.299049	0.000088
C26	C	1.029214	-0.375835	-0.072671
C27	C	1.029164	-0.375788	0.072817
C28	C	0.951132	-0.275200	-0.072745
C29	C	0.951094	-0.275148	0.072808
C30	C	0.909774	-0.351885	0.000031
C31	C	1.143165	0.165198	0.000098
C32	C	1.236131	0.167710	0.000100
C33	C	0.985418	0.407714	0.000091
C34	C	0.987915	0.549310	0.000093
N35	N	0.990095	0.174532	0.229987
N36	N	0.990188	0.174490	-0.229814
C37	C	0.990157	0.174504	0.589189
C38	C	0.921764	0.278939	0.551578
C39	C	0.921925	0.279321	0.448752
C40	C	0.990126	0.174518	0.410985
C41	C	1.077664	0.203582	0.448284
C42	C	1.077282	0.204324	0.551142
C43	C	0.971789	0.040694	0.551285
C44	C	0.969789	0.041587	0.448422
C45	C	0.990113	0.174523	0.310272
C46	C	0.990176	0.174501	0.689902
H47	H	0.433709	-0.022905	-0.059859
H48	H	0.905391	0.019530	0.424044
C49	C	1.099859	0.333912	0.413486
H50	H	1.055898	0.370779	0.376238
H51	H	1.150747	0.321889	0.380614
H52	H	1.106607	0.389486	0.462146
C53	C	1.162261	-0.266989	0.000004
H54	H	1.172361	-0.219147	0.051725
H55	H	1.172015	-0.217854	-0.051198
H56	H	1.199031	-0.344198	-0.000552
C57	C	0.408299	0.177485	0.169063
H58	H	0.426440	0.221206	0.219601
H59	H	0.432678	0.090950	0.170023
H60	H	0.348779	0.179681	0.169930
C61	C	0.588414	-0.037408	0.081437
H62	H	0.573489	-0.122725	0.080928
H63	H	0.567737	0.004528	0.134097
H64	H	0.647876	-0.038959	0.079476
C65	C	0.833610	0.255938	0.585008
H66	H	0.793244	0.319969	0.561553
H67	H	0.832499	0.259802	0.647971
H68	H	0.820693	0.173846	0.566107
C69	C	1.073776	-0.435238	-0.155757
H70	H	1.130831	-0.417562	-0.155666
H71	H	1.046604	-0.399458	-0.207428
H72	H	1.071400	-0.525352	-0.155422
C73	C	0.587172	-0.038647	-0.081368
H74	H	0.617890	0.015981	-0.116101
H75	H	0.543066	-0.066958	-0.116011
H76	H	0.623676	-0.110642	-0.062231
H77	H	0.417225	0.190104	-0.146880
C78	C	0.906642	-0.216095	-0.155944
H79	H	0.908549	-0.125879	-0.155460
H80	H	0.849737	-0.234487	-0.156163
H81	H	0.934211	-0.251443	-0.207542
C82	C	0.817920	-0.383613	-0.000027
H83	H	0.790313	-0.348835	-0.051760
H84	H	0.789975	-0.347609	0.051164
H85	H	0.816807	-0.473982	0.000459
C86	C	0.906560	-0.215728	0.155898
H87	H	0.860412	-0.156680	0.138419
H88	H	0.945019	-0.172274	0.189570
H89	H	0.886763	-0.281585	0.190964
H90	H	1.016306	-0.039770	0.422716
C91	C	0.427669	-0.042051	0.082336
H92	H	0.476483	-0.070915	0.115541
H93	H	0.400406	-0.113709	0.063717
H94	H	0.390471	0.012346	0.118303
C95	C	0.393653	0.382080	0.088109
H96	H	0.412372	0.423295	0.139456
H97	H	0.334363	0.381359	0.090636
H98	H	0.408209	0.427179	0.036651
H99	H	0.933419	0.377678	0.577419
H100	H	1.062143	-0.419719	0.134327
H101	H	0.856881	0.262005	0.423536
H102	H	0.909299	0.012746	0.577270
H103	H	0.559127	0.196387	0.147358
C104	C	0.553174	0.385068	0.089103
H105	H	0.502369	0.440681	0.091031
H106	H	0.584661	0.404172	0.038245
H107	H	0.585144	0.396746	0.141041
H108	H	0.403730	0.343680	-0.089998
C109	C	1.039145	-0.064299	0.584147
H110	H	1.078275	-0.026841	0.620789
H111	H	1.067687	-0.104577	0.534683
H112	H	1.013023	-0.126239	0.617263
C113	C	0.937886	0.413458	0.415498
H114	H	0.944306	0.467926	0.464852
H115	H	0.891594	0.448114	0.380516
H116	H	0.987623	0.407089	0.380620
C117	C	1.098973	0.336156	0.583548
H118	H	1.107932	0.388757	0.533851
H119	H	1.148537	0.325406	0.618636
H120	H	1.053818	0.375652	0.618137
C121	C	1.148149	0.105476	0.584756
H122	H	1.177050	0.065053	0.535546
H123	H	1.124753	0.042799	0.619783
H124	H	1.186377	0.147609	0.619663
H125	H	1.129806	0.129540	0.423818
H126	H	0.560621	0.202485	-0.147326
H127	H	0.547239	0.351141	-0.084370
