data_functionalizedCrystal
_audit_creation_method	'MofGen! by Chris Wilmer'
_symmetry_space_group_name_H-M	'P1'
_symmetry_Int_Tables_number	1
_symmetry_cell_setting	triclinic
loop_
_symmetry_equiv_pos_as_xyz
  x,y,z
_cell_length_a	27.732048
_cell_length_b	17.000371
_cell_length_c	16.098667
_cell_angle_alpha	87.484940
_cell_angle_beta	92.705456
_cell_angle_gamma	79.120952
loop_
_atom_site_label
_atom_site_type_symbol
_atom_site_fract_x
_atom_site_fract_y
_atom_site_fract_z
O1	O	0.635021	0.098334	-0.069150
O2	O	0.493680	0.112743	-0.069175
O3	O	0.573127	-0.010436	-0.069155
O4	O	0.555574	0.221513	-0.069170
O5	O	0.577744	-0.017607	0.069356
O6	O	0.498297	0.105572	0.069336
O7	O	0.639638	0.091163	0.069362
Zn8	Zn	0.569701	0.097229	0.091341
Zn9	Zn	0.563618	0.106677	-0.091154
O10	O	0.560191	0.214342	0.069342
C11	C	0.477993	0.108855	0.000078
C12	C	0.424372	0.107945	0.000068
C13	C	0.083012	0.175000	0.000100
C14	C	-0.118519	0.171621	0.000107
O15	O	-0.152102	0.232938	0.000140
N16	N	-0.134869	0.098581	0.000111
C17	C	-0.100833	0.026381	0.000117
O18	O	-0.119364	-0.035822	0.000129
C19	C	0.100697	0.029761	0.000116
C20	C	0.117044	0.102806	0.000104
C21	C	0.099360	0.248039	0.000089
C22	C	0.149740	0.248883	0.000083
C23	C	0.183772	0.176689	0.000087
C24	C	0.167424	0.103650	0.000098
C25	C	0.134733	-0.042439	0.000128
C26	C	0.185118	-0.041588	0.000130
C27	C	0.201465	0.031457	0.000119
C28	C	0.251835	0.032300	0.000095
N29	N	0.268186	0.105339	0.000092
C30	C	0.234154	0.177534	0.000088
C31	C	-0.206640	0.024612	0.000117
C32	C	-0.257022	0.023767	0.000116
C33	C	-0.274705	0.169007	0.000107
C34	C	-0.224321	0.169851	0.000102
C35	C	-0.190290	0.097651	0.000114
C36	C	0.339956	0.179301	0.000074
C37	C	0.390340	0.180140	0.000064
C38	C	0.408018	0.034899	0.000077
C39	C	0.357638	0.034061	0.000082
C40	C	0.323607	0.106269	0.000083
O41	O	0.285446	-0.028985	0.000073
O42	O	0.252695	0.239727	0.000095
C43	C	0.032633	0.174156	0.000106
C44	C	0.016285	0.101117	0.000117
C45	C	0.050317	0.028922	0.000121
C46	C	-0.034098	0.100272	0.000116
C47	C	-0.068129	0.172467	0.000112
C48	C	-0.051779	0.245506	0.000108
C49	C	-0.001399	0.246351	0.000102
C50	C	0.033966	-0.044117	0.000124
C51	C	-0.016414	-0.044956	0.000130
C52	C	-0.050446	0.027239	0.000126
C53	C	0.576378	-0.043687	0.000101
C54	C	0.579182	-0.132080	0.000100
C55	C	0.655325	0.095051	0.000107
C56	C	0.708946	0.095961	0.000111
C57	C	0.536040	-0.163575	0.000089
C58	C	0.538678	-0.246630	0.000092
C59	C	0.584456	-0.298190	0.000100
C60	C	0.627601	-0.266690	0.000114
C61	C	0.624963	-0.183637	0.000117
C62	C	0.594644	-0.549461	0.000096
C63	C	0.597278	-0.632519	0.000090
C64	C	0.508354	-0.612453	0.000070
C65	C	0.505721	-0.529399	0.000068
C66	C	0.548865	-0.497907	0.000086
C67	C	0.587153	-0.383086	0.000100
C68	C	0.546169	-0.413012	0.000092
C69	C	0.556940	0.247593	0.000084
C70	C	0.554136	0.335986	0.000079
N71	N	0.573856	0.090780	0.215888
C72	C	0.540130	0.143044	0.259485
C73	C	0.543051	0.138529	0.346673
C74	C	0.579696	0.081747	0.390263
C75	C	0.613425	0.029481	0.346660
C76	C	0.610506	0.034000	0.259473
C77	C	0.590272	0.065378	0.653509
C78	C	0.593187	0.060862	0.740701
C79	C	0.522813	0.169911	0.740709
C80	C	0.519895	0.174422	0.653521
C81	C	0.553626	0.122159	0.609926
C82	C	0.582681	0.077129	0.479383
C83	C	0.550643	0.126781	0.520807
N84	N	0.559461	0.113125	0.784298
H85	H	-0.211016	0.229331	0.000098
H86	H	-0.302422	0.227790	0.000104
H87	H	0.508896	-0.371029	0.000091
H88	H	0.624426	-0.425075	0.000105
H89	H	0.617736	0.022822	0.618020
Br90	Br	0.454214	-0.063074	0.000084
Br91	Br	0.480126	-0.289369	0.000077
H92	H	-0.270327	-0.035713	0.000112
Br93	Br	0.443590	-0.459429	0.000043
Br94	Br	0.689730	-0.336664	0.000138
Br95	Br	0.490391	0.220104	0.200338
Br96	Br	0.497281	0.209461	0.405844
Br97	Br	0.683515	-0.140894	0.000146
Br98	Br	0.449804	-0.655197	0.000045
Br99	Br	0.293779	0.277298	0.000077
Br100	Br	0.470161	0.251481	0.594363
H101	H	0.634558	-0.674498	0.000091
Br102	Br	-0.160460	-0.073384	0.000132
Br103	Br	0.112560	-0.141577	0.000126
Br104	Br	0.477038	0.240837	0.799877
Br105	Br	0.642923	-0.016211	0.799853
H106	H	0.629775	-0.523830	0.000109
H107	H	0.643265	-0.016750	0.382155
H108	H	0.637970	-0.008557	0.223977
H109	H	0.011905	0.305831	0.000094
H110	H	-0.079497	0.304290	0.000102
Br111	Br	0.632414	0.000068	0.538543
Br112	Br	0.171917	0.348021	0.000071
Br113	Br	0.231302	-0.139580	0.000150
H114	H	0.403646	0.239624	0.000054
Br115	Br	-0.038592	-0.144097	0.000132
H116	H	0.071655	0.306832	0.000089
H117	H	0.061671	-0.102908	0.000130
H118	H	0.344327	-0.025417	0.000079
H119	H	0.498762	-0.121599	0.000078
H120	H	0.520808	0.173016	0.485314
