data_functionalizedCrystal
_audit_creation_method	'MofGen! by Chris Wilmer'
_symmetry_space_group_name_H-M	'P1'
_symmetry_Int_Tables_number	1
_symmetry_cell_setting	triclinic
loop_
_symmetry_equiv_pos_as_xyz
  x,y,z
_cell_length_a	14.971486
_cell_length_b	14.853567
_cell_length_c	14.048226
_cell_angle_alpha	89.997365
_cell_angle_beta	89.998499
_cell_angle_gamma	83.624529
loop_
_atom_site_label
_atom_site_type_symbol
_atom_site_fract_x
_atom_site_fract_y
_atom_site_fract_z
O1	O	1.186968	0.117488	-0.079043
O2	O	0.926571	0.131557	-0.079068
O3	O	1.063725	-0.006709	-0.079058
O4	O	1.049814	0.255753	-0.079053
O5	O	1.063709	-0.006717	0.079264
O6	O	0.926554	0.131549	0.079253
O7	O	1.186952	0.117479	0.079278
Zn8	Zn	1.056750	0.124513	0.104403
Zn9	Zn	1.056772	0.124524	-0.104192
O10	O	1.049797	0.255745	0.079268
C11	C	0.893238	0.130924	0.000089
C12	C	0.793940	0.129038	0.000080
C13	C	0.736730	0.210265	0.000082
C14	C	0.643430	0.208488	0.000096
C15	C	0.607342	0.125483	0.000101
C16	C	0.664560	0.044249	0.000101
C17	C	0.757858	0.046027	0.000094
C18	C	0.470097	0.040549	0.000114
C19	C	0.376793	0.038771	0.000120
C20	C	0.355669	0.203010	0.000117
C21	C	0.448967	0.204788	0.000110
C22	C	0.506178	0.123554	0.000108
C23	C	1.063087	-0.040301	0.000100
C24	C	1.061198	-0.140385	0.000092
C25	C	0.971740	-0.552902	0.000101
C26	C	1.134683	-0.574213	0.000117
C27	C	1.136459	-0.480180	0.000111
C28	C	1.055874	-0.422503	0.000102
C29	C	0.973514	-0.458860	0.000099
C30	C	1.218818	-0.443816	0.000125
C31	C	1.220597	-0.349777	0.000120
C32	C	1.140012	-0.292099	0.000104
C33	C	1.057648	-0.328461	0.000100
C34	C	0.977064	-0.270784	0.000091
C35	C	0.894699	-0.307144	0.000079
C36	C	0.892928	-0.401181	0.000083
C37	C	1.141782	-0.198061	0.000101
C38	C	0.978837	-0.176741	0.000088
C39	C	1.220285	0.118113	0.000119
C40	C	1.319582	0.119998	0.000123
C41	C	1.050436	0.289338	0.000108
C42	C	1.052325	0.389421	0.000110
N43	N	1.056742	0.124505	0.246764
N44	N	1.056788	0.124524	-0.246553
C45	C	1.117493	0.063306	0.296586
C46	C	1.117499	0.063306	0.396244
C47	C	1.056758	0.124509	0.446077
C48	C	0.996000	0.185711	0.396247
C49	C	0.995991	0.185706	0.296592
C50	C	0.996026	0.185717	0.603962
C51	C	0.996036	0.185723	0.703624
C52	C	1.117535	0.063317	0.703614
C53	C	1.117525	0.063312	0.603958
C54	C	1.056768	0.124515	0.554135
H55	H	0.635171	-0.023335	0.000119
C56	C	0.802336	-0.441175	0.000071
H57	H	0.754595	-0.393359	0.000055
H58	H	0.798250	-0.477417	0.055282
H59	H	0.798269	-0.477416	-0.055146
C60	C	0.881146	-0.592893	0.000093
H61	H	0.891626	-0.657159	0.000100
H62	H	0.847966	-0.573099	-0.055119
H63	H	0.847960	-0.573104	0.055309
C64	C	0.929166	0.252987	0.758440
H65	H	0.892956	0.289412	0.714496
H66	H	0.961332	0.290596	0.797337
H67	H	0.891925	0.220429	0.797294
H68	H	0.309082	0.269154	0.000122
H69	H	1.166967	0.013473	0.436809
H70	H	0.804439	-0.020116	0.000091
H71	H	0.946548	0.235552	0.563399
H72	H	1.287664	-0.320181	0.000128
C73	C	0.929157	0.253008	0.451057
H74	H	0.892961	0.289442	0.407108
H75	H	0.961352	0.290604	0.489939
H76	H	0.891899	0.220483	0.489926
C77	C	1.223318	-0.637654	0.000129
H78	H	1.210466	-0.698866	0.000126
H79	H	1.257081	-0.626620	0.055339
H80	H	1.257086	-0.626624	-0.055088
H81	H	0.347414	-0.028819	0.000125
C82	C	0.533028	-0.048806	0.000101
H83	H	0.498175	-0.098497	0.000092
H84	H	0.569872	-0.051538	0.055304
H85	H	0.569853	-0.051515	-0.055123
H86	H	1.284425	-0.490782	0.000141
C87	C	1.232371	-0.158068	0.000116
H88	H	1.280110	-0.205886	0.000120
H89	H	1.236440	-0.121824	0.055324
H90	H	1.236459	-0.121830	-0.055104
H91	H	0.946520	0.235539	0.256027
C92	C	0.890195	-0.113300	0.000074
H93	H	0.903044	-0.052087	0.000069
H94	H	0.856418	-0.124334	0.055277
H95	H	0.856442	-0.124332	-0.055150
H96	H	0.478346	0.272378	0.000097
C97	C	1.184338	-0.004010	0.549143
H98	H	1.220518	-0.040466	0.593086
H99	H	1.221602	0.028482	0.510255
H100	H	1.152106	-0.041596	0.510279
C101	C	1.184308	-0.004020	0.241778
H102	H	1.220484	-0.040473	0.285728
H103	H	1.221576	0.028468	0.202892
H104	H	1.152079	-0.041608	0.202914
C105	C	1.184367	-0.004007	0.758410
H106	H	1.220549	-0.040449	0.714458
H107	H	1.152159	-0.041594	0.797295
H108	H	1.221641	0.028498	0.797275
C109	C	0.776417	0.301573	0.000077
H110	H	0.728979	0.349693	0.000089
H111	H	0.812371	0.305685	-0.055136
H112	H	0.812375	0.305677	0.055292
C113	C	0.806062	-0.243694	0.000068
H114	H	0.818920	-0.182484	0.000065
H115	H	0.772283	-0.254725	0.055271
H116	H	0.772305	-0.254719	-0.055156
H117	H	0.596852	0.274632	0.000098
