data_functionalizedCrystal
_audit_creation_method	'MofGen! by Chris Wilmer'
_symmetry_space_group_name_H-M	'P1'
_symmetry_Int_Tables_number	1
_symmetry_cell_setting	triclinic
loop_
_symmetry_equiv_pos_as_xyz
  x,y,z
_cell_length_a	16.109318
_cell_length_b	16.109301
_cell_length_c	14.048226
_cell_angle_alpha	89.992144
_cell_angle_beta	89.997121
_cell_angle_gamma	83.465022
loop_
_atom_site_label
_atom_site_type_symbol
_atom_site_fract_x
_atom_site_fract_y
_atom_site_fract_z
O1	O	1.103125	0.106938	-0.079084
O2	O	0.861065	0.120222	-0.079104
O3	O	0.988745	-0.007451	-0.079084
O4	O	0.975445	0.234610	-0.079105
O5	O	0.988729	-0.007458	0.079237
O6	O	0.861050	0.120214	0.079217
O7	O	1.103110	0.106930	0.079237
Zn8	Zn	0.982077	0.113571	0.104364
Zn9	Zn	0.982097	0.113581	-0.104231
O10	O	0.975430	0.234603	0.079217
C11	C	0.830083	0.119677	0.000054
C12	C	0.737788	0.118057	0.000047
C13	C	0.438723	0.112826	-0.086237
C14	C	0.525444	0.114343	-0.086243
C15	C	0.525446	0.114324	0.086368
C16	C	0.438727	0.112800	0.086373
C17	C	0.395367	0.112056	0.000068
C18	C	0.568807	0.115096	0.000057
C19	C	0.662835	0.116742	0.000051
C20	C	0.301334	0.110409	0.000073
C21	C	0.988198	-0.038430	0.000077
C22	C	0.986583	-0.130725	0.000078
C23	C	1.058590	-0.352993	0.000069
C24	C	1.057066	-0.439713	0.000061
C25	C	0.905579	-0.419848	0.000053
C26	C	0.907104	-0.333130	0.000054
C27	C	0.983612	-0.299704	0.000067
C28	C	0.980563	-0.473144	0.000058
C29	C	0.978910	-0.567170	0.000049
C30	C	0.985265	-0.205672	0.000074
C31	C	1.134092	0.107474	0.000077
C32	C	1.226387	0.109095	0.000077
C33	C	0.975976	0.265581	0.000054
C34	C	0.977592	0.357877	0.000046
N35	N	0.982070	0.113564	0.246725
N36	N	0.982112	0.113582	-0.246592
C37	C	1.038624	0.057054	0.296552
C38	C	1.038629	0.057053	0.396209
C39	C	0.982084	0.113567	0.446038
C40	C	0.925524	0.170080	0.396204
C41	C	0.925515	0.170076	0.296548
C42	C	0.925548	0.170086	0.603918
C43	C	0.925558	0.170092	0.703581
C44	C	1.038662	0.057063	0.703579
C45	C	1.038653	0.057059	0.603923
C46	C	0.982094	0.113573	0.554096
H47	H	1.120888	-0.325781	0.000078
H48	H	1.118121	-0.483098	0.000061
H49	H	0.843288	-0.447074	0.000044
N50	N	0.864533	0.231029	0.449951
H51	H	0.896294	0.267857	0.491282
H52	H	0.828716	0.266771	0.403204
H53	H	0.846043	-0.289740	0.000049
H54	H	0.403422	0.112218	-0.156512
H55	H	0.560740	0.114969	-0.156521
H56	H	1.084673	0.011037	0.255987
H57	H	0.560760	0.114932	0.156634
N58	N	0.391959	0.111963	0.179463
H59	H	0.432657	0.112100	0.234134
H60	H	0.349612	0.163129	0.183507
H61	H	1.084680	0.011038	0.436778
H62	H	1.084701	0.011045	0.563353
H63	H	1.084715	0.011048	0.744154
N64	N	0.864579	0.231052	0.757329
H65	H	0.828746	0.266851	0.710644
H66	H	0.827844	0.199212	0.798699
N67	N	0.864550	0.231042	0.550171
H68	H	0.827746	0.199255	0.508838
H69	H	0.828788	0.266833	0.596915
H70	H	0.879462	0.216091	0.255980
