data_functionalizedCrystal
_audit_creation_method	'MofGen! by Chris Wilmer'
_symmetry_space_group_name_H-M	'P1'
_symmetry_Int_Tables_number	1
_symmetry_cell_setting	triclinic
loop_
_symmetry_equiv_pos_as_xyz
  x,y,z
_cell_length_a	34.408637
_cell_length_b	34.407814
_cell_length_c	34.404193
_cell_angle_alpha	60.004510
_cell_angle_beta	60.009006
_cell_angle_gamma	59.994604
loop_
_atom_site_label
_atom_site_type_symbol
_atom_site_fract_x
_atom_site_fract_y
_atom_site_fract_z
O1	O	0.053973	-0.567860	0.474801
O2	O	0.553973	-0.067860	0.974801
O3	O	0.020377	-0.442124	0.382567
O4	O	0.520377	0.057876	0.882567
O5	O	0.100004	-0.521670	0.382483
O6	O	0.600004	-0.021670	0.882483
O7	O	-0.025653	-0.488314	0.474886
O8	O	0.474347	0.011686	0.974886
O9	O	0.126426	-0.495253	0.408816
O10	O	0.626426	0.004747	0.908816
O11	O	0.046800	-0.415707	0.408900
O12	O	0.546800	0.084293	0.908900
O13	O	0.080396	-0.541443	0.501134
O14	O	0.580396	-0.041443	1.001134
Zn15	Zn	0.067793	-0.474381	0.459198
Zn16	Zn	0.567793	0.025619	0.959198
Zn17	Zn	0.032980	-0.509186	0.424503
Zn18	Zn	0.532980	-0.009186	0.924503
O19	O	0.000769	-0.461897	0.501219
O20	O	0.500769	0.038103	1.001219
N21	N	0.091552	-0.450631	0.482879
N22	N	0.591552	0.049369	0.982879
N23	N	0.009225	-0.532940	0.400823
N24	N	0.509225	-0.032940	0.900823
C25	C	0.142848	-0.268847	0.534081
C26	C	0.642848	0.231153	1.034081
C27	C	0.142979	-0.399386	0.664559
C28	C	0.642979	0.100614	1.164559
C29	C	0.142862	-0.399365	0.534081
C30	C	0.642862	0.100635	1.034081
C31	C	0.273409	-0.399338	0.533986
C32	C	0.773409	0.100662	1.033986
C33	C	0.157225	-0.311914	0.548422
C34	C	0.657225	0.188086	1.048422
C35	C	0.157300	-0.385019	0.621491
C36	C	0.657300	0.114981	1.121491
C37	C	0.230339	-0.384991	0.548370
C38	C	0.730339	0.115009	1.048370
C39	C	0.157235	-0.385007	0.548422
C40	C	0.657235	0.114993	1.048422
C41	C	0.124548	-0.214028	0.515827
C42	C	0.624548	0.285972	1.015827
C43	C	0.124571	-0.417639	0.515827
C44	C	0.624571	0.082361	1.015827
C45	C	0.175526	-0.366733	0.566676
C46	C	0.675526	0.133267	1.066676
C47	C	0.353121	-0.385580	0.491988
C48	C	0.853121	0.114420	0.991988
C49	C	0.402952	-0.402180	0.475348
C50	C	0.902952	0.097820	0.975348
C51	C	0.402981	-0.482812	0.506096
C52	C	0.902981	0.017188	1.006096
C53	C	0.353151	-0.466211	0.522737
C54	C	0.853151	0.033789	1.022737
C55	C	0.136544	-0.189099	0.466839
C56	C	0.636544	0.310901	0.966839
C57	C	0.119905	-0.139265	0.450247
C58	C	0.619905	0.360735	0.950247
C59	C	0.079280	-0.139291	0.531632
C60	C	0.579280	0.360709	1.031632
C61	C	0.095918	-0.189125	0.548224
C62	C	0.595918	0.310875	1.048224
C63	C	0.075577	-0.405615	0.527900
C64	C	0.575577	0.094385	1.027900
C65	C	0.058953	-0.422228	0.511301
C66	C	0.558953	0.077772	1.011301
C67	C	0.140315	-0.462889	0.470566
C68	C	0.640315	0.037111	0.970566
C69	C	0.156941	-0.446276	0.487159
C70	C	0.656941	0.053724	0.987159
C71	C	0.075772	-0.405653	0.744326
C72	C	0.575772	0.094347	1.244326
C73	C	0.059206	-0.422280	0.794159
C74	C	0.559206	0.077720	1.294159
C75	C	0.140607	-0.462951	0.794094
C76	C	0.640607	0.037049	1.294094
C77	C	0.157172	-0.446325	0.744260
C78	C	0.657172	0.053675	1.244260
C79	C	0.124753	-0.417674	0.719377
C80	C	0.624753	0.082326	1.219377
C81	C	0.328223	-0.417595	0.515681
C82	C	0.828223	0.082405	1.015681
C83	C	-0.172390	-0.583988	0.349141
C84	C	0.327610	-0.083988	0.849141
C85	C	-0.041751	-0.584138	0.218783
C86	C	0.458249	-0.084138	0.718783
C87	C	-0.041941	-0.584130	0.349402
C88	C	0.458059	-0.084130	0.849402
C89	C	-0.041957	-0.714607	0.349338
C90	C	0.458043	-0.214607	0.849338
C91	C	-0.129326	-0.598388	0.334853
C92	C	0.370674	-0.098388	0.834853
C93	C	-0.056165	-0.598473	0.261852
C94	C	0.443835	-0.098473	0.761852
C95	C	-0.056282	-0.671535	0.334962
C96	C	0.443718	-0.171535	0.834962
C97	C	-0.056272	-0.598469	0.334999
C98	C	0.443728	-0.098469	0.834999
C99	C	-0.227205	-0.565659	0.367327
C100	C	0.272795	-0.065659	0.867327
C101	C	-0.023703	-0.565882	0.367734
C102	C	0.476297	-0.065882	0.867734
C103	C	-0.074511	-0.616717	0.316667
C104	C	0.425489	-0.116717	0.816667
C105	C	-0.055754	-0.794298	0.391257
C106	C	0.444246	-0.294298	0.891257
C107	C	-0.039181	-0.844132	0.407888
C108	C	0.460819	-0.344132	0.907888
C109	C	0.041447	-0.844215	0.377269
C110	C	0.541447	-0.344215	0.877269
C111	C	0.024873	-0.794381	0.360637
C112	C	0.524873	-0.294381	0.860637
C113	C	-0.252183	-0.577666	0.416302
C114	C	0.247817	-0.077666	0.916302
C115	C	-0.302014	-0.561001	0.432833
C116	C	0.197986	-0.061001	0.932833
C117	C	-0.301886	-0.520329	0.351410
C118	C	0.198114	-0.020329	0.851410
C119	C	-0.252055	-0.536994	0.334880
C120	C	0.247945	-0.036994	0.834880
C121	C	-0.035709	-0.516892	0.355682
C122	C	0.464291	-0.016892	0.855682
C123	C	-0.019129	-0.500308	0.372353
C124	C	0.480871	-0.000308	0.872353
C125	C	0.021465	-0.581700	0.413115
C126	C	0.521465	-0.081700	0.913115
C127	C	0.004884	-0.598286	0.396450
C128	C	0.504884	-0.098286	0.896450
C129	C	-0.035389	-0.516907	0.139026
C130	C	0.464611	-0.016907	0.639026
C131	C	-0.018707	-0.500324	0.089193
C132	C	0.481293	-0.000324	0.589193
C133	C	0.021949	-0.581721	0.089240
C134	C	0.521949	-0.081721	0.589240
C135	C	0.005268	-0.598303	0.139074
C136	C	0.505268	-0.098303	0.639074
C137	C	-0.023402	-0.565894	0.163965
C138	C	0.476598	-0.065894	0.663965
C139	C	-0.023728	-0.769425	0.367633
C140	C	0.476272	-0.269425	0.867633
N141	N	0.427173	-0.450553	0.482630
N142	N	0.927173	0.049447	0.982630
O143	O	0.589997	-0.458460	0.365361
O144	O	1.089997	0.041540	0.865361
O145	O	0.590185	-0.550997	0.490963
O146	O	1.090185	-0.050997	0.990963
O147	O	0.590104	-0.550786	0.411309
O148	O	1.090104	-0.050786	0.911309
O149	O	0.590077	-0.458671	0.445016
O150	O	1.090077	0.041329	0.945016
O151	O	0.510940	-0.524462	0.437777
O152	O	1.010940	-0.024462	0.937777
O153	O	0.511020	-0.524674	0.517432
O154	O	1.011020	-0.024674	1.017432
O155	O	0.510832	-0.432136	0.391830
O156	O	1.010832	0.067864	0.891830
Zn157	Zn	0.498357	-0.474225	0.458833
Zn158	Zn	0.998357	0.025775	0.958833
Zn159	Zn	0.602660	-0.508908	0.423960
Zn160	Zn	1.102660	-0.008908	0.923960
O161	O	0.510913	-0.432348	0.471484
O162	O	1.010913	0.067652	0.971484
N163	N	0.673844	-0.532580	0.400158
N164	N	1.173844	-0.032580	0.900158
N165	N	0.091520	-0.115070	0.482873
N166	N	0.591520	0.384930	0.982873
O167	O	-0.025663	0.047841	0.474857
O168	O	0.474337	0.547841	0.974857
O169	O	0.099940	0.047877	0.382299
O170	O	0.599940	0.547877	0.882299
O171	O	0.020247	0.047844	0.382560
O172	O	0.520247	0.547844	0.882560
O173	O	0.054030	0.047874	0.474596
O174	O	0.554030	0.547874	0.974596
O175	O	0.046674	-0.031326	0.408942
O176	O	0.546674	0.468674	0.908942
O177	O	0.126367	-0.031293	0.408680
O178	O	0.626367	0.468707	0.908680
O179	O	0.000764	-0.031329	0.501238
O180	O	0.500764	0.468671	1.001238
Zn181	Zn	0.067761	-0.043881	0.459148
Zn182	Zn	0.567761	0.456119	0.959148
Zn183	Zn	0.032943	0.060429	0.424389
Zn184	Zn	0.532943	0.560429	0.924389
O185	O	0.080457	-0.031296	0.500977
O186	O	0.580457	0.468704	1.000977
N187	N	0.009178	0.131618	0.400665
N188	N	0.509178	0.631618	0.900665
N189	N	0.091852	-0.450680	0.818332
N190	N	0.591852	0.049320	1.318332
O191	O	0.083862	-0.567845	0.981235
O192	O	0.583862	-0.067845	1.481235
O193	O	-0.008657	-0.442198	0.981276
O194	O	0.491343	0.057802	1.481276
O195	O	-0.008441	-0.521875	0.981252
O196	O	0.491559	-0.021875	1.481252
O197	O	0.083646	-0.488168	0.981258
O198	O	0.583646	0.011832	1.481258
O199	O	0.017919	-0.495468	0.902085
O200	O	0.517919	0.004532	1.402085
O201	O	0.017703	-0.415791	0.902109
O202	O	0.517703	0.084209	1.402109
O203	O	0.110222	-0.541438	0.902067
O204	O	0.610222	-0.041438	1.402067
Zn205	Zn	0.068148	-0.474422	0.889518
Zn206	Zn	0.568148	0.025578	1.389518
Zn207	Zn	0.033417	-0.509214	0.993825
Zn208	Zn	0.533417	-0.009214	1.493825
O209	O	0.110006	-0.461761	0.902091
O210	O	0.610006	0.038239	1.402091
N211	N	0.009712	-0.532961	1.065011
N212	N	0.509712	-0.032961	1.565011
C213	C	0.030439	-0.413071	0.383027
C214	C	0.530439	0.086929	0.883027
C215	C	0.129046	-0.511580	0.382922
C216	C	0.629046	-0.011580	0.882922
C217	C	0.070334	-0.570496	0.500675
C218	C	0.570334	-0.070496	1.000675
C219	C	-0.028274	-0.471987	0.500780
C220	C	0.471726	0.028013	1.000780
C221	C	0.550625	-0.550579	0.520021
C222	C	1.050625	-0.050579	1.020021
C223	C	0.550527	-0.550317	0.421379
C224	C	1.050527	-0.050317	0.921379
C225	C	0.550389	-0.432554	0.362773
C226	C	1.050389	0.067446	0.862773
C227	C	0.550491	-0.432816	0.461414
C228	C	1.050491	0.067184	0.961414
C229	C	0.128944	0.008394	0.382712
C230	C	0.628944	0.508394	0.882712
C231	C	0.030287	0.008256	0.383068
C232	C	0.530287	0.508256	0.883068
C233	C	-0.028273	0.008252	0.500793
C234	C	0.471727	0.508252	1.000793
C235	C	0.070417	0.008292	0.500470
C236	C	0.570417	0.508292	1.000470
C237	C	-0.008218	-0.413165	0.941698
C238	C	0.491782	0.086835	1.441698
C239	C	-0.007945	-0.511830	0.941653
C240	C	0.492055	-0.011830	1.441653
C241	C	0.109783	-0.570471	0.941646
C242	C	0.609783	-0.070471	1.441646
C243	C	0.109516	-0.471800	0.941673
C244	C	0.609516	0.028200	1.441673
H245	H	0.049370	-0.382321	0.724071
H246	H	0.549370	0.117679	1.224071
H247	H	0.086148	-0.209418	0.588113
H248	H	0.586148	0.290582	1.088113
H249	H	0.023260	-0.376951	0.354059
H250	H	0.523260	0.123049	0.854059
C251	C	0.177800	-0.521178	0.343720
C252	C	0.677800	-0.021178	0.843720
C253	C	0.216996	-0.569949	0.353301
C254	C	0.716996	-0.069949	0.853301
C255	C	0.265750	-0.579547	0.314100
C256	C	0.765750	-0.079547	0.814100
C257	C	0.275308	-0.540374	0.265316
C258	C	0.775308	-0.040374	0.765316
C259	C	0.236111	-0.491600	0.255733
C260	C	0.736111	0.008400	0.755733
C261	C	0.187357	-0.482002	0.294934
C262	C	0.687357	0.017998	0.794934
H263	H	0.209921	-0.598950	0.389416
H264	H	0.709921	-0.098950	0.889416
H265	H	0.294766	-0.615653	0.321194
H266	H	0.794766	-0.115653	0.821194
H267	H	0.311399	-0.547479	0.236297
H268	H	0.811399	-0.047479	0.736297
H269	H	0.243186	-0.462599	0.219618
H270	H	0.743186	0.037401	0.719618
H271	H	0.158341	-0.445896	0.287840
H272	H	0.658341	0.054104	0.787840
H273	H	0.138447	-0.464586	0.941669
H274	H	0.638447	0.035414	1.441669
H275	H	0.023050	0.008252	0.354152
H276	H	0.523050	0.508252	0.854152
C277	C	0.047790	-0.111896	0.567269
C278	C	0.547790	0.388104	1.067269
C279	C	0.066898	-0.118748	0.603092
C280	C	0.566898	0.381252	1.103092
C281	C	0.035407	-0.091355	0.638731
C282	C	0.535407	0.408645	1.138731
C283	C	-0.015191	-0.057111	0.638545
C284	C	0.484809	0.442889	1.138545
C285	C	-0.034301	-0.050257	0.602720
C286	C	0.465699	0.449743	1.102720
C287	C	-0.002811	-0.077650	0.567082
C288	C	0.497189	0.422350	1.067082
H289	H	0.104356	-0.144099	0.603231
H290	H	0.604356	0.355901	1.103231
H291	H	0.049554	-0.096429	0.665250
H292	H	0.549554	0.403571	1.165250
H293	H	-0.038502	-0.036833	0.664927
H294	H	0.461498	0.463167	1.164927
H295	H	-0.071760	-0.024906	0.602582
H296	H	0.428240	0.475094	1.102582
H297	H	-0.016958	-0.072577	0.540562
H298	H	0.483042	0.427423	1.040562
C299	C	0.550477	-0.393722	0.471153
C300	C	1.050477	0.106278	0.971153
C301	C	0.509394	-0.375151	0.511735
C302	C	1.009394	0.124849	1.011735
C303	C	0.509381	-0.336056	0.521474
C304	C	1.009381	0.163944	1.021474
C305	C	0.550450	-0.315533	0.490632
C306	C	1.050450	0.184467	0.990632
C307	C	0.591536	-0.334103	0.450047
C308	C	1.091536	0.165897	0.950047
C309	C	0.591550	-0.373198	0.440308
C310	C	1.091550	0.126802	0.940308
H311	H	0.478990	-0.390344	0.534569
H312	H	0.978990	0.109656	1.034569
H313	H	0.478966	-0.322309	0.551518
H314	H	0.978966	0.177691	1.051518
H315	H	0.550440	-0.286592	0.497841
H316	H	1.050440	0.213408	0.997841
H317	H	0.621941	-0.318910	0.427213
H318	H	1.121941	0.181090	0.927213
H319	H	0.621965	-0.386945	0.410265
H320	H	1.121965	0.113055	0.910265
C321	C	0.177571	0.008708	0.343356
C322	C	0.677571	0.508708	0.843356
C323	C	0.216766	0.008876	0.352788
C324	C	0.716766	0.508876	0.852788
C325	C	0.265393	0.009190	0.313432
C326	C	0.765393	0.509190	0.813432
C327	C	0.274826	0.009335	0.264644
C328	C	0.774826	0.509335	0.764644
C329	C	0.235630	0.009167	0.255209
C330	C	0.735630	0.509167	0.755209
C331	C	0.187002	0.008853	0.294565
C332	C	0.687002	0.508853	0.794565
H333	H	0.209785	0.008768	0.388906
H334	H	0.709785	0.508768	0.888906
H335	H	0.294409	0.009314	0.320416
H336	H	0.794409	0.509314	0.820416
H337	H	0.310823	0.009568	0.235510
H338	H	0.810823	0.509568	0.735510
H339	H	0.242611	0.009275	0.219091
H340	H	0.742611	0.509275	0.719091
H341	H	0.157987	0.008729	0.287581
H342	H	0.657987	0.508729	0.787581
H343	H	0.077514	-0.606615	0.529644
H344	H	0.577514	-0.106615	1.029644
C345	C	-0.077002	0.008240	0.540049
C346	C	0.422998	0.508240	1.040049
C347	C	-0.095085	-0.032882	0.558822
C348	C	0.404915	0.467118	1.058822
C349	C	-0.143814	-0.032894	0.598078
C350	C	0.356186	0.467106	1.098078
C351	C	-0.174459	0.008216	0.618561
C352	C	0.325541	0.508216	1.118561
C353	C	-0.156377	0.049342	0.599788
C354	C	0.343623	0.549342	1.099788
C355	C	-0.107648	0.049354	0.560532
C356	C	0.392352	0.549354	1.060532
H357	H	-0.072398	-0.063318	0.543659
H358	H	0.427602	0.436682	1.043659
H359	H	-0.157199	-0.063338	0.611975
H360	H	0.342801	0.436662	1.111975
H361	H	-0.210531	0.008208	0.647621
H362	H	0.289469	0.508208	1.147621
H363	H	-0.179063	0.079777	0.614951
H364	H	0.320937	0.579777	1.114951
H365	H	-0.094262	0.079798	0.546636
H366	H	0.405738	0.579798	1.046636
C367	C	0.550312	-0.393302	0.314043
C368	C	1.050312	0.106698	0.814043
C369	C	0.550269	-0.344539	0.304535
C370	C	1.050269	0.155461	0.804535
C371	C	0.550191	-0.305287	0.255805
C372	C	1.050191	0.194713	0.755805
C373	C	0.550157	-0.314799	0.216585
C374	C	1.050157	0.185201	0.716585
C375	C	0.550200	-0.363565	0.226093
C376	C	1.050200	0.136435	0.726093
C377	C	0.550277	-0.402817	0.274822
C378	C	1.050277	0.097183	0.774822
H379	H	0.550294	-0.337495	0.333569
H380	H	1.050294	0.162505	0.833569
H381	H	0.550159	-0.269187	0.248767
H382	H	1.050159	0.230813	0.748767
H383	H	0.550099	-0.285743	0.180513
H384	H	1.050099	0.214257	0.680513
H385	H	0.550174	-0.370609	0.197059
H386	H	1.050174	0.129391	0.697059
H387	H	0.550309	-0.438917	0.281860
H388	H	1.050309	0.061083	0.781860
H389	H	-0.037264	-0.377079	0.941710
H390	H	0.462736	0.122921	1.441710
C391	C	-0.077029	-0.462390	0.539980
C392	C	0.422971	0.037610	1.039980
C393	C	-0.116225	-0.413620	0.530398
C394	C	0.383775	0.086380	1.030398
C395	C	-0.164980	-0.404023	0.569599
C396	C	0.335020	0.095977	1.069599
C397	C	-0.174539	-0.443196	0.618382
C398	C	0.325461	0.056804	1.118382
C399	C	-0.135341	-0.491970	0.627966
C400	C	0.364659	0.008030	1.127966
C401	C	-0.086586	-0.501567	0.588765
C402	C	0.413414	-0.001567	1.088765
H403	H	-0.109150	-0.384619	0.494284
H404	H	0.390850	0.115381	0.994284
H405	H	-0.193997	-0.367917	0.562504
H406	H	0.306003	0.132083	1.062504
H407	H	-0.210630	-0.436092	0.647400
H408	H	0.289370	0.063908	1.147400
H409	H	-0.142416	-0.520971	0.664080
H410	H	0.357584	-0.020971	1.164080
H411	H	-0.057570	-0.537673	0.595860
H412	H	0.442430	-0.037673	1.095860
C413	C	0.080188	0.008299	0.539536
C414	C	0.580188	0.508299	1.039536
C415	C	0.129011	0.008316	0.529765
C416	C	0.629011	0.508316	1.029765
C417	C	0.138781	0.008324	0.568831
C418	C	0.638781	0.508324	1.068831
C419	C	0.099729	0.008315	0.617667
C420	C	0.599729	0.508315	1.117667
C421	C	0.050903	0.008298	0.627439
C422	C	0.550903	0.508298	1.127439
C423	C	0.041132	0.008290	0.588374
C424	C	0.541132	0.508290	1.088374
H425	H	0.157923	0.008323	0.493612
H426	H	0.657923	0.508323	0.993612
H427	H	0.174926	0.008337	0.561596
H428	H	0.674926	0.508337	1.061596
H429	H	0.106962	0.008321	0.646586
H430	H	0.606962	0.508321	1.146586
H431	H	0.021991	0.008291	0.663593
H432	H	0.521991	0.508291	1.163593
H433	H	0.004988	0.008278	0.595608
H434	H	0.504988	0.508278	1.095608
H435	H	-0.036863	-0.519031	0.941619
H436	H	0.463137	-0.019031	1.441619
C437	C	0.149026	-0.619218	0.941629
C438	C	0.649026	-0.119218	1.441629
C439	C	0.139518	-0.658449	0.941618
C440	C	0.639518	-0.158449	1.441618
C441	C	0.178761	-0.707197	0.941601
C442	C	0.678761	-0.207197	1.441601
C443	C	0.227511	-0.716714	0.941596
C444	C	0.727511	-0.216714	1.441596
C445	C	0.237021	-0.677483	0.941608
C446	C	0.737021	-0.177483	1.441608
C447	C	0.197779	-0.628735	0.941624
C448	C	0.697779	-0.128735	1.441624
H449	H	0.103428	-0.651404	0.941622
H450	H	0.603428	-0.151404	1.441622
H451	H	0.171721	-0.736238	0.941593
H452	H	0.671721	-0.236238	1.441593
H453	H	0.256561	-0.752800	0.941584
H454	H	0.756561	-0.252800	1.441584
H455	H	0.273111	-0.684527	0.941604
H456	H	0.773111	-0.184527	1.441604
H457	H	0.204819	-0.599693	0.941632
H458	H	0.704819	-0.099693	1.441632
H459	H	0.019320	-0.412483	0.814467
H460	H	0.519320	0.087517	1.314467
C461	C	0.550695	-0.589828	0.568753
C462	C	1.050695	-0.089828	1.068753
C463	C	0.550726	-0.580314	0.607974
C464	C	1.050726	-0.080314	1.107974
C465	C	0.550796	-0.619563	0.656706
C466	C	1.050796	-0.119563	1.156706
C467	C	0.550835	-0.668326	0.666216
C468	C	1.050835	-0.168326	1.166216
C469	C	0.550804	-0.677841	0.626994
C470	C	1.050804	-0.177841	1.126994
C471	C	0.550735	-0.638592	0.578262
C472	C	1.050735	-0.138592	1.078262
H473	H	0.550697	-0.544215	0.600935
H474	H	1.050697	-0.044215	1.100935
H475	H	0.550818	-0.612519	0.685741
H476	H	1.050818	-0.112519	1.185741
H477	H	0.550887	-0.697380	0.702290
H478	H	1.050887	-0.197380	1.202290
H479	H	0.550834	-0.713940	0.634033
H480	H	1.050834	-0.213940	1.134033
H481	H	0.550712	-0.645637	0.549227
H482	H	1.050712	-0.145637	1.049227
C483	C	0.550542	-0.589412	0.411639
C484	C	1.050542	-0.089412	0.911639
C485	C	0.550486	-0.579666	0.362834
C486	C	1.050486	-0.079666	0.862834
C487	C	0.550500	-0.618761	0.353095
C488	C	1.050500	-0.118761	0.853095
C489	C	0.550572	-0.667602	0.392160
C490	C	1.050572	-0.167602	0.892160
C491	C	0.550628	-0.677351	0.440968
C492	C	1.050628	-0.177351	0.940968
C493	C	0.550613	-0.638256	0.450707
C494	C	1.050613	-0.138256	0.950707
H495	H	0.550433	-0.543508	0.333913
H496	H	1.050433	-0.043508	0.833913
H497	H	0.550459	-0.611544	0.316963
H498	H	1.050459	-0.111544	0.816963
H499	H	0.550583	-0.696543	0.384950
H500	H	1.050583	-0.196543	0.884950
H501	H	0.550681	-0.713509	0.469889
H502	H	1.050681	-0.213509	0.969889
H503	H	0.550655	-0.645473	0.486839
H504	H	1.050655	-0.145473	0.986839
H505	H	0.167007	-0.486271	0.814352
H506	H	0.667007	0.013729	1.314352
H507	H	0.049217	-0.382297	0.551240
H508	H	0.549217	0.117703	1.051240
C509	C	0.211055	-0.459548	0.716818
C510	C	0.711055	0.040452	1.216818
C511	C	0.246712	-0.491056	0.744190
C512	C	0.746712	0.008944	1.244190
C513	C	0.300594	-0.504279	0.716749
C514	C	0.800594	-0.004279	1.216749
C515	C	0.318819	-0.485993	0.661936
C516	C	0.818819	0.014007	1.161936
C517	C	0.283162	-0.454483	0.634561
C518	C	0.783162	0.045517	1.134561
C519	C	0.229280	-0.441260	0.662002
C520	C	0.729280	0.058740	1.162002
H521	H	0.233221	-0.504594	0.784769
H522	H	0.733221	-0.004594	1.284769
H523	H	0.326990	-0.527604	0.737014
H524	H	0.826990	-0.027604	1.237014
H525	H	0.358706	-0.495781	0.641622
H526	H	0.858706	0.004219	1.141622
H527	H	0.296653	-0.440945	0.593982
H528	H	0.796653	0.059055	1.093982
H529	H	0.202884	-0.417934	0.641736
H530	H	0.702884	0.082066	1.141736
H531	H	0.166679	-0.486211	0.447227
H532	H	0.666679	0.013789	0.947227
C533	C	0.005059	-0.409006	0.524577
C534	C	0.505059	0.090994	1.024577
C535	C	-0.026184	-0.423532	0.577218
C536	C	0.473816	0.076468	1.077218
C537	C	-0.080077	-0.410311	0.590492
C538	C	0.419923	0.089689	1.090492
C539	C	-0.102726	-0.382565	0.551125
C540	C	0.397274	0.117435	1.051125
C541	C	-0.071483	-0.368038	0.498481
C542	C	0.428517	0.131962	0.998481
C543	C	-0.017590	-0.381259	0.485206
C544	C	0.482410	0.118741	0.985206
H545	H	-0.009418	-0.444072	0.606362
H546	H	0.490582	0.055928	1.106362
H547	H	-0.103205	-0.421065	0.629463
H548	H	0.396795	0.078935	1.129463
H549	H	-0.142621	-0.372778	0.560952
H550	H	0.357379	0.127222	1.060952
H551	H	-0.088249	-0.347497	0.469336
H552	H	0.411751	0.152503	0.969336
H553	H	0.005539	-0.370505	0.446235
H554	H	0.505539	0.129495	0.946235
C555	C	0.018453	-0.652193	0.166507
C556	C	0.518453	-0.152193	0.666507
C557	C	0.046128	-0.674827	0.200839
C558	C	0.546128	-0.174827	0.700839
C559	C	0.059312	-0.728716	0.228270
C560	C	0.559312	-0.228716	0.728270
C561	C	0.044822	-0.759971	0.221370
C562	C	0.544822	-0.259971	0.721370
C563	C	0.017146	-0.737338	0.187036
C564	C	0.517146	-0.237338	0.687036
C565	C	0.003962	-0.683449	0.159605
C566	C	0.503962	-0.183449	0.659605
H567	H	0.056856	-0.651689	0.205948
H568	H	0.556856	-0.151689	0.705948
H569	H	0.079800	-0.745470	0.253686
H570	H	0.579800	-0.245470	0.753686
H571	H	0.054582	-0.799863	0.241676
H572	H	0.554582	-0.299863	0.741676
H573	H	0.006418	-0.760475	0.181927
H574	H	0.506418	-0.260475	0.681927
H575	H	-0.016526	-0.666694	0.134189
H576	H	0.483474	-0.166694	0.634189
C577	C	0.210836	-0.459502	0.473882
C578	C	0.710836	0.040498	0.973882
C579	C	0.246441	-0.491002	0.442350
C580	C	0.746441	0.008998	0.942350
C581	C	0.300336	-0.504230	0.429073
C582	C	0.800336	-0.004230	0.929073
C583	C	0.318625	-0.485957	0.447328
C584	C	0.818625	0.014043	0.947328
C585	C	0.283019	-0.454455	0.478861
C586	C	0.783019	0.045545	0.978861
C587	C	0.229124	-0.441228	0.492139
C588	C	0.729124	0.058772	0.992139
H589	H	0.232903	-0.504530	0.428835
H590	H	0.732903	-0.004530	0.928835
H591	H	0.326694	-0.527550	0.405730
H592	H	0.826694	-0.027550	0.905730
H593	H	0.358521	-0.495749	0.437499
H594	H	0.858521	0.004251	0.937499
H595	H	0.296557	-0.440927	0.492376
H596	H	0.796557	0.059073	0.992376
H597	H	0.202766	-0.417908	0.515482
H598	H	0.702766	0.082092	1.015482
H599	H	0.423275	-0.522397	0.511838
H600	H	0.923275	-0.022397	1.011838
C601	C	0.325768	-0.501433	0.548797
C602	C	0.825768	-0.001433	1.048797
C603	C	0.291548	-0.506380	0.600343
C604	C	0.791548	-0.006380	1.100343
C605	C	0.264166	-0.541606	0.626402
C606	C	0.764166	-0.041606	1.126402
C607	C	0.271005	-0.571883	0.600916
C608	C	0.771005	-0.071883	1.100916
C609	C	0.305226	-0.566936	0.549368
C610	C	0.805226	-0.066936	1.049368
C611	C	0.332608	-0.531711	0.523309
C612	C	0.832608	-0.031711	1.023309
H613	H	0.286484	-0.483967	0.619212
H614	H	0.786484	0.016033	1.119212
H615	H	0.238833	-0.545267	0.664562
H616	H	0.738833	-0.045267	1.164562
H617	H	0.250735	-0.597959	0.620207
H618	H	0.750735	-0.097959	1.120207
H619	H	0.310290	-0.589350	0.530499
H620	H	0.810290	-0.089350	1.030499
H621	H	0.357941	-0.528049	0.485149
H622	H	0.857941	-0.028049	0.985149
C623	C	0.430344	-0.366963	0.449282
C624	C	0.930344	0.133037	0.949282
C625	C	0.464631	-0.372549	0.469486
C626	C	0.964631	0.127451	0.969486
C627	C	0.492023	-0.337332	0.443417
C628	C	0.992023	0.162668	0.943417
C629	C	0.485129	-0.296530	0.397144
C630	C	0.985129	0.203470	0.897144
C631	C	0.450841	-0.290942	0.376938
C632	C	0.950841	0.209058	0.876938
C633	C	0.423448	-0.326159	0.403007
C634	C	0.923448	0.173841	0.903007
H635	H	0.469735	-0.402754	0.503742
H636	H	0.969735	0.097246	1.003742
H637	H	0.517406	-0.341469	0.458375
H638	H	1.017406	0.158531	0.958375
H639	H	0.505407	-0.270461	0.377847
H640	H	1.005407	0.229539	0.877847
H641	H	0.445736	-0.260737	0.342682
H642	H	0.945736	0.239263	0.842682
H643	H	0.398066	-0.322022	0.388049
H644	H	0.898066	0.177978	0.888049
C645	C	0.325698	-0.332101	0.484229
C646	C	0.825698	0.167899	0.984229
C647	C	0.332509	-0.295861	0.433382
C648	C	0.832509	0.204139	0.933382
C649	C	0.305088	-0.242383	0.425621
C650	C	0.805088	0.257617	0.925621
C651	C	0.270856	-0.225144	0.468707
C652	C	0.770856	0.274856	0.968707
C653	C	0.264043	-0.261384	0.519557
C654	C	0.764043	0.238616	1.019557
C655	C	0.291464	-0.314863	0.527319
C656	C	0.791464	0.185137	1.027319
H657	H	0.357851	-0.308622	0.401484
H658	H	0.857851	0.191378	0.901484
H659	H	0.310132	-0.215555	0.387977
H660	H	0.810132	0.284445	0.887977
H661	H	0.250557	-0.185556	0.462962
H662	H	0.750557	0.314444	0.962962
H663	H	0.238700	-0.248624	0.551456
H664	H	0.738700	0.251376	1.051456
H665	H	0.286420	-0.341690	0.564962
H666	H	0.786420	0.158310	1.064962
C667	C	0.168035	-0.216490	0.431201
C668	C	0.668035	0.283510	0.931201
C669	C	0.216075	-0.209616	0.395319
C670	C	0.716075	0.290384	0.895319
C671	C	0.247566	-0.237009	0.359681
C672	C	0.747566	0.262991	0.859681
C673	C	0.231017	-0.271277	0.359925
C674	C	0.731017	0.228723	0.859925
C675	C	0.182974	-0.278153	0.395809
C676	C	0.682974	0.221847	0.895809
C677	C	0.151483	-0.250760	0.431446
C678	C	0.651483	0.249240	0.931446
H679	H	0.228328	-0.184248	0.395137
H680	H	0.728328	0.315752	0.895137
H681	H	0.283131	-0.231919	0.333118
H682	H	0.783131	0.268081	0.833118
H683	H	0.254329	-0.291555	0.333544
H684	H	0.754329	0.208445	0.833544
H685	H	0.170721	-0.303521	0.395990
H686	H	0.670721	0.196479	0.895990
H687	H	0.115918	-0.255850	0.458009
H688	H	0.615918	0.244150	0.958009
C689	C	0.133100	-0.111838	0.396359
C690	C	0.633100	0.388162	0.896359
C691	C	0.185717	-0.118666	0.365045
C692	C	0.685717	0.381334	0.865045
C693	C	0.198911	-0.091241	0.311156
C694	C	0.698911	0.408759	0.811156
C695	C	0.159487	-0.056988	0.288581
C696	C	0.659487	0.443012	0.788581
C697	C	0.106867	-0.050158	0.319895
C698	C	0.606867	0.449842	0.819895
C699	C	0.093673	-0.077584	0.373784
C700	C	0.593673	0.422416	0.873784
H701	H	0.214903	-0.144024	0.381756
H702	H	0.714903	0.355976	0.881756
H703	H	0.237864	-0.096297	0.287976
H704	H	0.737864	0.403703	0.787976
H705	H	0.169254	-0.036686	0.248690
H706	H	0.669254	0.463314	0.748690
H707	H	0.077680	-0.024801	0.303184
H708	H	0.577680	0.475199	0.803184
H709	H	0.054719	-0.072528	0.396965
H710	H	0.554719	0.427472	0.896965
C711	C	-0.031903	-0.446435	0.061763
C712	C	0.468097	0.053565	0.561763
C713	C	0.007518	-0.423871	0.027568
C714	C	0.507518	0.076129	0.527568
C715	C	-0.005676	-0.369981	0.000138
C716	C	0.494324	0.130019	0.500138
C717	C	-0.058290	-0.338656	0.006904
C718	C	0.441710	0.161344	0.506904
C719	C	-0.097715	-0.361220	0.041101
C720	C	0.402285	0.138780	0.541101
C721	C	-0.084521	-0.415109	0.068530
C722	C	0.415479	0.084891	0.568530
H723	H	0.046470	-0.447060	0.022558
H724	H	0.546470	0.052940	0.522558
H725	H	0.023509	-0.353278	-0.025176
H726	H	0.523509	0.146722	0.474824
H727	H	-0.068057	-0.298764	-0.013401
H728	H	0.431943	0.201236	0.486599
H729	H	-0.136666	-0.338031	0.046111
H730	H	0.363334	0.161969	0.546111
H731	H	-0.113706	-0.431813	0.093845
H732	H	0.386294	0.068187	0.593845
C733	C	-0.066928	-0.481255	0.166404
C734	C	0.433072	0.018745	0.666404
C735	C	-0.080113	-0.427369	0.138969
C736	C	0.419887	0.072631	0.638969
C737	C	-0.111650	-0.391718	0.166347
C738	C	0.388350	0.108282	0.666347
C739	C	-0.130001	-0.409953	0.221161
C740	C	0.369999	0.090047	0.721161
C741	C	-0.116815	-0.463842	0.248598
C742	C	0.383185	0.036158	0.748598
C743	C	-0.085279	-0.499493	0.221220
C744	C	0.414721	0.000507	0.721220
H745	H	-0.066529	-0.413868	0.098390
H746	H	0.433471	0.086132	0.598390
H747	H	-0.121410	-0.351826	0.146036
H748	H	0.378590	0.148174	0.646036
H749	H	-0.153346	-0.383562	0.241428
H750	H	0.346654	0.116438	0.741428
H751	H	-0.130400	-0.477343	0.289177
H752	H	0.369600	0.022657	0.789177
H753	H	-0.075519	-0.539385	0.241531
H754	H	0.424481	-0.039385	0.741531
H755	H	0.045284	-0.608113	0.068976
H756	H	0.545284	-0.108113	0.568976
H757	H	-0.058984	-0.490504	0.332300
H758	H	0.441016	0.009496	0.832300
H759	H	-0.028907	-0.460416	0.362542
H760	H	0.471093	0.039584	0.862542
H761	H	0.014660	-0.638178	0.406265
H762	H	0.514660	-0.138178	0.906265
C763	C	0.052914	-0.617348	0.444700
C764	C	0.552914	-0.117348	0.944700
C765	C	0.100979	-0.653240	0.425696
C766	C	0.600979	-0.153240	0.925696
C767	C	0.132427	-0.688885	0.457281
C768	C	0.632427	-0.188885	0.957281
C769	C	0.115810	-0.688638	0.507871
C770	C	0.615810	-0.188638	1.007871
C771	C	0.067743	-0.652745	0.526878
C772	C	0.567743	-0.152745	1.026878
C773	C	0.036295	-0.617100	0.495293
C774	C	0.536295	-0.117100	0.995293
H775	H	0.113283	-0.653424	0.388244
H776	H	0.613283	-0.153424	0.888244
H777	H	0.168010	-0.715456	0.443211
H778	H	0.668010	-0.215456	0.943211
H779	H	0.139090	-0.715025	0.531253
H780	H	0.639090	-0.215025	1.031253
H781	H	0.055440	-0.652561	0.564330
H782	H	0.555440	-0.152561	1.064330
H783	H	0.000712	-0.590529	0.509363
H784	H	0.500712	-0.090529	1.009363
H785	H	0.081021	-0.864532	0.371574
H786	H	0.581021	-0.364532	0.871574
C787	C	0.060105	-0.767022	0.334648
C788	C	0.560105	-0.267022	0.834648
C789	C	0.113564	-0.794479	0.326957
C790	C	0.613564	-0.294479	0.826957
C791	C	0.148798	-0.767120	0.300968
C792	C	0.648798	-0.267120	0.800968
C793	C	0.130574	-0.712304	0.282670
C794	C	0.630574	-0.212304	0.782670
C795	C	0.077112	-0.684845	0.290361
C796	C	0.577112	-0.184845	0.790361
C797	C	0.041878	-0.712204	0.316350
C798	C	0.541878	-0.212204	0.816350
H799	H	0.127058	-0.835059	0.340503
H800	H	0.627058	-0.335059	0.840503
H801	H	0.188374	-0.787448	0.295275
H802	H	0.688374	-0.287448	0.795275
H803	H	0.156656	-0.692052	0.263431
H804	H	0.656656	-0.192052	0.763431
H805	H	0.063618	-0.644264	0.276815
H806	H	0.563618	-0.144264	0.776815
H807	H	0.002302	-0.691876	0.322043
H808	H	0.502302	-0.191876	0.822043
H809	H	-0.095331	-0.773979	0.396956
H810	H	0.404669	-0.273979	0.896956
C811	C	-0.074413	-0.871495	0.433879
C812	C	0.425587	-0.371495	0.933879
C813	C	-0.115253	-0.864601	0.480128
C814	C	0.384747	-0.364601	0.980128
C815	C	-0.150485	-0.891964	0.506123
C816	C	0.349515	-0.391964	1.006123
C817	C	-0.144876	-0.926221	0.485870
C818	C	0.355124	-0.426221	0.985870
C819	C	-0.104033	-0.933117	0.439619
C820	C	0.395967	-0.433117	0.939619
C821	C	-0.068802	-0.905754	0.413624
C822	C	0.431198	-0.405754	0.913624
H823	H	-0.119407	-0.839240	0.495123
H824	H	0.380593	-0.339240	0.995123
H825	H	-0.180719	-0.886859	0.540361
H826	H	0.319281	-0.386859	1.040361
H827	H	-0.170956	-0.946477	0.505113
H828	H	0.329044	-0.446477	1.005113
H829	H	-0.099879	-0.958478	0.424624
H830	H	0.400121	-0.458478	0.924624
H831	H	-0.038568	-0.910859	0.379386
H832	H	0.461432	-0.410859	0.879386
H833	H	-0.231954	-0.601008	0.442726
H834	H	0.268046	-0.101008	0.942726
H835	H	-0.322352	-0.570775	0.472713
H836	H	0.177648	-0.070775	0.972713
C837	C	-0.329222	-0.488800	0.315718
C838	C	0.170778	0.011200	0.815718
C839	C	-0.322325	-0.507874	0.279847
C840	C	0.177675	-0.007874	0.779847
C841	C	-0.349659	-0.476343	0.244153
C842	C	0.150341	0.023657	0.744153
C843	C	-0.383890	-0.425738	0.244332
C844	C	0.116110	0.074262	0.744332
C845	C	-0.390788	-0.406662	0.280205
C846	C	0.109212	0.093338	0.780205
C847	C	-0.363454	-0.438193	0.315898
C848	C	0.136546	0.061807	0.815898
H849	H	-0.296984	-0.545337	0.279713
H850	H	0.203016	-0.045337	0.779713
H851	H	-0.344553	-0.490465	0.217598
H852	H	0.155447	0.009535	0.717598
H853	H	-0.404125	-0.402397	0.217910
H854	H	0.095875	0.097603	0.717910
H855	H	-0.416129	-0.369199	0.280338
H856	H	0.083871	0.130801	0.780338
H857	H	-0.368561	-0.424071	0.342453
H858	H	0.131439	0.075929	0.842453
H859	H	-0.231721	-0.527215	0.295000
H860	H	0.268279	-0.027215	0.795000
