data_functionalizedCrystal
_audit_creation_method	'MofGen! by Chris Wilmer'
_symmetry_space_group_name_H-M	'P1'
_symmetry_Int_Tables_number	1
_symmetry_cell_setting	triclinic
loop_
_symmetry_equiv_pos_as_xyz
  x,y,z
_cell_length_a	23.096457
_cell_length_b	14.560438
_cell_length_c	14.560438
_cell_angle_alpha	59.996693
_cell_angle_beta	89.999077
_cell_angle_gamma	59.999550
loop_
_atom_site_label
_atom_site_type_symbol
_atom_site_fract_x
_atom_site_fract_y
_atom_site_fract_z
Zr1	Zr	0.557779	1.005295	-0.120609
O2	O	0.465327	1.196909	-0.267267
O3	O	0.586120	0.813685	-0.075642
O4	O	0.586117	1.005296	-0.267259
O5	O	0.465332	1.005295	0.075490
O6	O	0.681400	1.005293	-0.267262
O7	O	0.465329	1.005298	-0.075651
O8	O	0.681404	0.662535	0.075505
O9	O	0.465328	1.348053	-0.267277
O10	O	0.669315	0.892493	-0.056477
O11	O	0.598209	0.892493	0.056320
O12	O	0.598207	1.118091	-0.169284
O13	O	0.527100	1.118092	-0.056487
Zr14	Zr	0.709747	1.005285	0.120438
Zr15	Zr	0.709743	1.005289	-0.120615
Zr16	Zr	0.557783	1.005291	0.120443
Zr17	Zr	0.557780	1.246352	-0.120625
Zr18	Zr	0.709746	0.764228	0.120453
O19	O	0.681406	1.196895	0.075471
O20	O	0.681401	1.196901	-0.267275
O21	O	0.465332	1.196903	0.075478
O22	O	0.802199	0.813671	0.267095
O23	O	0.802193	0.813677	-0.075650
O24	O	0.586125	0.813679	0.267103
O25	O	0.802194	1.005285	-0.075662
O26	O	0.681408	1.005284	0.267087
O27	O	0.586126	1.005287	0.267090
O28	O	0.802197	1.005282	0.075479
O29	O	0.586119	1.348048	-0.267281
O30	O	0.681407	0.662532	0.267109
O31	O	0.802198	0.662527	0.267105
O32	O	0.802195	0.662530	0.075501
O33	O	0.465331	1.348049	-0.075673
O34	O	0.586122	1.348045	-0.075677
O35	O	0.669319	0.892489	0.169112
O36	O	0.740425	0.892488	0.056315
O37	O	0.669317	1.118086	-0.056492
O38	O	0.598210	1.118087	0.056305
C39	C	0.633761	0.703764	-0.000067
C40	C	0.633761	0.601429	-0.000060
C41	C	0.581267	0.636647	-0.083341
C42	C	0.581270	0.540507	-0.083369
C43	C	0.686264	0.373933	0.083173
C44	C	0.686264	0.470072	0.083196
C45	C	0.443679	1.005297	-0.000080
C46	C	0.379166	1.005299	-0.000077
C47	C	0.348862	1.005310	-0.083347
C48	C	0.288249	1.005299	-0.083347
C49	C	0.257935	1.005302	-0.000085
C50	C	0.288249	1.005284	0.083199
C51	C	0.348864	1.005282	0.083203
N52	N	0.139584	1.078836	0.025117
N53	N	0.082001	1.078840	0.025106
C54	C	0.075306	1.005303	-0.000091
N55	N	0.128364	0.931777	-0.025299
N56	N	0.185950	0.931779	-0.025294
C57	C	0.192209	1.005302	-0.000080
C58	C	-0.020720	1.005299	-0.083366
C59	C	-0.081331	1.005279	-0.083358
C60	C	-0.081334	1.005277	0.083184
C61	C	-0.020720	1.005284	0.083181
C62	C	0.009581	1.005301	-0.000100
C63	C	0.823847	1.005283	-0.000092
C64	C	0.888360	1.005280	-0.000095
C65	C	0.633758	1.005295	-0.301605
C66	C	0.633756	1.005297	-0.403938
C67	C	0.633764	1.306815	-0.000105
C68	C	0.633765	1.409150	-0.000112
C69	C	0.596639	1.123055	-0.510899
C70	C	0.596647	1.123048	-0.607047
C71	C	0.670891	0.887516	-0.489262
C72	C	0.670887	0.887524	-0.393116
C73	C	0.633768	1.005285	0.301434
C74	C	0.633769	1.005283	0.403766
C75	C	0.823846	0.703757	-0.000073
C76	C	0.888358	0.601420	-0.000069
C77	C	0.633766	0.703759	0.301453
C78	C	0.633767	0.601423	0.403792
C79	C	0.823850	0.703752	0.301447
C80	C	0.888364	0.601413	0.403784
C81	C	0.443675	1.306828	-0.301618
C82	C	0.379161	1.409167	-0.403956
C83	C	0.443680	1.306823	-0.000099
C84	C	0.379168	1.409160	-0.000103
C85	C	0.633759	1.306820	-0.301625
C86	C	0.633758	1.409157	-0.403964
C87	C	0.881535	0.553363	-0.058953
C88	C	0.942145	0.457220	-0.058971
C89	C	1.009578	0.409128	-0.000098
C90	C	1.016400	0.457194	0.058788
C91	C	0.955790	0.553342	0.058799
C92	C	0.955784	0.553353	0.392964
C93	C	1.016408	0.457208	0.489111
C94	C	1.009610	0.409118	0.596078
C95	C	0.942183	0.457187	0.606896
C96	C	0.881561	0.553337	0.510749
C97	C	0.311742	1.457238	-0.393136
C98	C	0.251118	1.553413	-0.489283
C99	C	0.257916	1.601508	-0.596250
C100	C	0.325342	1.553433	-0.607068
C101	C	0.385964	1.457266	-0.510921
C102	C	0.385991	1.457226	0.058771
C103	C	0.325380	1.553397	0.058763
C104	C	0.257948	1.601492	-0.000114
C105	C	0.251126	1.553422	-0.058995
C106	C	0.311736	1.457260	-0.058993
C107	C	0.670886	0.553340	0.510748
C108	C	0.670879	0.457193	0.606903
C109	C	0.596634	0.457215	0.489133
C110	C	0.596637	0.553367	0.392980
H111	H	0.729015	0.441385	0.151016
H112	H	0.263566	1.005283	0.150994
H113	H	1.071304	0.418080	0.480283
O114	O	0.378228	1.005257	-0.164291
C115	C	0.338468	1.005296	-0.237804
H116	H	0.308149	0.964399	-0.192944
H117	H	0.375750	0.942577	-0.264680
H118	H	0.299354	1.108941	-0.315231
H119	H	0.566407	0.592520	0.305886
H120	H	0.701117	0.592469	0.519558
O121	O	0.560540	1.237355	-0.711009
C122	C	0.508439	1.244411	-0.770144
H123	H	0.524042	1.142163	-0.733419
H124	H	0.503950	1.294249	-0.862678
H125	H	0.455194	1.302528	-0.762156
O126	O	0.199097	1.694954	-0.689758
C127	C	0.219546	1.727077	-0.786498
H128	H	0.275495	1.700603	-0.764458
H129	H	0.181237	1.835755	-0.854400
H130	H	0.218441	1.670851	-0.818864
O131	O	0.331985	1.599878	-0.710948
C132	C	0.369318	1.497209	-0.723208
H133	H	0.402830	1.401062	-0.636630
H134	H	0.405292	1.511704	-0.773921
H135	H	0.330024	1.495842	-0.768985
O136	O	0.258847	1.005088	-0.164104
C137	C	0.259031	0.893224	-0.113150
H138	H	0.301951	0.815009	-0.026798
H139	H	0.270172	0.855685	-0.168029
H140	H	0.205119	0.918521	-0.103421
H141	H	0.701120	0.791629	-0.480464
H142	H	1.071311	0.418023	0.106720
O143	O	0.451414	1.410801	-0.521596
C144	C	0.459178	1.513419	-0.580901
H145	H	0.404607	1.609607	-0.633940
H146	H	0.491036	1.498949	-0.638091
H147	H	0.488168	1.514681	-0.518632
H148	H	1.058978	0.330826	0.674358
O149	O	0.185573	1.600277	-0.478960
C150	C	0.133516	1.695453	-0.586750
H151	H	0.157125	1.737532	-0.650498
H152	H	0.086779	1.776326	-0.585663
H153	H	0.114551	1.649467	-0.611252
O154	O	0.706955	0.773010	-0.289289
C155	C	0.739738	0.669059	-0.300351
H156	H	0.710629	0.703570	-0.386150
H157	H	0.737742	0.586698	-0.231379
H158	H	0.797350	0.632851	-0.292468
O159	O	0.737345	0.246354	0.163963
C160	C	0.804549	0.219197	0.158709
H161	H	0.798486	0.294360	0.070891
H162	H	0.840198	0.118195	0.177699
H163	H	0.829306	0.223074	0.223289
H164	H	0.936577	0.418096	-0.106923
O165	O	0.530238	0.764184	-0.164329
C166	C	0.483897	0.774646	-0.237825
H167	H	0.512180	0.681703	-0.233876
H168	H	0.466952	0.860681	-0.327419
H169	H	0.435088	0.790014	-0.211614
H170	H	0.003954	1.005307	-0.151175
H171	H	-0.106003	1.005280	-0.151164
O172	O	0.378399	1.005053	0.164183
C173	C	0.448736	0.893189	0.225094
H174	H	0.455124	0.814983	0.216948
H175	H	0.461260	0.855633	0.317520
H176	H	0.486699	0.918492	0.190073
H177	H	0.440892	1.418074	0.106723
H178	H	0.826633	0.592519	-0.106908
H179	H	-0.106013	1.005273	0.150981
O180	O	0.185673	1.600034	-0.116272
C181	C	0.192636	1.536968	-0.168214
H182	H	0.246718	1.497349	-0.179900
H183	H	0.149147	1.609108	-0.253731
H184	H	0.187674	1.453455	-0.113014
H185	H	0.566405	1.218953	-0.519717
H186	H	0.208601	1.679793	-0.000106
H187	H	0.936659	0.418018	0.694001
O188	O	0.962550	0.599825	0.116113
C189	C	1.035066	0.536770	0.168048
H190	H	1.067381	0.439323	0.179682
H191	H	1.043530	0.520168	0.253589
H192	H	1.052926	0.599831	0.112869
H193	H	0.826667	0.592455	0.519575
O194	O	0.962271	0.600163	0.288979
C195	C	0.894313	0.695362	0.206421
H196	H	0.854135	0.679567	0.243887
H197	H	0.894987	0.687561	0.132274
H198	H	0.878866	0.795936	0.176344
H199	H	0.306193	1.418085	-0.306047
O200	O	1.068378	0.315682	-0.000183
C201	C	1.047887	0.283608	-0.064805
H202	H	0.991934	0.310119	-0.069221
H203	H	1.086174	0.174931	-0.024039
H204	H	1.048984	0.339837	-0.153408
O205	O	0.331977	1.600272	0.115797
C206	C	0.299136	1.735009	0.040226
H207	H	0.296336	1.761348	-0.048488
H208	H	0.331292	1.762621	0.065766
H209	H	0.243226	1.790010	0.042292
H210	H	0.003952	1.005283	0.150983
H211	H	0.701103	0.418050	0.693988
H212	H	0.306170	1.418127	-0.106933
H213	H	0.566405	0.418075	0.480344
H214	H	0.538524	0.569194	-0.151186
