data_functionalizedCrystal
_audit_creation_method	'MofGen! by Chris Wilmer'
_symmetry_space_group_name_H-M	'P1'
_symmetry_Int_Tables_number	1
_symmetry_cell_setting	triclinic
loop_
_symmetry_equiv_pos_as_xyz
  x,y,z
_cell_length_a	16.974829
_cell_length_b	10.654551
_cell_length_c	16.053802
_cell_angle_alpha	92.593346
_cell_angle_beta	83.771117
_cell_angle_gamma	83.940828
loop_
_atom_site_label
_atom_site_type_symbol
_atom_site_fract_x
_atom_site_fract_y
_atom_site_fract_z
O1	O	1.056731	0.149369	-0.140823
O2	O	0.825894	0.170935	-0.125227
O3	O	0.946619	-0.022697	-0.133384
O4	O	0.936005	0.343001	-0.132666
O5	O	0.939974	-0.012082	0.005924
O6	O	0.819248	0.181549	0.014081
O7	O	1.050086	0.159983	-0.001515
Zn8	Zn	0.933612	0.172451	0.028401
Zn9	Zn	0.942367	0.158467	-0.155143
O10	O	0.929360	0.353615	0.006642
C11	C	0.793013	0.175617	-0.053576
C12	C	0.704941	0.173741	-0.047626
C13	C	0.208792	0.163844	-0.005982
C14	C	0.291546	0.165606	-0.011574
C15	C	0.336546	0.160692	-0.090309
C16	C	0.298787	0.154028	-0.163455
C17	C	0.216034	0.152274	-0.157862
C18	C	0.584429	0.165324	-0.115180
C19	C	0.667188	0.167074	-0.120767
C20	C	0.659940	0.178655	0.031114
C21	C	0.577187	0.176893	0.036701
C22	C	0.539435	0.170235	-0.036446
N23	N	0.421134	0.162490	-0.096027
N24	N	0.454847	0.168447	-0.030727
C25	C	0.942517	-0.064172	-0.063679
C26	C	0.940185	-0.203567	-0.063527
C27	C	0.942714	-0.274842	-0.139389
C28	C	0.940515	-0.405817	-0.139236
C29	C	0.933264	-0.394230	0.012645
C30	C	0.935456	-0.263257	0.012493
C31	C	0.947443	-0.215153	-0.215408
C32	C	0.949972	-0.286429	-0.291276
C33	C	0.947774	-0.417403	-0.291124
C34	C	0.943046	-0.477102	-0.215104
C35	C	1.082966	0.155301	-0.073167
C36	C	1.171039	0.157176	-0.079123
C37	C	0.933462	0.395090	-0.063065
C38	C	0.935794	0.534485	-0.063222
N39	N	0.927642	0.181995	0.153665
N40	N	0.948343	0.148913	-0.280407
C41	C	0.979030	0.099633	0.193887
C42	C	0.974862	0.106321	0.281575
C43	C	0.919309	0.195377	0.329040
C44	C	0.867915	0.277742	0.288812
C45	C	0.872081	0.271048	0.201126
C46	C	0.901115	0.224584	0.591679
C47	C	0.896955	0.231275	0.679371
C48	C	1.003901	0.059851	0.672128
C49	C	1.008065	0.053170	0.584440
C50	C	0.956668	0.135530	0.544220
N51	N	0.915049	0.202218	0.418671
N52	N	0.960926	0.128683	0.454590
H53	H	0.690687	0.184077	0.090666
H54	H	0.703824	0.163082	-0.184885
Cl55	Cl	0.955913	-0.211380	-0.386838
H56	H	0.859267	0.291647	0.558939
H57	H	0.851715	0.303800	0.718013
Cl58	Cl	0.932283	-0.173648	0.107863
Cl59	Cl	1.048876	-0.012323	0.134226
H60	H	0.172158	0.167851	0.058132
H61	H	0.822679	0.350249	0.327463
Cl62	Cl	0.339002	0.173996	0.080379
H63	H	0.540555	0.180867	0.100814
H64	H	1.016705	0.039255	0.314323
Cl65	Cl	0.950945	-0.507002	-0.386497
H66	H	0.929415	-0.442848	0.074537
Cl67	Cl	0.807472	0.374589	0.150562
Cl68	Cl	0.950210	-0.050501	-0.215605
Cl69	Cl	1.068507	-0.043686	0.722694
Cl70	Cl	0.536981	0.156946	-0.207136
Cl71	Cl	0.355359	0.147851	-0.262436
Cl72	Cl	0.168573	0.143899	-0.249815
H73	H	0.941245	-0.583749	-0.214985
Cl74	Cl	1.077904	-0.058786	0.524770
