data_functionalizedCrystal
_audit_creation_method	'MofGen! by Chris Wilmer'
_symmetry_space_group_name_H-M	'P1'
_symmetry_Int_Tables_number	1
_symmetry_cell_setting	triclinic
loop_
_symmetry_equiv_pos_as_xyz
  x,y,z
_cell_length_a	14.971486
_cell_length_b	16.992695
_cell_length_c	14.048226
_cell_angle_alpha	89.993436
_cell_angle_beta	89.998499
_cell_angle_gamma	87.141176
loop_
_atom_site_label
_atom_site_type_symbol
_atom_site_fract_x
_atom_site_fract_y
_atom_site_fract_z
O1	O	1.194127	0.102190	-0.079052
O2	O	1.694127	0.602190	0.420948
O3	O	0.934587	0.114427	-0.079078
O4	O	1.434587	0.614427	0.420922
O5	O	1.063316	-0.005835	-0.079057
O6	O	1.563316	0.494165	0.420943
O7	O	1.065397	0.222452	-0.079072
O8	O	1.565397	0.722452	0.420928
O9	O	1.063299	-0.005842	0.079264
O10	O	1.563299	0.494158	0.579264
O11	O	0.934570	0.114420	0.079244
O12	O	1.434570	0.614420	0.579244
O13	O	1.194110	0.102183	0.079270
O14	O	1.694110	0.602183	0.579270
Zn15	Zn	1.064337	0.108300	0.104394
Zn16	Zn	1.564337	0.608300	0.604394
Zn17	Zn	1.064359	0.108310	-0.104201
Zn18	Zn	1.564359	0.608310	0.395799
O19	O	1.065380	0.222445	0.079249
O20	O	1.565380	0.722445	0.579249
C21	C	0.901215	0.113876	0.000080
C22	C	1.401215	0.613876	0.500080
C23	C	0.801803	0.112236	0.000070
C24	C	1.301803	0.612236	0.500070
C25	C	0.749541	0.182887	0.000067
C26	C	1.249541	0.682887	0.500067
C27	C	0.656133	0.181341	0.000081
C28	C	1.156133	0.681341	0.500081
C29	C	0.614988	0.109144	0.000092
C30	C	1.114988	0.609144	0.500092
C31	C	0.667257	0.038488	0.000098
C32	C	1.167257	0.538488	0.500098
C33	C	0.760663	0.040034	0.000091
C34	C	1.260663	0.540034	0.500091
C35	C	0.472568	0.035269	0.000111
C36	C	0.972568	0.535269	0.500111
C37	C	0.379155	0.033723	0.000117
C38	C	0.879155	0.533723	0.500117
C39	C	0.368038	0.176577	0.000102
C40	C	0.868038	0.676577	0.500102
C41	C	0.461445	0.178123	0.000094
C42	C	0.961445	0.678123	0.500094
C43	C	0.513707	0.107466	0.000099
C44	C	1.013707	0.607466	0.500099
C45	C	1.060631	-0.035054	0.000103
C46	C	1.560631	0.464946	0.500103
C47	C	1.052644	-0.122105	0.000102
C48	C	1.552644	0.377895	0.500102
C49	C	1.129708	-0.172274	0.000111
C50	C	1.629708	0.327726	0.500111
C51	C	1.122198	-0.254067	0.000101
C52	C	1.622198	0.245933	0.500101
C53	C	1.037623	-0.285691	0.000089
C54	C	1.537623	0.214309	0.500089
C55	C	0.960553	-0.235517	0.000078
C56	C	1.460553	0.264483	0.500078
C57	C	0.968064	-0.153724	0.000081
C58	C	1.468064	0.346276	0.500081
C59	C	1.006493	-0.529318	0.000073
C60	C	1.506493	-0.029318	0.500073
C61	C	0.998988	-0.611117	0.000073
C62	C	1.498988	-0.111117	0.500073
C63	C	1.160634	-0.629662	0.000094
C64	C	1.660634	-0.129662	0.500094
C65	C	1.168138	-0.547867	0.000103
C66	C	1.668138	-0.047867	0.500103
C67	C	1.091068	-0.497700	0.000087
C68	C	1.591068	0.002300	0.500087
N69	N	1.029945	-0.369297	0.000082
N70	N	1.529945	0.130703	0.500082
N71	N	1.098747	-0.414095	0.000087
N72	N	1.598747	0.085905	0.500087
C73	C	1.227482	0.102733	0.000110
C74	C	1.727482	0.602733	0.500110
C75	C	1.326894	0.104373	0.000114
C76	C	1.826894	0.604373	0.500114
C77	C	1.068066	0.251664	0.000087
C78	C	1.568066	0.751664	0.500087
C79	C	1.076053	0.338715	0.000082
C80	C	1.576053	0.838715	0.500082
N81	N	1.064328	0.108293	0.246754
N82	N	1.564328	0.608293	0.746754
N83	N	1.064375	0.108310	-0.246562
N84	N	1.564375	0.608310	0.253438
C85	C	1.121350	0.055063	0.296581
C86	C	1.621350	0.555063	0.796581
C87	C	1.121356	0.055063	0.396239
C88	C	1.621356	0.555063	0.896239
C89	C	1.064344	0.108297	0.446068
C90	C	1.564344	0.608297	0.946068
C91	C	1.007316	0.161529	0.396234
C92	C	1.507316	0.661529	0.896234
C93	C	1.007306	0.161526	0.296578
C94	C	1.507306	0.661526	0.796578
C95	C	1.007342	0.161535	0.603948
C96	C	1.507342	0.661535	1.103948
C97	C	1.007353	0.161540	0.703611
C98	C	1.507353	0.661540	1.203611
C99	C	1.121393	0.055072	0.703609
C100	C	1.621393	0.555072	1.203609
C101	C	1.121383	0.055068	0.603953
C102	C	1.621383	0.555068	1.103953
C103	C	1.064355	0.108302	0.554126
C104	C	1.564355	0.608302	1.054126
H105	H	0.783034	0.241679	0.000057
H106	H	1.283034	0.741679	0.500057
C107	C	0.867520	-0.270297	0.000058
C108	C	1.367520	0.229703	0.500058
H109	H	0.822699	-0.228702	0.000042
H110	H	1.322699	0.271298	0.500042
H111	H	0.861218	-0.301825	0.055264
H112	H	1.361218	0.198175	0.555264
H113	H	0.861242	-0.301811	-0.055163
H114	H	1.361242	0.198189	0.444837
H115	H	0.960901	0.204881	0.563382
H116	H	1.460901	0.704881	1.063382
H117	H	0.943737	-0.488481	0.000060
H118	H	1.443737	0.011519	0.500060
H119	H	0.613586	0.238873	0.000077
H120	H	1.113586	0.738873	0.500077
C121	C	1.245406	-0.684843	0.000103
C122	C	1.745406	-0.184843	0.500103
H123	H	1.296850	-0.654294	0.000115
H124	H	1.796850	-0.154294	0.500115
H125	H	1.245843	-0.717130	-0.055108
H126	H	1.745843	-0.217130	0.444892
H127	H	1.245832	-0.717141	0.055319
H128	H	1.745832	-0.217141	0.555319
C129	C	0.818154	-0.037679	0.000093
C130	C	1.318154	0.462321	0.500093
H131	H	0.879676	-0.026419	0.000097
H132	H	1.379676	0.473581	0.500097
H133	H	0.805132	-0.067281	-0.055112
H134	H	1.305132	0.432719	0.444888
H135	H	0.805132	-0.067278	0.055316
H136	H	1.305132	0.432722	0.555316
H137	H	1.167780	0.011717	0.256017
H138	H	1.667780	0.511717	0.756017
H139	H	0.930114	-0.636861	0.000079
H140	H	1.430114	-0.136861	0.500079
H141	H	0.345658	-0.025067	0.000127
H142	H	0.845658	0.474933	0.500127
H143	H	0.905310	-0.112878	0.000073
H144	H	1.405310	0.387122	0.500073
C145	C	1.184090	-0.003483	0.451045
C146	C	1.684090	0.496517	0.951045
H147	H	1.218052	-0.035179	0.407096
H148	H	1.718052	0.464821	0.907096
H149	H	1.149594	-0.036177	0.489935
H150	H	1.649594	0.463823	0.989935
H151	H	1.223343	0.024793	0.489906
H152	H	1.723343	0.524793	0.989906
C153	C	1.206969	-0.309249	0.000120
C154	C	1.706969	0.190751	0.500120
H155	H	1.258414	-0.278701	0.000142
H156	H	1.758414	0.221299	0.500142
H157	H	1.207414	-0.341538	-0.055089
H158	H	1.707414	0.158462	0.444911
H159	H	1.207386	-0.341545	0.055338
H160	H	1.707386	0.158455	0.555338
H161	H	0.960891	0.204871	0.436810
H162	H	1.460891	0.704871	0.936810
H163	H	1.167811	0.011725	0.563383
H164	H	1.667811	0.511725	1.063383
H165	H	0.960871	0.204870	0.256010
H166	H	1.460871	0.704870	0.756010
H167	H	1.167826	0.011728	0.744184
H168	H	1.667826	0.511728	1.244184
H169	H	1.198578	-0.146533	0.000126
H170	H	1.698578	0.353467	0.500126
H171	H	0.494942	0.236912	0.000077
H172	H	0.994942	0.736912	0.500077
H173	H	0.325482	0.234108	0.000103
H174	H	0.825482	0.734108	0.500103
C175	C	0.622004	-0.040930	0.000109
C176	C	1.122004	0.459070	0.500109
H177	H	0.666509	-0.082785	0.000118
H178	H	1.166509	0.417215	0.500118
H179	H	0.585796	-0.044501	-0.055099
H180	H	1.085796	0.455499	0.444901
H181	H	0.585800	-0.044504	0.055328
H182	H	1.085800	0.455496	0.555328
C183	C	1.261170	-0.513087	0.000104
C184	C	1.761170	-0.013087	0.500104
H185	H	1.305993	-0.554681	0.000097
H186	H	1.805993	-0.054681	0.500097
H187	H	1.267458	-0.481569	0.055312
H188	H	1.767458	0.018431	0.555312
H189	H	1.267460	-0.481562	-0.055115
H190	H	1.767460	0.018438	0.444885
C191	C	0.944581	0.220046	0.758421
C192	C	1.444581	0.720046	1.258421
H193	H	0.910590	0.251728	0.714475
H194	H	1.410590	0.751728	1.214475
H195	H	0.979038	0.252758	0.797316
H196	H	1.479038	0.752758	1.297316
H197	H	0.905356	0.191727	0.797277
H198	H	1.405356	0.691727	1.297277
H199	H	0.515117	-0.022267	0.000116
H200	H	1.015117	0.477733	0.500116
