data_functionalizedCrystal
_audit_creation_method	'MofGen! by Chris Wilmer'
_symmetry_space_group_name_H-M	'P1'
_symmetry_Int_Tables_number	1
_symmetry_cell_setting	triclinic
loop_
_symmetry_equiv_pos_as_xyz
  x,y,z
_cell_length_a	31.640172
_cell_length_b	31.640171
_cell_length_c	27.440280
_cell_angle_alpha	60.000386
_cell_angle_beta	90.008206
_cell_angle_gamma	59.979319
loop_
_atom_site_label
_atom_site_type_symbol
_atom_site_fract_x
_atom_site_fract_y
_atom_site_fract_z
Zr1	Zr	0.406963	0.462736	-0.064034
O2	O	0.339431	0.550943	-0.141883
O3	O	0.427694	0.374529	-0.040150
O4	O	0.427651	0.462725	-0.141841
O5	O	0.339474	0.462755	0.040001
O6	O	0.497208	0.462717	-0.141831
O7	O	0.339473	0.462747	-0.040192
O8	O	0.497285	0.304950	0.040076
O9	O	0.339398	0.620521	-0.141905
O10	O	0.488410	0.410803	-0.029980
O11	O	0.436501	0.410816	0.029860
O12	O	0.436451	0.514655	-0.089868
O13	O	0.384542	0.514668	-0.030029
Zr14	Zr	0.517900	0.462735	0.063882
Zr15	Zr	0.517898	0.462722	-0.064017
Zr16	Zr	0.406964	0.462749	0.063865
Zr17	Zr	0.406911	0.573706	-0.064070
Zr18	Zr	0.517952	0.351765	0.063917
O19	O	0.497169	0.550941	0.039998
O20	O	0.497167	0.550923	-0.141859
O21	O	0.339433	0.550961	0.039973
O22	O	0.585432	0.374528	0.141730
O23	O	0.585430	0.374509	-0.040126
O24	O	0.427696	0.374548	0.141706
O25	O	0.585388	0.462716	-0.040154
O26	O	0.497212	0.462745	0.141688
O27	O	0.427655	0.462754	0.141678
O28	O	0.585389	0.462724	0.040039
O29	O	0.427577	0.620510	-0.141891
O30	O	0.497286	0.304960	0.141739
O31	O	0.585465	0.304949	0.141752
O32	O	0.585464	0.304939	0.040089
O33	O	0.339399	0.620532	-0.040242
O34	O	0.427578	0.620521	-0.040229
O35	O	0.488412	0.410815	0.089715
O36	O	0.540321	0.410803	0.029876
O37	O	0.488361	0.514655	-0.030013
O38	O	0.436452	0.514667	0.029827
C39	C	0.462497	0.323929	-0.000032
C40	C	0.462519	0.276819	-0.000017
C41	C	0.500774	-0.097747	0.044117
C42	C	0.500820	0.079206	0.044150
O43	O	0.533442	0.069473	0.081729
N44	N	0.462486	0.139681	-0.000044
C45	C	0.424140	0.155918	-0.044252
O46	O	0.391540	0.211417	-0.081845
C47	C	0.424097	-0.021034	-0.044287
C48	C	0.462430	-0.081510	-0.000086
C49	C	0.539104	-0.158220	0.088314
C50	C	0.539091	-0.202455	0.088307
C51	C	0.500747	-0.186218	0.044104
C52	C	0.462417	-0.125745	-0.000093
C53	C	0.385754	-0.004797	-0.088497
C54	C	0.385747	-0.049041	-0.088502
C55	C	0.424080	-0.109517	-0.044302
C56	C	0.424060	-0.153743	-0.044303
N57	N	0.462393	-0.214218	-0.000109
C58	C	0.500737	-0.230456	0.044095
C59	C	0.424165	0.248818	-0.044230
C60	C	0.424175	0.293057	-0.044221
C61	C	0.500855	0.216341	0.044181
C62	C	0.500843	0.172102	0.044174
C63	C	0.462499	0.188343	-0.000036
C64	C	0.500706	-0.323350	0.044077
C65	C	0.500687	-0.367586	0.044068
C66	C	0.424009	-0.290866	-0.044335
C67	C	0.424025	-0.246634	-0.044325
C68	C	0.462378	-0.262881	-0.000116
O69	O	0.391457	-0.144054	-0.081866
O70	O	0.533340	-0.285957	0.081674
C71	C	0.500787	-0.053512	0.044124
C72	C	0.462457	0.006961	-0.000073
C73	C	0.424113	0.023198	-0.044276
C74	C	0.462467	0.051199	-0.000063
C75	C	0.500811	0.034961	0.044140
C76	C	0.539145	-0.025514	0.088334
C77	C	0.539131	-0.069749	0.088328
C78	C	0.385780	0.083673	-0.088470
C79	C	0.385796	0.127906	-0.088460
C80	C	0.424140	0.111668	-0.044256
C81	C	0.323668	0.462753	-0.000098
C82	C	0.276573	0.462759	-0.000105
C83	C	0.011689	0.408520	0.031197
C84	C	-0.165296	0.408510	0.031209
O85	O	-0.165115	0.362406	0.057817
N86	N	-0.214548	0.462719	-0.000053
C87	C	-0.219553	0.516935	-0.031317
O88	O	-0.265506	0.563043	-0.057902
C89	C	-0.042568	0.516944	-0.031325
C90	C	0.006683	0.462732	-0.000066
C91	C	0.060939	0.354312	0.062454
C92	C	0.105182	0.354315	0.062448
C93	C	0.100176	0.408526	0.031185
C94	C	0.050927	0.462735	-0.000072
C95	C	-0.047574	0.571160	-0.062585
C96	C	-0.003322	0.571157	-0.062583
C97	C	0.045929	0.516944	-0.031324
C98	C	0.090164	0.516949	-0.031341
N99	N	0.139416	0.462740	-0.000079
C100	C	0.144422	0.408529	0.031184
C101	C	-0.312470	0.516926	-0.031312
C102	C	-0.356716	0.516923	-0.031311
C103	C	-0.302456	0.408498	0.031216
C104	C	-0.258210	0.408501	0.031211
C105	C	-0.263218	0.462716	-0.000050
C106	C	0.237334	0.408539	0.031169
C107	C	0.281579	0.408547	0.031158
C108	C	0.227315	0.516972	-0.031366
C109	C	0.183074	0.516965	-0.031358
C110	C	0.188087	0.462743	-0.000086
O111	O	0.090023	0.563029	-0.057930
O112	O	0.190379	0.362427	0.057776
C113	C	-0.032554	0.408517	0.031203
C114	C	-0.081803	0.462725	-0.000054
C115	C	-0.086809	0.516937	-0.031317
C116	C	-0.126049	0.462723	-0.000053
C117	C	-0.121043	0.408511	0.031210
C118	C	-0.071791	0.354302	0.062472
C119	C	-0.027548	0.354305	0.062466
C120	C	-0.136061	0.571146	-0.062579
C121	C	-0.180302	0.571139	-0.062571
C122	C	-0.175296	0.516927	-0.031308
C123	C	0.601195	0.462718	-0.000055
C124	C	0.648290	0.462712	-0.000048
C125	C	0.462429	0.462719	-0.160059
C126	C	0.462429	0.462714	-0.214355
C127	C	0.462366	0.601542	-0.000121
C128	C	0.462344	0.648652	-0.000136
C129	C	0.435314	0.516955	-0.582351
C130	C	0.435315	0.516958	-0.633373
O131	O	0.412265	0.563061	-0.686347
N132	N	0.462436	0.462749	-0.627629
C133	C	0.489562	0.408533	-0.570858
O134	O	0.512632	0.362424	-0.570658
C135	C	0.489564	0.408531	-0.519837
C136	C	0.462436	0.462743	-0.525586
C137	C	0.408189	0.571163	-0.588097
C138	C	0.408187	0.571160	-0.537078
C139	C	0.435309	0.516948	-0.480313
C140	C	0.462434	0.462740	-0.474567
C141	C	0.516692	0.354315	-0.463068
C142	C	0.516691	0.354317	-0.412046
C143	C	0.489564	0.408530	-0.417795
C144	C	0.489554	0.408524	-0.366783
N145	N	0.462433	0.462733	-0.372527
C146	C	0.435311	0.516945	-0.429292
C147	C	0.489558	0.408543	-0.678008
C148	C	0.489554	0.408545	-0.729028
C149	C	0.435308	0.516970	-0.791539
C150	C	0.435309	0.516968	-0.740518
C151	C	0.462437	0.462752	-0.683752
C152	C	0.435308	0.516934	-0.322146
C153	C	0.435306	0.516925	-0.271120
C154	C	0.489555	0.408500	-0.208614
C155	C	0.489554	0.408508	-0.259635
C156	C	0.462430	0.462730	-0.316403
O157	O	0.512595	0.362445	-0.313790
O158	O	0.412251	0.563046	-0.429482
C159	C	0.462433	0.462752	0.159906
C160	C	0.462434	0.462757	0.214203
C161	C	0.601260	0.323911	-0.000011
C162	C	0.648377	0.276796	0.000011
C163	C	0.462499	0.323945	0.159950
C164	C	0.462522	0.276841	0.214262
C165	C	0.601262	0.323928	0.159972
C166	C	0.648380	0.276818	0.214290
C167	C	0.323601	0.601543	-0.160124
C168	C	0.276483	0.648653	-0.214443
C169	C	0.323603	0.601559	-0.000142
C170	C	0.276485	0.648675	-0.000164
C171	C	0.462364	0.601526	-0.160103
C172	C	0.462341	0.648630	-0.214415
C173	C	0.643407	0.254670	-0.031227
C174	C	0.687675	0.210406	-0.031218
C175	C	0.736912	0.188266	0.000033
C176	C	0.741881	0.210396	0.031273
C177	C	0.697614	0.254662	0.031260
C178	C	0.489629	0.254720	0.271016
C179	C	0.489649	0.210467	0.322053
C180	C	0.462564	0.188332	0.316333
C181	C	0.435453	0.210458	0.259573
C182	C	0.435431	0.254713	0.208538
C183	C	0.697608	0.254688	0.208563
C184	C	0.741884	0.210429	0.259597
C185	C	0.736932	0.188298	0.316357
C186	C	0.687699	0.210432	0.322082
C187	C	0.643424	0.254693	0.271049
C188	C	0.227255	0.670789	-0.208716
C189	C	0.182979	0.715061	-0.259750
C190	C	0.187931	0.737194	-0.316509
C191	C	0.237164	0.715057	-0.322235
C192	C	0.281439	0.670789	-0.271202
C193	C	0.281455	0.670805	0.031069
C194	C	0.237188	0.715082	0.031046
C195	C	0.187951	0.737224	-0.000207
C196	C	0.182982	0.715091	-0.031444
C197	C	0.227249	0.670819	-0.031425
C198	C	0.489431	0.670750	-0.208676
C199	C	0.489420	0.715004	-0.259703
C200	C	0.462315	0.737139	-0.316467
C201	C	0.435224	0.715014	-0.322205
C202	C	0.435238	0.670758	-0.271179
H203	H	0.570307	-0.251695	0.124298
H204	H	0.781975	0.192362	0.056717
O205	O	0.409036	0.569591	-0.746028
C206	C	0.443822	0.572841	-0.718395
H207	H	0.479510	0.525772	-0.683607
H208	H	0.424153	0.595789	-0.695752
H209	H	0.455931	0.599590	-0.753479
O210	O	0.538130	0.200468	0.087178
C211	C	0.571976	0.137606	0.126177
H212	H	0.551323	0.117313	0.124072
H213	H	0.584366	0.123573	0.173726
H214	H	0.607609	0.121099	0.112270
H215	H	0.321521	0.652766	-0.275872
H216	H	0.151875	0.773241	-0.358059
O217	O	0.515828	0.355911	-0.622835
C218	C	0.481038	0.352664	-0.591471
H219	H	0.445355	0.399734	-0.610962
H220	H	0.500706	0.329705	-0.542359
H221	H	0.468920	0.325927	-0.595730
O222	O	0.462572	0.145396	0.365955
C223	C	0.441007	0.167044	0.400116
H224	H	0.444667	0.204700	0.388934
H225	H	0.462542	0.129248	0.449620
H226	H	0.398377	0.184690	0.389416
O227	O	0.409199	0.188859	0.254128
C228	C	0.415032	0.145061	0.311348
H229	H	0.451632	0.125723	0.345168
H230	H	0.418173	0.107806	0.310813
H231	H	0.380008	0.166234	0.324331
H232	H	0.241190	0.733084	-0.368455
O233	O	0.779890	0.145322	0.365989
C234	C	0.764969	0.130519	0.417319
H235	H	0.724105	0.169336	0.405603
H236	H	0.792935	0.121326	0.453347
H237	H	0.765801	0.088924	0.434514
H238	H	0.603342	0.272706	0.275721
H239	H	0.511636	0.364363	-0.162387
H240	H	0.321542	0.652781	0.056524
O241	O	0.595543	0.276221	-0.061538
C242	C	0.557530	0.320049	-0.054871
H243	H	0.574775	0.312780	-0.012669
H244	H	0.523408	0.316462	-0.051303
H245	H	0.543669	0.366346	-0.095248
O246	O	0.682749	0.188957	-0.061571
C247	C	0.629798	0.217999	-0.089159
H248	H	0.606202	0.236239	-0.064656
H249	H	0.623642	0.184797	-0.087465
H250	H	0.616733	0.256443	-0.137663
O251	O	0.462265	0.780113	-0.366093
C252	C	0.432521	0.794924	-0.417430
H253	H	0.430499	0.756110	-0.405723
H254	H	0.451283	0.804118	-0.453454
H255	H	0.391729	0.836520	-0.434626
O256	O	0.409169	0.276099	0.153420
C257	C	0.429114	0.228844	0.146925
H258	H	0.470435	0.191226	0.179249
H259	H	0.429036	0.245711	0.099201
H260	H	0.403999	0.211384	0.157072
O261	O	0.576378	-0.174104	0.131317
C262	C	0.610209	-0.236967	0.170308
H263	H	0.589545	-0.257242	0.168180
H264	H	0.622593	-0.251012	0.217864
H265	H	0.645847	-0.253482	0.156412
H266	H	0.142970	0.561109	-0.056820
H267	H	0.413155	0.733043	-0.368429
O268	O	0.779964	0.145279	0.000089
C269	C	0.824491	0.130463	0.034386
H270	H	0.814330	0.169281	0.036722
H271	H	0.855743	0.121254	0.012758
H272	H	0.839407	0.088876	0.081409
H273	H	0.701650	0.272700	0.162351
H274	H	0.392799	-0.197391	-0.080302
O275	O	0.682825	0.188923	0.377187
C276	C	0.655557	0.163302	0.383745
H277	H	0.631117	0.183297	0.337814
H278	H	0.629257	0.173005	0.410582
H279	H	0.684247	0.112888	0.408142
H280	H	0.532057	0.122862	0.080166
O281	O	0.386911	0.351772	-0.087212
C282	C	0.353062	0.356609	-0.126218
H283	H	0.373708	0.313822	-0.124109
H284	H	0.340682	0.396206	-0.173766
H285	H	0.317423	0.363710	-0.112320
O286	O	0.789666	0.188976	0.253921
C287	C	0.784537	0.218008	0.192879
H288	H	0.745038	0.236245	0.165672
H289	H	0.816284	0.184801	0.185779
H290	H	0.788141	0.256454	0.177826
O291	O	0.145006	0.780208	-0.000137
C292	C	0.159957	0.794998	0.034124
H293	H	0.200822	0.756170	0.067170
H294	H	0.132003	0.804199	0.059553
H295	H	0.159136	0.836584	0.003353
H296	H	0.413176	0.652753	-0.275859
O297	O	0.515952	0.189080	0.377153
C298	C	0.496004	0.236321	0.383670
H299	H	0.476135	0.280597	0.337725
H300	H	0.528989	0.229647	0.410500
H301	H	0.466757	0.236922	0.408055
H302	H	0.145281	0.310169	0.087900
O303	O	0.409029	0.569552	-0.276630
C304	C	0.443813	0.572799	-0.248989
H305	H	0.479500	0.525730	-0.214202
H306	H	0.424141	0.595743	-0.226344
H307	H	0.455923	0.599550	-0.284068
H308	H	0.065024	0.310164	0.087915
H309	H	0.701668	0.272671	0.056702
H310	H	0.354576	0.177148	-0.124452
O311	O	0.543092	0.301600	-0.457372
C312	C	0.567021	0.253756	-0.396325
H313	H	0.572371	0.269654	-0.369121
H314	H	0.606405	0.215841	-0.389196
H315	H	0.541640	0.237084	-0.381294
O316	O	0.515938	0.355921	-0.723517
C317	C	0.553982	0.352662	-0.751131
H318	H	0.542573	0.399727	-0.785912
H319	H	0.557276	0.329716	-0.773778
H320	H	0.592859	0.325907	-0.716033
O321	O	0.515862	0.276324	0.276502
C322	C	0.481039	0.338347	0.248844
H323	H	0.445369	0.357115	0.214064
H324	H	0.500683	0.361281	0.226187
H325	H	0.468907	0.346800	0.283913
H326	H	-0.140145	0.615293	-0.088039
O327	O	0.242114	0.736487	0.061449
C328	C	0.295065	0.707451	0.089030
H329	H	0.318674	0.662586	0.095227
H330	H	0.301241	0.699820	0.134417
H331	H	0.308097	0.736468	0.059751
H332	H	0.223248	0.561110	-0.056822
H333	H	0.223213	0.652770	-0.162504
H334	H	0.142895	0.733078	-0.255076
H335	H	0.413221	0.561086	-0.368364
H336	H	0.142888	0.733126	-0.056890
H337	H	0.223195	0.652802	-0.056857
H338	H	0.531903	-0.416829	0.080064
H339	H	0.511504	0.652735	-0.162460
H340	H	0.511480	0.733013	-0.255019
H341	H	-0.218110	0.364356	0.056671
H342	H	0.531936	-0.336587	0.080076
O343	O	0.381764	0.623862	-0.542744
C344	C	0.328854	0.656841	-0.574229
H345	H	0.324431	0.641420	-0.602380
H346	H	0.312233	0.706432	-0.604577
H347	H	0.307114	0.649339	-0.541192
O348	O	0.386850	0.264567	-0.087074
C349	C	0.358804	0.241308	-0.059993
H350	H	0.383554	0.201341	-0.011751
H351	H	0.348268	0.226496	-0.085395
H352	H	0.321914	0.277279	-0.060934
O353	O	0.543109	0.301666	-0.356890
C354	C	0.581131	0.298420	-0.325488
H355	H	0.591187	0.329183	-0.358591
H356	H	0.617341	0.250471	-0.297262
H357	H	0.565612	0.312980	-0.295217
O358	O	0.348561	0.053934	-0.131513
C359	C	0.350985	0.066419	-0.188072
H360	H	0.391414	0.031801	-0.182940
H361	H	0.342241	0.112905	-0.218090
H362	H	0.321260	0.064647	-0.208922
O363	O	0.348431	-0.033228	-0.131400
C364	C	0.299367	0.000949	-0.128618
H365	H	0.303811	-0.009328	-0.082010
H366	H	0.273319	-0.010730	-0.138717
H367	H	0.281295	0.050539	-0.162878
H368	H	-0.396816	0.561069	-0.056773
O369	O	0.386766	-0.275184	-0.087204
C370	C	0.358707	-0.298451	-0.060197
H371	H	0.383393	-0.338360	-0.011919
H372	H	0.348295	-0.313353	-0.085578
H373	H	0.321746	-0.262457	-0.061257
O374	O	0.576421	-0.128465	0.131291
C375	C	0.610255	-0.133298	0.170310
H376	H	0.608429	-0.090521	0.146504
H377	H	0.651500	-0.172911	0.184588
H378	H	0.598196	-0.140371	0.211391
O379	O	0.576326	-0.041210	0.131289
C380	C	0.552880	-0.017910	0.163621
H381	H	0.511010	0.022020	0.135140
H382	H	0.574901	-0.003030	0.175651
H383	H	0.553772	-0.053876	0.206215
H384	H	0.321682	0.364399	0.056615
O385	O	0.348478	0.099555	-0.131439
C386	C	0.314659	0.162419	-0.170448
H387	H	0.316505	0.182707	-0.146632
H388	H	0.273407	0.176478	-0.184726
H389	H	0.326718	0.178904	-0.211529
H390	H	0.241424	0.364387	0.056634
H391	H	-0.298387	0.364357	0.056668
O392	O	0.381802	0.623791	-0.643268
C393	C	0.343758	0.627052	-0.674655
H394	H	0.355171	0.579986	-0.655171
H395	H	0.340460	0.650006	-0.723762
H396	H	0.304882	0.653799	-0.670413
H397	H	-0.316557	0.561077	-0.056772
H398	H	-0.087669	0.615306	-0.088039
H399	H	0.012551	0.310160	0.087921
O400	O	-0.008282	0.623877	-0.093005
C401	C	-0.061241	0.671720	-0.120577
H402	H	-0.084828	0.655822	-0.126753
H403	H	-0.067437	0.709638	-0.165974
H404	H	-0.074282	0.688389	-0.091303
O405	O	0.409011	0.569580	-0.846731
C406	C	0.414822	0.557951	-0.890527
H407	H	0.451439	0.511356	-0.870621
H408	H	0.417917	0.592565	-0.929872
H409	H	0.379810	0.560529	-0.906501
H410	H	-0.220404	0.615289	-0.088032
O411	O	-0.066959	0.301656	0.092920
C412	C	-0.090940	0.298431	0.136754
H413	H	-0.092992	0.329197	0.148349
H414	H	-0.067453	0.250486	0.178496
H415	H	-0.131764	0.313000	0.118865
H416	H	0.511636	0.364364	-0.254953
