data_functionalizedCrystal
_audit_creation_method	'MofGen! by Chris Wilmer'
_symmetry_space_group_name_H-M	'P1'
_symmetry_Int_Tables_number	1
_symmetry_cell_setting	triclinic
loop_
_symmetry_equiv_pos_as_xyz
  x,y,z
_cell_length_a	14.971506
_cell_length_b	10.654551
_cell_length_c	14.048226
_cell_angle_alpha	89.996418
_cell_angle_beta	89.993237
_cell_angle_gamma	84.053875
loop_
_atom_site_label
_atom_site_type_symbol
_atom_site_fract_x
_atom_site_fract_y
_atom_site_fract_z
O1	O	1.187828	0.163780	-0.079161
O2	O	0.927536	0.183352	-0.079161
O3	O	1.063666	-0.009237	-0.079162
O4	O	1.051698	0.356369	-0.079161
O5	O	1.063649	-0.009248	0.079160
O6	O	0.927520	0.183340	0.079160
O7	O	1.187811	0.163768	0.079160
Zn8	Zn	1.057663	0.173553	0.104297
Zn9	Zn	1.057685	0.173568	-0.104298
O10	O	1.051681	0.356357	0.079161
C11	C	0.894199	0.182466	-0.000000
C12	C	0.794888	0.179830	-0.000000
C13	C	0.357167	0.282910	-0.000010
C14	C	0.450481	0.285378	-0.000014
C15	C	0.507085	0.172224	-0.000010
C16	C	0.470371	0.056596	-0.000012
C17	C	0.377059	0.054130	-0.000014
C18	C	0.664862	0.061744	-0.000004
C19	C	0.758180	0.064210	0.000001
C20	C	0.738284	0.292992	-0.000003
C21	C	0.644972	0.290526	-0.000006
C22	C	0.608264	0.174897	-0.000006
C23	C	1.062779	-0.056031	-0.000003
C24	C	1.060149	-0.195446	-0.000009
C25	C	1.058924	-0.260939	-0.086309
C26	C	1.056446	-0.391933	-0.086304
C27	C	1.056420	-0.391931	0.086306
C28	C	1.058893	-0.260938	0.086301
C29	C	1.060181	-0.195447	-0.172619
C30	C	1.058957	-0.260940	-0.258925
C31	C	1.056479	-0.391934	-0.258921
C32	C	1.055224	-0.457435	-0.172610
C33	C	1.221148	0.164654	-0.000003
C34	C	1.320459	0.167291	-0.000009
C35	C	1.052569	0.403151	0.000000
C36	C	1.055198	0.542567	0.000000
N37	N	1.057654	0.173542	0.246658
N38	N	1.057700	0.173569	-0.246659
C39	C	1.117952	0.088299	0.296476
C40	C	1.117958	0.088298	0.396133
C41	C	1.057670	0.173547	0.445971
C42	C	0.997366	0.258794	0.396147
C43	C	0.997356	0.258788	0.296491
C44	C	0.997392	0.258803	0.603861
C45	C	0.997402	0.258812	0.703524
C46	C	1.117993	0.088313	0.703503
C47	C	1.117984	0.088307	0.603847
C48	C	1.057681	0.173556	0.554030
H49	H	0.311086	0.375053	-0.000006
H50	H	1.167094	0.018901	0.744071
O51	O	1.060044	-0.197165	-0.342706
C52	C	0.984131	-0.107320	-0.347879
H53	H	0.958723	-0.082986	-0.272946
H54	H	0.929029	-0.147941	-0.390453
C55	C	1.041169	-0.017066	-0.489277
C56	C	1.009968	0.012829	-0.397242
H57	H	1.057104	0.057046	-0.519730
H58	H	1.092312	-0.077599	-0.485794
H59	H	0.995246	-0.050919	-0.524743
H60	H	1.055895	0.046666	-0.361774
H61	H	0.958833	0.073371	-0.400719
O62	O	0.938741	0.341650	0.751791
C63	C	0.885519	0.416899	0.686453
H64	H	0.884195	0.365412	0.615416
H65	H	0.915113	0.510280	0.675847
C66	C	0.790820	0.505742	0.812620
C67	C	0.789187	0.442500	0.725372
H68	H	0.731398	0.521540	0.836628
H69	H	0.826678	0.455050	0.856640
H70	H	0.815486	0.583553	0.803770
H71	H	0.764532	0.364685	0.734226
H72	H	0.753322	0.493180	0.681355
H73	H	1.053192	-0.564097	-0.172614
H74	H	0.634978	-0.032413	-0.000008
H75	H	1.055399	-0.445272	0.156576
O76	O	0.485991	0.397800	0.000032
C77	C	0.416022	0.497141	0.000011
H78	H	0.352419	0.461843	0.029984
H79	H	0.403047	0.532060	-0.075942
C80	C	0.521154	0.649525	0.025289
C81	C	0.443037	0.606173	0.062110
H82	H	0.537818	0.716784	0.063590
H83	H	0.568294	0.582597	0.025299
H84	H	0.510331	0.678614	-0.038005
H85	H	0.453864	0.577070	0.125398
H86	H	0.395899	0.673098	0.062111
O87	O	0.773788	0.405425	0.000033
C88	C	0.703819	0.504767	0.000012
H89	H	0.640217	0.469470	0.029986
H90	H	0.690843	0.539682	-0.075943
C91	C	0.808951	0.657151	0.025284
C92	C	0.730835	0.613801	0.062107
H93	H	0.825617	0.724412	0.063583
H94	H	0.856092	0.590224	0.025295
H95	H	0.798128	0.686238	-0.038011
H96	H	0.741663	0.584700	0.125396
H97	H	0.683697	0.680726	0.062108
H98	H	1.062202	-0.088786	-0.172632
O99	O	0.525446	-0.053238	-0.000136
C100	C	0.580014	-0.058669	-0.082140
H101	H	0.585361	0.041018	-0.109479
H102	H	0.548971	-0.116069	-0.139557
C103	C	0.667766	-0.244158	-0.023646
C104	C	0.674340	-0.121720	-0.057220
H105	H	0.725950	-0.283056	-0.008277
H106	H	0.631001	-0.240503	0.031601
H107	H	0.641893	-0.291976	-0.071499
H108	H	0.700202	-0.073901	-0.009363
H109	H	0.711112	-0.125369	-0.112458
H110	H	1.055473	-0.445254	-0.329196
H111	H	1.059871	-0.207609	0.156573
H112	H	0.347173	-0.040019	-0.000015
H113	H	0.948255	0.328200	0.255930
O114	O	1.176550	0.005365	0.248215
C115	C	1.229785	-0.069852	0.313560
H116	H	1.193111	-0.071353	0.384607
H117	H	1.296480	-0.028913	0.324140
C118	C	1.292423	-0.203446	0.187417
C119	C	1.247377	-0.205298	0.274675
H120	H	1.303279	-0.286994	0.163429
H121	H	1.256561	-0.152768	0.143391
H122	H	1.347998	-0.169324	0.196245
H123	H	1.191799	-0.239404	0.265843
H124	H	1.283230	-0.255985	0.318698
O125	O	0.938676	0.341476	0.444516
C126	C	0.850010	0.320859	0.420172
H127	H	0.848953	0.220308	0.392784
H128	H	0.824158	0.390401	0.362328
C129	C	0.790801	0.463720	0.542352
C130	C	0.789502	0.340219	0.508722
H131	H	0.753475	0.475668	0.596972
H132	H	0.850536	0.477616	0.558752
H133	H	0.769260	0.521658	0.494141
H134	H	0.811053	0.282285	0.556929
H135	H	0.729768	0.326315	0.492333
H136	H	0.598887	0.382665	-0.000003
H137	H	0.804265	-0.027929	-0.000004
O138	O	1.176571	0.005673	0.444636
C139	C	1.232176	0.073079	0.502245
H140	H	1.197153	0.171262	0.517170
H141	H	1.298329	0.081778	0.463826
C142	C	1.293880	-0.118258	0.578582
C143	C	1.250861	0.002328	0.596920
H144	H	1.305410	-0.161902	0.636980
H145	H	1.256421	-0.163672	0.539767
H146	H	1.349003	-0.110992	0.546564
H147	H	1.195734	-0.004939	0.628927
H148	H	1.288311	0.047740	0.635742
O149	O	1.176455	0.005199	0.555585
C150	C	1.161050	-0.119057	0.580123
H151	H	1.089404	-0.119673	0.607470
H152	H	1.210323	-0.155743	0.638056
C153	C	1.262439	-0.203646	0.458140
C154	C	1.174440	-0.204403	0.491721
H155	H	1.270702	-0.256294	0.403611
H156	H	1.272821	-0.119933	0.441610
H157	H	1.303490	-0.234214	0.506426
H158	H	1.133391	-0.173821	0.443440
H159	H	1.164051	-0.288114	0.508240
O160	O	0.938938	0.341666	0.555360
C161	C	0.987313	0.419274	0.497715
H162	H	1.056991	0.369422	0.482776
H163	H	0.993967	0.512108	0.536112
C164	C	0.851465	0.507218	0.421410
C165	C	0.937042	0.445983	0.403054
H166	H	0.820455	0.523699	0.363020
H167	H	0.818873	0.454936	0.460248
H168	H	0.857022	0.584573	0.453409
H169	H	0.931484	0.368624	0.371066
H170	H	0.969633	0.498253	0.364208
