data_functionalizedCrystal
_audit_creation_method	'MofGen! by Chris Wilmer'
_symmetry_space_group_name_H-M	'P1'
_symmetry_Int_Tables_number	1
_symmetry_cell_setting	triclinic
loop_
_symmetry_equiv_pos_as_xyz
  x,y,z
_cell_length_a	17.640112
_cell_length_b	19.121063
_cell_length_c	17.640968
_cell_angle_alpha	98.351500
_cell_angle_beta	87.860920
_cell_angle_gamma	103.148881
loop_
_atom_site_label
_atom_site_type_symbol
_atom_site_fract_x
_atom_site_fract_y
_atom_site_fract_z
Zn1	Zn	1.247036	-0.020114	0.196194
Zn2	Zn	1.580369	0.313220	0.529527
Zn3	Zn	1.913703	0.646553	0.862860
Zn4	Zn	1.215936	-0.164540	0.077209
Zn5	Zn	1.549269	0.168794	0.410542
Zn6	Zn	1.882602	0.502127	0.743876
Zn7	Zn	1.092687	-0.065650	0.097361
Zn8	Zn	1.426021	0.267683	0.430695
Zn9	Zn	1.759354	0.601017	0.764028
Zn10	Zn	1.115017	-0.155325	0.229281
Zn11	Zn	1.448350	0.178008	0.562614
Zn12	Zn	1.781683	0.511342	0.895947
O13	O	1.167669	-0.101407	0.150011
O14	O	1.501002	0.231926	0.483345
O15	O	1.834336	0.565260	0.816678
O16	O	1.349741	-0.024071	0.158129
O17	O	1.683074	0.309262	0.491463
O18	O	2.016407	0.642595	0.824796
O19	O	1.177226	-0.174335	-0.025122
O20	O	1.510559	0.158998	0.308211
O21	O	1.843893	0.492331	0.641545
O22	O	1.116833	0.038363	0.105059
O23	O	1.450166	0.371696	0.438392
O24	O	1.783499	0.705029	0.771725
O25	O	1.326892	-0.130180	0.070712
O26	O	1.660225	0.203153	0.404045
O27	O	1.993558	0.536486	0.737378
O28	O	1.230232	0.071818	0.177670
O29	O	1.563565	0.405151	0.511004
O30	O	1.896898	0.738485	0.844337
O31	O	1.086676	-0.101681	-0.010316
O32	O	1.420009	0.231652	0.323017
O33	O	1.753343	0.564985	0.656351
O34	O	0.988819	-0.092746	0.137142
O35	O	1.322152	0.240587	0.470475
O36	O	1.655486	0.573920	0.803808
O37	O	1.154890	-0.114475	0.329896
O38	O	1.488223	0.218858	0.663229
O39	O	1.821556	0.552191	0.996563
O40	O	1.005224	-0.158630	0.234062
O41	O	1.338558	0.174703	0.567395
O42	O	1.671891	0.508037	0.900729
O43	O	1.251884	-0.015136	0.305587
O44	O	1.585217	0.318197	0.638920
O45	O	1.918550	0.651530	0.972254
O46	O	1.198878	-0.261289	0.102795
O47	O	1.532211	0.072044	0.436128
O48	O	1.865545	0.405377	0.769461
O49	O	1.124733	-0.254519	0.214521
O50	O	1.458067	0.078814	0.547854
O51	O	1.791400	0.412147	0.881188
C52	C	0.969322	-0.129630	0.191380
C53	C	1.302655	0.203703	0.524713
C54	C	1.635989	0.537037	0.858046
C55	C	0.884471	-0.141717	0.209096
C56	C	1.217805	0.191616	0.542429
C57	C	1.551138	0.524950	0.875762
C58	C	0.562686	-0.009571	0.015428
C59	C	0.896019	0.323763	0.348761
C60	C	1.229352	0.657096	0.682095
C61	C	0.482957	-0.020940	0.032086
C62	C	0.816291	0.312393	0.365419
C63	C	1.149624	0.645727	0.698753
C64	C	0.500055	-0.089704	0.132851
C65	C	0.833388	0.243629	0.466184
C66	C	1.166721	0.576962	0.799517
C67	C	0.579787	-0.078338	0.116204
C68	C	0.913120	0.254996	0.449537
C69	C	1.246454	0.588329	0.782870
C70	C	0.611096	-0.038271	0.057491
C71	C	0.944429	0.295062	0.390824
C72	C	1.277762	0.628396	0.724158
C73	C	0.628197	-0.107038	0.158266
C74	C	0.961530	0.226295	0.491600
C75	C	1.294864	0.559629	0.824933
C76	C	0.707921	-0.095675	0.141618
C77	C	1.041255	0.237658	0.474951
C78	C	1.374588	0.570991	0.808284
C79	C	0.739236	-0.055612	0.082906
C80	C	1.072569	0.277721	0.416239
C81	C	1.405902	0.611054	0.749573
C82	C	0.690820	-0.026908	0.040842
C83	C	1.024153	0.306425	0.374175
C84	C	1.357487	0.639758	0.707509
C85	C	0.596886	-0.147109	0.216975
C86	C	0.930219	0.186225	0.550309
C87	C	1.263552	0.519558	0.883642
C88	C	0.645295	-0.175809	0.259038
C89	C	0.978629	0.157524	0.592371
C90	C	1.311962	0.490858	0.925705
C91	C	0.725022	-0.164442	0.242393
C92	C	1.058356	0.168891	0.575727
C93	C	1.391689	0.502224	0.909060
C94	C	0.756337	-0.124379	0.183682
C95	C	1.089670	0.208954	0.517015
C96	C	1.423004	0.542287	0.850348
C97	C	0.773438	-0.193146	0.284457
C98	C	1.106771	0.140187	0.617791
C99	C	1.440105	0.473520	0.951124
C100	C	0.853163	-0.181784	0.267809
C101	C	1.186496	0.151550	0.601142
C102	C	1.519829	0.484883	0.934475
C103	C	0.836061	-0.113017	0.167033
C104	C	1.169395	0.220317	0.500366
C105	C	1.502728	0.553650	0.833700
C106	C	1.160878	-0.283301	0.160074
C107	C	1.494211	0.050032	0.493407
C108	C	1.827545	0.383366	0.826740
C109	C	1.158048	-0.361101	0.164389
C110	C	1.491381	-0.027767	0.497722
C111	C	1.824715	0.305566	0.831055
C112	C	1.195368	-0.401138	0.108278
C113	C	1.528701	-0.067805	0.441611
C114	C	1.862035	0.265528	0.774945
C115	C	1.192712	-0.474238	0.112340
C116	C	1.526045	-0.140904	0.445673
C117	C	1.859379	0.192429	0.779006
C118	C	1.152731	-0.507299	0.172510
C119	C	1.486064	-0.173966	0.505844
C120	C	1.819397	0.159368	0.839177
C121	C	1.115410	-0.467255	0.228626
C122	C	1.448743	-0.133922	0.561960
C123	C	1.782077	0.199411	0.895293
C124	C	1.118071	-0.394156	0.224567
C125	C	1.451404	-0.060823	0.557900
C126	C	1.784738	0.272511	0.891234
C127	C	1.142766	-0.727835	0.187679
C128	C	1.476100	-0.394502	0.521012
C129	C	1.809433	-0.061169	0.854346
C130	C	1.140106	-0.800941	0.191733
C131	C	1.473439	-0.467607	0.525066
C132	C	1.806773	-0.134274	0.858400
C133	C	1.217410	-0.807918	0.075447
C134	C	1.550743	-0.474584	0.408780
C135	C	1.884076	-0.141251	0.742113
C136	C	1.220063	-0.734818	0.071390
C137	C	1.553397	-0.401485	0.404723
C138	C	1.886730	-0.068151	0.738056
C139	C	1.182746	-0.694779	0.127508
C140	C	1.516079	-0.361446	0.460842
C141	C	1.849413	-0.028113	0.794175
C142	C	1.150013	-0.582019	0.176662
C143	C	1.483346	-0.248685	0.509996
C144	C	1.816679	0.084648	0.843329
C145	C	1.185469	-0.620060	0.123359
C146	C	1.518802	-0.286727	0.456692
C147	C	1.852136	0.046607	0.790025
C148	C	1.366791	-0.073074	0.108482
C149	C	1.700124	0.260259	0.441815
C150	C	2.033457	0.593592	0.775148
C151	C	1.451644	-0.061001	0.090784
C152	C	1.784978	0.272333	0.424118
C153	C	2.118311	0.605666	0.757451
C154	C	1.209347	-0.058698	0.345729
C155	C	1.542680	0.274635	0.679062
C156	C	1.876013	0.607968	1.012396
C157	C	1.227107	-0.040499	0.429132
C158	C	1.560441	0.292835	0.762466
C159	C	1.893774	0.626168	1.095799
C160	C	1.174511	0.081204	0.139922
C161	C	1.507844	0.414537	0.473255
C162	C	1.841177	0.747870	0.806588
C163	C	1.177426	0.159022	0.135622
C164	C	1.510759	0.492355	0.468955
C165	C	1.844093	0.825688	0.802289
C166	C	1.126199	-0.143893	-0.044957
C167	C	1.459532	0.189441	0.288376
C168	C	1.792866	0.522774	0.621709
C169	C	1.108594	-0.161874	-0.128402
C170	C	1.441927	0.171459	0.204931
C171	C	1.775260	0.504792	0.538265
C172	C	1.033051	-0.239247	0.766711
C173	C	1.366384	0.094087	1.100044
C174	C	1.699717	0.427420	1.433378
C175	C	1.049756	-0.222134	0.845077
C176	C	1.383089	0.111199	1.178411
C177	C	1.716423	0.444533	1.511744
C178	C	1.150747	-0.118701	0.819756
C179	C	1.484080	0.214632	1.153090
C180	C	1.817414	0.547966	1.486423
C181	C	1.134048	-0.135803	0.741387
C182	C	1.467381	0.197530	1.074720
C183	C	1.800715	0.530864	1.408053
C184	C	1.075199	-0.196077	0.714871
C185	C	1.408533	0.137256	1.048204
C186	C	1.741866	0.470590	1.381537
C187	C	1.176197	-0.092633	0.689546
C188	C	1.509530	0.240700	1.022880
C189	C	1.842863	0.574033	1.356213
C190	C	1.159501	-0.109736	0.611183
C191	C	1.492834	0.223597	0.944517
C192	C	1.826168	0.556930	1.277850
C193	C	1.100657	-0.170009	0.584660
C194	C	1.433990	0.163324	0.917994
C195	C	1.767324	0.496658	1.251327
C196	C	1.058504	-0.213180	0.636508
C197	C	1.391837	0.120153	0.969841
C198	C	1.725171	0.453486	1.303174
C199	C	1.235048	-0.032362	0.716063
C200	C	1.568382	0.300971	1.049397
C201	C	1.901715	0.634304	1.382730
C202	C	1.277197	0.010807	0.664223
C203	C	1.610530	0.344141	0.997556
C204	C	1.943864	0.677474	1.330890
C205	C	1.260498	-0.006292	0.585859
C206	C	1.593832	0.327041	0.919192
C207	C	1.927165	0.660374	1.252525
C208	C	1.201654	-0.066565	0.559336
C209	C	1.534987	0.266768	0.892669
C210	C	1.868321	0.600102	1.226003
C211	C	1.302651	0.036879	0.534012
C212	C	1.635984	0.370212	0.867345
C213	C	1.969318	0.703545	1.200678
C214	C	1.285956	0.019776	0.455648
C215	C	1.619289	0.353109	0.788982
C216	C	1.952622	0.686442	1.122315
C217	C	1.184959	-0.083668	0.480973
C218	C	1.518292	0.249665	0.814306
C219	C	1.851625	0.582998	1.147640
H220	H	0.861557	-0.080377	0.119234
H221	H	1.194890	0.252956	0.452567
H222	H	1.528224	0.586289	0.785900
H223	H	0.443545	0.002440	-0.002166
H224	H	0.776878	0.335774	0.331167
H225	H	1.110211	0.669107	0.664501
H226	H	1.320276	0.054930	0.413438
H227	H	1.653610	0.388263	0.746772
H228	H	1.986943	0.721596	1.080105
H229	H	1.227921	-0.374226	0.059278
H230	H	1.561254	-0.040893	0.392612
H231	H	1.894588	0.292440	0.725945
Cl232	Cl	0.605926	-0.226187	0.332837
Cl233	Cl	0.939259	0.107146	0.666170
Cl234	Cl	1.272593	0.440480	0.999504
H235	H	1.112379	-0.695242	0.233372
H236	H	1.445713	-0.361909	0.566705
H237	H	1.779046	-0.028576	0.900038
Cl238	Cl	1.376637	0.112642	0.567355
Cl239	Cl	1.709970	0.445976	0.900689
Cl240	Cl	2.043303	0.779309	1.234022
H241	H	1.252619	-0.707901	0.022394
H242	H	1.585953	-0.374568	0.355728
H243	H	1.919286	-0.041234	0.689061
Cl244	Cl	0.839461	-0.041331	0.061971
Cl245	Cl	1.172794	0.292002	0.395304
Cl246	Cl	1.506128	0.625336	0.728638
Cl247	Cl	1.224727	-0.042932	0.853099
Cl248	Cl	1.558060	0.290401	1.186432
Cl249	Cl	1.891394	0.623735	1.519765
Cl250	Cl	1.079670	-0.191515	0.486145
Cl251	Cl	1.413004	0.141819	0.819478
Cl252	Cl	1.746337	0.475152	1.152812
Cl253	Cl	0.914024	-0.217866	0.320686
Cl254	Cl	1.247358	0.115467	0.654020
Cl255	Cl	1.580691	0.448800	0.987353
H256	H	1.247793	-0.840524	0.029759
H257	H	1.581126	-0.507191	0.363092
H258	H	1.914459	-0.173857	0.696426
H259	H	1.107560	-0.827852	0.240742
H260	H	1.440894	-0.494519	0.574075
H261	H	1.774227	-0.161186	0.907409
H262	H	0.474551	-0.122329	0.180653
H263	H	0.807885	0.211004	0.513986
H264	H	1.141218	0.544338	0.847319
H265	H	1.223101	-0.506834	0.066648
H266	H	1.556435	-0.173500	0.399981
H267	H	1.889768	0.159833	0.733315
Cl268	Cl	0.734065	-0.243530	0.358251
Cl269	Cl	1.067398	0.089803	0.691584
Cl270	Cl	1.400731	0.423137	1.024917
H271	H	0.716316	0.005731	-0.006957
H272	H	1.049649	0.339064	0.326376
H273	H	1.382983	0.672397	0.659710
Cl274	Cl	0.602053	0.040806	-0.058379
Cl275	Cl	0.935386	0.374139	0.274954
Cl276	Cl	1.268719	0.707472	0.608288
Cl277	Cl	1.065153	-0.508817	0.304273
Cl278	Cl	1.398486	-0.175483	0.637607
Cl279	Cl	1.731819	0.157850	0.970940
Cl280	Cl	1.071155	-0.343821	0.295111
Cl281	Cl	1.404489	-0.010488	0.628445
Cl282	Cl	1.737822	0.322845	0.961778
H283	H	1.010566	-0.262247	0.614920
H284	H	1.343899	0.071086	0.948254
H285	H	1.677233	0.404419	1.281587
H286	H	0.531968	-0.156359	0.230528
H287	H	0.865302	0.176974	0.563862
H288	H	1.198635	0.510308	0.897195
H289	H	1.218025	-0.593138	0.074370
H290	H	1.551359	-0.259805	0.407703
H291	H	1.884692	0.073528	0.741037
Cl292	Cl	1.351177	0.086576	0.697565
Cl293	Cl	1.684510	0.419910	1.030899
Cl294	Cl	2.017844	0.753243	1.364232
H295	H	1.117458	-0.608946	0.225652
H296	H	1.450791	-0.275612	0.558985
H297	H	1.784125	0.057721	0.892319
Cl298	Cl	1.110970	-0.159438	0.447634
Cl299	Cl	1.444303	0.173895	0.780967
Cl300	Cl	1.777637	0.507229	1.114300
H301	H	0.985113	-0.288314	0.745124
H302	H	1.318446	0.045019	1.078457
H303	H	1.651780	0.378353	1.411790
Cl304	Cl	0.996760	-0.276410	0.910248
Cl305	Cl	1.330093	0.056924	1.243582
Cl306	Cl	1.663426	0.390257	1.576915
H307	H	1.248641	-0.018440	0.779872
H308	H	1.581975	0.314893	1.113206
H309	H	1.915308	0.648226	1.446539
