data_functionalizedCrystal
_audit_creation_method	'MofGen! by Chris Wilmer'
_symmetry_space_group_name_H-M	'P1'
_symmetry_Int_Tables_number	1
_symmetry_cell_setting	triclinic
loop_
_symmetry_equiv_pos_as_xyz
  x,y,z
_cell_length_a	18.101398
_cell_length_b	18.215405
_cell_length_c	18.215399
_cell_angle_alpha	89.969449
_cell_angle_beta	89.974986
_cell_angle_gamma	90.020151
loop_
_atom_site_label
_atom_site_type_symbol
_atom_site_fract_x
_atom_site_fract_y
_atom_site_fract_z
Zn1	Zn	1.132158	-0.293085	-0.416204
Zn2	Zn	1.465491	0.040249	-0.082871
Zn3	Zn	1.798825	0.373582	0.250462
Zn4	Zn	1.132066	-0.416156	-0.293132
Zn5	Zn	1.465399	-0.082823	0.040201
Zn6	Zn	1.798733	0.250511	0.373534
Zn7	Zn	1.008315	-0.293098	-0.293140
Zn8	Zn	1.341649	0.040236	0.040193
Zn9	Zn	1.674982	0.373569	0.373526
Zn10	Zn	1.008281	-0.416104	-0.416146
Zn11	Zn	1.341614	-0.082771	-0.082813
Zn12	Zn	1.674948	0.250563	0.250521
O13	O	1.070205	-0.354611	-0.354656
O14	O	1.403538	-0.021277	-0.021322
O15	O	1.736872	0.312056	0.312011
O16	O	1.235779	-0.309427	-0.399899
O17	O	1.569112	0.023907	-0.066566
O18	O	1.902445	0.357240	0.266767
O19	O	1.115626	-0.399859	-0.190149
O20	O	1.448959	-0.066526	0.143184
O21	O	1.782293	0.266807	0.476518
O22	O	1.024796	-0.190112	-0.309493
O23	O	1.358130	0.143222	0.023840
O24	O	1.691463	0.476555	0.357174
O25	O	1.235711	-0.399847	-0.309479
O26	O	1.569044	-0.066513	0.023854
O27	O	1.902378	0.266820	0.357188
O28	O	1.115783	-0.190102	-0.399907
O29	O	1.449116	0.143231	-0.066574
O30	O	1.782450	0.476564	0.266759
O31	O	1.024707	-0.309449	-0.190155
O32	O	1.358040	0.023884	0.143178
O33	O	1.691374	0.357218	0.476512
O34	O	0.904678	-0.309398	-0.309437
O35	O	1.238011	0.023935	0.023897
O36	O	1.571345	0.357268	0.357230
O37	O	1.024738	-0.399758	-0.519138
O38	O	1.358071	-0.066425	-0.185805
O39	O	1.691405	0.266909	0.147528
O40	O	0.904653	-0.399770	-0.399808
O41	O	1.237986	-0.066437	-0.066475
O42	O	1.571319	0.266896	0.266858
O43	O	1.115750	-0.309376	-0.519181
O44	O	1.449083	0.023957	-0.185848
O45	O	1.782416	0.357290	0.147486
O46	O	1.115593	-0.519133	-0.309423
O47	O	1.448926	-0.185800	0.023911
O48	O	1.782259	0.147533	0.357244
O49	O	1.024649	-0.519095	-0.399800
O50	O	1.357982	-0.185762	-0.066467
O51	O	1.691315	0.147572	0.266866
C52	C	1.070127	-0.545817	-0.354620
C53	C	1.403460	-0.212484	-0.021287
C54	C	1.736794	0.120850	0.312046
C55	C	1.070161	-0.627616	-0.354630
C56	C	1.403495	-0.294282	-0.021297
C57	C	1.736828	0.039051	0.312037
C58	C	0.877795	-0.354581	-0.354617
C59	C	1.211128	-0.021247	-0.021284
C60	C	1.544461	0.312086	0.312049
C61	C	0.795481	-0.354586	-0.354618
C62	C	1.128814	-0.021252	-0.021285
C63	C	1.462147	0.312081	0.312048
C64	C	1.117627	-0.815805	-0.307657
C65	C	1.450960	-0.482472	0.025677
C66	C	1.784294	-0.149138	0.359010
C67	C	1.117660	-0.892664	-0.307675
C68	C	1.450993	-0.559331	0.025659
C69	C	1.784327	-0.225997	0.358992
C70	C	1.022878	-0.892664	-0.401708
C71	C	1.356211	-0.559331	-0.068374
C72	C	1.689545	-0.225997	0.264959
C73	C	1.022849	-0.815807	-0.401693
C74	C	1.356183	-0.482473	-0.068360
C75	C	1.689516	-0.149140	0.264974
C76	C	1.070223	-0.777379	-0.354663
C77	C	1.403556	-0.444046	-0.021330
C78	C	1.736889	-0.110713	0.312003
C79	C	1.070285	-0.931095	-0.354696
C80	C	1.403618	-0.597762	-0.021363
C81	C	1.736951	-0.264429	0.311971
C82	C	1.070320	-1.014429	-0.354716
C83	C	1.403653	-0.681096	-0.021382
C84	C	1.736987	-0.347762	0.311951
C85	C	1.070188	-0.694040	-0.354645
C86	C	1.403522	-0.360707	-0.021311
C87	C	1.736855	-0.027374	0.312022
C88	C	0.496390	-0.354632	-0.354680
C89	C	0.829723	-0.021298	-0.021347
C90	C	1.163056	0.312035	0.311986
C91	C	0.527706	-0.297488	-0.298098
C92	C	0.861039	0.035846	0.035235
C93	C	1.194373	0.369179	0.368568
C94	C	0.613324	-0.297641	-0.297857
C95	C	0.946657	0.035692	0.035477
C96	C	1.279991	0.369026	0.368810
C97	C	0.644772	-0.354608	-0.354650
C98	C	0.978105	-0.021275	-0.021316
C99	C	1.311439	0.312059	0.312017
C100	C	0.613662	-0.432131	-0.333455
C101	C	0.946995	-0.098798	-0.000122
C102	C	1.280329	0.234535	0.333212
C103	C	0.528017	-0.431814	-0.333062
C104	C	0.861350	-0.098481	0.000272
C105	C	1.194684	0.234853	0.333605
C106	C	0.528003	-0.334926	-0.432590
C107	C	0.861336	-0.001593	-0.099257
C108	C	1.194670	0.331740	0.234077
C109	C	0.613654	-0.333200	-0.432165
C110	C	0.946987	0.000133	-0.098831
C111	C	1.280320	0.333467	0.234502
C112	C	0.728632	-0.354600	-0.354633
C113	C	1.061965	-0.021266	-0.021300
C114	C	1.395298	0.312067	0.312033
C115	C	0.412530	-0.354645	-0.354695
C116	C	0.745863	-0.021312	-0.021361
C117	C	1.079197	0.312021	0.311972
C118	C	1.263367	-0.354641	-0.354695
C119	C	1.596700	-0.021308	-0.021361
C120	C	1.930034	0.312026	0.311972
C121	C	1.345681	-0.354654	-0.354711
C122	C	1.679014	-0.021321	-0.021378
C123	C	2.012348	0.312013	0.311955
C124	C	1.070250	-0.354560	-0.546609
C125	C	1.403584	-0.021227	-0.213275
C126	C	1.736917	0.312107	0.120058
C127	C	1.070269	-0.354538	-0.628408
C128	C	1.403603	-0.021205	-0.295074
C129	C	1.736936	0.312128	0.038259
C130	C	1.070304	-0.162658	-0.354707
C131	C	1.403637	0.170676	-0.021374
C132	C	1.736970	0.504009	0.311959
C133	C	1.070346	-0.080859	-0.354729
C134	C	1.403679	0.252475	-0.021396
C135	C	1.737013	0.585808	0.311937
C136	C	1.117676	-0.307432	-0.816625
C137	C	1.451010	0.025901	-0.483292
C138	C	1.784343	0.359234	-0.149959
C139	C	1.117685	-0.307411	-0.893484
C140	C	1.451019	0.025922	-0.560151
C141	C	1.784352	0.359256	-0.226817
C142	C	1.022915	-0.401530	-0.893428
C143	C	1.356248	-0.068197	-0.560095
C144	C	1.689582	0.265137	-0.226762
C145	C	1.022903	-0.401547	-0.816571
C146	C	1.356236	-0.068214	-0.483238
C147	C	1.689570	0.265119	-0.149904
C148	C	1.070288	-0.354500	-0.778171
C149	C	1.403621	-0.021166	-0.444838
C150	C	1.736955	0.312167	-0.111505
C151	C	1.070309	-0.354461	-0.931888
C152	C	1.403642	-0.021128	-0.598554
C153	C	1.736975	0.312206	-0.265221
C154	C	1.070318	-0.354438	-1.015221
C155	C	1.403651	-0.021105	-0.681888
C156	C	1.736985	0.312229	-0.348555
C157	C	1.070278	-0.354521	-0.694832
C158	C	1.403611	-0.021188	-0.361499
C159	C	1.736945	0.312145	-0.028166
C160	C	1.070203	-0.354608	-0.163450
C161	C	1.403536	-0.021275	0.169884
C162	C	1.736869	0.312059	0.503217
C163	C	1.070327	-0.354422	-0.081651
C164	C	1.403660	-0.021089	0.251682
C165	C	1.736994	0.312244	0.585016
H166	H	1.156202	-0.784519	-0.269364
H167	H	1.489536	-0.451186	0.063970
H168	H	1.822869	-0.117853	0.397303
H169	H	0.633778	-0.310668	-0.240127
H170	H	0.967112	0.022666	0.093207
H171	H	1.300445	0.355999	0.426540
H172	H	0.984338	-0.439836	-0.924703
H173	H	1.317671	-0.106503	-0.591369
H174	H	1.651004	0.226830	-0.258036
Br175	Br	0.958516	-0.763652	-0.465499
Br176	Br	1.291850	-0.430319	-0.132166
Br177	Br	1.625183	-0.096985	0.201168
H178	H	0.635078	-0.449132	-0.277114
H179	H	0.968411	-0.115799	0.056219
H180	H	1.301745	0.217534	0.389552
Br181	Br	0.648387	-0.201826	-0.320000
Br182	Br	0.981721	0.131508	0.013334
Br183	Br	1.315054	0.464841	0.346667
Br184	Br	0.492042	-0.242344	-0.464707
Br185	Br	0.825375	0.090989	-0.131373
Br186	Br	1.158709	0.424322	0.201960
Br187	Br	0.491774	-0.318936	-0.202439
Br188	Br	0.825107	0.014398	0.130895
Br189	Br	1.158440	0.347731	0.464228
H190	H	0.507300	-0.475832	-0.372476
H191	H	0.840634	-0.142499	-0.039143
H192	H	1.173967	0.190835	0.294191
H193	H	1.156273	-0.269083	-0.924790
H194	H	1.489606	0.064250	-0.591456
H195	H	1.822939	0.397584	-0.258123
Br196	Br	0.647564	-0.238122	-0.458813
Br197	Br	0.980897	0.095212	-0.125480
Br198	Br	1.314230	0.428545	0.207853
Br199	Br	1.182002	-0.944811	-0.243881
Br200	Br	1.515335	-0.611477	0.089452
Br201	Br	1.848668	-0.278144	0.422785
H202	H	1.156258	-0.269121	-0.785363
H203	H	1.489592	0.064212	-0.452029
H204	H	1.822925	0.397546	-0.118696
H205	H	0.984308	-0.439874	-0.785261
H206	H	1.317642	-0.106541	-0.451928
H207	H	1.650975	0.226792	-0.118594
Br208	Br	0.958588	-0.944820	-0.465530
Br209	Br	1.291921	-0.611487	-0.132196
Br210	Br	1.625255	-0.278153	0.201137
H211	H	0.507129	-0.239825	-0.311238
H212	H	0.840463	0.093508	0.022096
H213	H	1.173796	0.426841	0.355429
Br214	Br	0.494251	-0.404297	-0.502858
Br215	Br	0.827584	-0.070963	-0.169525
Br216	Br	1.160918	0.262370	0.163809
Br217	Br	0.494660	-0.459666	-0.238132
Br218	Br	0.827993	-0.126333	0.095201
Br219	Br	1.161327	0.207001	0.428535
Br220	Br	0.649332	-0.397518	-0.506200
Br221	Br	0.982665	-0.064184	-0.172867
Br222	Br	1.315999	0.269149	0.160466
Br223	Br	0.647599	-0.504999	-0.399999
Br224	Br	0.980932	-0.171665	-0.066666
Br225	Br	1.314265	0.161668	0.266667
