data_functionalizedCrystal
_audit_creation_method	'MofGen! by Chris Wilmer'
_symmetry_space_group_name_H-M	'P1'
_symmetry_Int_Tables_number	1
_symmetry_cell_setting	triclinic
loop_
_symmetry_equiv_pos_as_xyz
  x,y,z
_cell_length_a	29.839134
_cell_length_b	12.759399
_cell_length_c	12.759401
_cell_angle_alpha	89.993659
_cell_angle_beta	89.979898
_cell_angle_gamma	90.007899
loop_
_atom_site_label
_atom_site_type_symbol
_atom_site_fract_x
_atom_site_fract_y
_atom_site_fract_z
Zn1	Zn	-0.686774	0.418647	0.594480
Zn2	Zn	-0.686748	0.594298	0.418810
Zn3	Zn	-0.611665	0.418610	0.418768
Zn4	Zn	-0.611639	0.594261	0.594400
O5	O	-0.649206	0.506454	0.506614
O6	O	-0.749638	0.441978	0.571229
O7	O	-0.676788	0.570993	0.271784
O8	O	-0.621650	0.271594	0.442092
O9	O	-0.749619	0.571028	0.442165
O10	O	-0.676833	0.271621	0.571188
O11	O	-0.621625	0.441916	0.271752
O12	O	-0.548794	0.441880	0.442014
O13	O	-0.621605	0.570965	0.741431
O14	O	-0.548775	0.570929	0.571050
O15	O	-0.676807	0.441942	0.741491
O16	O	-0.676763	0.741314	0.442087
O17	O	-0.621580	0.741287	0.571091
C18	C	-0.532484	0.506397	0.506519
C19	C	-0.482549	0.506398	0.506504
C20	C	-0.125960	0.439150	0.439526
C21	C	-0.313633	0.439124	0.439475
O22	O	-0.337895	0.381863	0.382453
N23	N	-0.337104	0.506413	0.506546
C24	C	-0.313655	0.573710	0.573639
O25	O	-0.337925	0.630936	0.630694
C26	C	-0.125982	0.573730	0.573694
C27	C	-0.102513	0.506444	0.506612
C28	C	-0.102491	0.371868	0.372449
C29	C	-0.055575	0.371880	0.372458
C30	C	-0.032129	0.439173	0.439544
C31	C	-0.055598	0.506455	0.506621
C32	C	-0.102534	0.641021	0.640792
C33	C	-0.055613	0.641018	0.640802
C34	C	-0.032143	0.573731	0.573719
C35	C	0.014764	0.573760	0.573716
N36	N	0.038235	0.506470	0.506645
C37	C	0.014789	0.439177	0.439559
C38	C	-0.412185	0.573696	0.573604
C39	C	-0.459103	0.573692	0.573589
C40	C	-0.459078	0.439104	0.439426
C41	C	-0.412159	0.439114	0.439437
C42	C	-0.388714	0.506406	0.506533
C43	C	0.113315	0.439206	0.439583
C44	C	0.160235	0.439227	0.439595
C45	C	0.160205	0.573810	0.573762
C46	C	0.113290	0.573794	0.573746
C47	C	0.089846	0.506484	0.506653
O48	O	0.039055	0.630983	0.630716
O49	O	0.039067	0.381943	0.382530
C50	C	-0.172875	0.439139	0.439516
C51	C	-0.196344	0.506421	0.506593
C52	C	-0.172898	0.573714	0.573679
C53	C	-0.243262	0.506417	0.506578
C54	C	-0.266708	0.439124	0.439492
C55	C	-0.243237	0.371834	0.372421
C56	C	-0.196321	0.371845	0.372431
C57	C	-0.196369	0.641004	0.640750
C58	C	-0.243285	0.640988	0.640734
C59	C	-0.266731	0.573695	0.573648
C60	C	-0.649178	0.779421	0.506608
C61	C	-0.649207	0.896198	0.506640
C62	C	0.233615	0.506507	0.506693
C63	C	0.183681	0.506520	0.506681
C64	C	-0.649206	0.506453	0.780648
C65	C	-0.649206	0.506453	0.897424
C66	C	-0.677972	0.951039	0.439545
C67	C	-0.677999	1.060763	0.439583
C68	C	-0.620492	1.060795	0.573815
C69	C	-0.620467	0.951073	0.573781
C70	C	-0.706711	0.896164	0.372403
C71	C	-0.735479	0.951006	0.305302
C72	C	-0.735505	1.060730	0.305340
C73	C	-0.706765	1.115612	0.372481
C74	C	-0.649245	1.232421	0.506658
C75	C	-0.649258	1.115644	0.506713
C76	C	-0.677948	0.439285	0.952319
C77	C	-0.677946	0.439290	1.062043
C78	C	-0.620460	0.573638	1.061968
C79	C	-0.620460	0.573628	0.952246
C80	C	-0.706694	0.372111	0.897497
C81	C	-0.735438	0.304938	0.952392
C82	C	-0.735436	0.304943	1.062116
C83	C	-0.706690	0.372119	1.116945
C84	C	-0.649203	0.506475	1.233647
C85	C	-0.649204	0.506467	1.116870
H86	H	-0.036471	0.317088	0.317833
H87	H	-0.121576	0.317064	0.317820
H88	H	-0.597049	0.628305	0.907550
C89	C	-0.588876	1.121170	0.647654
N90	N	-0.565060	1.166644	0.703267
H91	H	-0.706700	0.372102	0.808154
C92	C	-0.767054	0.231044	0.892078
N93	N	-0.790868	0.175385	0.846650
H94	H	-0.706692	0.806821	0.372362
H95	H	-0.706686	0.372105	1.206290
C96	C	-0.767150	1.121052	0.231530
N97	N	-0.790984	1.166485	0.175929
H98	H	-0.758837	0.250240	1.106808
C99	C	0.087473	0.647815	0.647537
N100	N	0.068031	0.703561	0.703127
H101	H	-0.036526	0.695813	0.695445
H102	H	-0.597056	0.628329	1.106619
C103	C	-0.767092	0.890633	0.231454
N104	N	-0.790904	0.845161	0.175830
C105	C	-0.386401	0.647745	0.647403
N106	N	-0.366982	0.703527	0.702981
C107	C	0.087533	0.365167	0.365772
N108	N	0.068115	0.309407	0.310171
C109	C	0.186048	0.365198	0.365801
N110	N	0.205489	0.309437	0.310224
H111	H	-0.706793	1.204957	0.372515
H112	H	-0.393054	0.384319	0.384815
C113	C	-0.588818	0.890744	0.647574
N114	N	-0.564977	0.845304	0.703154
H115	H	0.179304	0.628603	0.628378
C116	C	-0.170512	0.297815	0.298642
N117	N	-0.151075	0.242049	0.243064
H118	H	-0.478176	0.384312	0.384801
H119	H	-0.478208	0.628495	0.628204
H120	H	-0.121634	0.695813	0.695418
H121	H	-0.262335	0.317045	0.317794
H122	H	-0.262389	0.695791	0.695360
H123	H	-0.177284	0.695803	0.695381
