data_functionalizedCrystal
_audit_creation_method	'MofGen! by Chris Wilmer'
_symmetry_space_group_name_H-M	'P1'
_symmetry_Int_Tables_number	1
_symmetry_cell_setting	triclinic
loop_
_symmetry_equiv_pos_as_xyz
  x,y,z
_cell_length_a	19.077105
_cell_length_b	19.076808
_cell_length_c	21.395355
_cell_angle_alpha	92.317436
_cell_angle_beta	92.321224
_cell_angle_gamma	89.927608
loop_
_atom_site_label
_atom_site_type_symbol
_atom_site_fract_x
_atom_site_fract_y
_atom_site_fract_z
Zn1	Zn	1.063037	-0.323083	0.380673
Zn2	Zn	1.313037	-0.073083	0.630673
Zn3	Zn	1.563037	0.176917	0.880673
Zn4	Zn	1.813037	0.426917	1.130673
Zn5	Zn	1.058217	-0.440575	0.271519
Zn6	Zn	1.308217	-0.190575	0.521519
Zn7	Zn	1.558217	0.059425	0.771519
Zn8	Zn	1.808217	0.309425	1.021519
Zn9	Zn	0.945519	-0.318353	0.271881
Zn10	Zn	1.195519	-0.068353	0.521881
Zn11	Zn	1.445519	0.181647	0.771881
Zn12	Zn	1.695519	0.431647	1.021881
Zn13	Zn	0.940775	-0.435829	0.372234
Zn14	Zn	1.190775	-0.185829	0.622234
Zn15	Zn	1.440775	0.064171	0.872234
Zn16	Zn	1.690775	0.314171	1.122234
O17	O	1.001887	-0.379460	0.324077
O18	O	1.251887	-0.129460	0.574077
O19	O	1.501887	0.120540	0.824077
O20	O	1.751887	0.370540	1.074077
O21	O	1.160729	-0.342634	0.369574
O22	O	1.410729	-0.092634	0.619574
O23	O	1.660729	0.157366	0.869574
O24	O	1.910729	0.407366	1.119574
O25	O	1.043236	-0.424368	0.183888
O26	O	1.293236	-0.174368	0.433888
O27	O	1.543236	0.075632	0.683888
O28	O	1.793236	0.325632	0.933888
O29	O	0.965110	-0.220646	0.289996
O30	O	1.215110	0.029354	0.539996
O31	O	1.465110	0.279354	0.789996
O32	O	1.715110	0.529354	1.039996
O33	O	1.157189	-0.428954	0.289379
O34	O	1.407189	-0.178954	0.539379
O35	O	1.657189	0.071046	0.789379
O36	O	1.907189	0.321046	1.039379
O37	O	1.051450	-0.224121	0.369925
O38	O	1.301450	0.025879	0.619925
O39	O	1.551450	0.275879	0.869925
O40	O	1.801450	0.525879	1.119925
O41	O	0.960437	-0.334573	0.184154
O42	O	1.210437	-0.084573	0.434154
O43	O	1.460437	0.165427	0.684154
O44	O	1.710437	0.415427	0.934154
O45	O	0.846557	-0.329971	0.281813
O46	O	1.096557	-0.079971	0.531813
O47	O	1.346557	0.170029	0.781813
O48	O	1.596557	0.420029	1.031813
O49	O	0.957025	-0.420867	0.461033
O50	O	1.207025	-0.170867	0.711033
O51	O	1.457025	0.079133	0.961033
O52	O	1.707025	0.329133	1.211033
O53	O	0.843072	-0.416281	0.355542
O54	O	1.093072	-0.166281	0.605542
O55	O	1.343072	0.083719	0.855542
O56	O	1.593072	0.333719	1.105542
O57	O	1.046850	-0.338033	0.467233
O58	O	1.296850	-0.088033	0.717233
O59	O	1.546850	0.161967	0.967233
O60	O	1.796850	0.411967	1.217233
O61	O	1.038636	-0.538280	0.281196
O62	O	1.288636	-0.288280	0.531196
O63	O	1.538636	-0.038280	0.781196
O64	O	1.788636	0.211720	1.031196
O65	O	0.952352	-0.534793	0.355191
O66	O	1.202352	-0.284793	0.605191
O67	O	1.452352	-0.034793	0.855191
O68	O	1.702352	0.215207	1.105191
C69	C	0.819318	-0.372098	0.317801
C70	C	1.069318	-0.122098	0.567801
C71	C	1.319318	0.127902	0.817801
C72	C	1.569318	0.377902	1.067801
C73	C	0.741214	-0.368966	0.315131
C74	C	0.991214	-0.118966	0.565131
C75	C	1.241214	0.131034	0.815131
C76	C	1.491214	0.381034	1.065131
C77	C	0.702722	-0.412498	0.352198
C78	C	0.952722	-0.162498	0.602198
C79	C	1.202722	0.087502	0.852198
C80	C	1.452722	0.337502	1.102198
C81	C	0.629335	-0.409546	0.349692
C82	C	0.879335	-0.159546	0.599692
C83	C	1.129335	0.090454	0.849692
C84	C	1.379335	0.340454	1.099692
C85	C	0.594442	-0.363064	0.310116
C86	C	0.844442	-0.113064	0.560116
C87	C	1.094442	0.136936	0.810116
C88	C	1.344442	0.386936	1.060116
C89	C	0.632939	-0.319526	0.273048
C90	C	0.882939	-0.069526	0.523048
C91	C	1.132939	0.180474	0.773048
C92	C	1.382939	0.430474	1.023048
C93	C	0.706325	-0.322476	0.275557
C94	C	0.956325	-0.072476	0.525557
C95	C	1.206325	0.177524	0.775557
C96	C	1.456325	0.427524	1.025557
C97	C	0.375155	-0.349413	0.298504
C98	C	0.625155	-0.099413	0.548504
C99	C	0.875155	0.150587	0.798504
C100	C	1.125155	0.400587	1.048504
C101	C	0.301764	-0.346468	0.295996
C102	C	0.551764	-0.096468	0.545996
C103	C	0.801764	0.153532	0.795996
C104	C	1.051764	0.403532	1.045996
C105	C	0.298165	-0.436487	0.372641
C106	C	0.548165	-0.186487	0.622641
C107	C	0.798165	0.063513	0.872641
C108	C	1.048165	0.313513	1.122641
C109	C	0.371552	-0.439436	0.375144
C110	C	0.621552	-0.189436	0.625144
C111	C	0.871552	0.060564	0.875144
C112	C	1.121552	0.310564	1.125144
C113	C	0.410043	-0.395896	0.338079
C114	C	0.660043	-0.145896	0.588079
C115	C	0.910043	0.104104	0.838079
C116	C	1.160043	0.354104	1.088079
N117	N	0.519428	-0.360046	0.307552
N118	N	0.769428	-0.110046	0.557552
N119	N	1.019428	0.139954	0.807552
N120	N	1.269428	0.389954	1.057552
N121	N	0.485055	-0.398910	0.340646
N122	N	0.735055	-0.148910	0.590646
N123	N	0.985055	0.101090	0.840646
N124	N	1.235055	0.351090	1.090646
C125	C	0.994475	-0.562034	0.317253
C126	C	1.244475	-0.312034	0.567253
C127	C	1.494475	-0.062034	0.817253
C128	C	1.744475	0.187966	1.067253
C129	C	0.991369	-0.640143	0.314357
C130	C	1.241369	-0.390143	0.564357
C131	C	1.491369	-0.140143	0.814357
C132	C	1.741369	0.109857	1.064357
C133	C	1.034828	-0.678586	0.354642
C134	C	1.284828	-0.428586	0.604642
C135	C	1.534828	-0.178586	0.854642
C136	C	1.784828	0.071414	1.104642
C137	C	1.031907	-0.751977	0.351922
C138	C	1.281907	-0.501977	0.601922
C139	C	1.531907	-0.251977	0.851922
C140	C	1.781907	-0.001977	1.101922
C141	C	0.985529	-0.786924	0.308913
C142	C	1.235529	-0.536924	0.558913
C143	C	1.485529	-0.286924	0.808913
C144	C	1.735529	-0.036924	1.058913
C145	C	0.942064	-0.748476	0.268626
C146	C	1.192064	-0.498476	0.518626
C147	C	1.442064	-0.248476	0.768626
C148	C	1.692064	0.001524	1.018626
C149	C	0.944983	-0.675086	0.271350
C150	C	1.194983	-0.425086	0.521350
C151	C	1.444983	-0.175086	0.771350
C152	C	1.694983	0.074914	1.021350
C153	C	0.971980	-1.006230	0.296304
C154	C	1.221980	-0.756230	0.546304
C155	C	1.471980	-0.506230	0.796304
C156	C	1.721980	-0.256230	1.046304
C157	C	0.969066	-1.079625	0.293582
C158	C	1.219066	-0.829625	0.543582
C159	C	1.469066	-0.579625	0.793582
C160	C	1.719066	-0.329625	1.043582
C161	C	1.058908	-1.083121	0.376879
C162	C	1.308908	-0.833121	0.626879
C163	C	1.558908	-0.583121	0.876879
C164	C	1.808908	-0.333121	1.126879
C165	C	1.061825	-1.009730	0.379597
C166	C	1.311825	-0.759730	0.629597
C167	C	1.561825	-0.509730	0.879597
C168	C	1.811825	-0.259730	1.129597
C169	C	1.018358	-0.971288	0.339312
C170	C	1.268358	-0.721288	0.589312
C171	C	1.518358	-0.471288	0.839312
C172	C	1.768358	-0.221288	1.089312
N173	N	0.982543	-0.861942	0.306130
N174	N	1.232543	-0.611942	0.556130
N175	N	1.482543	-0.361942	0.806130
N176	N	1.732543	-0.111942	1.056130
N177	N	1.021341	-0.896271	0.342098
N178	N	1.271341	-0.646271	0.592098
N179	N	1.521341	-0.396271	0.842098
N180	N	1.771341	-0.146271	1.092098
C181	C	1.185168	-0.386851	0.330377
C182	C	1.435168	-0.136851	0.580377
C183	C	1.685168	0.113149	0.830377
C184	C	1.935168	0.363149	1.080377
C185	C	1.263272	-0.390001	0.333062
C186	C	1.513272	-0.140001	0.583062
C187	C	1.763272	0.109999	0.833062
C188	C	2.013272	0.359999	1.083062
C189	C	1.001946	-0.379448	0.487503
C190	C	1.251946	-0.129448	0.737503
C191	C	1.501946	0.120552	0.987503
C192	C	1.751946	0.370552	1.237503
C193	C	1.001971	-0.379443	0.557145
C194	C	1.251971	-0.129443	0.807145
C195	C	1.501971	0.120557	1.057145
C196	C	1.751971	0.370557	1.307145
C197	C	1.009347	-0.196174	0.330942
C198	C	1.259347	0.053826	0.580942
C199	C	1.509347	0.303826	0.830942
C200	C	1.759347	0.553826	1.080942
C201	C	1.012525	-0.118068	0.333867
C202	C	1.262525	0.131932	0.583867
C203	C	1.512525	0.381932	0.833867
C204	C	1.762525	0.631932	1.083867
C205	C	1.001871	-0.379423	0.161290
C206	C	1.251871	-0.129423	0.411290
C207	C	1.501871	0.120577	0.661290
C208	C	1.751871	0.370577	0.911290
C209	C	1.001990	-0.379235	0.091660
C210	C	1.251990	-0.129235	0.341660
C211	C	1.501990	0.120765	0.591660
C212	C	1.751990	0.370765	0.841660
C213	C	1.048741	-0.336310	0.593088
C214	C	1.298741	-0.086310	0.843088
C215	C	1.548741	0.163690	1.093088
C216	C	1.798741	0.413690	1.343088
C217	C	1.048741	-0.336279	0.658524
C218	C	1.298741	-0.086279	0.908524
C219	C	1.548741	0.163721	1.158524
C220	C	1.798741	0.413721	1.408524
C221	C	1.001978	-0.379396	0.688016
C222	C	1.251978	-0.129396	0.938016
C223	C	1.501978	0.120604	1.188016
C224	C	1.751978	0.370604	1.438016
C225	C	0.955199	-0.422532	0.652065
C226	C	1.205199	-0.172532	0.902065
C227	C	1.455199	0.077468	1.152065
C228	C	1.705199	0.327468	1.402065
C229	C	0.955196	-0.422556	0.586630
C230	C	1.205196	-0.172556	0.836630
C231	C	1.455196	0.077444	1.086630
C232	C	1.705196	0.327444	1.336630
C233	C	0.993861	-0.442445	0.789135
C234	C	1.243861	-0.192445	1.039135
C235	C	1.493861	0.057555	1.289135
C236	C	1.743861	0.307555	1.539135
C237	C	0.993870	-0.442422	0.854569
C238	C	1.243870	-0.192422	1.104569
C239	C	1.493870	0.057578	1.354569
C240	C	1.743870	0.307578	1.604569
C241	C	1.001986	-0.379321	0.889839
C242	C	1.251986	-0.129321	1.139839
C243	C	1.501986	0.120679	1.389839
C244	C	1.751986	0.370679	1.639839
C245	C	1.010108	-0.316242	0.859668
C246	C	1.260108	-0.066242	1.109668
C247	C	1.510108	0.183758	1.359668
C248	C	1.760108	0.433758	1.609668
C249	C	1.010104	-0.316266	0.794233
C250	C	1.260104	-0.066266	1.044233
C251	C	1.510104	0.183734	1.294233
C252	C	1.760104	0.433734	1.544233
C253	C	1.001977	-0.379374	0.758969
C254	C	1.251977	-0.129374	1.008969
C255	C	1.501977	0.120626	1.258969
C256	C	1.751977	0.370626	1.508969
C257	C	1.048759	-0.336151	0.996736
C258	C	1.298759	-0.086151	1.246736
C259	C	1.548759	0.163849	1.496736
C260	C	1.798759	0.413849	1.746736
C261	C	1.048754	-0.336120	1.062173
C262	C	1.298754	-0.086120	1.312173
C263	C	1.548754	0.163880	1.562173
C264	C	1.798754	0.413880	1.812173
C265	C	0.955215	-0.422379	1.055713
C266	C	1.205215	-0.172379	1.305713
C267	C	1.455215	0.077621	1.555713
C268	C	1.705215	0.327621	1.805713
C269	C	0.955217	-0.422404	0.990276
C270	C	1.205217	-0.172404	1.240276
C271	C	1.455217	0.077596	1.490276
C272	C	1.705217	0.327596	1.740276
C273	C	1.001992	-0.379291	0.960792
C274	C	1.251992	-0.129291	1.210792
C275	C	1.501992	0.120709	1.460792
C276	C	1.751992	0.370709	1.710792
H277	H	0.399957	-0.477288	0.407370
H278	H	0.649957	-0.227288	0.657370
H279	H	0.899957	0.022712	0.907370
H280	H	1.149957	0.272712	1.157370
Br281	Br	1.117894	-1.135296	0.431550
Br282	Br	1.367894	-0.885296	0.681550
Br283	Br	1.617894	-0.635296	0.931550
Br284	Br	1.867894	-0.385296	1.181550
H285	H	1.086826	-0.301151	0.687794
H286	H	1.336826	-0.051151	0.937794
H287	H	1.586826	0.198849	1.187794
H288	H	1.836826	0.448849	1.437794
Br289	Br	0.758566	-0.263390	0.225254
Br290	Br	1.008566	-0.013390	0.475254
Br291	Br	1.258566	0.236610	0.725254
Br292	Br	1.508566	0.486610	0.975254
Br293	Br	0.885997	-0.622912	0.216677
Br294	Br	1.135997	-0.372912	0.466677
Br295	Br	1.385997	-0.122912	0.716677
Br296	Br	1.635997	0.127088	0.966677
H297	H	1.016715	-0.264904	0.769670
H298	H	1.266715	-0.014904	1.019670
H299	H	1.516715	0.235096	1.269670
H300	H	1.766715	0.485096	1.519670
H301	H	0.917135	-0.457533	0.961011
H302	H	1.167135	-0.207533	1.211011
H303	H	1.417135	0.042467	1.461011
H304	H	1.667135	0.292467	1.711011
H305	H	0.273357	-0.308609	0.263772
H306	H	0.523357	-0.058609	0.513772
H307	H	0.773357	0.191391	0.763772
H308	H	1.023357	0.441391	1.013772
Br309	Br	1.097779	-0.631165	0.413010
Br310	Br	1.347779	-0.381165	0.663010
Br311	Br	1.597779	-0.131165	0.913010
Br312	Br	1.847779	0.118835	1.163010
H313	H	1.067302	-0.783275	0.384722
H314	H	1.317302	-0.533275	0.634722
H315	H	1.567302	-0.283275	0.884722
H316	H	1.817302	-0.033275	1.134722
Br317	Br	0.750069	-0.475590	0.405906
Br318	Br	1.000069	-0.225590	0.655906
Br319	Br	1.250069	0.024410	0.905906
Br320	Br	1.500069	0.274410	1.155906
Br321	Br	0.245923	-0.495577	0.422939
Br322	Br	0.495923	-0.245577	0.672939
Br323	Br	0.745923	0.004423	0.922939
Br324	Br	0.995923	0.254423	1.172939
Br325	Br	0.585586	-0.256436	0.219342
Br326	Br	0.835586	-0.006436	0.469342
Br327	Br	1.085586	0.243564	0.719342
Br328	Br	1.335586	0.493564	0.969342
H329	H	0.406486	-0.313965	0.268317
H330	H	0.656486	-0.063965	0.518317
H331	H	0.906486	0.186035	0.768317
H332	H	1.156486	0.436035	1.018317
H333	H	0.931296	-1.108076	0.258558
H334	H	1.181296	-0.858076	0.508558
H335	H	1.431296	-0.608076	0.758558
H336	H	1.681296	-0.358076	1.008558
H337	H	1.099590	-0.981277	0.414618
H338	H	1.349590	-0.731277	0.664618
H339	H	1.599590	-0.481277	0.914618
H340	H	1.849590	-0.231277	1.164618
Br341	Br	0.912980	-0.954067	0.241639
Br342	Br	1.162980	-0.704067	0.491639
Br343	Br	1.412980	-0.454067	0.741639
Br344	Br	1.662980	-0.204067	0.991639
H345	H	0.904299	-0.776936	0.233609
H346	H	1.154299	-0.526936	0.483609
H347	H	1.404299	-0.276936	0.733609
H348	H	1.654299	-0.026936	0.983609
H349	H	1.086828	-0.301203	0.569086
H350	H	1.336828	-0.051203	0.819086
H351	H	1.586828	0.198797	1.069086
H352	H	1.836828	0.448797	1.319086
H353	H	0.917133	-0.457477	1.079724
H354	H	1.167133	-0.207477	1.329724
H355	H	1.417133	0.042523	1.579724
H356	H	1.667133	0.292523	1.829724
Br357	Br	0.891716	-0.481098	0.537847
Br358	Br	1.141716	-0.231098	0.787847
Br359	Br	1.391716	0.018902	1.037847
Br360	Br	1.641716	0.268902	1.287847
H361	H	1.016717	-0.264859	0.888384
H362	H	1.266717	-0.014859	1.138384
H363	H	1.516717	0.235141	1.388384
H364	H	1.766717	0.485141	1.638384
H365	H	0.987261	-0.493786	0.879130
H366	H	1.237261	-0.243786	1.129130
H367	H	1.487261	0.006214	1.379130
H368	H	1.737261	0.256214	1.629130
Br369	Br	0.982867	-0.528092	0.741276
Br370	Br	1.232867	-0.278092	0.991276
Br371	Br	1.482867	-0.028092	1.241276
Br372	Br	1.732867	0.221908	1.491276
H373	H	0.917122	-0.457635	0.676081
H374	H	1.167122	-0.207635	0.926081
H375	H	1.417122	0.042365	1.176081
H376	H	1.667122	0.292365	1.426081
H377	H	0.597997	-0.444995	0.379875
H378	H	0.847997	-0.194995	0.629875
H379	H	1.097997	0.055005	0.879875
H380	H	1.347997	0.305005	1.129875
H381	H	1.086842	-0.301042	0.972728
H382	H	1.336842	-0.051042	1.222728
H383	H	1.586842	0.198958	1.472728
H384	H	1.836842	0.448958	1.722728
Br385	Br	1.112244	-0.277587	1.110954
Br386	Br	1.362244	-0.027587	1.360954
Br387	Br	1.612244	0.222413	1.610954
Br388	Br	1.862244	0.472413	1.860954
