data_functionalizedCrystal
_audit_creation_method	'MofGen! by Chris Wilmer'
_symmetry_space_group_name_H-M	'P1'
_symmetry_Int_Tables_number	1
_symmetry_cell_setting	triclinic
loop_
_symmetry_equiv_pos_as_xyz
  x,y,z
_cell_length_a	27.732048
_cell_length_b	27.732064
_cell_length_c	9.130307
_cell_angle_alpha	90.001170
_cell_angle_beta	89.998491
_cell_angle_gamma	82.646039
loop_
_atom_site_label
_atom_site_type_symbol
_atom_site_fract_x
_atom_site_fract_y
_atom_site_fract_z
O1	O	0.640930	0.057517	0.121599
O2	O	1.140930	0.557517	0.621599
O3	O	0.500137	0.066262	0.121641
O4	O	1.000137	0.566262	0.621641
O5	O	0.574902	-0.008507	0.121624
O6	O	1.074902	0.491493	0.621624
O7	O	0.566165	0.132286	0.121616
O8	O	1.066165	0.632286	0.621616
O9	O	0.574897	-0.008510	-0.121975
O10	O	1.074897	0.491490	0.378025
O11	O	0.500132	0.066259	-0.121958
O12	O	1.000132	0.566259	0.378042
O13	O	0.640925	0.057514	-0.122000
O14	O	1.140925	0.557514	0.378000
Cu15	Cu	0.570528	0.061886	-0.144222
Cu16	Cu	1.070528	0.561886	0.355778
Cu17	Cu	0.570534	0.061890	0.143862
Cu18	Cu	1.070534	0.561890	0.643862
O19	O	0.566160	0.132283	-0.121983
O20	O	1.066160	0.632283	0.378017
C21	C	0.482127	0.066077	-0.000153
C22	C	0.982127	0.566077	0.499847
C23	C	0.428473	0.065524	-0.000136
C24	C	0.928473	0.565524	0.499864
C25	C	0.574715	-0.026515	-0.000171
C26	C	1.074715	0.473485	0.499829
C27	C	0.574159	-0.080169	-0.000157
C28	C	1.074159	0.419831	0.499843
N29	N	0.570526	0.061883	-0.346844
N30	N	1.070526	0.561883	0.153156
C31	C	0.089660	0.106228	-0.000202
C32	C	0.589660	0.606228	0.499798
C33	C	-0.112000	0.104177	-0.000215
C34	C	0.388000	0.604177	0.499785
O35	O	-0.143253	0.141397	-0.000281
O36	O	0.356747	0.641397	0.499719
N37	N	-0.131126	0.059842	-0.000210
N38	N	0.368874	0.559842	0.499790
C39	C	-0.099834	0.016017	-0.000211
C40	C	0.400166	0.516017	0.499789
O41	O	-0.120729	-0.021740	-0.000221
O42	O	0.379271	0.478260	0.499779
C43	C	0.101825	0.018068	-0.000208
C44	C	0.601825	0.518068	0.499792
C45	C	0.120948	0.062406	-0.000199
C46	C	0.620948	0.562406	0.499801
C47	C	0.108784	0.150562	-0.000194
C48	C	0.608784	0.650562	0.499806
C49	C	0.159196	0.151074	-0.000183
C50	C	0.659196	0.651074	0.499817
C51	C	0.190484	0.107252	-0.000180
C52	C	0.690484	0.607252	0.499820
C53	C	0.171360	0.062918	-0.000187
C54	C	0.671360	0.562918	0.499813
C55	C	0.133116	-0.025756	-0.000220
C56	C	0.633116	0.474244	0.499780
C57	C	0.183533	-0.025240	-0.000223
C58	C	0.683533	0.474760	0.499777
C59	C	0.202656	0.019098	-0.000213
C60	C	0.702656	0.519098	0.499787
C61	C	0.253060	0.019609	-0.000173
C62	C	0.753060	0.519609	0.499827
N63	N	0.272186	0.063944	-0.000178
N64	N	0.772186	0.563944	0.499822
C65	C	0.240898	0.107765	-0.000182
C66	C	0.740898	0.607765	0.499818
C67	C	-0.205708	0.014943	-0.000209
C68	C	0.294292	0.514943	0.499791
C69	C	-0.256123	0.014430	-0.000207
C70	C	0.243877	0.514430	0.499793
C71	C	-0.268285	0.102590	-0.000214
C72	C	0.231715	0.602590	0.499786
C73	C	-0.217870	0.103103	-0.000206
C74	C	0.282130	0.603103	0.499794
C75	C	-0.186582	0.059278	-0.000214
C76	C	0.313418	0.559278	0.499786
C77	C	0.346768	0.108838	-0.000157
C78	C	0.846768	0.608838	0.499843
C79	C	0.397185	0.109346	-0.000139
C80	C	0.897185	0.609346	0.499861
C81	C	0.409342	0.021186	-0.000140
C82	C	0.909342	0.521186	0.499860
C83	C	0.358930	0.020678	-0.000150
C84	C	0.858930	0.520678	0.499850
C85	C	0.327643	0.064507	-0.000163
C86	C	0.827643	0.564507	0.499837
O87	O	0.284342	-0.017592	-0.000124
O88	O	0.784342	0.482408	0.499876
O89	O	0.261803	0.145516	-0.000203
O90	O	0.761803	0.645516	0.499797
C91	C	0.039248	0.105716	-0.000213
C92	C	0.539248	0.605716	0.499787
C93	C	0.020124	0.061381	-0.000221
C94	C	0.520124	0.561381	0.499779
C95	C	0.051412	0.017560	-0.000218
C96	C	0.551412	0.517560	0.499782
C97	C	-0.030290	0.060868	-0.000219
C98	C	0.469710	0.560868	0.499781
C99	C	-0.061578	0.104690	-0.000222
C100	C	0.438422	0.604690	0.499778
C101	C	-0.042452	0.149025	-0.000228
C102	C	0.457548	0.649025	0.499772
C103	C	0.007960	0.149537	-0.000217
C104	C	0.507960	0.649537	0.499783
C105	C	0.032286	-0.026775	-0.000212
C106	C	0.532286	0.473225	0.499788
C107	C	-0.018127	-0.027284	-0.000222
C108	C	0.481873	0.472716	0.499778
C109	C	-0.049415	0.016538	-0.000225
C110	C	0.450585	0.516538	0.499775
C111	C	0.658934	0.057699	-0.000203
C112	C	1.158934	0.557699	0.499797
C113	C	0.712589	0.058252	-0.000210
C114	C	1.212589	0.558252	0.499790
C115	C	0.526192	-0.457242	-0.000137
C116	C	1.026192	0.042758	0.499863
C117	C	0.528238	-0.255582	-0.000135
C118	C	1.028238	0.244418	0.499865
O119	O	0.491017	-0.224329	-0.000066
O120	O	0.991017	0.275671	0.499934
N121	N	0.572572	-0.236454	-0.000148
N122	N	1.072572	0.263546	0.499852
C123	C	0.616398	-0.267745	-0.000152
C124	C	1.116398	0.232255	0.499848
O125	O	0.654154	-0.246849	-0.000148
O126	O	1.154154	0.253151	0.499852
C127	C	0.614351	-0.469405	-0.000143
C128	C	1.114351	0.030595	0.499857
C129	C	0.570014	-0.488529	-0.000145
C130	C	1.070014	0.011471	0.499855
C131	C	0.481858	-0.476367	-0.000137
C132	C	0.981858	0.023633	0.499863
C133	C	0.481347	-0.526779	-0.000145
C134	C	0.981347	-0.026779	0.499855
C135	C	0.525169	-0.558066	-0.000153
C136	C	1.025169	-0.058066	0.499847
C137	C	0.569503	-0.538941	-0.000153
C138	C	1.069503	-0.038941	0.499847
C139	C	0.658177	-0.500695	-0.000137
C140	C	1.158177	-0.000695	0.499863
C141	C	0.657661	-0.551112	-0.000131
C142	C	1.157661	-0.051112	0.499869
C143	C	0.613324	-0.570237	-0.000132
C144	C	1.113324	-0.070237	0.499868
C145	C	0.612814	-0.620640	-0.000170
C146	C	1.112814	-0.120640	0.499830
N147	N	0.568480	-0.639768	-0.000157
N148	N	1.068480	-0.139768	0.499843
C149	C	0.524658	-0.608481	-0.000148
C150	C	1.024658	-0.108481	0.499852
C151	C	0.617469	-0.161871	-0.000160
C152	C	1.117469	0.338129	0.499840
C153	C	0.617981	-0.111456	-0.000165
C154	C	1.117981	0.388544	0.499835
C155	C	0.529821	-0.099296	-0.000145
C156	C	1.029821	0.400704	0.499855
C157	C	0.529310	-0.149712	-0.000151
C158	C	1.029310	0.350288	0.499849
C159	C	0.573135	-0.180998	-0.000147
C160	C	1.073135	0.319002	0.499853
C161	C	0.523588	-0.714350	-0.000167
C162	C	1.023588	-0.214350	0.499833
C163	C	0.523080	-0.764767	-0.000181
C164	C	1.023080	-0.264767	0.499819
C165	C	0.611241	-0.776923	-0.000193
C166	C	1.111241	-0.276923	0.499807
C167	C	0.611748	-0.726511	-0.000187
C168	C	1.111748	-0.226511	0.499813
C169	C	0.567918	-0.695225	-0.000169
C170	C	1.067918	-0.195225	0.499831
O171	O	0.650016	-0.651921	-0.000223
O172	O	1.150016	-0.151921	0.499777
O173	O	0.486907	-0.629387	-0.000120
O174	O	0.986907	-0.129387	0.499880
C175	C	0.526703	-0.406830	-0.000128
C176	C	1.026703	0.093170	0.499872
C177	C	0.571036	-0.387705	-0.000128
C178	C	1.071036	0.112295	0.499872
C179	C	0.614859	-0.418992	-0.000137
C180	C	1.114859	0.081008	0.499863
C181	C	0.571548	-0.337290	-0.000133
C182	C	1.071548	0.162710	0.499867
C183	C	0.527726	-0.306003	-0.000125
C184	C	1.027726	0.193997	0.499875
C185	C	0.483391	-0.325131	-0.000112
C186	C	0.983391	0.174869	0.499888
C187	C	0.482880	-0.375543	-0.000120
C188	C	0.982880	0.124457	0.499880
C189	C	0.659193	-0.399865	-0.000150
C190	C	1.159193	0.100135	0.499850
C191	C	0.659701	-0.349452	-0.000143
C192	C	1.159701	0.150548	0.499857
C193	C	0.615878	-0.318165	-0.000135
C194	C	1.115878	0.181835	0.499865
C195	C	0.566347	0.150291	-0.000185
C196	C	1.066347	0.650291	0.499815
C197	C	0.566903	0.203945	-0.000190
C198	C	1.066903	0.703945	0.499810
C199	C	0.512336	0.003646	-0.346882
C200	C	1.012336	0.503646	0.153118
C201	C	0.483246	-0.025474	-0.423567
C202	C	0.983246	0.474526	0.076433
C203	C	0.483253	-0.025475	-0.576900
C204	C	0.983253	0.474525	-0.076900
C205	C	0.512352	0.003649	-0.653552
C206	C	1.012352	0.503649	-0.153552
C207	C	0.541442	0.032769	-0.576867
C208	C	1.041442	0.532769	-0.076867
C209	C	0.541433	0.032765	-0.423530
C210	C	1.041433	0.532765	0.076470
C211	C	0.599629	0.091009	-0.576829
C212	C	1.099629	0.591009	-0.076829
C213	C	0.599626	0.091007	-0.423496
C214	C	1.099626	0.591007	0.076504
C215	C	0.628728	0.120133	-0.653481
C216	C	1.128728	0.620133	-0.153481
C217	C	0.657822	0.149251	-0.576796
C218	C	1.157822	0.649251	-0.076796
C219	C	0.657814	0.149250	-0.423453
C220	C	1.157814	0.649250	0.076547
C221	C	0.628716	0.120127	-0.346811
C222	C	1.128716	0.620127	0.153189
N223	N	0.570539	0.061889	0.346485
N224	N	1.070539	0.561889	0.846485
H225	H	0.412752	0.145453	-0.000131
H226	H	0.912752	0.645453	0.499869
F227	F	0.452277	-0.056467	-0.341979
F228	F	0.952277	0.443533	0.158021
F229	F	0.216829	-0.071886	-0.000236
F230	F	0.716829	0.428114	0.499764
H231	H	0.487897	-0.688883	-0.000152
H232	H	0.987897	-0.188883	0.499848
H233	H	-0.067936	0.184706	-0.000225
H234	H	0.432064	0.684706	0.499775
F235	F	0.705367	-0.480352	-0.000109
F236	F	1.205367	0.019648	0.499891
F237	F	-0.038473	-0.074478	-0.000213
F238	F	0.461527	0.425522	0.499787
F239	F	0.435690	-0.395890	-0.000119
F240	F	0.935690	0.104110	0.499881
H241	H	0.446171	-0.450897	-0.000125
H242	H	0.946171	0.049103	0.499875
H243	H	0.459563	-0.049184	-0.639337
H244	H	0.959563	0.450816	-0.139337
H245	H	0.057756	-0.062461	-0.000213
H246	H	0.557756	0.437539	0.499787
F247	F	0.628732	0.120135	-0.816673
F248	F	1.128732	0.620135	-0.316673
F249	F	0.512351	0.003654	-0.816744
F250	F	1.012351	0.503654	-0.316744
H251	H	0.512331	0.003639	-0.222029
H252	H	1.012331	0.503639	0.277971
H253	H	0.486974	-0.780335	-0.000189
H254	H	0.986974	-0.280335	0.499811
F255	F	0.706894	-0.329105	-0.000144
F256	F	1.206894	0.170895	0.499856
H257	H	0.343359	-0.015426	-0.000136
H258	H	0.843359	0.484574	0.499864
H259	H	0.445243	-0.542345	-0.000134
H260	H	0.945243	-0.042345	0.499866
H261	H	0.681509	0.172964	-0.639218
H262	H	1.181509	0.672964	-0.139218
H263	H	0.434826	-0.014492	-0.000132
H264	H	0.934826	0.485508	0.499868
H265	H	0.681500	0.172966	-0.361025
H266	H	1.181500	0.672966	0.138975
F267	F	0.313477	0.155486	-0.000172
F268	F	0.813477	0.655486	0.499828
F269	F	0.028306	0.196728	-0.000207
F270	F	0.528306	0.696728	0.499793
F271	F	0.628707	0.120122	-0.183619
F272	F	1.128707	0.620122	0.316381
F273	F	-0.172415	-0.031705	-0.000217
F274	F	0.327585	0.468295	0.499783
F275	F	0.075491	0.197208	-0.000198
F276	F	0.575491	0.697208	0.499802
F277	F	0.179542	0.198265	-0.000180
F278	F	0.679542	0.698265	0.499820
H279	H	-0.293769	0.138272	-0.000217
H280	H	0.206231	0.638272	0.499783
F281	F	-0.197522	0.150292	-0.000198
F282	F	0.302478	0.650292	0.499802
H283	H	0.653160	-0.187341	-0.000159
H284	H	1.153160	0.312659	0.499841
H285	H	0.493206	-0.165279	-0.000158
H286	H	0.993206	0.334721	0.499842
F287	F	0.705838	-0.433157	-0.000161
F288	F	1.205838	0.066843	0.499839
H289	H	0.494139	-0.073813	-0.000145
H290	H	0.994139	0.426187	0.499855
H291	H	-0.271688	-0.021674	-0.000192
H292	H	0.228312	0.478326	0.499808
F293	F	0.112774	-0.072947	-0.000209
F294	F	0.612774	0.427053	0.499791
H295	H	0.654085	-0.095890	-0.000187
H296	H	1.154085	0.404110	0.499813
H297	H	0.693350	-0.576584	-0.000120
H298	H	1.193350	-0.076584	0.499880
H299	H	0.647851	-0.710939	-0.000206
H300	H	1.147851	-0.210939	0.499794
F301	F	0.436752	-0.291824	-0.000109
F302	F	0.936752	0.208176	0.499891
F303	F	0.657877	-0.810230	-0.000213
F304	F	1.157877	-0.310230	0.499787
