data_functionalizedCrystal
_audit_creation_method	'MofGen! by Chris Wilmer'
_symmetry_space_group_name_H-M	'P1'
_symmetry_Int_Tables_number	1
_symmetry_cell_setting	triclinic
loop_
_symmetry_equiv_pos_as_xyz
  x,y,z
_cell_length_a	14.044191
_cell_length_b	10.654550
_cell_length_c	9.130313
_cell_angle_alpha	90.001966
_cell_angle_beta	89.999178
_cell_angle_gamma	91.161660
loop_
_atom_site_label
_atom_site_type_symbol
_atom_site_fract_x
_atom_site_fract_y
_atom_site_fract_z
O1	O	1.259699	-0.303018	0.121658
O2	O	0.983658	-0.292076	0.121691
O3	O	1.128025	-0.115446	0.121668
O4	O	1.115332	-0.479648	0.121681
O5	O	1.128015	-0.115459	-0.121930
O6	O	0.983648	-0.292088	-0.121908
O7	O	1.259689	-0.303031	-0.121941
Cu8	Cu	1.121667	-0.297561	-0.144167
Cu9	Cu	1.121679	-0.297546	0.143917
O10	O	1.115322	-0.479661	-0.121918
C11	C	1.127088	-0.068560	-0.000129
C12	C	1.124300	0.071163	-0.000124
C13	C	0.948307	-0.287295	-0.000104
C14	C	0.842987	-0.273016	-0.000092
C15	C	1.295040	-0.307812	-0.000142
C16	C	1.400360	-0.322091	-0.000145
C17	C	1.650152	-0.246925	-0.000117
C18	C	1.593189	-0.348176	-0.000119
C19	C	1.485889	-0.333659	-0.000134
C20	C	1.757462	-0.261441	-0.000103
C21	C	1.116259	-0.526546	-0.000117
C22	C	1.119047	-0.666270	-0.000113
N23	N	1.121666	-0.297572	-0.346789
C24	C	1.209301	0.142104	-0.000138
C25	C	1.206675	0.273389	-0.000128
C26	C	1.034039	0.262779	-0.000094
C27	C	1.036666	0.131497	-0.000094
C28	C	1.308971	0.148231	-0.000164
C29	C	1.306345	0.279515	-0.000153
C30	C	1.063655	-0.214826	-0.576787
C31	C	1.063646	-0.214845	-0.423450
C32	C	1.179706	-0.380275	-0.423474
C33	C	1.179720	-0.380249	-0.576808
C34	C	0.996645	-0.119320	-0.576772
C35	C	0.996636	-0.119339	-0.423435
N36	N	1.121688	-0.297526	0.346540
H37	H	1.625006	-0.445762	-0.000110
C38	C	0.944407	0.054413	0.000243
C39	C	0.940877	-0.021233	0.125593
C40	C	0.855892	-0.092246	0.125967
H41	H	0.941737	0.002865	-0.084602
H42	H	0.891817	0.109113	0.000339
H43	H	0.993452	-0.075928	0.125484
H44	H	0.943531	0.030283	0.210458
H45	H	0.803303	-0.037546	0.126063
H46	H	0.853230	-0.143787	0.041117
H47	H	0.853482	-0.143572	0.211022
C48	C	1.607553	-0.116918	-0.000042
C49	C	1.508053	-0.128187	-0.000012
C50	C	1.468766	-0.008454	0.000084
H51	H	1.627948	-0.072439	-0.084961
H52	H	1.627993	-0.072537	0.084947
H53	H	1.487621	-0.172549	-0.084992
H54	H	1.487631	-0.172644	0.084901
H55	H	1.489206	0.035927	0.085072
H56	H	1.489168	0.036015	-0.084837
H57	H	1.401252	-0.016084	0.000117
C58	C	0.938993	0.328521	-0.000144
C59	C	0.954883	0.458677	-0.000178
C60	C	0.867347	0.519275	-0.000245
H61	H	0.903890	0.304973	0.084786
H62	H	0.903943	0.304899	-0.085122
H63	H	0.989918	0.482290	0.084791
H64	H	0.989972	0.482262	-0.085102
H65	H	0.832297	0.495653	-0.085223
H66	H	0.832250	0.495717	0.084687
H67	H	0.878117	0.607592	-0.000281
C68	C	1.360936	0.104099	0.135878
C69	C	1.390099	0.208352	0.219095
C70	C	1.437958	0.167745	0.344433
H71	H	1.415114	0.057907	0.107744
H72	H	1.319431	0.052038	0.192604
H73	H	1.431602	0.260391	0.162380
H74	H	1.335940	0.254554	0.247268
H75	H	1.396452	0.115685	0.401158
H76	H	1.492131	0.121554	0.316284
H77	H	1.457742	0.238473	0.400918
H78	H	1.340705	0.109408	-0.105349
C79	C	0.896906	-0.150748	-0.368033
C80	C	0.868447	-0.269535	-0.419328
C81	C	0.776592	-0.298517	-0.368304
H82	H	0.853934	-0.089766	-0.402669
H83	H	0.896878	-0.150833	-0.263978
H84	H	0.868468	-0.269441	-0.523361
H85	H	0.911393	-0.330543	-0.384696
H86	H	0.776565	-0.298602	-0.264249
H87	H	0.733629	-0.237528	-0.402943
H88	H	0.757275	-0.379121	-0.403088
H89	H	1.020004	-0.022620	-0.618352
H90	H	1.336471	0.322136	0.105023
C91	C	1.356399	0.329923	-0.136215
C92	C	1.389641	0.229508	-0.219452
C93	C	1.435740	0.275893	-0.344807
H94	H	1.408602	0.382648	-0.108100
H95	H	1.312906	0.376764	-0.192920
H96	H	1.433131	0.182687	-0.162758
H97	H	1.337457	0.176773	-0.247606
H98	H	1.392247	0.322734	-0.401511
H99	H	1.487939	0.328619	-0.316677
H100	H	1.458293	0.207770	-0.401305
H101	H	1.226986	-0.447579	-0.639230
H102	H	1.226954	-0.447625	-0.361045
H103	H	0.925213	-0.151604	-0.624353
H104	H	1.026485	-0.027779	-0.375849
