data_functionalizedCrystal
_audit_creation_method	'MofGen! by Chris Wilmer'
_symmetry_space_group_name_H-M	'P1'
_symmetry_Int_Tables_number	1
_symmetry_cell_setting	triclinic
loop_
_symmetry_equiv_pos_as_xyz
  x,y,z
_cell_length_a	12.645331
_cell_length_b	21.295418
_cell_length_c	12.645323
_cell_angle_alpha	90.031095
_cell_angle_beta	90.014068
_cell_angle_gamma	90.031874
loop_
_atom_site_label
_atom_site_type_symbol
_atom_site_fract_x
_atom_site_fract_y
_atom_site_fract_z
Zn1	Zn	-1.620613	0.250635	-0.599157
Zn2	Zn	-1.287280	0.583969	-0.265824
Zn3	Zn	-0.953946	0.917302	0.067510
Zn4	Zn	-1.620445	0.355910	-0.421878
Zn5	Zn	-1.287112	0.689243	-0.088544
Zn6	Zn	-0.953778	1.022576	0.244789
Zn7	Zn	-1.443328	0.250655	-0.421928
Zn8	Zn	-1.109994	0.583988	-0.088595
Zn9	Zn	-0.776661	0.917322	0.244739
Zn10	Zn	-1.443260	0.355867	-0.599120
Zn11	Zn	-1.109926	0.689201	-0.265786
Zn12	Zn	-0.776593	1.022534	0.067547
O13	O	-1.531911	0.303267	-0.510521
O14	O	-1.198578	0.636600	-0.177187
O15	O	-0.865245	0.969934	0.156146
O16	O	-1.768938	0.264610	-0.575635
O17	O	-1.435605	0.597943	-0.242302
O18	O	-1.102271	0.931276	0.091032
O19	O	-1.596908	0.341974	-0.273537
O20	O	-1.263575	0.675307	0.059796
O21	O	-0.930242	1.008640	0.393130
O22	O	-1.466944	0.162563	-0.445474
O23	O	-1.133610	0.495896	-0.112141
O24	O	-0.800277	0.829230	0.221192
O25	O	-1.768815	0.341955	-0.445389
O26	O	-1.435481	0.675288	-0.112055
O27	O	-1.102148	1.008621	0.221278
O28	O	-1.597194	0.162549	-0.575684
O29	O	-1.263861	0.495882	-0.242350
O30	O	-0.930528	0.829215	0.090983
O31	O	-1.466781	0.264643	-0.273574
O32	O	-1.133447	0.597977	0.059759
O33	O	-0.800114	0.931310	0.393093
O34	O	-1.294971	0.264602	-0.445438
O35	O	-0.961638	0.597935	-0.112105
O36	O	-0.628305	0.931269	0.221228
O37	O	-1.466828	0.341882	-0.747472
O38	O	-1.133495	0.675215	-0.414139
O39	O	-0.800161	1.008548	-0.080805
O40	O	-1.294922	0.341901	-0.575620
O41	O	-0.961588	0.675234	-0.242287
O42	O	-0.628255	1.008568	0.091046
O43	O	-1.597129	0.264568	-0.747499
O44	O	-1.263795	0.597902	-0.414166
O45	O	-0.930462	0.931235	-0.080833
O46	O	-1.596842	0.443994	-0.445353
O47	O	-1.263509	0.777327	-0.112019
O48	O	-0.930176	1.110660	0.221314
O49	O	-1.466665	0.443962	-0.575572
O50	O	-1.133332	0.777296	-0.242238
O51	O	-0.799999	1.110629	0.091095
C52	C	-1.256482	0.303250	-0.510531
C53	C	-0.923148	0.636583	-0.177198
C54	C	-0.589815	0.969916	0.156135
C55	C	-1.138652	0.303257	-0.510561
C56	C	-0.805318	0.636591	-0.177228
C57	C	-0.471985	0.969924	0.156106
C58	C	-0.971092	0.352151	-0.592036
C59	C	-0.637758	0.685484	-0.258703
C60	C	-0.304425	1.018817	0.074630
C61	C	-1.093652	0.351994	-0.592374
C62	C	-0.760318	0.685328	-0.259040
C63	C	-0.426985	1.018661	0.074293
C64	C	-1.094205	0.236956	-0.541096
C65	C	-0.760872	0.570289	-0.207763
C66	C	-0.427538	0.903622	0.125571
C67	C	-0.971607	0.237252	-0.541673
C68	C	-0.638273	0.570586	-0.208340
C69	C	-0.304940	0.903919	0.124993
C70	C	-0.971398	0.320127	-0.398304
C71	C	-0.638065	0.653461	-0.064970
C72	C	-0.304731	0.986794	0.268363
C73	C	-1.094003	0.321579	-0.398905
C74	C	-0.760670	0.654912	-0.065572
C75	C	-0.427337	0.988245	0.267761
C76	C	-1.531757	0.466818	-0.510476
C77	C	-1.198424	0.800152	-0.177142
C78	C	-0.865090	1.133485	0.156191
C79	C	-1.531788	0.536787	-0.510492
C80	C	-1.198455	0.870120	-0.177159
C81	C	-0.865121	1.203453	0.156175
C82	C	-1.531990	0.303218	-0.787026
C83	C	-1.198656	0.636551	-0.453693
C84	C	-0.865323	0.969885	-0.120359
C85	C	-1.532023	0.303197	-0.904856
C86	C	-1.198689	0.636531	-0.571523
C87	C	-0.865356	0.969864	-0.238189
C88	C	-0.808417	0.303282	-0.510518
C89	C	-0.475083	0.636615	-0.177184
C90	C	-0.141750	0.969949	0.156149
C91	C	-0.926247	0.303281	-0.510535
C92	C	-0.592913	0.636614	-0.177202
C93	C	-0.259580	0.969948	0.156131
C94	C	-1.599750	1.036184	-0.578429
C95	C	-1.266417	1.369517	-0.245096
C96	C	-0.933084	1.702850	0.088237
C97	C	-1.599729	0.970441	-0.578415
C98	C	-1.266396	1.303775	-0.245082
C99	C	-0.933063	1.637108	0.088252
C100	C	-1.531956	0.937626	-0.510563
C101	C	-1.198623	1.270959	-0.177230
C102	C	-0.865290	1.604293	0.156104
C103	C	-1.464218	0.970559	-0.442701
C104	C	-1.130885	1.303892	-0.109368
C105	C	-0.797552	1.637225	0.223965
C106	C	-1.464249	1.036300	-0.442710
C107	C	-1.130915	1.369633	-0.109377
C108	C	-0.797582	1.702967	0.223957
N109	N	-1.439119	0.834455	-0.502344
N110	N	-1.105785	1.167788	-0.169011
N111	N	-0.772452	1.501122	0.164322
N112	N	-1.439093	0.772003	-0.502342
N113	N	-1.105760	1.105337	-0.169009
N114	N	-0.772426	1.438670	0.164324
C115	C	-1.531863	0.739551	-0.510531
C116	C	-1.198530	1.072885	-0.177198
C117	C	-0.865196	1.406218	0.156136
N118	N	-1.624662	0.771910	-0.518743
N119	N	-1.291328	1.105243	-0.185409
N120	N	-0.957995	1.438577	0.147924
N121	N	-1.624686	0.834367	-0.518750
N122	N	-1.291353	1.167700	-0.185417
N123	N	-0.958019	1.501034	0.147916
C124	C	-1.531917	0.866341	-0.510546
C125	C	-1.198583	1.199674	-0.177212
C126	C	-0.865250	1.533007	0.156121
C127	C	-1.599579	0.635341	-0.578368
C128	C	-1.266246	0.968674	-0.245034
C129	C	-0.932913	1.302008	0.088299
C130	C	-1.599560	0.569597	-0.578346
C131	C	-1.266227	0.902931	-0.245013
C132	C	-0.932894	1.236264	0.088321
C133	C	-1.464040	0.569716	-0.442638
C134	C	-1.130707	0.903049	-0.109304
C135	C	-0.797373	1.236383	0.224029
C136	C	-1.464068	0.635458	-0.442654
C137	C	-1.130735	0.968792	-0.109321
C138	C	-0.797402	1.302125	0.224013
C139	C	-1.531837	0.668267	-0.510525
C140	C	-1.198503	1.001600	-0.177191
C141	C	-0.865170	1.334934	0.156142
C142	C	-1.532056	1.139077	-0.510579
C143	C	-1.198723	1.472410	-0.177246
C144	C	-0.865389	1.805743	0.156087
C145	C	-1.532017	1.069108	-0.510581
C146	C	-1.198684	1.402442	-0.177247
C147	C	-0.865350	1.735775	0.156086
C148	C	-1.449798	0.351606	-1.072403
C149	C	-1.116465	0.684939	-0.739070
C150	C	-0.783131	1.018273	-0.405736
C151	C	-1.450013	0.351846	-0.949843
C152	C	-1.116680	0.685179	-0.616510
C153	C	-0.783346	1.018512	-0.283176
C154	C	-1.643714	0.321203	-0.949356
C155	C	-1.310381	0.654536	-0.616023
C156	C	-0.977047	0.987869	-0.282689
C157	C	-1.643263	0.321506	-1.071954
C158	C	-1.309930	0.654840	-0.738621
C159	C	-0.976596	0.988173	-0.405287
C160	C	-1.503613	0.236513	-1.072070
C161	C	-1.170280	0.569846	-0.738737
C162	C	-0.836946	0.903179	-0.405404
C163	C	-1.501121	0.236912	-0.949464
C164	C	-1.167787	0.570246	-0.616131
C165	C	-0.834454	0.903579	-0.282798
C166	C	-1.531895	0.303270	-0.235091
C167	C	-1.198561	0.636603	0.098243
C168	C	-0.865228	0.969937	0.431576
C169	C	-1.532067	0.303113	-0.117261
C170	C	-1.198733	0.636447	0.216072
C171	C	-0.865400	0.969780	0.549405
H172	H	-1.123701	0.401161	-0.573235
H173	H	-0.790368	0.734494	-0.239902
H174	H	-0.457034	1.067827	0.093431
F175	F	-1.671713	0.670260	-0.650591
F176	F	-1.338379	1.003594	-0.317257
F177	F	-1.005046	1.336927	0.016076
H178	H	-1.563534	0.200384	-1.101082
H179	H	-1.230200	0.533717	-0.767748
H180	H	-0.896867	0.867050	-0.434415
H181	H	-1.123355	0.199555	-0.483588
H182	H	-0.790022	0.532889	-0.150254
H183	H	-0.456688	0.866222	0.183079
F184	F	-1.474611	0.416374	-0.911507
F185	F	-1.141278	0.749708	-0.578174
F186	F	-0.807944	1.083041	-0.244840
H187	H	-1.706636	0.287720	-1.101629
H188	H	-1.373303	0.621053	-0.768296
H189	H	-1.039970	0.954387	-0.434963
H190	H	-1.654941	1.062892	-0.633687
H191	H	-1.321608	1.396226	-0.300353
H192	H	-0.988274	1.729559	0.032980
H193	H	-0.940454	0.367649	-0.370554
H194	H	-0.607121	0.700983	-0.037221
H195	H	-0.273787	1.034316	0.296113
F196	F	-1.134035	0.278428	-0.315270
F197	F	-0.800702	0.611761	0.018064
F198	F	-0.467368	0.945095	0.351397
H199	H	-0.941577	0.401479	-0.573111
H200	H	-0.608243	0.734813	-0.239778
H201	H	-0.274910	1.068146	0.093556
H202	H	-1.418926	0.223334	-0.920380
H203	H	-1.085593	0.556667	-0.587046
H204	H	-0.752259	0.890000	-0.253713
F205	F	-1.341215	0.337018	-1.110936
F206	F	-1.007882	0.670351	-0.777602
F207	F	-0.674549	1.003685	-0.444269
F208	F	-1.134370	0.217938	-0.647173
F209	F	-0.801037	0.551271	-0.313840
F210	F	-0.467703	0.884605	0.019494
F211	F	-1.671824	0.935393	-0.650631
F212	F	-1.338491	1.268726	-0.317298
F213	F	-1.005157	1.602060	0.016036
H214	H	-1.468396	0.400671	-1.103210
H215	H	-1.135063	0.734005	-0.769877
H216	H	-0.801729	1.067338	-0.436544
H217	H	-1.408908	0.662266	-0.387408
H218	H	-1.075575	0.995599	-0.054075
H219	H	-0.742242	1.328933	0.279258
F220	F	-1.392093	0.935634	-0.370485
F221	F	-1.058760	1.268967	-0.037152
F222	F	-0.725426	1.602300	0.296182
F223	F	-0.930835	0.337778	-0.700097
F224	F	-0.597501	0.671111	-0.366764
F225	F	-0.264168	1.004444	-0.033430
F226	F	-1.131970	0.385353	-0.368809
F227	F	-0.798636	0.718687	-0.035476
F228	F	-0.465303	1.052020	0.297858
F229	F	-1.671661	0.534556	-0.650559
F230	F	-1.338327	0.867890	-0.317225
F231	F	-1.004994	1.201223	0.016108
F232	F	-1.132025	0.337423	-0.701066
F233	F	-0.798691	0.670756	-0.367733
F234	F	-0.465358	1.004089	-0.034400
H235	H	-1.367189	0.340578	-0.919756
H236	H	-1.033856	0.673912	-0.586422
H237	H	-0.700523	1.007245	-0.253089
H238	H	-1.667385	0.370193	-1.100552
H239	H	-1.334052	0.703526	-0.767219
H240	H	-1.000718	1.036859	-0.433886
H241	H	-1.706653	0.287000	-0.920217
H242	H	-1.373319	0.620334	-0.586884
H243	H	-1.039986	0.953667	-0.253551
H244	H	-0.942398	0.284531	-0.337578
H245	H	-0.609065	0.617864	-0.004244
H246	H	-0.275731	0.951197	0.329089
F247	F	-1.391918	0.534796	-0.370416
F248	F	-1.058584	0.868129	-0.037083
F249	F	-0.725251	1.201463	0.296250
H250	H	-1.556666	0.198872	-0.918842
H251	H	-1.223333	0.532205	-0.585508
H252	H	-0.890000	0.865539	-0.252175
F253	F	-1.675787	0.384173	-0.909229
F254	F	-1.342454	0.717506	-0.575896
F255	F	-1.009121	1.050839	-0.242563
F256	F	-1.392154	1.071342	-0.370494
F257	F	-1.058820	1.404675	-0.037160
F258	F	-0.725487	1.738009	0.296173
F259	F	-0.934263	0.218578	-0.648914
F260	F	-0.600929	0.551911	-0.315581
F261	F	-0.267596	0.885244	0.017753
H262	H	-1.423587	0.220100	-1.102990
H263	H	-1.090254	0.553434	-0.769656
H264	H	-0.756921	0.886767	-0.436323
H265	H	-0.941943	0.199536	-0.485034
H266	H	-0.608610	0.532869	-0.151701
H267	H	-0.275277	0.866203	0.181633
