data_functionalizedCrystal
_audit_creation_method	'MofGen! by Chris Wilmer'
_symmetry_space_group_name_H-M	'P1'
_symmetry_Int_Tables_number	1
_symmetry_cell_setting	triclinic
loop_
_symmetry_equiv_pos_as_xyz
  x,y,z
_cell_length_a	18.215407
_cell_length_b	18.215404
_cell_length_c	18.215399
_cell_angle_alpha	89.972067
_cell_angle_beta	90.019350
_cell_angle_gamma	89.975729
loop_
_atom_site_label
_atom_site_type_symbol
_atom_site_fract_x
_atom_site_fract_y
_atom_site_fract_z
Zn1	Zn	1.125074	0.292980	0.416118
Zn2	Zn	1.625074	0.792980	0.916118
Zn3	Zn	1.124986	0.416052	0.293053
Zn4	Zn	1.624986	0.916052	0.793053
Zn5	Zn	1.002007	0.293005	0.293065
Zn6	Zn	1.502007	0.793005	0.793065
Zn7	Zn	1.001975	0.416010	0.416078
Zn8	Zn	1.501975	0.916010	0.916078
O9	O	1.063510	0.354512	0.354578
O10	O	1.563510	0.854512	0.854578
O11	O	1.228046	0.309313	0.399805
O12	O	1.728046	0.809313	0.899805
O13	O	1.108649	0.399758	0.190070
O14	O	1.608649	0.899758	0.690070
O15	O	1.018383	0.190017	0.309411
O16	O	1.518383	0.690017	0.809411
O17	O	1.227982	0.399733	0.309389
O18	O	1.727982	0.899733	0.809389
O19	O	1.108800	0.189999	0.399817
O20	O	1.608800	0.689999	0.899817
O21	O	1.018298	0.309355	0.190079
O22	O	1.518298	0.809355	0.690079
O23	O	0.899019	0.309315	0.309372
O24	O	1.399019	0.809315	0.809372
O25	O	1.018327	0.399662	0.519067
O26	O	1.518327	0.899662	1.019067
O27	O	0.898995	0.399686	0.399748
O28	O	1.398995	0.899686	0.899748
O29	O	1.108768	0.309272	0.519097
O30	O	1.608768	0.809272	1.019097
O31	O	1.108617	0.519031	0.309350
O32	O	1.608617	1.019031	0.809350
O33	O	1.018242	0.519000	0.399736
O34	O	1.518242	1.019000	0.899736
C35	C	0.872304	0.354499	0.354557
C36	C	1.372304	0.854499	0.854557
C37	C	0.790505	0.354512	0.354566
C38	C	1.290505	0.854512	0.854566
C39	C	0.602318	0.401642	0.401566
C40	C	1.102318	0.901642	0.901566
C41	C	0.525459	0.401644	0.401575
C42	C	1.025459	0.901644	0.901575
C43	C	0.525455	0.307395	0.307607
C44	C	1.025455	0.807395	0.807607
C45	C	0.602312	0.307390	0.307602
C46	C	1.102312	0.807390	0.807602
C47	C	0.640742	0.354517	0.354581
C48	C	1.140742	0.854517	0.854581
C49	C	0.487026	0.354525	0.354595
C50	C	0.987026	0.854525	0.854595
C51	C	0.403692	0.354527	0.354604
C52	C	0.903692	0.854527	0.854604
C53	C	0.724081	0.354514	0.354572
C54	C	1.224081	0.854514	0.854572
C55	C	1.063436	0.545718	0.354553
C56	C	1.563436	1.045718	0.854553
C57	C	1.063472	0.627517	0.354567
C58	C	1.563472	1.127517	0.854567
C59	C	1.110644	0.815702	0.307600
C60	C	1.610644	1.315702	0.807600
C61	C	1.110679	0.892561	0.307622
C62	C	1.610679	1.392561	0.807622
C63	C	1.016489	0.892569	0.401663
C64	C	1.516489	1.392569	0.901663
C65	C	1.016459	0.815712	0.401644
C66	C	1.516459	1.315712	0.901644
C67	C	1.063536	0.777280	0.354609
C68	C	1.563536	1.277280	0.854609
C69	C	1.063600	0.930997	0.354649
C70	C	1.563600	1.430997	0.854649
C71	C	1.063637	1.014330	0.354673
C72	C	1.563637	1.514330	0.854673
C73	C	1.063500	0.693942	0.354585
C74	C	1.563500	1.193942	0.854585
C75	C	1.255463	0.354525	0.354600
C76	C	1.755463	0.854525	0.854600
C77	C	1.337262	0.354531	0.354609
C78	C	1.837262	0.854531	0.854609
C79	C	1.063554	0.354460	0.546531
C80	C	1.563554	0.854460	1.046531
C81	C	1.063572	0.354437	0.628330
C82	C	1.563572	0.854437	1.128330
C83	C	1.063610	1.162559	0.354633
C84	C	1.563610	1.662559	0.854633
C85	C	1.063664	1.080760	0.354691
C86	C	1.563664	1.580760	0.854691
C87	C	1.063510	0.354511	0.163372
C88	C	1.563510	0.854511	0.663372
C89	C	1.063634	0.354326	0.081574
C90	C	1.563634	0.854326	0.581574
C91	C	1.110692	0.307308	0.893405
C92	C	1.610692	0.807308	1.393405
C93	C	1.110683	0.307328	0.816546
C94	C	1.610683	0.807328	1.316546
C95	C	1.016512	0.401460	0.816505
C96	C	1.516512	0.901460	1.316505
C97	C	1.016525	0.401444	0.893362
C98	C	1.516525	0.901444	1.393362
C99	C	1.063614	0.354363	0.931810
C100	C	1.563614	0.854363	1.431810
C101	C	1.063592	0.354400	0.778094
C102	C	1.563592	0.854400	1.278094
C103	C	1.063582	0.354422	0.694760
C104	C	1.563582	0.854422	1.194760
C105	C	1.063625	0.354342	1.015149
C106	C	1.563625	0.854342	1.515149
H107	H	0.494178	0.440017	0.439836
H108	H	0.994178	0.940017	0.939836
F109	F	1.160820	0.933449	0.257590
F110	F	1.660820	1.433449	0.757590
H111	H	0.978097	0.784427	0.439928
H112	H	1.478097	1.284427	0.939928
H113	H	0.633605	0.440015	0.439820
H114	H	1.133605	0.940015	0.939820
H115	H	0.494156	0.269026	0.269358
H116	H	0.994156	0.769026	0.769358
H117	H	1.148978	0.784414	0.269301
H118	H	1.648978	1.284414	0.769301
H119	H	0.978173	0.439790	0.785191
H120	H	1.478173	0.939790	1.285191
F121	F	0.966388	0.933477	0.451718
F122	F	1.466388	1.433477	0.951718
F123	F	0.966420	0.451533	0.934238
F124	F	1.466420	0.951533	1.434238
F125	F	1.160806	0.257200	0.934322
F126	F	1.660806	0.757200	1.434322
H127	H	0.633598	0.269010	0.269341
H128	H	1.133598	0.769010	0.769341
F129	F	1.160791	0.257247	0.775676
F130	F	1.660791	0.757247	1.275676
