data_functionalizedCrystal
_audit_creation_method	'MofGen! by Chris Wilmer'
_symmetry_space_group_name_H-M	'P1'
_symmetry_Int_Tables_number	1
_symmetry_cell_setting	triclinic
loop_
_symmetry_equiv_pos_as_xyz
  x,y,z
_cell_length_a	12.827893
_cell_length_b	12.759394
_cell_length_c	12.827885
_cell_angle_alpha	89.968422
_cell_angle_beta	90.019272
_cell_angle_gamma	89.977542
loop_
_atom_site_label
_atom_site_type_symbol
_atom_site_fract_x
_atom_site_fract_y
_atom_site_fract_z
Zn1	Zn	1.597618	0.418216	0.590836
Zn2	Zn	1.597491	0.593932	0.416090
Zn3	Zn	1.422859	0.418268	0.416109
Zn4	Zn	1.422823	0.593854	0.590790
O5	O	1.510198	0.506068	0.503456
O6	O	1.743837	0.441537	0.567666
O7	O	1.574287	0.570684	0.269857
O8	O	1.446110	0.271240	0.439314
O9	O	1.743743	0.570634	0.439282
O10	O	1.574505	0.271202	0.567685
O11	O	1.445986	0.441624	0.269871
O12	O	1.276619	0.441548	0.439270
O13	O	1.446048	0.570501	0.737033
O14	O	1.276592	0.570551	0.567608
O15	O	1.574469	0.441461	0.737066
O16	O	1.574252	0.740943	0.439238
O17	O	1.445925	0.740885	0.567589
C18	C	1.238688	0.506047	0.503437
C19	C	1.122535	0.506064	0.503453
C20	C	1.510099	0.779035	0.503430
C21	C	1.510152	0.895812	0.503453
C22	C	1.070764	0.569998	0.566860
C23	C	0.950714	0.570017	0.566879
C24	C	1.643749	0.895614	0.637226
C25	C	1.710572	0.950377	0.704118
C26	C	1.710618	1.060098	0.704136
C27	C	1.643831	1.115060	0.637258
C28	C	1.577008	1.060298	0.570366
C29	C	1.576972	0.950574	0.570352
C30	C	1.443407	1.060495	0.436600
C31	C	1.443365	0.950774	0.436574
C32	C	1.376620	1.115457	0.369721
C33	C	1.309801	1.060695	0.302822
C34	C	1.309758	0.950967	0.302805
C35	C	1.376542	0.896012	0.369682
C36	C	1.782768	0.506089	0.503477
C37	C	1.898921	0.506098	0.503486
C38	C	1.510269	0.505967	0.776027
C39	C	1.510299	0.505924	0.892180
C40	C	1.510288	1.232034	0.503497
C41	C	1.510230	1.115257	0.503492
C42	C	1.510187	0.506092	0.231947
C43	C	1.510359	0.505839	0.115794
C44	C	1.573853	0.442058	0.943981
C45	C	1.573886	0.442012	1.064032
H46	H	1.115319	0.624717	0.621136
Br47	Br	1.419671	0.596990	1.041559
Br48	Br	0.876516	0.661263	0.657355
H49	H	1.077981	0.451337	0.449185
H50	H	1.255339	0.906385	0.248338
H51	H	1.764948	0.905617	0.758572
H52	H	1.628300	0.387338	1.108579
H53	H	1.455906	0.560560	0.936708
H54	H	0.943436	0.451362	0.449194
H55	H	1.628236	0.387411	0.899453
Br56	Br	1.643679	0.746705	0.637218
Br57	Br	1.801301	1.134423	0.794924
Br58	Br	1.376474	0.747103	0.369681
Br59	Br	1.376837	1.264366	0.369588
Br60	Br	1.219158	1.135290	0.212081
Br61	Br	1.644058	1.263969	0.637121
