data_functionalizedCrystal
_audit_creation_method	'MofGen! by Chris Wilmer'
_symmetry_space_group_name_H-M	'P1'
_symmetry_Int_Tables_number	1
_symmetry_cell_setting	triclinic
loop_
_symmetry_equiv_pos_as_xyz
  x,y,z
_cell_length_a	18.215407
_cell_length_b	16.625546
_cell_length_c	18.215399
_cell_angle_alpha	89.970824
_cell_angle_beta	89.980167
_cell_angle_gamma	90.022916
loop_
_atom_site_label
_atom_site_type_symbol
_atom_site_fract_x
_atom_site_fract_y
_atom_site_fract_z
Zn1	Zn	1.125084	-0.321000	-0.416110
Zn2	Zn	1.625084	0.179000	0.083890
Zn3	Zn	1.124998	-0.455841	-0.293041
Zn4	Zn	1.624998	0.044159	0.206959
Zn5	Zn	1.002017	-0.321027	-0.293057
Zn6	Zn	1.502017	0.178973	0.206943
Zn7	Zn	1.001988	-0.455796	-0.416066
Zn8	Zn	1.501988	0.044204	0.083934
O9	O	1.063522	-0.388416	-0.354568
O10	O	1.563522	0.111584	0.145432
O11	O	1.228057	-0.338895	-0.399796
O12	O	1.728057	0.161105	0.100204
O13	O	1.108660	-0.437987	-0.190059
O14	O	1.608660	0.062013	0.309941
O15	O	1.018390	-0.208191	-0.309405
O16	O	1.518390	0.291809	0.190595
O17	O	1.227994	-0.437961	-0.309378
O18	O	1.727994	0.062039	0.190622
O19	O	1.108807	-0.208171	-0.399812
O20	O	1.608807	0.291829	0.100188
O21	O	1.018307	-0.338940	-0.190070
O22	O	1.518307	0.161060	0.309930
O23	O	0.899029	-0.338896	-0.309363
O24	O	1.399029	0.161104	0.190637
O25	O	1.018341	-0.437885	-0.519056
O26	O	1.518341	0.062115	-0.019056
O27	O	0.899008	-0.437910	-0.399737
O28	O	1.399008	0.062090	0.100263
O29	O	1.108779	-0.338851	-0.519088
O30	O	1.608779	0.161149	-0.019088
O31	O	1.108632	-0.568667	-0.309335
O32	O	1.608632	-0.068667	0.190665
O33	O	1.018257	-0.568634	-0.399721
O34	O	1.518257	-0.068634	0.100279
C35	C	0.872315	-0.388402	-0.354547
C36	C	1.372315	0.111598	0.145453
C37	C	0.790517	-0.388415	-0.354556
C38	C	1.290517	0.111585	0.145444
C39	C	0.602331	-0.440053	-0.401554
C40	C	1.102331	0.059947	0.098446
C41	C	0.525472	-0.440056	-0.401563
C42	C	1.025472	0.059944	0.098437
C43	C	0.525465	-0.336793	-0.307598
C44	C	1.025465	0.163207	0.192402
C45	C	0.602322	-0.336787	-0.307593
C46	C	1.102322	0.163213	0.192407
C47	C	0.640753	-0.388422	-0.354570
C48	C	1.140753	0.111578	0.145430
C49	C	0.487037	-0.388430	-0.354584
C50	C	0.987037	0.111570	0.145416
C51	C	0.403703	-0.388433	-0.354594
C52	C	0.903703	0.111567	0.145406
C53	C	0.724092	-0.388418	-0.354562
C54	C	1.224092	0.111582	0.145438
C55	C	1.063452	-0.597907	-0.354537
C56	C	1.563452	-0.097907	0.145463
C57	C	1.063490	-0.687528	-0.354549
C58	C	1.563490	-0.187528	0.145451
C59	C	1.063618	-1.015703	-0.354625
C60	C	1.563618	-0.515703	0.145375
C61	C	1.063580	-0.924395	-0.354606
C62	C	1.563580	-0.424395	0.145394
C63	C	1.063553	-0.851618	-0.354587
C64	C	1.563553	-0.351618	0.145413
C65	C	1.063516	-0.760304	-0.354568
C66	C	1.563516	-0.260304	0.145432
C67	C	1.255475	-0.388430	-0.354590
C68	C	1.755475	0.111570	0.145410
C69	C	1.337274	-0.388436	-0.354599
C70	C	1.837274	0.111564	0.145401
C71	C	1.063567	-0.388360	-0.546521
C72	C	1.563567	0.111640	-0.046521
C73	C	1.063586	-0.388336	-0.628320
C74	C	1.563586	0.111664	-0.128320
C75	C	1.063612	-0.178107	-0.354615
C76	C	1.563612	0.321893	0.145385
C77	C	1.063650	-0.088486	-0.354635
C78	C	1.563650	0.411514	0.145365
C79	C	1.110694	-0.336721	-0.816532
C80	C	1.610694	0.163279	-0.316532
C81	C	1.110703	-0.336698	-0.893391
C82	C	1.610703	0.163302	-0.393391
C83	C	1.016530	-0.439827	-0.893346
C84	C	1.516530	0.060173	-0.393346
C85	C	1.016518	-0.439846	-0.816489
C86	C	1.516518	0.060154	-0.316489
C87	C	1.063604	-0.388294	-0.778084
C88	C	1.563604	0.111706	-0.278084
C89	C	1.063625	-0.388252	-0.931800
C90	C	1.563625	0.111748	-0.431800
C91	C	1.063634	-0.388227	-1.015134
C92	C	1.563634	0.111773	-0.515134
C93	C	1.063594	-0.388318	-0.694745
C94	C	1.563594	0.111682	-0.194745
C95	C	1.063519	-0.388413	-0.163362
C96	C	1.563519	0.111587	0.336638
C97	C	1.063643	-0.388209	-0.081563
C98	C	1.563643	0.111791	0.418437
H99	H	0.633606	-0.294737	-0.269333
H100	H	1.133606	0.205263	0.230667
N101	N	0.643779	-0.495742	-0.452222
N102	N	1.143779	0.004258	0.047778
H103	H	0.630430	-0.483291	-0.504825
H104	H	1.130430	0.016709	-0.004825
H105	H	0.698286	-0.487883	-0.445027
H106	H	1.198286	0.012117	0.054973
N107	N	0.484017	-0.281115	-0.256920
N108	N	0.984017	0.218885	0.243080
H109	H	0.497377	-0.293573	-0.204321
H110	H	0.997377	0.206427	0.295679
H111	H	0.497430	-0.223540	-0.268499
H112	H	0.997430	0.276460	0.231501
H113	H	1.149047	-0.294701	-0.924692
H114	H	1.649047	0.205299	-0.424692
N115	N	0.965735	-0.495414	-0.934769
N116	N	1.465735	0.004586	-0.434769
H117	H	0.972884	-0.487575	-0.989292
H118	H	1.472884	0.012425	-0.489292
H119	H	0.977151	-0.553008	-0.921327
H120	H	1.477151	-0.053008	-0.421327
H121	H	0.978166	-0.481842	-0.785183
H122	H	1.478166	0.018158	-0.285183
N123	N	1.161476	-0.281122	-0.775108
N124	N	1.661476	0.218878	-0.275108
H125	H	1.191308	-0.248446	-0.811131
H126	H	1.691308	0.251554	-0.311131
H127	H	1.131530	-0.243815	-0.743222
H128	H	1.631530	0.256185	-0.243222
N129	N	0.484030	-0.495747	-0.452235
N130	N	0.984030	0.004253	0.047765
H131	H	0.520041	-0.528456	-0.481991
H132	H	1.020041	-0.028456	0.018009
H133	H	0.452118	-0.533019	-0.422216
H134	H	0.952118	-0.033019	0.077784
