data_functionalizedCrystal
_audit_creation_method	'MofGen! by Chris Wilmer'
_symmetry_space_group_name_H-M	'P1'
_symmetry_Int_Tables_number	1
_symmetry_cell_setting	triclinic
loop_
_symmetry_equiv_pos_as_xyz
  x,y,z
_cell_length_a	27.732048
_cell_length_b	27.732048
_cell_length_c	26.210047
_cell_angle_alpha	90.000479
_cell_angle_beta	89.996535
_cell_angle_gamma	97.357345
loop_
_atom_site_label
_atom_site_type_symbol
_atom_site_fract_x
_atom_site_fract_y
_atom_site_fract_z
O1	O	0.640931	-0.057510	-0.042369
O2	O	0.890931	0.192490	0.207631
O3	O	1.140931	0.442490	0.457631
O4	O	1.390931	0.692490	0.707631
O5	O	0.500138	-0.066256	-0.042385
O6	O	0.750138	0.183744	0.207615
O7	O	1.000138	0.433744	0.457615
O8	O	1.250138	0.683744	0.707615
O9	O	0.574907	0.008514	-0.042367
O10	O	0.824907	0.258514	0.207633
O11	O	1.074907	0.508514	0.457633
O12	O	1.324907	0.758514	0.707633
O13	O	0.566162	-0.132279	-0.042387
O14	O	0.816162	0.117721	0.207613
O15	O	1.066162	0.367721	0.457613
O16	O	1.316162	0.617721	0.707613
O17	O	0.574893	0.008502	0.042491
O18	O	0.824893	0.258502	0.292491
O19	O	1.074893	0.508502	0.542491
O20	O	1.324893	0.758502	0.792491
O21	O	0.500123	-0.066267	0.042473
O22	O	0.750123	0.183733	0.292473
O23	O	1.000123	0.433733	0.542473
O24	O	1.250123	0.683733	0.792473
O25	O	0.640917	-0.057522	0.042489
O26	O	0.890917	0.192478	0.292489
O27	O	1.140917	0.442478	0.542489
O28	O	1.390917	0.692478	0.792489
Cu29	Cu	0.570519	-0.061896	0.050229
Cu30	Cu	0.820519	0.188104	0.300229
Cu31	Cu	1.070519	0.438104	0.550229
Cu32	Cu	1.320519	0.688104	0.800229
Cu33	Cu	0.570536	-0.061882	-0.050125
Cu34	Cu	0.820536	0.188118	0.199875
Cu35	Cu	1.070536	0.438118	0.449875
Cu36	Cu	1.320536	0.688118	0.699875
O37	O	0.566147	-0.132291	0.042471
O38	O	0.816147	0.117709	0.292471
O39	O	1.066147	0.367709	0.542471
O40	O	1.316147	0.617709	0.792471
C41	C	0.482124	-0.066078	0.000042
C42	C	0.732124	0.183922	0.250042
C43	C	0.982124	0.433922	0.500042
C44	C	1.232124	0.683922	0.750042
C45	C	0.428469	-0.065525	0.000036
C46	C	0.678469	0.184475	0.250036
C47	C	0.928469	0.434475	0.500036
C48	C	1.178469	0.684475	0.750036
C49	C	0.574716	0.026515	0.000064
C50	C	0.824716	0.276515	0.250064
C51	C	1.074716	0.526515	0.500064
C52	C	1.324716	0.776515	0.750064
C53	C	0.574164	0.080170	0.000068
C54	C	0.824164	0.330170	0.250068
C55	C	1.074164	0.580170	0.500068
C56	C	1.324164	0.830170	0.750068
C57	C	0.089654	-0.106229	0.000053
C58	C	0.339654	0.143771	0.250053
C59	C	0.589654	0.393771	0.500053
C60	C	0.839654	0.643771	0.750053
C61	C	-0.112006	-0.104178	0.000057
C62	C	0.137994	0.145822	0.250057
C63	C	0.387994	0.395822	0.500057
C64	C	0.637994	0.645822	0.750057
O65	O	-0.143262	-0.141398	0.000074
O66	O	0.106738	0.108602	0.250074
O67	O	0.356738	0.358602	0.500074
O68	O	0.606738	0.608602	0.750074
N69	N	-0.131130	-0.059843	0.000063
N70	N	0.118870	0.190157	0.250063
N71	N	0.368870	0.440157	0.500063
N72	N	0.618870	0.690157	0.750063
C73	C	-0.099835	-0.016017	0.000071
C74	C	0.150165	0.233983	0.250071
C75	C	0.400165	0.483983	0.500071
C76	C	0.650165	0.733983	0.750071
O77	O	-0.120728	0.021740	0.000081
O78	O	0.129272	0.271740	0.250081
O79	O	0.379272	0.521740	0.500081
O80	O	0.629272	0.771740	0.750081
C81	C	0.101824	-0.018068	0.000069
C82	C	0.351824	0.231932	0.250069
C83	C	0.601824	0.481932	0.500069
C84	C	0.851824	0.731932	0.750069
C85	C	0.120944	-0.062407	0.000059
C86	C	0.370944	0.187593	0.250059
C87	C	0.620944	0.437593	0.500059
C88	C	0.870944	0.687593	0.750059
C89	C	0.108775	-0.150563	0.000043
C90	C	0.358775	0.099437	0.250043
C91	C	0.608775	0.349437	0.500043
C92	C	0.858775	0.599437	0.750043
C93	C	0.159187	-0.151076	0.000039
C94	C	0.409187	0.098924	0.250039
C95	C	0.659187	0.348924	0.500039
C96	C	0.909187	0.598924	0.750039
C97	C	0.190477	-0.107253	0.000045
C98	C	0.440477	0.142747	0.250045
C99	C	0.690477	0.392747	0.500045
C100	C	0.940477	0.642747	0.750045
C101	C	0.171356	-0.062919	0.000055
C102	C	0.421356	0.187081	0.250055
C103	C	0.671356	0.437081	0.500055
C104	C	0.921356	0.687081	0.750055
C105	C	0.133117	0.025757	0.000081
C106	C	0.383117	0.275757	0.250081
C107	C	0.633117	0.525757	0.500081
C108	C	0.883117	0.775757	0.750081
C109	C	0.183535	0.025240	0.000082
C110	C	0.433535	0.275240	0.250082
C111	C	0.683535	0.525240	0.500082
C112	C	0.933535	0.775240	0.750082
C113	C	0.202655	-0.019098	0.000071
C114	C	0.452655	0.230902	0.250071
C115	C	0.702655	0.480902	0.500071
C116	C	0.952655	0.730902	0.750071
C117	C	0.253059	-0.019609	0.000057
C118	C	0.503059	0.230391	0.250057
C119	C	0.753059	0.480391	0.500057
C120	C	1.003059	0.730391	0.750057
N121	N	0.272183	-0.063944	0.000051
N122	N	0.522183	0.186056	0.250051
N123	N	0.772183	0.436056	0.500051
N124	N	1.022183	0.686056	0.750051
C125	C	0.240892	-0.107766	0.000045
C126	C	0.490892	0.142234	0.250045
C127	C	0.740892	0.392234	0.500045
C128	C	0.990892	0.642234	0.750045
C129	C	-0.205709	-0.014943	0.000070
C130	C	0.044291	0.235057	0.250070
C131	C	0.294291	0.485057	0.500070
C132	C	0.544291	0.735057	0.750070
C133	C	-0.256124	-0.014430	0.000070
C134	C	-0.006124	0.235570	0.250070
C135	C	0.243876	0.485570	0.500070
C136	C	0.493876	0.735570	0.750070
C137	C	-0.268291	-0.102591	0.000057
C138	C	-0.018291	0.147409	0.250057
C139	C	0.231709	0.397409	0.500057
C140	C	0.481709	0.647409	0.750057
C141	C	-0.217876	-0.103104	0.000054
C142	C	0.032124	0.146896	0.250054
C143	C	0.282124	0.396896	0.500054
C144	C	0.532124	0.646896	0.750054
C145	C	-0.186585	-0.059278	0.000065
C146	C	0.063415	0.190722	0.250065
C147	C	0.313415	0.440722	0.500065
C148	C	0.563415	0.690722	0.750065
C149	C	0.346761	-0.108839	0.000036
C150	C	0.596761	0.141161	0.250036
C151	C	0.846761	0.391161	0.500036
C152	C	1.096761	0.641161	0.750036
C153	C	0.397178	-0.109347	0.000030
C154	C	0.647178	0.140653	0.250030
C155	C	0.897178	0.390653	0.500030
C156	C	1.147178	0.640653	0.750030
C157	C	0.409341	-0.021186	0.000045
C158	C	0.659341	0.228814	0.250045
C159	C	0.909341	0.478814	0.500045
C160	C	1.159341	0.728814	0.750045
C161	C	0.358929	-0.020678	0.000049
C162	C	0.608929	0.229322	0.250049
C163	C	0.858929	0.479322	0.500049
C164	C	1.108929	0.729322	0.750049
C165	C	0.327639	-0.064508	0.000046
C166	C	0.577639	0.185492	0.250046
C167	C	0.827639	0.435492	0.500046
C168	C	1.077639	0.685492	0.750046
O169	O	0.284343	0.017592	0.000046
O170	O	0.534343	0.267592	0.250046
O171	O	0.784343	0.517592	0.500046
O172	O	1.034343	0.767592	0.750046
O173	O	0.261794	-0.145518	0.000047
O174	O	0.511794	0.104482	0.250047
O175	O	0.761794	0.354482	0.500047
O176	O	1.011794	0.604482	0.750047
C177	C	0.039242	-0.105716	0.000057
C178	C	0.289242	0.144284	0.250057
C179	C	0.539242	0.394284	0.500057
C180	C	0.789242	0.644284	0.750057
C181	C	0.020120	-0.061382	0.000067
C182	C	0.270120	0.188618	0.250067
C183	C	0.520120	0.438618	0.500067
C184	C	0.770120	0.688618	0.750067
C185	C	0.051411	-0.017560	0.000073
C186	C	0.301411	0.232440	0.250073
C187	C	0.551411	0.482440	0.500073
C188	C	0.801411	0.732440	0.750073
C189	C	-0.030294	-0.060869	0.000066
C190	C	0.219706	0.189131	0.250066
C191	C	0.469706	0.439131	0.500066
C192	C	0.719706	0.689131	0.750066
C193	C	-0.061585	-0.104691	0.000060
C194	C	0.188415	0.145309	0.250060
C195	C	0.438415	0.395309	0.500060
C196	C	0.688415	0.645309	0.750060
C197	C	-0.042461	-0.149026	0.000054
C198	C	0.207539	0.100974	0.250054
C199	C	0.457539	0.350974	0.500054
C200	C	0.707539	0.600974	0.750054
C201	C	0.007951	-0.149539	0.000050
C202	C	0.257951	0.100461	0.250050
C203	C	0.507951	0.350461	0.500050
C204	C	0.757951	0.600461	0.750050
C205	C	0.032287	0.026775	0.000078
C206	C	0.282287	0.276775	0.250078
C207	C	0.532287	0.526775	0.500078
C208	C	0.782287	0.776775	0.750078
C209	C	-0.018125	0.027284	0.000082
C210	C	0.231875	0.277284	0.250082
C211	C	0.481875	0.527284	0.500082
C212	C	0.731875	0.777284	0.750082
C213	C	-0.049416	-0.016538	0.000076
C214	C	0.200584	0.233462	0.250076
C215	C	0.450584	0.483462	0.500076
C216	C	0.700584	0.733462	0.750076
C217	C	0.658931	-0.057699	0.000061
C218	C	0.908931	0.192301	0.250061
C219	C	1.158931	0.442301	0.500061
C220	C	1.408931	0.692301	0.750061
C221	C	0.712586	-0.058252	0.000064
C222	C	0.962586	0.191748	0.250064
C223	C	1.212586	0.441748	0.500064
C224	C	1.462586	0.691748	0.750064
C225	C	0.566338	-0.150292	0.000040
C226	C	0.816338	0.099708	0.250040
C227	C	1.066338	0.349708	0.500040
C228	C	1.316338	0.599708	0.750040
C229	C	0.566891	-0.203947	0.000032
C230	C	0.816891	0.046053	0.250032
C231	C	1.066891	0.296053	0.500032
C232	C	1.316891	0.546053	0.750032
N233	N	0.570510	-0.061905	0.120813
N234	N	0.820510	0.188095	0.370813
N235	N	1.070510	0.438095	0.620813
N236	N	1.320510	0.688095	0.870813
C237	C	0.614867	0.418985	0.000046
C238	C	0.864867	0.668985	0.250046
C239	C	1.114867	0.918985	0.500046
C240	C	1.364867	1.168985	0.750046
C241	C	0.612816	0.620645	0.000039
C242	C	0.862816	0.870645	0.250039
C243	C	1.112816	1.120645	0.500039
C244	C	1.362816	1.370645	0.750039
O245	O	0.650037	0.651900	0.000021
O246	O	0.900037	0.901900	0.250021
O247	O	1.150037	1.151900	0.500021
O248	O	1.400037	1.401900	0.750021
N249	N	0.568481	0.639768	0.000034
N250	N	0.818481	0.889768	0.250034
N251	N	1.068481	1.139768	0.500034
N252	N	1.318481	1.389768	0.750034
C253	C	0.524656	0.608474	0.000028
C254	C	0.774656	0.858474	0.250028
C255	C	1.024656	1.108474	0.500028
C256	C	1.274656	1.358474	0.750028
O257	O	0.486899	0.629367	0.000019
O258	O	0.736899	0.879367	0.250019
O259	O	0.986899	1.129367	0.500019
O260	O	1.236899	1.379367	0.750019
C261	C	0.526707	0.406815	0.000032
C262	C	0.776707	0.656815	0.250032
C263	C	1.026707	0.906815	0.500032
C264	C	1.276707	1.156815	0.750032
C265	C	0.571045	0.387694	0.000042
C266	C	0.821045	0.637694	0.250042
C267	C	1.071045	0.887694	0.500042
C268	C	1.321045	1.137694	0.750042
C269	C	0.659202	0.399864	0.000056
C270	C	0.909202	0.649864	0.250056
C271	C	1.159202	0.899864	0.500056
C272	C	1.409202	1.149864	0.750056
C273	C	0.659714	0.349452	0.000060
C274	C	0.909714	0.599452	0.250060
C275	C	1.159714	0.849452	0.500060
C276	C	1.409714	1.099452	0.750060
C277	C	0.615892	0.318161	0.000056
C278	C	0.865892	0.568161	0.250056
C279	C	1.115892	0.818161	0.500056
C280	C	1.365892	1.068161	0.750056
C281	C	0.571557	0.337282	0.000046
C282	C	0.821557	0.587282	0.250046
C283	C	1.071557	0.837282	0.500046
C284	C	1.321557	1.087282	0.750046
C285	C	0.482882	0.375521	0.000022
C286	C	0.732882	0.625521	0.250022
C287	C	0.982882	0.875521	0.500022
C288	C	1.232882	1.125521	0.750022
C289	C	0.483399	0.325104	0.000022
C290	C	0.733399	0.575104	0.250022
C291	C	0.983399	0.825104	0.500022
C292	C	1.233399	1.075104	0.750022
C293	C	0.527737	0.305983	0.000032
C294	C	0.777737	0.555983	0.250032
C295	C	1.027737	0.805983	0.500032
C296	C	1.277737	1.055983	0.750032
C297	C	0.528247	0.255580	0.000046
C298	C	0.778247	0.505580	0.250046
C299	C	1.028247	0.755580	0.500046
C300	C	1.278247	1.005580	0.750046
N301	N	0.572583	0.236456	0.000051
N302	N	0.822583	0.486456	0.250051
N303	N	1.072583	0.736456	0.500051
N304	N	1.322583	0.986456	0.750051
C305	C	0.616405	0.267747	0.000056
C306	C	0.866405	0.517747	0.250056
C307	C	1.116405	0.767747	0.500056
C308	C	1.366405	1.017747	0.750056
C309	C	0.523582	0.714348	0.000027
C310	C	0.773582	0.964348	0.250027
C311	C	1.023582	1.214348	0.500027
C312	C	1.273582	1.464348	0.750027
C313	C	0.523069	0.764762	0.000027
C314	C	0.773069	1.014762	0.250027
C315	C	1.023069	1.264762	0.500027
C316	C	1.273069	1.514762	0.750027
C317	C	0.611230	0.776930	0.000037
C318	C	0.861230	1.026930	0.250037
C319	C	1.111230	1.276930	0.500037
C320	C	1.361230	1.526930	0.750037
C321	C	0.611742	0.726514	0.000041
C322	C	0.861742	0.976514	0.250041
C323	C	1.111742	1.226514	0.500041
C324	C	1.361742	1.476514	0.750041
C325	C	0.567917	0.695224	0.000032
C326	C	0.817917	0.945224	0.250032
C327	C	1.067917	1.195224	0.500032
C328	C	1.317917	1.445224	0.750032
C329	C	0.617477	0.161878	0.000066
C330	C	0.867477	0.411878	0.250066
C331	C	1.117477	0.661878	0.500066
C332	C	1.367477	0.911878	0.750066
C333	C	0.617986	0.111461	0.000073
C334	C	0.867986	0.361461	0.250073
C335	C	1.117986	0.611461	0.500073
C336	C	1.367986	0.861461	0.750073
C337	C	0.529825	0.099298	0.000060
C338	C	0.779825	0.349298	0.250060
C339	C	1.029825	0.599298	0.500060
C340	C	1.279825	0.849298	0.750060
C341	C	0.529316	0.149710	0.000056
C342	C	0.779316	0.399710	0.250056
C343	C	1.029316	0.649710	0.500056
C344	C	1.279316	0.899710	0.750056
C345	C	0.573147	0.180999	0.000057
C346	C	0.823147	0.430999	0.250057
C347	C	1.073147	0.680999	0.500057
C348	C	1.323147	0.930999	0.750057
O349	O	0.491047	0.224296	0.000059
O350	O	0.741047	0.474296	0.250059
O351	O	0.991047	0.724296	0.500059
O352	O	1.241047	0.974296	0.750059
O353	O	0.654156	0.246844	0.000054
O354	O	0.904156	0.496844	0.250054
O355	O	1.154156	0.746844	0.500054
O356	O	1.404156	0.996844	0.750054
C357	C	0.614355	0.469397	0.000042
C358	C	0.864355	0.719397	0.250042
C359	C	1.114355	0.969397	0.500042
C360	C	1.364355	1.219397	0.750042
C361	C	0.570021	0.488518	0.000033
C362	C	0.820021	0.738518	0.250033
C363	C	1.070021	0.988518	0.500033
C364	C	1.320021	1.238518	0.750033
C365	C	0.526198	0.457228	0.000028
C366	C	0.776198	0.707228	0.250028
C367	C	1.026198	0.957228	0.500028
C368	C	1.276198	1.207228	0.750028
C369	C	0.569508	0.538933	0.000033
C370	C	0.819508	0.788933	0.250033
C371	C	1.069508	1.038933	0.500033
C372	C	1.319508	1.288933	0.750033
C373	C	0.613330	0.570223	0.000037
C374	C	0.863330	0.820223	0.250037
C375	C	1.113330	1.070223	0.500037
C376	C	1.363330	1.320223	0.750037
C377	C	0.657665	0.551100	0.000042
C378	C	0.907665	0.801100	0.250042
C379	C	1.157665	1.051100	0.500042
C380	C	1.407665	1.301100	0.750042
C381	C	0.658177	0.500688	0.000046
C382	C	0.908177	0.750688	0.250046
C383	C	1.158177	1.000688	0.500046
C384	C	1.408177	1.250688	0.750046
C385	C	0.481863	0.476351	0.000023
C386	C	0.731863	0.726351	0.250023
C387	C	0.981863	0.976351	0.500023
C388	C	1.231863	1.226351	0.750023
C389	C	0.481355	0.526764	0.000019
C390	C	0.731355	0.776764	0.250019
C391	C	0.981355	1.026764	0.500019
C392	C	1.231355	1.276764	0.750019
C393	C	0.525177	0.558054	0.000024
C394	C	0.775177	0.808054	0.250024
C395	C	1.025177	1.058054	0.500024
C396	C	1.275177	1.308054	0.750024
N397	N	0.570548	-0.061868	-0.120709
N398	N	0.820548	0.188132	0.129291
N399	N	1.070548	0.438132	0.379291
N400	N	1.320548	0.688132	0.629291
C401	C	0.603640	-0.028781	0.473336
C402	C	0.853640	0.221219	0.723336
C403	C	1.103640	0.471219	0.973336
C404	C	1.353640	0.721219	1.223336
C405	C	0.603651	-0.028774	0.686994
C406	C	0.853651	0.221226	0.936994
C407	C	1.103651	0.471226	1.186994
C408	C	1.353651	0.721226	1.436994
O409	O	0.631801	-0.000614	0.714623
O410	O	0.881801	0.249386	0.964623
O411	O	1.131801	0.499386	1.214623
O412	O	1.381801	0.749386	1.464623
N413	N	0.570538	-0.061871	0.713707
N414	N	0.820538	0.188129	0.963707
N415	N	1.070538	0.438129	1.213707
N416	N	1.320538	0.688129	1.463707
C417	C	0.537419	-0.094970	0.687003
C418	C	0.787419	0.155030	0.937003
C419	C	1.037419	0.405030	1.187003
C420	C	1.287419	0.655030	1.437003
O421	O	0.509251	-0.123117	0.714626
O422	O	0.759251	0.126883	0.964626
O423	O	1.009251	0.376883	1.214626
O424	O	1.259251	0.626883	1.464626
C425	C	0.537406	-0.094974	0.473345
C426	C	0.787406	0.155026	0.723345
C427	C	1.037406	0.405026	0.973345
C428	C	1.287406	0.655026	1.223345
C429	C	0.570524	-0.061878	0.446635
C430	C	0.820524	0.188122	0.696635
C431	C	1.070524	0.438122	0.946635
C432	C	1.320524	0.688122	1.196635
C433	C	0.636755	0.004312	0.446625
C434	C	0.886755	0.254312	0.696625
C435	C	1.136755	0.504312	0.946625
C436	C	1.386755	0.754312	1.196625
C437	C	0.636754	0.004308	0.393214
C438	C	0.886754	0.254308	0.643214
C439	C	1.136754	0.504308	0.893214
C440	C	1.386754	0.754308	1.143214
C441	C	0.603638	-0.028789	0.366513
C442	C	0.853638	0.221211	0.616513
C443	C	1.103638	0.471211	0.866513
C444	C	1.353638	0.721211	1.116513
C445	C	0.570523	-0.061882	0.393223
C446	C	0.820523	0.188118	0.643223
C447	C	1.070523	0.438118	0.893223
C448	C	1.320523	0.688118	1.143223
C449	C	0.504284	-0.128070	0.446641
C450	C	0.754284	0.121930	0.696641
C451	C	1.004284	0.371930	0.946641
C452	C	1.254284	0.621930	1.196641
C453	C	0.504283	-0.128067	0.393223
C454	C	0.754283	0.121933	0.643223
C455	C	1.004283	0.371933	0.893223
C456	C	1.254283	0.621933	1.143223
C457	C	0.537401	-0.094971	0.366513
C458	C	0.787401	0.155029	0.616513
C459	C	1.037401	0.405029	0.866513
C460	C	1.287401	0.655029	1.116513
C461	C	0.537405	-0.094983	0.313111
C462	C	0.787405	0.155017	0.563111
C463	C	1.037405	0.405017	0.813111
C464	C	1.287405	0.655017	1.063111
N465	N	0.570518	-0.061886	0.286397
N466	N	0.820518	0.188114	0.536397
N467	N	1.070518	0.438114	0.786397
N468	N	1.320518	0.688114	1.036397
C469	C	0.603634	-0.028789	0.313098
C470	C	0.853634	0.221211	0.563098
C471	C	1.103634	0.471211	0.813098
C472	C	1.353634	0.721211	1.063098
C473	C	0.537428	-0.094966	0.799176
C474	C	0.787428	0.155034	1.049176
C475	C	1.037428	0.405034	1.299176
C476	C	1.287428	0.655034	1.549176
C477	C	0.537432	-0.094965	0.852590
C478	C	0.787432	0.155035	1.102590
C479	C	1.037432	0.405035	1.352590
C480	C	1.287432	0.655035	1.602590
C481	C	0.603664	-0.028769	0.852578
C482	C	0.853664	0.221231	1.102578
C483	C	1.103664	0.471231	1.352578
C484	C	1.353664	0.721231	1.602578
C485	C	0.603662	-0.028773	0.799163
C486	C	0.853662	0.221227	1.049163
C487	C	1.103662	0.471227	1.299163
C488	C	1.353662	0.721227	1.549163
C489	C	0.570541	-0.061869	0.772463
C490	C	0.820541	0.188131	1.022463
C491	C	1.070541	0.438131	1.272463
C492	C	1.320541	0.688131	1.522463
C493	C	0.603629	-0.028800	0.200931
C494	C	0.853629	0.221200	0.450931
C495	C	1.103629	0.471200	0.700931
C496	C	1.353629	0.721200	0.950931
C497	C	0.603626	-0.028808	0.147514
C498	C	0.853626	0.221192	0.397514
C499	C	1.103626	0.471192	0.647514
C500	C	1.353626	0.721192	0.897514
C501	C	0.537393	-0.095002	0.147531
C502	C	0.787393	0.154998	0.397531
C503	C	1.037393	0.404998	0.647531
C504	C	1.287393	0.654998	0.897531
C505	C	0.537397	-0.094996	0.200943
C506	C	0.787397	0.155004	0.450943
C507	C	1.037397	0.405004	0.700943
C508	C	1.287397	0.655004	0.950943
C509	C	0.570517	-0.061891	0.227641
C510	C	0.820517	0.188109	0.477641
C511	C	1.070517	0.438109	0.727641
C512	C	1.320517	0.688109	0.977641
O513	O	0.509267	-0.123125	0.285449
O514	O	0.759267	0.126875	0.535449
O515	O	1.009267	0.376875	0.785449
O516	O	1.259267	0.626875	1.035449
O517	O	0.631790	-0.000639	0.285466
O518	O	0.881790	0.249361	0.535466
O519	O	1.131790	0.499361	0.785466
O520	O	1.381790	0.749361	1.035466
C521	C	0.603641	-0.028777	0.526747
C522	C	0.853641	0.221223	0.776747
C523	C	1.103641	0.471223	1.026747
C524	C	1.353641	0.721223	1.276747
C525	C	0.570527	-0.061871	0.553457
C526	C	0.820527	0.188129	0.803457
C527	C	1.070527	0.438129	1.053457
C528	C	1.320527	0.688129	1.303457
C529	C	0.537410	-0.094968	0.526756
C530	C	0.787410	0.155032	0.776756
C531	C	1.037410	0.405032	1.026756
C532	C	1.287410	0.655032	1.276756
C533	C	0.570530	-0.061870	0.606872
C534	C	0.820530	0.188130	0.856872
C535	C	1.070530	0.438130	1.106872
C536	C	1.320530	0.688130	1.356872
C537	C	0.603646	-0.028773	0.633573
C538	C	0.853646	0.221227	0.883573
C539	C	1.103646	0.471227	1.133573
C540	C	1.353646	0.721227	1.383573
C541	C	0.636759	0.004323	0.606859
C542	C	0.886759	0.254323	0.856859
C543	C	1.136759	0.504323	1.106859
C544	C	1.386759	0.754323	1.356859
C545	C	0.636758	0.004320	0.553448
C546	C	0.886758	0.254320	0.803448
C547	C	1.136758	0.504320	1.053448
C548	C	1.386758	0.754320	1.303448
C549	C	0.504298	-0.128064	0.553470
C550	C	0.754298	0.121936	0.803470
C551	C	1.004298	0.371936	1.053470
C552	C	1.254298	0.621936	1.303470
C553	C	0.504302	-0.128058	0.606881
C554	C	0.754302	0.121942	0.856881
C555	C	1.004302	0.371942	1.106881
C556	C	1.254302	0.621942	1.356881
C557	C	0.537418	-0.094961	0.633582
C558	C	0.787418	0.155039	0.883582
C559	C	1.037418	0.405039	1.133582
C560	C	1.287418	0.655039	1.383582
H561	H	0.412743	-0.145454	0.000021
H562	H	0.662743	0.104546	0.250021
H563	H	0.912743	0.354546	0.500021
H564	H	1.162743	0.604546	0.750021
H565	H	-0.033688	0.063392	0.000086
H566	H	0.216312	0.313392	0.250086
H567	H	0.466312	0.563392	0.500086
H568	H	0.716312	0.813392	0.750086
H569	H	0.510456	-0.121918	0.777440
H570	H	0.760456	0.128082	1.027440
H571	H	1.010456	0.378082	1.277440
H572	H	1.260456	0.628082	1.527440
H573	H	0.510432	-0.121951	0.125783
H574	H	0.760432	0.128049	0.375783
H575	H	1.010432	0.378049	0.625783
H576	H	1.260432	0.628049	0.875783
H577	H	0.663725	0.031271	0.628608
H578	H	0.913725	0.281271	0.878608
H579	H	1.163725	0.531271	1.128608
H580	H	1.413725	0.781271	1.378608
H581	H	0.477311	-0.155018	0.371487
H582	H	0.727311	0.094982	0.621487
H583	H	0.977311	0.344982	0.871487
H584	H	1.227311	0.594982	1.121487
H585	H	0.446177	0.450879	0.000018
H586	H	0.696177	0.700879	0.250018
H587	H	0.946177	0.950879	0.500018
H588	H	1.196177	1.200879	0.750018
H589	H	0.630597	-0.001858	0.125768
H590	H	0.880597	0.248142	0.375768
H591	H	1.130597	0.498142	0.625768
H592	H	1.380597	0.748142	0.875768
H593	H	-0.067947	-0.184708	0.000047
H594	H	0.182053	0.065292	0.250047
H595	H	0.432053	0.315292	0.500047
H596	H	0.682053	0.565292	0.750047
H597	H	0.343360	0.015426	0.000050
H598	H	0.593360	0.265426	0.250050
H599	H	0.843360	0.515426	0.500050
H600	H	1.093360	0.765426	0.750050
H601	H	0.693347	0.576585	0.000048
H602	H	0.943347	0.826585	0.250048
H603	H	1.193347	1.076585	0.500048
H604	H	1.443347	1.326585	0.750048
H605	H	0.477334	-0.155013	0.628625
H606	H	0.727334	0.094987	0.878625
H607	H	0.977334	0.344987	1.128625
H608	H	1.227334	0.594987	1.378625
H609	H	0.510434	-0.121950	0.222691
H610	H	0.760434	0.128050	0.472691
H611	H	1.010434	0.378050	0.722691
H612	H	1.260434	0.628050	0.972691
H613	H	0.694282	0.485125	0.000054
H614	H	0.944282	0.735125	0.250054
H615	H	1.194282	0.985125	0.500054
H616	H	1.444282	1.235125	0.750054
H617	H	0.446777	0.391080	0.000011
H618	H	0.696777	0.641080	0.250011
H619	H	0.946777	0.891080	0.500011
H620	H	1.196777	1.141080	0.750011
H621	H	0.434827	0.014492	0.000048
H622	H	0.684827	0.264492	0.250048
H623	H	0.934827	0.514492	0.500048
H624	H	1.184827	0.764492	0.750048
H625	H	0.663725	0.031269	0.531704
H626	H	0.913725	0.281269	0.781704
H627	H	1.163725	0.531269	1.031704
H628	H	1.413725	0.781269	1.281704
H629	H	0.653168	0.187348	0.000065
H630	H	0.903168	0.437348	0.250065
H631	H	1.153168	0.687348	0.500065
H632	H	1.403168	0.937348	0.750065
H633	H	0.321291	-0.144530	0.000036
H634	H	0.571291	0.105470	0.250036
H635	H	0.821291	0.355470	0.500036
H636	H	1.071291	0.605470	0.750036
H637	H	0.630598	-0.001842	0.222662
H638	H	0.880598	0.248158	0.472662
H639	H	1.130598	0.498158	0.722662
H640	H	1.380598	0.748158	0.972662
H641	H	0.477330	-0.155015	0.531734
H642	H	0.727330	0.094985	0.781734
H643	H	0.977330	0.344985	1.031734
H644	H	1.227330	0.594985	1.281734
H645	H	0.654093	0.095896	0.000082
H646	H	0.904093	0.345896	0.250082
H647	H	1.154093	0.595896	0.500082
H648	H	1.404093	0.845896	0.750082
H649	H	0.174750	-0.187180	0.000030
H650	H	0.424750	0.062820	0.250030
H651	H	0.674750	0.312820	0.500030
H652	H	0.924750	0.562820	0.750030
H653	H	0.083302	-0.186251	0.000039
H654	H	0.333302	0.063749	0.250039
H655	H	0.583302	0.313749	0.500039
H656	H	0.833302	0.563749	0.750039
H657	H	0.663720	0.031259	0.371469
H658	H	0.913720	0.281259	0.621469
H659	H	1.163720	0.531259	0.871469
H660	H	1.413720	0.781259	1.121469
H661	H	-0.271687	0.021674	0.000070
H662	H	-0.021687	0.271674	0.250070
H663	H	0.228313	0.521674	0.500070
H664	H	0.478313	0.771674	0.750070
H665	H	0.023514	-0.185643	0.000042
H666	H	0.273514	0.064357	0.250042
H667	H	0.523514	0.314357	0.500042
H668	H	0.773514	0.564357	0.750042
H669	H	0.510469	-0.121920	0.874334
H670	H	0.760469	0.128080	1.124334
H671	H	1.010469	0.378080	1.374334
H672	H	1.260469	0.628080	1.624334
H673	H	0.494146	0.073812	0.000058
H674	H	0.744146	0.323812	0.250058
H675	H	0.994146	0.573812	0.500058
H676	H	1.244146	0.823812	0.750058
H677	H	0.695819	0.333889	0.000066
H678	H	0.945819	0.583889	0.250066
H679	H	1.195819	0.833889	0.500066
H680	H	1.445819	1.083889	0.750066
H681	H	0.493213	0.165279	0.000062
H682	H	0.743213	0.415279	0.250062
H683	H	0.993213	0.665279	0.500062
H684	H	1.243213	0.915279	0.750062
H685	H	0.487892	0.688875	0.000020
H686	H	0.737892	0.938875	0.250020
H687	H	0.987892	1.188875	0.500020
H688	H	1.237892	1.438875	0.750020
H689	H	-0.202311	-0.139207	0.000049
H690	H	0.047689	0.110793	0.250049
H691	H	0.297689	0.360793	0.500049
H692	H	0.547689	0.610793	0.750049
H693	H	0.663722	0.031266	0.468360
H694	H	0.913722	0.281266	0.718360
H695	H	1.163722	0.531266	0.968360
H696	H	1.413722	0.781266	1.218360
H697	H	0.117558	0.061861	0.000090
H698	H	0.367558	0.311861	0.250090
H699	H	0.617558	0.561861	0.500090
H700	H	0.867558	0.811861	0.750090
H701	H	0.630629	-0.001823	0.777418
H702	H	0.880629	0.248177	1.027418
H703	H	1.130629	0.498177	1.277418
H704	H	1.380629	0.748177	1.527418
H705	H	0.477317	-0.155019	0.468381
H706	H	0.727317	0.094981	0.718381
H707	H	0.977317	0.344981	0.968381
H708	H	1.227317	0.594981	1.218381
H709	H	-0.293777	-0.138273	0.000053
H710	H	-0.043777	0.111727	0.250053
H711	H	0.206223	0.361727	0.500053
H712	H	0.456223	0.611727	0.750053
H713	H	0.694889	0.425336	0.000058
H714	H	0.944889	0.675336	0.250058
H715	H	1.194889	0.925336	0.500058
H716	H	1.444889	1.175336	0.750058
H717	H	0.630629	-0.001821	0.874327
H718	H	0.880629	0.248179	1.124327
H719	H	1.130629	0.498179	1.374327
H720	H	1.380629	0.748179	1.624327
H721	H	0.647846	0.710950	0.000048
H722	H	0.897846	0.960950	0.250048
H723	H	1.147846	1.210950	0.500048
H724	H	1.397846	1.460950	0.750048
H725	H	-0.180236	0.020747	0.000079
H726	H	0.069764	0.270747	0.250079
H727	H	0.319764	0.520747	0.500079
H728	H	0.569764	0.770747	0.750079
H729	H	0.209009	0.060929	0.000091
H730	H	0.459009	0.310929	0.250091
H731	H	0.709009	0.560929	0.500091
H732	H	0.959009	0.810929	0.750091
H733	H	0.057760	0.062462	0.000085
H734	H	0.307760	0.312462	0.250085
H735	H	0.557760	0.562462	0.500085
H736	H	0.807760	0.812462	0.750085
H737	H	0.646911	0.802415	0.000041
H738	H	0.896911	1.052415	0.250041
H739	H	1.146911	1.302415	0.500041
H740	H	1.396911	1.552415	0.750041
H741	H	0.445246	0.542327	0.000016
H742	H	0.695246	0.792327	0.250016
H743	H	0.945246	1.042327	0.500016
H744	H	1.195246	1.292327	0.750016
H745	H	0.486964	0.780325	0.000028
H746	H	0.736964	1.030325	0.250028
H747	H	0.986964	1.280325	0.500028
H748	H	1.236964	1.530325	0.750028
H749	H	0.447710	0.299629	0.000014
H750	H	0.697710	0.549629	0.250014
H751	H	0.947710	0.799629	0.500014
H752	H	1.197710	1.049629	0.750014
