data_functionalizedCrystal
_audit_creation_method	'MofGen! by Chris Wilmer'
_symmetry_space_group_name_H-M	'P1'
_symmetry_Int_Tables_number	1
_symmetry_cell_setting	triclinic
loop_
_symmetry_equiv_pos_as_xyz
  x,y,z
_cell_length_a	13.033293
_cell_length_b	16.959447
_cell_length_c	13.032721
_cell_angle_alpha	82.848812
_cell_angle_beta	74.815879
_cell_angle_gamma	82.795472
loop_
_atom_site_label
_atom_site_type_symbol
_atom_site_fract_x
_atom_site_fract_y
_atom_site_fract_z
Zn1	Zn	1.570146	-0.618842	0.216805
Zn2	Zn	1.547476	-0.501543	0.394452
Zn3	Zn	1.392525	-0.471754	0.239383
Zn4	Zn	1.369925	-0.618751	0.416910
O5	O	1.470018	-0.552722	0.316887
O6	O	1.715780	-0.615787	0.221522
O7	O	1.526891	-0.386982	0.373932
O8	O	1.435032	-0.478836	0.087745
O9	O	1.699124	-0.529608	0.352039
O10	O	1.565530	-0.586902	0.071157
O11	O	1.413049	-0.365096	0.260003
O12	O	1.240886	-0.478748	0.281780
O13	O	1.396514	-0.729372	0.390316
O14	O	1.224282	-0.586746	0.412209
O15	O	1.543616	-0.729439	0.243299
O16	O	1.504977	-0.529520	0.546073
O17	O	1.374532	-0.615632	0.562573
C18	C	1.194043	-0.529505	0.351882
C19	C	1.075977	-0.519594	0.366879
C20	C	1.031567	-0.557897	0.309087
C21	C	0.909539	-0.547654	0.324586
C22	C	1.470073	-0.758887	0.316794
C23	C	1.470097	-0.846742	0.316754
C24	C	1.393649	-1.218187	0.393171
C25	C	1.546827	-1.218252	0.240081
C26	C	1.546796	-1.135705	0.240107
C27	C	1.470191	-1.094396	0.316667
C28	C	1.393617	-1.135633	0.393201
C29	C	1.623375	-1.094463	0.163581
C30	C	1.623348	-1.011912	0.163605
C31	C	1.546737	-0.970600	0.240161
C32	C	1.470159	-1.011842	0.316698
C33	C	1.393555	-0.970533	0.393258
C34	C	1.316971	-1.011773	0.469790
C35	C	1.317007	-1.094322	0.469758
C36	C	1.546702	-0.888051	0.240194
C37	C	1.393523	-0.887979	0.393288
C38	C	1.747070	-0.576031	0.281757
C39	C	1.865133	-0.585963	0.266786
C40	C	1.434871	-0.575818	0.592861
C41	C	1.419932	-0.585733	0.710911
C42	C	1.470034	-0.347359	0.316896
C43	C	1.470254	-0.259496	0.316611
C44	C	1.505331	-0.529556	0.039833
C45	C	1.520379	-0.519684	-0.078232
C46	C	1.477871	-0.547588	0.755336
C47	C	1.462432	-0.557835	0.877347
H48	H	1.331133	-0.854350	0.455625
H49	H	0.917449	-0.626338	0.205826
C50	C	1.706662	-1.139176	0.080408
C51	C	1.773738	-1.085398	0.013411
C52	C	1.850484	-1.126563	-0.063217
H53	H	1.672067	-1.164097	0.039158
H54	H	1.747832	-1.178653	0.115131
H55	H	1.732574	-1.045935	-0.021310
H56	H	1.808358	-1.060474	0.054630
H57	H	1.891654	-1.166040	-0.028494
H58	H	1.815880	-1.151483	-0.104459
H59	H	1.896011	-1.090083	-0.108677
H60	H	1.023657	-0.479216	0.427827
C61	C	1.559084	-0.493807	0.685583
C62	C	1.506967	-0.432741	0.629648
C63	C	1.581744	-0.383176	0.565394
H64	H	1.610816	-0.524252	0.636287
H65	H	1.593419	-0.471152	0.729243
H66	H	1.472649	-0.455396	0.585992
H67	H	1.455241	-0.402277	0.678917
H68	H	1.616079	-0.360520	0.609054
H69	H	1.633473	-0.413627	0.516105
H70	H	1.546393	-0.341733	0.527443
C71	C	1.629895	-0.843413	0.156991
C72	C	1.696977	-0.897256	0.089926
C73	C	1.773621	-0.856164	0.013253
H74	H	1.671089	-0.818489	0.191639
H75	H	1.595182	-0.803944	0.115809
H76	H	1.731688	-0.936711	0.131103
H77	H	1.655813	-0.922183	0.055252
H78	H	1.738908	-0.816695	-0.027930
H79	H	1.814807	-0.831241	0.047910
H80	H	1.819139	-0.892688	-0.032266
C81	C	0.839905	-0.493884	0.406021
C82	C	0.853463	-0.521999	0.507744
C83	C	0.789344	-0.472482	0.582784
H84	H	0.767124	-0.494115	0.405782
H85	H	0.860010	-0.440988	0.388167
H86	H	0.833352	-0.574881	0.525593
H87	H	0.926230	-0.521766	0.508017
H88	H	0.809449	-0.419586	0.564931
H89	H	0.716568	-0.472716	0.582536
H90	H	0.798542	-0.491547	0.651810
H91	H	1.254604	-0.978129	0.532130
C92	C	1.338565	-0.639331	0.780815
C93	C	1.339405	-0.638818	0.887938
C94	C	1.264453	-0.688175	0.952362
H95	H	1.356265	-0.692272	0.760796
H96	H	1.269443	-0.620206	0.771882
H97	H	1.408512	-0.657946	0.896866
H98	H	1.321693	-0.585888	0.907990
H99	H	1.195330	-0.669051	0.943429
H100	H	1.282159	-0.741114	0.932334
H101	H	1.265005	-0.687828	1.025053
H102	H	1.401399	-0.598085	0.929638
H103	H	1.685706	-0.978341	0.101287
C104	C	1.601862	-0.466014	0.852232
C105	C	1.652339	-0.432825	0.916863
C106	C	1.727415	-0.383391	0.852844
H107	H	1.566809	-0.424471	0.814160
H108	H	1.653618	-0.496546	0.803044
H109	H	1.600591	-0.402294	0.966033
H110	H	1.687413	-0.474350	0.954936
H111	H	1.779170	-0.413922	0.803655
H112	H	1.692353	-0.341852	0.814775
H113	H	1.761679	-0.360871	0.896686
C114	C	1.101495	-0.611732	0.227904
C115	C	1.208624	-0.611210	0.228697
C116	C	1.273068	-0.660802	0.153934
H117	H	1.092579	-0.592823	0.158745
H118	H	1.081467	-0.664645	0.245824
H119	H	1.228646	-0.558307	0.210771
H120	H	1.217574	-0.630126	0.297838
H121	H	1.253040	-0.713715	0.171854
H122	H	1.264142	-0.641888	0.084781
H123	H	1.345760	-0.660460	0.154469
H124	H	1.254660	-1.127907	0.532069
C125	C	1.310666	-1.263024	0.476370
C126	C	1.362142	-1.321150	0.536828
C127	C	1.285733	-1.362462	0.613490
H128	H	1.269536	-1.288011	0.441720
H129	H	1.265052	-1.226629	0.522029
H130	H	1.407738	-1.357539	0.491175
H131	H	1.403266	-1.296184	0.571501
H132	H	1.240119	-1.326067	0.659149
H133	H	1.244608	-1.387444	0.578830
H134	H	1.320648	-1.401900	0.654526
C135	C	1.629878	-1.263236	0.157022
C136	C	1.613504	-1.344353	0.173365
C137	C	1.689986	-1.385818	0.096860
H138	H	1.699311	-1.257096	0.163451
H139	H	1.623418	-1.242484	0.087606
H140	H	1.619974	-1.365098	0.242764
H141	H	1.544087	-1.350517	0.166927
H142	H	1.683525	-1.365067	0.027443
H143	H	1.759413	-1.379672	0.103295
H144	H	1.678880	-1.440859	0.107932
