data_functionalizedCrystal
_audit_creation_method	'MofGen! by Chris Wilmer'
_symmetry_space_group_name_H-M	'P1'
_symmetry_Int_Tables_number	1
_symmetry_cell_setting	triclinic
loop_
_symmetry_equiv_pos_as_xyz
  x,y,z
_cell_length_a	16.109304
_cell_length_b	14.044202
_cell_length_c	15.186229
_cell_angle_alpha	90.000871
_cell_angle_beta	89.999066
_cell_angle_gamma	91.672330
loop_
_atom_site_label
_atom_site_type_symbol
_atom_site_fract_x
_atom_site_fract_y
_atom_site_fract_z
O1	O	0.200472	-1.257646	-0.073174
O2	O	0.450472	-1.007646	0.176826
O3	O	0.700472	-0.757646	0.426826
O4	O	0.950472	-0.507646	0.676826
O5	O	0.193231	-0.981679	-0.073186
O6	O	0.443231	-0.731679	0.176814
O7	O	0.693231	-0.481679	0.426814
O8	O	0.943231	-0.231679	0.676814
O9	O	0.076385	-1.127242	-0.073180
O10	O	0.326385	-0.877242	0.176820
O11	O	0.576385	-0.627242	0.426820
O12	O	0.826385	-0.377242	0.676820
O13	O	0.317318	-1.112083	-0.073179
O14	O	0.567318	-0.862083	0.176821
O15	O	0.817318	-0.612083	0.426821
O16	O	1.067318	-0.362083	0.676821
O17	O	0.076383	-1.127232	0.073278
O18	O	0.326383	-0.877232	0.323278
O19	O	0.576383	-0.627232	0.573278
O20	O	0.826383	-0.377232	0.823278
O21	O	0.193229	-0.981669	0.073272
O22	O	0.443229	-0.731669	0.323272
O23	O	0.693229	-0.481669	0.573272
O24	O	0.943229	-0.231669	0.823272
O25	O	0.200470	-1.257636	0.073284
O26	O	0.450470	-1.007636	0.323284
O27	O	0.700470	-0.757636	0.573284
O28	O	0.950470	-0.507636	0.823284
Zn29	Zn	0.196849	-1.119651	0.096531
Zn30	Zn	0.446849	-0.869651	0.346531
Zn31	Zn	0.696849	-0.619651	0.596531
Zn32	Zn	0.946849	-0.369651	0.846531
Zn33	Zn	0.196852	-1.119664	-0.096433
Zn34	Zn	0.446852	-0.869664	0.153567
Zn35	Zn	0.696852	-0.619664	0.403567
Zn36	Zn	0.946852	-0.369664	0.653567
O37	O	0.317316	-1.112073	0.073278
O38	O	0.567316	-0.862073	0.323278
O39	O	0.817316	-0.612073	0.573278
O40	O	1.067316	-0.362073	0.823278
C41	C	0.190063	-0.946361	0.000041
C42	C	0.440063	-0.696361	0.250041
C43	C	0.690063	-0.446361	0.500041
C44	C	0.940063	-0.196361	0.750041
C45	C	0.180616	-0.841138	0.000037
C46	C	0.430616	-0.591138	0.250037
C47	C	0.680616	-0.341138	0.500037
C48	C	0.930616	-0.091138	0.750037
C49	C	0.230339	-0.590837	0.000045
C50	C	0.480339	-0.340837	0.250045
C51	C	0.730339	-0.090837	0.500045
C52	C	0.980339	0.159163	0.750045
C53	C	0.163359	-0.648485	0.000044
C54	C	0.413359	-0.398485	0.250044
C55	C	0.663359	-0.148485	0.500044
C56	C	0.913359	0.101515	0.750044
C57	C	0.172963	-0.755687	0.000040
C58	C	0.422963	-0.505687	0.250040
C59	C	0.672963	-0.255687	0.500040
C60	C	0.922963	-0.005687	0.750040
C61	C	0.220736	-0.483625	0.000049
C62	C	0.470736	-0.233625	0.250049
C63	C	0.720736	0.016375	0.500049
C64	C	0.970736	0.266375	0.750049
C65	C	0.045363	-1.126623	0.000047
C66	C	0.295363	-0.876623	0.250047
C67	C	0.545363	-0.626623	0.500047
C68	C	0.795363	-0.376623	0.750047
C69	C	-0.047069	-1.124780	0.000041
C70	C	0.202931	-0.874780	0.250041
C71	C	0.452931	-0.624780	0.500041
C72	C	0.702931	-0.374780	0.750041
C73	C	-0.259722	-1.120529	-0.079790
C74	C	-0.009722	-0.870529	0.170210
C75	C	0.240278	-0.620529	0.420210
C76	C	0.490278	-0.370529	0.670210
C77	C	-0.346572	-1.118789	-0.079789
C78	C	-0.096572	-0.868789	0.170211
C79	C	0.153428	-0.618789	0.420211
C80	C	0.403428	-0.368789	0.670211
C81	C	-0.346571	-1.118783	0.079887
C82	C	-0.096571	-0.868783	0.329887
C83	C	0.153429	-0.618783	0.579887
C84	C	0.403429	-0.368783	0.829887
C85	C	-0.259723	-1.120516	0.079885
C86	C	-0.009723	-0.870516	0.329885
C87	C	0.240277	-0.620516	0.579885
C88	C	0.490277	-0.370516	0.829885
C89	C	-0.216301	-1.121394	0.000044
C90	C	0.033699	-0.871394	0.250044
C91	C	0.283699	-0.621394	0.500044
C92	C	0.533699	-0.371394	0.750044
C93	C	-0.389999	-1.117921	0.000046
C94	C	-0.139999	-0.867921	0.250046
C95	C	0.110001	-0.617921	0.500046
C96	C	0.360001	-0.367921	0.750046
C97	C	-0.484165	-1.116035	0.000048
C98	C	-0.234165	-0.866035	0.250048
C99	C	0.015835	-0.616035	0.500048
C100	C	0.265835	-0.366035	0.750048
C101	C	-0.122128	-1.123279	0.000042
C102	C	0.127872	-0.873279	0.250042
C103	C	0.377872	-0.623279	0.500042
C104	C	0.627872	-0.373279	0.750042
C105	C	0.348338	-1.112692	0.000049
C106	C	0.598338	-0.862692	0.250049
C107	C	0.848338	-0.612692	0.500049
C108	C	1.098338	-0.362692	0.750049
C109	C	0.440770	-1.114535	0.000050
C110	C	0.690770	-0.864535	0.250050
C111	C	0.940770	-0.614535	0.500050
C112	C	1.190770	-0.364535	0.750050
C113	C	0.203636	-0.292955	0.000054
C114	C	0.453636	-0.042955	0.250054
C115	C	0.703636	0.207045	0.500054
C116	C	0.953636	0.457045	0.750054
C117	C	0.213078	-0.398179	0.000052
C118	C	0.463078	-0.148179	0.250052
C119	C	0.713078	0.101821	0.500052
C120	C	0.963078	0.351821	0.750052
N121	N	0.196847	-1.119649	0.228224
N122	N	0.446847	-0.869649	0.478224
N123	N	0.696847	-0.619649	0.728224
N124	N	0.946847	-0.369649	0.978224
N125	N	0.196848	-1.119673	-0.228125
N126	N	0.446848	-0.869673	0.021875
N127	N	0.696848	-0.619673	0.271875
N128	N	0.946848	-0.369673	0.521875
C129	C	0.145128	-1.184127	0.453949
C130	C	0.395128	-0.934127	0.703949
C131	C	0.645128	-0.684127	0.953949
C132	C	0.895128	-0.434127	1.203949
C133	C	0.145126	-1.184130	0.546139
C134	C	0.395126	-0.934130	0.796139
C135	C	0.645126	-0.684130	1.046139
C136	C	0.895126	-0.434130	1.296139
C137	C	0.248569	-1.055189	0.546143
C138	C	0.498569	-0.805189	0.796143
C139	C	0.748569	-0.555189	1.046143
C140	C	0.998569	-0.305189	1.296143
C141	C	0.248566	-1.055182	0.453955
C142	C	0.498566	-0.805182	0.703955
C143	C	0.748566	-0.555182	0.953955
C144	C	0.998566	-0.305182	1.203955
C145	C	0.196847	-1.119656	0.407860
C146	C	0.446847	-0.869656	0.657860
C147	C	0.696847	-0.619656	0.907860
C148	C	0.946847	-0.369656	1.157860
C149	C	0.196848	-1.119666	0.592238
C150	C	0.446848	-0.869666	0.842238
C151	C	0.696848	-0.619666	1.092238
C152	C	0.946848	-0.369666	1.342238
C153	C	0.196847	-1.119669	0.692194
C154	C	0.446847	-0.869669	0.942194
C155	C	0.696847	-0.619669	1.192194
C156	C	0.946847	-0.369669	1.442194
C157	C	0.196847	-1.119653	0.307898
C158	C	0.446847	-0.869653	0.557898
C159	C	0.696847	-0.619653	0.807898
C160	C	0.946847	-0.369653	1.057898
H161	H	0.294891	-0.621991	0.000043
H162	H	0.544891	-0.371991	0.250043
H163	H	0.794891	-0.121991	0.500043
H164	H	1.044891	0.128009	0.750043
C165	C	-0.211960	-1.121484	-0.167611
C166	C	0.038040	-0.871484	0.082389
C167	C	0.288040	-0.621484	0.332389
C168	C	0.538040	-0.371484	0.582389
H169	H	-0.250262	-1.120710	-0.215156
H170	H	-0.000262	-0.870710	0.034844
H171	H	0.249738	-0.620710	0.284844
H172	H	0.499738	-0.370710	0.534844
H173	H	-0.180321	-1.177400	-0.170934
H174	H	0.069679	-0.927400	0.079066
H175	H	0.319679	-0.677400	0.329066
H176	H	0.569679	-0.427400	0.579066
H177	H	-0.175839	-1.066911	-0.170928
H178	H	0.074161	-0.816911	0.079072
H179	H	0.324161	-0.566911	0.329072
H180	H	0.574161	-0.316911	0.579072
H181	H	-0.381936	-1.118071	0.144890
H182	H	-0.131936	-0.868071	0.394890
H183	H	0.118064	-0.618071	0.644890
H184	H	0.368064	-0.368071	0.894890
C185	C	-0.394332	-1.117847	-0.167607
C186	C	-0.144332	-0.867847	0.082393
C187	C	0.105668	-0.617847	0.332393
C188	C	0.355668	-0.367847	0.582393
H189	H	-0.356030	-1.118626	-0.215153
H190	H	-0.106030	-0.868626	0.034847
H191	H	0.143970	-0.618626	0.284847
H192	H	0.393970	-0.368626	0.534847
H193	H	-0.425970	-1.061931	-0.170933
H194	H	-0.175970	-0.811931	0.079067
H195	H	0.074030	-0.561931	0.329067
H196	H	0.324030	-0.311931	0.579067
H197	H	-0.430452	-1.172420	-0.170919
H198	H	-0.180452	-0.922420	0.079081
H199	H	0.069548	-0.672420	0.329081
H200	H	0.319548	-0.422420	0.579081
C201	C	-0.211956	-1.121471	0.167707
C202	C	0.038044	-0.871471	0.417707
C203	C	0.288044	-0.621471	0.667707
C204	C	0.538044	-0.371471	0.917707
H205	H	-0.250254	-1.120714	0.215257
H206	H	-0.000254	-0.870714	0.465257
H207	H	0.249746	-0.620714	0.715257
H208	H	0.499746	-0.370714	0.965257
H209	H	-0.175834	-1.066906	0.171023
H210	H	0.074166	-0.816906	0.421023
H211	H	0.324166	-0.566906	0.671023
H212	H	0.574166	-0.316906	0.921023
H213	H	-0.180320	-1.177395	0.171022
H214	H	0.069680	-0.927395	0.421022
H215	H	0.319680	-0.677395	0.671022
H216	H	0.569680	-0.427395	0.921022
H217	H	0.103013	-1.236624	0.416421
H218	H	0.353013	-0.986624	0.666421
H219	H	0.603013	-0.736624	0.916421
H220	H	0.853013	-0.486624	1.166421
C221	C	0.076146	-0.606408	0.000039
C222	C	0.326146	-0.356408	0.250039
C223	C	0.576146	-0.106408	0.500039
C224	C	0.826146	0.143592	0.750039
H225	H	0.035383	-0.656677	0.000041
H226	H	0.285383	-0.406677	0.250041
H227	H	0.535383	-0.156677	0.500041
H228	H	0.785383	0.093323	0.750041
H229	H	0.069628	-0.568295	-0.051033
H230	H	0.319628	-0.318295	0.198967
H231	H	0.569628	-0.068295	0.448967
H232	H	0.819628	0.181705	0.698967
H233	H	0.069620	-0.568299	0.051119
H234	H	0.319620	-0.318299	0.301119
H235	H	0.569620	-0.068299	0.551119
H236	H	0.819620	0.181701	0.801119
H237	H	0.103011	-1.236626	0.583662
H238	H	0.353011	-0.986626	0.833662
H239	H	0.603011	-0.736626	1.083662
H240	H	0.853011	-0.486626	1.333662
H241	H	0.290680	-1.002697	0.583682
H242	H	0.540680	-0.752697	0.833682
H243	H	0.790680	-0.502697	1.083682
H244	H	1.040680	-0.252697	1.333682
C245	C	0.305462	-0.984264	0.403253
C246	C	0.555462	-0.734264	0.653253
C247	C	0.805462	-0.484264	0.903253
C248	C	1.055462	-0.234264	1.153253
H249	H	0.336274	-0.945876	0.443907
H250	H	0.586274	-0.695876	0.693907
H251	H	0.836274	-0.445876	0.943907
H252	H	1.086274	-0.195876	1.193907
H253	H	0.272607	-0.944818	0.367295
H254	H	0.522607	-0.694818	0.617295
H255	H	0.772607	-0.444818	0.867295
H256	H	1.022607	-0.194818	1.117295
H257	H	0.342618	-1.018354	0.367287
H258	H	0.592618	-0.768354	0.617287
H259	H	0.842618	-0.518354	0.867287
H260	H	1.092618	-0.268354	1.117287
