data_functionalizedCrystal
_audit_creation_method	'MofGen! by Chris Wilmer'
_symmetry_space_group_name_H-M	'P1'
_symmetry_Int_Tables_number	1
_symmetry_cell_setting	triclinic
loop_
_symmetry_equiv_pos_as_xyz
  x,y,z
_cell_length_a	21.395364
_cell_length_b	12.645330
_cell_length_c	21.395355
_cell_angle_alpha	89.979272
_cell_angle_beta	90.024552
_cell_angle_gamma	89.965753
loop_
_atom_site_label
_atom_site_type_symbol
_atom_site_fract_x
_atom_site_fract_y
_atom_site_fract_z
Zn1	Zn	0.957909	0.421739	0.354252
Zn2	Zn	0.957832	0.598988	0.249470
Zn3	Zn	0.853124	0.421786	0.249489
Zn4	Zn	0.853114	0.599007	0.354211
O5	O	0.905495	0.510380	0.301855
O6	O	1.045577	0.445224	0.340362
O7	O	0.943915	0.575494	0.161795
O8	O	0.867060	0.273432	0.263411
O9	O	1.045520	0.575449	0.263380
O10	O	0.944045	0.273398	0.340380
O11	O	0.866986	0.445304	0.161808
O12	O	0.765445	0.445322	0.263371
O13	O	0.867043	0.575481	0.441894
O14	O	0.765437	0.575526	0.340309
O15	O	0.944035	0.445243	0.441924
O16	O	0.943905	0.747338	0.263339
O17	O	0.866969	0.747352	0.340292
C18	C	0.742707	0.510432	0.301838
C19	C	0.673066	0.510479	0.301845
C20	C	0.640404	0.442783	0.341992
C21	C	0.574969	0.442754	0.341994
C22	C	0.542198	0.510442	0.301856
C23	C	0.574867	0.578143	0.261702
C24	C	0.640301	0.578162	0.261696
C25	C	0.438484	0.605910	0.296817
C26	C	0.373051	0.605893	0.296827
C27	C	0.340377	0.510384	0.301870
C28	C	0.373143	0.414888	0.306917
C29	C	0.438577	0.414907	0.306911
C30	C	0.471245	0.510429	0.301858
C31	C	0.236763	0.442650	0.342022
C32	C	0.171326	0.442621	0.342020
C33	C	0.171225	0.578019	0.261731
C34	C	0.236661	0.578039	0.261730
C35	C	0.269425	0.510357	0.301878
C36	C	0.905444	0.785810	0.301823
C37	C	0.905480	0.903640	0.301830
C38	C	0.953792	1.071151	0.253310
C39	C	0.953957	0.948591	0.253437
C40	C	0.923388	0.948039	0.367872
C41	C	0.923763	1.070636	0.367606
C42	C	0.839216	1.070990	0.284934
C43	C	0.839542	0.948385	0.283461
C44	C	1.068918	0.510329	0.301873
C45	C	1.138559	0.510307	0.301881
C46	C	0.905547	0.510359	0.465279
C47	C	0.905569	0.510350	0.534920
C48	C	0.905545	1.233875	0.301886
C49	C	0.905522	1.116045	0.301857
C50	C	0.905479	0.510325	0.139068
C51	C	0.905578	0.510036	0.069427
C52	C	0.945657	0.442532	0.567650
C53	C	0.945656	0.442486	0.633085
C54	C	0.905574	0.510277	0.665788
C55	C	0.865478	0.578100	0.633051
C56	C	0.865475	0.578136	0.567616
C57	C	0.900609	0.605732	0.769452
C58	C	0.900616	0.605697	0.834885
C59	C	0.905578	0.510165	0.867609
C60	C	0.910546	0.414664	0.834893
C61	C	0.910543	0.414701	0.769458
C62	C	0.905572	0.510245	0.736741
C63	C	0.945667	0.442292	0.971292
C64	C	0.945662	0.442245	1.036728
C65	C	0.865487	0.577868	1.036692
C66	C	0.865489	0.577906	0.971257
C67	C	0.905582	0.510120	0.938561
H68	H	0.263254	0.633170	0.229040
Br69	Br	0.811080	0.669859	1.081068
Br70	Br	0.811081	0.669952	0.926834
H71	H	0.801642	0.917800	0.316231
Br72	Br	1.000050	0.350415	0.677515
H73	H	0.896574	0.683460	0.861517
H74	H	0.465253	0.337151	0.311019
Br75	Br	0.328808	0.285258	0.313764
H76	H	0.826039	0.919377	0.234859
Br77	Br	0.779273	1.119386	0.343866
Br78	Br	1.004544	1.118139	0.391499
Br79	Br	1.000067	0.350532	0.523279
H80	H	0.896401	0.683506	0.742813
H81	H	0.263441	0.387532	0.374710
H82	H	0.832840	0.633293	0.659681
Br83	Br	1.035818	0.899536	0.272102
Br84	Br	0.126757	0.669871	0.207250
H85	H	0.144734	0.387487	0.374711
Br86	Br	0.328589	0.735493	0.289991
Br87	Br	0.482822	0.735540	0.289960
Br88	Br	0.530393	0.669998	0.207224
Br89	Br	1.000076	0.350296	0.926914
Br90	Br	0.684631	0.670038	0.207204
Br91	Br	0.917285	0.285004	0.879296
Br92	Br	0.917282	0.285100	0.725059
Br93	Br	0.935236	0.898555	0.171829
Br94	Br	1.000082	0.350214	1.081149
H95	H	0.832828	0.633360	0.540968
Br96	Br	1.035209	1.122335	0.271754
Br97	Br	0.530633	0.350870	0.396481
Br98	Br	0.935349	1.120389	0.171443
Br99	Br	0.684868	0.350928	0.396479
H100	H	0.890146	1.100333	0.405024
H101	H	0.971311	0.917235	0.382450
H102	H	0.822928	1.101989	0.237611
H103	H	0.889305	0.918922	0.405016
