data_functionalizedCrystal
_audit_creation_method	'MofGen! by Chris Wilmer'
_symmetry_space_group_name_H-M	'P1'
_symmetry_Int_Tables_number	1
_symmetry_cell_setting	triclinic
loop_
_symmetry_equiv_pos_as_xyz
  x,y,z
_cell_length_a	18.101395
_cell_length_b	18.101398
_cell_length_c	18.101389
_cell_angle_alpha	89.975673
_cell_angle_beta	89.983159
_cell_angle_gamma	90.026371
loop_
_atom_site_label
_atom_site_type_symbol
_atom_site_fract_x
_atom_site_fract_y
_atom_site_fract_z
Zn1	Zn	-0.295001	1.132121	-0.418847
Zn2	Zn	0.204999	1.632121	0.081153
Zn3	Zn	-0.418826	1.132017	-0.295009
Zn4	Zn	0.081174	1.632017	0.204991
Zn5	Zn	-0.294993	1.008280	-0.295008
Zn6	Zn	0.205007	1.508280	0.204992
Zn7	Zn	-0.418795	1.008231	-0.418797
Zn8	Zn	0.081205	1.508231	0.081203
O9	O	-0.356904	1.070162	-0.356915
O10	O	0.143096	1.570162	0.143085
O11	O	-0.311443	1.235740	-0.402440
O12	O	0.188557	1.735740	0.097560
O13	O	-0.402410	1.115580	-0.191376
O14	O	0.097590	1.615580	0.308624
O15	O	-0.191361	1.024772	-0.311456
O16	O	0.308639	1.524772	0.188544
O17	O	-0.402417	1.235664	-0.311457
O18	O	0.097583	1.735664	0.188543
O19	O	-0.191367	1.115757	-0.402440
O20	O	0.308633	1.615757	0.097560
O21	O	-0.311430	1.024671	-0.191375
O22	O	0.188570	1.524671	0.308625
O23	O	-0.311399	0.904641	-0.311408
O24	O	0.188601	1.404641	0.188592
O25	O	-0.402363	1.024688	-0.522437
O26	O	0.097637	1.524688	-0.022437
O27	O	-0.402356	0.904604	-0.402355
O28	O	0.097644	1.404604	0.097645
O29	O	-0.311412	1.115710	-0.522473
O30	O	0.188588	1.615710	-0.022473
O31	O	-0.522455	1.115532	-0.311409
O32	O	-0.022455	1.615532	0.188591
O33	O	-0.522432	1.024587	-0.402356
O34	O	-0.022432	1.524587	0.097644
C35	C	-0.356874	0.877752	-0.356877
C36	C	0.143126	1.377752	0.143123
C37	C	-0.356879	0.795437	-0.356878
C38	C	0.143121	1.295437	0.143122
C39	C	-0.356925	0.496347	-0.356940
C40	C	0.143075	0.996347	0.143060
C41	C	-0.299412	0.527670	-0.299997
C42	C	0.200588	1.027670	0.200003
C43	C	-0.299566	0.613288	-0.299754
C44	C	0.200434	1.113288	0.200246
C45	C	-0.356901	0.644729	-0.356909
C46	C	0.143099	1.144729	0.143091
C47	C	-0.434909	0.613611	-0.335587
C48	C	0.065091	1.113611	0.164413
C49	C	-0.434590	0.527966	-0.335191
C50	C	0.065410	1.027966	0.164809
C51	C	-0.337109	0.527961	-0.435339
C52	C	0.162891	1.027961	0.064661
C53	C	-0.335371	0.613612	-0.434911
C54	C	0.164629	1.113612	0.065089
C55	C	-0.356893	0.728589	-0.356893
C56	C	0.143107	1.228589	0.143107
C57	C	-0.356939	0.412487	-0.356954
C58	C	0.143061	0.912487	0.143046
C59	C	-0.549314	1.070063	-0.356893
C60	C	-0.049314	1.570063	0.143107
C61	C	-0.631628	1.070088	-0.356909
C62	C	-0.131628	1.570088	0.143091
C63	C	-0.930719	1.070251	-0.356949
C64	C	-0.430719	1.570251	0.143051
C65	C	-0.899410	1.013163	-0.414312
C66	C	-0.399410	1.513163	0.085688
C67	C	-0.813792	1.012892	-0.414133
C68	C	-0.313792	1.512892	0.085867
C69	C	-0.782337	1.070170	-0.356930
C70	C	-0.282337	1.570170	0.143070
C71	C	-0.813472	1.049041	-0.278878
C72	C	-0.313472	1.549041	0.221122
C73	C	-0.899117	1.048673	-0.279221
C74	C	-0.399117	1.548673	0.220779
C75	C	-0.899073	1.148593	-0.376950
C76	C	-0.399073	1.648593	0.123050
C77	C	-0.813422	1.148132	-0.378661
C78	C	-0.313422	1.648132	0.121339
C79	C	-0.698477	1.070126	-0.356914
C80	C	-0.198477	1.570126	0.143086
C81	C	-1.014579	1.070293	-0.356959
C82	C	-0.514579	1.570293	0.143041
C83	C	-0.163742	1.070282	-0.356953
C84	C	0.336258	1.570282	0.143047
C85	C	-0.081428	1.070333	-0.356970
C86	C	0.418572	1.570333	0.143030
C87	C	-0.356885	1.070205	-0.550077
C88	C	0.143115	1.570205	-0.050077
C89	C	-0.356877	1.070223	-0.632391
C90	C	0.143123	1.570223	-0.132391
C91	C	-0.356934	1.263324	-0.356954
C92	C	0.143066	1.763324	0.143046
C93	C	-0.356948	1.345638	-0.356971
C94	C	0.143052	1.845638	0.143029
C95	C	-0.356738	1.070266	-0.931482
C96	C	0.143262	1.570266	-0.431482
C97	C	-0.413780	1.012801	-0.900134
C98	C	0.086220	1.512801	-0.400134
C99	C	-0.414045	1.012956	-0.814516
C100	C	0.085955	1.512956	-0.314516
C101	C	-0.356807	1.070244	-0.783100
C102	C	0.143193	1.570244	-0.283100
C103	C	-0.377998	1.148270	-0.814206
C104	C	0.122002	1.648270	-0.314206
C105	C	-0.378372	1.147949	-0.899851
C106	C	0.121628	1.647949	-0.399851
C107	C	-0.278379	1.050385	-0.899905
C108	C	0.221621	1.550385	-0.399905
C109	C	-0.278832	1.048649	-0.814254
C110	C	0.221168	1.548649	-0.314254
C111	C	-0.356845	1.070237	-0.699240
C112	C	0.143155	1.570237	-0.199240
C113	C	-0.356702	1.070279	-1.015342
C114	C	0.143298	1.570279	-0.515342
C115	C	-0.356869	1.070162	-0.164505
C116	C	0.143131	1.570162	0.335495
C117	C	-0.356668	1.070287	-0.082191
C118	C	0.143332	1.570287	0.417809
H119	H	-0.241719	0.634329	-0.313119
H120	H	0.258281	1.134329	0.186881
N121	N	-0.222690	1.097326	-0.787421
N122	N	0.277310	1.597326	-0.287421
N123	N	-0.239308	1.148960	-0.744713
N124	N	0.260692	1.648960	-0.244713
H125	H	-0.199660	1.183345	-0.725761
H126	H	0.300340	1.683345	-0.225761
N127	N	-0.266996	0.500907	-0.459678
N128	N	0.233004	1.000907	0.040322
N129	N	-0.262514	0.464113	-0.517925
N130	N	0.237486	0.964113	-0.017925
H131	H	-0.212995	0.445006	-0.535110
H132	H	0.287005	0.945006	-0.035110
H133	H	-0.259074	0.994478	-0.921490
H134	H	0.240926	1.494478	-0.421490
N135	N	-0.486196	1.029117	-0.927137
N136	N	0.013804	1.529117	-0.427137
N137	N	-0.515267	1.090174	-0.913237
N138	N	-0.015267	1.590174	-0.413237
H139	H	-0.566411	1.101702	-0.932309
H140	H	-0.066411	1.601702	-0.432309
H141	H	-0.241388	0.507099	-0.313215
H142	H	0.258612	1.007099	0.186785
N143	N	-0.397416	0.940378	-0.788112
N144	N	0.102584	1.440378	-0.288112
N145	N	-0.394772	0.928075	-0.720210
N146	N	0.105228	1.428075	-0.220210
H147	H	-0.383030	0.876813	-0.701563
H148	H	0.116970	1.376813	-0.201563
H149	H	-0.262852	0.991229	-0.793921
H150	H	0.237148	1.491229	-0.293921
H151	H	-0.337757	1.192236	-0.793859
H152	H	0.162243	1.692236	-0.293859
H153	H	-0.478892	0.507244	-0.374857
H154	H	0.021108	1.007244	0.125143
N155	N	-0.787381	1.029487	-0.486732
N156	N	-0.287381	1.529487	0.013268
N157	N	-0.803868	1.089520	-0.516615
N158	N	-0.303868	1.589520	-0.016615
H159	H	-0.785220	1.101240	-0.567892
H160	H	-0.285220	1.601240	-0.067892
N161	N	-0.225071	1.102897	-0.925340
N162	N	0.274929	1.602897	-0.425340
N163	N	-0.244603	1.154758	-0.966544
N164	N	0.255397	1.654758	-0.466544
H165	H	-0.206960	1.191848	-0.984511
H166	H	0.293040	1.691848	-0.484511
H167	H	-0.312363	0.506120	-0.242242
H168	H	0.187637	1.006120	0.257758
H169	H	-0.312665	0.633741	-0.241661
H170	H	0.187335	1.133741	0.258339
H171	H	-0.451397	0.507954	-0.277877
H172	H	0.048603	1.007954	0.222123
H173	H	-0.452008	0.635026	-0.278892
H174	H	0.047992	1.135026	0.221108
N175	N	-0.263355	0.639132	-0.455072
N176	N	0.236645	1.139132	0.044928
N177	N	-0.227976	0.680087	-0.412195
N178	N	0.272024	1.180087	0.087805
H179	H	-0.177114	0.698115	-0.426431
H180	H	0.322886	1.198115	0.073569
N181	N	-0.490101	0.639158	-0.385992
N182	N	0.009899	1.139158	0.114008
N183	N	-0.472516	0.680686	-0.438316
N184	N	0.027484	1.180686	0.061684
H185	H	-0.511494	0.698730	-0.473916
H186	H	-0.011494	1.198730	0.026084
N187	N	-0.486893	1.029531	-0.788849
N188	N	0.013107	1.529531	-0.288849
N189	N	-0.497755	1.085180	-0.749460
N190	N	0.002245	1.585180	-0.249460
H191	H	-0.549206	1.096913	-0.731345
H192	H	-0.049206	1.596913	-0.231345
H193	H	-0.374209	0.635017	-0.479611
H194	H	0.125791	1.135017	0.020389
N195	N	-0.389675	0.502563	-0.488554
N196	N	0.110325	1.002563	0.011446
N197	N	-0.441527	0.461358	-0.468927
N198	N	0.058473	0.961358	0.031073
H199	H	-0.478659	0.443422	-0.506503
H200	H	0.021341	0.943422	-0.006503
H201	H	-0.919970	1.026252	-0.472374
H202	H	-0.419970	1.526252	0.027626
H203	H	-0.920990	0.955448	-0.401230
H204	H	-0.420990	1.455448	0.098770
N205	N	-0.788168	0.940043	-0.397514
N206	N	-0.288168	1.440043	0.102486
N207	N	-0.833537	0.889243	-0.386006
N208	N	-0.333537	1.389243	0.113994
H209	H	-0.815441	0.837790	-0.374267
H210	H	-0.315441	1.337790	0.125733
N211	N	-0.924245	0.976832	-0.257962
N212	N	-0.424245	1.476832	0.242038
N213	N	-0.878529	0.927313	-0.242977
N214	N	-0.378529	1.427313	0.257023
H215	H	-0.896271	0.876572	-0.227962
H216	H	-0.396271	1.376572	0.272038
N217	N	-0.925095	1.098556	-0.223760
N218	N	-0.425095	1.598556	0.276240
N219	N	-0.879970	1.133526	-0.184920
N220	N	-0.379970	1.633526	0.315080
H221	H	-0.898313	1.168747	-0.145742
H222	H	-0.398313	1.668747	0.354258
N223	N	-0.787913	1.099567	-0.223804
N224	N	-0.287913	1.599567	0.276196
N225	N	-0.746364	1.151835	-0.241506
N226	N	-0.246364	1.651835	0.258494
H227	H	-0.728311	1.187521	-0.202611
H228	H	-0.228311	1.687521	0.297389
H229	H	-0.792080	0.992380	-0.261633
H230	H	-0.292080	1.492380	0.238367
N231	N	-0.450225	1.169104	-0.924930
N232	N	0.049775	1.669104	-0.424930
N233	N	-0.475967	1.230834	-0.907809
N234	N	0.024033	1.730834	-0.407809
H235	H	-0.526714	1.245776	-0.925519
H236	H	-0.026714	1.745776	-0.425519
H237	H	-0.793071	1.164065	-0.436103
H238	H	-0.293071	1.664065	0.063897
H239	H	-0.920633	1.167856	-0.432895
H240	H	-0.420633	1.667856	0.067105
N241	N	-0.397305	0.939999	-0.925956
N242	N	0.102695	1.439999	-0.425956
N243	N	-0.343334	0.929614	-0.967767
N244	N	0.156666	1.429614	-0.467767
H245	H	-0.331698	0.878197	-0.986010
H246	H	0.168302	1.378197	-0.486010
H247	H	-0.338629	1.192217	-0.920590
H248	H	0.161371	1.692217	-0.420590
H249	H	-0.792007	1.192915	-0.339927
H250	H	-0.292007	1.692915	0.160073
H251	H	-0.919319	1.191125	-0.335170
H252	H	-0.419319	1.691125	0.164830
N253	N	-0.449088	1.169790	-0.787305
N254	N	0.050912	1.669790	-0.287305
N255	N	-0.459914	1.175902	-0.719379
N256	N	0.040086	1.675902	-0.219379
H257	H	-0.510122	1.191099	-0.700379
H258	H	-0.010122	1.691099	-0.200379
