data_functionalizedCrystal
_audit_creation_method	'MofGen! by Chris Wilmer'
_symmetry_space_group_name_H-M	'P1'
_symmetry_Int_Tables_number	1
_symmetry_cell_setting	triclinic
loop_
_symmetry_equiv_pos_as_xyz
  x,y,z
_cell_length_a	17.077404
_cell_length_b	19.077068
_cell_length_c	17.077396
_cell_angle_alpha	92.266197
_cell_angle_beta	89.982756
_cell_angle_gamma	92.327269
loop_
_atom_site_label
_atom_site_type_symbol
_atom_site_fract_x
_atom_site_fract_y
_atom_site_fract_z
Zn1	Zn	1.187457	-0.280191	-0.456376
Zn2	Zn	1.182084	-0.397897	-0.330374
Zn3	Zn	1.056193	-0.280218	-0.325125
Zn4	Zn	1.050874	-0.397853	-0.461596
O5	O	1.119152	-0.339040	-0.393368
O6	O	1.296591	-0.295812	-0.439673
O7	O	1.165362	-0.382315	-0.219832
O8	O	1.078080	-0.181723	-0.338154
O9	O	1.292644	-0.382290	-0.347101
O10	O	1.174519	-0.181704	-0.434583
O11	O	1.072870	-0.295857	-0.215975
O12	O	0.945641	-0.295815	-0.343216
O13	O	1.069014	-0.382216	-0.570749
O14	O	0.941733	-0.382241	-0.443481
O15	O	1.169361	-0.295770	-0.566914
O16	O	1.160205	-0.496382	-0.352163
O17	O	1.063805	-0.496350	-0.448571
C18	C	0.915205	-0.339027	-0.393345
C19	C	0.827954	-0.339038	-0.393355
C20	C	0.784947	-0.384108	-0.445486
C21	C	0.702966	-0.384110	-0.445498
C22	C	0.663995	-0.339044	-0.393376
C23	C	0.707008	-0.293969	-0.341243
C24	C	0.788987	-0.293965	-0.341235
C25	C	0.536137	-0.293983	-0.341263
C26	C	0.454153	-0.293988	-0.341270
C27	C	0.450117	-0.384128	-0.445526
C28	C	0.532096	-0.384124	-0.445518
C29	C	0.575103	-0.339049	-0.393384
C30	C	1.110866	-0.521903	-0.401520
C31	C	1.107393	-0.600133	-0.405034
C32	C	1.155990	-0.636879	-0.356533
C33	C	1.152728	-0.710384	-0.359842
C34	C	1.100864	-0.747143	-0.411651
C35	C	1.052265	-0.710392	-0.460158
C36	C	1.055531	-0.636888	-0.456851
C37	C	1.085713	-0.966977	-0.426921
C38	C	1.082448	-1.040486	-0.430222
C39	C	1.182913	-1.040474	-0.329907
C40	C	1.186172	-0.966968	-0.326602
C41	C	1.137575	-0.930224	-0.375112
N42	N	1.097527	-0.822277	-0.415033
N43	N	1.140917	-0.855091	-0.371733
C44	C	1.323896	-0.339053	-0.393391
C45	C	1.411145	-0.339059	-0.393400
C46	C	1.119194	-0.338985	-0.598110
C47	C	1.119212	-0.338962	-0.685358
C48	C	1.127492	-0.155462	-0.385200
C49	C	1.131046	-0.077232	-0.381720
C50	C	1.071067	-0.293938	-0.724339
C51	C	1.071080	-0.293922	-0.806319
C52	C	1.119243	-0.338927	-0.849316
C53	C	1.167390	-0.383956	-0.810330
C54	C	1.167372	-0.383975	-0.728352
C55	C	1.167426	-0.383912	-0.981198
C56	C	1.167446	-0.383892	-1.063182
C57	C	1.071134	-0.293859	-1.059166
C58	C	1.071116	-0.293878	-0.977187
C59	C	1.119264	-0.338906	-0.938207
C60	C	1.119158	-0.339043	-0.189420
C61	C	1.119301	-0.338868	-0.102163
H62	H	0.675271	-0.257273	-0.298808
C63	C	1.018125	-0.244384	-0.849194
N64	N	0.978239	-0.207068	-0.881487
C65	C	1.018166	-0.244331	-1.102046
N66	N	0.978273	-0.207027	-1.134347
H67	H	1.031901	-0.257227	-0.942181
H68	H	1.010039	-0.740326	-0.502345
H69	H	1.015959	-0.606970	-0.496348
C70	C	0.411285	-0.244412	-0.283935
N71	N	0.378998	-0.207069	-0.240751
H72	H	0.824003	-0.257260	-0.298789
C73	C	1.236368	-1.080899	-0.276552
N74	N	1.276634	-1.111347	-0.236364
H75	H	1.206665	-0.420539	-1.098188
H76	H	1.198220	-0.606956	-0.314341
H77	H	1.206641	-0.420573	-0.949462
C78	C	1.032294	-0.926567	-0.480324
N79	N	0.992072	-0.896128	-0.520565
H80	H	1.206602	-0.420604	-0.845345
H81	H	1.206583	-0.420633	-0.696614
H82	H	1.192301	-0.740300	-0.320346
C83	C	1.243206	-0.926540	-0.269589
N84	N	1.286156	-0.896089	-0.226636
H85	H	1.040224	-1.070412	-0.472424
C86	C	0.574963	-0.433702	-0.502851
N87	N	0.607250	-0.471044	-0.546036
C88	C	1.018082	-0.244428	-0.677050
N89	N	0.978170	-0.207137	-0.641434
H90	H	0.415096	-0.420827	-0.487978
C91	C	0.583444	-0.244401	-0.283910
N92	N	0.619075	-0.207059	-0.240710
H93	H	0.816671	-0.420808	-0.487927
H94	H	0.667953	-0.420811	-0.487948
