data_functionalizedCrystal
_audit_creation_method	'MofGen! by Chris Wilmer'
_symmetry_space_group_name_H-M	'P1'
_symmetry_Int_Tables_number	1
_symmetry_cell_setting	triclinic
loop_
_symmetry_equiv_pos_as_xyz
  x,y,z
_cell_length_a	16.109302
_cell_length_b	11.026607
_cell_length_c	14.586319
_cell_angle_alpha	89.998207
_cell_angle_beta	89.994552
_cell_angle_gamma	96.023899
loop_
_atom_site_label
_atom_site_type_symbol
_atom_site_fract_x
_atom_site_fract_y
_atom_site_fract_z
O1	O	1.126504	0.155976	-0.076280
O2	O	0.887350	0.175385	-0.076272
O3	O	0.987106	-0.010965	-0.076272
O4	O	1.026748	0.342326	-0.076280
O5	O	0.987097	-0.010967	0.076209
O6	O	0.887341	0.175383	0.076208
O7	O	1.126494	0.155973	0.076201
Cu8	Cu	1.006917	0.165678	0.090127
Cu9	Cu	1.006928	0.165681	-0.090199
O10	O	1.026738	0.342323	0.076201
C11	C	0.856253	0.174598	-0.000031
C12	C	0.763604	0.172240	-0.000028
C13	C	0.550441	0.166787	0.083080
C14	C	0.463387	0.164559	0.083077
C15	C	0.463409	0.164568	-0.083166
C16	C	0.550461	0.166787	-0.083162
C17	C	0.593975	0.167903	-0.000036
C18	C	0.419869	0.163455	-0.000043
C19	C	0.325482	0.161039	-0.000047
C20	C	0.688369	0.170317	-0.000032
C21	C	0.979788	-0.056174	-0.000033
C22	C	0.957987	-0.190880	-0.000035
C23	C	1.018183	-0.264709	-0.000038
C24	C	0.995652	-0.403934	-0.000041
C25	C	1.157592	0.156761	-0.000042
C26	C	1.250240	0.159118	-0.000051
C27	C	1.034056	0.387533	-0.000041
C28	C	1.055857	0.522238	-0.000044
N29	N	1.006915	0.165675	0.216959
N30	N	1.006935	0.165674	-0.217031
C31	C	1.051110	0.083186	0.451966
C32	C	1.051112	0.083183	0.547947
C33	C	0.962734	0.248166	0.547956
C34	C	0.962728	0.248163	0.451977
C35	C	1.006921	0.165674	0.403984
C36	C	1.006929	0.165675	0.595945
C37	C	1.006931	0.165672	0.700012
C38	C	1.006918	0.165675	0.299910
H39	H	1.086399	-0.224844	-0.000035
C40	C	1.099712	-0.007558	0.399173
C41	C	1.077634	-0.145739	0.412380
C42	C	1.126236	-0.236489	0.359591
C43	C	1.196916	-0.189058	0.293595
C44	C	1.218998	-0.050870	0.280385
C45	C	1.170396	0.039880	0.333174
H46	H	1.025310	-0.180856	0.461237
H47	H	1.109889	-0.338785	0.369370
H48	H	1.232894	-0.256237	0.254517
H49	H	1.271322	-0.015753	0.231528
H50	H	1.186742	0.142176	0.323395
H51	H	0.585868	0.167695	0.150766
C52	C	0.903489	-0.457769	-0.000040
C53	C	0.869236	-0.540856	0.079138
C54	C	0.777075	-0.594692	0.079139
C55	C	0.719167	-0.565440	-0.000038
C56	C	0.753419	-0.482349	-0.079222
C57	C	0.845580	-0.428513	-0.079223
H58	H	0.912104	-0.562514	0.137755
H59	H	0.751720	-0.656202	0.137756
H60	H	0.650944	-0.605293	-0.000037
H61	H	0.710552	-0.460691	-0.137839
H62	H	0.870936	-0.367002	-0.137841
C63	C	0.914132	0.338911	0.600749
C64	C	0.914191	0.338992	0.706322
C65	C	0.865589	0.429742	0.759111
C66	C	0.816928	0.520411	0.706327
C67	C	0.816867	0.520333	0.600747
C68	C	0.865469	0.429583	0.547958
H69	H	0.950215	0.271870	0.745402
H70	H	0.865635	0.429799	0.837269
H71	H	0.780950	0.587590	0.745405
H72	H	0.780844	0.587455	0.561668
H73	H	0.865423	0.429526	0.469801
C74	C	0.598355	0.168012	-0.174596
C75	C	0.694108	0.170445	-0.174590
C76	C	0.742001	0.171662	-0.266019
C77	C	0.694142	0.170447	-0.357454
C78	C	0.598384	0.168014	-0.357464
C79	C	0.550490	0.166797	-0.266035
H80	H	0.729541	0.171344	-0.106901
H81	H	0.812888	0.173462	-0.266011
H82	H	0.729596	0.171348	-0.425135
H83	H	0.562950	0.167115	-0.425153
H84	H	0.479603	0.164997	-0.266042
H85	H	0.427946	0.163650	0.150759
H86	H	1.087093	0.016013	0.587011
C87	C	0.415540	0.163354	-0.174600
C88	C	0.349375	0.056529	-0.197464
C89	C	0.301507	0.055320	-0.288899
C90	C	0.319806	0.160937	-0.357471
C91	C	0.385974	0.267770	-0.334608
C92	C	0.433841	0.268979	-0.243173
H93	H	0.335826	-0.021661	-0.146701
H94	H	0.252525	-0.023765	-0.305823
H95	H	0.284371	0.160042	-0.425157
H96	H	0.399522	0.345961	-0.385371
H97	H	0.482824	0.348064	-0.226249
C98	C	1.148021	-0.423933	-0.000045
C99	C	1.182267	-0.340863	0.079135
C100	C	1.274430	-0.287036	0.079134
C101	C	1.332347	-0.316279	-0.000048
C102	C	1.298103	-0.399353	-0.079234
C103	C	1.205940	-0.453180	-0.079233
H104	H	1.139392	-0.319212	0.137755
H105	H	1.299779	-0.225539	0.137753
H106	H	1.400572	-0.276432	-0.000049
H107	H	1.340978	-0.421004	-0.137854
H108	H	1.180590	-0.514678	-0.137852
C109	C	0.865829	-0.244720	-0.000034
C110	C	0.831575	-0.327807	0.079144
C111	C	0.739414	-0.381643	0.079145
C112	C	0.681507	-0.352391	-0.000032
C113	C	0.715759	-0.269300	-0.079216
C114	C	0.807920	-0.215464	-0.079217
H115	H	0.874443	-0.349465	0.137761
H116	H	0.714059	-0.443153	0.137762
H117	H	0.613283	-0.392244	-0.000032
H118	H	0.672891	-0.247642	-0.137833
H119	H	0.833275	-0.153953	-0.137835
H120	H	0.926740	0.315334	0.412907
