data_functionalizedCrystal
_audit_creation_method	'MofGen! by Chris Wilmer'
_symmetry_space_group_name_H-M	'P1'
_symmetry_Int_Tables_number	1
_symmetry_cell_setting	triclinic
loop_
_symmetry_equiv_pos_as_xyz
  x,y,z
_cell_length_a	23.532407
_cell_length_b	23.532407
_cell_length_c	22.610064
_cell_angle_alpha	90.008651
_cell_angle_beta	89.997005
_cell_angle_gamma	97.151322
loop_
_atom_site_label
_atom_site_type_symbol
_atom_site_fract_x
_atom_site_fract_y
_atom_site_fract_z
O1	O	0.069128	-0.755268	-0.049117
O2	O	0.079132	-0.589405	-0.049135
O3	O	-0.008802	-0.677338	-0.049114
O4	O	0.157062	-0.667335	-0.049137
O5	O	-0.008792	-0.677313	0.049255
O6	O	0.079142	-0.589380	0.049234
O7	O	0.069138	-0.755243	0.049252
Zn8	Zn	0.074142	-0.672308	0.064862
Zn9	Zn	0.074128	-0.672340	-0.064744
O10	O	0.157072	-0.667310	0.049232
C11	C	0.078882	-0.568176	0.000048
C12	C	0.078116	-0.504959	0.000041
N13	N	0.074150	-0.672290	0.153314
C14	C	-0.030013	-0.677071	0.000072
C15	C	-0.093230	-0.676305	0.000076
C16	C	-0.492333	-0.723539	0.000049
C17	C	-0.551733	-0.722827	0.000044
O18	O	-0.588478	-0.766613	0.000027
N19	N	-0.574359	-0.670551	0.000039
C20	C	-0.537582	-0.618983	0.000032
O21	O	-0.562281	-0.574452	0.000027
C22	C	-0.478182	-0.619695	0.000033
C23	C	-0.455560	-0.671974	0.000044
C24	C	-0.469710	-0.775814	0.000060
C25	C	-0.410313	-0.776525	0.000065
C26	C	-0.373540	-0.724961	0.000060
C27	C	-0.396164	-0.672685	0.000050
C28	C	-0.441406	-0.568127	0.000022
C29	C	-0.382004	-0.568844	0.000021
C30	C	-0.359381	-0.621123	0.000033
C31	C	-0.299995	-0.621832	0.000050
N32	N	-0.277368	-0.674109	0.000056
C33	C	-0.314141	-0.725673	0.000061
C34	C	-0.662324	-0.617491	0.000031
C35	C	-0.721722	-0.616778	0.000034
C36	C	-0.735869	-0.720623	0.000045
C37	C	-0.676470	-0.721335	0.000046
C38	C	-0.639698	-0.669767	0.000036
C39	C	-0.189405	-0.727163	0.000073
C40	C	-0.130003	-0.727869	0.000081
C41	C	-0.115860	-0.624025	0.000067
C42	C	-0.175257	-0.623318	0.000062
C43	C	-0.212029	-0.674891	0.000063
O44	O	-0.263215	-0.578070	0.000065
O45	O	-0.289433	-0.770196	0.000058
C46	C	0.178283	-0.667577	0.000045
C47	C	0.241500	-0.668343	0.000036
C48	C	0.069388	-0.776472	0.000069
C49	C	0.070154	-0.839689	0.000071
C50	C	0.125350	-0.105856	0.000061
C51	C	0.124638	-0.046456	0.000065
O52	O	0.168424	-0.009711	0.000081
N53	N	0.072362	-0.023830	0.000071
C54	C	0.020794	-0.060607	0.000080
O55	O	-0.023737	-0.035908	0.000086
C56	C	0.021506	-0.120006	0.000080
C57	C	0.073785	-0.142629	0.000068
C58	C	0.177625	-0.128479	0.000050
C59	C	0.178336	-0.187876	0.000045
C60	C	0.126772	-0.224649	0.000052
C61	C	0.074497	-0.202025	0.000063
C62	C	-0.030062	-0.156783	0.000093
C63	C	-0.029345	-0.216185	0.000094
C64	C	0.022934	-0.238808	0.000082
C65	C	0.023643	-0.298194	0.000065
N66	N	0.075920	-0.320820	0.000059
C67	C	0.127484	-0.284048	0.000052
C68	C	0.019302	0.064135	0.000080
C69	C	0.018589	0.123533	0.000075
C70	C	0.122434	0.137680	0.000061
C71	C	0.123146	0.078281	0.000062
C72	C	0.071578	0.041509	0.000074
C73	C	0.128974	-0.408784	0.000042
C74	C	0.129680	-0.468186	0.000034
C75	C	0.025836	-0.482329	0.000051
C76	C	0.025129	-0.422932	0.000055
C77	C	0.076702	-0.386160	0.000052
O78	O	-0.020119	-0.334974	0.000052
O79	O	0.172007	-0.308755	0.000054
N80	N	0.074115	-0.672363	-0.153196
C81	C	0.039758	-0.637982	0.438156
C82	C	0.039761	-0.637977	0.376236
O83	O	0.010521	-0.608784	0.344213
N84	N	0.074132	-0.672313	0.345266
C85	C	0.108498	-0.706662	0.376219
O86	O	0.137734	-0.735868	0.344191
C87	C	0.108492	-0.706670	0.438138
C88	C	0.074123	-0.672327	0.469105
C89	C	0.005391	-0.603642	0.469123
C90	C	0.005389	-0.603647	0.531039
C91	C	0.039754	-0.637992	0.561988
C92	C	0.074121	-0.672332	0.531021
C93	C	0.142855	-0.741022	0.469090
C94	C	0.142846	-0.741027	0.531013
C95	C	0.108476	-0.706684	0.561980
C96	C	0.108484	-0.706681	0.623885
N97	N	0.074113	-0.672345	0.654855
C98	C	0.039748	-0.638000	0.623906
C99	C	0.108508	-0.706643	0.246186
C100	C	0.108518	-0.706632	0.184268
C101	C	0.039779	-0.637948	0.184289
C102	C	0.039773	-0.637956	0.246208
C103	C	0.074137	-0.672307	0.277156
C104	C	0.039747	-0.638012	0.753934
C105	C	0.039750	-0.638018	0.815855
C106	C	0.108486	-0.706705	0.815828
C107	C	0.108486	-0.706697	0.753912
C108	C	0.074112	-0.672349	0.722967
O109	O	0.137707	-0.735861	0.655948
O110	O	0.010512	-0.608804	0.655942
H111	H	-0.111587	-0.770443	0.000092
H112	H	-0.017441	-0.404512	0.000056
Br113	Br	-0.044141	-0.532246	0.000061
Br114	Br	-0.332101	-0.498854	0.000005
Br115	Br	-0.519606	-0.845804	0.000066
H116	H	0.170829	-0.769001	0.556207
Br117	Br	-0.645775	-0.792288	0.000062
Br118	Br	-0.785787	-0.790604	0.000050
Br119	Br	0.155154	-0.753262	0.288180
Br120	Br	-0.006894	-0.591403	0.857878
H121	H	-0.391900	-0.819097	0.000072
Br122	Br	0.200636	-0.498884	0.000014
Br123	Br	-0.052364	0.154227	0.000074
Br124	Br	-0.101018	-0.126097	0.000097
Br125	Br	-0.239299	-0.797156	0.000074
Br126	Br	-0.472092	-0.497171	0.000004
Br127	Br	0.189518	-0.787618	0.427079
Br128	Br	-0.050690	0.014235	0.000090
Br129	Br	-0.612424	-0.547499	0.000022
H130	H	-0.071339	-0.246123	0.000104
H131	H	0.011757	-0.610043	0.728745
H132	H	-0.022600	-0.575683	0.556247
H133	H	0.220908	-0.206289	0.000035
Br134	Br	0.198967	-0.358890	0.000039
Br135	Br	-0.041249	-0.557020	0.427133
Br136	Br	0.247615	-0.078583	0.000041
Br137	Br	-0.752416	-0.545825	0.000033
H138	H	0.165717	0.059867	0.000055
Br139	Br	-0.006873	-0.591346	0.288228
H140	H	0.164421	0.167632	0.000059
H141	H	-0.193677	-0.580748	0.000069
H142	H	0.011797	-0.609982	0.159080
H143	H	-0.085909	-0.582043	0.000065
Br144	Br	0.155178	-0.753229	0.142249
H145	H	0.136480	-0.734654	0.728698
H146	H	0.136467	-0.734666	0.841038
