data_functionalizedCrystal
_audit_creation_method	'MofGen! by Chris Wilmer'
_symmetry_space_group_name_H-M	'P1'
_symmetry_Int_Tables_number	1
_symmetry_cell_setting	triclinic
loop_
_symmetry_equiv_pos_as_xyz
  x,y,z
_cell_length_a	17.077404
_cell_length_b	19.805405
_cell_length_c	17.077396
_cell_angle_alpha	90.031650
_cell_angle_beta	90.018362
_cell_angle_gamma	90.024381
loop_
_atom_site_label
_atom_site_type_symbol
_atom_site_fract_x
_atom_site_fract_y
_atom_site_fract_z
Zn1	Zn	1.200035	-0.269500	0.443802
Zn2	Zn	1.700035	0.230500	0.943802
Zn3	Zn	1.199934	-0.382693	0.312528
Zn4	Zn	1.699934	0.117307	0.812528
Zn5	Zn	1.068767	-0.269519	0.312552
Zn6	Zn	1.568767	0.230481	0.812552
Zn7	Zn	1.068727	-0.382648	0.443754
Zn8	Zn	1.568727	0.117352	0.943754
O9	O	1.134366	-0.326090	0.378159
O10	O	1.634366	0.173910	0.878159
O11	O	1.309869	-0.284526	0.426398
O12	O	1.809869	0.215474	0.926398
O13	O	1.182509	-0.367707	0.202684
O14	O	1.682509	0.132293	0.702684
O15	O	1.086239	-0.174800	0.329992
O16	O	1.586239	0.325200	0.829992
O17	O	1.309795	-0.367688	0.329952
O18	O	1.809795	0.132312	0.829952
O19	O	1.182681	-0.174786	0.426421
O20	O	1.682681	0.325214	0.926421
O21	O	1.086141	-0.284559	0.202702
O22	O	1.586141	0.215441	0.702702
O23	O	0.958915	-0.284515	0.329947
O24	O	1.458915	0.215485	0.829947
O25	O	1.086171	-0.367612	0.553608
O26	O	1.586171	0.132388	1.053608
O27	O	0.958886	-0.367631	0.426340
O28	O	1.458886	0.132369	0.926340
O29	O	1.182643	-0.284482	0.553642
O30	O	1.682643	0.215518	1.053642
O31	O	1.182470	-0.477404	0.329906
O32	O	1.682470	0.022596	0.829906
O33	O	1.086073	-0.477371	0.426317
O34	O	1.586073	0.022629	0.926317
C35	C	0.930418	-0.326071	0.378141
C36	C	1.430418	0.173929	0.878141
C37	C	0.843168	-0.326079	0.378153
C38	C	1.343168	0.173921	0.878153
C39	C	0.802218	-0.282853	0.428449
C40	C	1.302218	0.217147	0.928449
C41	C	0.720237	-0.282858	0.428452
C42	C	1.220237	0.217142	0.928452
C43	C	0.679209	-0.326092	0.378163
C44	C	1.179209	0.173908	0.878163
C45	C	0.720165	-0.369319	0.327862
C46	C	1.220165	0.130681	0.827862
C47	C	0.802144	-0.369311	0.327855
C48	C	1.302144	0.130689	0.827855
C49	C	0.549295	-0.369335	0.327881
C50	C	1.049295	0.130665	0.827881
C51	C	0.467311	-0.369344	0.327889
C52	C	0.967311	0.130656	0.827889
C53	C	0.467388	-0.282881	0.428479
C54	C	0.967388	0.217119	0.928479
C55	C	0.549367	-0.282873	0.428472
C56	C	1.049367	0.217127	0.928472
C57	C	0.590318	-0.326102	0.378171
C58	C	1.090318	0.173898	0.878171
C59	C	1.134278	-0.501946	0.378121
C60	C	1.634278	-0.001946	0.878121
C61	C	1.134312	-0.577178	0.378131
C62	C	1.634312	-0.077178	0.878131
C63	C	1.184555	-0.612517	0.327982
C64	C	1.684555	-0.112517	0.827982
C65	C	1.184588	-0.683205	0.328000
C66	C	1.684588	-0.183205	0.828000
C67	C	1.134374	-0.718554	0.378162
C68	C	1.634374	-0.218554	0.878162
C69	C	1.084129	-0.683210	0.428317
C70	C	1.584129	-0.183210	0.928317
C71	C	1.084100	-0.612523	0.428303
C72	C	1.584100	-0.112523	0.928303
C73	C	1.084245	-0.968283	0.428375
C74	C	1.584245	-0.468283	0.928375
C75	C	1.084276	-1.038975	0.428383
C76	C	1.584276	-0.538975	0.928383
C77	C	1.184733	-1.038966	0.328072
C78	C	1.684733	-0.538966	0.828072
C79	C	1.184704	-0.968278	0.328058
C80	C	1.684704	-0.468278	0.828058
C81	C	1.134462	-0.932941	0.378215
C82	C	1.634462	-0.432941	0.878215
C83	C	1.134427	-0.856293	0.378196
C84	C	1.634427	-0.356293	0.878196
C85	C	1.134404	-0.795201	0.378177
C86	C	1.634404	-0.295201	0.878177
C87	C	1.339110	-0.326110	0.378177
C88	C	1.839110	0.173890	0.878177
C89	C	1.426360	-0.326118	0.378185
C90	C	1.926360	0.173882	0.878185
C91	C	1.134414	-0.326040	0.582903
C92	C	1.634414	0.173960	1.082903
C93	C	1.134434	-0.326019	0.670153
C94	C	1.634434	0.173981	1.170153
C95	C	1.134476	-0.149547	0.378214
C96	C	1.634476	0.350453	0.878214
C97	C	1.134523	-0.074315	0.378238
C98	C	1.634523	0.425685	0.878238
C99	C	1.134364	-0.326091	0.174211
C100	C	1.634364	0.173909	0.674211
C101	C	1.134496	-0.325921	0.086962
C102	C	1.634496	0.174079	0.586962
C103	C	1.184668	-0.282730	0.711163
C104	C	1.684668	0.217270	1.211163
C105	C	1.184678	-0.282707	0.793143
C106	C	1.684678	0.217293	1.293143
C107	C	1.134456	-0.325978	0.834113
C108	C	1.634456	0.174022	1.334113
C109	C	1.084216	-0.369269	0.793098
C110	C	1.584216	0.130731	1.293098
C111	C	1.084203	-0.369287	0.711119
C112	C	1.584203	0.130713	1.211119
C113	C	1.084247	-0.369228	0.963968
C114	C	1.584247	0.130772	1.463968
C115	C	1.084261	-0.369211	1.045952
C116	C	1.584261	0.130789	1.545952
C117	C	1.184722	-0.282648	1.045992
C118	C	1.684722	0.217352	1.545992
C119	C	1.184709	-0.282666	0.964013
C120	C	1.684709	0.217334	1.464013
C121	C	1.134470	-0.325959	0.923004
C122	C	1.634470	0.174041	1.423004
H123	H	0.433908	-0.404549	0.286940
H124	H	0.933908	0.095451	0.786940
H125	H	1.225500	-0.711975	0.287163
H126	H	1.725500	-0.211975	0.787163
C127	C	0.593617	-0.416346	0.273244
C128	C	1.093617	0.083654	0.773244
C129	C	0.540142	-0.454227	0.229222
C130	C	1.040142	0.045773	0.729222
C131	C	0.580942	-0.497550	0.178895
C132	C	1.080942	0.002450	0.678895
H133	H	0.625598	-0.390494	0.239022
H134	H	1.125598	0.109506	0.739022
H135	H	0.625579	-0.445902	0.303194
H136	H	1.125579	0.054098	0.803194
H137	H	0.508193	-0.424675	0.199273
H138	H	1.008193	0.075325	0.699273
H139	H	0.508159	-0.480093	0.263423
H140	H	1.008159	0.019907	0.763423
H141	H	0.612904	-0.527105	0.208846
H142	H	1.112904	-0.027105	0.708846
H143	H	0.612921	-0.471692	0.144679
H144	H	1.112921	0.028308	0.644679
H145	H	0.544665	-0.523261	0.149026
H146	H	1.044665	-0.023261	0.649026
H147	H	0.582770	-0.247672	0.469426
H148	H	1.082770	0.252328	0.969426
C149	C	1.029675	-0.416071	1.090530
C150	C	1.529675	0.083929	1.590530
C151	C	0.979417	-0.377719	1.137610
C152	C	1.479417	0.122281	1.637610
C153	C	0.929123	-0.420862	1.178691
C154	C	1.429123	0.079138	1.678691
H155	H	0.999674	-0.441865	1.054452
H156	H	1.499674	0.058135	1.554452
H157	H	1.059656	-0.445554	1.122553
H158	H	1.559656	0.054446	1.622553
H159	H	0.949438	-0.348248	1.105589
H160	H	1.449438	0.151752	1.605589
H161	H	1.009396	-0.351927	1.173702
H162	H	1.509396	0.148073	1.673702
H163	H	0.959105	-0.450345	1.210714
H164	H	1.459105	0.049655	1.710714
H165	H	0.899128	-0.446653	1.142607
H166	H	1.399128	0.053347	1.642607
H167	H	0.895022	-0.394846	1.210644
H168	H	1.395022	0.105154	1.710644
H169	H	0.835617	-0.247649	0.469402
H170	H	1.335617	0.252351	0.969402
C171	C	0.675732	-0.235848	0.482934
C172	C	1.175732	0.264152	0.982934
C173	C	0.628681	-0.192405	0.438588
C174	C	1.128681	0.307595	0.938588
C175	C	0.587678	-0.149084	0.488751
C176	C	1.087678	0.350916	0.988751
H177	H	0.643691	-0.261706	0.517095
H178	H	1.143691	0.238294	1.017095
H179	H	0.711880	-0.210061	0.512875
H180	H	1.211880	0.289939	1.012875
H181	H	0.592536	-0.218190	0.408660
H182	H	1.092536	0.281810	0.908660
H183	H	0.660701	-0.166533	0.404429
H184	H	1.160701	0.333467	0.904429
H185	H	0.623827	-0.123297	0.518692
H186	H	1.123827	0.376703	1.018692
H187	H	0.555643	-0.174948	0.522909
H188	H	1.055643	0.325052	1.022909
H189	H	0.555755	-0.119600	0.458669
H190	H	1.055755	0.380400	0.958669
H191	H	0.434042	-0.247682	0.469434
H192	H	0.934042	0.252318	0.969434
H193	H	0.686754	-0.404518	0.286912
H194	H	1.186754	0.095482	0.786912
C195	C	1.029820	-0.929891	0.482922
C196	C	1.529820	-0.429891	0.982922
C197	C	1.074213	-0.889263	0.533289
C198	C	1.574213	-0.389263	1.033289
C199	C	1.024099	-0.853892	0.583556
C200	C	1.524099	-0.353892	1.083556
H201	H	0.995606	-0.902302	0.452951
H202	H	1.495606	-0.402302	0.952951
H203	H	0.999933	-0.961051	0.512838
H204	H	1.499933	-0.461051	1.012838
H205	H	1.104086	-0.858106	0.503376
H206	H	1.604086	-0.358106	1.003376
H207	H	1.108424	-0.916835	0.563276
H208	H	1.608424	-0.416835	1.063276
H209	H	0.994212	-0.885052	0.613472
H210	H	1.494212	-0.385052	1.113472
H211	H	0.989888	-0.826307	0.553580
H212	H	1.489888	-0.326307	1.053580
H213	H	1.054212	-0.826327	0.617741
H214	H	1.554212	-0.326327	1.117741
H215	H	0.835485	-0.404509	0.286898
H216	H	1.335485	0.095491	0.786898
H217	H	1.043247	-0.711996	0.469164
H218	H	1.543247	-0.211996	0.969164
C219	C	1.239158	-0.574264	0.273486
C220	C	1.739158	-0.074264	0.773486
C221	C	1.283180	-0.620346	0.229587
C222	C	1.783180	-0.120346	0.729587
C223	C	1.333499	-0.585134	0.179385
C224	C	1.833499	-0.085134	0.679385
H225	H	1.209227	-0.546728	0.239182
H226	H	1.709227	-0.046728	0.739182
H227	H	1.273375	-0.546661	0.303521
H228	H	1.773375	-0.046661	0.803521
H229	H	1.248968	-0.647937	0.199555
H230	H	1.748968	-0.147937	0.699555
H231	H	1.313128	-0.647882	0.263871
H232	H	1.813128	-0.147882	0.763871
H233	H	1.367715	-0.557531	0.209419
H234	H	1.867715	-0.057531	0.709419
H235	H	1.303561	-0.557600	0.145085
H236	H	1.803561	-0.057600	0.645085
H237	H	1.363379	-0.616395	0.149598
H238	H	1.863379	-0.116395	0.649598
H239	H	1.043322	-0.404498	0.826462
H240	H	1.543322	0.095502	1.326462
H241	H	1.225590	-0.939500	0.287208
H242	H	1.725590	-0.439500	0.787208
H243	H	1.225645	-1.067746	0.287235
H244	H	1.725645	-0.567746	0.787235
C245	C	1.029729	-1.077233	0.482940
C246	C	1.529729	-0.577233	0.982940
C247	C	0.985739	-1.031158	0.526880
C248	C	1.485739	-0.531158	1.026880
C249	C	0.935494	-1.066376	0.577149
C250	C	1.435494	-0.566376	1.077149
H251	H	0.995484	-1.104852	0.452977
H252	H	1.495484	-0.604852	0.952977
H253	H	1.059737	-1.104753	0.517211
H254	H	1.559737	-0.604753	1.017211
H255	H	0.955733	-1.003649	0.492613
H256	H	1.455733	-0.503649	0.992613
H257	H	1.019964	-1.003537	0.556859
H258	H	1.519964	-0.503537	1.056859
H259	H	0.965502	-1.093896	0.611420
H260	H	1.465502	-0.593896	1.111420
H261	H	0.901254	-1.093993	0.547179
H262	H	1.401254	-0.593993	1.047179
H263	H	0.905646	-1.035119	0.606973
H264	H	1.405646	-0.535119	1.106973
H265	H	1.225609	-0.247436	0.930658
H266	H	1.725609	0.252564	1.430658
C267	C	1.239085	-0.235616	0.837702
C268	C	1.739085	0.264384	1.337702
C269	C	1.194669	-0.192201	0.884748
C270	C	1.694669	0.307799	1.384748
C271	C	1.244761	-0.148799	0.925796
C272	C	1.744761	0.351201	1.425796
H273	H	1.273295	-0.261416	0.869749
H274	H	1.773295	0.238584	1.369749
H275	H	1.268977	-0.209812	0.801580
H276	H	1.768977	0.290188	1.301580
H277	H	1.164791	-0.218002	0.920866
H278	H	1.664791	0.281998	1.420866
H279	H	1.160461	-0.166386	0.852721
H280	H	1.660461	0.333614	1.352721
H281	H	1.274652	-0.122995	0.889674
H282	H	1.774652	0.377005	1.389674
H283	H	1.278968	-0.174605	0.957838
H284	H	1.778968	0.325395	1.457838
H285	H	1.214631	-0.119333	0.957716
H286	H	1.714631	0.380667	1.457716
H287	H	1.043188	-0.583751	0.469140
H288	H	1.543188	-0.083751	0.969140
C289	C	1.239226	-0.235675	0.666827
C290	C	1.739226	0.264325	1.166827
C291	C	1.283206	-0.197746	0.720292
C292	C	1.783206	0.302254	1.220292
C293	C	1.333464	-0.154383	0.679481
C294	C	1.833464	0.345617	1.179481
H295	H	1.273478	-0.261500	0.634841
H296	H	1.773478	0.238500	1.134841
H297	H	1.209229	-0.206151	0.634869
H298	H	1.709229	0.293849	1.134869
H299	H	1.313201	-0.227265	0.752237
H300	H	1.813201	0.272735	1.252237
H301	H	1.248974	-0.171907	0.752280
H302	H	1.748974	0.328093	1.252280
H303	H	1.303467	-0.124859	0.647524
H304	H	1.803467	0.375141	1.147524
H305	H	1.367711	-0.180213	0.647497
H306	H	1.867711	0.319787	1.147497
H307	H	1.363305	-0.128639	0.715751
H308	H	1.863305	0.371361	1.215751
C309	C	1.239172	-0.235659	1.090654
C310	C	1.739172	0.264341	1.590654
C311	C	1.228415	-0.244883	1.171217
C312	C	1.728415	0.255117	1.671217
C313	C	1.278549	-0.201604	1.212387
C314	C	1.778549	0.298396	1.712387
H315	H	1.291940	-0.245526	1.077326
H316	H	1.791940	0.254474	1.577326
H317	H	1.227696	-0.190172	1.077270
H318	H	1.727696	0.309828	1.577270
H319	H	1.239896	-0.290360	1.184596
H320	H	1.739896	0.209640	1.684596
H321	H	1.175657	-0.235012	1.184569
H322	H	1.675657	0.264988	1.684569
H323	H	1.267074	-0.156116	1.199003
H324	H	1.767074	0.343884	1.699003
H325	H	1.331314	-0.211474	1.199052
H326	H	1.831314	0.288526	1.699052
H327	H	1.271252	-0.207852	1.267052
H328	H	1.771252	0.292148	1.767052
H329	H	1.043325	-0.404471	0.930580
H330	H	1.543325	0.095529	1.430580
H331	H	1.043289	-0.404531	0.677730
H332	H	1.543289	0.095469	1.177730
