data_functionalizedCrystal
_audit_creation_method	'MofGen! by Chris Wilmer'
_symmetry_space_group_name_H-M	'P1'
_symmetry_Int_Tables_number	1
_symmetry_cell_setting	triclinic
loop_
_symmetry_equiv_pos_as_xyz
  x,y,z
_cell_length_a	25.639239
_cell_length_b	19.805407
_cell_length_c	19.805399
_cell_angle_alpha	90.019573
_cell_angle_beta	89.971274
_cell_angle_gamma	89.961314
loop_
_atom_site_label
_atom_site_type_symbol
_atom_site_fract_x
_atom_site_fract_y
_atom_site_fract_z
Zn1	Zn	-0.208163	-1.034678	-0.382714
Zn2	Zn	0.041837	-0.784678	-0.132714
Zn3	Zn	0.291837	-0.534678	0.117286
Zn4	Zn	0.541837	-0.284678	0.367286
Zn5	Zn	-0.295597	-1.034569	-0.269524
Zn6	Zn	-0.045597	-0.784569	-0.019524
Zn7	Zn	0.204403	-0.534569	0.230476
Zn8	Zn	0.454403	-0.284569	0.480476
Zn9	Zn	-0.208177	-0.921493	-0.269539
Zn10	Zn	0.041823	-0.671493	-0.019539
Zn11	Zn	0.291823	-0.421493	0.230461
Zn12	Zn	0.541823	-0.171493	0.480461
Zn13	Zn	-0.295569	-0.921432	-0.382670
Zn14	Zn	-0.045569	-0.671432	-0.132670
Zn15	Zn	0.204431	-0.421432	0.117330
Zn16	Zn	0.454431	-0.171432	0.367330
O17	O	-0.251877	-0.978043	-0.326112
O18	O	-0.001877	-0.728043	-0.076112
O19	O	0.248123	-0.478043	0.173888
O20	O	0.498123	-0.228043	0.423888
O21	O	-0.219767	-1.129380	-0.367711
O22	O	0.030233	-0.879380	-0.117711
O23	O	0.280233	-0.629380	0.132289
O24	O	0.530233	-0.379380	0.382289
O25	O	-0.284018	-1.019548	-0.174809
O26	O	-0.034018	-0.769548	0.075191
O27	O	0.215982	-0.519548	0.325191
O28	O	0.465982	-0.269548	0.575191
O29	O	-0.135010	-0.936578	-0.284576
O30	O	0.114990	-0.686578	-0.034576
O31	O	0.364990	-0.436578	0.215424
O32	O	0.614990	-0.186578	0.465424
O33	O	-0.284004	-1.129300	-0.284551
O34	O	-0.034004	-0.879300	-0.034551
O35	O	0.215996	-0.629300	0.215449
O36	O	0.465996	-0.379300	0.465449
O37	O	-0.135000	-1.019735	-0.367726
O38	O	0.115000	-0.769735	-0.117726
O39	O	0.365000	-0.519735	0.132274
O40	O	0.615000	-0.269735	0.382274
O41	O	-0.219791	-0.936472	-0.174820
O42	O	0.030209	-0.686472	0.075180
O43	O	0.280209	-0.436472	0.325180
O44	O	0.530209	-0.186472	0.575180
O45	O	-0.219764	-0.826768	-0.284534
O46	O	0.030236	-0.576768	-0.034534
O47	O	0.280236	-0.326768	0.215466
O48	O	0.530236	-0.076768	0.465466
O49	O	-0.283957	-0.936475	-0.477393
O50	O	-0.033957	-0.686475	-0.227393
O51	O	0.216043	-0.436475	0.022607
O52	O	0.466043	-0.186475	0.272607
O53	O	-0.283971	-0.826723	-0.367651
O54	O	-0.033971	-0.576723	-0.117651
O55	O	0.216029	-0.326723	0.132349
O56	O	0.466029	-0.076723	0.382349
O57	O	-0.219740	-1.019676	-0.477425
O58	O	0.030260	-0.769676	-0.227425
O59	O	0.280260	-0.519676	0.022575
O60	O	0.530260	-0.269676	0.272575
O61	O	-0.368758	-1.019489	-0.284508
O62	O	-0.118758	-0.769489	-0.034508
O63	O	0.131242	-0.519489	0.215492
O64	O	0.381242	-0.269489	0.465492
O65	O	-0.368738	-0.936368	-0.367637
O66	O	-0.118738	-0.686368	-0.117637
O67	O	0.131262	-0.436368	0.132363
O68	O	0.381262	-0.186368	0.382363
C69	C	-0.387719	-0.977929	-0.326081
C70	C	-0.137719	-0.727929	-0.076081
C71	C	0.112281	-0.477929	0.173919
C72	C	0.362281	-0.227929	0.423919
C73	C	-0.445833	-0.977942	-0.326090
C74	C	-0.195833	-0.727942	-0.076090
C75	C	0.054167	-0.477942	0.173910
C76	C	0.304167	-0.227942	0.423910
C77	C	-0.251867	-0.802187	-0.326090
C78	C	-0.001867	-0.552187	-0.076090
C79	C	0.248133	-0.302187	0.173910
C80	C	0.498133	-0.052187	0.423910
C81	C	-0.251875	-0.726955	-0.326097
C82	C	-0.001875	-0.476955	-0.076097
C83	C	0.248125	-0.226955	0.173903
C84	C	0.498125	0.023045	0.423903
C85	C	-0.251844	-0.978081	-0.502655
C86	C	-0.001844	-0.728081	-0.252655
C87	C	0.248156	-0.478081	-0.002655
C88	C	0.498156	-0.228081	0.247345
C89	C	-0.251830	-0.978097	-0.577887
C90	C	-0.001830	-0.728097	-0.327887
C91	C	0.248170	-0.478097	-0.077887
C92	C	0.498170	-0.228097	0.172113
C93	C	-0.806194	-1.021437	-0.282901
C94	C	-0.556194	-0.771437	-0.032901
C95	C	-0.306194	-0.521437	0.217099
C96	C	-0.056194	-0.271437	0.467099
C97	C	-0.860799	-1.021463	-0.282910
C98	C	-0.610799	-0.771463	-0.032910
C99	C	-0.360799	-0.521463	0.217090
C100	C	-0.110799	-0.271463	0.467090
O101	O	-0.889034	-1.058326	-0.246154
O102	O	-0.639034	-0.808326	0.003846
O103	O	-0.389034	-0.558326	0.253846
O104	O	-0.139034	-0.308326	0.503846
N105	N	-0.888116	-0.978162	-0.326157
N106	N	-0.638116	-0.728162	-0.076157
N107	N	-0.388116	-0.478162	0.173843
N108	N	-0.138116	-0.228162	0.423843
C109	C	-0.860825	-0.934836	-0.369402
C110	C	-0.610825	-0.684836	-0.119402
C111	C	-0.360825	-0.434836	0.130598
C112	C	-0.110825	-0.184836	0.380598
O113	O	-0.889075	-0.898008	-0.406189
O114	O	-0.639075	-0.648008	-0.156189
O115	O	-0.389075	-0.398008	0.093811
O116	O	-0.139075	-0.148008	0.343811
C117	C	-0.806222	-0.934814	-0.369396
C118	C	-0.556222	-0.684814	-0.119396
C119	C	-0.306222	-0.434814	0.130604
C120	C	-0.056222	-0.184814	0.380604
C121	C	-0.778908	-0.978113	-0.326141
C122	C	-0.528908	-0.728113	-0.076141
C123	C	-0.278908	-0.478113	0.173859
C124	C	-0.028908	-0.228113	0.423859
C125	C	-0.778880	-1.064733	-0.239650
C126	C	-0.528880	-0.814733	0.010350
C127	C	-0.278880	-0.564733	0.260350
C128	C	-0.028880	-0.314733	0.510350
C129	C	-0.724279	-1.064706	-0.239640
C130	C	-0.474279	-0.814706	0.010360
C131	C	-0.224279	-0.564706	0.260360
C132	C	0.025721	-0.314706	0.510360
C133	C	-0.696993	-1.021382	-0.282881
C134	C	-0.446993	-0.771382	-0.032881
C135	C	-0.196993	-0.521382	0.217119
C136	C	0.053007	-0.271382	0.467119
C137	C	-0.724307	-0.978086	-0.326132
C138	C	-0.474307	-0.728086	-0.076132
C139	C	-0.224307	-0.478086	0.173868
C140	C	0.025693	-0.228086	0.423868
C141	C	-0.778933	-0.891492	-0.412645
C142	C	-0.528933	-0.641492	-0.162645
C143	C	-0.278933	-0.391492	0.087355
C144	C	-0.028933	-0.141492	0.337355
C145	C	-0.724326	-0.891474	-0.412635
C146	C	-0.474326	-0.641474	-0.162635
C147	C	-0.224326	-0.391474	0.087365
C148	C	0.025674	-0.141474	0.337365
C149	C	-0.697012	-0.934773	-0.369381
C150	C	-0.447012	-0.684773	-0.119381
C151	C	-0.197012	-0.434773	0.130619
C152	C	0.052988	-0.184773	0.380619
C153	C	-0.642421	-0.934735	-0.369363
C154	C	-0.392421	-0.684735	-0.119363
C155	C	-0.142421	-0.434735	0.130637
C156	C	0.107579	-0.184735	0.380637
N157	N	-0.615104	-0.978036	-0.326116
N158	N	-0.365104	-0.728036	-0.076116
N159	N	-0.115104	-0.478036	0.173884
N160	N	0.134896	-0.228036	0.423884
C161	C	-0.642390	-1.021360	-0.282875
C162	C	-0.392390	-0.771360	-0.032875
C163	C	-0.142390	-0.521360	0.217125
C164	C	0.107610	-0.271360	0.467125
C165	C	-0.975496	-0.934887	-0.369413
C166	C	-0.725496	-0.684887	-0.119413
C167	C	-0.475496	-0.434887	0.130587
C168	C	-0.225496	-0.184887	0.380587
C169	C	-1.030098	-0.934906	-0.369416
C170	C	-0.780098	-0.684906	-0.119416
C171	C	-0.530098	-0.434906	0.130584
C172	C	-0.280098	-0.184906	0.380584
C173	C	-1.030068	-1.021533	-0.282924
C174	C	-0.780068	-0.771533	-0.032924
C175	C	-0.530068	-0.521533	0.217076
C176	C	-0.280068	-0.271533	0.467076
C177	C	-0.975464	-1.021511	-0.282918
C178	C	-0.725464	-0.771511	-0.032918
C179	C	-0.475464	-0.521511	0.217082
C180	C	-0.225464	-0.271511	0.467082
C181	C	-0.948179	-0.978188	-0.326166
C182	C	-0.698179	-0.728188	-0.076166
C183	C	-0.448179	-0.478188	0.173834
C184	C	-0.198179	-0.228188	0.423834
C185	C	-0.527725	-1.021299	-0.282857
C186	C	-0.277725	-0.771299	-0.032857
C187	C	-0.027725	-0.521299	0.217143
C188	C	0.222275	-0.271299	0.467143
C189	C	-0.473119	-1.021266	-0.282849
C190	C	-0.223119	-0.771266	-0.032849
C191	C	0.026881	-0.521266	0.217151
C192	C	0.276881	-0.271266	0.467151
C193	C	-0.473155	-0.934641	-0.369343
C194	C	-0.223155	-0.684641	-0.119343
C195	C	0.026845	-0.434641	0.130657
C196	C	0.276845	-0.184641	0.380657
C197	C	-0.527756	-0.934671	-0.369349
C198	C	-0.277756	-0.684671	-0.119349
C199	C	-0.027756	-0.434671	0.130651
C200	C	0.222244	-0.184671	0.380651
C201	C	-0.555039	-0.978006	-0.326104
C202	C	-0.305039	-0.728006	-0.076104
C203	C	-0.055039	-0.478006	0.173896
C204	C	0.194961	-0.228006	0.423896
O205	O	-0.614151	-0.897893	-0.406101
O206	O	-0.364151	-0.647893	-0.156101
O207	O	-0.114151	-0.397893	0.093899
O208	O	0.135849	-0.147893	0.343899
O209	O	-0.614134	-1.058188	-0.246101
O210	O	-0.364134	-0.808188	0.003899
O211	O	-0.114134	-0.558188	0.253899
O212	O	0.135866	-0.308188	0.503899
C213	C	-0.115504	-0.978175	-0.326158
C214	C	0.134496	-0.728175	-0.076158
C215	C	0.384496	-0.478175	0.173842
C216	C	0.634496	-0.228175	0.423842
C217	C	-0.057389	-0.978232	-0.326177
C218	C	0.192611	-0.728232	-0.076177
C219	C	0.442611	-0.478232	0.173823
C220	C	0.692611	-0.228232	0.423823
C221	C	-0.251887	-1.154585	-0.326134
C222	C	-0.001887	-0.904585	-0.076134
C223	C	0.248113	-0.654585	0.173866
C224	C	0.498113	-0.404585	0.423866
C225	C	-0.251891	-1.229817	-0.326144
C226	C	-0.001891	-0.979817	-0.076144
C227	C	0.248109	-0.729817	0.173856
C228	C	0.498109	-0.479817	0.423856
C229	C	-0.285357	-0.691605	-0.369306
C230	C	-0.035357	-0.441605	-0.119306
C231	C	0.214643	-0.191605	0.130694
C232	C	0.464643	0.058395	0.380694
C233	C	-0.285358	-0.620917	-0.369315
C234	C	-0.035358	-0.370917	-0.119315
C235	C	0.214642	-0.120917	0.130685
C236	C	0.464642	0.129083	0.380685
C237	C	-0.251879	-0.585579	-0.326112
C238	C	-0.001879	-0.335579	-0.076112
C239	C	0.248121	-0.085579	0.173888
C240	C	0.498121	0.164421	0.423888
C241	C	-0.218393	-0.620934	-0.282901
C242	C	0.031607	-0.370934	-0.032901
C243	C	0.281607	-0.120934	0.217099
C244	C	0.531607	0.129066	0.467099
C245	C	-0.218390	-0.691621	-0.282895
C246	C	0.031610	-0.441621	-0.032895
C247	C	0.281610	-0.191621	0.217105
C248	C	0.531610	0.058379	0.467105
C249	C	-0.218404	-0.335860	-0.282923
C250	C	0.031596	-0.085860	-0.032923
C251	C	0.281596	0.164140	0.217077
C252	C	0.531596	0.414140	0.467077
C253	C	-0.218411	-0.265168	-0.282931
C254	C	0.031589	-0.015168	-0.032931
C255	C	0.281589	0.234832	0.217069
C256	C	0.531589	0.484832	0.467069
C257	C	-0.285373	-0.265156	-0.369343
C258	C	-0.035373	-0.015156	-0.119343
C259	C	0.214627	0.234844	0.130657
C260	C	0.464627	0.484844	0.380657
C261	C	-0.285370	-0.335843	-0.369338
C262	C	-0.035370	-0.085843	-0.119338
C263	C	0.214630	0.164157	0.130662
C264	C	0.464630	0.414157	0.380662
C265	C	-0.251882	-0.371192	-0.326129
C266	C	-0.001882	-0.121192	-0.076129
C267	C	0.248118	0.128808	0.173871
C268	C	0.498118	0.378808	0.423871
C269	C	-0.251881	-0.447840	-0.326121
C270	C	-0.001881	-0.197840	-0.076121
C271	C	0.248119	0.052160	0.173879
C272	C	0.498119	0.302160	0.423879
C273	C	-0.251883	-0.508932	-0.326117
C274	C	-0.001883	-0.258932	-0.076117
C275	C	0.248117	-0.008932	0.173883
C276	C	0.498117	0.241068	0.423883
C277	C	-0.218390	-1.021421	-0.613249
C278	C	0.031610	-0.771421	-0.363249
C279	C	0.281610	-0.521421	-0.113249
C280	C	0.531610	-0.271421	0.136751
C281	C	-0.218375	-1.021428	-0.683937
C282	C	0.031625	-0.771428	-0.433937
C283	C	0.281625	-0.521428	-0.183937
C284	C	0.531625	-0.271428	0.066063
C285	C	-0.251802	-0.978114	-0.719262
C286	C	-0.001802	-0.728114	-0.469262
C287	C	0.248198	-0.478114	-0.219262
C288	C	0.498198	-0.228114	0.030738
C289	C	-0.285243	-0.934785	-0.683895
C290	C	-0.035243	-0.684785	-0.433895
C291	C	0.214757	-0.434785	-0.183895
C292	C	0.464757	-0.184785	0.066105
C293	C	-0.285255	-0.934775	-0.613208
C294	C	-0.035255	-0.684775	-0.363208
C295	C	0.214745	-0.434775	-0.113208
C296	C	0.464745	-0.184775	0.136792
C297	C	-0.285194	-0.934823	-0.968969
C298	C	-0.035194	-0.684823	-0.718969
C299	C	0.214806	-0.434823	-0.468969
C300	C	0.464806	-0.184823	-0.218969
C301	C	-0.285181	-0.934838	-1.039661
C302	C	-0.035181	-0.684838	-0.789661
C303	C	0.214819	-0.434838	-0.539661
C304	C	0.464819	-0.184838	-0.289661
C305	C	-0.218314	-1.021476	-1.039698
C306	C	0.031686	-0.771476	-0.789698
C307	C	0.281686	-0.521476	-0.539698
C308	C	0.531686	-0.271476	-0.289698
C309	C	-0.218326	-1.021466	-0.969011
C310	C	0.031674	-0.771466	-0.719011
C311	C	0.281674	-0.521466	-0.469011
C312	C	0.531674	-0.271466	-0.219011
C313	C	-0.251765	-0.978135	-0.933650
C314	C	-0.001765	-0.728135	-0.683650
C315	C	0.248235	-0.478135	-0.433650
C316	C	0.498235	-0.228135	-0.183650
C317	C	-0.251780	-0.978127	-0.857001
C318	C	-0.001780	-0.728127	-0.607001
C319	C	0.248220	-0.478127	-0.357001
C320	C	0.498220	-0.228127	-0.107001
C321	C	-0.251790	-0.978125	-0.795909
C322	C	-0.001790	-0.728125	-0.545909
C323	C	0.248210	-0.478125	-0.295909
C324	C	0.498210	-0.228125	-0.045909
C325	C	-0.251872	-0.978044	-0.150256
C326	C	-0.001872	-0.728044	0.099744
C327	C	0.248128	-0.478044	0.349744
C328	C	0.498128	-0.228044	0.599744
C329	C	-0.251738	-0.978159	-0.075024
C330	C	-0.001738	-0.728159	0.174976
C331	C	0.248262	-0.478159	0.424976
C332	C	0.498262	-0.228159	0.674976
H333	H	-0.450882	-1.056525	-0.247624
H334	H	-0.200882	-0.806525	0.002376
H335	H	0.049118	-0.556525	0.252376
H336	H	0.299118	-0.306525	0.502376
F337	F	-0.321014	-0.227530	-0.415330
F338	F	-0.071014	0.022470	-0.165330
F339	F	0.178986	0.272470	0.084670
F340	F	0.428986	0.522470	0.334670
F341	F	-0.320760	-0.888734	-1.077255
F342	F	-0.070760	-0.638734	-0.827255
F343	F	0.179240	-0.388734	-0.577255
F344	F	0.429240	-0.138734	-0.327255
F345	F	-0.182752	-0.729242	-0.236907
F346	F	0.067248	-0.479242	0.013093
F347	F	0.317248	-0.229242	0.263093
F348	F	0.567248	0.020758	0.513093
F349	F	-0.182814	-1.067526	-0.575659
F350	F	0.067186	-0.817526	-0.325659
F351	F	0.317186	-0.567526	-0.075659
F352	F	0.567186	-0.317526	0.174341
F353	F	-0.807912	-1.110849	-0.193624
F354	F	-0.557912	-0.860849	0.056376
F355	F	-0.307912	-0.610849	0.306376
F356	F	-0.057912	-0.360849	0.556376
H357	H	-0.191146	-1.056708	-0.712726
H358	H	0.058854	-0.806708	-0.462726
H359	H	0.308854	-0.556708	-0.212726
H360	H	0.558854	-0.306708	0.037274
H361	H	-0.191145	-0.236399	-0.247749
H362	H	0.058855	0.013601	0.002251
H363	H	0.308855	0.263601	0.252251
H364	H	0.558855	0.513601	0.502251
F365	F	-0.556754	-1.067420	-0.236831
F366	F	-0.306754	-0.817420	0.013169
F367	F	-0.056754	-0.567420	0.263169
F368	F	0.193246	-0.317420	0.513169
H369	H	-0.702113	-0.856196	-0.447855
H370	H	-0.452113	-0.606196	-0.197855
H371	H	-0.202113	-0.356196	0.052145
H372	H	0.047887	-0.106196	0.302145
H373	H	-0.450930	-0.899365	-0.404548
H374	H	-0.200930	-0.649365	-0.154548
H375	H	0.049070	-0.399365	0.095452
H376	H	0.299070	-0.149365	0.345452
H377	H	-0.191140	-0.364633	-0.247735
H378	H	0.058860	-0.114633	0.002265
H379	H	0.308860	0.135367	0.252265
H380	H	0.558860	0.385367	0.502265
F381	F	-1.059117	-1.067642	-0.236902
F382	F	-0.809117	-0.817642	0.013098
F383	F	-0.559117	-0.567642	0.263098
F384	F	-0.309117	-0.317642	0.513098
F385	F	-0.946399	-1.067596	-0.236881
F386	F	-0.696399	-0.817596	0.013119
F387	F	-0.446399	-0.567596	0.263119
F388	F	-0.196399	-0.317596	0.513119
H389	H	-0.191131	-0.592156	-0.247727
H390	H	0.058869	-0.342156	0.002273
H391	H	0.308869	-0.092156	0.252273
H392	H	0.558869	0.157844	0.502273
F393	F	-0.320845	-0.888662	-0.575574
F394	F	-0.070845	-0.638662	-0.325574
F395	F	0.179155	-0.388662	-0.075574
F396	F	0.429155	-0.138662	0.174426
F397	F	-0.182750	-1.067569	-0.931419
F398	F	0.067250	-0.817569	-0.681419
F399	F	0.317250	-0.567569	-0.431419
F400	F	0.567250	-0.317569	-0.181419
H401	H	-0.702043	-1.099966	-0.204421
H402	H	-0.452043	-0.849966	0.045579
H403	H	-0.202043	-0.599966	0.295579
H404	H	0.047957	-0.349966	0.545579
F405	F	-0.807991	-0.845412	-0.458689
F406	F	-0.557991	-0.595412	-0.208689
F407	F	-0.307991	-0.345412	0.041311
F408	F	-0.057991	-0.095412	0.291311
F409	F	-0.182724	-1.067591	-1.077337
F410	F	0.067276	-0.817591	-0.827337
F411	F	0.317276	-0.567591	-0.577337
F412	F	0.567276	-0.317591	-0.327337
H413	H	-0.312430	-0.899550	-0.940187
H414	H	-0.062430	-0.649550	-0.690187
H415	H	0.187570	-0.399550	-0.440187
H416	H	0.437570	-0.149550	-0.190187
H417	H	-0.312622	-0.720372	-0.404485
H418	H	-0.062622	-0.470372	-0.154485
H419	H	0.187378	-0.220372	0.095515
H420	H	0.437378	0.029628	0.345515
H421	H	-0.312458	-0.899515	-0.712663
H422	H	-0.062458	-0.649515	-0.462663
H423	H	0.187542	-0.399515	-0.212663
H424	H	0.437542	-0.149515	0.037337
F425	F	-0.946462	-0.888769	-0.415442
F426	F	-0.696462	-0.638769	-0.165442
F427	F	-0.446462	-0.388769	0.084558
F428	F	-0.196462	-0.138769	0.334558
F429	F	-1.059162	-0.888813	-0.415446
F430	F	-0.809162	-0.638813	-0.165446
F431	F	-0.559162	-0.388813	0.084554
F432	F	-0.309162	-0.138813	0.334554
F433	F	-0.320995	-0.583298	-0.415305
F434	F	-0.070995	-0.333298	-0.165305
F435	F	0.179005	-0.083298	0.084695
F436	F	0.429005	0.166702	0.334695
F437	F	-0.556826	-0.888575	-0.415373
F438	F	-0.306826	-0.638575	-0.165373
F439	F	-0.056826	-0.388575	0.084627
F440	F	0.193174	-0.138575	0.334627
F441	F	-0.321005	-0.373448	-0.415318
F442	F	-0.071005	-0.123448	-0.165318
F443	F	0.178995	0.126552	0.084682
F444	F	0.428995	0.376552	0.334682
