data_functionalizedCrystal
_audit_creation_method	'MofGen! by Chris Wilmer'
_symmetry_space_group_name_H-M	'P1'
_symmetry_Int_Tables_number	1
_symmetry_cell_setting	triclinic
loop_
_symmetry_equiv_pos_as_xyz
  x,y,z
_cell_length_a	27.440280
_cell_length_b	14.628931
_cell_length_c	14.628931
_cell_angle_alpha	60.000028
_cell_angle_beta	90.003821
_cell_angle_gamma	59.998262
loop_
_atom_site_label
_atom_site_type_symbol
_atom_site_fract_x
_atom_site_fract_y
_atom_site_fract_z
Zr1	Zr	0.469500	1.000477	-0.119852
O2	O	0.391681	1.191200	-0.265832
O3	O	0.493356	0.809766	-0.075102
O4	O	0.493356	1.000471	-0.265807
O5	O	0.391681	1.000495	0.075306
O6	O	0.573559	1.000454	-0.265788
O7	O	0.391681	1.000494	-0.075126
O8	O	0.573559	0.659316	0.075349
O9	O	0.391681	1.341632	-0.265832
O10	O	0.563385	0.888191	-0.056002
O11	O	0.503530	0.888204	0.056249
O12	O	0.503530	1.112735	-0.168282
O13	O	0.443676	1.112749	-0.056031
Zr14	Zr	0.597414	1.000450	0.120099
Zr15	Zr	0.597415	1.000449	-0.119822
Zr16	Zr	0.469500	1.000478	0.120069
Zr17	Zr	0.469500	1.240399	-0.119853
Zr18	Zr	0.597415	0.760528	0.120099
O19	O	0.573559	1.191161	0.075348
O20	O	0.573559	1.191160	-0.265789
O21	O	0.391681	1.191201	0.075305
O22	O	0.675234	0.809727	0.266078
O23	O	0.675234	0.809726	-0.075059
O24	O	0.493356	0.809767	0.266035
O25	O	0.675234	1.000432	-0.075059
O26	O	0.573559	1.000455	0.266054
O27	O	0.493356	1.000473	0.266035
O28	O	0.675233	1.000432	0.075372
O29	O	0.493356	1.341610	-0.265808
O30	O	0.573559	0.659317	0.266055
O31	O	0.675234	0.659295	0.266078
O32	O	0.675234	0.659294	0.075373
O33	O	0.391681	1.341632	-0.075127
O34	O	0.493356	1.341610	-0.075103
O35	O	0.563385	0.888191	0.168529
O36	O	0.623239	0.888178	0.056277
O37	O	0.563385	1.112722	-0.056003
O38	O	0.503530	1.112736	0.056249
C39	C	0.533458	0.700357	0.000124
C40	C	0.533458	0.598504	0.000124
C41	C	0.491467	0.631864	-0.078645
C42	C	0.491466	0.526595	-0.078647
C43	C	0.373456	1.000498	0.000086
C44	C	0.319153	1.000510	0.000073
C45	C	0.013699	0.883232	0.058763
C46	C	-0.037319	0.883225	0.058773
O47	O	-0.037136	0.783542	0.108652
N48	N	-0.094080	1.000434	0.000163
C49	C	-0.099821	1.117657	-0.058452
O50	O	-0.152784	1.217351	-0.108302
C51	C	-0.048803	1.117663	-0.058454
C52	C	0.007957	1.000446	0.000150
C53	C	0.070456	0.766025	0.117364
C54	C	0.121471	0.766033	0.117352
C55	C	0.115729	0.883247	0.058739
C56	C	0.058972	1.000454	0.000139
C57	C	-0.054544	1.234885	-0.117062
C58	C	-0.003520	1.234881	-0.117059
C59	C	0.053239	1.117664	-0.058454
C60	C	0.104244	1.117676	-0.058486
N61	N	0.161004	1.000467	0.000124
C62	C	0.166747	0.883253	0.058737
C63	C	-0.206959	1.117636	-0.058440
C64	C	-0.257977	1.117631	-0.058444
C65	C	-0.195472	0.883199	0.058782
C66	C	-0.144454	0.883205	0.058780
C67	C	-0.150199	1.000427	0.000170
C68	C	0.273879	0.883278	0.058707
C69	C	0.324896	0.883296	0.058686
C70	C	0.262386	1.117728	-0.058536
C71	C	0.211374	1.117711	-0.058520
C72	C	0.217125	1.000475	0.000109
O73	O	0.104107	1.217308	-0.108336
O74	O	0.219712	0.783575	0.108591
C75	C	0.693459	1.000428	0.000161
C76	C	0.747761	1.000416	0.000174
C77	C	0.533458	1.000462	-0.299982
C78	C	0.533458	1.000462	-0.401834
C79	C	0.533457	1.300569	0.000123
C80	C	0.533457	1.402422	0.000122
C81	C	0.503766	1.111851	-0.502942
C82	C	0.503765	1.111854	-0.608213
C83	C	0.533457	1.000464	0.300228
C84	C	0.533457	1.000464	0.402081
C85	C	0.693459	0.700322	0.000162
C86	C	0.747762	0.598457	0.000174
C87	C	0.533458	0.700358	0.300229
C88	C	0.533458	0.598505	0.402082
C89	C	0.693459	0.700323	0.300266
C90	C	0.747762	0.598458	0.402132
C91	C	0.373456	1.300603	-0.300020
C92	C	0.319153	1.402468	-0.401886
C93	C	0.373456	1.300604	0.000085
C94	C	0.319153	1.402469	0.000072
C95	C	0.533457	1.300568	-0.299982
C96	C	0.533457	1.402421	-0.401835
C97	C	0.742020	0.550627	-0.058438
C98	C	0.793038	0.454927	-0.058448
C99	C	0.849798	0.407053	0.000161
C100	C	0.855539	0.454892	0.058776
C101	C	0.804521	0.550597	0.058779
C102	C	0.804512	0.550614	0.391375
C103	C	0.855540	0.454915	0.487080
C104	C	0.849817	0.407055	0.593540
C105	C	0.793061	0.454908	0.604295
C106	C	0.742034	0.550612	0.508591
C107	C	0.262403	1.450324	-0.391129
C108	C	0.211375	1.546053	-0.486833
C109	C	0.217098	1.593918	-0.593294
C110	C	0.273854	1.546059	-0.604048
C111	C	0.324881	1.450338	-0.508345
C112	C	0.324895	1.450310	0.058675
C113	C	0.273876	1.546036	0.058659
C114	C	0.217116	1.593914	0.000046
C115	C	0.211375	1.546069	-0.058564
C116	C	0.262393	1.450351	-0.058554
C117	C	0.563149	0.553090	0.503189
C118	C	0.563150	0.447820	0.608461
H119	H	0.569406	0.374027	0.067567
Br120	Br	0.785304	0.389941	0.748786
Br121	Br	0.593383	0.421010	0.112522
H122	H	0.455520	0.738357	-0.146085
H123	H	0.257721	1.213161	-0.106261
H124	H	0.901749	0.415963	0.478303
Br125	Br	0.605513	0.618183	0.517582
Br126	Br	0.134357	1.610982	-0.472211
H127	H	0.695827	0.589554	0.517365
H128	H	0.175544	1.671860	-0.671212
Br129	Br	0.491091	0.467495	0.453606
H130	H	0.478349	1.207214	-0.511568
H131	H	0.165155	1.585066	-0.106286
Br132	Br	0.919075	0.277169	0.723414
H133	H	0.588571	0.408762	0.695197
H134	H	0.371088	1.411375	-0.517116
H135	H	0.478341	1.207218	-0.694950
H136	H	0.257732	1.411357	-0.304452
Br137	Br	0.812295	0.615554	0.246905
H138	H	0.278507	1.585044	-0.690740
Br139	Br	0.401920	1.385358	0.138227
Br140	Br	0.401926	0.724206	0.138221
Br141	Br	0.431540	0.573920	-0.191046
H142	H	0.278570	0.787814	0.106449
H143	H	0.508035	0.559458	0.393456
H144	H	0.809205	0.589528	0.106515
H145	H	0.175579	1.671853	0.000046
Br146	Br	0.198496	0.606945	0.196899
Br147	Br	0.078265	0.606926	0.196926
H148	H	0.558876	0.905095	-0.511186
H149	H	-0.098241	0.787757	0.106511
Br150	Br	0.575834	0.841508	-0.387441
H151	H	0.278562	1.584975	0.106390
H152	H	0.695808	0.589605	-0.106179
Br153	Br	-0.187688	0.724120	0.138328
Br154	Br	0.254590	1.385431	-0.138089
H155	H	-0.304189	1.213081	-0.106181
H156	H	-0.211646	1.213098	-0.106172
Br157	Br	0.785233	0.390019	-0.138000
H158	H	-0.100753	1.330335	-0.164783
H159	H	0.165157	1.213158	-0.106255
Br160	Br	0.919032	0.277166	0.000146
Br161	Br	-0.011323	1.393978	-0.196599
H162	H	0.901760	0.415899	0.106493
