data_functionalizedCrystal
_audit_creation_method	'MofGen! by Chris Wilmer'
_symmetry_space_group_name_H-M	'P1'
_symmetry_Int_Tables_number	1
_symmetry_cell_setting	triclinic
loop_
_symmetry_equiv_pos_as_xyz
  x,y,z
_cell_length_a	10.686220
_cell_length_b	12.759400
_cell_length_c	10.685986
_cell_angle_alpha	94.409160
_cell_angle_beta	80.968697
_cell_angle_gamma	94.396325
loop_
_atom_site_label
_atom_site_type_symbol
_atom_site_fract_x
_atom_site_fract_y
_atom_site_fract_z
Zn1	Zn	1.885524	-0.261255	0.569027
Zn2	Zn	1.901658	-0.449507	0.356791
Zn3	Zn	1.689524	-0.286369	0.373057
Zn4	Zn	1.673255	-0.449432	0.585235
O5	O	1.787490	-0.361641	0.471027
O6	O	2.065278	-0.275749	0.527283
O7	O	1.887078	-0.438408	0.181330
O8	O	1.715581	-0.136011	0.399078
O9	O	2.077132	-0.414056	0.371354
O10	O	1.859581	-0.117561	0.543056
O11	O	1.731225	-0.318551	0.193281
O12	O	1.509752	-0.318479	0.414793
O13	O	1.687852	-0.413929	0.760704
O14	O	1.497799	-0.438280	0.570679
O15	O	1.843805	-0.275676	0.748796
O16	O	1.871303	-0.596523	0.387070
O17	O	1.703496	-0.596468	0.554907
C18	C	1.457722	-0.381097	0.496261
C19	C	1.316643	-0.389444	0.507086
C20	C	1.787417	-0.634614	0.471007
C21	C	1.787498	-0.751384	0.471031
C22	C	1.874958	-0.806229	0.383722
C23	C	1.875033	-0.915946	0.383755
C24	C	1.700177	-0.915964	0.558412
C25	C	1.700109	-0.806248	0.558384
C26	C	1.962348	-0.751365	0.296369
C27	C	2.049814	-0.806210	0.209051
C28	C	2.049889	-0.915927	0.209085
C29	C	1.962498	-0.970799	0.296436
C30	C	2.118546	-0.342109	0.445696
C31	C	2.259622	-0.333786	0.434901
C32	C	1.762214	-0.341993	0.802092
C33	C	1.751443	-0.333620	0.943172
C34	C	1.787596	-0.087598	0.471073
C35	C	1.787641	0.029183	0.471093
C36	C	1.812741	-0.381132	0.141245
C37	C	1.823758	-0.389195	0.000147
H38	H	1.257526	-0.443491	0.577166
H39	H	1.962293	-0.662028	0.296329
H40	H	1.628892	-0.761593	0.629481
C41	C	2.144553	-0.746456	0.114279
C42	C	2.125749	-0.638636	0.132911
C43	C	2.212990	-0.583562	0.045619
H44	H	2.228464	-0.758103	0.126318
H45	H	2.132557	-0.770581	0.030378
H46	H	2.137755	-0.614520	0.216792
H47	H	2.041855	-0.626957	0.120862
H48	H	2.200994	-0.607686	-0.038282
H49	H	2.296896	-0.595218	0.057665
H50	H	2.200236	-0.510402	0.058241
H51	H	1.893918	-0.443174	0.940988
H52	H	1.962575	-1.060137	0.296465
C53	C	2.144910	-0.975291	0.114149
C54	C	2.221401	-0.903758	0.037629
C55	C	2.308935	-0.958405	-0.049858
H56	H	2.196619	-1.011893	0.158375
H57	H	2.100684	-1.024274	0.062462
H58	H	2.265623	-0.854795	0.089309
H59	H	2.169727	-0.867153	-0.006626
H60	H	2.264710	-1.007387	-0.101545
H61	H	2.360635	-0.995005	-0.005621
H62	H	2.360837	-0.909880	-0.101794
H63	H	1.681298	-0.279635	1.002323
H64	H	1.318734	-0.279750	0.364818
H65	H	1.629026	-0.960649	0.629528
