data_functionalizedCrystal
_audit_creation_method	'MofGen! by Chris Wilmer'
_symmetry_space_group_name_H-M	'P1'
_symmetry_Int_Tables_number	1
_symmetry_cell_setting	triclinic
loop_
_symmetry_equiv_pos_as_xyz
  x,y,z
_cell_length_a	16.109301
_cell_length_b	9.482944
_cell_length_c	16.109301
_cell_angle_alpha	79.569783
_cell_angle_beta	96.538519
_cell_angle_gamma	100.473153
loop_
_atom_site_label
_atom_site_type_symbol
_atom_site_fract_x
_atom_site_fract_y
_atom_site_fract_z
O1	O	1.114742	0.120809	-0.118412
O2	O	1.448075	0.454142	0.214921
O3	O	1.781409	0.787476	0.548254
O4	O	0.872682	0.120833	-0.131714
O5	O	1.206016	0.454166	0.201619
O6	O	1.539349	0.787499	0.534953
O7	O	1.000360	0.120805	-0.004031
O8	O	1.333694	0.454139	0.329303
O9	O	1.667027	0.787472	0.662636
O10	O	0.987064	0.120836	-0.246096
O11	O	1.320397	0.454170	0.087238
O12	O	1.653731	0.787503	0.420571
O13	O	0.977112	-0.120987	0.019080
O14	O	1.310445	0.212346	0.352414
O15	O	1.643779	0.545679	0.685747
O16	O	0.849434	-0.120960	-0.108603
O17	O	1.182767	0.212373	0.224730
O18	O	1.516101	0.545707	0.558064
O19	O	1.091494	-0.120984	-0.095301
O20	O	1.424827	0.212350	0.238032
O21	O	1.758160	0.545683	0.571365
Cu22	Cu	0.968341	-0.143050	-0.099842
Cu23	Cu	1.301675	0.190284	0.233491
Cu24	Cu	1.635008	0.523617	0.566825
Cu25	Cu	0.995835	0.142898	-0.127173
Cu26	Cu	1.329168	0.476232	0.206160
Cu27	Cu	1.662502	0.809565	0.539493
O28	O	0.963816	-0.120956	-0.222985
O29	O	1.297149	0.212377	0.110349
O30	O	1.630482	0.545710	0.443682
C31	C	0.830084	-0.000061	-0.119620
C32	C	1.163417	0.333273	0.213713
C33	C	1.496750	0.666606	0.547047
C34	C	0.737789	-0.000052	-0.118006
C35	C	1.071123	0.333281	0.215328
C36	C	1.404456	0.666614	0.548661
C37	C	0.515516	-0.000060	-0.190013
C38	C	0.848849	0.333273	0.143321
C39	C	1.182183	0.666607	0.476654
C40	C	0.428795	-0.000069	-0.188488
C41	C	0.762128	0.333264	0.144846
C42	C	1.095461	0.666597	0.478179
C43	C	0.448668	-0.000083	-0.036998
C44	C	0.782001	0.333251	0.296336
C45	C	1.115334	0.666584	0.629669
C46	C	0.535386	-0.000084	-0.038522
C47	C	0.868720	0.333250	0.294811
C48	C	1.202053	0.666583	0.628144
C49	C	0.568809	-0.000065	-0.115033
C50	C	0.902142	0.333269	0.218300
C51	C	1.235475	0.666602	0.551634
C52	C	0.395369	-0.000073	-0.111983
C53	C	0.728702	0.333260	0.221350
C54	C	1.062035	0.666593	0.554683
C55	C	0.301342	-0.000084	-0.110329
C56	C	0.634675	0.333250	0.223004
C57	C	0.968008	0.666583	0.556337
C58	C	0.662841	-0.000057	-0.116687
C59	C	0.996175	0.333276	0.216646
C60	C	1.329508	0.666609	0.549979
N61	N	0.949010	-0.344170	-0.080618
N62	N	1.282343	-0.010837	0.252715
N63	N	1.615676	0.322497	0.586049
C64	C	0.990127	-0.416369	-0.121503
C65	C	1.323460	-0.083035	0.211831
C66	C	1.656794	0.250298	0.545164
C67	C	0.974050	-0.583786	-0.105500
C68	C	1.307383	-0.250453	0.227833
C69	C	1.640716	0.082880	0.561167
C70	C	1.134093	-0.000087	-0.107396
C71	C	1.467426	0.333246	0.225938
C72	C	1.800760	0.666580	0.559271
C73	C	1.226388	-0.000086	-0.109011
C74	C	1.559722	0.333247	0.224323
C75	C	1.893055	0.666581	0.557656
C76	C	0.988198	-0.000092	0.038500
C77	C	1.321531	0.333242	0.371833
C78	C	1.654864	0.666575	0.705166
C79	C	0.986582	-0.000094	0.130795
C80	C	1.319916	0.333240	0.464129
C81	C	1.653249	0.666573	0.797462
N82	N	1.015173	0.344019	-0.146391
N83	N	1.348507	0.677352	0.186943
N84	N	1.681840	1.010685	0.520276
C85	C	0.975979	-0.000056	-0.265515
C86	C	1.309312	0.333277	0.067818
C87	C	1.642646	0.666610	0.401151
C88	C	0.977595	-0.000045	-0.357812
C89	C	1.310929	0.333289	-0.024478
C90	C	1.644262	0.666622	0.308855
C91	C	1.058591	-0.000078	0.353066
C92	C	1.391925	0.333256	0.686399
C93	C	1.725258	0.666589	1.019733
C94	C	1.057069	-0.000065	0.439785
C95	C	1.390402	0.333268	0.773119
C96	C	1.723735	0.666601	1.106452
C97	C	0.905581	-0.000056	0.419910
C98	C	1.238914	0.333277	0.753244
C99	C	1.572247	0.666610	1.086577
C100	C	0.907105	-0.000058	0.333192
C101	C	1.240439	0.333275	0.666525
C102	C	1.573772	0.666609	0.999858
C103	C	0.983613	-0.000076	0.299773
C104	C	1.316946	0.333257	0.633106
C105	C	1.650279	0.666591	0.966440
C106	C	0.980565	-0.000062	0.473211
C107	C	1.313898	0.333271	0.806544
C108	C	1.647232	0.666604	1.139877
C109	C	0.978913	-0.000049	0.567235
C110	C	1.312246	0.333284	0.900569
C111	C	1.645580	0.666618	1.233902
C112	C	0.985265	-0.000086	0.205742
C113	C	1.318598	0.333247	0.539075
C114	C	1.651932	0.666580	0.872409
H115	H	0.421444	-0.000107	0.025296
H116	H	0.754777	0.333227	0.358629
H117	H	1.088110	0.666560	0.691962
H118	H	0.926944	-0.645913	-0.058645
H119	H	1.260278	-0.312579	0.274688
H120	H	1.593611	0.020754	0.608022
H121	H	0.901907	-0.406302	-0.033766
H122	H	1.235240	-0.072969	0.299567
H123	H	1.568574	0.260365	0.632901
H124	H	1.120889	-0.000089	0.325860
H125	H	1.454222	0.333244	0.659193
H126	H	1.787555	0.666578	0.992526
Cl127	Cl	0.602387	-0.000102	0.055747
Cl128	Cl	0.935720	0.333232	0.389080
Cl129	Cl	1.269054	0.666565	0.722413
H130	H	1.062283	-0.593857	-0.193242
H131	H	1.395616	-0.260523	0.140092
H132	H	1.728950	0.072810	0.473425
H133	H	0.843291	-0.000045	0.447131
H134	H	1.176624	0.333289	0.780464
H135	H	1.509958	0.666622	1.113798
H136	H	1.118124	-0.000064	0.483174
H137	H	1.451458	0.333270	0.816507
H138	H	1.784791	0.666603	1.149840
H139	H	1.037235	-0.354237	-0.168349
H140	H	1.370569	-0.020903	0.164985
H141	H	1.703902	0.312430	0.498318
H142	H	0.846045	-0.000052	0.289797
H143	H	1.179379	0.333281	0.623131
H144	H	1.512712	0.666614	0.956464
H145	H	0.385406	-0.000068	-0.249543
H146	H	0.718740	0.333265	0.083790
H147	H	1.052073	0.666598	0.417123
Cl148	Cl	0.557529	-0.000045	-0.286196
Cl149	Cl	0.890862	0.333288	0.047137
Cl150	Cl	1.224196	0.666621	0.380471
