data_functionalizedCrystal
_audit_creation_method	'MofGen! by Chris Wilmer'
_symmetry_space_group_name_H-M	'P1'
_symmetry_Int_Tables_number	1
_symmetry_cell_setting	triclinic
loop_
_symmetry_equiv_pos_as_xyz
  x,y,z
_cell_length_a	8.559649
_cell_length_b	11.792241
_cell_length_c	7.681481
_cell_angle_alpha	84.218353
_cell_angle_beta	94.913240
_cell_angle_gamma	76.986040
loop_
_atom_site_label
_atom_site_type_symbol
_atom_site_fract_x
_atom_site_fract_y
_atom_site_fract_z
O1	O	2.104794	-0.026424	-0.146400
O2	O	2.438127	0.306910	0.186933
O3	O	2.771461	0.640243	0.520267
O4	O	1.640097	0.032148	-0.146410
O5	O	1.973430	0.365481	0.186923
O6	O	2.306763	0.698814	0.520256
O7	O	1.883724	-0.163342	-0.146392
O8	O	2.217057	0.169992	0.186941
O9	O	2.550390	0.503325	0.520274
O10	O	1.861167	0.169066	-0.146418
O11	O	2.194501	0.502399	0.186916
O12	O	2.527834	0.835733	0.520249
O13	O	1.913710	-0.187452	0.146467
O14	O	2.247043	0.145882	0.479801
O15	O	2.580376	0.479215	0.813134
O16	O	1.670083	0.008038	0.146450
O17	O	2.003416	0.341371	0.479783
O18	O	2.336749	0.674704	0.813116
O19	O	2.134780	-0.050534	0.146460
O20	O	2.468114	0.282800	0.479793
O21	O	2.801447	0.616133	0.813127
Zn22	Zn	1.907192	-0.025076	0.192953
Zn23	Zn	2.240526	0.308257	0.526286
Zn24	Zn	2.573859	0.641591	0.859619
Zn25	Zn	1.867684	0.006690	-0.192903
Zn26	Zn	2.201018	0.340023	0.140430
Zn27	Zn	2.534351	0.673357	0.473764
O28	O	1.891153	0.144956	0.146442
O29	O	2.224487	0.478289	0.479776
O30	O	2.557820	0.811623	0.813109
C31	C	1.595598	0.024531	0.000018
C32	C	1.928931	0.357865	0.333352
C33	C	2.262265	0.691198	0.666685
C34	C	1.418332	0.037744	0.000015
C35	C	1.751665	0.371077	0.333348
C36	C	2.084999	0.704411	0.666682
C37	C	1.897300	-0.217558	0.000037
C38	C	2.230633	0.115775	0.333370
C39	C	2.563966	0.449109	0.666704
C40	C	1.893059	-0.343183	0.000035
C41	C	2.226392	-0.009850	0.333368
C42	C	2.559726	0.323483	0.666702
C43	C	1.885259	-0.573179	0.000005
C44	C	2.218592	-0.239846	0.333339
C45	C	2.551925	0.093487	0.666672
C46	C	1.889593	-0.445192	0.000022
C47	C	2.222926	-0.111859	0.333355
C48	C	2.556260	0.221475	0.666688
C49	C	2.179278	-0.042917	0.000027
C50	C	2.512612	0.290416	0.333361
C51	C	2.845945	0.623750	0.666694
C52	C	2.356543	-0.056128	0.000019
C53	C	2.689876	0.277205	0.333353
C54	C	3.023210	0.610538	0.666686
C55	C	1.877577	0.199172	0.000009
C56	C	2.210910	0.532506	0.333342
C57	C	2.544243	0.865839	0.666676
C58	C	1.881816	0.324799	-0.000001
C59	C	2.215149	0.658132	0.333333
C60	C	2.548483	0.991465	0.666666
N61	N	1.934167	-0.046757	0.456289
N62	N	2.267500	0.286576	0.789622
N63	N	2.600834	0.619910	1.122956
N64	N	1.840722	0.028361	-0.456239
N65	N	2.174056	0.361694	-0.122906
N66	N	2.507389	0.695028	0.210428
H67	H	1.439256	-0.146604	0.000018
H68	H	1.772589	0.186729	0.333351
H69	H	2.105923	0.520063	0.666684
H70	H	1.745334	0.105035	0.468557
H71	H	2.078667	0.438368	0.801890
H72	H	2.412001	0.771702	1.135224
H73	H	1.335608	0.128227	-0.000001
H74	H	1.668942	0.461560	0.333332
H75	H	2.002275	0.794893	0.666665
H76	H	2.029573	-0.123429	0.531502
H77	H	2.362907	0.209905	0.864835
H78	H	2.696240	0.543238	1.198168
