data_functionalizedCrystal
_audit_creation_method	'MofGen! by Chris Wilmer'
_symmetry_space_group_name_H-M	'P1'
_symmetry_Int_Tables_number	1
_symmetry_cell_setting	triclinic
loop_
_symmetry_equiv_pos_as_xyz
  x,y,z
_cell_length_a	25.639242
_cell_length_b	29.839131
_cell_length_c	29.839135
_cell_angle_alpha	90.000668
_cell_angle_beta	90.016827
_cell_angle_gamma	90.036947
loop_
_atom_site_label
_atom_site_type_symbol
_atom_site_fract_x
_atom_site_fract_y
_atom_site_fract_z
Zn1	Zn	0.799187	-0.179046	0.254113
Zn2	Zn	0.799115	-0.254135	0.178983
Zn3	Zn	0.711772	-0.179014	0.178984
Zn4	Zn	0.711705	-0.254143	0.254073
O5	O	0.755445	-0.216585	0.216539
O6	O	0.872343	-0.189016	0.244164
O7	O	0.787527	-0.244154	0.116116
O8	O	0.723426	-0.116151	0.188968
O9	O	0.872290	-0.244184	0.188966
O10	O	0.787650	-0.116174	0.244165
O11	O	0.723356	-0.188963	0.116117
O12	O	0.638598	-0.188970	0.188928
O13	O	0.723312	-0.244198	0.316945
O14	O	0.638548	-0.244168	0.244096
O15	O	0.787585	-0.189024	0.316975
O16	O	0.787461	-0.317003	0.188927
O17	O	0.723241	-0.317009	0.244095
C18	C	0.619602	-0.216567	0.216508
C19	C	0.561488	-0.216570	0.216506
C20	C	0.201108	-0.245374	0.245237
C21	C	0.146504	-0.245376	0.245244
O22	O	0.118253	-0.269844	0.269647
N23	N	0.119206	-0.216597	0.216568
C24	C	0.146515	-0.187810	0.187886
O25	O	0.118281	-0.163330	0.163495
C26	C	0.201118	-0.187805	0.187881
C27	C	0.228413	-0.216590	0.216556
C28	C	0.228404	-0.274156	0.273910
C29	C	0.283004	-0.274153	0.273902
C30	C	0.310309	-0.245369	0.245221
C31	C	0.283014	-0.216587	0.216548
C32	C	0.228426	-0.159016	0.159202
C33	C	0.283033	-0.159013	0.159200
C34	C	0.310328	-0.187798	0.187875
C35	C	0.364919	-0.187801	0.187860
N36	N	0.392218	-0.216580	0.216536
C37	C	0.364913	-0.245364	0.245217
C38	C	0.031844	-0.187821	0.187898
C39	C	-0.022758	-0.187828	0.187900
C40	C	-0.022765	-0.245394	0.245259
C41	C	0.031838	-0.245389	0.245254
C42	C	0.059142	-0.216601	0.216574
C43	C	0.479578	-0.245358	0.245198
C44	C	0.534183	-0.245354	0.245186
C45	C	0.534185	-0.187786	0.187829
C46	C	0.479585	-0.187791	0.187839
C47	C	0.452282	-0.216579	0.216527
O48	O	0.393205	-0.163344	0.163471
O49	O	0.393153	-0.269835	0.269607
C50	C	0.755350	-0.333307	0.216516
C51	C	0.755358	-0.383242	0.216522
C52	C	0.788945	-0.692869	0.187855
C53	C	0.789009	-0.880542	0.187872
O54	O	0.817491	-0.904794	0.163481
N55	N	0.755553	-0.904027	0.216572
C56	C	0.722081	-0.880590	0.245273
O57	O	0.693630	-0.904871	0.269688
C58	C	0.722019	-0.692918	0.245257
C59	C	0.755474	-0.669436	0.216552
C60	C	0.822397	-0.669387	0.159152
C61	C	0.822379	-0.622472	0.159146
C62	C	0.788908	-0.599038	0.187843
C63	C	0.755456	-0.622520	0.216546
C64	C	0.688550	-0.669482	0.273959
C65	C	0.688539	-0.622561	0.273954
C66	C	0.721993	-0.599079	0.245248
C67	C	0.721966	-0.552171	0.245237
N68	N	0.755422	-0.528687	0.216537
C69	C	0.788893	-0.552120	0.187840
C70	C	0.722115	-0.979120	0.245278
C71	C	0.722129	-1.026038	0.245282
C72	C	0.789059	-1.025987	0.187881
C73	C	0.789041	-0.979069	0.187876
C74	C	0.755571	-0.955636	0.216578
C75	C	0.788852	-0.453595	0.187829
C76	C	0.788829	-0.406675	0.187825
C77	C	0.721901	-0.406730	0.245226
C78	C	0.721922	-0.453645	0.245229
C79	C	0.755402	-0.477077	0.216529
O80	O	0.693503	-0.527891	0.269619
O81	O	0.817349	-0.527831	0.163435
C82	C	0.788963	-0.739785	0.187860
C83	C	0.755511	-0.763267	0.216563
C84	C	0.722040	-0.739833	0.245260
C85	C	0.755526	-0.810184	0.216567
C86	C	0.788996	-0.833618	0.187870
C87	C	0.822453	-0.810134	0.159169
C88	C	0.822434	-0.763218	0.159163
C89	C	0.688584	-0.763318	0.273961
C90	C	0.688605	-0.810233	0.273964
C91	C	0.722076	-0.833666	0.245267
C92	C	0.891818	-0.216603	0.216569
C93	C	0.949932	-0.216610	0.216582
C94	C	0.755449	-0.216615	0.333717
C95	C	0.755451	-0.216628	0.383651
C96	C	0.755554	-0.099406	0.216571
C97	C	0.755600	-0.049472	0.216584
C98	C	0.721978	-0.245323	0.740223
C99	C	0.721981	-0.245339	0.552550
O100	O	0.693508	-0.269757	0.528272
N101	N	0.755445	-0.216615	0.529096
C102	C	0.788908	-0.187883	0.552564
O103	O	0.817367	-0.163448	0.528309
C104	C	0.788901	-0.187865	0.740236
C105	C	0.755439	-0.216594	0.763687
C106	C	0.688517	-0.274049	0.763674
C107	C	0.688519	-0.274046	0.810590
C108	C	0.721980	-0.245318	0.834054
C109	C	0.755441	-0.216591	0.810603
C110	C	0.822361	-0.159131	0.763703
C111	C	0.822356	-0.159128	0.810624
C112	C	0.788894	-0.187857	0.834075
C113	C	0.788904	-0.187860	0.880983
N114	N	0.755440	-0.216584	0.904436
C115	C	0.721978	-0.245313	0.880972
C116	C	0.788910	-0.187895	0.454033
C117	C	0.788912	-0.187900	0.407116
C118	C	0.721984	-0.245355	0.407105
C119	C	0.721985	-0.245352	0.454023
C120	C	0.755446	-0.216619	0.477487
C121	C	0.721984	-0.245305	0.979498
C122	C	0.721990	-0.245302	1.026417
C123	C	0.788916	-0.187845	1.026424
C124	C	0.788912	-0.187850	0.979508
C125	C	0.755442	-0.216582	0.956046
O126	O	0.817357	-0.163450	0.905289
O127	O	0.693515	-0.269736	0.905235
C128	C	0.721976	-0.245325	0.693308
C129	C	0.755436	-0.216599	0.669856
C130	C	0.788898	-0.187870	0.693321
C131	C	0.755439	-0.216604	0.622939
C132	C	0.721977	-0.245333	0.599474
C133	C	0.688513	-0.274057	0.622928
C134	C	0.688514	-0.274054	0.669843
C135	C	0.822362	-0.159146	0.669867
C136	C	0.822358	-0.159151	0.622952
C137	C	0.788896	-0.187880	0.599487
C138	C	0.755441	-0.216569	1.099816
C139	C	0.755451	-0.216573	1.049882
H140	H	0.305261	-0.135567	0.135848
N141	N	0.652424	-0.305029	0.835881
H142	H	0.660514	-0.337129	0.827718
H143	H	0.615090	-0.298007	0.827692
N144	N	0.858449	-0.128140	0.835933
H145	H	0.837219	-0.107318	0.855393
H146	H	0.879639	-0.109973	0.813928
H147	H	0.849612	-0.135757	0.603862
N148	N	0.450133	-0.276410	0.276134
H149	H	0.427501	-0.258198	0.296993
H150	H	0.475749	-0.294636	0.294263
H151	H	0.849676	-0.744102	0.135789
H152	H	0.206211	-0.135577	0.135851
N153	N	0.858549	-0.835413	0.128213
H154	H	0.853480	-0.868697	0.132575
H155	H	0.895883	-0.827184	0.135237
N156	N	0.825158	-1.051270	0.156930
H157	H	0.849372	-1.070715	0.175216
H158	H	0.846320	-1.029251	0.138751
H159	H	0.661357	-0.829348	0.297339
H160	H	0.305223	-0.297592	0.297253
H161	H	0.849610	-0.135751	0.688967
H162	H	0.661284	-0.603484	0.297328
H163	H	0.206178	-0.297595	0.297268
N164	N	0.061295	-0.156776	0.156957
H165	H	0.083972	-0.135987	0.175248
H166	H	0.035683	-0.138577	0.138798
N167	N	0.825005	-0.156908	0.479342
H168	H	0.803777	-0.136082	0.498800
H169	H	0.846198	-0.138743	0.457336
H170	H	0.661266	-0.297448	0.688933
H171	H	0.661329	-0.744242	0.297330
N172	N	0.858498	-0.694660	0.128197
H173	H	0.895846	-0.686463	0.135206
H174	H	0.850354	-0.686489	0.096104
N175	N	0.685893	-0.276333	0.479320
H176	H	0.693984	-0.308434	0.471162
H177	H	0.648557	-0.269313	0.471133
N178	N	0.685894	-0.276343	0.381793
H179	H	0.690976	-0.271983	0.348513
H180	H	0.648559	-0.269342	0.389981
H181	H	0.054058	-0.268828	0.268605
N182	N	0.685899	-0.276290	1.051711
H183	H	0.664700	-0.294488	1.029724
H184	H	0.661718	-0.258001	1.071171
N185	N	0.450141	-0.156752	0.156907
H186	H	0.475726	-0.138519	0.138736
H187	H	0.427512	-0.135994	0.175236
H188	H	-0.045007	-0.268830	0.268614
H189	H	0.661266	-0.297443	0.744574
H190	H	0.556427	-0.164352	0.164477
N191	N	0.825011	-0.156918	0.381827
H192	H	0.803786	-0.136097	0.362352
H193	H	0.849220	-0.175212	0.362396
N194	N	0.824914	-0.381348	0.156864
H195	H	0.846122	-0.403315	0.138688
H196	H	0.849086	-0.361860	0.175172
N197	N	0.858454	-0.128144	0.738417
H198	H	0.879645	-0.109945	0.760407
H199	H	0.837190	-0.107352	0.718945
N200	N	0.824961	-0.478863	0.156875
H201	H	0.846146	-0.456862	0.138693
H202	H	0.803705	-0.498349	0.136066
N203	N	-0.052196	-0.156788	0.156966
H204	H	-0.026607	-0.138555	0.138797
H205	H	-0.074827	-0.136030	0.175291
N206	N	0.858470	-0.597148	0.128192
H207	H	0.879676	-0.619118	0.110018
H208	H	0.882642	-0.577664	0.146504
H209	H	0.694725	-0.268698	0.960400
N210	N	0.825125	-0.953743	0.156917
H211	H	0.846329	-0.975712	0.138739
H212	H	0.849301	-0.934258	0.175225
H213	H	0.816163	-0.164460	0.960414
H214	H	0.661269	-0.297450	0.603815
N215	N	0.563623	-0.276404	0.276113
H216	H	0.538037	-0.294637	0.294284
H217	H	0.586303	-0.258155	0.296935
N218	N	0.686038	-1.051363	0.276235
H219	H	0.664834	-1.029394	0.294412
H220	H	0.707304	-1.070811	0.297048
N221	N	0.825005	-0.156858	1.051734
H222	H	0.849218	-0.175115	1.071209
H223	H	0.803733	-0.136044	1.071167
N224	N	0.686010	-0.953850	0.276235
H225	H	0.664819	-0.975850	0.294413
H226	H	0.661824	-0.934405	0.257923
H227	H	0.661305	-0.688593	0.297332
H228	H	0.694682	-0.472765	0.268605
H229	H	0.694648	-0.387643	0.268590
