data_functionalizedCrystal
_audit_creation_method	'MofGen! by Chris Wilmer'
_symmetry_space_group_name_H-M	'P1'
_symmetry_Int_Tables_number	1
_symmetry_cell_setting	triclinic
loop_
_symmetry_equiv_pos_as_xyz
  x,y,z
_cell_length_a	13.339070
_cell_length_b	14.519709
_cell_length_c	11.804365
_cell_angle_alpha	101.851959
_cell_angle_beta	74.875130
_cell_angle_gamma	99.654719
loop_
_atom_site_label
_atom_site_type_symbol
_atom_site_fract_x
_atom_site_fract_y
_atom_site_fract_z
O1	O	1.363544	0.449147	-0.099080
O2	O	1.068905	0.388436	-0.099072
O3	O	1.224034	0.286542	-0.099066
O4	O	1.208414	0.551041	-0.099087
O5	O	1.183194	0.313329	0.098989
O6	O	1.028065	0.415223	0.098982
O7	O	1.322704	0.475934	0.098974
Cu8	Cu	1.171656	0.448024	0.117062
Cu9	Cu	1.219953	0.416345	-0.117160
O10	O	1.167575	0.577828	0.098968
C11	C	1.010777	0.391574	-0.000044
C12	C	0.898419	0.361005	-0.000040
C13	C	0.534064	0.598691	-0.000078
C14	C	0.639630	0.627415	-0.000085
C15	C	0.704332	0.560815	-0.000073
C16	C	0.663459	0.465486	-0.000055
C17	C	0.557884	0.436759	-0.000058
C18	C	0.728152	0.398882	-0.000053
C19	C	0.687279	0.303554	-0.000035
C20	C	0.581714	0.274831	-0.000037
C21	C	0.517012	0.341431	-0.000048
C22	C	0.833727	0.427610	-0.000051
C23	C	0.857547	0.265677	-0.000031
C24	C	0.751981	0.236954	-0.000024
C25	C	1.202886	0.265390	-0.000038
C26	C	1.200704	0.162454	-0.000038
C27	C	1.192677	-0.214489	-0.000068
C28	C	1.194906	-0.109613	-0.000059
C29	C	1.196690	-0.026021	-0.000052
C30	C	1.198920	0.078862	-0.000045
C31	C	1.380832	0.472796	-0.000057
C32	C	1.493192	0.503364	-0.000068
C33	C	1.188723	0.598979	-0.000062
C34	C	1.190907	0.701915	-0.000071
N35	N	1.137693	0.470307	0.281801
N36	N	1.253924	0.394058	-0.281899
C37	C	1.335480	0.340531	0.655758
C38	C	1.361172	0.323670	0.531097
C39	C	1.305304	0.360328	0.468767
C40	C	1.223741	0.413850	0.531110
C41	C	1.198052	0.430719	0.655783
C42	C	1.167876	0.450515	0.468792
C43	C	1.086313	0.504037	0.531135
C44	C	1.060628	0.520903	0.655795
C45	C	1.116496	0.484245	0.718126
C46	C	1.193565	0.433646	0.344119
C47	C	1.056137	0.523834	0.344144
C48	C	1.030445	0.540695	0.468805
H49	H	0.548441	0.197207	-0.000035
O50	O	0.806843	0.588881	-0.000019
C51	C	0.945281	0.718945	-0.000099
C52	C	0.829162	0.687286	-0.000140
H53	H	0.963367	0.798503	-0.000221
H54	H	0.962166	0.702147	0.082816
H55	H	0.996297	0.679597	-0.082955
H56	H	0.778069	0.726614	0.082660
H57	H	0.812361	0.704065	-0.083109
H58	H	1.427580	0.280094	0.480342
O59	O	1.001782	0.559550	0.283795
C60	C	0.862725	0.650737	0.296965
C61	C	0.924201	0.610365	0.365468
H62	H	0.799973	0.691813	0.362968
H63	H	0.918469	0.700188	0.238614
H64	H	0.824174	0.590030	0.238586
H65	H	0.962758	0.671009	0.423911
H66	H	0.868409	0.560888	0.423744
H67	H	0.672904	0.705029	-0.000109
O68	O	0.951281	0.592705	0.529555
C69	C	0.850768	0.658604	0.721626
C70	C	0.940459	0.599707	0.652975
H71	H	0.841974	0.664267	0.821423
H72	H	0.869114	0.732602	0.697197
H73	H	0.774758	0.622485	0.697067
H74	H	1.016505	0.635744	0.677497
H75	H	0.922022	0.525711	0.677409
O76	O	1.389719	0.304769	0.716179
C77	C	1.440807	0.164702	0.754413
C78	C	1.379359	0.205083	0.685887
H79	H	1.432434	0.084100	0.729966
H80	H	1.526970	0.194111	0.729868
H81	H	1.408444	0.186007	0.854214
H82	H	1.411633	0.183794	0.586070
H83	H	1.293203	0.175677	0.710530
O84	O	0.471144	0.663267	-0.000251
C85	C	0.359336	0.710948	-0.102917
C86	C	0.430548	0.637729	-0.102853
H87	H	0.326511	0.690338	-0.185874
H88	H	0.292160	0.712742	-0.020092
H89	H	0.406684	0.784016	-0.102866
H90	H	0.383288	0.564625	-0.102946
H91	H	0.497726	0.636018	-0.185671
O92	O	1.091371	0.500677	0.839225
C93	C	0.979141	0.574405	1.018140
C94	C	1.007468	0.555853	0.880997
H95	H	0.911317	0.619033	1.051955
H96	H	0.955346	0.503977	1.052054
H97	H	1.049852	0.613996	1.051943
H98	H	0.936799	0.516292	0.847093
H99	H	1.031302	0.626312	0.847164
O100	O	0.712115	0.144384	-0.000067
C101	C	0.560015	0.028385	0.000014
C102	C	0.605034	0.133244	0.000035
H103	H	0.473430	0.019347	0.000122
H104	H	0.603667	-0.017144	-0.082886
H105	H	0.569614	0.005330	0.082885
H106	H	0.595444	0.156387	-0.082779
H107	H	0.561377	0.178711	0.082990
H108	H	0.431050	0.318049	-0.000042
H109	H	1.326226	0.346597	0.367263
H110	H	0.910229	0.211445	-0.000026
O111	O	1.272664	0.381486	0.283662
C112	C	1.339509	0.231100	0.245723
C113	C	1.249847	0.290078	0.314215
H114	H	1.321104	0.157191	0.270418
H115	H	1.348316	0.225220	0.145889
H116	H	1.415530	0.267258	0.270219
H117	H	1.173776	0.253967	0.289818
H118	H	1.241133	0.295962	0.414032
H119	H	0.866995	0.505227	-0.000061
H120	H	0.994223	0.564492	0.706555
