data_functionalizedCrystal
_audit_creation_method	'MofGen! by Chris Wilmer'
_symmetry_space_group_name_H-M	'P1'
_symmetry_Int_Tables_number	1
_symmetry_cell_setting	triclinic
loop_
_symmetry_equiv_pos_as_xyz
  x,y,z
_cell_length_a	31.640171
_cell_length_b	31.640172
_cell_length_c	14.560432
_cell_angle_alpha	90.004747
_cell_angle_beta	59.980688
_cell_angle_gamma	59.992468
loop_
_atom_site_label
_atom_site_type_symbol
_atom_site_fract_x
_atom_site_fract_y
_atom_site_fract_z
Zr1	Zr	0.462743	0.407055	-0.120882
O2	O	0.550959	0.339539	-0.267642
O3	O	0.374533	0.427769	-0.075830
O4	O	0.462742	0.427742	-0.267526
O5	O	0.462749	0.339567	0.075196
O6	O	0.462733	0.497299	-0.267506
O7	O	0.462751	0.339566	-0.075946
O8	O	0.304944	0.497346	0.075403
O9	O	0.620537	0.339521	-0.267713
O10	O	0.410806	0.488492	-0.056677
O11	O	0.410811	0.436584	0.056104
O12	O	0.514665	0.436553	-0.169593
O13	O	0.514670	0.384645	-0.056813
Zr14	Zr	0.462726	0.517993	0.120203
Zr15	Zr	0.462729	0.517990	-0.120850
Zr16	Zr	0.462740	0.407058	0.120171
Zr17	Zr	0.573712	0.407025	-0.120996
Zr18	Zr	0.351756	0.518023	0.120317
O19	O	0.550935	0.497279	0.075151
O20	O	0.550939	0.497275	-0.267596
O21	O	0.550955	0.339543	0.075105
O22	O	0.374509	0.585508	0.266962
O23	O	0.374513	0.585504	-0.075785
O24	O	0.374529	0.427773	0.266917
O25	O	0.462720	0.585480	-0.075875
O26	O	0.462727	0.497306	0.266846
O27	O	0.462735	0.427749	0.266826
O28	O	0.462718	0.585482	0.075267
O29	O	0.620526	0.427699	-0.267687
O30	O	0.304942	0.497348	0.267008
O31	O	0.304931	0.585527	0.267033
O32	O	0.304933	0.585525	0.075428
O33	O	0.620535	0.339523	-0.076108
O34	O	0.620524	0.427702	-0.076082
O35	O	0.410803	0.488495	0.168914
O36	O	0.410798	0.540403	0.056134
O37	O	0.514657	0.488464	-0.056783
O38	O	0.514662	0.436556	0.055997
C39	C	0.323928	0.462562	-0.000198
C40	C	0.276818	0.462574	-0.000149
C41	C	-0.059401	0.435428	0.058541
C42	C	0.117552	0.435456	0.058640
O43	O	0.140416	0.412433	0.108755
N44	N	0.139678	0.462555	-0.000219
C45	C	0.117560	0.489652	-0.059101
O46	O	0.140435	0.512707	-0.109152
C47	C	-0.059396	0.489628	-0.059193
C48	C	-0.081515	0.462522	-0.000340
C49	C	-0.081521	0.408326	0.117390
C50	C	-0.125755	0.408317	0.117360
C51	C	-0.147868	0.435410	0.058480
C52	C	-0.125749	0.462513	-0.000370
C53	C	-0.081516	0.516728	-0.118068
C54	C	-0.125759	0.516720	-0.118083
C55	C	-0.147878	0.489615	-0.059230
C56	C	-0.192096	0.489598	-0.059280
N57	N	-0.214222	0.462499	-0.000421
C58	C	-0.192108	0.435405	0.058459
C59	C	0.210465	0.489663	-0.059051
C60	C	0.254705	0.489668	-0.059029
C61	C	0.254693	0.435472	0.058713
C62	C	0.210456	0.435464	0.058685
C63	C	0.188339	0.462563	-0.000192
C64	C	-0.285001	0.435388	0.058390
C65	C	-0.329237	0.435380	0.058350
C66	C	-0.329223	0.489578	-0.059387
C67	C	-0.284989	0.489584	-0.059353
C68	C	-0.262881	0.462488	-0.000456
O69	O	-0.214992	0.512614	-0.109359
O70	O	-0.215000	0.412363	0.108523
C71	C	-0.015168	0.435437	0.058571
C72	C	0.006952	0.462540	-0.000279
C73	C	-0.015162	0.489634	-0.059159
C74	C	0.051191	0.462546	-0.000258
C75	C	0.073305	0.435452	0.058622
C76	C	0.051179	0.408352	0.117481
C77	C	0.006946	0.408343	0.117451
C78	C	0.006964	0.516733	-0.118018
C79	C	0.051198	0.516739	-0.117984
C80	C	0.073312	0.489646	-0.059104
C81	C	0.462752	0.323761	-0.000380
C82	C	0.462758	0.276666	-0.000393
C83	C	0.408515	0.011771	0.058624
C84	C	0.408505	-0.165214	0.058647
O85	O	0.362398	-0.165042	0.108815
N86	N	0.462718	-0.214455	-0.000296
C87	C	0.516937	-0.219450	-0.059243
O88	O	0.563048	-0.265393	-0.109367
C89	C	0.516947	-0.042465	-0.059258
C90	C	0.462730	0.006776	-0.000320
C91	C	0.354303	0.061010	0.117558
C92	C	0.354306	0.105253	0.117547
C93	C	0.408521	0.100258	0.058602
C94	C	0.462733	0.051019	-0.000331
C95	C	0.571166	-0.047460	-0.118197
C96	C	0.571163	-0.003209	-0.118193
C97	C	0.516947	0.046032	-0.059256
C98	C	0.516952	0.090267	-0.059287
N99	N	0.462739	0.139509	-0.000345
C100	C	0.408524	0.144504	0.058600
C101	C	0.516928	-0.312367	-0.059232
C102	C	0.516926	-0.356613	-0.059230
C103	C	0.408493	-0.302374	0.058661
C104	C	0.408496	-0.258128	0.058652
C105	C	0.462715	-0.263126	-0.000290
C106	C	0.408534	0.237416	0.058571
C107	C	0.408542	0.281661	0.058551
C108	C	0.516975	0.227418	-0.059335
C109	C	0.516967	0.183177	-0.059320
C110	C	0.462742	0.188180	-0.000358
O111	O	0.563035	0.090135	-0.109419
O112	O	0.362419	0.190452	0.108738
C113	C	0.408512	-0.032472	0.058636
C114	C	0.462724	-0.081711	-0.000298
C115	C	0.516939	-0.086706	-0.059243
C116	C	0.462722	-0.125957	-0.000296
C117	C	0.408506	-0.120961	0.058649
C118	C	0.354293	-0.071720	0.117591
C119	C	0.354297	-0.027477	0.117580
C120	C	0.571152	-0.135948	-0.118185
C121	C	0.571145	-0.180189	-0.118171
C122	C	0.516930	-0.175193	-0.059226
C123	C	0.601540	0.462486	-0.000482
C124	C	0.648650	0.462473	-0.000530
C125	C	0.462738	0.462520	-0.301861
C126	C	0.462739	0.462519	-0.404194
C127	C	0.462717	0.601287	-0.000299
C128	C	0.462711	0.648382	-0.000286
C129	C	0.571169	0.408289	-0.522097
C130	C	0.625382	0.381173	-0.629122
C131	C	0.625380	0.381175	-0.725269
C132	C	0.571158	0.408296	-0.714387
C133	C	0.516945	0.435412	-0.607363
C134	C	0.516953	0.435406	-0.511220
C135	C	0.408516	0.489644	-0.489461
C136	C	0.408517	0.489640	-0.393312
C137	C	0.354295	0.516765	-0.478579
C138	C	0.300080	0.543879	-0.371553
C139	C	0.300085	0.543876	-0.275403
C140	C	0.354304	0.516756	-0.286288
C141	C	0.462731	0.462528	0.301181
C142	C	0.462729	0.462529	0.403515
C143	C	0.323910	0.601325	-0.000157
C144	C	0.276795	0.648433	-0.000096
C145	C	0.323924	0.462565	0.301323
C146	C	0.276814	0.462579	0.403705
C147	C	0.323907	0.601329	0.301364
C148	C	0.276790	0.648438	0.403759
C149	C	0.601561	0.323719	-0.302043
C150	C	0.648678	0.276610	-0.404438
C151	C	0.601558	0.323723	-0.000522
C152	C	0.648673	0.276615	-0.000584
C153	C	0.601544	0.462483	-0.302003
C154	C	0.648655	0.462469	-0.404384
C155	C	0.254673	0.643458	-0.058962
C156	C	0.210409	0.687717	-0.058927
C157	C	0.188265	0.736949	-0.000017
C158	C	0.210391	0.741923	0.058852
C159	C	0.254657	0.697665	0.058809
C160	C	0.254686	0.489683	0.510680
C161	C	0.210426	0.489694	0.606888
C162	C	0.188293	0.462604	0.596118
C163	C	0.210425	0.435497	0.489131
C164	C	0.254686	0.435484	0.392926
C165	C	0.254661	0.697661	0.392975
C166	C	0.210396	0.741929	0.489177
C167	C	0.188258	0.736973	0.596162
C168	C	0.210392	0.687744	0.606944
C169	C	0.254659	0.643477	0.510743
C170	C	0.670813	0.227387	-0.393654
C171	C	0.715091	0.183119	-0.489856
C172	C	0.737232	0.188075	-0.596841
C173	C	0.715095	0.237304	-0.607623
C174	C	0.670820	0.281571	-0.511422
C175	C	0.670800	0.281590	0.058273
C176	C	0.715076	0.237331	0.058211
C177	C	0.737222	0.188099	-0.000702
C178	C	0.715093	0.183125	-0.059566
C179	C	0.670821	0.227383	-0.059510
C180	C	0.670774	0.489564	-0.393578
C181	C	0.715034	0.489561	-0.489767
C182	C	0.737176	0.462459	-0.596762
C183	C	0.715052	0.435364	-0.607566
C184	C	0.670790	0.435370	-0.511378
H185	H	-0.267004	0.413323	0.106346
H186	H	0.192412	0.511769	0.693992
Br187	Br	0.284671	0.704426	0.138714
Br188	Br	0.284718	0.576648	-0.138925
Br189	Br	0.640756	0.348400	0.138232
Br190	Br	0.745052	0.526334	-0.475078
Br191	Br	0.284712	0.526455	0.525329
H192	H	0.152213	0.773022	0.674486
H193	H	0.652788	0.223342	-0.306550
Br194	Br	0.590549	0.220649	-0.139309
H195	H	-0.143765	0.538789	-0.166026
H196	H	0.773217	0.462458	-0.675075
H197	H	0.152252	0.462620	0.674464
Br198	Br	0.745148	0.244021	-0.752827
H199	H	0.192400	0.683657	-0.106864
Br200	Br	0.640783	0.348372	-0.526078
Br201	Br	0.745114	0.398580	-0.752782
H202	H	0.364348	-0.218036	0.106654
H203	H	0.652785	0.413304	-0.520192
Br204	Br	0.745096	0.244093	0.138107
H205	H	0.192379	0.782009	0.480378
H206	H	0.152220	0.772983	0.000010
H207	H	0.773271	0.152065	-0.000739
Br208	Br	0.180330	0.808743	0.138799
H209	H	0.773283	0.152026	-0.675165
Br210	Br	0.180341	0.681027	0.752147
H211	H	0.364349	-0.298313	0.106649
Br212	Br	0.284683	0.576676	0.525399
H213	H	0.069208	0.538810	-0.165919
H214	H	-0.347243	0.413305	0.106275
Br215	Br	0.334958	0.348488	0.138538
Br216	Br	-0.155771	0.371532	0.197245
H217	H	0.733131	0.143034	-0.107532
Br218	Br	0.590547	0.116349	-0.139334
H219	H	0.733107	0.143040	-0.481055
H220	H	0.652807	0.223325	-0.107435
H221	H	0.571177	0.408279	-0.443815
H222	H	0.192397	0.413442	0.480379
Br223	Br	0.280713	0.039346	0.197571
Br224	Br	0.640734	0.526348	-0.248383
H225	H	-0.063513	0.538799	-0.165990
H226	H	-0.063522	0.386263	0.165343
Br227	Br	0.644732	-0.247014	-0.198170
Br228	Br	0.180441	0.398677	0.138560
H229	H	0.272707	0.413410	0.106653
H230	H	0.310149	-0.067659	0.165579
Br231	Br	0.284729	0.526445	-0.138929
Br232	Br	0.590519	-0.319160	-0.139234
H233	H	0.255937	0.565961	-0.362706
H234	H	0.561075	-0.396704	-0.107238
Br235	Br	-0.254963	0.526363	-0.139240
Br236	Br	0.180465	0.526436	-0.138980
Br237	Br	0.284699	0.704401	0.247793
Br238	Br	-0.023066	0.371555	0.197327
Br239	Br	-0.359241	0.526344	-0.139297
H240	H	0.272697	0.413414	0.305825
H241	H	-0.011038	0.538797	-0.165963
Br242	Br	0.334943	0.244212	0.138590
Br243	Br	0.081202	0.371580	0.197383
H244	H	0.310152	0.065087	0.165564
Br245	Br	0.280722	0.172076	0.197545
H246	H	0.615315	-0.087547	-0.166189
H247	H	0.615302	-0.140023	-0.166188
Br248	Br	0.698965	0.344372	-0.643884
Br249	Br	0.698955	0.344381	-0.870520
Br250	Br	0.571156	0.408307	-0.844874
Br251	Br	0.644751	-0.009996	-0.198184
H252	H	0.255938	0.565958	-0.188262
Br253	Br	0.354290	0.516771	-0.609064
Br254	Br	0.354315	0.516745	-0.155810
