data_functionalizedCrystal
_audit_creation_method	'MofGen! by Chris Wilmer'
_symmetry_space_group_name_H-M	'P1'
_symmetry_Int_Tables_number	1
_symmetry_cell_setting	triclinic
loop_
_symmetry_equiv_pos_as_xyz
  x,y,z
_cell_length_a	10.686220
_cell_length_b	12.759400
_cell_length_c	10.685314
_cell_angle_alpha	94.336337
_cell_angle_beta	98.357559
_cell_angle_gamma	94.396325
loop_
_atom_site_label
_atom_site_type_symbol
_atom_site_fract_x
_atom_site_fract_y
_atom_site_fract_z
Zn1	Zn	1.885495	-0.333925	-0.569012
Zn2	Zn	1.901639	-0.495072	-0.356781
Zn3	Zn	1.689505	-0.334011	-0.373047
Zn4	Zn	1.673224	-0.524171	-0.585219
O5	O	1.787466	-0.421795	-0.471015
O6	O	2.065251	-0.343087	-0.527269
O7	O	1.887069	-0.461565	-0.181325
O8	O	1.715560	-0.186977	-0.399067
O9	O	2.077112	-0.461481	-0.371344
O10	O	1.859553	-0.186913	-0.543042
O11	O	1.731215	-0.343234	-0.193275
O12	O	1.509730	-0.371451	-0.414782
O13	O	1.687812	-0.511076	-0.760683
O14	O	1.497769	-0.511160	-0.570664
O15	O	1.843766	-0.371303	-0.748776
O16	O	1.871282	-0.645955	-0.387059
O17	O	1.703467	-0.667334	-0.554892
C18	C	1.457696	-0.444473	-0.496248
C19	C	1.316617	-0.454203	-0.507073
C20	C	1.787392	-0.694765	-0.470994
C21	C	1.787474	-0.811538	-0.471019
C22	C	1.874938	-0.855233	-0.383711
C23	C	1.875013	-0.964955	-0.383745
C24	C	1.700148	-0.987277	-0.558397
C25	C	1.700080	-0.877558	-0.558369
C26	C	1.962332	-0.789214	-0.296361
C27	C	2.049803	-0.832908	-0.209046
C28	C	2.049878	-0.942629	-0.209079
C29	C	1.962482	-1.008656	-0.296428
C30	C	2.118523	-0.399028	-0.445684
C31	C	2.259600	-0.389326	-0.434890
C32	C	1.762173	-0.444426	-0.802071
C33	C	1.751394	-0.454070	-0.943147
C34	C	1.787572	-0.147757	-0.471061
C35	C	1.787617	-0.030979	-0.471080
C36	C	1.812733	-0.399170	-0.141241
C37	C	1.823758	-0.389213	-0.000147
H38	H	1.962278	-0.699872	-0.296321
H39	H	1.318715	-0.326340	-0.364808
O40	O	1.907366	-0.314015	-0.929684
C41	C	1.877245	-0.213399	-0.964166
H42	H	1.773092	-0.217541	-1.008449
H43	H	1.939502	-0.186457	-1.035813
C44	C	2.028858	-0.129203	-0.790838
C45	C	1.900932	-0.134288	-0.845218
H46	H	2.043474	-0.080401	-0.717468
H47	H	2.049155	-0.196989	-0.767609
H48	H	2.080724	-0.106755	-0.850557
H49	H	1.849070	-0.156748	-0.785506
H50	H	1.880627	-0.066503	-0.868435
H51	H	1.257496	-0.517200	-0.577151
H52	H	1.681193	-0.516973	-1.002275
H53	H	1.628994	-1.041045	-0.629511
H54	H	2.120965	-0.779143	-0.137936
H55	H	2.121109	-0.978201	-0.137991
H56	H	1.962560	-1.097998	-0.296457
O57	O	1.615003	-0.835279	-0.643234
C58	C	1.537899	-0.917074	-0.720356
H59	H	1.537546	-0.992052	-0.668718
H60	H	1.576958	-0.932083	-0.813232
C61	C	1.401824	-0.792777	-0.812316
C62	C	1.401382	-0.884864	-0.748888
H63	H	1.317615	-0.772907	-0.829922
H64	H	1.453772	-0.737669	-0.760362
H65	H	1.434379	-0.805296	-0.889705
H66	H	1.368842	-0.872340	-0.671494
H67	H	1.349425	-0.939969	-0.800831
