data_functionalizedCrystal
_audit_creation_method	'MofGen! by Chris Wilmer'
_symmetry_space_group_name_H-M	'P1'
_symmetry_Int_Tables_number	1
_symmetry_cell_setting	triclinic
loop_
_symmetry_equiv_pos_as_xyz
  x,y,z
_cell_length_a	19.077105
_cell_length_b	13.897448
_cell_length_c	19.076919
_cell_angle_alpha	87.727045
_cell_angle_beta	89.923776
_cell_angle_gamma	87.714101
loop_
_atom_site_label
_atom_site_type_symbol
_atom_site_fract_x
_atom_site_fract_y
_atom_site_fract_z
Zn1	Zn	1.058310	-0.466652	0.440425
Zn2	Zn	1.062963	-0.621745	0.322920
Zn3	Zn	0.945527	-0.453730	0.318218
Zn4	Zn	0.940785	-0.621164	0.435673
O5	O	1.001896	-0.540823	0.379309
O6	O	1.157260	-0.492877	0.428794
O7	O	1.051317	-0.594293	0.223965
O8	O	0.960525	-0.320466	0.334450
O9	O	1.160678	-0.606823	0.342464
O10	O	1.043386	-0.329960	0.424235
O11	O	0.965037	-0.470854	0.220510
O12	O	0.846566	-0.470290	0.329842
O13	O	0.952443	-0.605832	0.534635
O14	O	0.843082	-0.593302	0.416136
O15	O	1.038788	-0.492313	0.538126
O16	O	1.046719	-0.756647	0.337856
O17	O	0.956955	-0.756219	0.420695
C18	C	0.819327	-0.530331	0.371963
C19	C	0.741223	-0.525867	0.368837
C20	C	1.001846	-0.791433	0.379287
C21	C	1.001888	-0.898650	0.379303
C22	C	0.702736	-0.587905	0.412227
C23	C	0.629349	-0.583698	0.409293
C24	C	0.594449	-0.517456	0.362966
C25	C	0.632940	-0.455412	0.319575
C26	C	0.706327	-0.459615	0.322513
C27	C	0.375160	-0.498004	0.349373
C28	C	0.301769	-0.493807	0.346437
C29	C	0.298182	-0.622092	0.436157
C30	C	0.371570	-0.626293	0.439087
C31	C	0.410055	-0.564245	0.395699
N32	N	0.519435	-0.513157	0.359965
N33	N	0.485067	-0.568541	0.398704
C34	C	1.001960	-1.094952	0.379350
C35	C	1.001918	-0.985716	0.379326
C36	C	1.185178	-0.551356	0.386684
C37	C	1.263282	-0.555845	0.389826
C38	C	0.994568	-0.550449	0.562589
C39	C	0.991445	-0.554551	0.640692
C40	C	1.001966	-0.289236	0.379348
C41	C	1.001995	-0.182024	0.379364
C42	C	1.009237	-0.531167	0.196743
C43	C	1.012496	-0.526801	0.118646
C44	C	1.034931	-0.497377	0.679204
C45	C	1.031988	-0.501227	0.752590
C46	C	0.985562	-0.562257	0.787463
C47	C	0.942071	-0.619432	0.748946
C48	C	0.945011	-0.615576	0.675561
C49	C	0.971945	-0.580121	1.006744
C50	C	0.969010	-0.583975	1.080134
C51	C	1.058926	-0.465768	1.083773
C52	C	1.061865	-0.461922	1.010387
C53	C	1.018372	-0.519094	0.971877
N54	N	0.982554	-0.566196	0.862475
N55	N	1.021376	-0.515149	0.896866
H56	H	0.731147	-0.641849	0.449949
O57	O	1.107012	-0.402753	0.976470
C58	C	1.154072	-0.458013	0.935808
H59	H	1.157547	-0.535391	0.958088
H60	H	1.208180	-0.426149	0.937133
H61	H	1.134547	-0.457184	0.879325
H62	H	0.598016	-0.634216	0.444625
O63	O	0.405358	-0.690668	0.484152
C64	C	0.355652	-0.744542	0.521807
H65	H	0.303248	-0.702173	0.522201
H66	H	0.374654	-0.759076	0.578006
H67	H	0.348860	-0.815939	0.495666
H68	H	1.094335	-0.419221	1.115137
O69	O	0.412569	-0.437646	0.307326
C70	C	0.453447	-0.379982	0.349110
H71	H	0.429130	-0.375780	0.403575
H72	H	0.455301	-0.304415	0.323822
H73	H	0.508965	-0.413120	0.353720
H74	H	0.931203	-0.633674	1.108525
H75	H	0.936540	-0.626689	0.975398
O76	O	0.897033	-0.678693	0.782930
C77	C	0.903750	-0.669822	0.855960
H78	H	0.957587	-0.641878	0.868174
H79	H	0.897845	-0.743263	0.883645
H80	H	0.861252	-0.617153	0.875114
O81	O	0.599120	-0.391111	0.274480
C82	C	0.619822	-0.409400	0.205134
H83	H	0.673160	-0.449446	0.205761
H84	H	0.623593	-0.338211	0.173816
H85	H	0.579456	-0.455331	0.179749
H86	H	0.909593	-0.662123	0.644205
H87	H	0.737661	-0.409092	0.287184
H88	H	0.266840	-0.672607	0.471482
H89	H	0.273355	-0.439855	0.308716
H90	H	1.067400	-0.454673	0.783943
O91	O	1.080048	-0.438009	0.645441
C92	C	1.117809	-0.388389	0.695174
H93	H	1.086932	-0.386145	0.746325
H94	H	1.126175	-0.311708	0.674286
H95	H	1.170855	-0.427188	0.705124
