data_functionalizedCrystal
_audit_creation_method	'MofGen! by Chris Wilmer'
_symmetry_space_group_name_H-M	'P1'
_symmetry_Int_Tables_number	1
_symmetry_cell_setting	triclinic
loop_
_symmetry_equiv_pos_as_xyz
  x,y,z
_cell_length_a	18.215407
_cell_length_b	18.215404
_cell_length_c	18.215399
_cell_angle_alpha	89.972485
_cell_angle_beta	89.981439
_cell_angle_gamma	90.015559
loop_
_atom_site_label
_atom_site_type_symbol
_atom_site_fract_x
_atom_site_fract_y
_atom_site_fract_z
Zn1	Zn	-1.125077	0.293154	0.416093
Zn2	Zn	-0.625077	0.793154	0.916093
Zn3	Zn	-1.124988	0.416225	0.293028
Zn4	Zn	-0.624988	0.916225	0.793028
Zn5	Zn	-1.002010	0.293159	0.293043
Zn6	Zn	-0.502010	0.793159	0.793043
Zn7	Zn	-1.001978	0.416166	0.416055
Zn8	Zn	-0.501978	0.916166	0.916055
O9	O	-1.063513	0.354676	0.354555
O10	O	-0.563513	0.854676	0.854555
O11	O	-1.228050	0.309503	0.399777
O12	O	-0.728050	0.809503	0.899777
O13	O	-1.108651	0.399928	0.190045
O14	O	-0.608651	0.899928	0.690045
O15	O	-1.018386	0.190174	0.309388
O16	O	-0.518386	0.690174	0.809388
O17	O	-1.227984	0.399922	0.309362
O18	O	-0.727984	0.899922	0.809362
O19	O	-1.108803	0.190171	0.399792
O20	O	-0.608803	0.690171	0.899792
O21	O	-1.018299	0.309512	0.190057
O22	O	-0.518299	0.809512	0.690057
O23	O	-0.899021	0.309454	0.309352
O24	O	-0.399021	0.809454	0.809352
O25	O	-1.018331	0.399821	0.519045
O26	O	-0.518331	0.899821	1.019045
O27	O	-0.898998	0.399826	0.399728
O28	O	-0.398998	0.899826	0.899728
O29	O	-1.108772	0.309445	0.519072
O30	O	-0.608772	0.809445	1.019072
O31	O	-1.108620	0.519202	0.309325
O32	O	-0.608620	1.019202	0.809325
O33	O	-1.018245	0.519158	0.399713
O34	O	-0.518245	1.019158	0.899713
C35	C	-0.872307	0.354634	0.354538
C36	C	-0.372307	0.854634	0.854538
C37	C	-0.790508	0.354634	0.354548
C38	C	-0.290508	0.854634	0.854548
C39	C	-1.063439	0.545882	0.354530
C40	C	-0.563439	1.045882	0.854530
C41	C	-1.063475	0.627681	0.354543
C42	C	-0.563475	1.127681	0.854543
C43	C	-1.063558	0.354625	0.546508
C44	C	-0.563558	0.854625	1.046508
C45	C	-1.063577	0.354604	0.628307
C46	C	-0.563577	0.854604	1.128307
C47	C	-0.525479	0.307659	0.401702
C48	C	-0.025479	0.807659	0.901702
C49	C	-0.602338	0.307651	0.401701
C50	C	-0.102338	0.807651	0.901701
C51	C	-0.602289	0.401669	0.307410
C52	C	-0.102289	0.901669	0.807410
C53	C	-0.525431	0.401680	0.307416
C54	C	-0.025431	0.901680	0.807416
C55	C	-0.487029	0.354671	0.354561
C56	C	0.012971	0.854671	0.854561
C57	C	-0.640745	0.354651	0.354554
C58	C	-0.140745	0.854651	0.854554
C59	C	-0.724078	0.354643	0.354552
C60	C	-0.224078	0.854643	0.854552
C61	C	-0.403690	0.354680	0.354564
C62	C	0.096310	0.854680	0.854564
C63	C	-0.255466	0.354706	0.354569
C64	C	0.244534	0.854706	0.854569
C65	C	-0.337265	0.354688	0.354567
C66	C	0.162735	0.854688	0.854567
C67	C	-1.110647	0.815874	0.307575
C68	C	-0.610647	1.315874	0.807575
C69	C	-1.110681	0.892732	0.307597
C70	C	-0.610681	1.392732	0.807597
C71	C	-1.016492	0.892727	0.401641
C72	C	-0.516492	1.392727	0.901641
C73	C	-1.016462	0.815869	0.401622
C74	C	-0.516462	1.315869	0.901622
C75	C	-1.063538	0.777445	0.354585
C76	C	-0.563538	1.277445	0.854585
C77	C	-1.063603	0.931161	0.354625
C78	C	-0.563603	1.431161	0.854625
C79	C	-1.063640	1.014494	0.354650
C80	C	-0.563640	1.514494	0.854650
C81	C	-1.063503	0.694106	0.354562
C82	C	-0.563503	1.194106	0.854562
C83	C	-1.063612	1.162723	0.354610
C84	C	-0.563612	1.662723	0.854610
C85	C	-1.063667	1.080924	0.354667
C86	C	-0.563667	1.580924	0.854667
C87	C	-1.063511	0.354674	0.163349
C88	C	-0.563511	0.854674	0.663349
C89	C	-1.063635	0.354488	0.081550
C90	C	-0.563635	0.854488	0.581550
C91	C	-1.110687	0.307501	0.816516
C92	C	-0.610687	0.807501	1.316516
C93	C	-1.110695	0.307480	0.893375
C94	C	-0.610695	0.807480	1.393375
C95	C	-1.016520	0.401593	0.893335
C96	C	-0.516520	0.901593	1.393335
C97	C	-1.016508	0.401610	0.816478
C98	C	-0.516508	0.901610	1.316478
C99	C	-1.063596	0.354565	0.778070
C100	C	-0.563596	0.854565	1.278070
C101	C	-1.063616	0.354527	0.931786
C102	C	-0.563616	0.854527	1.431786
C103	C	-1.063625	0.354504	1.015120
C104	C	-0.563625	0.854504	1.515120
C105	C	-1.063586	0.354587	0.694731
C106	C	-0.563586	0.854587	1.194731
H107	H	-0.633641	0.269370	0.440089
H108	H	-0.133641	0.769370	0.940089
H109	H	-0.978156	0.439935	0.785174
H110	H	-0.478156	0.939935	1.285174
C111	C	-0.483133	0.453394	0.255556
C112	C	0.016867	0.953394	0.755556
H113	H	-0.517011	0.481382	0.227470
H114	H	-0.017011	0.981382	0.727470
H115	H	-0.453157	0.485497	0.283656
H116	H	0.046843	0.985497	0.783656
H117	H	-0.453143	0.425201	0.223540
H118	H	0.046857	0.925201	0.723540
C119	C	-1.162428	0.773605	0.255839
C120	C	-0.662428	1.273605	0.755839
H121	H	-1.155658	0.722328	0.262553
H122	H	-0.655658	1.222328	0.762553
H123	H	-1.211874	0.786158	0.266655
H124	H	-0.711874	1.286158	0.766655
H125	H	-1.151685	0.786248	0.206384
H126	H	-0.651685	1.286248	0.706384
C127	C	-0.483238	0.255961	0.453568
C128	C	0.016762	0.755961	0.953568
H129	H	-0.517149	0.227967	0.481648
H130	H	-0.017149	0.727967	0.981648
H131	H	-0.453247	0.223863	0.425478
H132	H	0.046753	0.723863	0.925478
H133	H	-0.453268	0.284164	0.485589
H134	H	0.046732	0.784164	0.985589
C135	C	-0.644534	0.453367	0.255548
C136	C	-0.144534	0.953367	0.755548
H137	H	-0.695815	0.446622	0.262290
H138	H	-0.195815	0.946622	0.762290
H139	H	-0.631939	0.502830	0.266232
H140	H	-0.131939	1.002830	0.766232
H141	H	-0.631918	0.442530	0.206119
H142	H	-0.131918	0.942530	0.706119
H143	H	-1.149043	0.924018	0.269318
H144	H	-0.649043	1.424018	0.769318
H145	H	-0.978164	0.924021	0.439935
H146	H	-0.478164	1.424021	0.939935
H147	H	-1.149026	0.269192	0.785247
H148	H	-0.649026	0.769192	1.285247
H149	H	-1.149040	0.269154	0.924675
H150	H	-0.649040	0.769154	1.424675
C151	C	-0.964639	0.773595	0.453334
C152	C	-0.464639	1.273595	0.953334
H153	H	-0.936600	0.807485	0.481343
H154	H	-0.436600	1.307485	0.981343
H155	H	-0.992760	0.743570	0.485417
H156	H	-0.492760	1.243570	0.985417
H157	H	-0.932578	0.743655	0.425139
H158	H	-0.432578	1.243655	0.925139
C159	C	-0.964735	0.453344	0.935585
C160	C	-0.464735	0.953344	1.435585
H161	H	-0.971491	0.446600	0.986866
H162	H	-0.471491	0.946600	1.486866
H163	H	-0.915290	0.442571	0.922986
H164	H	-0.415290	0.942571	1.422986
H165	H	-0.975488	0.502798	0.922977
H166	H	-0.475488	1.002798	1.422977
