data_functionalizedCrystal
_audit_creation_method	'MofGen! by Chris Wilmer'
_symmetry_space_group_name_H-M	'P1'
_symmetry_Int_Tables_number	1
_symmetry_cell_setting	triclinic
loop_
_symmetry_equiv_pos_as_xyz
  x,y,z
_cell_length_a	16.959454
_cell_length_b	16.959455
_cell_length_c	16.959447
_cell_angle_alpha	89.976354
_cell_angle_beta	90.026736
_cell_angle_gamma	89.984932
loop_
_atom_site_label
_atom_site_type_symbol
_atom_site_fract_x
_atom_site_fract_y
_atom_site_fract_z
Zn1	Zn	-0.314771	-1.208384	0.447125
Zn2	Zn	0.185229	-0.708384	0.947125
Zn3	Zn	-0.446964	-1.208306	0.314955
Zn4	Zn	0.053036	-0.708306	0.814955
Zn5	Zn	-0.314792	-1.076212	0.314941
Zn6	Zn	0.185208	-0.576212	0.814941
Zn7	Zn	-0.446900	-1.076177	0.447072
Zn8	Zn	0.053100	-0.576177	0.947072
O9	O	-0.380857	-1.142270	0.381023
O10	O	0.119143	-0.642270	0.881023
O11	O	-0.332325	-1.318984	0.429620
O12	O	0.167675	-0.818984	0.929620
O13	O	-0.429466	-1.190766	0.204342
O14	O	0.070534	-0.690766	0.704342
O15	O	-0.204178	-1.093792	0.332492
O16	O	0.295822	-0.593792	0.832492
O17	O	-0.429446	-1.318927	0.332515
O18	O	0.070554	-0.818927	0.832515
O19	O	-0.204163	-1.190898	0.429607
O20	O	0.295837	-0.690898	0.929607
O21	O	-0.332360	-1.093717	0.204332
O22	O	0.167640	-0.593717	0.704332
O23	O	-0.332298	-0.965597	0.332440
O24	O	0.167702	-0.465597	0.832440
O25	O	-0.429338	-1.093732	0.557690
O26	O	0.070662	-0.593732	1.057690
O27	O	-0.429358	-0.965571	0.429516
O28	O	0.070642	-0.465571	0.929516
O29	O	-0.332264	-1.190864	0.557729
O30	O	0.167736	-0.690864	1.057729
O31	O	-0.557566	-1.190732	0.332464
O32	O	-0.057566	-0.690732	0.832464
O33	O	-0.557520	-1.093657	0.429530
O34	O	-0.057520	-0.593657	0.929530
C35	C	-0.380824	-0.936904	0.380972
C36	C	0.119176	-0.436904	0.880972
C37	C	-0.380829	-0.849047	0.380968
C38	C	0.119171	-0.349047	0.880968
C39	C	-0.431354	-0.477531	0.330397
C40	C	0.068646	0.022469	0.830397
C41	C	-0.330378	-0.477612	0.431670
C42	C	0.169622	0.022388	0.931670
C43	C	-0.330368	-0.560158	0.431655
C44	C	0.169632	-0.060158	0.931655
C45	C	-0.380853	-0.601394	0.381012
C46	C	0.119147	-0.101394	0.881012
C47	C	-0.431347	-0.560085	0.330382
C48	C	0.068653	-0.060085	0.830382
C49	C	-0.279880	-0.601473	0.482289
C50	C	0.220120	-0.101473	0.982289
C51	C	-0.279868	-0.684024	0.482277
C52	C	0.220132	-0.184024	0.982277
C53	C	-0.330350	-0.725262	0.431629
C54	C	0.169650	-0.225262	0.931629
C55	C	-0.380846	-0.683948	0.380997
C56	C	0.119154	-0.183948	0.880997
C57	C	-0.431330	-0.725184	0.330354
C58	C	0.068670	-0.225184	0.830354
C59	C	-0.481823	-0.683871	0.279717
C60	C	0.018177	-0.183871	0.779717
C61	C	-0.481829	-0.601323	0.279734
C62	C	0.018171	-0.101323	0.779734
C63	C	-0.330344	-0.807811	0.431612
C64	C	0.169656	-0.307811	0.931612
C65	C	-0.431323	-0.807738	0.330339
C66	C	0.068677	-0.307738	0.830339
C67	C	-0.586223	-1.142204	0.381010
C68	C	-0.086223	-0.642204	0.881010
C69	C	-0.674080	-1.142248	0.381030
C70	C	-0.174080	-0.642248	0.881030
C71	C	-1.045561	-1.091796	0.431560
C72	C	-0.545561	-0.591796	0.931560
C73	C	-1.045550	-1.192964	0.330567
C74	C	-0.545550	-0.692964	0.830567
C75	C	-0.963004	-1.192936	0.330560
C76	C	-0.463004	-0.692936	0.830560
C77	C	-0.921733	-1.142337	0.381052
C78	C	-0.421733	-0.642337	0.881052
C79	C	-0.963007	-1.091765	0.431552
C80	C	-0.463007	-0.591765	0.931552
C81	C	-0.921723	-1.243501	0.280055
C82	C	-0.421723	-0.743501	0.780055
C83	C	-0.839172	-1.243475	0.280045
C84	C	-0.339172	-0.743475	0.780045
C85	C	-0.797899	-1.192879	0.330542
C86	C	-0.297899	-0.692879	0.830542
C87	C	-0.839179	-1.142306	0.381045
C88	C	-0.339179	-0.642306	0.881045
C89	C	-0.797908	-1.091707	0.431538
C90	C	-0.297908	-0.591707	0.931538
C91	C	-0.839186	-1.041138	0.482045
C92	C	-0.339186	-0.541138	0.982045
C93	C	-0.921735	-1.041170	0.482050
C94	C	-0.421735	-0.541170	0.982050
C95	C	-0.715351	-1.192847	0.330538
C96	C	-0.215351	-0.692847	0.830538
C97	C	-0.715354	-1.091676	0.431530
C98	C	-0.215354	-0.591676	0.931530
C99	C	-0.174689	-1.142358	0.381054
C100	C	0.325311	-0.642358	0.881054
C101	C	-0.086832	-1.142395	0.381067
C102	C	0.413168	-0.642395	0.881067
C103	C	-0.380791	-1.142303	0.587191
C104	C	0.119209	-0.642303	1.087191
C105	C	-0.380764	-1.142317	0.675048
C106	C	0.119236	-0.642317	1.175048
C107	C	-0.380882	-0.348438	0.381061
C108	C	0.119118	0.151562	0.881061
C109	C	-0.380870	-0.436295	0.381040
C110	C	0.119130	0.063705	0.881040
C111	C	-0.380865	-1.142283	0.175657
C112	C	0.119135	-0.642283	0.675657
C113	C	-0.380670	-1.142422	0.087801
C114	C	0.119330	-0.642422	0.587801
C115	C	-0.431222	-1.091839	1.046506
C116	C	0.068778	-0.591839	1.546506
C117	C	-0.330138	-1.192983	1.046542
C118	C	0.169862	-0.692983	1.546542
C119	C	-0.330155	-1.192962	0.963996
C120	C	0.169845	-0.692962	1.463996
C121	C	-0.380707	-1.142380	0.922701
C122	C	0.119293	-0.642380	1.422701
C123	C	-0.431242	-1.091818	0.963952
C124	C	0.068758	-0.591818	1.463952
C125	C	-0.279626	-1.243529	0.922738
C126	C	0.220374	-0.743529	1.422738
C127	C	-0.279641	-1.243510	0.840187
C128	C	0.220359	-0.743510	1.340187
C129	C	-0.330190	-1.192923	0.798891
C130	C	0.169810	-0.692923	1.298891
C131	C	-0.380727	-1.142359	0.840148
C132	C	0.119273	-0.642359	1.340148
C133	C	-0.431279	-1.091776	0.798853
C134	C	0.068721	-0.591776	1.298853
C135	C	-0.481813	-1.041207	0.840108
C136	C	0.018187	-0.541207	1.340108
C137	C	-0.481791	-1.041231	0.922656
C138	C	0.018209	-0.541231	1.422656
C139	C	-0.330211	-1.192899	0.716343
C140	C	0.169789	-0.692899	1.216343
C141	C	-0.431299	-1.091755	0.716299
C142	C	0.068701	-0.591755	1.216299
H143	H	-0.522937	-0.567678	0.238508
H144	H	-0.022937	-0.067678	0.738508
H145	H	-0.238783	-0.567892	0.523525
H146	H	0.261217	-0.067892	1.023525
N147	N	-0.536277	-0.728350	0.225099
N148	N	-0.036277	-0.228350	0.725099
H149	H	-0.528609	-0.786912	0.232779
H150	H	-0.028609	-0.286912	0.732779
H151	H	-0.523903	-0.713898	0.168669
H152	H	-0.023903	-0.213898	0.668669
H153	H	-0.805574	-0.999936	0.523153
H154	H	-0.305574	-0.499936	1.023153
N155	N	-0.225401	-0.728572	0.536884
N156	N	0.274599	-0.228572	1.036884
H157	H	-0.188728	-0.762806	0.504815
H158	H	0.311272	-0.262806	1.004815
H159	H	-0.257615	-0.762796	0.573445
H160	H	0.242385	-0.262796	1.073445
N161	N	-0.275905	-0.852372	0.486231
N162	N	0.224095	-0.352372	0.986231
H163	H	-0.239229	-0.886616	0.454176
H164	H	0.260771	-0.386616	0.954176
H165	H	-0.308144	-0.886587	0.522779
H166	H	0.191856	-0.386587	1.022779
N167	N	-0.485806	-0.432980	0.275777
N168	N	0.014194	0.067020	0.775777
H169	H	-0.478150	-0.374427	0.283464
H170	H	0.021850	0.125573	0.783464
H171	H	-0.542273	-0.447403	0.287978
H172	H	-0.042273	0.052597	0.787978
N173	N	-0.225109	-1.298087	0.967275
N174	N	0.274891	-0.798087	1.467275
H175	H	-0.232763	-1.290423	1.025828
H176	H	0.267237	-0.790423	1.525828
H177	H	-0.168659	-1.285808	0.952855
H178	H	0.331341	-0.785808	1.452855
H179	H	-0.288985	-1.234170	1.080169
H180	H	0.211015	-0.734170	1.580169
N181	N	-0.536275	-0.986689	0.967165
N182	N	-0.036275	-0.486689	1.467165
H183	H	-0.572901	-1.018802	1.001416
H184	H	-0.072901	-0.518802	1.501416
H185	H	-0.568251	-0.954641	0.928442
H186	H	-0.068251	-0.454641	1.428442
H187	H	-0.681756	-1.050475	0.472651
H188	H	-0.181756	-0.550475	0.972651
H189	H	-0.289280	-0.444032	0.472906
H190	H	0.210720	0.055968	0.972906
N191	N	-0.485708	-1.037293	1.091007
N192	N	0.014292	-0.537293	1.591007
H193	H	-0.522336	-1.069399	1.125261
H194	H	-0.022336	-0.569399	1.625261
H195	H	-0.517683	-1.005251	1.052276
H196	H	-0.017683	-0.505251	1.552276
N197	N	-0.225141	-1.298048	0.795694
N198	N	0.274859	-0.798048	1.295694
H199	H	-0.193115	-1.330095	0.834381
H200	H	0.306885	-0.830095	1.334381
H201	H	-0.188563	-1.265879	0.761450
H202	H	0.311437	-0.765879	1.261450
H203	H	-1.079173	-1.050626	0.472684
H204	H	-0.579173	-0.550626	0.972684
H205	H	-0.955351	-0.999998	0.523169
H206	H	-0.455351	-0.499998	1.023169
N207	N	-1.090059	-1.247523	0.276096
N208	N	-0.590059	-0.747523	0.776096
H209	H	-1.148616	-1.239864	0.283760
H210	H	-0.648616	-0.739864	0.783760
H211	H	-1.075595	-1.303965	0.288451
H212	H	-0.575595	-0.803965	0.788451
H213	H	-0.955332	-1.284690	0.238940
H214	H	-0.455332	-0.784690	0.738940
N215	N	-0.275727	-1.247441	0.671841
N216	N	0.224273	-0.747441	1.171841
H217	H	-0.219240	-1.235205	0.686210
H218	H	0.280760	-0.735205	1.186210
H219	H	-0.283484	-1.239722	0.613296
H220	H	0.216516	-0.739722	1.113296
N221	N	-0.794652	-1.298023	0.225583
N222	N	-0.294652	-0.798023	0.725583
H223	H	-0.809053	-1.285795	0.169092
H224	H	-0.309053	-0.785795	0.669092
H225	H	-0.809000	-1.354471	0.237995
H226	H	-0.309000	-0.854471	0.737995
N227	N	-0.485773	-0.852206	0.275708
N228	N	0.014227	-0.352206	0.775708
H229	H	-0.542266	-0.837835	0.287887
H230	H	-0.042266	-0.337835	0.787887
H231	H	-0.478044	-0.910756	0.283405
H232	H	0.021956	-0.410756	0.783405
H233	H	-0.472458	-1.050557	0.682683
H234	H	0.027542	-0.550557	1.182683
N235	N	-0.670828	-1.247376	0.276064
N236	N	-0.170828	-0.747376	0.776064
H237	H	-0.709500	-1.279432	0.244075
H238	H	-0.209500	-0.779432	0.744075
H239	H	-0.636538	-1.283926	0.308272
H240	H	-0.136538	-0.783926	0.808272
N241	N	-0.536341	-0.986657	0.795566
N242	N	-0.036341	-0.486657	1.295566
H243	H	-0.528685	-0.994324	0.737013
H244	H	-0.028685	-0.494324	1.237013
H245	H	-0.524026	-0.930212	0.809980
H246	H	-0.024026	-0.430212	1.309980
