data_functionalizedCrystal
_audit_creation_method	'MofGen! by Chris Wilmer'
_symmetry_space_group_name_H-M	'P1'
_symmetry_Int_Tables_number	1
_symmetry_cell_setting	triclinic
loop_
_symmetry_equiv_pos_as_xyz
  x,y,z
_cell_length_a	12.784890
_cell_length_b	10.489741
_cell_length_c	11.892083
_cell_angle_alpha	93.926359
_cell_angle_beta	86.509608
_cell_angle_gamma	78.822866
loop_
_atom_site_label
_atom_site_type_symbol
_atom_site_fract_x
_atom_site_fract_y
_atom_site_fract_z
O1	O	1.417110	-0.000920	-0.093969
O2	O	1.108073	0.053659	-0.093978
O3	O	1.269623	-0.160085	-0.093966
O4	O	1.255560	0.212824	-0.093980
O5	O	1.256143	-0.142297	0.094040
O6	O	1.094593	0.071447	0.094029
O7	O	1.403630	0.016868	0.094038
Zn8	Zn	1.246971	0.046982	0.123884
Zn9	Zn	1.264731	0.023545	-0.123824
O10	O	1.242080	0.230612	0.094026
C11	C	1.061760	0.066103	0.000024
C12	C	0.943847	0.076665	0.000020
C13	C	0.765885	0.209038	0.000014
C14	C	0.876674	0.199122	0.000014
C15	C	0.900225	-0.035886	0.000023
C16	C	0.789436	-0.025970	0.000022
C17	C	0.722269	0.096496	0.000020
C18	C	0.611478	0.106412	0.000027
C19	C	0.635032	-0.128596	0.000028
C20	C	0.745821	-0.138512	0.000028
C21	C	1.261821	-0.198594	0.000036
C22	C	1.258643	-0.339836	0.000034
C23	C	1.155853	-0.395442	0.000023
C24	C	1.197764	-0.484715	0.092721
C25	C	1.211079	-0.502230	-0.092639
C26	C	1.300590	-0.427242	0.092809
C27	C	1.313896	-0.444753	-0.092634
C28	C	1.355880	-0.534006	0.000087
C29	C	1.449942	0.004424	0.000034
C30	C	1.567856	-0.006139	0.000030
C31	C	1.249882	0.269120	0.000021
C32	C	1.253060	0.410362	0.000016
N33	N	1.234858	0.062975	0.292937
N34	N	1.276853	0.007541	-0.292877
C35	C	1.150634	0.174388	0.470469
C36	C	1.159081	0.163191	0.352127
C37	C	1.302190	-0.026054	0.352096
C38	C	1.293742	-0.014857	0.470438
C39	C	1.217963	0.085368	0.529620
C40	C	1.209521	0.096570	0.647964
C41	C	1.352624	-0.092680	0.647930
C42	C	1.361071	-0.103877	0.529589
H43	H	0.954932	-0.135592	0.000016
F44	F	1.069994	0.281064	0.533456
F45	F	1.441715	-0.210542	0.466593
F46	F	1.378043	-0.420792	-0.195071
F47	F	1.087418	0.257936	0.289178
F48	F	1.161551	-0.545486	-0.195068
F49	F	1.128874	0.203240	0.710947
H50	H	0.912180	0.290766	0.000012
H51	H	1.148652	-0.503008	0.171089
H52	H	1.071334	-0.335476	0.000113
F53	F	1.382826	-0.132725	0.289098
H54	H	1.407451	-0.165163	0.696105
H55	H	0.599516	-0.220244	-0.000058
F56	F	0.817315	-0.268841	0.000031
H57	H	0.556791	0.206131	0.000031
F58	F	1.466439	-0.612087	0.000155
F59	F	0.694397	0.339375	0.000029
H60	H	1.338420	-0.394286	0.171267
