data_functionalizedCrystal
_audit_creation_method	'MofGen! by Chris Wilmer'
_symmetry_space_group_name_H-M	'P1'
_symmetry_Int_Tables_number	1
_symmetry_cell_setting	triclinic
loop_
_symmetry_equiv_pos_as_xyz
  x,y,z
_cell_length_a	10.686220
_cell_length_b	14.908520
_cell_length_c	10.686551
_cell_angle_alpha	90.862058
_cell_angle_beta	89.691918
_cell_angle_gamma	97.432447
loop_
_atom_site_label
_atom_site_type_symbol
_atom_site_fract_x
_atom_site_fract_y
_atom_site_fract_z
Zn1	Zn	1.955964	-0.219797	0.581353
Zn2	Zn	2.455964	0.280203	1.081353
Zn3	Zn	1.927616	-0.382976	0.385676
Zn4	Zn	2.427616	0.117024	0.885676
Zn5	Zn	1.728370	-0.242859	0.389661
Zn6	Zn	2.228370	0.257141	0.889661
Zn7	Zn	1.734182	-0.381149	0.611296
Zn8	Zn	2.234182	0.118851	1.111296
O9	O	1.836533	-0.306695	0.491996
O10	O	2.336533	0.193305	0.991996
O11	O	2.128406	-0.232556	0.541197
O12	O	2.628406	0.267444	1.041197
O13	O	1.886890	-0.374806	0.211558
O14	O	2.386890	0.125194	0.711558
O15	O	1.767992	-0.113634	0.404226
O16	O	2.267992	0.386366	0.904226
O17	O	2.107578	-0.352443	0.397434
O18	O	2.607578	0.147557	0.897434
O19	O	1.935205	-0.096690	0.545061
O20	O	2.435205	0.403310	1.045061
O21	O	1.740504	-0.271863	0.214485
O22	O	2.240504	0.228137	0.714485
O23	O	1.552939	-0.270091	0.433260
O24	O	2.052939	0.229909	0.933260
O25	O	1.777898	-0.349329	0.781970
O26	O	2.277898	0.150671	1.281970
O27	O	1.557209	-0.371692	0.596094
O28	O	2.057209	0.128308	1.096094
O29	O	1.940840	-0.230784	0.759972
O30	O	2.440840	0.269216	1.259972
O31	O	1.892525	-0.508900	0.426468
O32	O	2.392525	-0.008900	0.926468
O33	O	1.750410	-0.507558	0.592230
O34	O	2.250410	-0.007558	1.092230
C35	C	1.509387	-0.323196	0.518359
C36	C	2.009387	0.176804	1.018359
C37	C	1.369433	-0.330276	0.529669
C38	C	1.869433	0.169724	1.029669
C39	C	1.819059	-0.540939	0.512190
C40	C	2.319059	-0.040939	1.012190
C41	C	1.811702	-0.641141	0.520862
C42	C	2.311702	-0.141141	1.020862
C43	C	1.946038	-0.830752	0.364664
C44	C	2.446038	-0.330752	0.864664
C45	C	1.939129	-0.924900	0.372807
C46	C	2.439129	-0.424900	0.872807
C47	C	1.790984	-0.923588	0.545297
C48	C	2.290984	-0.423588	1.045297
C49	C	1.797892	-0.829439	0.537153
C50	C	2.297892	-0.329439	1.037153
C51	C	1.875420	-0.783025	0.446833
C52	C	2.375420	-0.283025	0.946833
C53	C	1.882321	-0.688875	0.438684
C54	C	2.382321	-0.188875	0.938684
C55	C	1.734183	-0.687563	0.611179
C56	C	2.234183	-0.187563	1.111179
C57	C	1.727275	-0.781712	0.619322
C58	C	2.227275	-0.281712	1.119322
C59	C	2.164957	-0.290130	0.465531
C60	C	2.664957	0.209870	0.965531
C61	C	2.304911	-0.283071	0.454253
C62	C	2.804911	0.216929	0.954253
C63	C	1.863180	-0.287280	0.817521
C64	C	2.363180	0.212720	1.317521
C65	C	1.874535	-0.279006	0.956240
C66	C	2.374535	0.220994	1.456240
C67	C	1.854112	-0.071534	0.471748
C68	C	2.354112	0.428466	0.971748
C69	C	1.861603	0.028678	0.463119
C70	C	2.361603	0.528678	0.963119
C71	C	1.810067	-0.325966	0.167726
C72	C	2.310067	0.174034	0.667726
C73	C	1.798975	-0.333974	0.028966
C74	C	2.298975	0.166026	0.528966
H75	H	1.317597	-0.376113	0.602887
H76	H	1.817597	0.123887	1.102887
H77	H	1.725601	-0.387365	0.985105
H78	H	2.225601	0.112635	1.485105
H79	H	1.945445	-0.651085	0.365138
H80	H	2.445445	-0.151085	0.865138
H81	H	1.996636	-0.963756	0.305899
H82	H	2.496636	-0.463756	0.805899
H83	H	2.009155	-0.792961	0.291113
H84	H	2.509155	-0.292961	0.791113
H85	H	1.947922	-0.225617	1.000107
H86	H	2.447922	0.274383	1.500107
H87	H	1.727873	-0.961394	0.618839
H88	H	2.227873	-0.461394	1.118839
Br89	Br	1.622071	-0.844711	0.741900
Br90	Br	2.122071	-0.344711	1.241900
H91	H	1.676678	-0.648694	0.678083
H92	H	2.176678	-0.148694	1.178083
H93	H	1.356740	-0.237243	0.381033
H94	H	1.856740	0.262757	0.881033
