data_functionalizedCrystal
_audit_creation_method	'MofGen! by Chris Wilmer'
_symmetry_space_group_name_H-M	'P1'
_symmetry_Int_Tables_number	1
_symmetry_cell_setting	triclinic
loop_
_symmetry_equiv_pos_as_xyz
  x,y,z
_cell_length_a	12.827893
_cell_length_b	12.759400
_cell_length_c	12.827885
_cell_angle_alpha	90.029377
_cell_angle_beta	90.019081
_cell_angle_gamma	90.013136
loop_
_atom_site_label
_atom_site_type_symbol
_atom_site_fract_x
_atom_site_fract_y
_atom_site_fract_z
Zn1	Zn	1.597686	-0.418216	0.590846
Zn2	Zn	1.597587	-0.593932	0.416108
Zn3	Zn	1.422927	-0.418267	0.416121
Zn4	Zn	1.422919	-0.593854	0.590808
O5	O	1.510280	-0.506067	0.503471
O6	O	1.743909	-0.441537	0.567677
O7	O	1.574380	-0.570684	0.269873
O8	O	1.446154	-0.271240	0.439319
O9	O	1.743836	-0.570634	0.439298
O10	O	1.574548	-0.271202	0.567690
O11	O	1.446058	-0.441624	0.269883
O12	O	1.276690	-0.441548	0.439283
O13	O	1.446141	-0.570501	0.737050
O14	O	1.276684	-0.570550	0.567625
O15	O	1.574541	-0.441461	0.737077
O16	O	1.574372	-0.740942	0.439261
O17	O	1.446044	-0.740885	0.567613
C18	C	1.238770	-0.506047	0.503452
C19	C	1.122617	-0.506064	0.503468
C20	C	0.950823	-0.442314	0.567109
C21	C	1.070874	-0.442295	0.567094
C22	C	1.510225	-0.779035	0.503454
C23	C	1.510297	-0.895811	0.503482
C24	C	1.577119	-0.950574	0.570379
C25	C	1.577167	-1.060298	0.570405
C26	C	1.443570	-1.060487	0.436627
C27	C	1.443517	-0.950765	0.436608
C28	C	1.643899	-0.895620	0.637254
C29	C	1.710727	-0.950383	0.704156
C30	C	1.710775	-1.060107	0.704181
C31	C	1.643996	-1.115068	0.637305
C32	C	1.782850	-0.506088	0.503490
C33	C	1.899003	-0.506097	0.503499
C34	C	1.510351	-0.505966	0.776041
C35	C	1.510381	-0.505923	0.892194
C36	C	1.510363	-0.232034	0.503510
C37	C	1.510399	-0.115257	0.503527
C38	C	1.510269	-0.506092	0.231961
C39	C	1.510441	-0.505839	0.115808
C40	C	1.573925	-0.442058	0.943993
C41	C	1.573957	-0.442012	1.064043
H42	H	1.115438	-0.387684	0.621549
H43	H	1.078059	-0.560672	0.449004
O44	O	0.952210	-0.571283	0.438658
C45	C	1.075501	-0.713025	0.424462
C46	C	1.015332	-0.639250	0.498013
H47	H	1.126533	-0.768010	0.472422
H48	H	1.126653	-0.664729	0.369959
H49	H	1.017794	-0.761004	0.376546
H50	H	1.072964	-0.591256	0.545996
H51	H	0.964165	-0.687606	0.552447
O52	O	1.775555	-0.896837	0.769020
C53	C	1.834644	-0.727721	0.828320
C54	C	1.761190	-0.788228	0.754788
H55	H	1.823040	-0.639900	0.816854
H56	H	1.918951	-0.749173	0.810045
H57	H	1.816269	-0.749308	0.912561
H58	H	1.779472	-0.766673	0.670522
H59	H	1.676906	-0.766771	0.773152
O60	O	1.445657	-0.571232	0.945353
C61	C	1.431705	-0.712880	1.068735
C62	C	1.505125	-0.638995	1.008585
H63	H	1.479754	-0.767670	1.119890
H64	H	1.383877	-0.761051	1.011109
H65	H	1.377113	-0.664557	1.119794
H66	H	1.559779	-0.687237	0.957526
H67	H	1.552879	-0.590821	1.066268
O68	O	1.775782	-1.113143	0.769203
C69	C	1.908244	-1.101369	0.901932
C70	C	1.834689	-1.041179	0.828333
H71	H	1.955874	-1.043213	0.949773
H72	H	1.963004	-1.152707	0.854061
H73	H	1.860246	-1.152759	0.956501
H74	H	1.882602	-0.989732	0.773749
H75	H	1.779926	-0.989907	0.876268
H76	H	1.643869	-0.806278	0.637238
O77	O	1.445392	-0.571031	1.062800
C78	C	1.267641	-0.621974	1.029138
C79	C	1.341188	-0.548092	1.089260
H80	H	1.183376	-0.603440	1.050492
H81	H	1.285873	-0.706717	1.050554
H82	H	1.279231	-0.610413	0.941789
H83	H	1.329639	-0.559560	1.176622
H84	H	1.322938	-0.463377	1.067756
O85	O	1.378809	-1.114035	0.371696
C86	C	1.319644	-1.283154	0.312481
C87	C	1.393054	-1.222644	0.386054
H88	H	1.331120	-1.370974	0.324080
H89	H	1.338031	-1.261705	0.228206
H90	H	1.235371	-1.261568	0.330743
H91	H	1.477352	-1.244197	0.367887
H92	H	1.374577	-1.244098	0.470307
H93	H	0.906312	-0.387725	0.621585
O94	O	1.378571	-0.897724	0.371530
C95	C	1.246007	-0.909481	0.238901
C96	C	1.319532	-0.969680	0.312523
H97	H	1.198240	-0.967631	0.191190
H98	H	1.293931	-0.858138	0.184220
H99	H	1.191366	-0.858095	0.286852
H100	H	1.374188	-1.021123	0.264656
H101	H	1.271543	-1.020957	0.367207
H102	H	1.644029	-1.204413	0.637343
H103	H	1.628298	-0.387410	0.899463
O104	O	1.638761	-0.376809	1.117338
C105	C	1.697953	-0.317385	1.285586
C106	C	1.624492	-0.391267	1.225359
H107	H	1.686457	-0.329065	1.372932
H108	H	1.679634	-0.232634	1.264276
H109	H	1.782214	-0.335813	1.264128
H110	H	1.540206	-0.372934	1.246784
H111	H	1.642900	-0.475996	1.246675
