data_functionalizedCrystal
_audit_creation_method	'MofGen! by Chris Wilmer'
_symmetry_space_group_name_H-M	'P1'
_symmetry_Int_Tables_number	1
_symmetry_cell_setting	triclinic
loop_
_symmetry_equiv_pos_as_xyz
  x,y,z
_cell_length_a	18.050590
_cell_length_b	18.050590
_cell_length_c	18.050591
_cell_angle_alpha	90.005734
_cell_angle_beta	89.986577
_cell_angle_gamma	90.007719
loop_
_atom_site_label
_atom_site_type_symbol
_atom_site_fract_x
_atom_site_fract_y
_atom_site_fract_z
Zn1	Zn	1.135250	-0.296050	0.419597
Zn2	Zn	1.468583	0.037283	0.752931
Zn3	Zn	1.801916	0.370616	1.086264
Zn4	Zn	1.135209	-0.420195	0.295406
Zn5	Zn	1.468542	-0.086862	0.628739
Zn6	Zn	1.801875	0.246471	0.962072
Zn7	Zn	1.011096	-0.296000	0.295456
Zn8	Zn	1.344430	0.037333	0.628789
Zn9	Zn	1.677763	0.370666	0.962122
Zn10	Zn	1.011038	-0.420180	0.419588
Zn11	Zn	1.344371	-0.086846	0.752922
Zn12	Zn	1.677704	0.246487	1.086255
O13	O	1.073148	-0.358106	0.357512
O14	O	1.406481	-0.024773	0.690845
O15	O	1.739815	0.308560	1.024178
O16	O	1.239169	-0.312546	0.403106
O17	O	1.572502	0.020787	0.736439
O18	O	1.905835	0.354121	1.069773
O19	O	1.118752	-0.403706	0.191488
O20	O	1.452086	-0.070373	0.524821
O21	O	1.785419	0.262960	0.858155
O22	O	1.027607	-0.192082	0.311948
O23	O	1.360940	0.141251	0.645281
O24	O	1.694274	0.474584	0.978615
O25	O	1.239139	-0.403755	0.311863
O26	O	1.572472	-0.070422	0.645196
O27	O	1.905805	0.262912	0.978530
O28	O	1.118822	-0.192119	0.403154
O29	O	1.452155	0.141214	0.736488
O30	O	1.785489	0.474548	1.069821
O31	O	1.027567	-0.312461	0.191524
O32	O	1.360901	0.020873	0.524858
O33	O	1.694234	0.354206	0.858191
O34	O	0.907164	-0.312445	0.311939
O35	O	1.240497	0.020888	0.645272
O36	O	1.573831	0.354221	0.978606
O37	O	1.027507	-0.403728	0.523514
O38	O	1.360841	-0.070394	0.856847
O39	O	1.694174	0.262939	1.190181
O40	O	0.907121	-0.403679	0.403139
O41	O	1.240454	-0.070346	0.736472
O42	O	1.573788	0.262987	1.069805
O43	O	1.118765	-0.312531	0.523521
O44	O	1.452099	0.020803	0.856854
O45	O	1.785432	0.354136	1.190187
O46	O	1.118696	-0.524118	0.311854
O47	O	1.452029	-0.190785	0.645188
O48	O	1.785362	0.142549	0.978521
O49	O	1.027468	-0.524106	0.403091
O50	O	1.360801	-0.190773	0.736424
O51	O	1.694134	0.142560	1.069757
C52	C	0.880196	-0.358056	0.357544
C53	C	1.213529	-0.024722	0.690877
C54	C	1.546863	0.308611	1.024210
C55	C	0.797650	-0.358052	0.357575
C56	C	1.130984	-0.024719	0.690908
C57	C	1.464317	0.308615	1.024242
C58	C	0.598198	-0.407807	0.407052
C59	C	0.931531	-0.074474	0.740385
C60	C	1.264864	0.258860	1.073718
C61	C	0.548789	-0.340098	0.425328
C62	C	0.882123	-0.006764	0.758661
C63	C	1.215456	0.326569	1.091994
C64	C	0.646520	-0.358093	0.357539
C65	C	0.979853	-0.024760	0.690872
C66	C	1.313187	0.308573	1.024205
C67	C	0.548847	-0.425842	0.339262
C68	C	0.882180	-0.092508	0.672595
C69	C	1.215513	0.240825	1.005929
C70	C	0.500535	-0.358139	0.357505
C71	C	0.833868	-0.024806	0.690838
C72	C	1.167201	0.308527	1.024172
C73	C	0.598199	-0.290348	0.375850
C74	C	0.931532	0.042985	0.709184
C75	C	1.264865	0.376319	1.042517
C76	C	0.598260	-0.376138	0.289753
C77	C	0.931594	-0.042804	0.623086
C78	C	1.264927	0.290529	0.956420
C79	C	0.548874	-0.308382	0.308003
C80	C	0.882207	0.024952	0.641337
C81	C	1.215541	0.358285	0.974670
C82	C	0.730618	-0.358068	0.357560
C83	C	1.063951	-0.024735	0.690893
C84	C	1.397285	0.308599	1.024227
C85	C	0.416438	-0.358157	0.357484
C86	C	0.749772	-0.024824	0.690817
C87	C	1.083105	0.308509	1.024150
C88	C	1.073091	-0.551059	0.357482
C89	C	1.406424	-0.217725	0.690816
C90	C	1.739758	0.115608	1.024149
C91	C	1.073135	-0.633604	0.357494
C92	C	1.406468	-0.300271	0.690828
C93	C	1.739801	0.033062	1.024161
C94	C	1.122847	-0.833034	0.307949
C95	C	1.456181	-0.499701	0.641283
C96	C	1.789514	-0.166368	0.974616
C97	C	1.140968	-0.882397	0.375724
C98	C	1.474301	-0.549064	0.709058
C99	C	1.807635	-0.215731	1.042391
C100	C	1.073177	-0.784735	0.357524
C101	C	1.406510	-0.451401	0.690857
C102	C	1.739843	-0.118068	1.024191
C103	C	1.055132	-0.882453	0.289779
C104	C	1.388465	-0.549120	0.623113
C105	C	1.721798	-0.215787	0.956446
C106	C	1.073219	-0.930720	0.357547
C107	C	1.406552	-0.597386	0.690880
C108	C	1.739885	-0.264053	1.024213
C109	C	1.091332	-0.833010	0.425335
C110	C	1.424665	-0.499677	0.758668
C111	C	1.757999	-0.166344	1.092001
C112	C	1.005464	-0.833062	0.339344
C113	C	1.338798	-0.499729	0.672677
C114	C	1.672131	-0.166396	1.006011
C115	C	1.023559	-0.882403	0.407166
C116	C	1.356892	-0.549069	0.740499
C117	C	1.690226	-0.215736	1.073832
C118	C	1.073154	-0.700636	0.357510
C119	C	1.406488	-0.367303	0.690843
C120	C	1.739821	-0.033970	1.024177
C121	C	1.073241	-1.014816	0.357568
C122	C	1.406574	-0.681483	0.690902
C123	C	1.739908	-0.348150	1.024235
C124	C	1.266854	-0.358158	0.357480
C125	C	1.600187	-0.024825	0.690813
C126	C	1.933520	0.308509	1.024147
C127	C	1.349399	-0.358180	0.357467
C128	C	1.682733	-0.024846	0.690800
C129	C	2.016066	0.308487	1.024133
C130	C	1.073134	-0.358133	0.551217
C131	C	1.406468	-0.024800	0.884551
C132	C	1.739801	0.308534	1.217884
C133	C	1.073129	-0.358144	0.633763
C134	C	1.406462	-0.024811	0.967096
C135	C	1.739795	0.308522	1.300430
C136	C	1.073226	-0.164401	0.357558
C137	C	1.406559	0.168933	0.690891
C138	C	1.739892	0.502266	1.024224
C139	C	1.073259	-0.081855	0.357577
C140	C	1.406592	0.251478	0.690911
C141	C	1.739925	0.584812	1.024244
C142	C	1.023496	-0.407731	0.833210
C143	C	1.356830	-0.074398	1.166543
C144	C	1.690163	0.258936	1.499877
C145	C	1.091244	-0.425912	0.882583
C146	C	1.424577	-0.092579	1.215916
C147	C	1.757911	0.240754	1.549249
C148	C	1.073132	-0.358134	0.784893
C149	C	1.406465	-0.024801	1.118227
C150	C	1.739798	0.308533	1.451560
C151	C	1.005389	-0.339977	0.882603
C152	C	1.338722	-0.006644	1.215936
C153	C	1.672056	0.326689	1.549269
C154	C	1.073129	-0.358126	0.930879
C155	C	1.406462	-0.024792	1.264212
C156	C	1.739796	0.308541	1.597545
C157	C	1.140915	-0.376351	0.833179
C158	C	1.474248	-0.043017	1.166512
C159	C	1.807582	0.290316	1.499845
C160	C	1.055015	-0.290384	0.833194
C161	C	1.388348	0.042949	1.166528
C162	C	1.721681	0.376283	1.499861
C163	C	1.122809	-0.308540	0.882545
C164	C	1.456142	0.024794	1.215878
C165	C	1.789475	0.358127	1.549211
C166	C	1.073132	-0.358141	0.700795
C167	C	1.406466	-0.024808	1.034129
C168	C	1.739799	0.308526	1.367462
C169	C	1.073136	-0.358119	1.014975
C170	C	1.406469	-0.024785	1.348308
C171	C	1.739803	0.308548	1.681642
C172	C	1.073149	-0.358104	1.164560
C173	C	1.406482	-0.024770	1.497893
C174	C	1.739816	0.308563	1.831226
C175	C	1.073133	-0.358113	1.082014
C176	C	1.406467	-0.024780	1.415347
C177	C	1.739800	0.308554	1.748681
H178	H	0.527060	-0.324850	0.482638
H179	H	0.860393	0.008483	0.815972
H180	H	1.193726	0.341816	1.149305
H181	H	1.106555	-0.811384	0.482684
H182	H	1.439888	-0.478050	0.816018
H183	H	1.773222	-0.144717	1.149351
H184	H	0.981572	-0.903943	0.449148
H185	H	1.314906	-0.570609	0.782481
H186	H	1.648239	-0.237276	1.115814
N187	N	1.034888	-0.911209	0.213876
N188	N	1.368222	-0.577875	0.547209
N189	N	1.701555	-0.244542	0.880543
H190	H	0.984093	-0.892487	0.199752
H191	H	1.317426	-0.559154	0.533085
H192	H	1.650760	-0.225820	0.866418
H193	H	1.034624	-0.967155	0.214606
H194	H	1.367957	-0.633821	0.547939
H195	H	1.701291	-0.300488	0.881273
H196	H	0.527164	-0.483115	0.323820
H197	H	0.860498	-0.149782	0.657153
H198	H	1.193831	0.183551	0.990486
H199	H	0.981575	-0.449709	0.811549
H200	H	1.314908	-0.116376	1.144882
H201	H	1.648241	0.216958	1.478215
H202	H	1.039667	-0.233109	0.811484
H203	H	1.373000	0.100224	1.144817
H204	H	1.706334	0.433557	1.478151
N205	N	0.929611	-0.804329	0.318936
N206	N	1.262944	-0.470996	0.652269
N207	N	1.596277	-0.137663	0.985602
H208	H	0.916007	-0.822283	0.267717
H209	H	1.249340	-0.488949	0.601050
H210	H	1.582674	-0.155616	0.934384
H211	H	0.930097	-0.748384	0.319601
H212	H	1.263431	-0.415050	0.652935
H213	H	1.596764	-0.081717	0.986268
N214	N	1.111554	-0.501797	0.911321
N215	N	1.444887	-0.168464	1.244654
N216	N	1.778221	0.164869	1.577987
H217	H	1.074034	-0.539232	0.893380
H218	H	1.407367	-0.205899	1.226713
H219	H	1.740700	0.127435	1.560046
H220	H	1.111887	-0.501043	0.967266
H221	H	1.445221	-0.167709	1.300599
H222	H	1.778554	0.165624	1.633933
H223	H	0.619786	-0.233057	0.391359
H224	H	0.953120	0.100277	0.724693
H225	H	1.286453	0.433610	1.058026
N226	N	0.520366	-0.252663	0.252515
N227	N	0.853699	0.080670	0.585849
N228	N	1.187033	0.414004	0.919182
H229	H	0.538417	-0.201551	0.266402
H230	H	0.871750	0.131782	0.599736
H231	H	1.205084	0.465115	0.933069
H232	H	0.464418	-0.253350	0.252518
H233	H	0.797752	0.079984	0.585852
H234	H	1.131085	0.413317	0.919185
N235	N	0.627060	-0.396350	0.213855
N236	N	0.960394	-0.063017	0.547189
N237	N	1.293727	0.270316	0.880522
H238	H	0.609138	-0.447544	0.200104
H239	H	0.942472	-0.114211	0.533437
H240	H	1.275805	0.219123	0.866770
H241	H	0.683005	-0.395660	0.214363
H242	H	1.016339	-0.062327	0.547696
H243	H	1.349672	0.271007	0.881030
N244	N	1.216823	-0.396775	0.804552
N245	N	1.550157	-0.063442	1.137885
N246	N	1.883490	0.269891	1.471219
H247	H	1.216351	-0.396674	0.748601
H248	H	1.549684	-0.063341	1.081934
H249	H	1.883018	0.269993	1.415267
H250	H	1.230574	-0.447769	0.823007
H251	H	1.563908	-0.114436	1.156341
H252	H	1.897241	0.218897	1.489674
H253	H	0.619857	-0.449774	0.448970
H254	H	0.953191	-0.116441	0.782303
H255	H	1.286524	0.216892	1.115637
H256	H	1.164866	-0.811357	0.266069
H257	H	1.498200	-0.478024	0.599402
H258	H	1.831533	-0.144691	0.932735
N259	N	1.216838	-0.911110	0.396117
N260	N	1.550172	-0.577776	0.729450
N261	N	1.883505	-0.244443	1.062783
H262	H	1.254310	-0.893158	0.358632
H263	H	1.587643	-0.559824	0.691965
H264	H	1.920976	-0.226491	1.025298
H265	H	1.216099	-0.967055	0.396457
H266	H	1.549432	-0.633722	0.729790
H267	H	1.882765	-0.300389	1.063124
H268	H	1.164831	-0.266594	0.904070
H269	H	1.498164	0.066740	1.237403
H270	H	1.831498	0.400073	1.570737
N271	N	0.929509	-0.319635	0.911364
N272	N	1.262843	0.013698	1.244698
N273	N	1.596176	0.347032	1.578031
H274	H	0.892061	-0.357139	0.893418
H275	H	1.225395	-0.023806	1.226752
H276	H	1.558728	0.309527	1.560085
H277	H	0.915505	-0.268815	0.892621
H278	H	1.248838	0.064518	1.225955
H279	H	1.582172	0.397852	1.559288
