data_functionalizedCrystal
_audit_creation_method	'MofGen! by Chris Wilmer'
_symmetry_space_group_name_H-M	'P1'
_symmetry_Int_Tables_number	1
_symmetry_cell_setting	triclinic
loop_
_symmetry_equiv_pos_as_xyz
  x,y,z
_cell_length_a	13.339070
_cell_length_b	15.944551
_cell_length_c	12.376457
_cell_angle_alpha	101.276265
_cell_angle_beta	75.589755
_cell_angle_gamma	99.564016
loop_
_atom_site_label
_atom_site_type_symbol
_atom_site_fract_x
_atom_site_fract_y
_atom_site_fract_z
O1	O	1.361721	0.409519	-0.094056
O2	O	1.067189	0.354248	-0.094048
O3	O	1.222496	0.261484	-0.094042
O4	O	1.206414	0.502283	-0.094062
O5	O	1.183683	0.284634	0.093969
O6	O	1.028376	0.377398	0.093963
O7	O	1.322908	0.432670	0.093955
Zn8	Zn	1.169480	0.408710	0.123810
Zn9	Zn	1.220618	0.378208	-0.123903
O10	O	1.167601	0.525433	0.093949
C11	C	1.010092	0.356487	-0.000041
C12	C	0.897788	0.328657	-0.000038
C13	C	0.533017	0.545045	-0.000074
C14	C	0.638533	0.571195	-0.000081
C15	C	0.703352	0.510563	-0.000069
C16	C	0.662645	0.423776	-0.000053
C17	C	0.557120	0.397623	-0.000055
C18	C	0.727455	0.363140	-0.000050
C19	C	0.686748	0.276354	-0.000033
C20	C	0.581233	0.250205	-0.000035
C21	C	0.516415	0.310837	-0.000046
C22	C	0.832979	0.389294	-0.000048
C23	C	0.857082	0.241871	-0.000029
C24	C	0.751566	0.215722	-0.000022
C25	C	1.202422	0.241610	-0.000036
C26	C	1.200420	0.147897	-0.000036
C27	C	1.099369	-0.090507	-0.000048
C28	C	1.127158	-0.129176	0.092651
C29	C	1.196799	-0.023674	-0.000044
C30	C	1.165448	-0.151979	-0.092713
C31	C	1.193296	-0.189405	-0.000057
C32	C	1.224599	-0.061099	0.092732
C33	C	1.262892	-0.083908	-0.092715
C34	C	1.290747	-0.122540	0.000007
C35	C	1.198814	0.071800	-0.000036
C36	C	1.191287	-0.284874	-0.000058
C37	C	1.380005	0.430431	-0.000054
C38	C	1.492311	0.458260	-0.000065
C39	C	1.187676	0.545308	-0.000059
C40	C	1.189680	0.639019	-0.000067
N41	N	1.134587	0.429527	0.292867
N42	N	1.255518	0.357386	-0.292960
C43	C	1.336516	0.309045	0.647859
C44	C	1.360931	0.294473	0.529520
C45	C	1.304347	0.328235	0.470351
C46	C	1.223343	0.376572	0.529532
C47	C	1.198930	0.391151	0.647883
C48	C	1.166762	0.410341	0.470375
C49	C	1.085758	0.458678	0.529556
C50	C	1.061349	0.473254	0.647895
C51	C	1.117933	0.439492	0.707064
C52	C	1.191175	0.395762	0.352024
C53	C	1.053590	0.477868	0.352048
C54	C	1.029174	0.492440	0.470387
H55	H	0.430494	0.289550	-0.000040
N56	N	0.995764	0.512356	0.291639
N57	N	0.923447	0.555515	0.344490
H58	H	0.882611	0.579872	0.301821
N59	N	0.923269	0.179917	-0.000025
N60	N	0.935919	0.117884	-0.079272
H61	H	0.982668	0.074131	-0.079273
H62	H	0.963219	0.531797	0.518587
N63	N	0.539672	0.161550	-0.000040
N64	N	0.597551	0.107421	-0.000035
H65	H	0.568202	0.044807	-0.000041
H66	H	0.718409	0.145057	-0.000018
N67	N	1.394334	0.274565	0.708272
N68	N	1.490566	0.295929	0.695020
H69	H	1.531411	0.271577	0.737683
H70	H	0.866111	0.459956	-0.000057
N71	N	0.997889	-0.072355	0.000073
N72	N	0.922517	-0.088166	0.079549
H73	H	0.850846	-0.075345	0.079639
N74	N	1.055158	-0.154340	0.190963
N75	N	0.960824	-0.145729	0.207482
H76	H	0.909967	-0.163500	0.276912
N77	N	1.092965	0.454371	0.827948
N78	N	1.020633	0.497521	0.880777
H79	H	1.002992	0.508021	0.966154
N80	N	0.978620	0.522647	0.708331
N81	N	0.928110	0.552792	0.655495
H82	H	0.869684	0.587679	0.698175
H83	H	0.789267	0.531859	-0.000078
H84	H	1.426885	0.255119	0.481339
N85	N	1.334854	-0.058732	-0.191035
N86	N	1.384131	-0.113387	-0.261694
H87	H	1.434951	-0.095609	-0.331141
H88	H	0.671671	0.641855	-0.000103
H89	H	1.140405	-0.191311	-0.171088
H90	H	0.480235	0.594401	-0.000092
N91	N	1.255938	-0.011861	0.191147
N92	N	1.262492	0.068540	0.207055
H93	H	1.284622	0.103317	0.276562
N94	N	1.273863	0.346342	0.291569
N95	N	1.269692	0.270003	0.304806
H96	H	1.328078	0.235081	0.262100
N97	N	1.392278	-0.140461	0.000074
N98	N	1.434657	-0.105232	0.079735
H99	H	1.506362	-0.117888	0.079788
N100	N	1.329304	0.313350	0.349472
N101	N	1.401631	0.270194	0.296645
H102	H	1.419260	0.259677	0.211269
