data_functionalizedCrystal
_audit_creation_method	'MofGen! by Chris Wilmer'
_symmetry_space_group_name_H-M	'P1'
_symmetry_Int_Tables_number	1
_symmetry_cell_setting	triclinic
loop_
_symmetry_equiv_pos_as_xyz
  x,y,z
_cell_length_a	23.532407
_cell_length_b	23.532357
_cell_length_c	22.610064
_cell_angle_alpha	89.998517
_cell_angle_beta	89.997161
_cell_angle_gamma	82.838485
loop_
_atom_site_label
_atom_site_type_symbol
_atom_site_fract_x
_atom_site_fract_y
_atom_site_fract_z
O1	O	0.755251	0.069129	-0.049118
O2	O	1.255251	0.569129	0.450882
O3	O	0.589386	0.079132	-0.049136
O4	O	1.089386	0.579132	0.450864
O5	O	0.677335	-0.008803	-0.049114
O6	O	1.177335	0.491197	0.450886
O7	O	0.667302	0.157064	-0.049140
O8	O	1.167302	0.657064	0.450860
O9	O	0.677319	-0.008790	0.049255
O10	O	1.177319	0.491210	0.549255
O11	O	0.589370	0.079145	0.049233
O12	O	1.089370	0.579145	0.549233
O13	O	0.755236	0.069142	0.049251
O14	O	1.255236	0.569142	0.549251
Zn15	Zn	0.672301	0.074145	0.064860
Zn16	Zn	1.172301	0.574145	0.564860
Zn17	Zn	0.672321	0.074128	-0.064745
Zn18	Zn	1.172321	0.574128	0.435255
O19	O	0.667286	0.157077	0.049229
O20	O	1.167286	0.657077	0.549229
C21	C	0.568162	0.078884	0.000046
C22	C	1.068162	0.578884	0.500046
C23	C	0.504945	0.078118	0.000040
C24	C	1.004945	0.578118	0.500040
C25	C	0.677076	-0.030013	0.000072
C26	C	1.177076	0.469987	0.500072
C27	C	0.676322	-0.093232	0.000078
C28	C	1.176322	0.406768	0.500078
C29	C	0.105834	0.125353	0.000059
C30	C	0.605834	0.625353	0.500059
C31	C	0.046434	0.124641	0.000063
C32	C	0.546434	0.624641	0.500063
O33	O	0.009681	0.168428	0.000078
O34	O	0.509681	0.668428	0.500078
N35	N	0.023817	0.072364	0.000070
N36	N	0.523817	0.572364	0.500070
C37	C	0.060604	0.020794	0.000079
C38	C	0.560604	0.520794	0.500079
O39	O	0.035912	-0.023737	0.000086
O40	O	0.535912	0.476263	0.500086
C41	C	0.120003	0.021506	0.000080
C42	C	0.620003	0.521506	0.500080
C43	C	0.142616	0.073787	0.000067
C44	C	0.642616	0.573787	0.500067
C45	C	0.128448	0.177629	0.000047
C46	C	0.628448	0.677629	0.500047
C47	C	0.187844	0.178341	0.000042
C48	C	0.687844	0.678341	0.500042
C49	C	0.224626	0.126775	0.000050
C50	C	0.724626	0.626775	0.500050
C51	C	0.202012	0.074498	0.000062
C52	C	0.702012	0.574498	0.500062
C53	C	0.156788	-0.030063	0.000093
C54	C	0.656788	0.469937	0.500093
C55	C	0.216191	-0.029346	0.000094
C56	C	0.716191	0.470654	0.500094
C57	C	0.238804	0.022935	0.000081
C58	C	0.738804	0.522935	0.500081
C59	C	0.298190	0.023644	0.000065
C60	C	0.798190	0.523644	0.500065
N61	N	0.320807	0.075922	0.000058
N62	N	0.820807	0.575922	0.500058
C63	C	0.284025	0.127487	0.000050
C64	C	0.784025	0.627487	0.500050
C65	C	-0.064139	0.019303	0.000079
C66	C	0.435861	0.519303	0.500079
C67	C	-0.123536	0.018590	0.000075
C68	C	0.376464	0.518590	0.500075
C69	C	-0.137702	0.122437	0.000059
C70	C	0.362298	0.622437	0.500059
C71	C	-0.078303	0.123149	0.000060
C72	C	0.421697	0.623149	0.500060
C73	C	-0.041522	0.071580	0.000072
C74	C	0.458478	0.571580	0.500072
C75	C	0.408761	0.128977	0.000040
C76	C	0.908761	0.628977	0.500040
C77	C	0.468163	0.129684	0.000032
C78	C	0.968163	0.629684	0.500032
C79	C	0.482324	0.025837	0.000051
C80	C	0.982324	0.525837	0.500051
C81	C	0.422927	0.025130	0.000055
C82	C	0.922927	0.525130	0.500055
C83	C	0.386147	0.076704	0.000051
C84	C	0.886147	0.576704	0.500051
O85	O	0.334977	-0.020120	0.000052
O86	O	0.834977	0.479880	0.500052
O87	O	0.308725	0.172011	0.000051
O88	O	0.808725	0.672011	0.500051
C89	C	0.671594	-0.485250	-0.053576
C90	C	1.171594	0.014750	0.446424
C91	C	0.670876	-0.544650	-0.053579
C92	C	1.170876	-0.044650	0.446421
O93	O	0.670493	-0.575372	-0.099182
O94	O	1.170493	-0.075372	0.400818
N95	N	0.670512	-0.574354	0.000041
N96	N	1.170512	-0.074354	0.500041
C97	C	0.670859	-0.544655	0.053668
C98	C	1.170859	-0.044655	0.553668
O99	O	0.670483	-0.575375	0.099276
O100	O	1.170483	-0.075375	0.599276
C101	C	0.671573	-0.485256	0.053671
C102	C	1.171573	0.014744	0.553671
C103	C	0.671943	-0.455556	0.000047
C104	C	1.171943	0.044444	0.500047
C105	C	0.671963	-0.455550	-0.107195
C106	C	1.171963	0.044450	0.392805
C107	C	0.672681	-0.396155	-0.107192
C108	C	1.172681	0.103845	0.392808
C109	C	0.673030	-0.366460	-0.053569
C110	C	1.173030	0.133540	0.446431
C111	C	0.672661	-0.396160	0.000051
C112	C	1.172661	0.103840	0.500051
C113	C	0.671916	-0.455557	0.107298
C114	C	1.171916	0.044443	0.607298
C115	C	0.672629	-0.396154	0.107296
C116	C	1.172629	0.103846	0.607296
C117	C	0.672998	-0.366454	0.053672
C118	C	1.172998	0.133546	0.553672
C119	C	0.673728	-0.307070	0.053678
C120	C	1.173728	0.192930	0.553678
N121	N	0.674092	-0.277366	0.000057
N122	N	1.174092	0.222634	0.500057
C123	C	0.673743	-0.307061	-0.053566
C124	C	1.173743	0.192939	0.446434
C125	C	0.669361	-0.669396	0.053658
C126	C	1.169361	-0.169396	0.553658
C127	C	0.668652	-0.728795	0.053656
C128	C	1.168652	-0.228795	0.553656
C129	C	0.668668	-0.728785	-0.053592
C130	C	1.168668	-0.228785	0.446408
C131	C	0.669381	-0.669387	-0.053589
C132	C	1.169381	-0.169387	0.446411
C133	C	0.669725	-0.639692	0.000038
C134	C	1.169725	-0.139692	0.500038
C135	C	0.675252	-0.182327	-0.053554
C136	C	1.175252	0.317673	0.446446
C137	C	0.675973	-0.122927	-0.053545
C138	C	1.175973	0.377073	0.446455
C139	C	0.675954	-0.122941	0.053702
C140	C	1.175954	0.377059	0.553702
C141	C	0.675236	-0.182336	0.053694
C142	C	1.175236	0.317664	0.553694
C143	C	0.674883	-0.212027	0.000061
C144	C	1.174883	0.287973	0.500061
O145	O	0.674109	-0.276310	0.099257
O146	O	1.174109	0.223690	0.599257
O147	O	0.674112	-0.276333	-0.099166
O148	O	1.174112	0.223667	0.400834
C149	C	0.776459	0.069390	0.000068
C150	C	1.276459	0.569390	0.500068
C151	C	0.839676	0.070156	0.000070
C152	C	1.339676	0.570156	0.500070
C153	C	0.667545	0.178287	0.000042
C154	C	1.167545	0.678287	0.500042
C155	C	0.668300	0.241506	0.000032
C156	C	1.168300	0.741506	0.500032
N157	N	0.672291	0.074157	0.153313
N158	N	1.172291	0.574157	0.653313
N159	N	0.672335	0.074113	-0.153198
N160	N	1.172335	0.574113	0.346802
C161	C	0.711267	0.035197	0.561964
C162	C	1.211267	0.535197	1.061964
C163	C	0.711269	0.035192	0.623884
C164	C	1.211269	0.535192	1.123884
O165	O	0.744384	0.002076	0.655911
O166	O	1.244384	0.502076	1.155911
N167	N	0.672321	0.074117	0.654850
N168	N	1.172321	0.574117	1.154850
C169	C	0.633362	0.113044	0.623893
C170	C	1.133362	0.613044	1.123893
O171	O	0.600233	0.146151	0.655918
O172	O	1.100233	0.646151	1.155918
C173	C	0.633357	0.113045	0.561974
C174	C	1.133357	0.613045	1.061974
C175	C	0.672312	0.074122	0.531011
C176	C	1.172312	0.574122	1.031011
C177	C	0.750218	-0.003724	0.531001
C178	C	1.250218	0.496276	1.031001
C179	C	0.750216	-0.003719	0.469085
C180	C	1.250216	0.496281	0.969085
C181	C	0.711262	0.035207	0.438133
C182	C	1.211262	0.535207	0.938133
C183	C	0.672310	0.074127	0.469096
C184	C	1.172310	0.574127	0.969096
C185	C	0.594397	0.151969	0.531018
C186	C	1.094397	0.651969	1.031018
C187	C	0.594395	0.151966	0.469095
C188	C	1.094395	0.651966	0.969095
C189	C	0.633350	0.113043	0.438133
C190	C	1.133350	0.613043	0.938133
C191	C	0.633354	0.113057	0.376227
C192	C	1.133354	0.613057	0.876227
N193	N	0.672303	0.074133	0.345261
N194	N	1.172303	0.574133	0.845261
C195	C	0.711257	0.035208	0.376214
C196	C	1.211257	0.535208	0.876214
C197	C	0.633376	0.113038	0.753927
C198	C	1.133376	0.613038	1.253927
C199	C	0.633383	0.113040	0.815844
C200	C	1.133383	0.613040	1.315844
C201	C	0.711290	0.035188	0.815831
C202	C	1.211290	0.535188	1.315831
C203	C	0.711284	0.035189	0.753912
C204	C	1.211284	0.535189	1.253912
C205	C	0.672324	0.074114	0.722961
C206	C	1.172324	0.574114	1.222961
C207	C	0.711249	0.035221	0.246187
C208	C	1.211249	0.535221	0.746187
C209	C	0.711245	0.035231	0.184265
C210	C	1.211245	0.535231	0.684265
C211	C	0.633337	0.113081	0.184284
C212	C	1.133337	0.613081	0.684284
C213	C	0.633342	0.113073	0.246200
C214	C	1.133342	0.613073	0.746200
C215	C	0.672301	0.074139	0.277150
C216	C	1.172301	0.574139	0.777150
O217	O	0.600255	0.146155	0.344161
O218	O	1.100255	0.646155	0.844161
O219	O	0.744375	0.002101	0.344182
O220	O	1.244375	0.502101	0.844182
H221	H	0.486571	0.172259	0.000021
H222	H	0.986571	0.672259	0.500021
H223	H	0.742972	0.003516	0.271379
H224	H	1.242972	0.503516	0.771379
H225	H	0.781939	-0.035424	0.556197
H226	H	1.281939	0.464576	1.056197
H227	H	0.672980	-0.371978	-0.150858
H228	H	1.172980	0.128022	0.349142
O229	O	0.556605	0.189859	0.439057
O230	O	1.056605	0.689859	0.939057
C231	C	0.522623	0.289062	0.420153
C232	C	1.022623	0.789062	0.920153
C233	C	0.565457	0.246211	0.454196
C234	C	1.065457	0.746211	0.954196
H235	H	0.529757	0.334632	0.432390
H236	H	1.029757	0.834632	0.932390
H237	H	0.529308	0.282433	0.370571
H238	H	1.029308	0.782433	0.870571
H239	H	0.477061	0.281838	0.432326
H240	H	0.977061	0.781838	0.932326
H241	H	0.611036	0.253409	0.442073
H242	H	1.111036	0.753409	0.942073
H243	H	0.558723	0.252851	0.503770
H244	H	1.058723	0.752851	1.003770
O245	O	0.671652	-0.484306	-0.159342
O246	O	1.171652	0.015694	0.340658
C247	C	0.671720	-0.478004	-0.265715
C248	C	1.171720	0.021996	0.234285
C249	C	0.672080	-0.445375	-0.206697
C250	C	1.172080	0.054625	0.293303
H251	H	0.672053	-0.446541	-0.304017
H252	H	1.172053	0.053459	0.195983
H253	H	0.711260	-0.511236	-0.268436
H254	H	1.211260	-0.011236	0.231564
H255	H	0.631535	-0.500392	-0.268381
H256	H	1.131535	-0.000392	0.231619
H257	H	0.712238	-0.422953	-0.203992
H258	H	1.212238	0.077047	0.296008
H259	H	0.632513	-0.412175	-0.204001
H260	H	1.132513	0.087825	0.295999
O261	O	0.669825	-0.640518	-0.105660
O262	O	1.169825	-0.140518	0.394340
C263	C	0.719938	-0.580140	-0.167887
C264	C	1.219938	-0.080140	0.332113
C265	C	0.719523	-0.612819	-0.108901
C266	C	1.219523	-0.112819	0.391099
H267	H	0.760108	-0.557726	-0.170521
H268	H	1.260108	-0.057726	0.329479
H269	H	0.719599	-0.611545	-0.206239
H270	H	1.219599	-0.111545	0.293761
H271	H	0.680385	-0.546920	-0.170549
H272	H	1.180385	-0.046920	0.329451
H273	H	0.759069	-0.646038	-0.106181
H274	H	1.259069	-0.146038	0.393819
H275	H	0.719832	-0.581379	-0.070577
H276	H	1.219832	-0.081379	0.429423
O277	O	0.595447	0.150904	0.276189
O278	O	1.095447	0.650904	0.776189
C279	C	0.518188	0.228135	0.269660
C280	C	1.018188	0.728135	0.769660
C281	C	0.561072	0.185322	0.235630
C282	C	1.061072	0.685322	0.735630
H283	H	0.490392	0.255982	0.236883
H284	H	0.990392	0.755982	0.736883
H285	H	0.489845	0.203711	0.298627
H286	H	0.989845	0.703711	0.798627
H287	H	0.542611	0.256437	0.298671
H288	H	1.042611	0.756437	0.798671
H289	H	0.536695	0.157009	0.206587
H290	H	1.036695	0.657009	0.706587
H291	H	0.589414	0.209782	0.206700
H292	H	1.089414	0.709782	0.706700
O293	O	0.373119	0.179128	0.000006
O294	O	0.873119	0.679128	0.500006
C295	C	0.365353	0.282204	0.000014
C296	C	0.865353	0.782204	0.500014
C297	C	0.405782	0.225452	0.000044
C298	C	0.905782	0.725452	0.500044
H299	H	0.391745	0.319672	0.000057
H300	H	0.891745	0.819672	0.500057
H301	H	0.337203	0.284502	-0.041163
H302	H	0.837203	0.784502	0.458837
H303	H	0.337176	0.284450	0.041171
H304	H	0.837176	0.784450	0.541171
H305	H	0.433995	0.223168	-0.041086
H306	H	0.933995	0.723168	0.458914
H307	H	0.433894	0.223177	0.041248
H308	H	0.933894	0.723177	0.541248
H309	H	0.206249	0.220913	0.000031
H310	H	0.706249	0.720913	0.500031
H311	H	0.098505	0.219623	0.000043
H312	H	0.598505	0.719623	0.500043
H313	H	-0.034193	-0.022694	0.000084
H314	H	0.465807	0.477306	0.500084
H315	H	-0.059896	0.165721	0.000053
H316	H	0.440104	0.665721	0.500053
H317	H	0.512282	-0.016147	0.000055
H318	H	1.012282	0.483853	0.500055
H319	H	0.668381	-0.752973	-0.097255
H320	H	1.168381	-0.252973	0.402745
O321	O	-0.173496	0.172493	-0.000023
O322	O	0.326504	0.672493	0.499977
C323	C	-0.248763	0.231961	-0.051007
C324	C	0.251237	0.731961	0.448993
C325	C	-0.208269	0.175251	-0.050979
C326	C	0.291731	0.675251	0.449021
H327	H	-0.276879	0.234215	-0.092207
H328	H	0.223121	0.734215	0.407793
H329	H	-0.276966	0.234233	-0.009867
H330	H	0.223034	0.734233	0.490133
H331	H	-0.222388	0.269442	-0.050985
H332	H	0.277612	0.769442	0.449015
H333	H	-0.234598	0.137738	-0.051023
H334	H	0.265402	0.637738	0.448977
H335	H	-0.180063	0.173029	-0.092116
H336	H	0.319937	0.673029	0.407884
H337	H	0.668359	-0.752973	0.097322
H338	H	1.168359	-0.252973	0.597322
H339	H	-0.141942	-0.023982	0.000076
H340	H	0.358058	0.476018	0.500076
H341	H	0.138388	-0.072635	0.000105
H342	H	0.638388	0.427365	0.500105
H343	H	0.671616	-0.479729	0.150964
H344	H	1.171616	0.020271	0.650964
H345	H	0.246136	-0.071341	0.000105
H346	H	0.746136	0.428659	0.500105
H347	H	0.781935	-0.035415	0.443879
H348	H	1.281935	0.464585	0.943879
O349	O	0.401052	-0.025705	0.000086
O350	O	0.901052	0.474295	0.500086
C351	C	0.421379	-0.128632	0.000061
C352	C	0.921379	0.371368	0.500061
C353	C	0.446223	-0.071102	0.000034
C354	C	0.946223	0.428898	0.500034
H355	H	0.457887	-0.165350	0.000007
H356	H	0.957887	0.334650	0.500007
H357	H	0.393948	-0.131598	0.041242
H358	H	0.893948	0.368402	0.541242
H359	H	0.393902	-0.131534	-0.041093
H360	H	0.893902	0.368466	0.458907
H361	H	0.473726	-0.068161	0.041160
H362	H	0.973726	0.431839	0.541160
H363	H	0.473621	-0.068161	-0.041174
H364	H	0.973621	0.431839	0.458826
H365	H	0.743005	0.003494	0.728706
H366	H	1.243005	0.503494	1.228706
H367	H	0.743007	0.003492	0.841044
H368	H	1.243007	0.503492	1.341044
O369	O	0.676304	-0.094161	-0.105691
O370	O	1.176304	0.405839	0.394309
C371	C	0.676278	-0.100436	-0.212066
C372	C	1.176278	0.399564	0.287934
C373	C	0.675890	-0.133079	-0.153057
C374	C	1.175890	0.366921	0.346943
H375	H	0.675956	-0.131889	-0.250376
H376	H	1.175956	0.368111	0.249624
H377	H	0.636743	-0.067198	-0.214793
H378	H	1.136743	0.432802	0.285207
H379	H	0.716468	-0.078054	-0.214711
H380	H	1.216468	0.421946	0.285289
H381	H	0.635727	-0.155496	-0.150372
H382	H	1.135727	0.344504	0.349628
H383	H	0.715452	-0.166285	-0.150355
H384	H	1.215452	0.333715	0.349645
H385	H	0.674962	-0.206494	-0.097227
H386	H	1.174962	0.293506	0.402773
H387	H	0.562676	0.183663	0.556220
H388	H	1.062676	0.683663	1.056220
O389	O	0.669726	-0.640646	0.105808
O390	O	1.169726	-0.140646	0.605808
C391	C	0.669599	-0.646931	0.212181
C392	C	1.169599	-0.146931	0.712181
C393	C	0.669201	-0.679560	0.153166
C394	C	1.169201	-0.179560	0.653166
H395	H	0.669163	-0.678378	0.250486
H396	H	1.169163	-0.178378	0.750486
H397	H	0.709803	-0.624580	0.214914
H398	H	1.209803	-0.124580	0.714914
H399	H	0.630080	-0.613669	0.214831
H400	H	1.130080	-0.113669	0.714831
H401	H	0.708693	-0.712850	0.150477
H402	H	1.208693	-0.212850	0.650477
H403	H	0.628970	-0.701872	0.150458
H404	H	1.128970	-0.201872	0.650458
O405	O	0.672981	-0.367401	0.159444
O406	O	1.172981	0.132599	0.659444
C407	C	0.672832	-0.373676	0.265818
C408	C	1.172832	0.126324	0.765818
C409	C	0.672448	-0.406310	0.206805
C410	C	1.172448	0.093690	0.706805
H411	H	0.672388	-0.405119	0.304124
H412	H	1.172388	0.094881	0.804124
H413	H	0.713035	-0.351323	0.268557
H414	H	1.213035	0.148677	0.768557
H415	H	0.633311	-0.340414	0.268456
H416	H	1.133311	0.159586	0.768456
H417	H	0.711941	-0.439600	0.204127
H418	H	1.211941	0.060400	0.704127
H419	H	0.632218	-0.428624	0.204090
H420	H	1.132218	0.071376	0.704090
H421	H	0.601668	0.144741	0.841050
H422	H	1.101668	0.644741	1.341050
O423	O	0.674858	-0.211100	0.105835
O424	O	1.174858	0.288900	0.605835
C425	C	0.674950	-0.204837	0.212210
C426	C	1.174950	0.295163	0.712210
C427	C	0.675373	-0.172197	0.153202
C428	C	1.175373	0.327803	0.653202
H429	H	0.675378	-0.173400	0.250522
H430	H	1.175378	0.326600	0.750522
H431	H	0.634739	-0.227182	0.214926
H432	H	1.134739	0.272818	0.714926
H433	H	0.714463	-0.238107	0.214864
H434	H	1.214463	0.261893	0.714864
H435	H	0.635887	-0.138900	0.150509
H436	H	1.135887	0.361100	0.650509
H437	H	0.715609	-0.149892	0.150512
H438	H	1.215609	0.350108	0.650512
O439	O	0.676187	-0.094045	0.105771
O440	O	1.176187	0.405955	0.605771
C441	C	0.627641	-0.020210	0.167965
C442	C	1.127641	0.479790	0.667965
C443	C	0.627307	-0.052904	0.108984
C444	C	1.127307	0.447096	0.608984
H445	H	0.588132	0.013068	0.170576
H446	H	1.088132	0.513068	0.670576
H447	H	0.627215	-0.051600	0.206321
H448	H	1.127215	0.448400	0.706321
H449	H	0.667853	0.002134	0.170644
H450	H	1.167853	0.502134	0.670644
H451	H	0.587101	-0.075249	0.106247
H452	H	1.087101	0.424751	0.606247
H453	H	0.627763	-0.021487	0.070655
H454	H	1.127763	0.478513	0.570655
O455	O	0.595511	0.150913	0.723954
O456	O	1.095511	0.650913	1.223954
C457	C	0.518221	0.228112	0.730515
C458	C	1.018221	0.728112	1.230515
C459	C	0.561079	0.185259	0.764528
C460	C	1.061079	0.685259	1.264528
H461	H	0.490364	0.255884	0.763305
H462	H	0.990364	0.755884	1.263305
H463	H	0.542608	0.256482	0.701541
H464	H	1.042608	0.756482	1.201541
H465	H	0.489935	0.203662	0.701514
H466	H	0.989935	0.703662	1.201514
H467	H	0.589376	0.209663	0.793562
H468	H	1.089376	0.709663	1.293562
H469	H	0.536657	0.156890	0.793465
H470	H	1.036657	0.656890	1.293465
H471	H	0.742969	0.003536	0.159057
H472	H	1.242969	0.503536	0.659057
H473	H	0.601622	0.144775	0.159073
H474	H	1.101622	0.644775	0.659073
