data_functionalizedCrystal
_audit_creation_method	'MofGen! by Chris Wilmer'
_symmetry_space_group_name_H-M	'P1'
_symmetry_Int_Tables_number	1
_symmetry_cell_setting	triclinic
loop_
_symmetry_equiv_pos_as_xyz
  x,y,z
_cell_length_a	18.215407
_cell_length_b	15.297327
_cell_length_c	18.215399
_cell_angle_alpha	80.351692
_cell_angle_beta	90.016899
_cell_angle_gamma	99.703952
loop_
_atom_site_label
_atom_site_type_symbol
_atom_site_fract_x
_atom_site_fract_y
_atom_site_fract_z
Zn1	Zn	1.074350	-0.359235	0.466749
Zn2	Zn	1.052956	-0.510105	0.364971
Zn3	Zn	0.951279	-0.359256	0.343706
Zn4	Zn	0.929954	-0.510047	0.487994
O5	O	1.002135	-0.434661	0.415855
O6	O	1.174494	-0.379263	0.453256
O7	O	1.039440	-0.490128	0.259171
O8	O	0.985483	-0.233007	0.342236
O9	O	1.158776	-0.490107	0.378481
O10	O	1.075902	-0.232991	0.432636
O11	O	0.964738	-0.379300	0.243547
O12	O	0.845468	-0.379244	0.362837
O13	O	0.949137	-0.490008	0.588156
O14	O	0.829801	-0.490029	0.468846
O15	O	1.055224	-0.379207	0.572547
O16	O	1.018762	-0.636344	0.399082
O17	O	0.928393	-0.636302	0.489466
C18	C	0.810932	-0.434633	0.415840
C19	C	0.729132	-0.434643	0.415854
C20	C	0.455920	-0.492442	0.471002
C21	C	0.532780	-0.492434	0.470998
C22	C	0.549088	-0.376900	0.360723
C23	C	0.472229	-0.376913	0.360726
C24	C	0.425647	-0.434683	0.415869
C25	C	0.579366	-0.434662	0.415862
C26	C	0.662701	-0.434653	0.415857
C27	C	0.342307	-0.434693	0.415874
C28	C	0.968962	-0.669057	0.448903
C29	C	0.954837	-0.769333	0.463066
C30	C	1.103387	-1.051957	0.314882
C31	C	1.116657	-0.957743	0.301572
C32	C	1.076204	-0.910636	0.341944
C33	C	1.022477	-0.957752	0.395629
C34	C	1.009201	-1.051976	0.408937
C35	C	0.982018	-0.910654	0.435999
C36	C	0.928291	-0.957770	0.489684
C37	C	0.915019	-1.051984	0.502990
C38	C	0.955472	-1.099092	0.462617
C39	C	0.995294	-0.816431	0.422692
C40	C	0.901108	-0.816449	0.516746
C41	C	0.887838	-0.910663	0.530057
C42	C	1.194084	-0.434689	0.415871
C43	C	1.275881	-0.434701	0.415878
C44	C	1.002188	-0.434599	0.607799
C45	C	1.002211	-0.434572	0.689594
C46	C	1.035458	-0.199349	0.382694
C47	C	1.049658	-0.099073	0.368562
C48	C	1.002133	-0.434658	0.224648
C49	C	1.002289	-0.434430	0.142818
C50	C	1.057475	-0.376824	0.869654
C51	C	1.057488	-0.376798	0.946509
C52	C	0.947019	-0.492181	0.962753
C53	C	0.947004	-0.492202	0.885898
C54	C	1.002236	-0.434525	0.839351
C55	C	1.002264	-0.434478	0.993061
C56	C	1.002277	-0.434449	1.076391
C57	C	1.002223	-0.434552	0.756016
H58	H	1.039038	-0.778077	0.378981
Cl59	Cl	1.184203	-0.898518	0.234093
Cl60	Cl	1.154234	-1.111181	0.264134
Cl61	Cl	1.126940	-0.304264	0.984602
Cl62	Cl	0.938494	-1.217536	0.479049
Cl63	Cl	0.570833	-0.565051	0.540310
H64	H	0.587024	-0.329865	0.315828
H65	H	0.902017	-0.539188	0.861226
Cl66	Cl	0.847473	-1.111214	0.570476
Cl67	Cl	0.820298	-0.969906	0.597544
H68	H	0.447581	-0.329878	0.315826
H69	H	0.902052	-0.539142	1.000661
H70	H	0.868166	-0.778095	0.549620
Cl71	Cl	1.126907	-0.304312	0.811140
H72	H	1.087011	-0.833923	0.331103
Cl73	Cl	0.397362	-0.565069	0.540323
