data_functionalizedCrystal
_audit_creation_method	'MofGen! by Chris Wilmer'
_symmetry_space_group_name_H-M	'P1'
_symmetry_Int_Tables_number	1
_symmetry_cell_setting	triclinic
loop_
_symmetry_equiv_pos_as_xyz
  x,y,z
_cell_length_a	16.959455
_cell_length_b	16.959453
_cell_length_c	16.959447
_cell_angle_alpha	90.031096
_cell_angle_beta	90.014701
_cell_angle_gamma	90.024249
loop_
_atom_site_label
_atom_site_type_symbol
_atom_site_fract_x
_atom_site_fract_y
_atom_site_fract_z
Zn1	Zn	1.208358	-0.314678	0.446912
Zn2	Zn	1.208269	-0.446870	0.314732
Zn3	Zn	1.076186	-0.314709	0.314749
Zn4	Zn	1.076140	-0.446817	0.446870
O5	O	1.142238	-0.380769	0.380816
O6	O	1.318957	-0.332223	0.429389
O7	O	1.190731	-0.429374	0.204123
O8	O	1.093775	-0.204094	0.332306
O9	O	1.318892	-0.429344	0.332277
O10	O	1.190881	-0.204071	0.429406
O11	O	1.093690	-0.332275	0.204136
O12	O	0.965569	-0.332223	0.332264
O13	O	1.093697	-0.429254	0.557486
O14	O	0.965535	-0.429283	0.429333
O15	O	1.190836	-0.332171	0.557518
O16	O	1.190686	-0.557474	0.332235
O17	O	1.093611	-0.557435	0.429317
C18	C	0.936872	-0.380751	0.380796
C19	C	0.849015	-0.380763	0.380807
C20	C	0.807706	-0.431258	0.330173
C21	C	0.807772	-0.330275	0.431447
C22	C	0.725226	-0.330281	0.431456
C23	C	0.683916	-0.380775	0.380822
C24	C	0.725152	-0.431264	0.330179
C25	C	0.683983	-0.279788	0.482093
C26	C	0.601432	-0.279792	0.482104
C27	C	0.560121	-0.330291	0.431473
C28	C	0.601362	-0.380782	0.380829
C29	C	0.560053	-0.431276	0.330195
C30	C	0.601293	-0.481772	0.279553
C31	C	0.683841	-0.481763	0.279549
C32	C	0.477573	-0.330299	0.431478
C33	C	0.477499	-0.431282	0.330201
C34	C	1.142155	-0.586135	0.380787
C35	C	1.142192	-0.673991	0.380801
C36	C	1.091624	-0.715274	0.431311
C37	C	1.192798	-0.715262	0.330308
C38	C	1.192838	-0.797808	0.330323
C39	C	1.142270	-0.839091	0.380833
C40	C	1.091664	-0.797828	0.431328
C41	C	1.243449	-0.839078	0.279834
C42	C	1.243491	-0.921629	0.279847
C43	C	1.192919	-0.962913	0.330353
C44	C	1.142310	-0.921644	0.380850
C45	C	1.091742	-0.962927	0.431360
C46	C	1.041129	-0.921660	0.481854
C47	C	1.041092	-0.839112	0.481835
C48	C	1.192955	-1.045461	0.330372
C49	C	1.091782	-1.045480	0.431378
C50	C	1.348406	-0.380786	0.380836
C51	C	1.436263	-0.380794	0.380844
C52	C	1.142271	-0.380703	0.586984
C53	C	1.142285	-0.380675	0.674841
C54	C	1.142343	-0.174600	0.380862
C55	C	1.142388	-0.086744	0.380882
C56	C	1.142251	-0.380777	0.175450
C57	C	1.142390	-0.380582	0.087593
C58	C	1.091803	-0.431138	1.046303
C59	C	1.192956	-0.330046	1.046330
C60	C	1.192935	-0.330063	0.963785
C61	C	1.142348	-0.380619	0.922494
C62	C	1.091782	-0.431158	0.963749
C63	C	1.243505	-0.279530	0.922523
C64	C	1.243487	-0.279545	0.839972
C65	C	1.192896	-0.330098	0.798680
C66	C	1.142327	-0.380639	0.839940
C67	C	1.091740	-0.431195	0.798650
C68	C	1.041167	-0.481732	0.839909
C69	C	1.041191	-0.481711	0.922457
C70	C	1.192872	-0.330119	0.716131
C71	C	1.091719	-0.431215	0.716096
H72	H	0.443871	-0.472405	0.288972
H73	H	1.234169	-1.079057	0.289266
F74	F	0.727736	-0.535497	0.225656
H75	H	1.284695	-0.238375	0.956148
F76	F	1.297356	-0.965540	0.226107
H77	H	1.233973	-0.681647	0.289189
H78	H	0.717624	-0.238675	0.523313
H79	H	1.234050	-0.288975	0.682542
H80	H	0.567862	-0.238676	0.523340
F81	F	0.557318	-0.535505	0.225662
F82	F	1.037760	-0.671356	0.485046
F83	F	0.987236	-0.795187	0.535575
H84	H	1.000020	-0.522858	0.956057
F85	F	0.851738	-0.276536	0.485329
F86	F	0.851595	-0.484999	0.276282
H87	H	0.443999	-0.289181	0.472704
H88	H	1.050603	-1.079087	0.472510
H89	H	1.050626	-0.472282	1.079899
H90	H	0.999960	-0.955283	0.522982
F91	F	1.297268	-0.795138	0.226088
F92	F	1.037873	-0.485021	0.672158
F93	F	0.987335	-0.535540	0.795955
F94	F	1.246796	-0.276249	1.090277
H95	H	1.284666	-0.238394	0.806386
