data_functionalizedCrystal
_audit_creation_method	'MofGen! by Chris Wilmer'
_symmetry_space_group_name_H-M	'P1'
_symmetry_Int_Tables_number	1
_symmetry_cell_setting	triclinic
loop_
_symmetry_equiv_pos_as_xyz
  x,y,z
_cell_length_a	14.908783
_cell_length_b	14.908178
_cell_length_c	12.759393
_cell_angle_alpha	93.332682
_cell_angle_beta	93.320336
_cell_angle_gamma	96.402596
loop_
_atom_site_label
_atom_site_type_symbol
_atom_site_fract_x
_atom_site_fract_y
_atom_site_fract_z
Zn1	Zn	1.363084	-0.280571	0.666915
Zn2	Zn	1.354250	-0.431980	0.480451
Zn3	Zn	1.211707	-0.289343	0.480468
Zn4	Zn	1.202956	-0.440630	0.645319
O5	O	1.282999	-0.360631	0.568288
O6	O	1.488581	-0.293364	0.651211
O7	O	1.335307	-0.413110	0.333426
O8	O	1.239147	-0.161500	0.514246
O9	O	1.482091	-0.404604	0.514217
O10	O	1.350363	-0.155055	0.651228
O11	O	1.230582	-0.308315	0.333439
O12	O	1.083878	-0.316702	0.493305
O13	O	1.224232	-0.419346	0.795211
O14	O	1.077448	-0.427852	0.614420
O15	O	1.341877	-0.301752	0.811077
O16	O	1.326822	-0.559807	0.493276
O17	O	1.215666	-0.566162	0.614404
C18	C	1.047819	-0.374169	0.551521
C19	C	0.947206	-0.379982	0.544372
C20	C	0.764892	-0.275230	0.673784
C21	C	0.670357	-0.280689	0.667070
C22	C	0.663602	-0.396354	0.524226
C23	C	0.758137	-0.390895	0.530940
C24	C	0.808778	-0.330332	0.605722
C25	C	0.903314	-0.324878	0.612441
C26	C	0.896557	-0.440537	0.469592
C27	C	0.802023	-0.445996	0.462878
C28	C	1.269360	-0.595830	0.551519
C29	C	1.263608	-0.696444	0.544386
C30	C	1.368521	-0.878653	0.673760
C31	C	1.363119	-0.973189	0.667062
C32	C	1.247400	-0.980054	0.524297
C33	C	1.252801	-0.885518	0.530996
C34	C	1.313365	-0.834821	0.605729
C35	C	1.318770	-0.740283	0.612421
C36	C	1.203047	-0.747149	0.469662
C37	C	1.197645	-0.841685	0.462964
C38	C	1.519098	-0.347041	0.585121
C39	C	1.619710	-0.341250	0.592294
C40	C	1.283064	-0.360535	0.842333
C41	C	1.283091	-0.360495	0.959114
C42	C	1.296717	-0.124512	0.585148
C43	C	1.302562	-0.023892	0.592332
C44	C	1.282991	-0.360658	0.295319
C45	C	1.283154	-0.360433	0.178569
C46	C	1.228585	-0.305916	1.013991
C47	C	1.228614	-0.305887	1.123719
C48	C	1.337662	-0.415018	1.123684
C49	C	1.337628	-0.415051	1.013957
C50	C	1.165630	-0.242907	1.014013
C51	C	1.165659	-0.242878	1.123741
H52	H	0.622354	-0.445651	0.463331
H53	H	0.944545	-0.275565	0.673333
Cl54	Cl	1.200805	-0.132922	1.179521
Cl55	Cl	1.121507	-0.905428	0.369027
Cl56	Cl	1.406140	-0.483679	0.944970
H57	H	1.097612	-0.271812	1.151236
Cl58	Cl	0.828558	-0.199105	0.767802
H59	H	1.368086	-0.699006	0.673270
Cl60	Cl	1.133711	-0.692040	0.384124
Cl61	Cl	1.406218	-0.483601	1.192636
Cl62	Cl	1.432459	-1.028290	0.752594
H63	H	0.760778	-0.495302	0.401990
Cl64	Cl	0.615189	-0.211413	0.752635
Cl65	Cl	0.951733	-0.509819	0.384031
H66	H	1.094423	-0.265722	0.977903
Cl67	Cl	1.444665	-0.814916	0.767696
H68	H	1.198088	-1.021348	0.463458
H69	H	1.194603	-0.174873	0.986527
