data_functionalizedCrystal
_audit_creation_method	'MofGen! by Chris Wilmer'
_symmetry_space_group_name_H-M	'P1'
_symmetry_Int_Tables_number	1
_symmetry_cell_setting	triclinic
loop_
_symmetry_equiv_pos_as_xyz
  x,y,z
_cell_length_a	13.897449
_cell_length_b	13.897448
_cell_length_c	16.959447
_cell_angle_alpha	89.970632
_cell_angle_beta	89.983048
_cell_angle_gamma	90.018519
loop_
_atom_site_label
_atom_site_type_symbol
_atom_site_fract_x
_atom_site_fract_y
_atom_site_fract_z
Zn1	Zn	1.474641	-0.383975	-0.446969
Zn2	Zn	1.474553	-0.545293	-0.314793
Zn3	Zn	1.313349	-0.384016	-0.314801
Zn4	Zn	1.313312	-0.545232	-0.446926
O5	O	1.393964	-0.464629	-0.380872
O6	O	1.609611	-0.405382	-0.429451
O7	O	1.453148	-0.523942	-0.204183
O8	O	1.334796	-0.249029	-0.332355
O9	O	1.609547	-0.523902	-0.332342
O10	O	1.453297	-0.248998	-0.429459
O11	O	1.334711	-0.405452	-0.204189
O12	O	1.178362	-0.405393	-0.332312
O13	O	1.334734	-0.523798	-0.557542
O14	O	1.178335	-0.523838	-0.429384
O15	O	1.453262	-0.405323	-0.557575
O16	O	1.453112	-0.680266	-0.332299
O17	O	1.334649	-0.680221	-0.429376
C18	C	1.143350	-0.464614	-0.380845
C19	C	1.036136	-0.464631	-0.380852
C20	C	0.949066	-0.464634	-0.380865
C21	C	0.839833	-0.464641	-0.380889
C22	C	1.393893	-0.715243	-0.380849
C23	C	1.393952	-0.822457	-0.380866
C24	C	1.394053	-1.018752	-0.380916
C25	C	1.393994	-0.909520	-0.380890
C26	C	1.645557	-0.464644	-0.380900
C27	C	1.752771	-0.464651	-0.380912
C28	C	1.394004	-0.464549	-0.587041
C29	C	1.394021	-0.464515	-0.674897
C30	C	1.394061	-0.213036	-0.380913
C31	C	1.394102	-0.105822	-0.380930
C32	C	1.332424	-0.526097	-1.046359
C33	C	1.455848	-0.402729	-1.046387
C34	C	1.455823	-0.402749	-0.963841
C35	C	1.394098	-0.464446	-0.922550
C36	C	1.332399	-0.526122	-0.963805
C37	C	1.517528	-0.341081	-0.922580
C38	C	1.517505	-0.341100	-0.840029
C39	C	1.455775	-0.402792	-0.798737
C40	C	1.394072	-0.464470	-0.839997
C41	C	1.332348	-0.526167	-0.798706
C42	C	1.270639	-0.587840	-0.839964
C43	C	1.270668	-0.587814	-0.922513
C44	C	1.455746	-0.402818	-0.716188
C45	C	1.332322	-0.526191	-0.716152
C46	C	1.393979	-0.464639	-0.175506
C47	C	1.394149	-0.464401	-0.087650
H48	H	1.220387	-0.638078	-0.806334
H49	H	1.282049	-0.576424	-0.682539
H50	H	1.567787	-0.290857	-0.956206
C51	C	1.469177	-0.273105	-0.623381
C52	C	1.523569	-0.335038	-0.670834
H53	H	1.511053	-0.231263	-0.595378
H54	H	1.427191	-0.236193	-0.655593
H55	H	1.432411	-0.309859	-0.586980
H56	H	1.560330	-0.298284	-0.707238
H57	H	1.565573	-0.371954	-0.638619
H58	H	1.220432	-0.638029	-0.956112
C59	C	1.510692	-0.347924	-1.172941
C60	C	1.523697	-0.334918	-1.091773
H61	H	1.552578	-0.306053	-1.200960
H62	H	1.524790	-0.412724	-1.186446
H63	H	1.445890	-0.333797	-1.186465
H64	H	1.588498	-0.349051	-1.078248
H65	H	1.509606	-0.270102	-1.078262
C66	C	1.639504	-0.219143	-0.848359
C67	C	1.585323	-0.273301	-0.794682
H68	H	1.681365	-0.177282	-0.820360
H69	H	1.676397	-0.261163	-0.880541
H70	H	1.597491	-0.182242	-0.880568
H71	H	1.627336	-0.310208	-0.762476
H72	H	1.548428	-0.231276	-0.762486
H73	H	1.282180	-0.576308	-1.079955
