data_functionalizedCrystal
_audit_creation_method	'MofGen! by Chris Wilmer'
_symmetry_space_group_name_H-M	'P1'
_symmetry_Int_Tables_number	1
_symmetry_cell_setting	triclinic
loop_
_symmetry_equiv_pos_as_xyz
  x,y,z
_cell_length_a	10.654556
_cell_length_b	10.654551
_cell_length_c	9.730223
_cell_angle_alpha	90.001209
_cell_angle_beta	90.001831
_cell_angle_gamma	84.486483
loop_
_atom_site_label
_atom_site_type_symbol
_atom_site_fract_x
_atom_site_fract_y
_atom_site_fract_z
O1	O	1.667836	0.176434	0.114232
O2	O	1.302358	0.193232	0.114246
O3	O	1.493499	0.002094	0.114236
O4	O	1.476695	0.367572	0.114242
O5	O	1.493486	0.002094	-0.114344
O6	O	1.302345	0.193232	-0.114334
O7	O	1.667822	0.176434	-0.114348
Zn8	Zn	1.485081	0.184833	-0.150633
Zn9	Zn	1.485099	0.184833	0.150531
O10	O	1.476681	0.367572	-0.114338
C11	C	1.255554	0.191997	-0.000042
C12	C	1.116111	0.188302	-0.000037
C13	C	1.492258	-0.044704	-0.000052
C14	C	1.488566	-0.184147	-0.000046
C15	C	0.919573	0.183099	0.124551
C16	C	1.050595	0.186563	0.124560
C17	C	1.050599	0.186563	-0.124651
C18	C	0.919580	0.183090	-0.124658
C19	C	1.714627	0.177669	-0.000057
C20	C	1.854070	0.181364	-0.000053
C21	C	1.486840	-0.249651	0.124555
C22	C	1.483360	-0.380672	0.124556
C23	C	1.483337	-0.380673	-0.124654
C24	C	1.486808	-0.249654	-0.124654
C25	C	1.477922	0.414370	-0.000047
C26	C	1.481615	0.553813	-0.000044
N27	N	1.485078	0.184832	-0.356169
C28	C	1.561910	0.261716	-0.428092
C29	C	1.561931	0.261709	-0.571975
C30	C	1.408277	0.107931	-0.572000
C31	C	1.408264	0.107933	-0.428120
N32	N	1.485112	0.184824	0.356067
H33	H	0.866238	0.181692	0.226013
C34	C	1.256369	-0.044067	-0.442586
C35	C	1.323800	0.023419	-0.349052
H36	H	1.204225	-0.096235	-0.393769
H37	H	1.313722	-0.094992	-0.498694
H38	H	1.205412	0.013263	-0.498713
H39	H	1.374765	-0.033911	-0.292931
H40	H	1.266440	0.074347	-0.292919
C41	C	0.892429	0.074253	-0.337085
C42	C	0.847575	0.181182	-0.261637
H43	H	0.847981	0.073078	-0.421649
H44	H	0.879889	0.000589	-0.285890
H45	H	0.979834	0.076586	-0.354903
H46	H	0.760171	0.178844	-0.243811
H47	H	0.860103	0.254865	-0.312844
C48	C	1.184761	0.298240	0.269137
C49	C	1.122599	0.188476	0.261527
H50	H	1.229218	0.299413	0.353695
H51	H	1.124713	0.369981	0.263958
H52	H	1.242527	0.299752	0.194927
H53	H	1.064826	0.186969	0.335731
H54	H	1.182653	0.116716	0.266719
H55	H	1.345737	0.045324	-0.630600
C56	C	1.483656	-0.367513	-0.370987
C57	C	1.481415	-0.452683	-0.261621
H58	H	1.482464	-0.411969	-0.455545
H59	H	1.558113	-0.325351	-0.365809
H60	H	1.411895	-0.307471	-0.365788
H61	H	1.553181	-0.512720	-0.266814
H62	H	1.406949	-0.494866	-0.266801
H63	H	1.103953	0.187970	-0.226100
C64	C	1.486497	-0.262812	0.370887
C65	C	1.488755	-0.177643	0.261522
H66	H	1.487668	-0.218356	0.455445
H67	H	1.558248	-0.322848	0.365703
H68	H	1.412030	-0.304979	0.365691
H69	H	1.563227	-0.135482	0.266712
H70	H	1.416997	-0.117584	0.266708
H71	H	1.488206	-0.196319	-0.226125
H72	H	1.624457	0.324333	-0.369514
H73	H	1.481952	-0.433999	0.226018
H74	H	1.624496	0.324314	-0.630528
