data_functionalizedCrystal
_audit_creation_method	'MofGen! by Chris Wilmer'
_symmetry_space_group_name_H-M	'P1'
_symmetry_Int_Tables_number	1
_symmetry_cell_setting	triclinic
loop_
_symmetry_equiv_pos_as_xyz
  x,y,z
_cell_length_a	10.654550
_cell_length_b	10.540539
_cell_length_c	9.130313
_cell_angle_alpha	90.000859
_cell_angle_beta	89.996220
_cell_angle_gamma	84.505197
loop_
_atom_site_label
_atom_site_type_symbol
_atom_site_fract_x
_atom_site_fract_y
_atom_site_fract_z
O1	O	1.667897	0.178295	-0.121912
O2	O	1.302424	0.195282	-0.121888
O3	O	1.493499	0.002079	-0.121899
O4	O	1.476823	0.371498	-0.121902
O5	O	1.493496	0.002084	0.121700
O6	O	1.302422	0.195287	0.121711
O7	O	1.667894	0.178300	0.121686
Cu8	Cu	1.485158	0.186794	0.143941
Cu9	Cu	1.485161	0.186788	-0.144143
O10	O	1.476820	0.371503	0.121697
C11	C	1.255625	0.194038	-0.000086
C12	C	1.116180	0.190306	-0.000077
C13	C	1.492247	-0.045221	-0.000102
C14	C	1.488505	-0.186168	-0.000110
C15	C	1.036734	0.304061	-0.000099
C16	C	0.905712	0.300547	-0.000124
C17	C	0.933595	0.069513	-0.000111
C18	C	1.064614	0.073028	-0.000075
C19	C	1.088301	0.421338	-0.000100
C20	C	1.008854	0.535103	-0.000124
C21	C	0.877832	0.531589	-0.000149
C22	C	0.826256	0.414310	-0.000151
C23	C	1.345134	-0.369543	-0.000647
C24	C	1.348927	-0.222926	-0.000099
C25	C	1.555675	-0.247846	0.138993
C26	C	1.550912	-0.394389	0.139110
C27	C	1.553753	-0.394914	-0.137907
C28	C	1.555039	-0.247933	-0.139747
C29	C	1.714694	0.179545	-0.000119
C30	C	1.854139	0.183276	-0.000138
C31	C	1.478072	0.418803	-0.000103
C32	C	1.481813	0.559750	-0.000105
N33	N	1.485165	0.186798	0.346564
N34	N	1.485163	0.186774	-0.346765
C35	C	1.569795	0.101277	0.423211
C36	C	1.569791	0.101262	0.576548
C37	C	1.400525	0.272300	0.576577
C38	C	1.400523	0.272308	0.423243
C39	C	1.654437	0.015767	0.346532
C40	C	1.739074	-0.069760	0.423179
C41	C	1.739071	-0.069775	0.576516
C42	C	1.654430	0.015736	0.653206
H43	H	1.050855	0.630586	-0.000110
N44	N	1.145756	-0.043179	-0.000035
N45	N	1.099703	-0.147881	-0.000037
H46	H	1.157009	-0.229957	0.000001
H47	H	1.331615	0.341921	0.639027
H48	H	1.296074	-0.180306	-0.099813
H49	H	1.508580	-0.426453	-0.243339
N50	N	1.275979	-0.405395	-0.125798
N51	N	1.326612	-0.483482	-0.216053
H52	H	1.277773	-0.508807	-0.304450
N53	N	1.314066	0.359669	0.344962
N54	N	1.238508	0.436017	0.413438
H55	H	1.177442	0.497716	0.358154
H56	H	1.290221	-0.399728	0.098554
H57	H	1.656802	-0.223748	-0.148154
N58	N	1.680235	-0.454178	-0.139125
N59	N	1.770896	-0.387239	-0.135650
H60	H	1.860222	-0.429095	-0.136504
N61	N	1.825507	-0.157108	0.344828
N62	N	1.825498	-0.157088	0.207924
H63	H	1.886541	-0.218782	0.152588
H64	H	0.813149	0.624221	-0.000154
N65	N	1.654401	0.015704	0.809836
N66	N	1.632744	-0.082575	0.878261
H67	H	1.632724	-0.082596	0.988880
N68	N	0.692421	0.410711	-0.000125
N69	N	0.627709	0.460708	0.102561
H70	H	0.533190	0.458164	0.102582
H71	H	1.651295	-0.442394	0.145414
N72	N	1.222132	0.424952	-0.000087
N73	N	1.268162	0.529666	-0.000094
H74	H	1.362681	0.532219	-0.000089
N75	N	0.880894	-0.050265	-0.000109
N76	N	0.763912	-0.053386	-0.000140
H77	H	0.726691	-0.137981	-0.000141
H78	H	1.295701	-0.181149	0.099788
N79	N	1.488609	-0.429725	0.269551
N80	N	1.377514	-0.385642	0.294242
H81	H	1.333507	-0.410590	0.386368
N82	N	1.497131	-0.194378	0.268852
N83	N	1.405953	-0.110864	0.259316
H84	H	1.364597	-0.073103	0.351026
H85	H	1.658178	-0.225529	0.144158
N86	N	1.825494	-0.157143	0.654834
N87	N	1.825471	-0.157159	0.791738
H88	H	1.886505	-0.218870	0.847051
N89	N	1.493454	-0.196558	-0.268835
N90	N	1.400907	-0.114755	-0.258148
H91	H	1.357409	-0.078464	-0.349314
N92	N	1.654413	0.015786	0.189904
N93	N	1.578837	0.092147	0.121484
H94	H	1.578818	0.092165	0.010865
