data_functionalizedCrystal
_audit_creation_method	'MofGen! by Chris Wilmer'
_symmetry_space_group_name_H-M	'P1'
_symmetry_Int_Tables_number	1
_symmetry_cell_setting	triclinic
loop_
_symmetry_equiv_pos_as_xyz
  x,y,z
_cell_length_a	16.109301
_cell_length_b	10.723024
_cell_length_c	14.586319
_cell_angle_alpha	89.997376
_cell_angle_beta	89.999213
_cell_angle_gamma	83.964675
loop_
_atom_site_label
_atom_site_type_symbol
_atom_site_fract_x
_atom_site_fract_y
_atom_site_fract_z
O1	O	1.104075	0.160391	-0.076180
O2	O	0.862130	0.180351	-0.076194
O3	O	0.988683	-0.011279	-0.076183
O4	O	0.977521	0.352021	-0.076191
O5	O	0.988674	-0.011282	0.076297
O6	O	0.862121	0.180348	0.076287
O7	O	1.104066	0.160388	0.076301
Cu8	Cu	0.983093	0.170368	0.090216
Cu9	Cu	0.983103	0.170371	-0.090110
O10	O	0.977513	0.352018	0.076290
C11	C	0.831146	0.179541	0.000044
C12	C	0.738836	0.177117	0.000039
C13	C	0.517200	0.285190	0.000047
C14	C	0.430466	0.282903	0.000053
C15	C	0.449003	0.055540	0.000054
C16	C	0.535735	0.057829	0.000055
C17	C	0.569831	0.172657	0.000047
C18	C	0.396365	0.168081	0.000052
C19	C	0.302324	0.165600	0.000058
C20	C	0.663877	0.175139	0.000042
C21	C	0.987866	-0.057770	0.000056
C22	C	0.985436	-0.196292	0.000053
C23	C	1.056249	-0.272213	0.000055
C24	C	1.053739	-0.415383	0.000052
C25	C	1.135050	0.161198	0.000060
C26	C	1.227359	0.163622	0.000060
C27	C	0.978329	0.398508	0.000049
C28	C	0.980760	0.537031	0.000046
N29	N	0.983091	0.170365	0.217048
N30	N	0.983111	0.170364	-0.216942
C31	C	1.039148	0.085539	0.452059
C32	C	1.039150	0.085536	0.548041
C33	C	0.927048	0.255194	0.548040
C34	C	0.927043	0.255190	0.452061
C35	C	0.983097	0.170364	0.404073
C36	C	0.983105	0.170365	0.596034
C37	C	0.983107	0.170362	0.700101
C38	C	0.983094	0.170365	0.299999
H39	H	0.421231	-0.037950	0.000066
H40	H	1.114359	-0.480619	0.000058
H41	H	0.387617	0.374539	0.000056
C42	C	0.554702	0.411505	0.000050
N43	N	0.582946	0.506649	0.000057
C44	C	0.593633	-0.065973	0.000054
N45	N	0.637241	-0.159216	0.000056
C46	C	1.100802	-0.007782	0.399276
N47	N	1.147240	-0.078078	0.359522
H48	H	1.118732	-0.231219	0.000065
C49	C	0.898856	-0.374849	0.000042
N50	N	0.837167	-0.308467	0.000037
C51	C	1.100804	-0.007788	0.600821
N52	N	1.147241	-0.078089	0.640575
H53	H	0.922953	-0.237286	0.000043
H54	H	0.881411	0.324259	0.587122
C55	C	0.865417	0.348565	0.399273
N56	N	0.819015	0.418912	0.359513
