data_functionalizedCrystal
_audit_creation_method	'MofGen! by Chris Wilmer'
_symmetry_space_group_name_H-M	'P1'
_symmetry_Int_Tables_number	1
_symmetry_cell_setting	triclinic
loop_
_symmetry_equiv_pos_as_xyz
  x,y,z
_cell_length_a	16.974885
_cell_length_b	14.853559
_cell_length_c	15.455313
_cell_angle_alpha	92.670929
_cell_angle_beta	90.969048
_cell_angle_gamma	83.511792
loop_
_atom_site_label
_atom_site_type_symbol
_atom_site_fract_x
_atom_site_fract_y
_atom_site_fract_z
O1	O	1.049188	0.114952	0.001455
O2	O	0.819772	0.128714	-0.014636
O3	O	0.940611	-0.009391	-0.006159
O4	O	0.928348	0.253056	-0.007021
O5	O	0.933701	-0.001526	0.137618
O6	O	0.812862	0.136579	0.129142
O7	O	1.042278	0.122816	0.145232
Cu8	Cu	0.926939	0.130416	0.150315
Cu9	Cu	0.935111	0.121115	-0.019718
O10	O	0.921438	0.260921	0.136756
C11	C	0.786957	0.131978	0.055194
C12	C	0.699474	0.129975	0.049058
C13	C	0.936602	-0.039048	0.065689
C14	C	0.934941	-0.139134	0.065567
C15	C	0.207448	0.118209	0.006047
C16	C	0.289647	0.120091	0.011824
C17	C	0.326971	0.125326	0.093086
C18	C	0.282093	0.128670	0.168576
C19	C	0.199896	0.126781	0.162798
C20	C	0.572399	0.131430	0.118770
C21	C	0.654601	0.133321	0.124542
C22	C	0.662150	0.124741	-0.032211
C23	C	0.579951	0.122858	-0.037982
C24	C	0.535080	0.126196	0.037509
N25	N	0.410992	0.127253	0.098993
N26	N	0.451062	0.124263	0.031601
C27	C	0.931659	-0.566604	-0.013300
C28	C	0.924125	-0.558024	0.143451
C29	C	0.925692	-0.463989	0.143562
C30	C	0.930242	-0.421257	0.065240
C31	C	0.933224	-0.472560	-0.013192
C32	C	0.922703	-0.412678	0.221993
C33	C	0.924269	-0.318637	0.222106
C34	C	0.928825	-0.275904	0.143784
C35	C	0.931808	-0.327213	0.065349
C36	C	0.936357	-0.284481	-0.012973
C37	C	0.939346	-0.335789	-0.091409
C38	C	0.937780	-0.429827	-0.091514
C39	C	0.930391	-0.181866	0.143889
C40	C	0.937923	-0.190437	-0.012865
C41	C	1.075093	0.119552	0.075401
C42	C	1.162576	0.121555	0.081531
C43	C	0.925448	0.290578	0.064906
C44	C	0.927109	0.390664	0.065022
N45	N	0.921197	0.136957	0.269908
N46	N	0.940859	0.114566	-0.139311
C47	C	0.972551	0.078307	0.318904
C48	C	0.968216	0.083262	0.409408
C49	C	0.912529	0.146872	0.450914
C50	C	0.861169	0.205525	0.401911
C51	C	0.865501	0.200565	0.311408
C52	C	0.893831	0.168258	0.721184
C53	C	0.889504	0.173216	0.811693
C54	C	0.996551	0.050952	0.819184
C55	C	1.000881	0.046001	0.728679
C56	C	0.949518	0.104650	0.679684
N57	N	0.908098	0.151941	0.543423
N58	N	0.953946	0.099576	0.587176
H59	H	0.177065	0.113952	-0.060126
C60	C	0.150536	0.130466	0.245838
N61	N	0.113359	0.133239	0.308386
C62	C	0.339005	0.116398	-0.071216
N63	N	0.376182	0.113611	-0.133765
H64	H	0.549568	0.118593	-0.104154
H65	H	0.941631	-0.155652	-0.076645
C66	C	0.920987	-0.262207	0.308387
N67	N	0.918518	-0.219704	0.373375
H68	H	0.698693	0.122021	-0.093671
H69	H	0.943044	-0.300984	-0.155179
C70	C	0.941058	-0.486271	-0.177787
N71	N	0.943524	-0.528788	-0.242767
H72	H	1.017901	0.026513	0.285117
H73	H	0.684987	0.137590	0.190719
C74	C	1.024692	0.018721	0.463299
N75	N	1.067225	-0.029904	0.503889
C76	C	0.523048	0.135130	0.201812
N77	N	0.485874	0.137927	0.264364
C78	C	0.799906	0.275489	0.447570
N79	N	0.753760	0.328186	0.481960
H80	H	0.927940	-0.140093	0.207749
C81	C	0.809013	0.265092	0.257513
N82	N	0.766465	0.313696	0.216920
H83	H	0.918994	-0.447477	0.285758
H84	H	1.046225	-0.005796	0.694887
H85	H	0.934095	-0.608384	-0.077161
H86	H	0.920416	-0.592822	0.207217
H87	H	1.038367	0.003201	0.859084
H88	H	0.312489	0.132927	0.234742
H89	H	0.844155	0.225019	0.845482
C90	C	0.837432	0.232892	0.667308
N91	N	0.794986	0.281620	0.626728
