data_functionalizedCrystal
_audit_creation_method	'MofGen! by Chris Wilmer'
_symmetry_space_group_name_H-M	'P1'
_symmetry_Int_Tables_number	1
_symmetry_cell_setting	triclinic
loop_
_symmetry_equiv_pos_as_xyz
  x,y,z
_cell_length_a	14.395555
_cell_length_b	14.809374
_cell_length_c	14.809374
_cell_angle_alpha	60.797835
_cell_angle_beta	89.999658
_cell_angle_gamma	67.427378
loop_
_atom_site_label
_atom_site_type_symbol
_atom_site_fract_x
_atom_site_fract_y
_atom_site_fract_z
Zr1	Zr	1.026059	0.955241	-0.203699
O2	O	0.912267	1.113157	-0.350855
O3	O	1.044832	0.777475	-0.145622
O4	O	1.082830	0.926624	-0.332163
O5	O	0.862621	0.993504	-0.031916
O6	O	1.235698	0.926630	-0.332167
O7	O	0.874269	0.964008	-0.164314
O8	O	1.167727	0.659830	0.001521
O9	O	0.930593	1.260304	-0.365603
O10	O	1.186386	0.857949	-0.136520
O11	O	1.063609	0.879956	-0.037710
O12	O	1.108347	1.055560	-0.257338
O13	O	0.985570	1.077568	-0.158528
Zr14	Zr	1.251289	1.002292	0.007455
Zr15	Zr	1.269866	0.955251	-0.203705
Zr16	Zr	1.007481	1.002283	0.007461
Zr17	Zr	1.055286	1.189923	-0.227221
Zr18	Zr	1.222062	0.767610	0.030977
O19	O	1.232516	1.180058	-0.050621
O20	O	1.258930	1.113171	-0.350864
O21	O	0.885853	1.180045	-0.050613
O22	O	1.365080	0.844376	0.154612
O23	O	1.391495	0.777489	-0.145631
O24	O	1.018418	0.844362	0.154620
O25	O	1.414726	0.964029	-0.164328
O26	O	1.194517	1.030909	0.135920
O27	O	1.041649	1.030903	0.135923
O28	O	1.403078	0.993525	-0.031929
O29	O	1.124387	1.260312	-0.365608
O30	O	1.152960	0.697221	0.169365
O31	O	1.346755	0.697229	0.169360
O32	O	1.361521	0.659837	0.001516
O33	O	0.915826	1.297696	-0.197759
O34	O	1.109621	1.297703	-0.197764
O35	O	1.169000	0.901973	0.061094
O36	O	1.291777	0.879965	-0.037716
O37	O	1.213738	1.077577	-0.158533
O38	O	1.090962	1.099584	-0.059723
C39	C	1.102115	0.685215	-0.068699
C40	C	1.089707	0.585587	-0.058714
C41	C	1.145081	0.530252	-0.103278
C42	C	1.132259	0.427280	-0.092959
C43	C	0.833708	0.978755	-0.098114
C44	C	0.730205	0.978751	-0.098112
C45	C	0.712167	0.871004	-0.032238
C46	C	0.623171	0.939565	0.000810
C47	C	0.634771	0.910200	-0.131132
C48	C	0.642568	1.047325	-0.065009
C49	C	0.654185	1.017931	-0.197001
C50	C	0.565184	1.086575	-0.163985
C51	C	1.443640	0.978778	-0.098129
C52	C	1.547142	0.978782	-0.098132
C53	C	1.161911	0.919925	-0.362251
C54	C	1.169798	0.899954	-0.451894
C55	C	1.175232	1.272318	-0.127544
C56	C	1.187640	1.371946	-0.137530
C57	C	1.134601	0.989080	-0.551793
C58	C	1.142751	0.968441	-0.644445
C59	C	1.115436	1.037608	0.166007
C60	C	1.107550	1.057579	0.255650
C61	C	1.407081	0.685227	-0.068707
C62	C	1.498176	0.585603	-0.058724
C63	C	1.078878	0.744057	0.195430
C64	C	1.058584	0.664399	0.295058
C65	C	1.383844	0.744069	0.195422
C66	C	1.467052	0.664415	0.295048
C67	C	0.893504	1.213464	-0.391666
C68	C	0.810296	1.293118	-0.491292
C69	C	0.870267	1.272306	-0.127536
C70	C	0.779172	1.371931	-0.137520
C71	C	1.198470	1.213476	-0.391673
C72	C	1.218764	1.293134	-0.491302
C73	C	1.485943	0.527323	-0.105620
C74	C	1.571530	0.433724	-0.096260
C75	C	1.669348	0.398401	-0.039999
C76	C	1.681580	0.456689	0.006897
C77	C	1.595995	0.550292	-0.002469
C78	C	1.104066	0.638485	0.393429
C79	C	1.084994	0.563652	0.487047
C80	C	1.020445	0.514729	0.482293
C81	C	0.974958	0.540650	0.383912
C82	C	0.994024	0.615487	0.290295
C83	C	1.570226	0.615521	0.290256
C84	C	1.648421	0.540688	0.383856
C85	C	1.623439	0.514745	0.482247
C86	C	1.520255	0.563648	0.487037
C87	C	1.442063	0.638485	0.393438
C88	C	0.707123	1.342024	-0.486500
C89	C	0.628932	1.416885	-0.580103
C90	C	0.653915	1.442833	-0.678495
C91	C	0.757098	1.393924	-0.683284
C92	C	0.835288	1.319071	-0.589683
C93	C	0.791407	1.430217	-0.090634
C94	C	0.705825	1.523837	-0.100019
C95	C	0.608007	1.559164	-0.156284
C96	C	0.595774	1.500871	-0.203175
C97	C	0.681357	1.407258	-0.193796
C98	C	1.283317	1.342035	-0.486513
C99	C	1.302406	1.416872	-0.580116
C100	C	1.256934	1.442813	-0.678506
C101	C	1.192377	1.393903	-0.683291
C102	C	1.173296	1.319061	-0.589690
H103	H	1.244549	0.400796	-0.183322
H104	H	1.032809	0.556726	-0.012918
N105	N	0.647834	1.120004	-0.029842
N106	N	0.571552	1.171829	-0.004832
H107	H	0.575274	1.223155	0.020008
N108	N	1.188138	0.853533	-0.623162
N109	N	1.279723	0.786530	-0.571577
H110	H	1.311778	0.705377	-0.556546
H111	H	1.590586	0.636630	0.210149
N112	N	0.681570	1.315537	-0.386011
N113	N	0.589440	1.359227	-0.381769
H114	H	0.571384	1.340530	-0.310801
N115	N	0.523546	1.466826	-0.575177
N116	N	0.501262	1.443632	-0.487315
H117	H	0.426834	1.478900	-0.483832
H118	H	0.502185	1.177767	-0.219696
H119	H	1.004929	0.453793	0.558530
N120	N	1.756767	0.302713	-0.030319
N121	N	1.757574	0.205706	0.013588
H122	H	1.819315	0.138100	0.020466
N123	N	0.791360	0.756726	0.037726
N124	N	0.792317	0.703953	0.134459
H125	H	0.848246	0.623246	0.183874
N126	N	1.781509	0.420583	0.064363
N127	N	1.857905	0.337001	0.072717
H128	H	1.928482	0.311492	0.113309
N129	N	1.131490	0.537157	0.587533
N130	N	1.190448	0.435271	0.657557
H131	H	1.223290	0.416557	0.728524
N132	N	1.559014	0.374173	-0.144139
N133	N	1.581726	0.269254	-0.087724
H134	H	1.572884	0.227195	-0.121535
N135	N	0.605440	0.898019	0.105714
N136	N	0.664580	0.798437	0.179954
H137	H	0.652063	0.769086	0.254045
N138	N	1.060874	0.391101	-0.035491
N139	N	1.071602	0.359067	0.060698
H140	H	1.021188	0.333516	0.101286
N141	N	1.145984	1.420402	-0.783816
N142	N	1.201721	1.396914	-0.841242
H143	H	1.168968	1.415637	-0.912248
H144	H	1.120727	1.279253	-0.593603
H145	H	0.919294	1.279250	-0.593597
N146	N	0.671963	1.059413	-0.301879
N147	N	0.672682	1.007423	-0.347870
H148	H	0.685241	1.036711	-0.421942
N149	N	1.329781	1.315560	-0.386027
N150	N	1.387421	1.359234	-0.381786
H151	H	1.420246	1.340537	-0.310820
H152	H	0.630458	0.852217	-0.159052
H153	H	1.687117	0.453806	0.558454
N154	N	1.494739	0.537116	0.587547
N155	N	1.435305	0.490455	0.617919
H156	H	1.417284	0.471707	0.688907
H157	H	1.071383	1.149168	-0.761293
N158	N	0.782601	1.420410	-0.783792
N159	N	0.826413	1.341676	-0.801603
H160	H	0.844421	1.360376	-0.872589
H161	H	0.516120	1.529649	-0.248986
H162	H	1.201986	0.559104	-0.149067
H163	H	1.272480	1.503756	-0.754715
H164	H	0.715804	1.571285	-0.061828
H165	H	1.098440	1.080662	-0.568728
H166	H	1.205968	0.808372	-0.434959
H167	H	1.406304	0.556079	-0.151446
H168	H	1.605969	0.597733	0.035727
H169	H	0.538329	1.635391	-0.163912
N170	N	0.891310	1.394158	-0.033150
N171	N	0.902203	1.446228	0.008697
H172	H	0.972758	1.420771	0.049294
H173	H	1.156625	0.678312	0.397319
H174	H	0.922401	0.500805	0.380058
H175	H	1.354970	1.456689	-0.576199
H176	H	0.671379	1.359803	-0.231975
N177	N	1.753808	0.490754	0.378929
N178	N	1.776089	0.513923	0.291070
H179	H	1.850516	0.478659	0.287586
H180	H	0.956988	0.636574	0.210202
H181	H	1.358055	0.678286	0.397355
N182	N	0.574027	1.519301	-0.774092
N183	N	0.481913	1.562952	-0.769787
H184	H	0.425487	1.616957	-0.837299
