data_functionalizedCrystal
_audit_creation_method	'MofGen! by Chris Wilmer'
_symmetry_space_group_name_H-M	'P1'
_symmetry_Int_Tables_number	1
_symmetry_cell_setting	triclinic
loop_
_symmetry_equiv_pos_as_xyz
  x,y,z
_cell_length_a	27.731994
_cell_length_b	27.732048
_cell_length_c	12.996460
_cell_angle_alpha	89.988908
_cell_angle_beta	90.000496
_cell_angle_gamma	82.631595
loop_
_atom_site_label
_atom_site_type_symbol
_atom_site_fract_x
_atom_site_fract_y
_atom_site_fract_z
O1	O	0.640945	0.057393	-0.085431
O2	O	0.500148	0.066166	-0.085467
O3	O	0.574919	-0.008618	-0.085428
O4	O	0.566174	0.132177	-0.085470
O5	O	0.574912	-0.008622	0.085706
O6	O	0.500140	0.066162	0.085667
O7	O	0.640937	0.057389	0.085703
Cu8	Cu	0.570538	0.061775	0.101311
Cu9	Cu	0.570547	0.061780	-0.101075
O10	O	0.566166	0.132173	0.085664
C11	C	0.482137	0.065984	0.000096
C12	C	0.428480	0.065442	0.000083
C13	C	0.095758	0.062024	0.093409
C14	C	-0.105901	0.059962	0.093421
O15	O	-0.131977	0.059673	0.172756
N16	N	-0.131111	0.059708	0.000136
C17	C	-0.105904	0.059967	-0.093159
O18	O	-0.131973	0.059698	-0.172503
C19	C	0.095754	0.062025	-0.093170
C20	C	0.120961	0.062283	0.000121
C21	C	0.120965	0.062282	0.186692
C22	C	0.171376	0.062800	0.186688
C23	C	0.196580	0.063060	0.093401
C24	C	0.171372	0.062801	0.000117
C25	C	0.120961	0.062280	-0.186463
C26	C	0.171379	0.062793	-0.186458
C27	C	0.196586	0.063052	-0.093167
C28	C	0.246987	0.063579	-0.093174
N29	N	0.272198	0.063833	0.000111
C30	C	0.246994	0.063573	0.093398
C31	C	-0.211777	0.058887	-0.093146
C32	C	-0.262191	0.058373	-0.093143
C33	C	-0.262185	0.058368	0.093436
C34	C	-0.211770	0.058885	0.093433
C35	C	-0.186566	0.059141	0.000139
C36	C	0.352861	0.064662	0.093383
C37	C	0.403277	0.065182	0.093370
C38	C	0.403266	0.065185	-0.093209
C39	C	0.352854	0.064667	-0.093197
C40	C	0.327654	0.064404	0.000107
O41	O	0.273095	0.063863	-0.172468
O42	O	0.273074	0.063831	0.172731
C43	C	0.045346	0.061506	0.093413
C44	C	0.020139	0.061247	0.000129
C45	C	0.045343	0.061507	-0.093158
C46	C	-0.030275	0.060734	0.000132
C47	C	-0.055479	0.060474	0.093419
C48	C	-0.030268	0.060728	0.186704
C49	C	0.020143	0.061246	0.186700
C50	C	0.020132	0.061253	-0.186443
C51	C	-0.030279	0.060736	-0.186431
C52	C	-0.055483	0.060476	-0.093144
C53	C	0.574732	-0.026627	0.000141
C54	C	0.574179	-0.080282	0.000150
C55	C	0.614884	-0.419105	0.000107
C56	C	0.612833	-0.620764	0.000092
O57	O	0.650055	-0.652027	0.000057
N58	N	0.568496	-0.639879	0.000082
C59	C	0.524670	-0.608576	0.000069
O60	O	0.486912	-0.629462	0.000049
C61	C	0.526721	-0.406918	0.000076
C62	C	0.571061	-0.387805	0.000097
C63	C	0.659220	-0.399992	0.000127
C64	C	0.659732	-0.349580	0.000136
C65	C	0.615908	-0.318281	0.000126
C66	C	0.571573	-0.337394	0.000106
C67	C	0.482895	-0.375615	0.000056
C68	C	0.483412	-0.325198	0.000055
C69	C	0.527751	-0.306086	0.000076
C70	C	0.528262	-0.255683	0.000105
N71	N	0.572598	-0.236567	0.000116
C72	C	0.616421	-0.267867	0.000126
C73	C	0.523596	-0.714450	0.000067
C74	C	0.523083	-0.764864	0.000067
C75	C	0.611246	-0.777049	0.000089
C76	C	0.611759	-0.726633	0.000096
C77	C	0.567932	-0.695335	0.000077
C78	C	0.617494	-0.161998	0.000146
C79	C	0.618002	-0.111581	0.000160
C80	C	0.529839	-0.099401	0.000133
C81	C	0.529331	-0.149813	0.000125
C82	C	0.573162	-0.181111	0.000128
O83	O	0.491060	-0.224391	0.000129
O84	O	0.654174	-0.246971	0.000123
C85	C	0.614372	-0.469517	0.000098
C86	C	0.570036	-0.488629	0.000078
C87	C	0.526213	-0.457330	0.000068
C88	C	0.569523	-0.539043	0.000078
C89	C	0.613346	-0.570343	0.000089
C90	C	0.657683	-0.551228	0.000099
C91	C	0.658195	-0.500816	0.000108
C92	C	0.481876	-0.476445	0.000058
C93	C	0.481367	-0.526857	0.000050
C94	C	0.525191	-0.558157	0.000060
C95	C	0.658949	0.057571	0.000138
C96	C	0.712605	0.058114	0.000144
C97	C	0.566353	0.150182	0.000092
C98	C	0.566906	0.203837	0.000077
N99	N	0.570535	0.061771	0.243658
N100	N	0.570554	0.061780	-0.243422
C101	C	0.570546	0.061780	0.663472
C102	C	0.570542	0.061780	0.546667
C103	C	0.570541	0.061776	0.453569
C104	C	0.570536	0.061775	0.336756
H105	H	0.040648	0.061464	-0.262410
H106	H	-0.282714	0.058157	0.169395
C107	C	0.660532	-0.705613	0.000109
C108	C	0.673016	-0.672626	-0.088755
C109	C	0.721792	-0.651608	-0.088744
C110	C	0.758084	-0.663578	0.000130
C111	C	0.745600	-0.696567	0.089001
C112	C	0.696824	-0.717584	0.088990
H113	H	0.646150	-0.663763	-0.154551
H114	H	0.731033	-0.627188	-0.154533
H115	H	0.794191	-0.648020	0.000138
H116	H	0.772466	-0.705429	0.154797
H117	H	0.687584	-0.742005	0.154779
C118	C	-0.058003	0.060452	-0.289061
C119	C	-0.045257	0.018531	-0.365999
C120	C	-0.072978	0.018242	-0.468626
C121	C	-0.113446	0.059875	-0.494315
C122	C	-0.126194	0.101799	-0.417375
C123	C	-0.098473	0.102088	-0.314748
H124	H	-0.015299	-0.012291	-0.346984
H125	H	-0.063541	-0.012793	-0.525581
H126	H	-0.133966	0.059661	-0.570285
H127	H	-0.156152	0.132621	-0.436390
H128	H	-0.107910	0.133123	-0.257793
H129	H	0.494160	-0.073908	0.000128
H130	H	-0.191249	0.059096	0.169399
C131	C	0.706969	-0.479796	0.000122
C132	C	0.719453	-0.446807	-0.088737
C133	C	0.768230	-0.425791	-0.088726
C134	C	0.804523	-0.437765	0.000145
C135	C	0.792039	-0.470756	0.089011
C136	C	0.743262	-0.491772	0.089000
H137	H	0.692587	-0.437941	-0.154531
H138	H	0.777471	-0.401369	-0.154511
H139	H	0.840630	-0.422208	0.000154
H140	H	0.818906	-0.479622	0.154805
H141	H	0.734022	-0.516194	0.154785
C142	C	0.093244	0.061993	-0.289089
C143	C	0.105992	0.020071	-0.366024
C144	C	0.078276	0.019784	-0.468658
C145	C	0.037814	0.061419	-0.494358
C146	C	0.025064	0.103344	-0.417421
C147	C	0.052779	0.103631	-0.314787
H148	H	0.135946	-0.010753	-0.347002
H149	H	0.087715	-0.011253	-0.525612
H150	H	0.017297	0.061206	-0.570334
H151	H	-0.004891	0.134168	-0.436444
H152	H	0.043341	0.134668	-0.257834
H153	H	0.693365	-0.576720	0.000112
H154	H	-0.282712	0.058170	-0.169110
C155	C	0.659453	-0.811483	0.000093
C156	C	0.671221	-0.847830	0.088953
C157	C	0.719426	-0.882266	0.088948
C158	C	0.755862	-0.880356	0.000084
C159	C	0.744094	-0.844008	-0.088783
C160	C	0.695890	-0.809572	-0.088779
H161	H	0.644248	-0.849245	0.154742
H162	H	0.728136	-0.909174	0.154734
H163	H	0.791545	-0.905848	0.000080
H164	H	0.771067	-0.842593	-0.154572
H165	H	0.687179	-0.782665	-0.154564
H166	H	0.332328	0.064464	-0.169162
H167	H	0.486977	-0.780420	0.000068
C168	C	0.480560	-0.170843	0.000107
C169	C	0.444257	-0.158901	0.088960
C170	C	0.395486	-0.179929	0.088929
C171	C	0.383019	-0.212898	0.000046
C172	C	0.419324	-0.224842	-0.088813
C173	C	0.468094	-0.203814	-0.088783
H174	H	0.453485	-0.134494	0.154762
H175	H	0.368612	-0.171087	0.154709
H176	H	0.346917	-0.228464	0.000023
H177	H	0.410096	-0.249249	-0.154616
H178	H	0.494969	-0.212656	-0.154563
C179	C	0.666779	-0.090559	0.000177
C180	C	0.703072	-0.102532	0.089047
C181	C	0.751846	-0.081512	0.089061
C182	C	0.764328	-0.048519	0.000205
C183	C	0.728034	-0.036545	-0.088671
C184	C	0.679259	-0.057564	-0.088686
H185	H	0.693833	-0.126957	0.154830
H186	H	0.778713	-0.090377	0.154854
H187	H	0.800433	-0.032959	0.000216
H188	H	0.737272	-0.012120	-0.154454
H189	H	0.652392	-0.048700	-0.154479
C190	C	0.432589	-0.547876	0.000028
C191	C	0.396286	-0.535923	0.088876
C192	C	0.347509	-0.556939	0.088843
C193	C	0.335036	-0.589907	-0.000037
C194	C	0.371341	-0.601861	-0.088892
C195	C	0.420117	-0.580845	-0.088860
H196	H	0.405518	-0.511517	0.154676
H197	H	0.320634	-0.548090	0.154620
H198	H	0.298929	-0.605464	-0.000061
H199	H	0.362108	-0.626268	-0.154693
H200	H	0.446992	-0.589695	-0.154636
C201	C	0.199102	0.063077	-0.289085
C202	C	0.197975	0.021016	-0.366030
C203	C	0.225697	0.021301	-0.468655
C204	C	0.254546	0.063647	-0.494335
C205	C	0.255674	0.105711	-0.417388
C206	C	0.227952	0.105426	-0.314763
H207	H	0.176618	-0.010334	-0.347022
H208	H	0.224862	-0.009838	-0.525617
H209	H	0.275068	0.063858	-0.570305
H210	H	0.277031	0.137061	-0.436396
H211	H	0.228787	0.136565	-0.257802
H212	H	-0.191261	0.059095	-0.169121
H213	H	0.653186	-0.187475	0.000145
C214	C	0.433666	-0.442021	0.000057
C215	C	0.397229	-0.443919	-0.088809
C216	C	0.349015	-0.409498	-0.088801
C217	C	0.337238	-0.373178	0.000073
C218	C	0.373676	-0.371278	0.088946
C219	C	0.421890	-0.405700	0.088938
H220	H	0.405946	-0.470807	-0.154605
H221	H	0.322041	-0.410904	-0.154591
H222	H	0.301547	-0.347697	0.000080
H223	H	0.364959	-0.344391	0.154743
H224	H	0.448864	-0.404294	0.154728
H225	H	0.695837	-0.334024	0.000149
H226	H	0.040662	0.061456	0.262667
C227	C	0.430997	0.065471	-0.195820
C228	C	0.471465	0.023834	-0.221448
C229	C	0.499199	0.024118	-0.324058
C230	C	0.486466	0.066038	-0.401040
C231	C	0.445997	0.107677	-0.375414
C232	C	0.418263	0.107394	-0.272804
H233	H	0.480892	-0.007200	-0.164459
H234	H	0.529157	-0.006707	-0.343028
H235	H	0.506997	0.066247	-0.476999
H236	H	0.436570	0.138712	-0.432402
H237	H	0.388305	0.138219	-0.253834
H238	H	0.423798	0.065394	0.169342
H239	H	0.332348	0.064452	0.169360
H240	H	0.191896	0.063008	0.262655
H241	H	0.100450	0.062069	0.262662
H242	H	-0.050798	0.060519	0.262662
H243	H	0.694908	-0.425472	0.000131
H244	H	0.487905	-0.688970	0.000052
H245	H	0.446789	-0.391167	0.000032
H246	H	0.447722	-0.299716	0.000038
