data_functionalizedCrystal
_audit_creation_method	'MofGen! by Chris Wilmer'
_symmetry_space_group_name_H-M	'P1'
_symmetry_Int_Tables_number	1
_symmetry_cell_setting	triclinic
loop_
_symmetry_equiv_pos_as_xyz
  x,y,z
_cell_length_a	10.654550
_cell_length_b	27.732048
_cell_length_c	9.730223
_cell_angle_alpha	89.990670
_cell_angle_beta	89.999957
_cell_angle_gamma	83.563793
loop_
_atom_site_label
_atom_site_type_symbol
_atom_site_fract_x
_atom_site_fract_y
_atom_site_fract_z
O1	O	1.664985	0.067886	-0.114204
O2	O	1.299235	0.074354	-0.114231
O3	O	1.493469	0.000794	-0.114191
O4	O	1.470751	0.141446	-0.114245
O5	O	1.493457	0.000792	0.114389
O6	O	1.299223	0.074352	0.114349
O7	O	1.664973	0.067884	0.114376
Zn8	Zn	1.482096	0.071117	0.150654
Zn9	Zn	1.482112	0.071120	-0.150509
O10	O	1.470738	0.141444	0.114335
C11	C	1.252451	0.073878	0.000056
C12	C	1.113067	0.072457	0.000047
C13	C	1.031761	0.115768	0.000034
C14	C	0.900796	0.114430	0.000059
C15	C	0.932457	0.026466	0.000103
C16	C	1.063419	0.027805	0.000088
C17	C	1.492986	-0.017217	0.000103
C18	C	1.491550	-0.070881	0.000114
C19	C	1.597290	-0.409038	0.000052
C20	C	1.591962	-0.610730	0.000032
O21	O	1.688653	-0.641384	-0.000021
N22	N	1.476789	-0.630571	0.000025
C23	C	1.362940	-0.599986	0.000014
O24	O	1.264855	-0.621490	-0.000007
C25	C	1.368269	-0.398294	0.000023
C26	C	1.483449	-0.378456	0.000044
C27	C	1.712461	-0.389199	0.000071
C28	C	1.713792	-0.338779	0.000084
C29	C	1.599951	-0.308197	0.000076
C30	C	1.484780	-0.328036	0.000057
C31	C	1.254421	-0.367709	0.000002
C32	C	1.255764	-0.317284	0.000001
C33	C	1.370944	-0.297446	0.000022
C34	C	1.372271	-0.247034	0.000062
N35	N	1.487444	-0.227193	0.000069
C36	C	1.601284	-0.257774	0.000076
C37	C	1.360150	-0.705877	0.000011
C38	C	1.358817	-0.756300	0.000011
C39	C	1.587840	-0.767041	0.000027
C40	C	1.589171	-0.716617	0.000037
C41	C	1.475323	-0.686036	0.000018
C42	C	1.604070	-0.151888	0.000104
C43	C	1.605391	-0.101463	0.000122
C44	C	1.376369	-0.090726	0.000098
C45	C	1.375047	-0.141147	0.000088
C46	C	1.488908	-0.171727	0.000086
O47	O	1.275631	-0.216352	0.000100
O48	O	1.699354	-0.236261	0.000067
C49	C	1.595959	-0.459458	0.000039
C50	C	1.480788	-0.479296	0.000020
C51	C	1.366947	-0.448715	0.000012
C52	C	1.479455	-0.529719	0.000020
C53	C	1.593296	-0.560301	0.000027
C54	C	1.708469	-0.540460	0.000034
C55	C	1.709799	-0.490040	0.000046
C56	C	1.251774	-0.468556	0.000005
C57	C	1.250453	-0.518976	-0.000005
C58	C	1.364293	-0.549558	0.000002
C59	C	1.711757	0.068360	0.000086
C60	C	1.851141	0.069781	0.000086
C61	C	1.471221	0.159455	0.000039
C62	C	1.472657	0.213118	0.000018
N63	N	1.482094	0.071115	0.356191
N64	N	1.482124	0.071118	-0.356046
C65	C	1.568130	0.038557	0.428135
C66	C	1.568142	0.038557	0.572018
C67	C	1.396079	0.103678	0.572000
C68	C	1.396062	0.103675	0.428120
H69	H	1.072179	0.152126	0.000011
Cl70	Cl	1.287888	0.144607	0.337667
H71	H	1.807584	-0.322632	0.000095
H72	H	1.638198	0.012044	0.630590
Cl73	Cl	1.287934	0.144611	0.662432
Cl74	Cl	0.798587	0.168880	0.000044
H75	H	0.892018	-0.009888	0.000145
Cl76	Cl	1.165641	-0.026648	0.000115
Cl77	Cl	1.676280	-0.002378	0.337715
H78	H	1.699189	-0.085314	0.000142
H79	H	1.696787	-0.176781	0.000096
Cl80	Cl	1.855595	-0.427636	0.000083
H81	H	1.682961	-0.700469	0.000053
Cl82	Cl	1.214012	-0.781233	0.000011
H83	H	1.680533	-0.791950	0.000034
H84	H	1.156652	-0.535123	-0.000011
H85	H	1.160629	-0.383852	-0.000023
Cl86	Cl	1.217010	-0.667439	-0.000011
H87	H	1.163052	-0.292386	-0.000016
Cl88	Cl	1.851581	-0.578915	0.000049
H89	H	1.281258	-0.157299	0.000109
H90	H	1.283683	-0.065817	0.000097
H91	H	1.159069	-0.443660	-0.000004
Cl92	Cl	1.854606	-0.465108	0.000061
