data_functionalizedCrystal
_audit_creation_method	'MofGen! by Chris Wilmer'
_symmetry_space_group_name_H-M	'P1'
_symmetry_Int_Tables_number	1
_symmetry_cell_setting	triclinic
loop_
_symmetry_equiv_pos_as_xyz
  x,y,z
_cell_length_a	25.639233
_cell_length_b	18.101398
_cell_length_c	18.101395
_cell_angle_alpha	90.026371
_cell_angle_beta	90.015138
_cell_angle_gamma	90.018723
loop_
_atom_site_label
_atom_site_type_symbol
_atom_site_fract_x
_atom_site_fract_y
_atom_site_fract_z
Zn1	Zn	-0.295707	-1.132080	0.295013
Zn2	Zn	-0.208277	-1.131988	0.418835
Zn3	Zn	-0.208277	-1.008251	0.295002
Zn4	Zn	-0.295672	-1.008190	0.418807
O5	O	-0.251983	-1.070127	0.356914
O6	O	-0.284124	-1.235701	0.311455
O7	O	-0.135112	-1.115561	0.402415
O8	O	-0.219889	-1.024741	0.191370
O9	O	-0.219890	-1.235633	0.402426
O10	O	-0.284124	-1.115718	0.191379
O11	O	-0.135112	-1.024652	0.311436
O12	O	-0.219855	-0.904610	0.311408
O13	O	-0.368842	-1.024637	0.402379
O14	O	-0.284064	-0.904565	0.402368
O15	O	-0.368868	-1.115659	0.311428
O16	O	-0.219856	-1.115502	0.522464
O17	O	-0.284065	-1.024548	0.522444
C18	C	-0.251956	-0.877717	0.356884
C19	C	-0.251957	-0.795403	0.356889
C20	C	-0.251968	-1.070028	0.549325
C21	C	-0.251979	-1.070053	0.631639
C22	C	-0.388356	-1.070151	0.356901
C23	C	-0.446470	-1.070161	0.356896
C24	C	-0.806853	-1.117616	0.309397
C25	C	-0.861457	-1.117625	0.309377
O26	O	-0.889710	-1.157914	0.269079
N27	N	-0.888753	-1.070243	0.356722
C28	C	-0.861442	-1.022843	0.404086
O29	O	-0.889674	-0.982541	0.444355
C30	C	-0.806839	-1.022830	0.404102
C31	C	-0.779545	-1.070221	0.356759
C32	C	-0.779559	-1.165003	0.262057
C33	C	-0.724959	-1.164995	0.262078
C34	C	-0.697652	-1.117600	0.309440
C35	C	-0.724945	-1.070213	0.356781
C36	C	-0.779529	-0.975427	0.451462
C37	C	-0.724922	-0.975418	0.451474
C38	C	-0.697628	-1.022809	0.404130
C39	C	-0.643037	-1.022810	0.404164
N40	N	-0.615741	-1.070192	0.356818
C41	C	-0.643048	-1.117587	0.309456
C42	C	-0.976113	-1.022871	0.404048
C43	C	-1.030715	-1.022887	0.404036
C44	C	-1.030726	-1.117669	0.309325
C45	C	-0.976123	-1.117656	0.309341
C46	C	-0.948817	-1.070254	0.356702
C47	C	-0.528383	-1.117567	0.309506
C48	C	-0.473778	-1.117556	0.309534
C49	C	-0.473771	-1.022772	0.404242
C50	C	-0.528372	-1.022785	0.404217
C51	C	-0.555677	-1.070185	0.356843
O52	O	-0.614750	-0.982540	0.444439
O53	O	-0.614810	-1.157876	0.269188
C54	C	-0.116141	-1.070146	0.356874
C55	C	-0.058027	-1.070279	0.356671
C56	C	-0.252011	-1.263289	0.356945
C57	C	-0.252023	-1.345603	0.356958
C58	C	-0.252001	-0.496312	0.356936
C59	C	-0.211799	-0.527640	0.299420
C60	C	-0.211628	-0.613259	0.299575
C61	C	-0.251979	-0.644694	0.356912
C62	C	-0.236925	-0.613578	0.434919
C63	C	-0.236646	-0.527933	0.434600
C64	C	-0.307351	-0.527919	0.337121
C65	C	-0.307049	-0.613569	0.335384
C66	C	-0.251968	-0.728554	0.356903
C67	C	-0.252011	-0.412452	0.356949
C68	C	-0.252010	-1.070247	0.163752
C69	C	-0.252022	-1.070298	0.081438
C70	C	-0.252007	-1.070216	0.930730
C71	C	-0.292506	-1.013123	0.899423
C72	C	-0.292379	-1.012852	0.813805
C73	C	-0.251994	-1.070135	0.782347
C74	C	-0.196889	-1.049014	0.813480
C75	C	-0.197131	-1.048646	0.899126
C76	C	-0.266128	-1.148556	0.899084
C77	C	-0.267336	-1.148095	0.813434
C78	C	-0.251983	-1.070091	0.698488
C79	C	-0.252014	-1.070258	1.014589
H80	H	-0.451558	-1.156150	0.270981
H81	H	-0.196182	-0.507927	0.451405
H82	H	-0.283025	-0.954784	0.793374
H83	H	-0.264650	-0.507207	0.478903
H84	H	-0.265290	-0.633939	0.478920
H85	H	-0.333238	-1.026065	0.792754
H86	H	-1.052933	-0.984304	0.442596
H87	H	-0.702741	-1.203584	0.223525
H88	H	-0.196899	-0.634998	0.452016
H89	H	-0.550608	-1.156162	0.270927
H90	H	-0.185170	-0.991380	0.919160
H91	H	-0.321038	-0.506345	0.281230
H92	H	-0.165927	-1.088426	0.919837
H93	H	-0.953883	-0.984270	0.442619
H94	H	-0.550595	-0.984202	0.442775
H95	H	-0.184714	-0.992355	0.792087
H96	H	-0.305626	-1.167814	0.920646
H97	H	-0.307890	-1.164023	0.793084
H98	H	-0.170614	-0.633718	0.312672
H99	H	-0.318400	-0.633912	0.277980
H100	H	-0.165891	-1.089290	0.793104
H101	H	-0.337305	-0.507658	0.379013
H102	H	-0.338607	-0.634970	0.374224
H103	H	-0.239990	-1.192882	0.792017
H104	H	-0.801742	-0.936836	0.490014
H105	H	-0.702692	-0.936809	0.490034
H106	H	-0.333497	-1.026205	0.919984
H107	H	-0.283270	-0.955408	0.921002
H108	H	-0.236631	-1.191092	0.919329
H109	H	-0.801787	-1.203598	0.223485
H110	H	-0.953904	-1.156245	0.270789
H111	H	-0.451528	-0.984186	0.442805
H112	H	-1.052970	-1.156259	0.270758
H113	H	-0.221063	-0.634298	0.241728
H114	H	-0.221131	-0.507069	0.241398
H115	H	-0.171024	-0.506097	0.312370
