data_functionalizedCrystal
_audit_creation_method	'MofGen! by Chris Wilmer'
_symmetry_space_group_name_H-M	'P1'
_symmetry_Int_Tables_number	1
_symmetry_cell_setting	triclinic
loop_
_symmetry_equiv_pos_as_xyz
  x,y,z
_cell_length_a	16.992694
_cell_length_b	13.101039
_cell_length_c	16.992695
_cell_angle_alpha	86.408978
_cell_angle_beta	90.668223
_cell_angle_gamma	93.581737
loop_
_atom_site_label
_atom_site_type_symbol
_atom_site_fract_x
_atom_site_fract_y
_atom_site_fract_z
O1	O	1.054903	0.085087	0.162849
O2	O	1.388236	0.418420	0.496183
O3	O	1.721569	0.751753	0.829516
O4	O	0.826504	0.085117	0.161017
O5	O	1.159837	0.418450	0.494350
O6	O	1.493171	0.751783	0.827683
O7	O	0.939787	0.085094	0.047733
O8	O	1.273121	0.418427	0.381067
O9	O	1.606454	0.751760	0.714400
O10	O	0.941619	0.085110	0.276133
O11	O	1.274953	0.418443	0.609466
O12	O	1.608286	0.751776	0.942799
O13	O	0.931660	-0.085335	0.055876
O14	O	1.264994	0.247999	0.389209
O15	O	1.598327	0.581332	0.722542
O16	O	0.818377	-0.085311	0.169159
O17	O	1.151710	0.248022	0.502492
O18	O	1.485044	0.581355	0.835826
O19	O	1.046776	-0.085342	0.170992
O20	O	1.380109	0.247992	0.504325
O21	O	1.713442	0.581325	0.837658
Zn22	Zn	0.931286	-0.112386	0.171368
Zn23	Zn	1.264619	0.220948	0.504701
Zn24	Zn	1.597953	0.554281	0.838035
Zn25	Zn	0.941994	0.112161	0.160640
Zn26	Zn	1.275327	0.445494	0.493974
Zn27	Zn	1.608660	0.778827	0.827307
O28	O	0.933492	-0.085319	0.284275
O29	O	1.266826	0.248015	0.617608
O30	O	1.600159	0.581348	0.950942
C31	C	0.793081	-0.000094	0.162732
C32	C	1.126414	0.333240	0.496065
C33	C	1.459747	0.666573	0.829399
C34	C	0.705597	-0.000082	0.155703
C35	C	1.038930	0.333251	0.489036
C36	C	1.372263	0.666584	0.822369
N37	N	0.923984	-0.265633	0.178689
N38	N	1.257317	0.067701	0.512023
N39	N	1.590651	0.401034	0.845356
C40	C	0.659606	-0.000078	0.223520
C41	C	0.992939	0.333255	0.556854
C42	C	1.326273	0.666588	0.890187
C43	C	0.577404	-0.000093	0.216912
C44	C	0.910738	0.333240	0.550245
C45	C	1.244071	0.666574	0.883579
C46	C	0.541196	-0.000104	0.142485
C47	C	0.874529	0.333229	0.475818
C48	C	1.207862	0.666563	0.809152
C49	C	0.587192	-0.000111	0.074662
C50	C	0.920526	0.333222	0.407996
C51	C	1.253859	0.666556	0.741329
C52	C	0.669392	-0.000104	0.081272
C53	C	1.002725	0.333229	0.414605
C54	C	1.336058	0.666563	0.747938
C55	C	0.295880	-0.000133	0.115092
C56	C	0.629213	0.333200	0.448425
C57	C	0.962547	0.666533	0.781759
C58	C	0.213674	-0.000138	0.108488
C59	C	0.547008	0.333196	0.441821
C60	C	0.880341	0.666529	0.775154
C61	C	0.203892	-0.000121	0.250738
C62	C	0.537225	0.333212	0.584071
C63	C	0.870559	0.666545	0.917405
C64	C	0.286094	-0.000108	0.257341
C65	C	0.619427	0.333225	0.590674
C66	C	0.952761	0.666559	0.924007
C67	C	0.332083	-0.000120	0.189518
C68	C	0.665416	0.333213	0.522852
C69	C	0.998750	0.666546	0.856185
N70	N	0.457173	-0.000116	0.135728
N71	N	0.790506	0.333218	0.469062
N72	N	1.123839	0.666551	0.802395
N73	N	0.416104	-0.000116	0.196276
N74	N	0.749437	0.333217	0.529609
N75	N	1.082771	0.666551	0.862943
C76	C	0.914050	-0.474673	0.188658
C77	C	1.247383	-0.141340	0.521991
C78	C	1.580716	0.191993	0.855324
C79	C	0.959233	-0.525558	0.143347
C80	C	1.292567	-0.192225	0.476681
C81	C	1.625900	0.141108	0.810014
C82	C	0.953706	-0.641876	0.148894
C83	C	1.287039	-0.308542	0.482227
C84	C	1.620373	0.024791	0.815560
C85	C	0.919576	-0.358345	0.183112
C86	C	1.252910	-0.025012	0.516445
C87	C	1.586243	0.308321	0.849779
C88	C	1.080199	-0.000129	0.169276
C89	C	1.413533	0.333204	0.502610
C90	C	1.746866	0.666538	0.835943
C91	C	1.167684	-0.000134	0.176305
C92	C	1.501017	0.333200	0.509639
C93	C	1.834350	0.666533	0.842972
C94	C	0.933368	-0.000120	0.022444
C95	C	1.266702	0.333213	0.355778
C96	C	1.600035	0.666547	0.689111
C97	C	0.926339	-0.000119	-0.065040
C98	C	1.259673	0.333215	0.268293
C99	C	1.593006	0.666548	0.601626
N100	N	0.949302	0.265408	0.153313
N101	N	1.282635	0.598741	0.486646
N102	N	1.615968	0.932074	0.819980
C103	C	0.994157	-0.000129	-0.111031
C104	C	1.327490	0.333204	0.222303
C105	C	1.660824	0.666538	0.555636
C106	C	0.987549	-0.000118	-0.193232
C107	C	1.320882	0.333215	0.140101
C108	C	1.654215	0.666548	0.473435
C109	C	0.913122	-0.000105	-0.229441
C110	C	1.246455	0.333228	0.103892
C111	C	1.579788	0.666562	0.437226
C112	C	0.845299	-0.000092	-0.183445
C113	C	1.178632	0.333241	0.149889
C114	C	1.511966	0.666575	0.483222
C115	C	0.851909	-0.000095	-0.101245
C116	C	1.185242	0.333238	0.232088
C117	C	1.518575	0.666572	0.565421
C118	C	0.885728	-0.000087	-0.474756
C119	C	1.219061	0.333246	-0.141423
C120	C	1.552395	0.666579	0.191911
C121	C	0.879123	-0.000087	-0.556961
C122	C	1.212457	0.333246	-0.223628
C123	C	1.545790	0.666580	0.109705
C124	C	1.021373	-0.000112	-0.566743
C125	C	1.354707	0.333222	-0.233410
C126	C	1.688040	0.666555	0.099923
C127	C	1.027976	-0.000121	-0.484542
C128	C	1.361310	0.333212	-0.151208
C129	C	1.694643	0.666546	0.182125
C130	C	0.960154	-0.000102	-0.438553
C131	C	1.293487	0.333231	-0.105219
C132	C	1.626821	0.666564	0.228114
N133	N	0.906365	-0.000097	-0.313464
N134	N	1.239698	0.333236	0.019870
N135	N	1.573031	0.666569	0.353203
N136	N	0.966912	-0.000103	-0.354532
N137	N	1.300245	0.333231	-0.021199
N138	N	1.633579	0.666564	0.312135
C139	C	0.939912	-0.000103	0.309564
C140	C	1.273245	0.333231	0.642897
C141	C	1.606578	0.666564	0.976231
C142	C	0.946941	-0.000097	0.397048
C143	C	1.280274	0.333236	0.730382
C144	C	1.613607	0.666570	1.063715
H145	H	0.539962	-0.000088	0.272137
H146	H	0.873295	0.333245	0.605470
H147	H	1.206629	0.666578	0.938803
H148	H	0.706837	-0.000106	0.026047
H149	H	1.040170	0.333227	0.359380
H150	H	1.373504	0.666560	0.692714
N151	N	0.765024	-0.000087	-0.222496
N152	N	1.098357	0.333246	0.110837
N153	N	1.431690	0.666579	0.444170
H154	H	0.723064	-0.000080	-0.180886
H155	H	1.056398	0.333253	0.152447
H156	H	1.389731	0.666586	0.485780
H157	H	0.762194	0.063092	-0.259405
H158	H	1.095528	0.396425	0.073928
H159	H	1.428861	0.729758	0.407261
H160	H	1.042773	-0.000129	-0.230674
H161	H	1.376106	0.333205	0.102659
H162	H	1.709440	0.666538	0.435993
H163	H	1.002068	-0.481765	0.100391
H164	H	1.335402	-0.148431	0.433725
H165	H	1.668735	0.184902	0.767058
N166	N	0.778764	-0.000078	-0.051637
N167	N	1.112097	0.333255	0.281696
N168	N	1.445430	0.666589	0.615029
H169	H	0.730611	-0.000070	-0.087047
H170	H	1.063944	0.333263	0.246286
H171	H	1.397278	0.666596	0.579620
H172	H	0.775392	-0.063257	-0.014302
H173	H	1.108726	0.270077	0.319031
H174	H	1.442059	0.603410	0.652365
N175	N	0.857320	-0.532667	0.245566
N176	N	1.190654	-0.199333	0.578899
N177	N	1.523987	0.134000	0.912233
H178	H	0.801731	-0.514069	0.232197
H179	H	1.135064	-0.180735	0.565531
H180	H	1.468397	0.152598	0.898864
H181	H	0.861434	-0.608724	0.241489
H182	H	1.194767	-0.275391	0.574822
H183	H	1.528101	0.057943	0.908156
N184	N	1.074432	-0.000153	-0.071979
N185	N	1.407765	0.333180	0.261354
N186	N	1.741099	0.666514	0.594688
H187	H	1.116390	-0.000156	-0.113590
H188	H	1.449724	0.333177	0.219743
H189	H	1.783057	0.666511	0.553076
H190	H	1.083287	0.063024	-0.041101
H191	H	1.416621	0.396357	0.292232
H192	H	1.749954	0.729691	0.625566
N193	N	1.108251	-0.000141	-0.445489
N194	N	1.441584	0.333192	-0.112155
N195	N	1.774917	0.666525	0.221178
H196	H	1.150211	-0.000146	-0.487097
H197	H	1.483545	0.333187	-0.153764
H198	H	1.816878	0.666520	0.179569
H199	H	1.117106	0.063035	-0.414610
H200	H	1.450440	0.396368	-0.081276
H201	H	1.783773	0.729701	0.252057
H202	H	0.166439	-0.000113	0.305955
H203	H	0.499772	0.333220	0.639288
H204	H	0.833106	0.666553	0.972622
N205	N	1.094521	-0.000133	-0.616344
N206	N	1.427854	0.333200	-0.283011
N207	N	1.761188	0.666534	0.050322
H208	H	1.079044	-0.000130	-0.673912
H209	H	1.412377	0.333204	-0.340578
H210	H	1.745710	0.666537	-0.007245
H211	H	1.129749	0.063041	-0.607128
H212	H	1.463082	0.396374	-0.273794
H213	H	1.796415	0.729708	0.059539
N214	N	0.174620	-0.000176	0.028209
N215	N	0.507953	0.333157	0.361542
N216	N	0.841286	0.666491	0.694876
H217	H	0.115568	-0.000178	0.034316
H218	H	0.448901	0.333155	0.367650
H219	H	0.782235	0.666488	0.700983
H220	H	0.194126	0.062994	-0.004726
H221	H	0.527459	0.396327	0.328607
H222	H	0.860792	0.729660	0.661940
N223	N	0.548149	-0.000118	-0.005617
N224	N	0.881482	0.333215	0.327716
N225	N	1.214815	0.666548	0.661050
H226	H	0.561589	-0.063299	-0.032540
H227	H	0.894922	0.270035	0.300793
H228	H	1.228255	0.603368	0.634126
H229	H	0.489108	-0.000079	0.000544
H230	H	0.822441	0.333254	0.333878
H231	H	1.155775	0.666587	0.667211
H232	H	0.818512	-0.000093	-0.586439
H233	H	1.151845	0.333241	-0.253105
H234	H	1.485179	0.666574	0.080228
H235	H	0.315570	-0.000087	0.317946
H236	H	0.648903	0.333246	0.651280
H237	H	0.982236	0.666580	0.984613
H238	H	0.830502	-0.000072	-0.437321
H239	H	1.163835	0.333261	-0.103988
H240	H	1.497168	0.666594	0.229345
N241	N	0.345476	-0.000154	0.041944
N242	N	0.678809	0.333180	0.375278
N243	N	1.012143	0.666513	0.708611
H244	H	0.310062	-0.000160	-0.006206
H245	H	0.643396	0.333173	0.327128
H246	H	0.976729	0.666507	0.660461
H247	H	0.382804	0.063024	0.038562
H248	H	0.716137	0.396358	0.371896
H249	H	1.049471	0.729691	0.705229
H250	H	0.689081	-0.000068	0.284127
H251	H	1.022414	0.333265	0.617460
H252	H	1.355747	0.666598	0.950794
