data_functionalizedCrystal
_audit_creation_method	'MofGen! by Chris Wilmer'
_symmetry_space_group_name_H-M	'P1'
_symmetry_Int_Tables_number	1
_symmetry_cell_setting	triclinic
loop_
_symmetry_equiv_pos_as_xyz
  x,y,z
_cell_length_a	19.805407
_cell_length_b	19.805405
_cell_length_c	19.805399
_cell_angle_alpha	89.970699
_cell_angle_beta	89.980803
_cell_angle_gamma	90.022560
loop_
_atom_site_label
_atom_site_type_symbol
_atom_site_fract_x
_atom_site_fract_y
_atom_site_fract_z
Zn1	Zn	-1.034736	0.269548	0.382705
Zn2	Zn	-0.534736	0.769548	0.882705
Zn3	Zn	-1.034650	0.382737	0.269513
Zn4	Zn	-0.534650	0.882737	0.769513
Zn5	Zn	-0.921550	0.269559	0.269530
Zn6	Zn	-0.421550	0.769559	0.769530
Zn7	Zn	-0.921514	0.382693	0.382661
Zn8	Zn	-0.421514	0.882693	0.882661
O9	O	-0.978113	0.326134	0.326102
O10	O	-0.478113	0.826134	0.826102
O11	O	-1.129441	0.284577	0.367701
O12	O	-0.629441	0.784577	0.867701
O13	O	-1.019627	0.367746	0.174799
O14	O	-0.519627	0.867746	0.674799
O15	O	-0.936615	0.174841	0.284569
O16	O	-0.436615	0.674841	0.784569
O17	O	-1.129378	0.367736	0.284540
O18	O	-0.629378	0.867736	0.784540
O19	O	-1.019772	0.174833	0.367717
O20	O	-0.519772	0.674833	0.867717
O21	O	-0.936533	0.284596	0.174811
O22	O	-0.436533	0.784596	0.674811
O23	O	-0.826829	0.284553	0.284526
O24	O	-0.326829	0.784553	0.784526
O25	O	-0.936553	0.367661	0.477383
O26	O	-0.436553	0.867661	0.977383
O27	O	-0.826802	0.367672	0.367642
O28	O	-0.326802	0.867672	0.867642
O29	O	-1.019737	0.284534	0.477415
O30	O	-0.519737	0.784534	0.977415
O31	O	-1.019592	0.477448	0.284497
O32	O	-0.519592	0.977448	0.784497
O33	O	-0.936471	0.477416	0.367626
O34	O	-0.436471	0.977416	0.867626
C35	C	-0.802257	0.326110	0.326081
C36	C	-0.302257	0.826110	0.826081
C37	C	-0.727025	0.326115	0.326089
C38	C	-0.227025	0.826115	0.826089
C39	C	-0.691714	0.282890	0.369456
C40	C	-0.191714	0.782890	0.869456
C41	C	-0.621025	0.282892	0.369457
C42	C	-0.121025	0.782892	0.869457
C43	C	-0.585649	0.326124	0.326093
C44	C	-0.085649	0.826124	0.826093
C45	C	-0.620965	0.369350	0.282721
C46	C	-0.120965	0.869350	0.782721
C47	C	-0.691652	0.369344	0.282718
C48	C	-0.191652	0.869344	0.782718
C49	C	-0.335892	0.369375	0.282735
C50	C	0.164108	0.869375	0.782735
C51	C	-0.265199	0.369379	0.282744
C52	C	0.234801	0.869379	0.782744
C53	C	-0.265265	0.282923	0.369474
C54	C	0.234735	0.782923	0.869474
C55	C	-0.335952	0.282917	0.369470
C56	C	0.164048	0.782917	0.869470
C57	C	-0.371262	0.326141	0.326096
C58	C	0.128738	0.826141	0.826096
C59	C	-0.447910	0.326137	0.326095
C60	C	0.052090	0.826137	0.826095
C61	C	-0.509002	0.326131	0.326098
C62	C	-0.009002	0.826131	0.826098
C63	C	-0.978036	0.501991	0.326069
C64	C	-0.478036	1.001991	0.826069
C65	C	-0.978066	0.577222	0.326078
C66	C	-0.478066	1.077222	0.826078
C67	C	-0.978151	0.326092	0.502645
C68	C	-0.478151	0.826092	1.002645
C69	C	-0.978167	0.326074	0.577877
C70	C	-0.478167	0.826074	1.077877
C71	C	-0.154655	0.326155	0.326117
C72	C	0.345345	0.826155	0.826117
C73	C	-0.229887	0.326150	0.326108
C74	C	0.270113	0.826150	0.826108
C75	C	-0.978207	0.149592	0.326150
C76	C	-0.478207	0.649592	0.826150
C77	C	-0.978248	0.074360	0.326170
C78	C	-0.478248	0.574360	0.826170
C79	C	-1.021389	0.612561	0.282838
C80	C	-0.521389	1.112561	0.782838
C81	C	-1.021418	0.683249	0.282853
C82	C	-0.521418	1.183249	0.782853
C83	C	-0.978119	0.718598	0.326105
C84	C	-0.478119	1.218598	0.826105
C85	C	-0.934794	0.683255	0.369350
C86	C	-0.434794	1.183255	0.869350
C87	C	-0.934769	0.612568	0.369338
C88	C	-0.434769	1.112568	0.869338
C89	C	-0.934894	0.968328	0.369400
C90	C	-0.434894	1.468328	0.869400
C91	C	-0.934921	1.039020	0.369407
C92	C	-0.434921	1.539020	0.869407
C93	C	-1.021542	1.039010	0.282915
C94	C	-0.521542	1.539010	0.782915
C95	C	-1.021517	0.968322	0.282903
C96	C	-0.521517	1.468322	0.782903
C97	C	-0.978195	0.932985	0.326150
C98	C	-0.478195	1.432985	0.826150
C99	C	-0.978165	0.856337	0.326134
C100	C	-0.478165	1.356337	0.826134
C101	C	-0.978145	0.795245	0.326118
C102	C	-0.478145	1.295245	0.826118
C103	C	-0.978114	0.326128	0.150246
C104	C	-0.478114	0.826128	0.650246
C105	C	-0.978229	0.325956	0.075015
C106	C	-0.478229	0.825956	0.575015
C107	C	-1.021481	0.282787	0.613239
C108	C	-0.521481	0.782787	1.113239
C109	C	-1.021488	0.282768	0.683928
C110	C	-0.521488	0.782768	1.183928
C111	C	-0.978184	0.326038	0.719253
C112	C	-0.478184	0.826038	1.219253
C113	C	-0.934864	0.369327	0.683886
C114	C	-0.434864	0.869327	1.183886
C115	C	-0.934854	0.369342	0.613198
C116	C	-0.434854	0.869342	1.113198
C117	C	-0.934902	0.369264	0.968959
C118	C	-0.434902	0.869264	1.468959
C119	C	-0.934917	0.369246	1.039651
C120	C	-0.434917	0.869246	1.539651
C121	C	-1.021536	0.282689	1.039688
C122	C	-0.521536	0.782689	1.539688
C123	C	-1.021527	0.282705	0.969001
C124	C	-0.521527	0.782705	1.469001
C125	C	-0.978205	0.325990	0.933640
C126	C	-0.478205	0.825990	1.433640
C127	C	-0.978197	0.326010	0.856992
C128	C	-0.478197	0.826010	1.356992
C129	C	-0.978194	0.326022	0.795900
C130	C	-0.478194	0.826022	1.295900
H131	H	-0.364632	0.404571	0.247418
H132	H	0.135368	0.904571	0.747418
H133	H	-1.056773	0.939544	0.247681
H134	H	-0.556773	1.439544	0.747681
F135	F	-0.227551	0.415393	0.236587
F136	F	0.272449	0.915393	0.736587
F137	F	-0.729357	0.236880	0.415613
F138	F	-0.229357	0.736880	0.915613
F139	F	-0.583313	0.415357	0.236567
F140	F	-0.083313	0.915357	0.736567
H141	H	-1.056820	1.067790	0.247704
H142	H	-0.556820	1.567790	0.747704
H143	H	-0.899543	0.712041	0.404569
H144	H	-0.399543	1.212041	0.904569
H145	H	-0.899576	0.404584	0.584407
H146	H	-0.399576	0.904584	1.084407
H147	H	-1.056695	0.712019	0.247642
H148	H	-0.556695	1.212019	0.747642
H149	H	-1.056747	0.247553	0.584482
H150	H	-0.556747	0.747553	1.084482
H151	H	-0.899618	0.939562	0.404612
H152	H	-0.399618	1.439562	0.904612
H153	H	-0.899663	1.067799	0.404633
H154	H	-0.399663	1.567799	0.904633
F155	F	-0.373598	0.236908	0.415626
F156	F	0.126402	0.736908	0.915626
F157	F	-0.227680	0.236918	0.415636
F158	F	0.272320	0.736918	0.915636
H159	H	-1.056761	0.247521	0.712716
H160	H	-0.556761	0.747521	1.212716
H161	H	-0.720401	0.404542	0.247403
H162	H	-0.220401	0.904542	0.747403
H163	H	-1.056809	0.247441	1.068488
H164	H	-0.556809	0.747441	1.568488
H165	H	-0.899492	0.583796	0.404549
H166	H	-0.399492	1.083796	0.904549
F167	F	-1.067470	0.574946	0.236798
F168	F	-0.567470	1.074946	0.736798
H169	H	-0.899650	0.404483	1.068411
H170	H	-0.399650	0.904483	1.568411
H171	H	-0.899637	0.404519	0.940177
H172	H	-0.399637	0.904519	1.440177
F173	F	-0.888773	0.415376	0.721483
F174	F	-0.388773	0.915376	1.221483
F175	F	-1.067620	0.236653	0.931409
F176	F	-0.567620	0.736653	1.431409
H177	H	-0.592278	0.247696	0.404772
H178	H	-0.092278	0.747696	0.904772
