data_functionalizedCrystal
_audit_creation_method	'MofGen! by Chris Wilmer'
_symmetry_space_group_name_H-M	'P1'
_symmetry_Int_Tables_number	1
_symmetry_cell_setting	triclinic
loop_
_symmetry_equiv_pos_as_xyz
  x,y,z
_cell_length_a	15.297475
_cell_length_b	19.120786
_cell_length_c	15.298259
_cell_angle_alpha	77.468806
_cell_angle_beta	88.370891
_cell_angle_gamma	82.327649
loop_
_atom_site_label
_atom_site_type_symbol
_atom_site_fract_x
_atom_site_fract_y
_atom_site_fract_z
Zn1	Zn	1.238012	-0.351700	-0.704689
Zn2	Zn	1.738012	0.148300	-0.204689
Zn3	Zn	1.257043	-0.492668	-0.549380
Zn4	Zn	1.757043	0.007332	-0.049380
Zn5	Zn	1.116563	-0.358549	-0.532485
Zn6	Zn	1.616563	0.141451	-0.032485
Zn7	Zn	1.087034	-0.453020	-0.672998
Zn8	Zn	1.587034	0.046980	-0.172998
O9	O	1.174663	-0.413984	-0.614888
O10	O	1.674663	0.086016	-0.114888
O11	O	1.362513	-0.384126	-0.704420
O12	O	1.862513	0.115874	-0.204420
O13	O	1.258731	-0.494335	-0.423336
O14	O	1.758731	0.005665	0.076664
O15	O	1.137067	-0.259108	-0.561520
O16	O	1.637067	0.240892	-0.061520
O17	O	1.376495	-0.487695	-0.590315
O18	O	1.876495	0.012305	-0.090315
O19	O	1.226295	-0.254076	-0.688038
O20	O	1.726295	0.245924	-0.188038
O21	O	1.155521	-0.395799	-0.410923
O22	O	1.655521	0.104201	0.089077
O23	O	0.990670	-0.357354	-0.530791
O24	O	1.490670	0.142646	-0.030791
O25	O	1.086738	-0.420121	-0.801005
O26	O	1.586738	0.079879	-0.301005
O27	O	0.968974	-0.426762	-0.634025
O28	O	1.468974	0.073238	-0.134025
O29	O	1.197661	-0.345682	-0.824288
O30	O	1.697661	0.154318	-0.324288
O31	O	1.230097	-0.585941	-0.559586
O32	O	1.730097	-0.085941	-0.059586
O33	O	1.105192	-0.556812	-0.650408
O34	O	1.605192	-0.056812	-0.150408
C35	C	0.948195	-0.388499	-0.577136
C36	C	1.448195	0.111501	-0.077136
C37	C	0.851307	-0.377610	-0.561006
C38	C	1.351307	0.122390	-0.061006
C39	C	0.533155	-0.491813	-0.730176
C40	C	1.033155	0.008187	-0.230176
C41	C	0.624186	-0.502050	-0.745328
C42	C	1.124186	-0.002050	-0.245328
C43	C	0.680971	-0.470941	-0.699249
C44	C	1.180971	0.029059	-0.199249
C45	C	0.646715	-0.429594	-0.638015
C46	C	1.146715	0.070406	-0.138015
C47	C	0.555675	-0.419361	-0.622856
C48	C	1.055675	0.080639	-0.122856
C49	C	0.703491	-0.398488	-0.591929
C50	C	1.203491	0.101512	-0.091929
C51	C	0.669235	-0.357141	-0.530695
C52	C	1.169235	0.142859	-0.030695
C53	C	0.578204	-0.346910	-0.515539
C54	C	1.078204	0.153090	-0.015539
C55	C	0.521420	-0.378019	-0.561618
C56	C	1.021420	0.121981	-0.061618
C57	C	0.794531	-0.408721	-0.607088
C58	C	1.294531	0.091279	-0.107088
C59	C	0.817051	-0.336269	-0.499768
C60	C	1.317051	0.163731	0.000232
C61	C	0.726020	-0.326032	-0.484616
C62	C	1.226020	0.173968	0.015384
C63	C	1.166526	-0.596924	-0.603415
C64	C	1.666526	-0.096924	-0.103415
C65	C	1.163120	-0.675191	-0.598549
C66	C	1.663120	-0.175191	-0.098549
C67	C	1.207927	-0.709269	-0.662173
C68	C	1.707927	-0.209269	-0.162173
C69	C	1.204723	-0.782808	-0.657603
C70	C	1.704723	-0.282808	-0.157603
C71	C	1.156716	-0.822270	-0.589403
C72	C	1.656716	-0.322270	-0.089403
C73	C	1.111904	-0.788186	-0.525776
C74	C	1.611904	-0.288186	-0.025776
C75	C	1.115103	-0.714647	-0.530351
C76	C	1.615103	-0.214647	-0.030351
C77	C	1.144729	-1.044444	-0.572295
C78	C	1.644729	-0.544444	-0.072295
C79	C	1.141535	-1.117989	-0.567724
C80	C	1.641535	-0.617989	-0.067724
C81	C	1.234353	-1.112605	-0.699552
C82	C	1.734353	-0.612605	-0.199552
C83	C	1.237553	-1.039066	-0.704118
C84	C	1.737553	-0.539066	-0.204118
C85	C	1.192737	-1.004988	-0.640493
C86	C	1.692737	-0.504988	-0.140493
C87	C	1.153442	-0.897439	-0.584728
C88	C	1.653442	-0.397439	-0.084728
C89	C	1.196006	-0.929819	-0.645173
C90	C	1.696006	-0.429819	-0.145173
C91	C	1.402015	-0.439569	-0.652787
C92	C	1.902015	0.060431	-0.152787
C93	C	1.498899	-0.450472	-0.668938
C94	C	1.998899	0.049528	-0.168938
C95	C	1.136783	-0.377715	-0.845645
C96	C	1.636783	0.122285	-0.345645
C97	C	1.120641	-0.362259	-0.943980
C98	C	1.620641	0.137741	-0.443980
C99	C	1.182852	-0.230329	-0.626429
C100	C	1.682852	0.269671	-0.126429
C101	C	1.186342	-0.152067	-0.631348
C102	C	1.686342	0.347933	-0.131348
C103	C	1.290086	-0.523910	-1.247012
C104	C	1.790086	-0.023910	-0.747012
C105	C	1.305248	-0.538436	-1.154621
C106	C	1.805248	-0.038436	-0.654621
C107	C	1.259098	-0.494393	-1.101956
C108	C	1.759098	0.005607	-0.601956
C109	C	1.197783	-0.435822	-1.141692
C110	C	1.697783	0.064178	-0.641692
C111	C	1.182614	-0.421298	-1.234091
C112	C	1.682614	0.078702	-0.734091
C113	C	1.151626	-0.391781	-1.089035
C114	C	1.651626	0.108219	-0.589035
C115	C	1.090311	-0.333210	-1.128770
C116	C	1.590311	0.166790	-0.628770
C117	C	1.075146	-0.318689	-1.221161
C118	C	1.575146	0.181311	-0.721161
C119	C	1.121296	-0.362732	-1.273826
C120	C	1.621296	0.137268	-0.773826
C121	C	1.166794	-0.406304	-0.996635
C122	C	1.666794	0.093696	-0.496635
C123	C	1.059323	-0.303692	-0.983714
C124	C	1.559323	0.196308	-0.483714
C125	C	1.044161	-0.289167	-1.076106
C126	C	1.544161	0.210833	-0.576106
C127	C	1.212448	-0.450067	-0.385041
C128	C	1.712448	0.049933	0.114959
C129	C	1.228768	-0.465344	-0.286747
C130	C	1.728768	0.034656	0.213253
H131	H	0.698115	-0.292368	-0.434758
H132	H	1.198115	0.207632	0.065242
F133	F	1.232048	-0.468638	-0.954356
F134	F	1.732048	0.031362	-0.454356
H135	H	1.247023	-0.677145	-0.717705
H136	H	1.747023	-0.177145	-0.217705
F137	F	1.067413	-0.678379	-0.462634
F138	F	1.567413	-0.178379	0.037366
H139	H	0.652071	-0.535716	-0.795184
H140	H	1.152071	-0.035716	-0.295184
F141	F	1.097024	-1.008184	-0.504585
F142	F	1.597024	-0.508184	-0.004585
F143	F	1.247091	-0.887819	-0.717757
F144	F	1.747091	-0.387819	-0.217757
H145	H	1.072812	-0.820321	-0.470250
H146	H	1.572812	-0.320321	0.029750
F147	F	1.275238	-0.509852	-1.003625
F148	F	1.775238	-0.009852	-0.503625
F149	F	1.010193	-0.256822	-0.927667
F150	F	1.510193	0.243178	-0.427667
H151	H	0.550318	-0.313252	-0.465668
H152	H	1.050318	0.186748	0.034332
H153	H	0.863286	-0.310938	-0.462245
H154	H	1.363286	0.189062	0.037755
F155	F	1.282043	-1.148878	-0.767263
F156	F	1.782043	-0.648878	-0.267263
H157	H	1.241217	-0.810553	-0.709407
H158	H	1.741217	-0.310553	-0.209407
H159	H	1.327648	-0.559768	-1.289898
H160	H	1.827648	-0.059768	-0.789898
H161	H	1.102439	-1.150116	-0.512186
H162	H	1.602439	-0.650116	-0.012186
F163	F	1.102347	-0.939442	-0.512150
F164	F	1.602347	-0.439442	-0.012150
H165	H	1.025211	-0.271002	-1.253509
H166	H	1.525211	0.228998	-0.753509
F167	F	0.978906	-0.226833	-1.118406
F168	F	1.478906	0.273167	-0.618406
F169	F	1.370502	-0.600768	-1.112338
F170	F	1.870502	-0.100768	-0.612338
H171	H	1.108957	-0.350907	-1.349059
H172	H	1.608957	0.149093	-0.849059
H173	H	1.276643	-1.006938	-0.759651
H174	H	1.776643	-0.506938	-0.259651
H175	H	0.447293	-0.369686	-0.549286
H176	H	0.947293	0.130314	-0.049286
F177	F	0.830978	-0.452724	-0.672257
F178	F	1.330978	0.047276	-0.172257
H179	H	0.755092	-0.479277	-0.711591
H180	H	1.255092	0.020723	-0.211591
H181	H	0.486914	-0.517143	-0.767681
H182	H	0.986914	-0.017143	-0.267681
