data_functionalizedCrystal
_audit_creation_method	'MofGen! by Chris Wilmer'
_symmetry_space_group_name_H-M	'P1'
_symmetry_Int_Tables_number	1
_symmetry_cell_setting	triclinic
loop_
_symmetry_equiv_pos_as_xyz
  x,y,z
_cell_length_a	17.640112
_cell_length_b	16.625546
_cell_length_c	16.625539
_cell_angle_alpha	89.969603
_cell_angle_beta	101.175261
_cell_angle_gamma	101.247770
loop_
_atom_site_label
_atom_site_type_symbol
_atom_site_fract_x
_atom_site_fract_y
_atom_site_fract_z
Zn1	Zn	1.208336	-0.071544	-0.207108
Zn2	Zn	1.708336	0.428456	0.292892
Zn3	Zn	1.208241	-0.206407	-0.072289
Zn4	Zn	1.708241	0.293593	0.427711
Zn5	Zn	1.076160	-0.098860	-0.099502
Zn6	Zn	1.576160	0.401140	0.400498
Zn7	Zn	1.076131	-0.233632	-0.234280
Zn8	Zn	1.576131	0.266368	0.265720
O9	O	1.142217	-0.152611	-0.153295
O10	O	1.642217	0.347389	0.346705
O11	O	1.318927	-0.066609	-0.166463
O12	O	1.818927	0.433391	0.333537
O13	O	1.190692	-0.192179	0.036927
O14	O	1.690692	0.307821	0.536927
O15	O	1.093745	0.017607	-0.113793
O16	O	1.593745	0.517607	0.386207
O17	O	1.318857	-0.165692	-0.067413
O18	O	1.818857	0.334308	0.432587
O19	O	1.190854	0.037675	-0.192851
O20	O	1.690854	0.537675	0.307149
O21	O	1.093653	-0.113164	0.016934
O22	O	1.593653	0.386836	0.516934
O23	O	0.965553	-0.139562	-0.140141
O24	O	1.465553	0.360438	0.359859
O25	O	1.093696	-0.212092	-0.343502
O26	O	1.593696	0.287908	0.156498
O27	O	0.965531	-0.238579	-0.239162
O28	O	1.465531	0.261421	0.260838
O29	O	1.190826	-0.093008	-0.323539
O30	O	1.690826	0.406992	0.176461
O31	O	1.190664	-0.322862	-0.093761
O32	O	1.690664	0.177138	0.406239
O33	O	1.093604	-0.342863	-0.212775
O34	O	1.593604	0.157137	0.287225
C35	C	0.936863	-0.194990	-0.195554
C36	C	1.436863	0.305010	0.304446
C37	C	0.849012	-0.213139	-0.213651
C38	C	1.349012	0.286861	0.286349
C39	C	0.560027	-0.014718	-0.015816
C40	C	1.060027	0.485282	0.484184
C41	C	0.477477	-0.031789	-0.032833
C42	C	0.977477	0.468211	0.467167
C43	C	0.477510	-0.135036	-0.135765
C44	C	0.977510	0.364964	0.364235
C45	C	0.560061	-0.117972	-0.118760
C46	C	1.060061	0.382028	0.381240
C47	C	0.601313	-0.057813	-0.058784
C48	C	1.101313	0.442187	0.441216
C49	C	0.601347	-0.161066	-0.161728
C50	C	1.101347	0.338934	0.338272
C51	C	0.683891	-0.144006	-0.144721
C52	C	1.183891	0.355994	0.355279
C53	C	0.725149	-0.083851	-0.084746
C54	C	1.225149	0.416149	0.415254
C55	C	0.683857	-0.040752	-0.041777
C56	C	1.183857	0.459248	0.458223
C57	C	0.560093	-0.221229	-0.221699
C58	C	1.060093	0.278771	0.278301
C59	C	0.601379	-0.264324	-0.264667
C60	C	1.101379	0.235676	0.235333
C61	C	0.683924	-0.247260	-0.247665
C62	C	1.183924	0.252740	0.252335
C63	C	0.725182	-0.187105	-0.187690
C64	C	1.225182	0.312895	0.312310
C65	C	0.725216	-0.290359	-0.290634
C66	C	1.225216	0.209641	0.209366
C67	C	0.807760	-0.273298	-0.273627
C68	C	1.307760	0.226702	0.226373
C69	C	0.807726	-0.170044	-0.170683
C70	C	1.307726	0.329956	0.329317
C71	C	1.142142	-0.362117	-0.153277
C72	C	1.642142	0.137883	0.346723
C73	C	1.142182	-0.451730	-0.153281
C74	C	1.642182	0.048270	0.346719
C75	C	1.142320	-0.779877	-0.153336
C76	C	1.642320	-0.279877	0.346664
C77	C	1.142279	-0.688577	-0.153324
C78	C	1.642279	-0.188577	0.346676
C79	C	1.142251	-0.615806	-0.153308
C80	C	1.642251	-0.115806	0.346692
C81	C	1.142211	-0.524500	-0.153296
C82	C	1.642211	-0.024500	0.346704
C83	C	1.348372	-0.110067	-0.110872
C84	C	1.848372	0.389933	0.389128
C85	C	1.436223	-0.091937	-0.092793
C86	C	1.936223	0.408063	0.407207
C87	C	1.142268	-0.152540	-0.363593
C88	C	1.642268	0.347460	0.136407
C89	C	1.142290	-0.152510	-0.453210
C90	C	1.642290	0.347490	0.046790
C91	C	1.142314	0.057718	-0.153327
C92	C	1.642314	0.557718	0.346673
C93	C	1.142355	0.147348	-0.153340
C94	C	1.642355	0.647348	0.346660
C95	C	1.142327	-0.152412	-0.781378
C96	C	1.642327	0.347588	-0.281378
C97	C	1.142314	-0.152442	-0.690072
C98	C	1.642314	0.347558	-0.190072
C99	C	1.142309	-0.152461	-0.617297
C100	C	1.642309	0.347539	-0.117297
C101	C	1.142296	-0.152491	-0.525985
C102	C	1.642296	0.347509	-0.025985
C103	C	1.142211	-0.152613	0.056195
C104	C	1.642211	0.347387	0.556195
C105	C	1.142342	-0.152385	0.145842
C106	C	1.642342	0.347615	0.645842
H107	H	0.717447	0.008247	0.007049
H108	H	1.217447	0.508247	0.507049
O109	O	0.599984	0.043719	0.042499
O110	O	1.099984	0.543719	0.542499
C111	C	0.545846	0.078117	0.076765
C112	C	1.045846	0.578117	0.576765
H113	H	0.486995	0.032939	0.067487
H114	H	0.986995	0.532939	0.567487
H115	H	0.569667	0.091713	0.145187
H116	H	1.069667	0.591713	0.645187
H117	H	0.537100	0.137513	0.045332
H118	H	1.037100	0.637513	0.545332
H119	H	0.443865	0.003314	0.002156
H120	H	0.943865	0.503314	0.502156
O121	O	0.437312	-0.193421	-0.194023
O122	O	0.937312	0.306579	0.305977
C123	C	0.355603	-0.199255	-0.199806
C124	C	0.855603	0.300745	0.300194
H125	H	0.344325	-0.139330	-0.175828
H126	H	0.844325	0.360670	0.324172
H127	H	0.324259	-0.211274	-0.266650
H128	H	0.824259	0.288726	0.233350
H129	H	0.332152	-0.251879	-0.161617
H130	H	0.832152	0.248121	0.338383
H131	H	0.492880	-0.235118	-0.235544
H132	H	0.992880	0.264882	0.264456
H133	H	0.841316	-0.121045	-0.121857
H134	H	1.341316	0.378955	0.378143
O135	O	0.561265	-0.322648	-0.323021
O136	O	1.061265	0.177352	0.176979
C137	C	0.513535	-0.286665	-0.384993
C138	C	1.013535	0.213335	0.115007
H139	H	0.538426	-0.218023	-0.384952
H140	H	1.038426	0.281977	0.115048
H141	H	0.512619	-0.316087	-0.447184
H142	H	1.012619	0.183913	0.052816
H143	H	0.450967	-0.296788	-0.372955
H144	H	0.950967	0.203212	0.127045
O145	O	0.685223	-0.348735	-0.348986
O146	O	1.185223	0.151265	0.151014
C147	C	0.705413	-0.327022	-0.425221
C148	C	1.205413	0.172978	0.074779
H149	H	0.765352	-0.283643	-0.414602
H150	H	1.265352	0.216357	0.085398
H151	H	0.708239	-0.384672	-0.460695
H152	H	1.208239	0.115328	0.039305
H153	H	0.658975	-0.295195	-0.462012
H154	H	1.158975	0.204805	0.037988
O155	O	0.805332	-0.067424	-0.068215
O156	O	1.305332	0.432576	0.431785
C157	C	0.832887	-0.138974	-0.041670
C158	C	1.332887	0.361026	0.458330
H159	H	0.785322	-0.195267	-0.065169
H160	H	1.285322	0.304733	0.434831
H161	H	0.888131	-0.141931	-0.066623
H162	H	1.388131	0.358069	0.433377
H163	H	0.847492	-0.137580	0.028247
H164	H	1.347492	0.362420	0.528247
O165	O	0.847959	-0.315025	-0.315387
O166	O	1.347959	0.184975	0.184613
C167	C	0.895725	-0.259308	-0.357714
C168	C	1.395725	0.240692	0.142286
H169	H	0.908081	-0.195614	-0.326837
H170	H	1.408081	0.304386	0.173163
H171	H	0.953773	-0.280164	-0.356497
H172	H	1.453773	0.219836	0.143503
H173	H	0.863948	-0.257093	-0.424032
H174	H	1.363948	0.242907	0.075968
