data_functionalizedCrystal
_audit_creation_method	'MofGen! by Chris Wilmer'
_symmetry_space_group_name_H-M	'P1'
_symmetry_Int_Tables_number	1
_symmetry_cell_setting	triclinic
loop_
_symmetry_equiv_pos_as_xyz
  x,y,z
_cell_length_a	15.944551
_cell_length_b	16.992695
_cell_length_c	16.053802
_cell_angle_alpha	87.258926
_cell_angle_beta	92.576940
_cell_angle_gamma	87.083481
loop_
_atom_site_label
_atom_site_type_symbol
_atom_site_fract_x
_atom_site_fract_y
_atom_site_fract_z
O1	O	-1.124624	-0.097830	-0.069342
O2	O	-0.880912	-0.110297	-0.069363
O3	O	-1.001791	0.010079	-0.069346
O4	O	-1.003745	-0.218206	-0.069359
O5	O	-0.995135	0.003480	0.069512
O6	O	-0.874256	-0.116896	0.069495
O7	O	-1.117969	-0.104429	0.069516
Zn8	Zn	-0.995056	-0.111710	0.091552
Zn9	Zn	-1.003825	-0.103016	-0.091399
O10	O	-0.997090	-0.224805	0.069499
C11	C	-0.846256	-0.113079	0.000063
C12	C	-0.752906	-0.111527	0.000055
C13	C	-0.995949	0.035992	0.000083
C14	C	-0.988449	0.123037	0.000082
C15	C	-1.152625	-0.101647	0.000087
C16	C	-1.245975	-0.103199	0.000090
C17	C	-0.532795	-0.033203	0.000076
C18	C	-0.477496	-0.066321	-0.068390
C19	C	-0.581991	-0.108720	0.000065
C20	C	-0.470958	-0.072845	0.068513
C21	C	-0.416896	-0.106003	0.000079
C22	C	-0.527924	-0.141855	-0.068457
C23	C	-0.521389	-0.148371	0.068507
C24	C	-0.466111	-0.181543	0.000024
C25	C	-0.677099	-0.110283	0.000057
C26	C	-0.321790	-0.104446	0.000081
C27	C	-1.002931	-0.250718	0.000068
C28	C	-1.010432	-0.337762	0.000064
N29	N	-0.989078	-0.117643	0.216411
C30	C	-1.060814	0.173273	0.000089
C31	C	-1.053762	0.255060	0.000080
C32	C	-0.974345	0.286610	0.000071
C33	C	-0.901975	0.236367	0.000061
C34	C	-0.909028	0.154581	0.000064
C35	C	-0.945114	0.530210	0.000057
C36	C	-0.938067	0.612001	0.000057
C37	C	-1.089855	0.630689	0.000074
C38	C	-1.096901	0.548901	0.000082
C39	C	-1.024531	0.498666	0.000068
N40	N	-0.967135	0.370209	0.000065
N41	N	-1.031742	0.415068	0.000068
N42	N	-1.009809	-0.097077	-0.216259
C43	C	-1.040533	-0.066441	0.260113
C44	C	-1.036359	-0.070598	0.347519
C45	C	-0.980734	-0.125962	0.391222
C46	C	-0.929273	-0.177166	0.347515
C47	C	-0.933443	-0.173004	0.260110
C48	C	-0.962518	-0.144119	0.652629
C49	C	-0.958354	-0.148279	0.740040
C50	C	-1.065439	-0.041710	0.740038
C51	C	-1.069608	-0.037556	0.652632
C52	C	-1.018144	-0.088757	0.608932
N53	N	-0.976469	-0.130215	0.480565
N54	N	-1.022406	-0.084500	0.519590
H55	H	-0.561929	0.029473	-0.000005
H56	H	-0.445954	-0.043641	0.126394
H57	H	-0.837312	0.262061	0.000048
Cl58	Cl	-0.897825	-0.208488	0.597698
H59	H	-1.107338	-0.000023	0.775626
Cl60	Cl	-1.196745	0.509247	0.000067
Cl61	Cl	-0.566371	-0.186880	-0.157924
Cl62	Cl	-1.110470	0.003160	0.205180
H63	H	-0.883977	-0.222242	0.383103
H64	H	-0.850101	0.113679	0.000058
H65	H	-0.891541	-0.214697	0.224530
H66	H	-0.458018	-0.031630	-0.126270
Cl67	Cl	-1.180828	0.693846	0.000089
H68	H	-0.873392	0.637684	0.000062
Cl69	Cl	-0.888419	-0.217887	0.794976
H70	H	-0.437162	-0.244278	-0.000018
H71	H	-1.125484	0.147592	0.000102
Cl72	Cl	-1.101046	-0.006228	0.402459
Cl73	Cl	-1.144740	0.318212	0.000092
Cl74	Cl	-0.854134	0.467067	0.000037
Cl75	Cl	-0.551496	-0.201891	0.157874
H76	H	-1.114903	0.007526	0.617050
