data_functionalizedCrystal
_audit_creation_method	'MofGen! by Chris Wilmer'
_symmetry_space_group_name_H-M	'P1'
_symmetry_Int_Tables_number	1
_symmetry_cell_setting	triclinic
loop_
_symmetry_equiv_pos_as_xyz
  x,y,z
_cell_length_a	18.760490
_cell_length_b	23.196402
_cell_length_c	23.196401
_cell_angle_alpha	60.008822
_cell_angle_beta	90.031758
_cell_angle_gamma	60.025025
loop_
_atom_site_label
_atom_site_type_symbol
_atom_site_fract_x
_atom_site_fract_y
_atom_site_fract_z
Zr1	Zr	0.686539	0.631229	-0.075563
O2	O	0.572723	0.751457	-0.167620
O3	O	0.721427	0.510975	-0.047346
O4	O	0.721396	0.631242	-0.167611
O5	O	0.572783	0.631189	0.047516
O6	O	0.838674	0.631281	-0.167600
O7	O	0.572755	0.631190	-0.047355
O8	O	0.838731	0.416145	0.047532
O9	O	0.572727	0.846325	-0.167616
O10	O	0.823833	0.560476	-0.035300
O11	O	0.736331	0.560445	0.035494
O12	O	0.736294	0.702044	-0.106103
O13	O	0.648791	0.702014	-0.035310
Zr14	Zr	0.873630	0.631289	0.075763
Zr15	Zr	0.873585	0.631291	-0.075546
Zr16	Zr	0.686584	0.631226	0.075746
Zr17	Zr	0.686544	0.782531	-0.075557
Zr18	Zr	0.873625	0.479987	0.075757
O19	O	0.838742	0.751543	0.047547
O20	O	0.838678	0.751546	-0.167595
O21	O	0.572787	0.751454	0.047522
O22	O	0.987446	0.511061	0.167821
O23	O	0.987382	0.511064	-0.047321
O24	O	0.721491	0.510972	0.167796
O25	O	0.987386	0.631329	-0.047316
O26	O	0.838773	0.631276	0.167812
O27	O	0.721495	0.631237	0.167801
O28	O	0.987414	0.631328	0.047555
O29	O	0.721403	0.846374	-0.167602
O30	O	0.838766	0.416143	0.167803
O31	O	0.987442	0.416193	0.167816
O32	O	0.987407	0.416195	0.047546
O33	O	0.572762	0.846323	-0.047346
O34	O	0.721439	0.846373	-0.047332
O35	O	0.823875	0.560474	0.106303
O36	O	0.911378	0.560504	0.035510
O37	O	0.823838	0.702073	-0.035293
O38	O	0.736336	0.702042	0.035500
C39	C	0.780078	0.442003	0.000092
C40	C	0.780076	0.377771	0.000089
C41	C	0.825745	0.347616	-0.036867
C42	C	0.825754	0.287255	-0.036861
C43	C	0.780076	0.257063	0.000091
C44	C	0.734404	0.287221	0.037055
C45	C	0.734404	0.347575	0.037054
C46	C	0.703548	0.195008	-0.005190
C47	C	0.703546	0.134658	-0.005195
C48	C	0.780077	0.070908	0.000098
C49	C	0.856610	0.067522	0.005381
C50	C	0.856610	0.127876	0.005380
C51	C	0.780071	0.191618	0.000097
C52	C	0.825760	-0.024698	-0.036853
C53	C	0.825770	-0.085063	-0.036842
C54	C	0.734412	-0.085091	0.037069
C55	C	0.734410	-0.024732	0.037063
C56	C	0.780082	0.005464	0.000098
C57	C	0.546119	0.631181	0.000078
C58	C	0.466713	0.631154	0.000071
C59	C	0.130710	0.631343	-0.052144
C60	C	0.130857	0.631342	0.052391
C61	C	0.205503	0.631301	0.052380
C62	C	0.242757	0.631280	0.000106
C63	C	0.205365	0.631300	-0.052156
C64	C	0.242906	0.631273	0.104646
C65	C	0.317558	0.631231	0.104637
C66	C	0.354810	0.631217	0.052359
C67	C	0.317412	0.631237	0.000094
C68	C	0.354666	0.631217	-0.052180
C69	C	0.317266	0.631244	-0.104448
C70	C	0.242616	0.631286	-0.104434
C71	C	0.429459	0.631175	0.052345
C72	C	0.429321	0.631174	-0.052192
C73	C	1.014050	0.631337	0.000122
C74	C	1.093456	0.631364	0.000130
C75	C	0.780029	0.631262	-0.189164
C76	C	0.780010	0.631263	-0.253399
C77	C	0.780091	0.820515	0.000108
C78	C	0.780093	0.884747	0.000111
C79	C	0.734319	0.705158	-0.320531
C80	C	0.734341	0.705159	-0.380886
C81	C	0.780042	0.631261	-0.374105
C82	C	0.825743	0.557356	-0.306961
C83	C	0.825726	0.557357	-0.246608
C84	C	0.773550	0.574631	-0.441425
C85	C	0.773560	0.574633	-0.501779
C86	C	0.780097	0.631255	-0.560253
C87	C	0.786607	0.687888	-0.558373
C88	C	0.786590	0.687889	-0.498019
C89	C	0.780065	0.631251	-0.439544
C90	C	0.734429	0.705156	-0.692831
C91	C	0.734457	0.705154	-0.753186
C92	C	0.825853	0.557349	-0.679259
C93	C	0.825830	0.557353	-0.618907
C94	C	0.780113	0.631259	-0.625697
C95	C	0.780141	0.631256	0.189365
C96	C	0.780160	0.631255	0.253599
C97	C	1.014044	0.442081	0.000114
C98	C	1.093447	0.377876	0.000119
C99	C	0.780134	0.442000	0.189356
C100	C	0.780151	0.377767	0.253588
C101	C	1.014100	0.442078	0.189378
C102	C	1.093522	0.377872	0.253618
C103	C	0.546069	0.820440	-0.189178
C104	C	0.466647	0.884646	-0.253417
C105	C	0.546125	0.820437	0.000086
C106	C	0.466722	0.884642	0.000082
C107	C	0.780035	0.820518	-0.189156
C108	C	0.780018	0.884751	-0.253388
C109	C	1.085039	0.347710	-0.036847
C110	C	1.159640	0.287390	-0.036857
C111	C	1.242649	0.257234	0.000104
C112	C	1.251055	0.287406	0.037071
C113	C	1.176455	0.347729	0.037076
C114	C	0.825856	0.347617	0.320720
C115	C	0.825869	0.287272	0.381079
C116	C	0.780180	0.257074	0.374304
C117	C	0.734470	0.287229	0.307164
C118	C	0.734453	0.347577	0.246807
C119	C	1.176503	0.347736	0.246832
C120	C	1.251137	0.287416	0.307186
C121	C	1.242787	0.257229	0.374325
C122	C	1.159797	0.287371	0.381109
C123	C	1.085166	0.347694	0.320756
C124	C	0.383666	0.914789	-0.246631
C125	C	0.309032	0.975128	-0.306985
C126	C	0.317382	1.005319	-0.374124
C127	C	0.400372	0.975173	-0.380909
C128	C	0.475003	0.914839	-0.320556
C129	C	0.475130	0.914815	0.037041
C130	C	0.400529	0.975151	0.037035
C131	C	0.317521	1.005309	0.000072
C132	C	0.309114	0.975134	-0.036893
C133	C	0.383714	0.914803	-0.036890
C134	C	0.825715	0.914930	-0.246590
C135	C	0.825717	0.975276	-0.306937
C136	C	0.780015	1.005445	-0.374081
C137	C	0.734317	0.975260	-0.380878
C138	C	0.734321	0.914911	-0.320531
H139	H	0.862952	-0.000114	-0.066950
H140	H	0.256783	1.054434	0.000075
C141	C	0.217795	1.008306	-0.077538
N142	N	0.149012	1.033286	-0.108145
C143	C	0.876115	0.380829	0.328191
N144	N	0.913967	0.405844	0.333823
C145	C	0.876002	-0.118224	-0.077508
N146	N	0.913832	-0.143197	-0.108143
C147	C	0.566281	0.881678	-0.328032
N148	N	0.635031	0.856703	-0.333669
C149	C	0.235277	1.071681	-0.440508
N150	N	0.173431	1.121662	-0.490506
H151	H	0.863095	0.262727	0.435741
H152	H	0.768255	0.528521	-0.503305
C153	C	1.150373	0.254205	-0.077518
N154	N	1.143390	0.229209	-0.108142
H155	H	0.791925	0.733998	-0.605985
H156	H	0.780201	0.207934	0.423456
H157	H	0.697271	0.262633	0.301658
C158	C	0.684167	-0.118300	0.077718
N159	N	0.646322	-0.143317	0.108337
H160	H	1.183314	0.372282	0.067182
C161	C	0.684157	0.254009	0.077701
N162	N	0.646310	0.228993	0.108319
H163	H	0.697217	-0.000177	0.067154
C164	C	0.217752	1.008276	-0.299506
N165	N	0.149002	1.033242	-0.293871
H166	H	0.697237	0.372117	0.192148
C167	C	0.684076	0.786453	-0.454742
N168	N	0.646215	0.847683	-0.510369
C169	C	0.993736	0.380874	-0.077515
N170	N	0.924968	0.405855	-0.108152
C171	C	1.185710	0.380935	0.172984
N172	N	1.192651	0.405941	0.117364
C173	C	0.409542	1.008384	-0.454769
N174	N	0.416447	1.033395	-0.510402
C175	C	0.374459	0.881597	-0.172784
N176	N	0.367518	0.856604	-0.117163
H177	H	0.407391	0.999709	0.067138
C178	C	0.875986	1.008472	-0.299445
N179	N	0.913847	1.033475	-0.293800
C180	C	1.342417	0.254263	0.299707
N181	N	1.411167	0.229292	0.294072
C182	C	0.089904	0.631317	0.109913
N183	N	0.059064	0.631284	0.153248
C184	C	1.324893	0.190865	0.440709
N185	N	1.386738	0.140877	0.490707
H186	H	0.100255	0.631368	-0.094702
C187	C	0.780017	1.071832	-0.440457
N188	N	0.780020	1.121836	-0.490449
H189	H	0.376855	0.890238	-0.066985
H190	H	0.862931	0.890376	-0.191923
H191	H	1.153011	0.262783	0.435782
C192	C	0.684084	1.008426	-0.454743
N193	N	0.646259	1.033401	-0.510380
H194	H	1.017602	0.372223	0.326291
H195	H	0.862936	0.372198	-0.066964
H196	H	0.862945	0.262699	-0.066956
H197	H	0.542713	0.890264	0.067146
H198	H	0.697105	0.890346	-0.326076
H199	H	1.303386	0.208115	0.000094
C200	C	0.940797	0.124144	0.011199
N201	N	1.004209	0.121331	0.015586
H202	H	0.918932	0.015609	0.009700
C203	C	0.619361	0.138384	-0.010998
N204	N	0.555952	0.141190	-0.015364
C205	C	1.342374	0.254220	0.077731
N206	N	1.411157	0.229217	0.108361
H207	H	0.697212	0.372128	0.067148
C208	C	0.470294	0.631151	-0.109698
N209	N	0.501156	0.631131	-0.153011
C210	C	0.358263	0.631208	-0.161941
N211	N	0.389146	0.631179	-0.205243
C212	C	0.619353	0.265131	-0.011012
N213	N	0.555939	0.317946	-0.015395
H214	H	0.212162	0.631306	-0.146988
H215	H	0.212575	0.631284	0.147208
H216	H	0.348004	0.631211	0.147195
H217	H	0.459910	0.631148	0.094904
H218	H	0.697097	0.765338	-0.326066
H219	H	0.697204	0.765335	-0.698361
C220	C	0.793762	0.750177	-0.495949
N221	N	0.799170	0.797091	-0.494389
H222	H	0.697253	0.765331	-0.807849
H223	H	0.863032	0.497179	-0.564244
C224	C	0.876011	0.476068	-0.299503
N225	N	0.913876	0.414839	-0.293885
C226	C	0.766356	0.512340	-0.377107
N227	N	0.760936	0.465424	-0.328664
H228	H	0.863064	0.497179	-0.673737
H229	H	0.862934	0.497181	-0.191944
