data_functionalizedCrystal
_audit_creation_method	'MofGen! by Chris Wilmer'
_symmetry_space_group_name_H-M	'P1'
_symmetry_Int_Tables_number	1
_symmetry_cell_setting	triclinic
loop_
_symmetry_equiv_pos_as_xyz
  x,y,z
_cell_length_a	11.792241
_cell_length_b	14.519731
_cell_length_c	10.868271
_cell_angle_alpha	89.993880
_cell_angle_beta	89.999893
_cell_angle_gamma	83.941135
loop_
_atom_site_label
_atom_site_type_symbol
_atom_site_fract_x
_atom_site_fract_y
_atom_site_fract_z
O1	O	1.506220	0.126403	-0.102206
O2	O	1.175807	0.139430	-0.102235
O3	O	1.349761	-0.001288	-0.102208
O4	O	1.332266	0.267122	-0.102232
O5	O	1.349747	-0.001294	0.102436
O6	O	1.175793	0.139425	0.102410
O7	O	1.506205	0.126398	0.102439
Zn8	Zn	1.340997	0.132910	0.134916
Zn9	Zn	1.341016	0.132918	-0.134712
O10	O	1.332251	0.267116	0.102412
C11	C	1.133514	0.138609	0.000084
C12	C	1.007513	0.136160	0.000073
C13	C	0.776826	0.131656	0.000109
C14	C	0.905197	0.134159	0.000089
C15	C	1.348934	-0.035654	0.000114
C16	C	1.346478	-0.138043	0.000115
C17	C	1.344482	-0.221194	0.000112
C18	C	1.341988	-0.325512	0.000102
C19	C	1.340008	-0.408658	0.000094
C20	C	1.337514	-0.512983	0.000087
C21	C	1.548499	0.127219	0.000117
C22	C	1.674499	0.129668	0.000120
C23	C	1.333078	0.301482	0.000087
C24	C	1.335535	0.403871	0.000079
N25	N	1.340992	0.132905	0.318930
N26	N	1.341029	0.132916	-0.318726
C27	C	1.341010	0.132916	0.569936
C28	C	1.340996	0.132912	0.430259
