data_functionalizedCrystal
_audit_creation_method	'MofGen! by Chris Wilmer'
_symmetry_space_group_name_H-M	'P1'
_symmetry_Int_Tables_number	1
_symmetry_cell_setting	triclinic
loop_
_symmetry_equiv_pos_as_xyz
  x,y,z
_cell_length_a	6.817900
_cell_length_b	14.858329
_cell_length_c	10.943624
_cell_angle_alpha	93.400022
_cell_angle_beta	108.838799
_cell_angle_gamma	104.519616
loop_
_atom_site_label
_atom_site_type_symbol
_atom_site_fract_x
_atom_site_fract_y
_atom_site_fract_z
V1	V	-4.093423	-0.128646	-0.402919
O2	O	-4.074269	0.006207	-0.394870
O3	O	-4.049676	-0.255108	-0.400528
O4	O	-4.071727	-0.126656	-0.578480
O5	O	-4.052065	-0.123134	-0.215686
V6	V	-4.572988	-0.112517	-0.380480
O7	O	-4.363364	-0.164026	-0.452140
O8	O	-4.753244	-0.077138	-0.331259
O9	O	-4.393528	0.013944	-0.382872
O10	O	-4.709539	-0.247370	-0.388529
O11	O	-4.731742	-0.118030	-0.567713
O12	O	-4.371477	-0.114507	-0.204919
C13	C	-3.894945	-0.285936	-0.394265
C14	C	-3.940641	-0.389320	-0.393480
C15	C	-3.977744	-0.473278	-0.392830
C16	C	-4.024311	-0.578608	-0.392022
C17	C	-4.061443	-0.662560	-0.391378
C18	C	-4.108013	-0.767896	-0.390567
C19	C	-3.923072	-0.122083	-0.621259
C20	C	-3.986647	-0.121293	-0.764784
C21	C	-3.832390	-0.115972	-0.841916
C22	C	-4.008198	-0.194950	-0.948132
C23	C	-3.924145	-0.040915	-0.914305
C24	C	-4.161653	-0.200345	-0.869123
C25	C	-4.077531	-0.046240	-0.835272
C26	C	-4.253472	-0.125241	-0.941458
C27	C	-4.211601	0.044768	-0.389130
C28	C	-4.145144	0.148151	-0.389924
C29	C	-4.183474	-0.119084	-0.162133
C30	C	-4.099137	-0.119869	-0.018608
H31	H	-3.979549	-0.257819	-0.997260
H32	H	-3.824353	0.026448	-0.934874
H33	H	-4.432111	-0.129179	-0.984714
H34	H	-3.653844	-0.112158	-0.798457
O35	O	-4.280475	-0.280790	-0.844629
C36	C	-4.218588	-0.280591	-0.708580
H37	H	-4.047770	-0.231838	-0.658345
H38	H	-4.335265	-0.254795	-0.670620
C39	C	-4.433923	-0.440955	-0.740804
C40	C	-4.224114	-0.381082	-0.679105
H41	H	-4.437340	-0.502943	-0.722621
H42	H	-4.475625	-0.441089	-0.832463
H43	H	-4.531131	-0.419447	-0.709164
H44	H	-4.126915	-0.402584	-0.710757
H45	H	-4.182396	-0.380954	-0.587450
H46	H	-4.106096	0.016632	-0.786109
