data_functionalizedCrystal
_audit_creation_method	'MofGen! by Chris Wilmer'
_symmetry_space_group_name_H-M	'P1'
_symmetry_Int_Tables_number	1
_symmetry_cell_setting	triclinic
loop_
_symmetry_equiv_pos_as_xyz
  x,y,z
_cell_length_a	6.817900
_cell_length_b	11.102291
_cell_length_c	9.514072
_cell_angle_alpha	88.635729
_cell_angle_beta	118.843421
_cell_angle_gamma	108.605752
loop_
_atom_site_label
_atom_site_type_symbol
_atom_site_fract_x
_atom_site_fract_y
_atom_site_fract_z
V1	V	-4.170291	-0.397255	-0.222225
O2	O	-4.067753	-0.388668	0.010658
O3	O	-4.204806	-0.395523	-0.440614
O4	O	-4.146174	-0.570062	-0.218815
O5	O	-4.126791	-0.212921	-0.212676
V6	V	-4.640028	-0.375087	-0.194368
O7	O	-4.461789	-0.445881	-0.283330
O8	O	-4.798727	-0.326461	-0.133262
O9	O	-4.382307	-0.376819	0.024021
O10	O	-4.859963	-0.383674	-0.427251
O11	O	-4.800925	-0.559421	-0.203917
O12	O	-4.440938	-0.202280	-0.197777
C13	C	-4.069192	-0.389511	-0.493852
C14	C	-4.178861	-0.389247	-0.672389
C15	C	-3.994399	-0.612150	-0.210924
C16	C	-4.056514	-0.753427	-0.209582
C17	C	-4.271819	-0.826308	-0.216961
C18	C	-4.330149	-0.959049	-0.215668
C19	C	-3.957850	-0.946015	-0.199623
C20	C	-3.899516	-0.813276	-0.200904
C21	C	-4.428817	-0.766459	-0.225638
C22	C	-4.644139	-0.839341	-0.233020
C23	C	-4.702468	-0.972082	-0.231727
C24	C	-4.545476	-1.031940	-0.223053
C25	C	-4.181265	-0.382828	0.077251
C26	C	-4.050837	-0.383100	0.255786
C27	C	-4.256056	-0.160185	-0.205674
C28	C	-4.173177	-0.018907	-0.207008
H29	H	-4.372408	-0.394352	-0.747498
Br30	Br	-3.728240	-0.374554	-0.619039
H31	H	-4.381346	-0.658377	-0.226697
H32	H	-4.771944	-0.790594	-0.240073
Br33	Br	-3.607286	-0.714353	-0.190856
Br34	Br	-4.624616	-1.212084	-0.221258
H35	H	-3.830041	-0.994763	-0.192562
Br36	Br	-4.994670	-1.070988	-0.241726
