data_functionalizedCrystal
_audit_creation_method	'MofGen! by Chris Wilmer'
_symmetry_space_group_name_H-M	'P1'
_symmetry_Int_Tables_number	1
_symmetry_cell_setting	triclinic
loop_
_symmetry_equiv_pos_as_xyz
  x,y,z
_cell_length_a	19.121063
_cell_length_b	19.121102
_cell_length_c	19.120904
_cell_angle_alpha	89.911827
_cell_angle_beta	94.741613
_cell_angle_gamma	89.873098
loop_
_atom_site_label
_atom_site_type_symbol
_atom_site_fract_x
_atom_site_fract_y
_atom_site_fract_z
Zn1	Zn	-0.343506	-1.039579	-0.456040
Zn2	Zn	-0.093506	-0.789579	-0.206040
Zn3	Zn	0.156494	-0.539579	0.043960
Zn4	Zn	0.406494	-0.289579	0.293960
Zn5	Zn	-0.456149	-1.039493	-0.343386
Zn6	Zn	-0.206149	-0.789493	-0.093386
Zn7	Zn	0.043851	-0.539493	0.156614
Zn8	Zn	0.293851	-0.289493	0.406614
Zn9	Zn	-0.333518	-0.927792	-0.333417
Zn10	Zn	-0.083518	-0.677792	-0.083417
Zn11	Zn	0.166482	-0.427792	0.166583
Zn12	Zn	0.416482	-0.177792	0.416583
Zn13	Zn	-0.455677	-0.917325	-0.455570
Zn14	Zn	-0.205677	-0.667325	-0.205570
Zn15	Zn	0.044323	-0.417325	0.044430
Zn16	Zn	0.294323	-0.167325	0.294430
O17	O	-0.397212	-0.981047	-0.397103
O18	O	-0.147212	-0.731047	-0.147103
O19	O	0.102788	-0.481047	0.102897
O20	O	0.352788	-0.231047	0.352897
O21	O	-0.362826	-1.137479	-0.445465
O22	O	-0.112826	-0.887479	-0.195465
O23	O	0.137174	-0.637479	0.054535
O24	O	0.387174	-0.387479	0.304535
O25	O	-0.435899	-1.029020	-0.243797
O26	O	-0.185899	-0.779020	0.006203
O27	O	0.064101	-0.529020	0.256203
O28	O	0.314101	-0.279020	0.506203
O29	O	-0.236577	-0.947038	-0.345708
O30	O	0.013423	-0.697038	-0.095708
O31	O	0.263423	-0.447038	0.154292
O32	O	0.513423	-0.197038	0.404292
O33	O	-0.445584	-1.137415	-0.362699
O34	O	-0.195584	-0.887415	-0.112699
O35	O	0.054416	-0.637415	0.137301
O36	O	0.304416	-0.387415	0.387301
O37	O	-0.243915	-1.029167	-0.435798
O38	O	0.006085	-0.779167	-0.185798
O39	O	0.256085	-0.529167	0.064202
O40	O	0.506085	-0.279167	0.314202
O41	O	-0.345802	-0.946954	-0.236473
O42	O	-0.095802	-0.696954	0.013527
O43	O	0.154198	-0.446954	0.263527
O44	O	0.404198	-0.196954	0.513527
O45	O	-0.345345	-0.828493	-0.345252
O46	O	-0.095345	-0.578493	-0.095252
O47	O	0.154655	-0.328493	0.154748
O48	O	0.404655	-0.078493	0.404748
O49	O	-0.444780	-0.929198	-0.553899
O50	O	-0.194780	-0.679198	-0.303899
O51	O	0.055220	-0.429198	-0.053899
O52	O	0.305220	-0.179198	0.196101
O53	O	-0.435094	-0.820803	-0.434997
O54	O	-0.185094	-0.570803	-0.184997
O55	O	0.064906	-0.320803	0.065003
O56	O	0.314906	-0.070803	0.315003
O57	O	-0.362368	-1.019018	-0.554244
O58	O	-0.112368	-0.769018	-0.304244
O59	O	0.137632	-0.519018	-0.054244
O60	O	0.387632	-0.269018	0.195756
O61	O	-0.554352	-1.018870	-0.362243
O62	O	-0.304352	-0.768870	-0.112243
O63	O	-0.054352	-0.518870	0.137757
O64	O	0.195648	-0.268870	0.387757
O65	O	-0.554005	-0.929114	-0.444664
O66	O	-0.304005	-0.679114	-0.194664
O67	O	-0.054005	-0.429114	0.055336
O68	O	0.195995	-0.179114	0.305336
C69	C	-0.389085	-0.799261	-0.388992
C70	C	-0.139085	-0.549261	-0.138992
C71	C	0.110915	-0.299261	0.111008
C72	C	0.360915	-0.049261	0.361008
C73	C	-0.385626	-0.721490	-0.385539
C74	C	-0.135626	-0.471490	-0.135539
C75	C	0.114374	-0.221490	0.114461
C76	C	0.364374	0.028510	0.364461
C77	C	-0.579659	-0.972865	-0.404501
C78	C	-0.329659	-0.722865	-0.154501
C79	C	-0.079659	-0.472865	0.095499
C80	C	0.170341	-0.222865	0.345499
C81	C	-0.657714	-0.969428	-0.407691
C82	C	-0.407714	-0.719428	-0.157691
C83	C	-0.157714	-0.469428	0.092309
C84	C	0.092286	-0.219428	0.342309
C85	C	-0.404635	-0.972950	-0.580263
C86	C	-0.154635	-0.722950	-0.330263
C87	C	0.095365	-0.472950	-0.080263
C88	C	0.345365	-0.222950	0.169737
C89	C	-0.407799	-0.969500	-0.658315
C90	C	-0.157799	-0.719500	-0.408315
C91	C	0.092201	-0.469500	-0.158315
C92	C	0.342201	-0.219500	0.091685
C93	C	-0.694545	-1.014577	-0.366317
C94	C	-0.444545	-0.764577	-0.116317
C95	C	-0.194545	-0.514577	0.133683
C96	C	0.055455	-0.264577	0.383683
C97	C	-0.767887	-1.011348	-0.369323
C98	C	-0.517887	-0.761348	-0.119323
C99	C	-0.267887	-0.511348	0.130677
C100	C	-0.017887	-0.261348	0.380677
C101	C	-0.804396	-0.962966	-0.413699
C102	C	-0.554396	-0.712966	-0.163699
C103	C	-0.304396	-0.462966	0.086301
C104	C	-0.054396	-0.212966	0.336301
C105	C	-0.767560	-0.917815	-0.455078
C106	C	-0.517560	-0.667815	-0.205078
C107	C	-0.267560	-0.417815	0.044922
C108	C	-0.017560	-0.167815	0.294922
C109	C	-0.694220	-0.921048	-0.452076
C110	C	-0.444220	-0.671048	-0.202076
C111	C	-0.194220	-0.421048	0.047924
C112	C	0.055780	-0.171048	0.297924
C113	C	-1.025828	-0.950869	-0.424912
C114	C	-0.775828	-0.700869	-0.174912
C115	C	-0.525828	-0.450869	0.075088
C116	C	-0.275828	-0.200869	0.325088
C117	C	-1.099173	-0.947638	-0.427909
C118	C	-0.849173	-0.697638	-0.177909
C119	C	-0.599173	-0.447638	0.072091
C120	C	-0.349173	-0.197638	0.322091
C121	C	-1.099494	-1.041173	-0.342155
C122	C	-0.849494	-0.791173	-0.092155
C123	C	-0.599494	-0.541173	0.157845
C124	C	-0.349494	-0.291173	0.407845
C125	C	-1.026153	-1.044399	-0.339154
C126	C	-0.776153	-0.794399	-0.089154
C127	C	-0.526153	-0.544399	0.160846
C128	C	-0.276153	-0.294399	0.410846
C129	C	-0.989323	-0.999250	-0.380535
C130	C	-0.739323	-0.749250	-0.130535
C131	C	-0.489323	-0.499250	0.119465
C132	C	-0.239323	-0.249250	0.369465
C133	C	-0.879363	-0.959663	-0.416770
C134	C	-0.629363	-0.709663	-0.166770
C135	C	-0.379363	-0.459663	0.083230
C136	C	-0.129363	-0.209663	0.333230
C137	C	-0.914358	-1.002557	-0.377467
C138	C	-0.664358	-0.752557	-0.127467
C139	C	-0.414358	-0.502557	0.122533
C140	C	-0.164358	-0.252557	0.372533
C141	C	-0.214054	-0.989280	-0.389693
C142	C	0.035946	-0.739280	-0.139693
C143	C	0.285946	-0.489280	0.110307
C144	C	0.535946	-0.239280	0.360307
C145	C	-0.136003	-0.992788	-0.386535
C146	C	0.113997	-0.742788	-0.136535
C147	C	0.363997	-0.492788	0.113465
C148	C	0.613997	-0.242788	0.363465
C149	C	-0.405372	-1.163544	-0.405246
C150	C	-0.155372	-0.913544	-0.155246
C151	C	0.094628	-0.663544	0.094754
C152	C	0.344628	-0.413544	0.344754
C153	C	-0.408849	-1.241313	-0.408717
C154	C	-0.158849	-0.991313	-0.158717
C155	C	0.091151	-0.741313	0.091283
C156	C	0.341151	-0.491313	0.341283
C157	C	-0.430793	-0.680968	-0.430575
C158	C	-0.180793	-0.430968	-0.180575
C159	C	0.069207	-0.180968	0.069425
C160	C	0.319207	0.069032	0.319425
C161	C	-0.427534	-0.607894	-0.427334
C162	C	-0.177534	-0.357894	-0.177334
C163	C	0.072466	-0.107894	0.072666
C164	C	0.322466	0.142106	0.322666
C165	C	-0.379110	-0.575344	-0.379053
C166	C	-0.129110	-0.325344	-0.129053
C167	C	0.120890	-0.075344	0.120947
C168	C	0.370890	0.174656	0.370947
C169	C	-0.333937	-0.615872	-0.334016
C170	C	-0.083937	-0.365872	-0.084016
C171	C	0.166063	-0.115872	0.165984
C172	C	0.416063	0.134128	0.415984
C173	C	-0.337194	-0.688944	-0.337261
C174	C	-0.087194	-0.438944	-0.087261
C175	C	0.162806	-0.188944	0.162739
C176	C	0.412806	0.061056	0.412739
C177	C	-0.366933	-0.354913	-0.366924
C178	C	-0.116933	-0.104913	-0.116924
C179	C	0.133067	0.145087	0.133076
C180	C	0.383067	0.395087	0.383076
C181	C	-0.363681	-0.281835	-0.363681
C182	C	-0.113681	-0.031835	-0.113681
C183	C	0.136319	0.218165	0.136319
C184	C	0.386319	0.468165	0.386319
C185	C	-0.457277	-0.273863	-0.457000
C186	C	-0.207277	-0.023863	-0.207000
C187	C	0.042723	0.226137	0.043000
C188	C	0.292723	0.476137	0.293000
C189	C	-0.460532	-0.346937	-0.460238
C190	C	-0.210532	-0.096937	-0.210238
C191	C	0.039468	0.153063	0.039762
C192	C	0.289468	0.403063	0.289762
C193	C	-0.415357	-0.387458	-0.415203
C194	C	-0.165357	-0.137458	-0.165203
C195	C	0.084643	0.112542	0.084797
C196	C	0.334643	0.362542	0.334797
C197	C	-0.375778	-0.500651	-0.375738
C198	C	-0.125778	-0.250651	-0.125738
C199	C	0.124222	-0.000651	0.124262
C200	C	0.374222	0.249349	0.374262
C201	C	-0.418686	-0.462149	-0.418523
C202	C	-0.168686	-0.212149	-0.168523
C203	C	0.081314	0.037851	0.081477
C204	C	0.331314	0.287851	0.331477
C205	C	-0.366379	-1.014640	-0.695165
C206	C	-0.116379	-0.764640	-0.445165
C207	C	0.133621	-0.514640	-0.195165
C208	C	0.383621	-0.264640	0.054835
C209	C	-0.369348	-1.011390	-0.768503
C210	C	-0.119348	-0.761390	-0.518503
C211	C	0.130652	-0.511390	-0.268503
C212	C	0.380652	-0.261390	-0.018503
C213	C	-0.413741	-0.963001	-0.804990
C214	C	-0.163741	-0.713001	-0.554990
C215	C	0.086259	-0.463001	-0.304990
C216	C	0.336259	-0.213001	-0.054990
C217	C	-0.455162	-0.917856	-0.768135
C218	C	-0.205162	-0.667856	-0.518135
C219	C	0.044838	-0.417856	-0.268135
C220	C	0.294838	-0.167856	-0.018135
C221	C	-0.452188	-0.921103	-0.694798
C222	C	-0.202188	-0.671103	-0.444798
C223	C	0.047812	-0.421103	-0.194798
C224	C	0.297812	-0.171103	0.055202
C225	C	-0.424862	-0.950853	-1.026410
C226	C	-0.174862	-0.700853	-0.776410
C227	C	0.075138	-0.450853	-0.526410
C228	C	0.325138	-0.200853	-0.276410
C229	C	-0.427833	-0.947610	-1.099752
C230	C	-0.177833	-0.697610	-0.849752
C231	C	0.072167	-0.447610	-0.599752
C232	C	0.322167	-0.197610	-0.349752
C233	C	-0.342019	-1.041143	-1.100115
C234	C	-0.092019	-0.791143	-0.850115
C235	C	0.157981	-0.541143	-0.600115
C236	C	0.407981	-0.291143	-0.350115
C237	C	-0.339052	-1.044390	-1.026777
C238	C	-0.089052	-0.794390	-0.776777
C239	C	0.160948	-0.544390	-0.526777
C240	C	0.410948	-0.294390	-0.276777
C241	C	-0.380470	-0.999242	-0.989928
C242	C	-0.130470	-0.749242	-0.739928
C243	C	0.119530	-0.499242	-0.489928
C244	C	0.369530	-0.249242	-0.239928
C245	C	-0.416779	-0.959679	-0.879953
C246	C	-0.166779	-0.709679	-0.629953
C247	C	0.083221	-0.459679	-0.379953
C248	C	0.333221	-0.209679	-0.129953
C249	C	-0.377429	-1.002561	-0.914966
C250	C	-0.127429	-0.752561	-0.664966
C251	C	0.122571	-0.502561	-0.414966
C252	C	0.372571	-0.252561	-0.164966
C253	C	-0.389769	-0.989156	-0.214655
C254	C	-0.139769	-0.739156	0.035345
C255	C	0.110231	-0.489156	0.285345
C256	C	0.360231	-0.239156	0.535345
C257	C	-0.386414	-0.992751	-0.136602
C258	C	-0.136414	-0.742751	0.113398
C259	C	0.113586	-0.492751	0.363398
C260	C	0.363586	-0.242751	0.613398
H261	H	-0.664824	-1.053972	-0.330178
H262	H	-0.414824	-0.803972	-0.080178
H263	H	-0.164824	-0.553972	0.169822
H264	H	0.085176	-0.303972	0.419822
Br265	Br	-0.306135	-1.080319	-0.645655
Br266	Br	-0.056135	-0.830319	-0.395655
Br267	Br	0.193865	-0.580319	-0.145655
Br268	Br	0.443865	-0.330319	0.104345
H269	H	-0.463985	-0.908204	-1.129457
H270	H	-0.213985	-0.658204	-0.879457
H271	H	0.036015	-0.408204	-0.629457
H272	H	0.286015	-0.158204	-0.379457
Br273	Br	-0.484401	-0.506325	-0.484046
Br274	Br	-0.234401	-0.256325	-0.234046
Br275	Br	0.015599	-0.006325	0.015954
Br276	Br	0.265599	0.243675	0.265954
H277	H	-0.470228	-0.707464	-0.469888
H278	H	-0.220228	-0.457464	-0.219888
H279	H	0.029772	-0.207464	0.030112
H280	H	0.279772	0.042536	0.280112
H281	H	-0.302905	-1.083794	-0.997075
H282	H	-0.052905	-0.833794	-0.747075
H283	H	0.197095	-0.583794	-0.497075
H284	H	0.447095	-0.333794	-0.247075
H285	H	-0.797871	-1.048113	-0.335631
H286	H	-0.547871	-0.798113	-0.085631
H287	H	-0.297871	-0.548113	0.164369
H288	H	-0.047871	-0.298113	0.414369
Br289	Br	-0.481071	-0.889579	-0.976409
Br290	Br	-0.231071	-0.639579	-0.726409
Br291	Br	0.018929	-0.389579	-0.476409
Br292	Br	0.268929	-0.139579	-0.226409
Br293	Br	-0.526257	-0.391107	-0.525761
Br294	Br	-0.276257	-0.141107	-0.275761
Br295	Br	-0.026257	0.108893	-0.025761
Br296	Br	0.223743	0.358893	0.224239
Br297	Br	-0.518585	-0.218867	-0.518113
Br298	Br	-0.268585	0.031133	-0.268113
Br299	Br	-0.018585	0.281133	-0.018113
Br300	Br	0.231415	0.531133	0.231887
Br301	Br	-0.310059	-0.456470	-0.310218
Br302	Br	-0.060059	-0.206470	-0.060218
Br303	Br	0.189941	0.043530	0.189782
Br304	Br	0.439941	0.293530	0.439782
H305	H	-0.909097	-0.920269	-0.452900
H306	H	-0.659097	-0.670269	-0.202900
H307	H	-0.409097	-0.420269	0.047100
H308	H	-0.159097	-0.170269	0.297100
H309	H	-0.341281	-1.041956	-0.885255
H310	H	-0.091281	-0.791956	-0.635255
H311	H	0.158719	-0.541956	-0.385255
H312	H	0.408719	-0.291956	-0.135255
H313	H	-0.464315	-0.574904	-0.464006
H314	H	-0.214315	-0.324904	-0.214006
H315	H	0.035685	-0.074904	0.035994
H316	H	0.285685	0.175096	0.285994
H317	H	-0.995847	-0.914106	-0.458605
H318	H	-0.745847	-0.664106	-0.208605
H319	H	-0.495847	-0.414106	0.041395
H320	H	-0.245847	-0.164106	0.291395
Br321	Br	-0.297965	-0.237660	-0.298146
Br322	Br	-0.047965	0.012340	-0.048146
Br323	Br	0.202035	0.262340	0.201854
Br324	Br	0.452035	0.512340	0.451854
H325	H	-0.330153	-0.387897	-0.330248
H326	H	-0.080153	-0.137897	-0.080248
H327	H	0.169847	0.112103	0.169752
H328	H	0.419847	0.362103	0.419752
H329	H	-0.996429	-1.083795	-0.303019
H330	H	-0.746429	-0.833795	-0.053019
H331	H	-0.496429	-0.583795	0.196981
H332	H	-0.246429	-0.333795	0.446981
H333	H	-0.884631	-1.041952	-0.341339
H334	H	-0.634631	-0.791952	-0.091339
H335	H	-0.384631	-0.541952	0.158661
H336	H	-0.134631	-0.291952	0.408661
Br337	Br	-0.268211	-0.571698	-0.268498
Br338	Br	-0.018211	-0.321698	-0.018498
Br339	Br	0.231789	-0.071698	0.231502
Br340	Br	0.481789	0.178302	0.481502
Br341	Br	-0.275889	-0.743940	-0.276142
Br342	Br	-0.025889	-0.493940	-0.026142
Br343	Br	0.224111	-0.243940	0.223858
Br344	Br	0.474111	0.006060	0.473858
H345	H	-0.335622	-1.048150	-0.798503
H346	H	-0.085622	-0.798150	-0.548503
H347	H	0.164378	-0.548150	-0.298503
H348	H	0.414378	-0.298150	-0.048503
H349	H	-0.308298	-1.077899	-1.130125
H350	H	-0.058298	-0.827899	-0.880125
H351	H	0.191702	-0.577899	-0.630125
H352	H	0.441702	-0.327899	-0.380125
H353	H	-0.491305	-0.878454	-0.797848
H354	H	-0.241305	-0.628454	-0.547848
H355	H	0.008695	-0.378454	-0.297848
H356	H	0.258695	-0.128454	-0.047848
Br357	Br	-0.508398	-0.859834	-0.644786
Br358	Br	-0.258398	-0.609834	-0.394786
Br359	Br	-0.008398	-0.359834	-0.144786
Br360	Br	0.241602	-0.109834	0.105214
H361	H	-1.129489	-1.077932	-0.308466
H362	H	-0.879489	-0.827932	-0.058466
H363	H	-0.629489	-0.577932	0.191534
H364	H	-0.379489	-0.327932	0.441534
H365	H	-0.664233	-0.884283	-0.485768
H366	H	-0.414233	-0.634283	-0.235768
H367	H	-0.164233	-0.384283	0.014232
H368	H	0.085767	-0.134283	0.264232
H369	H	-0.452927	-0.920284	-0.909669
H370	H	-0.202927	-0.670284	-0.659669
H371	H	0.047073	-0.420284	-0.409669
H372	H	0.297073	-0.170284	-0.159669
Br373	Br	-1.148720	-0.881961	-0.488126
Br374	Br	-0.898720	-0.631961	-0.238126
Br375	Br	-0.648720	-0.381961	0.011874
Br376	Br	-0.398720	-0.131961	0.261874
H377	H	-0.797292	-0.878424	-0.491213
H378	H	-0.547292	-0.628424	-0.241213
H379	H	-0.297292	-0.378424	0.008787
H380	H	-0.047292	-0.128424	0.258787
