data_functionalizedCrystal
_audit_creation_method	'MofGen! by Chris Wilmer'
_symmetry_space_group_name_H-M	'P1'
_symmetry_Int_Tables_number	1
_symmetry_cell_setting	triclinic
loop_
_symmetry_equiv_pos_as_xyz
  x,y,z
_cell_length_a	6.817900
_cell_length_b	12.000057
_cell_length_c	10.773894
_cell_angle_alpha	94.306455
_cell_angle_beta	96.645922
_cell_angle_gamma	119.141479
loop_
_atom_site_label
_atom_site_type_symbol
_atom_site_fract_x
_atom_site_fract_y
_atom_site_fract_z
V1	V	-4.033348	-0.172142	-0.390993
O2	O	-3.931513	0.013105	-0.381384
O3	O	-4.070631	-0.345977	-0.390401
O4	O	-3.948671	-0.167374	-0.560568
O5	O	-4.054318	-0.166735	-0.210039
V6	V	-4.510574	-0.150235	-0.369096
O7	O	-4.308419	-0.220197	-0.439024
O8	O	-4.685701	-0.102180	-0.321064
O9	O	-4.250085	0.023600	-0.369688
O10	O	-4.729806	-0.335482	-0.378704
O11	O	-4.607001	-0.155642	-0.550049
O12	O	-4.372045	-0.155004	-0.199521
C13	C	-3.937650	-0.388421	-0.384770
C14	C	-4.049179	-0.530520	-0.385417
C15	C	-4.039275	-0.734624	-0.380379
C16	C	-3.924001	-0.587758	-0.379714
C17	C	-3.782076	-0.160592	-0.601833
C18	C	-3.794693	-0.157844	-0.740476
C19	C	-3.975116	-0.162607	-0.808395
C20	C	-3.988161	-0.159767	-0.951689
C21	C	-4.046412	0.066037	-0.375315
C22	C	-3.914121	0.208134	-0.374677
C23	C	-4.201986	-0.161789	-0.158249
C24	C	-4.168604	-0.164531	-0.019605
H25	H	-3.731502	-0.528039	-0.374334
H26	H	-4.241672	-0.590233	-0.390770
H27	H	-4.231762	-0.794345	-0.385748
C28	C	-3.654072	-0.711188	-0.367410
N29	N	-3.458199	-0.650424	-0.361937
C30	C	-4.170749	-0.170951	-0.743639
N31	N	-4.318106	-0.177235	-0.694867
H32	H	-3.843331	-0.153576	-0.999619
H33	H	-3.649877	-0.151654	-0.788411
H34	H	-4.313432	-0.170718	-0.971676
