data_functionalizedCrystal
_audit_creation_method	'MofGen! by Chris Wilmer'
_symmetry_space_group_name_H-M	'P1'
_symmetry_Int_Tables_number	1
_symmetry_cell_setting	triclinic
loop_
_symmetry_equiv_pos_as_xyz
  x,y,z
_cell_length_a	17.038278
_cell_length_b	17.019294
_cell_length_c	14.750779
_cell_angle_alpha	73.621426
_cell_angle_beta	103.571787
_cell_angle_gamma	87.243447
loop_
_atom_site_label
_atom_site_type_symbol
_atom_site_fract_x
_atom_site_fract_y
_atom_site_fract_z
O1	O	1.016880	0.190402	-0.095569
O2	O	0.789300	0.187639	-0.095341
O3	O	0.911488	0.072689	-0.085835
O4	O	0.894692	0.305353	-0.105076
O5	O	0.946028	0.040197	0.076503
O6	O	0.823841	0.155148	0.066996
O7	O	1.051421	0.157911	0.066768
Zn8	Zn	0.943115	0.151371	0.092657
Zn9	Zn	0.897606	0.194179	-0.121230
O10	O	0.929233	0.272861	0.057262
C11	C	0.777489	0.168878	-0.013965
C12	C	0.690834	0.161375	-0.013344
C13	C	0.928802	0.026527	-0.002194
C14	C	0.928925	-0.062615	0.005172
C15	C	0.201272	0.115276	-0.009536
C16	C	0.282693	0.122332	-0.010114
C17	C	0.312725	0.198290	-0.016400
C18	C	0.261332	0.267196	-0.022098
C19	C	0.179914	0.260138	-0.021514
C20	C	0.558023	0.223222	-0.018459
C21	C	0.639447	0.230276	-0.019046
C22	C	0.660803	0.085410	-0.007059
C23	C	0.579381	0.078360	-0.006481
C24	C	0.527996	0.147265	-0.012174
C25	C	0.395950	0.205505	-0.016993
C26	C	0.444775	0.140048	-0.011574
C27	C	0.910157	-0.086778	-0.079857
C28	C	0.910268	-0.170536	-0.072933
C29	C	0.929154	-0.230130	0.019021
C30	C	0.947921	-0.205962	0.104056
C31	C	0.947804	-0.122205	0.097131
C32	C	0.930444	-0.483908	0.044357
C33	C	0.930562	-0.567670	0.051275
C34	C	0.892907	-0.532238	-0.125715
C35	C	0.892797	-0.448482	-0.132632
C36	C	0.911560	-0.424321	-0.047596
C37	C	0.929270	-0.315745	0.026101
C38	C	0.911438	-0.338707	-0.054677
C39	C	1.063232	0.176672	-0.014611
C40	C	1.149885	0.184177	-0.015237
C41	C	0.911918	0.319024	-0.026381
C42	C	0.911793	0.408166	-0.033754
N43	N	0.974179	0.122155	0.238629
N44	N	0.866548	0.223389	-0.267201
C45	C	0.779790	0.304950	0.575329
C46	C	0.801563	0.284483	0.677521
C47	C	0.909782	0.182736	0.685898
C48	C	0.888014	0.203191	0.583706
C49	C	0.823019	0.264299	0.528429
C50	C	0.931243	0.162541	0.536805
C51	C	0.909480	0.182999	0.434621
C52	C	0.844489	0.244106	0.379337
C53	C	0.801256	0.284757	0.426245
C54	C	0.996243	0.101438	0.592083
C55	C	1.039471	0.060787	0.545183
C56	C	1.017705	0.081240	0.442997
C57	C	0.952713	0.142348	0.387713
C58	C	1.060938	0.040590	0.396090
C59	C	1.039175	0.061047	0.293905
C60	C	0.930951	0.162805	0.285529
H61	H	0.176826	0.053424	-0.004423
H62	H	0.944650	-0.364275	0.100970
N63	N	0.873718	-0.556919	-0.212570
N64	N	0.805950	-0.532069	-0.272891
H65	H	0.792392	-0.549499	-0.334237
H66	H	0.702649	0.029312	-0.002422
N67	N	0.414097	0.062465	-0.005174
N68	N	0.415771	0.028455	-0.069662
H69	H	0.394098	-0.026338	-0.065147
H70	H	0.945738	-0.464249	0.113599
H71	H	0.963077	-0.102533	0.166371
N72	N	0.757409	0.326006	0.725440
N73	N	0.793390	0.366085	0.778198
H74	H	0.762208	0.395412	0.812040
N75	N	0.548718	0.000766	-0.000068
N76	N	0.594608	-0.060748	0.005018
H77	H	0.572952	-0.115550	0.009541
H78	H	0.878019	0.212559	0.240521
H79	H	0.826773	0.260764	0.296132
N80	N	0.734854	0.347173	0.369787
N81	N	0.696256	0.383460	0.411671
H82	H	0.649362	0.427540	0.371799
H83	H	0.962704	0.132983	0.730916
H84	H	1.092394	0.011035	0.590200
H85	H	0.726858	0.354704	0.530321
H86	H	1.013962	0.084787	0.675288
H87	H	0.945938	-0.616192	0.126159
N88	N	0.335172	0.051942	-0.004287
N89	N	0.308347	-0.015871	0.001318
H90	H	0.345410	-0.065588	0.005433
N91	N	0.890859	-0.025897	-0.173780
N92	N	0.890754	0.048884	-0.179954
H93	H	0.877122	0.091882	-0.246289
N94	N	1.127337	-0.021813	0.452572
N95	N	1.146768	-0.040061	0.543806
H96	H	1.193665	-0.084131	0.583698
H97	H	1.074378	0.027946	0.255719
H98	H	0.663898	0.292130	-0.024151
H99	H	0.894988	-0.190205	-0.142173
H100	H	0.516194	0.279331	-0.023100
H101	H	0.963294	-0.254490	0.178927
H102	H	0.138076	0.316244	-0.026153
N103	N	0.292021	0.344778	-0.028508
N104	N	0.364717	0.351071	-0.029030
H105	H	0.386391	0.405866	-0.033559
N106	N	0.892158	-0.277827	-0.148594
N107	N	0.943043	-0.230772	-0.171885
H108	H	0.929431	-0.187768	-0.238215
H109	H	0.877419	-0.399964	-0.207510
N110	N	0.426633	0.283090	-0.023402
N111	N	0.484242	0.289492	0.043367
H112	H	0.505915	0.344285	0.038844
