data_functionalizedCrystal
_audit_creation_method	'MofGen! by Chris Wilmer'
_symmetry_space_group_name_H-M	'P1'
_symmetry_Int_Tables_number	1
_symmetry_cell_setting	triclinic
loop_
_symmetry_equiv_pos_as_xyz
  x,y,z
_cell_length_a	18.101397
_cell_length_b	29.839134
_cell_length_c	29.839125
_cell_angle_alpha	90.012189
_cell_angle_beta	90.017467
_cell_angle_gamma	90.001037
loop_
_atom_site_label
_atom_site_type_symbol
_atom_site_fract_x
_atom_site_fract_y
_atom_site_fract_z
Zn1	Zn	-0.295317	0.686785	0.254008
Zn2	Zn	-0.419135	0.686745	0.178879
Zn3	Zn	-0.295270	0.611668	0.178891
Zn4	Zn	-0.419080	0.611643	0.253980
O5	O	-0.357201	0.649210	0.216439
O6	O	-0.311785	0.749647	0.244049
O7	O	-0.402708	0.676779	0.116013
O8	O	-0.191643	0.621660	0.188872
O9	O	-0.402754	0.749617	0.188852
O10	O	-0.191678	0.676848	0.244061
O11	O	-0.311705	0.621620	0.116022
O12	O	-0.311651	0.548797	0.188845
O13	O	-0.402659	0.621617	0.316851
O14	O	-0.402613	0.548779	0.244012
O15	O	-0.311731	0.676824	0.316872
O16	O	-0.522761	0.676755	0.188824
O17	O	-0.522720	0.621578	0.244001
C18	C	-0.357121	0.532488	0.216427
C19	C	-0.357105	0.482553	0.216432
C20	C	-0.309932	0.125977	0.245237
C21	C	-0.309872	0.313650	0.245227
O22	O	-0.269670	0.337925	0.269716
N23	N	-0.357154	0.337108	0.216443
C24	C	-0.404456	0.313644	0.187661
O25	O	-0.444676	0.337903	0.163182
C26	C	-0.404519	0.125972	0.187674
C27	C	-0.357230	0.102517	0.216457
C28	C	-0.262647	0.102522	0.274018
C29	C	-0.262659	0.055607	0.274019
C30	C	-0.309957	0.032146	0.245238
C31	C	-0.357242	0.055602	0.216458
C32	C	-0.451825	0.102510	0.158896
C33	C	-0.451838	0.055589	0.158902
C34	C	-0.404548	0.032133	0.187685
C35	C	-0.404552	-0.014774	0.187678
N36	N	-0.357271	-0.038232	0.216462
C37	C	-0.309974	-0.014771	0.245242
C38	C	-0.404419	0.412175	0.187656
C39	C	-0.404403	0.459093	0.187652
C40	C	-0.309819	0.459096	0.245218
C41	C	-0.309833	0.412177	0.245220
C42	C	-0.357138	0.388717	0.216440
C43	C	-0.310003	-0.113297	0.245241
C44	C	-0.310017	-0.160217	0.245238
C45	C	-0.404603	-0.160215	0.187673
C46	C	-0.404586	-0.113300	0.187675
C47	C	-0.357284	-0.089842	0.216462
O48	O	-0.444740	-0.039077	0.163206
O49	O	-0.269772	-0.039038	0.269725
C50	C	-0.309919	0.172893	0.245237
C51	C	-0.357205	0.196348	0.216456
C52	C	-0.404502	0.172888	0.187676
C53	C	-0.357188	0.243266	0.216452
C54	C	-0.309891	0.266726	0.245232
C55	C	-0.262609	0.243268	0.274016
C56	C	-0.262622	0.196353	0.274017
C57	C	-0.451783	0.196345	0.158892
C58	C	-0.451766	0.243261	0.158893
C59	C	-0.404469	0.266721	0.187673
C60	C	-0.549611	0.649172	0.216418
C61	C	-0.631925	0.649196	0.216423
C62	C	-0.931016	0.649254	0.216464
C63	C	-0.899686	0.683873	0.181656
C64	C	-0.814067	0.683993	0.181746
C65	C	-0.782634	0.649225	0.216444
C66	C	-0.813666	0.662054	0.263798
C67	C	-0.899311	0.662321	0.263608
C68	C	-0.899494	0.601714	0.204329
C69	C	-0.813844	0.601949	0.203272
C70	C	-0.698774	0.649208	0.216435
C71	C	-1.014876	0.649272	0.216476
C72	C	-0.164039	0.649261	0.216471
C73	C	-0.081725	0.649283	0.216485
C74	C	-0.357194	0.649222	0.333618
C75	C	-0.357191	0.649227	0.383552
C76	C	-0.357281	0.766388	0.216452
C77	C	-0.357315	0.816323	0.216458
C78	C	-0.357154	0.649224	0.099717
C79	C	-0.356948	0.649306	0.049783
C80	C	-0.309721	0.678004	0.693210
C81	C	-0.309658	0.678026	0.880883
O82	O	-0.269367	0.702459	0.905159
N83	N	-0.356993	0.649287	0.904338
C84	C	-0.404343	0.620538	0.880871
O85	O	-0.444598	0.596091	0.905127
C86	C	-0.404402	0.620514	0.693199
C87	C	-0.357070	0.649258	0.669747
C88	C	-0.262392	0.706745	0.669757
C89	C	-0.262411	0.706741	0.622842
C90	C	-0.309759	0.677995	0.599379
C91	C	-0.357089	0.649254	0.622831
C92	C	-0.451748	0.591764	0.669733
C93	C	-0.451758	0.591759	0.622812
C94	C	-0.404425	0.620503	0.599360
C95	C	-0.404456	0.620504	0.552452
N96	N	-0.357121	0.649243	0.528998
C97	C	-0.309773	0.677989	0.552461
C98	C	-0.404310	0.620554	0.979402
C99	C	-0.404296	0.620560	1.026320
C100	C	-0.309610	0.678047	1.026328
C101	C	-0.309628	0.678043	0.979409
C102	C	-0.356975	0.649293	0.955947
C103	C	-0.309817	0.677978	0.453935
C104	C	-0.309843	0.677973	0.407015
C105	C	-0.404526	0.620484	0.407011
C106	C	-0.404504	0.620491	0.453927
C107	C	-0.357143	0.649240	0.477387
O108	O	-0.444720	0.596080	0.528147
O109	O	-0.269513	0.702425	0.528197
C110	C	-0.309702	0.678008	0.740125
C111	C	-0.357031	0.649266	0.763578
C112	C	-0.404380	0.620521	0.740114
C113	C	-0.357018	0.649273	0.810495
C114	C	-0.309669	0.678018	0.833958
C115	C	-0.262334	0.706757	0.810504
C116	C	-0.262354	0.706753	0.763588
C117	C	-0.451715	0.591782	0.763569
C118	C	-0.451692	0.591789	0.810485
C119	C	-0.404344	0.620534	0.833948
H120	H	-0.271306	0.478205	0.268651
O121	O	-0.211302	0.737757	0.738297
H122	H	-0.173616	0.717661	0.716919
O123	O	-0.928148	0.730265	0.192169
H124	H	-0.905705	0.754439	0.167400
O125	O	-0.502816	0.560744	0.597505
H126	H	-0.535723	0.540759	0.621699
O127	O	-0.258573	0.709042	0.954115
H128	H	-0.225647	0.729028	0.978317
H129	H	-0.271325	0.393083	0.268657
H130	H	-0.490300	0.177249	0.135455
H131	H	-0.490292	0.568357	0.688820
O132	O	-0.211248	0.737754	0.835814
H133	H	-0.219184	0.732919	0.872378
O134	O	-0.258727	0.708985	0.479228
H135	H	-0.221016	0.688890	0.500596
O136	O	-0.455398	0.484390	0.156603
H137	H	-0.488291	0.460189	0.136595
H138	H	-0.919755	0.575920	0.229681
H139	H	-0.793088	0.675968	0.146634
H140	H	-0.793567	0.592276	0.168423
H141	H	-0.490333	0.121599	0.135457
O142	O	-0.211618	0.127819	0.305058
H143	H	-0.224397	0.118821	0.340304
H144	H	-0.490243	0.568383	0.829576
O145	O	-0.455433	0.386874	0.156607
H146	H	-0.488296	0.411073	0.136589
O147	O	-0.259006	-0.185513	0.276283
H148	H	-0.266951	-0.222079	0.271448
H149	H	-0.490362	0.036490	0.135467
H150	H	-0.443086	-0.094202	0.164234
O151	O	-0.258982	-0.088000	0.276288
H152	H	-0.221252	-0.066632	0.256220
H153	H	-0.919253	0.697071	0.273888
O154	O	-0.502761	0.560762	0.738265
H155	H	-0.535662	0.540777	0.762461
H156	H	-0.792453	0.574768	0.226768
O157	O	-0.455616	-0.185523	0.156632
H158	H	-0.447681	-0.222087	0.161474
O159	O	-0.455550	0.589487	0.479225
H160	H	-0.493239	0.609581	0.500604
O161	O	-0.786874	0.730637	0.192382
H162	H	-0.834897	0.753195	0.197486
H163	H	-0.443078	0.597082	0.387899
O164	O	-0.258789	0.708976	0.381719
H165	H	-0.225857	0.728961	0.405920
H166	H	-0.224155	0.036514	0.297459
O167	O	-0.211356	0.737741	0.597549
H168	H	-0.178428	0.757725	0.621753
H169	H	-0.223831	0.730153	0.688856
H170	H	-0.224114	0.177260	0.297455
H171	H	-0.224095	0.262378	0.297448
O172	O	-0.926778	0.630375	0.299133
H173	H	-0.906114	0.641270	0.332423
O174	O	-0.502771	0.268558	0.127845
H175	H	-0.535663	0.244357	0.107837
O176	O	-0.927614	0.673427	0.135126
H177	H	-0.909576	0.639265	0.125281
O178	O	-0.786691	0.629681	0.299081
H179	H	-0.750792	0.604045	0.283202
O180	O	-0.785223	0.707570	0.277647
H181	H	-0.748993	0.721128	0.250883
O182	O	-0.928145	0.586253	0.159379
H183	H	-0.965176	0.612283	0.145186
O184	O	-0.258525	0.709045	1.051638
H185	H	-0.266465	0.704212	1.088202
O186	O	-0.455375	0.589544	0.954092
H187	H	-0.422210	0.566693	0.932723
O188	O	-0.455349	0.589559	1.051613
H189	H	-0.488266	0.569567	1.027411
