data_functionalizedCrystal
_audit_creation_method	'MofGen! by Chris Wilmer'
_symmetry_space_group_name_H-M	'P1'
_symmetry_Int_Tables_number	1
_symmetry_cell_setting	triclinic
loop_
_symmetry_equiv_pos_as_xyz
  x,y,z
_cell_length_a	17.699077
_cell_length_b	11.026607
_cell_length_c	16.176319
_cell_angle_alpha	89.997745
_cell_angle_beta	90.006844
_cell_angle_gamma	95.933297
loop_
_atom_site_label
_atom_site_type_symbol
_atom_site_fract_x
_atom_site_fract_y
_atom_site_fract_z
O1	O	1.025152	0.153353	0.068733
O2	O	0.807516	0.173318	0.068737
O3	O	0.898297	-0.013264	0.068732
O4	O	0.934372	0.339935	0.068738
O5	O	0.898281	-0.013254	-0.068761
O6	O	0.807500	0.173328	-0.068756
O7	O	1.025136	0.153363	-0.068760
Cu8	Cu	0.916317	0.163347	-0.081312
Cu9	Cu	0.916336	0.163334	0.081289
O10	O	0.934356	0.339945	-0.068756
C11	C	0.779213	0.172609	-0.000009
C12	C	0.694900	0.170466	-0.000008
C13	C	0.655285	0.169462	-0.074956
C14	C	0.576064	0.167430	-0.074957
C15	C	0.536459	0.166410	-0.000009
C16	C	0.576079	0.167411	0.074945
C17	C	0.655299	0.169434	0.074946
C18	C	0.256594	0.159248	0.074947
C19	C	0.177369	0.157227	0.074941
C20	C	0.177359	0.157243	-0.074956
C21	C	0.256579	0.159267	-0.074956
C22	C	0.296192	0.160261	-0.000002
C23	C	0.382093	0.162462	-0.000002
C24	C	0.450559	0.164217	-0.000008
C25	C	0.891634	-0.058450	-0.000013
C26	C	0.871794	-0.193105	-0.000010
C27	C	0.926574	-0.267074	-0.000010
C28	C	0.906070	-0.406247	-0.000006
C29	C	1.053439	0.154072	-0.000012
C30	C	1.137752	0.156215	-0.000008
C31	C	0.941019	0.385131	-0.000008
C32	C	0.960858	0.519786	-0.000006
N33	N	0.916309	0.163354	-0.195678
C34	C	0.956557	0.080728	-0.761062
C35	C	0.956554	0.080737	-0.674515
C36	C	0.916339	0.163329	-0.631253
C37	C	0.876130	0.245926	-0.674542
C38	C	0.876137	0.245923	-0.761088
C39	C	0.876101	0.245943	-0.325514
C40	C	0.876096	0.245938	-0.238963
C41	C	0.956519	0.080757	-0.238941
C42	C	0.956526	0.080754	-0.325487
C43	C	0.916320	0.163355	-0.368769
C44	C	0.916324	0.163346	-0.462613
C45	C	0.916330	0.163333	-0.537410
N46	N	0.916348	0.163317	0.195654
H47	H	0.288822	0.160103	-0.135986
F48	F	0.533924	0.166288	0.154712
F49	F	0.999325	-0.007155	-0.371526
H50	H	0.988652	-0.227367	-0.000016
F51	F	0.697429	0.170556	-0.154728
F52	F	0.833292	0.333849	-0.192921
F53	F	0.790651	-0.244997	-0.000001
H54	H	0.989260	0.013502	-0.203692
F55	F	0.833310	0.333849	-0.371571
F56	F	0.999356	-0.007185	-0.807097
F57	F	0.833333	0.333834	-0.628499
H58	H	0.843988	-0.445947	0.000000
F59	F	0.533907	0.166378	-0.154728
F60	F	0.135193	0.156180	-0.154729
H61	H	1.022941	-0.440516	0.000055
F62	F	0.833344	0.333829	-0.807152
F63	F	0.135220	0.156140	0.154716
F64	F	0.697459	0.170498	0.154716
F65	F	0.298743	0.160306	0.154719
H66	H	0.989295	0.013488	-0.639274
