data_functionalizedCrystal
_audit_creation_method	'MofGen! by Chris Wilmer'
_symmetry_space_group_name_H-M	'P1'
_symmetry_Int_Tables_number	1
_symmetry_cell_setting	triclinic
loop_
_symmetry_equiv_pos_as_xyz
  x,y,z
_cell_length_a	29.917948
_cell_length_b	29.917021
_cell_length_c	29.913391
_cell_angle_alpha	60.005297
_cell_angle_beta	60.010472
_cell_angle_gamma	59.993667
loop_
_atom_site_label
_atom_site_type_symbol
_atom_site_fract_x
_atom_site_fract_y
_atom_site_fract_z
O1	O	0.061938	-0.653075	0.546110
O2	O	0.023328	-0.508466	0.440017
O3	O	0.114898	-0.599963	0.439941
O4	O	-0.029633	-0.561578	0.546186
O5	O	0.145278	-0.569587	0.470242
O6	O	0.053708	-0.478090	0.470318
O7	O	0.092318	-0.622699	0.576411
Zn8	Zn	0.077836	-0.545572	0.528175
Zn9	Zn	0.037809	-0.585593	0.488253
O10	O	0.000747	-0.531202	0.576487
N11	N	0.105154	-0.518262	0.555424
N12	N	0.010496	-0.612908	0.461004
C13	C	0.164136	-0.309209	0.614352
C14	C	0.164251	-0.459335	0.764424
C15	C	0.164150	-0.459313	0.614341
C16	C	0.314282	-0.459305	0.614278
C17	C	0.180666	-0.358742	0.630849
C18	C	0.180732	-0.442815	0.714891
C19	C	0.264747	-0.442797	0.630809
C20	C	0.180676	-0.442802	0.630843
C21	C	0.143097	-0.246161	0.593354
C22	C	0.143120	-0.480326	0.593337
C23	C	0.201706	-0.421790	0.651848
C24	C	0.405963	-0.443499	0.565998
C25	C	0.463273	-0.462598	0.546874
C26	C	0.463297	-0.555329	0.582235
C27	C	0.405988	-0.536228	0.601360
C28	C	0.156905	-0.217495	0.537012
C29	C	0.137776	-0.160180	0.517926
C30	C	0.091035	-0.160201	0.611524
C31	C	0.110164	-0.217516	0.630611
C32	C	0.086772	-0.466488	0.607209
C33	C	0.067659	-0.485590	0.588108
C34	C	0.161236	-0.532368	0.541277
C35	C	0.180352	-0.513266	0.560371
C36	C	0.086942	-0.466529	0.856152
C37	C	0.067877	-0.485647	0.913465
C38	C	0.161489	-0.532436	0.913415
C39	C	0.180552	-0.513318	0.856101
C40	C	0.143277	-0.480363	0.827471
C41	C	0.377323	-0.480313	0.593239
C42	C	-0.111377	-0.650681	0.422736
C43	C	-0.027364	-0.650787	0.422929
C44	C	-0.048335	-0.671770	0.401835
C45	C	-0.064214	-0.763416	0.450041
C46	C	-0.045160	-0.820731	0.469172
C47	C	0.047573	-0.820841	0.433980
C48	C	0.028517	-0.763527	0.414847
C49	C	-0.140115	-0.664483	0.479060
C50	C	-0.197425	-0.645309	0.498058
C51	C	-0.197256	-0.598535	0.404405
C52	C	-0.139946	-0.617709	0.385407
C53	C	-0.041168	-0.594444	0.409067
C54	C	-0.022104	-0.575374	0.428250
C55	C	0.024568	-0.668986	0.475143
C56	C	0.005504	-0.688059	0.455967
C57	C	-0.041000	-0.594453	0.310105
C58	C	-0.021803	-0.575386	0.252792
C59	C	0.024951	-0.669004	0.252854
C60	C	0.005755	-0.688070	0.310168
C61	C	-0.027222	-0.650793	0.338792
C62	C	-0.027377	-0.734817	0.422881
N63	N	0.491125	-0.518235	0.555255
O64	O	0.678406	-0.527360	0.420422
O65	O	0.678588	-0.633782	0.564887
O66	O	0.678516	-0.633539	0.473265
O67	O	0.678478	-0.527602	0.512044
O68	O	0.587469	-0.603251	0.503685
O69	O	0.587541	-0.603493	0.595307
O70	O	0.587359	-0.497071	0.450842
Zn71	Zn	0.572994	-0.545473	0.527905
Zn72	Zn	0.692953	-0.585380	0.487825
O73	O	0.587431	-0.497313	0.542465
N74	N	0.774821	-0.612618	0.460470
N75	N	0.105125	-0.132348	0.555445
O76	O	-0.029633	0.055031	0.546198
O77	O	0.114837	0.055047	0.439777
O78	O	0.023189	0.055024	0.440050
O79	O	0.062016	0.055054	0.545925
O80	O	0.053572	-0.036031	0.470398
O81	O	0.145220	-0.036008	0.470125
O82	O	0.000750	-0.036024	0.576546
Zn83	Zn	0.077809	-0.050473	0.528154
Zn84	Zn	0.037778	0.069496	0.488169
O85	O	0.092399	-0.036001	0.576273
N86	N	0.010456	0.151371	0.460879
N87	N	0.105414	-0.518315	0.941279
O88	O	0.096182	-0.653057	1.128644
O89	O	-0.010215	-0.508539	1.128670
O90	O	-0.009968	-0.600172	1.128636
O91	O	0.095935	-0.561424	1.128678
O92	O	0.020367	-0.569808	1.037586
O93	O	0.020121	-0.478175	1.037620
O94	O	0.126517	-0.622693	1.037594
Zn95	Zn	0.078135	-0.545613	1.023151
Zn96	Zn	0.038167	-0.585619	1.143113
O97	O	0.126270	-0.531061	1.037628
N98	N	0.010887	-0.612923	1.224985
C99	C	0.034899	-0.475056	0.440551
C100	C	0.148298	-0.588365	0.440456
C101	C	0.080746	-0.656109	0.575876
C102	C	-0.032653	-0.542801	0.575971
C103	C	0.633086	-0.633292	0.598298
C104	C	0.632998	-0.632993	0.484834
C105	C	0.632857	-0.497559	0.417433
C106	C	0.632949	-0.497860	0.530895
C107	C	0.148191	0.009634	0.440259
C108	C	0.034733	0.009493	0.440634
C109	C	-0.032641	0.009502	0.576027
C110	C	0.080854	0.009529	0.575690
C111	C	-0.009699	-0.475150	1.083148
C112	C	-0.009388	-0.588620	1.083088
C113	C	0.126001	-0.656082	1.083116
C114	C	0.125697	-0.542605	1.083155
H115	H	0.056584	-0.439691	0.832846
H116	H	0.026418	0.009490	0.407371
H117	H	0.158967	-0.534314	1.083161
H118	H	0.632798	-0.464146	0.375944
H119	H	-0.074166	-0.534620	0.609333
O120	O	0.632990	-0.672629	0.474856
C121	C	0.632986	-0.697685	0.409809
C122	C	0.632983	-0.652745	0.421041
H123	H	0.632992	-0.681629	0.366297
H124	H	0.594902	-0.709677	0.440103
H125	H	0.671109	-0.735037	0.414706
H126	H	0.594886	-0.615363	0.416137
H127	H	0.671092	-0.640799	0.390749
H128	H	0.089168	0.009538	0.608950
H129	H	0.632941	-0.464583	0.539193
O130	O	-0.049133	-0.598406	1.083052
C131	C	-0.141340	-0.562539	1.082939
C132	C	-0.096382	-0.551388	1.082992
H133	H	-0.179547	-0.524530	1.082879
H134	H	-0.151621	-0.598356	1.121032
H135	H	-0.126116	-0.572980	1.044823
H136	H	-0.111568	-0.540924	1.121082
H137	H	-0.086107	-0.515587	1.044874
H138	H	0.022003	-0.474373	0.936811
O139	O	-0.082179	0.009531	0.615816
C140	C	-0.172362	0.009501	0.641294
C141	C	-0.116288	0.009475	0.596184
H142	H	-0.199950	0.009444	0.625442
H143	H	-0.192050	0.047624	0.653217
H144	H	-0.166580	-0.028589	0.678640
H145	H	-0.122022	0.047539	0.558809
H146	H	-0.096618	-0.028673	0.584307
O147	O	0.197772	-0.564459	0.941142
C148	C	0.292634	-0.608828	0.935044
C149	C	0.251605	-0.572561	0.903575
H150	H	0.336167	-0.615380	0.904685
H151	H	0.286091	-0.650080	0.961852
H152	H	0.286015	-0.587839	0.961897
H153	H	0.258200	-0.593501	0.876693
H154	H	0.258159	-0.531310	0.876801
O155	O	0.025162	-0.425524	0.400744
C156	C	0.061054	-0.369248	0.308455
C157	C	0.072159	-0.425362	0.353492
H158	H	0.099039	-0.369102	0.270237
H159	H	0.050679	-0.335832	0.323533
H160	H	0.025202	-0.361278	0.298242
H161	H	0.108017	-0.433384	0.363725
H162	H	0.082502	-0.458747	0.338390
O163	O	0.197857	-0.598204	0.400719
C164	C	0.287997	-0.663084	0.375392
C165	C	0.231901	-0.652010	0.420447
H166	H	0.315533	-0.706589	0.391322
H167	H	0.307731	-0.632755	0.363422
H168	H	0.282240	-0.658114	0.338059
H169	H	0.237610	-0.656987	0.457811
H170	H	0.212186	-0.682336	0.432371
O171	O	0.197606	0.009968	0.400350
C172	C	0.287653	0.010402	0.374737
C173	C	0.231711	0.010036	0.419978
H174	H	0.315247	0.010446	0.390594
H175	H	0.281699	0.048599	0.337520
H176	H	0.307442	-0.027612	0.362615
H177	H	0.211893	0.048024	0.432146
H178	H	0.237702	-0.028186	0.457165
H179	H	0.088995	-0.697649	0.609197
H180	H	0.633132	-0.666701	0.639790
O181	O	-0.049500	-0.425613	1.083180
C182	C	-0.074941	-0.335413	1.083172
C183	C	-0.029824	-0.391492	1.083149
H184	H	-0.059045	-0.307807	1.083135
H185	H	-0.112276	-0.341129	1.121282
H186	H	-0.086892	-0.315773	1.045073
H187	H	-0.017826	-0.411162	1.121222
H188	H	0.007482	-0.385740	1.045014
O189	O	0.165787	-0.705634	1.083129
C190	C	0.191253	-0.795809	1.083061
C191	C	0.146144	-0.739722	1.083061
H192	H	0.175393	-0.823381	1.082994
H193	H	0.203195	-0.815516	1.121177
H194	H	0.228587	-0.790037	1.044968
H195	H	0.108781	-0.745446	1.121128
H196	H	0.134249	-0.720034	1.044919
H197	H	0.226428	-0.524588	0.832752
H198	H	0.056452	-0.439666	0.634048
O199	O	0.101886	-0.848712	0.426083
C200	C	0.193076	-0.866332	0.360659
C201	C	0.131583	-0.834746	0.369526
H202	H	0.217105	-0.855044	0.314936
H203	H	0.200402	-0.912216	0.378959
H204	H	0.207249	-0.855093	0.381528
H205	H	0.117368	-0.845940	0.348658
H206	H	0.124292	-0.788870	0.351240
O207	O	0.012904	-0.472124	0.601655
C208	C	-0.077899	-0.423701	0.650110
C209	C	-0.015907	-0.438918	0.634818
H210	H	-0.101211	-0.396843	0.676915
H211	H	-0.089186	-0.462583	0.673471
H212	H	-0.089194	-0.400381	0.611225
H213	H	-0.004567	-0.462225	0.673674
H214	H	-0.004653	-0.400016	0.611435
H215	H	0.226235	-0.524529	0.549071
O216	O	0.197481	-0.564346	0.509242
C217	C	0.292318	-0.608759	0.464837
C218	C	0.251334	-0.572532	0.501110
H219	H	0.335866	-0.615398	0.458260
H220	H	0.285727	-0.587759	0.423599
H221	H	0.285696	-0.649973	0.485834
H222	H	0.257931	-0.531312	0.480161
H223	H	0.257935	-0.593575	0.542346
H224	H	0.486634	-0.600858	0.588843
O225	O	0.378254	-0.572063	0.627791
C226	C	0.384334	-0.666061	0.660871
C227	C	0.415811	-0.625535	0.630919
H228	H	0.414686	-0.709304	0.663420
H229	H	0.357497	-0.654600	0.637453
H230	H	0.357511	-0.664283	0.703953
H231	H	0.442664	-0.627293	0.587836
H232	H	0.442613	-0.637010	0.654379
H233	H	0.486593	-0.432619	0.524694
H234	H	0.382624	-0.397967	0.559385
H235	H	0.183721	-0.240813	0.506671
H236	H	0.149018	-0.136838	0.472047
O237	O	-0.118485	-0.735461	0.457739
C238	C	-0.187707	-0.670714	0.415343
C239	C	-0.126229	-0.702334	0.406553
H240	H	-0.193989	-0.643932	0.373966
H241	H	-0.203889	-0.643830	0.440511
H242	H	-0.210761	-0.701005	0.438064
H243	H	-0.103130	-0.672083	0.383817
H244	H	-0.110089	-0.729226	0.381407
O245	O	0.059035	-0.132457	0.647789
C246	C	0.014733	-0.138528	0.742643
C247	C	0.050967	-0.170013	0.701633
H248	H	0.008208	-0.168878	0.786184
H249	H	-0.026530	-0.111716	0.736107
H250	H	0.035729	-0.111675	0.735994
H251	H	0.030019	-0.196896	0.708257
H252	H	0.092228	-0.196791	0.708179
H253	H	-0.033030	-0.529506	0.229442
O254	O	0.096863	-0.245406	0.685332
C255	C	0.129887	-0.310049	0.761178
C256	C	0.145020	-0.278516	0.699193
H257	H	0.168812	-0.336817	0.772406
H258	H	0.106583	-0.336938	0.772530
H259	H	0.103053	-0.279701	0.784493
H260	H	0.171871	-0.308825	0.675835
H261	H	0.168295	-0.251618	0.687884
H262	H	-0.067855	-0.564093	0.333408
H263	H	0.016979	-0.733950	0.333522
O264	O	0.056912	-0.705270	0.225113
C265	C	0.064225	-0.779381	0.207527
C266	C	0.027976	-0.738347	0.238985
H267	H	0.040841	-0.806127	0.218721
H268	H	0.103065	-0.806295	0.218895
H269	H	0.075595	-0.756070	0.161639
H270	H	0.016564	-0.761614	0.284880
H271	H	-0.010839	-0.711434	0.227572
O272	O	-0.073176	-0.558214	0.377061
C273	C	-0.157446	-0.483964	0.369572
C274	C	-0.121256	-0.524974	0.405882
H275	H	-0.196321	-0.457071	0.392855
H276	H	-0.168749	-0.507240	0.358251
H277	H	-0.134036	-0.457193	0.330707
H278	H	-0.144633	-0.551755	0.444770
H279	H	-0.109951	-0.501665	0.417159
O280	O	-0.035406	-0.520655	0.414765
C281	C	-0.002386	-0.444856	0.370718
C282	C	0.012752	-0.506830	0.385965
H283	H	0.036540	-0.433657	0.347421
H284	H	-0.025743	-0.433526	0.409582
H285	H	-0.029170	-0.421495	0.343830
H286	H	0.039553	-0.530233	0.412839
H287	H	0.036082	-0.518118	0.347079
O288	O	0.056472	-0.705267	0.507245
C289	C	0.100781	-0.800135	0.551702
C290	C	0.064635	-0.759106	0.515350
H291	H	0.107402	-0.843673	0.558257
H292	H	0.079731	-0.793550	0.592945
H293	H	0.142005	-0.793554	0.530782
H294	H	0.023405	-0.765663	0.536222
H295	H	0.085728	-0.765702	0.474109
H296	H	0.058518	-0.740243	0.392731
O297	O	-0.081016	-0.848427	0.495530
C298	C	-0.148426	-0.865868	0.490382
C299	C	-0.107828	-0.834475	0.460442
H300	H	-0.170105	-0.854608	0.462022
H301	H	-0.179960	-0.854505	0.528550
H302	H	-0.125234	-0.911769	0.502729
H303	H	-0.130973	-0.788567	0.448057
H304	H	-0.076295	-0.845883	0.422298
O305	O	-0.112447	-0.696485	0.515393
C306	C	-0.118664	-0.740876	0.610291
C307	C	-0.150065	-0.704619	0.569202
H308	H	-0.149064	-0.747473	0.653804
H309	H	-0.091844	-0.719927	0.603792
H310	H	-0.091830	-0.782107	0.603689
H311	H	-0.176928	-0.663382	0.575779
H312	H	-0.176850	-0.725611	0.575711
H313	H	-0.220824	-0.656545	0.543924
O314	O	-0.225039	-0.566585	0.368170
C315	C	-0.289692	-0.556275	0.335284
C316	C	-0.258253	-0.592521	0.376340
H317	H	-0.316563	-0.577224	0.341883
H318	H	-0.259336	-0.549718	0.291748
H319	H	-0.316483	-0.515026	0.341853
H320	H	-0.231462	-0.633790	0.369821
H321	H	-0.288639	-0.599032	0.419861
O322	O	-0.112050	-0.604371	0.330686
C323	C	-0.094398	-0.608737	0.244800
C324	C	-0.126014	-0.623888	0.306764
H325	H	-0.105685	-0.624499	0.225439
H326	H	-0.048523	-0.628121	0.237603
H327	H	-0.105608	-0.562333	0.225478
H328	H	-0.114850	-0.670283	0.326127
H329	H	-0.171881	-0.604464	0.313923
H330	H	0.016742	-0.733938	0.467255
