data_functionalizedCrystal
_audit_creation_method	'MofGen! by Chris Wilmer'
_symmetry_space_group_name_H-M	'P1'
_symmetry_Int_Tables_number	1
_symmetry_cell_setting	triclinic
loop_
_symmetry_equiv_pos_as_xyz
  x,y,z
_cell_length_a	13.033293
_cell_length_b	18.050589
_cell_length_c	13.032268
_cell_angle_alpha	97.149417
_cell_angle_beta	89.079182
_cell_angle_gamma	97.198160
loop_
_atom_site_label
_atom_site_type_symbol
_atom_site_fract_x
_atom_site_fract_y
_atom_site_fract_z
Zn1	Zn	1.498401	-0.231056	-0.781488
Zn2	Zn	1.831735	0.102277	-0.448155
Zn3	Zn	2.165068	0.435610	-0.114821
Zn4	Zn	1.520116	-0.337783	-0.609517
Zn5	Zn	1.853449	-0.004449	-0.276184
Zn6	Zn	2.186783	0.328884	0.057149
Zn7	Zn	1.348263	-0.227134	-0.587664
Zn8	Zn	1.681596	0.106199	-0.254330
Zn9	Zn	2.014929	0.439532	0.079003
Zn10	Zn	1.326359	-0.368742	-0.759558
Zn11	Zn	1.659692	-0.035409	-0.426225
Zn12	Zn	1.993025	0.297924	-0.092892
O13	O	1.423285	-0.291179	-0.684557
O14	O	1.756618	0.042154	-0.351223
O15	O	2.089951	0.375488	-0.017890
O16	O	1.645204	-0.233898	-0.776999
O17	O	1.978537	0.099435	-0.443666
O18	O	2.311870	0.432768	-0.110333
O19	O	1.515574	-0.308507	-0.462710
O20	O	1.848907	0.024826	-0.129376
O21	O	2.182241	0.358160	0.203957
O22	O	1.368258	-0.123726	-0.613406
O23	O	1.701591	0.209608	-0.280073
O24	O	2.034925	0.542941	0.053260
O25	O	1.661157	-0.312310	-0.650653
O26	O	1.994491	0.021023	-0.317320
O27	O	2.327824	0.354357	0.016013
O28	O	1.478564	-0.126607	-0.755808
O29	O	1.811898	0.206726	-0.422475
O30	O	2.145231	0.540060	-0.089142
O31	O	1.389314	-0.227214	-0.446654
O32	O	1.722647	0.106119	-0.113320
O33	O	2.055981	0.439453	0.220013
O34	O	1.201435	-0.257234	-0.592142
O35	O	1.534769	0.076099	-0.258809
O36	O	1.868102	0.409432	0.074525
O37	O	1.330926	-0.365076	-0.906376
O38	O	1.664259	-0.031743	-0.573043
O39	O	1.997593	0.301591	-0.239709
O40	O	1.185343	-0.361273	-0.718432
O41	O	1.518676	-0.027940	-0.385099
O42	O	1.852009	0.305394	-0.051766
O43	O	1.457325	-0.263919	-0.922488
O44	O	1.790658	0.069415	-0.589154
O45	O	2.123992	0.402748	-0.255821
O46	O	1.494335	-0.445819	-0.629389
O47	O	1.827668	-0.112485	-0.296056
O48	O	2.161001	0.220848	0.037278
O49	O	1.351982	-0.468564	-0.739623
O50	O	1.685315	-0.135231	-0.406290
O51	O	2.018648	0.198102	-0.072957
C52	C	1.156072	-0.312188	-0.650537
C53	C	1.489405	0.021145	-0.317203
C54	C	1.822738	0.354478	0.016130
C55	C	1.041754	-0.321197	-0.636007
C56	C	1.375087	0.012137	-0.302674
C57	C	1.708420	0.345470	0.030659
C58	C	0.982881	-0.286496	-0.692140
C59	C	1.316214	0.046837	-0.358806
C60	C	1.649548	0.380171	-0.025473
C61	C	0.864727	-0.295806	-0.677124
C62	C	1.198060	0.037528	-0.343791
C63	C	1.531394	0.370861	-0.010457
C64	C	1.423163	-0.484139	-0.684524
C65	C	1.756496	-0.150806	-0.351191
C66	C	2.089829	0.182528	-0.017857
C67	C	1.423200	-0.566684	-0.684556
C68	C	1.756534	-0.233351	-0.351223
C69	C	2.089867	0.099982	-0.017890
C70	C	1.345859	-0.778523	-0.744486
C71	C	1.679193	-0.445190	-0.411153
C72	C	2.012526	-0.111857	-0.077820
C73	C	1.332713	-0.820398	-0.647460
C74	C	1.666047	-0.487065	-0.314126
C75	C	1.999380	-0.153731	0.019207
C76	C	1.423300	-0.717808	-0.684582
C77	C	1.756633	-0.384475	-0.351249
C78	C	2.089966	-0.051141	-0.017916
C79	C	1.436495	-0.823013	-0.781626
C80	C	1.769828	-0.489679	-0.448293
C81	C	2.103161	-0.156346	-0.114960
C82	C	1.423393	-0.863788	-0.684616
C83	C	1.756726	-0.530455	-0.351283
C84	C	2.090059	-0.197121	-0.017949
C85	C	1.410111	-0.758594	-0.587500
C86	C	1.743444	-0.425261	-0.254167
C87	C	2.076777	-0.091928	0.079167
C88	C	1.513927	-0.761207	-0.721735
C89	C	1.847261	-0.427874	-0.388402
C90	C	2.180594	-0.094541	-0.055069
C91	C	1.500825	-0.803050	-0.624649
C92	C	1.834159	-0.469717	-0.291315
C93	C	2.167492	-0.136384	0.042018
C94	C	1.423243	-0.633713	-0.684564
C95	C	1.756577	-0.300380	-0.351231
C96	C	2.089910	0.032953	-0.017898
C97	C	1.423450	-0.947880	-0.684624
C98	C	1.756784	-0.614547	-0.351290
C99	C	2.090117	-0.281213	-0.017957
C100	C	1.691541	-0.270088	-0.718710
C101	C	2.024874	0.063245	-0.385377
C102	C	2.358208	0.396579	-0.052044
C103	C	1.805856	-0.261100	-0.733264
C104	C	2.139189	0.072233	-0.399931
C105	C	2.472523	0.405566	-0.066598
C106	C	1.389260	-0.318388	-0.952789
C107	C	1.722593	0.014945	-0.619456
C108	C	2.055927	0.348278	-0.286123
C109	C	1.374761	-0.329983	-1.067094
C110	C	1.708094	0.003350	-0.733760
C111	C	2.041427	0.336683	-0.400427
C112	C	1.423432	-0.097465	-0.684616
C113	C	1.756766	0.235868	-0.351283
C114	C	2.090099	0.569201	-0.017949
C115	C	1.423495	-0.014916	-0.684641
C116	C	1.756829	0.318417	-0.351308
C117	C	2.090162	0.651751	-0.017974
C118	C	1.430836	-0.285102	-1.126026
C119	C	1.764169	0.048231	-0.792693
C120	C	2.097503	0.381565	-0.459359
C121	C	1.415852	-0.297085	-1.244166
C122	C	1.749185	0.036248	-0.910833
C123	C	2.082518	0.369582	-0.577500
C124	C	1.457236	-0.264017	-0.417375
C125	C	1.790570	0.069316	-0.084042
C126	C	2.123903	0.402649	0.249291
C127	C	1.471935	-0.252197	-0.303097
C128	C	1.805268	0.081136	0.030237
C129	C	2.138602	0.414469	0.363570
H130	H	1.019951	-0.249893	-0.751310
H131	H	1.353284	0.083441	-0.417976
H132	H	1.686618	0.416774	-0.084643
H133	H	1.256115	-0.846254	-0.616062
H134	H	1.589449	-0.512920	-0.282729
H135	H	1.922782	-0.179587	0.050605
H136	H	0.842920	-0.224493	-0.792437
H137	H	1.176254	0.108840	-0.459104
H138	H	1.509587	0.442174	-0.125771
H139	H	1.398897	-0.730640	-0.505411
H140	H	1.732230	-0.397307	-0.172077
H141	H	2.065564	-0.063974	0.161256
H142	H	1.489934	-0.237804	-1.089017
H143	H	1.823267	0.095529	-0.755684
H144	H	2.156601	0.428863	-0.422351
Br145	Br	0.802959	-0.356807	-0.578480
Br146	Br	1.136292	-0.023474	-0.245147
Br147	Br	1.469626	0.309860	0.088186
Br148	Br	1.236589	-0.759889	-0.828770
Br149	Br	1.569922	-0.426556	-0.495437
Br150	Br	1.903256	-0.093222	-0.162104
H151	H	1.004684	-0.357795	-0.576832
H152	H	1.338017	-0.024462	-0.243498
H153	H	1.671351	0.308871	0.089835
H154	H	1.566362	-0.814081	-0.573937
H155	H	1.899696	-0.480748	-0.240604
H156	H	2.233029	-0.147415	0.092729
Br157	Br	1.641559	-0.718123	-0.774137
Br158	Br	1.974893	-0.384789	-0.440803
Br159	Br	2.308226	-0.051456	-0.107470
Br160	Br	1.455035	-0.869768	-0.918388
Br161	Br	1.788368	-0.536434	-0.585054
Br162	Br	2.121702	-0.203101	-0.251721
Br163	Br	1.317328	-0.375916	-1.305832
Br164	Br	1.650661	-0.042582	-0.972499
Br165	Br	1.983995	0.290751	-0.639165
Br166	Br	1.570464	-0.173369	-1.241435
Br167	Br	1.903798	0.159964	-0.908102
Br168	Br	2.237131	0.493298	-0.574768
Br169	Br	1.276241	-0.408811	-1.128764
Br170	Br	1.609574	-0.075477	-0.795431
Br171	Br	1.942908	0.257856	-0.462097
