data_functionalizedCrystal
_audit_creation_method	'MofGen! by Chris Wilmer'
_symmetry_space_group_name_H-M	'P1'
_symmetry_Int_Tables_number	1
_symmetry_cell_setting	triclinic
loop_
_symmetry_equiv_pos_as_xyz
  x,y,z
_cell_length_a	23.532407
_cell_length_b	10.654550
_cell_length_c	9.730223
_cell_angle_alpha	90.000193
_cell_angle_beta	89.994848
_cell_angle_gamma	83.666790
loop_
_atom_site_label
_atom_site_type_symbol
_atom_site_fract_x
_atom_site_fract_y
_atom_site_fract_z
O1	O	-0.756249	-0.152433	-0.114115
O2	O	-0.590530	-0.174490	-0.114155
O3	O	-0.677200	0.019399	-0.114129
O4	O	-0.669579	-0.346321	-0.114141
O5	O	-0.677199	0.019394	0.114451
O6	O	-0.590529	-0.174495	0.114425
O7	O	-0.756248	-0.152438	0.114465
Zn8	Zn	-0.673388	-0.163467	0.150737
Zn9	Zn	-0.673390	-0.163461	-0.150427
O10	O	-0.669578	-0.346326	0.114439
C11	C	-0.569310	-0.173931	0.000130
C12	C	-0.506081	-0.172242	0.000115
C13	C	-0.676640	0.066176	0.000159
C14	C	-0.674966	0.205567	0.000154
C15	C	-0.777469	-0.152997	0.000177
C16	C	-0.840697	-0.154686	0.000183
C17	C	-0.107657	-0.276389	0.000173
C18	C	-0.048247	-0.274820	0.000182
O19	O	-0.012131	-0.371366	0.000229
N20	N	-0.024869	-0.159554	0.000183
C21	C	-0.060906	-0.045849	0.000190
O22	O	-0.035567	0.052339	0.000194
C23	C	-0.120315	-0.047419	0.000192
C24	C	-0.143689	-0.162693	0.000176
C25	C	-0.131031	-0.391654	0.000160
C26	C	-0.190438	-0.393222	0.000149
C27	C	-0.226470	-0.279525	0.000151
C28	C	-0.203095	-0.164261	0.000165
C29	C	-0.156351	0.066285	0.000209
C30	C	-0.215764	0.064705	0.000211
C31	C	-0.239138	-0.050569	0.000196
C32	C	-0.298534	-0.052133	0.000157
N33	N	-0.321911	-0.167399	0.000156
C34	C	-0.285879	-0.281096	0.000153
C35	C	0.063858	-0.042560	0.000190
C36	C	0.123266	-0.040989	0.000179
C37	C	0.135922	-0.269961	0.000173
C38	C	0.076512	-0.271531	0.000174
C39	C	0.040481	-0.157827	0.000188
C40	C	-0.410637	-0.284380	0.000128
C41	C	-0.470049	-0.285938	0.000112
C42	C	-0.482700	-0.056967	0.000125
C43	C	-0.423293	-0.055408	0.000134
C44	C	-0.387262	-0.169125	0.000141
O45	O	-0.334684	0.044362	0.000116
O46	O	-0.311227	-0.379267	0.000168
C47	C	-0.670138	-0.393104	0.000148
C48	C	-0.671812	-0.532494	0.000144
N49	N	-0.673392	-0.163471	0.356273
C50	C	-0.725996	0.286669	0.000170
C51	C	-0.724419	0.417640	0.000160
C52	C	-0.620779	0.386393	0.000123
C53	C	-0.622356	0.255425	0.000123
C54	C	-0.778606	0.236811	0.000201
C55	C	-0.829640	0.317915	0.000219
C56	C	-0.828064	0.448886	0.000209
C57	C	-0.775453	0.498753	0.000181
N58	N	-0.673391	-0.163447	-0.355963
C59	C	-0.711779	-0.077646	0.428211
C60	C	-0.711778	-0.077630	0.572094
C61	C	-0.634999	-0.249276	0.572089
C62	C	-0.634999	-0.249285	0.428209
C63	C	-0.750172	0.008169	0.356275
C64	C	-0.788563	0.094000	0.428213
C65	C	-0.788562	0.094015	0.572096
C66	C	-0.750169	0.008199	0.644041
H67	H	-0.489077	-0.379812	0.000098
H68	H	-0.872474	0.277304	0.000207
O69	O	-0.829960	0.186565	0.350606
H70	H	-0.874417	0.171082	0.378229
O71	O	-0.829970	0.186574	0.649694
H72	H	-0.856669	0.246230	0.575496
H73	H	-0.774174	0.605399	0.000158
H74	H	-0.603742	-0.319145	0.630676
H75	H	0.034524	0.050038	0.000189
H76	H	-0.137331	0.160153	0.000222
O77	O	-0.398080	0.068923	0.000142
H78	H	-0.371324	0.075105	0.093316
O79	O	0.148469	0.083348	0.000188
H80	H	0.175234	0.089560	-0.092977
H81	H	-0.381308	-0.376980	0.000138
H82	H	-0.577945	0.427006	0.000103
O83	O	-0.593585	-0.341848	0.350631
H84	H	-0.565700	-0.289278	0.285095
O85	O	-0.254629	0.187345	0.000230
H86	H	-0.246259	0.242546	-0.092934
O87	O	-0.521567	0.065661	0.000148
H88	H	-0.566804	0.045193	0.000160
H89	H	-0.209463	-0.487090	0.000135
H90	H	-0.779895	0.130170	0.000213
H91	H	-0.580802	0.189388	0.000112
O92	O	-0.750170	0.008217	0.799231
H93	H	-0.717025	-0.065873	0.837168
O94	O	-0.883103	0.536368	0.000234
H95	H	-0.919948	0.479690	0.000269
H96	H	-0.750178	0.008162	0.239119
H97	H	-0.101699	-0.484244	0.000162
H98	H	0.057486	-0.365397	0.000169
H99	H	0.165270	-0.362539	0.000177
