data_functionalizedCrystal
_audit_creation_method	'MofGen! by Chris Wilmer'
_symmetry_space_group_name_H-M	'P1'
_symmetry_Int_Tables_number	1
_symmetry_cell_setting	triclinic
loop_
_symmetry_equiv_pos_as_xyz
  x,y,z
_cell_length_a	19.077105
_cell_length_b	16.625546
_cell_length_c	19.077569
_cell_angle_alpha	87.674615
_cell_angle_beta	85.299277
_cell_angle_gamma	87.718759
loop_
_atom_site_label
_atom_site_type_symbol
_atom_site_fract_x
_atom_site_fract_y
_atom_site_fract_z
Zn1	Zn	1.093727	-0.351109	-0.441842
Zn2	Zn	1.088914	-0.491150	-0.323948
Zn3	Zn	0.971109	-0.351121	-0.319237
Zn4	Zn	0.975810	-0.480687	-0.437068
O5	O	1.032390	-0.418516	-0.380524
O6	O	1.191739	-0.374059	-0.430172
O7	O	1.069305	-0.476958	-0.224672
O8	O	0.987422	-0.238288	-0.335527
O9	O	1.188202	-0.476947	-0.343556
O10	O	1.077509	-0.238279	-0.425604
O11	O	0.982755	-0.374079	-0.221211
O12	O	0.873082	-0.363934	-0.330898
O13	O	0.995433	-0.459114	-0.536353
O14	O	0.876536	-0.459126	-0.417468
O15	O	1.082067	-0.363914	-0.539860
O16	O	1.073863	-0.602593	-0.338928
O17	O	0.990766	-0.594906	-0.422037
C18	C	0.849230	-0.410396	-0.373155
C19	C	0.770874	-0.406941	-0.370019
C20	C	0.735876	-0.454960	-0.413547
C21	C	0.662253	-0.451703	-0.410604
C22	C	0.623629	-0.400430	-0.364128
C23	C	0.658632	-0.352406	-0.320598
C24	C	0.732254	-0.355660	-0.323546
C25	C	0.403247	-0.385372	-0.350492
C26	C	0.329619	-0.382124	-0.347547
C27	C	0.333246	-0.481420	-0.437553
C28	C	0.406869	-0.484673	-0.440493
C29	C	0.441866	-0.436645	-0.396966
N30	N	0.548373	-0.397102	-0.361117
N31	N	0.517120	-0.439971	-0.399981
C32	C	1.032322	-0.628006	-0.380492
C33	C	1.032358	-0.717628	-0.380504
C34	C	1.032484	-1.045806	-0.380582
C35	C	1.032447	-0.954496	-0.380562
C36	C	1.032421	-0.881720	-0.380543
C37	C	1.032385	-0.790405	-0.380524
C38	C	1.216265	-0.426669	-0.387922
C39	C	1.294621	-0.430143	-0.391075
C40	C	1.039811	-0.410346	-0.564401
C41	C	1.042974	-0.406864	-0.642758
C42	C	1.032478	-0.208209	-0.380572
C43	C	1.032515	-0.118589	-0.380593
C44	C	0.999355	-0.454790	-0.677746
C45	C	1.002333	-0.451519	-0.751371
C46	C	1.048926	-0.400317	-0.790008
C47	C	1.092549	-0.352389	-0.755015
C48	C	1.089575	-0.355665	-0.681391
C49	C	1.062661	-0.385208	-1.010396
C50	C	1.065631	-0.381934	-1.084024
C51	C	0.975415	-0.481065	-1.080376
C52	C	0.972442	-0.484333	-1.006751
C53	C	1.016068	-0.436408	-0.971764
N54	N	1.051968	-0.396970	-0.865265
N55	N	1.013028	-0.439760	-0.896509
C56	C	1.025038	-0.426599	-0.197364
C57	C	1.022012	-0.429860	-0.119012
H58	H	0.304743	-0.520520	-0.472992
H59	H	0.438312	-0.526426	-0.478337
H60	H	0.298174	-0.340362	-0.309705
H61	H	1.103570	-0.340231	-1.115480
H62	H	0.767319	-0.496714	-0.451390
O63	O	0.933146	-0.527711	-1.114398
C64	C	0.974982	-0.579659	-1.158601
H65	H	1.029607	-0.588084	-1.138645
H66	H	0.979673	-0.552356	-1.214502
C67	C	0.873464	-0.651555	-1.182838
C68	C	0.940554	-0.661909	-1.158325
H69	H	0.852226	-0.702290	-1.182671
H70	H	0.845278	-0.616555	-1.153060
H71	H	0.877382	-0.628800	-1.229420
H72	H	0.936634	-0.684654	-1.111741
H73	H	0.968738	-0.696915	-1.188095
O74	O	0.766288	-0.308927	-0.281361
C75	C	0.810533	-0.257029	-0.323284
H76	H	0.790601	-0.248701	-0.377928
H77	H	0.866420	-0.284321	-0.327906
C78	C	0.834774	-0.184952	-0.221906
C79	C	0.810290	-0.174717	-0.289019
H80	H	0.834628	-0.134179	-0.200769
H81	H	0.804968	-0.219918	-0.193661
H82	H	0.881345	-0.207698	-0.225767
H83	H	0.763717	-0.151981	-0.285157
H84	H	0.840089	-0.139745	-0.317263
H85	H	0.633761	-0.490806	-0.446049
H86	H	1.130489	-0.310703	-0.786478
H87	H	1.098185	-0.346184	-0.981919
H88	H	0.431732	-0.346271	-0.315044
O89	O	1.131971	-0.309028	-0.647511
C90	C	1.173746	-0.263147	-0.697399
H91	H	1.146991	-0.256737	-0.748720
H92	H	1.227589	-0.294701	-0.707377
C93	C	1.215644	-0.186936	-0.606054
C94	C	1.182781	-0.179057	-0.669086
H95	H	1.221221	-0.135067	-0.588589
H96	H	1.187502	-0.217849	-0.572443
H97	H	1.260510	-0.213234	-0.614378
H98	H	1.137913	-0.152769	-0.660759
H99	H	1.210916	-0.148138	-0.702694
H100	H	0.627178	-0.310655	-0.282760
H101	H	0.966815	-0.490546	-0.779855
H102	H	0.961406	-0.496475	-0.646293
O103	O	0.927149	-0.534125	-0.969329
C104	C	0.889266	-0.575701	-1.015998
H105	H	0.920267	-0.577465	-1.069635
H106	H	0.836068	-0.543426	-1.021696
C107	C	0.839794	-0.660163	-0.920947
C108	C	0.877873	-0.662336	-0.986824
H109	H	0.832763	-0.713603	-0.902950
H110	H	0.865315	-0.632151	-0.889504
H111	H	0.795467	-0.633264	-0.925704
H112	H	0.922203	-0.689226	-0.982064
H113	H	0.852360	-0.690355	-1.018265
