data_functionalizedCrystal
_audit_creation_method	'MofGen! by Chris Wilmer'
_symmetry_space_group_name_H-M	'P1'
_symmetry_Int_Tables_number	1
_symmetry_cell_setting	triclinic
loop_
_symmetry_equiv_pos_as_xyz
  x,y,z
_cell_length_a	12.759401
_cell_length_b	19.121063
_cell_length_c	12.759393
_cell_angle_alpha	92.403915
_cell_angle_beta	89.981287
_cell_angle_gamma	92.470439
loop_
_atom_site_label
_atom_site_type_symbol
_atom_site_fract_x
_atom_site_fract_y
_atom_site_fract_z
Zn1	Zn	1.588310	-0.279550	-0.611809
Zn2	Zn	1.580672	-0.397017	-0.443603
Zn3	Zn	1.412613	-0.279588	-0.436146
Zn4	Zn	1.405068	-0.396968	-0.619238
O5	O	1.496666	-0.338281	-0.527699
O6	O	1.734318	-0.295138	-0.589508
O7	O	1.558340	-0.381476	-0.295595
O8	O	1.442274	-0.181299	-0.453218
O9	O	1.728706	-0.381440	-0.465928
O10	O	1.571357	-0.181271	-0.582277
O11	O	1.434868	-0.295201	-0.290117
O12	O	1.264592	-0.295154	-0.460422
O13	O	1.429414	-0.381356	-0.765271
O14	O	1.259048	-0.381393	-0.594938
O15	O	1.564041	-0.295090	-0.759813
O16	O	1.551024	-0.495295	-0.473132
O17	O	1.422008	-0.495259	-0.602169
C18	C	1.223699	-0.338272	-0.527678
C19	C	1.106922	-0.338286	-0.527694
C20	C	1.049196	-0.383258	-0.597636
C21	C	0.939472	-0.383261	-0.597657
C22	C	0.945208	-0.293316	-0.457786
C23	C	1.054931	-0.293310	-0.457771
C24	C	0.787955	-0.408463	-0.723121
C25	C	0.730225	-0.453447	-0.793054
C26	C	0.761425	-0.521989	-0.813363
C27	C	0.850352	-0.545562	-0.763725
C28	C	0.908076	-0.500581	-0.693785
C29	C	0.876878	-0.432029	-0.673495
C30	C	1.206450	-0.268116	-0.332306
C31	C	1.264175	-0.223139	-0.262359
C32	C	1.232977	-0.154595	-0.242039
C33	C	1.144047	-0.131025	-0.291659
C34	C	1.086321	-0.176002	-0.361605
C35	C	1.117526	-0.244545	-0.381927
C36	C	1.484897	-0.520761	-0.539289
C37	C	1.479959	-0.598827	-0.544282
C38	C	1.544862	-0.635498	-0.479500
C39	C	1.540224	-0.708849	-0.484203
C40	C	1.470676	-0.745528	-0.553682
C41	C	1.405770	-0.708852	-0.618471
C42	C	1.410414	-0.635502	-0.613773
C43	C	1.453294	-0.966997	-0.571229
C44	C	1.448652	-1.040352	-0.575920
C45	C	1.583109	-1.040344	-0.441653
C46	C	1.587743	-0.966993	-0.436957
C47	C	1.522840	-0.930323	-0.501749
C48	C	1.465931	-0.820504	-0.558488
C49	C	1.527592	-0.855348	-0.496948
C50	C	1.770699	-0.338290	-0.527721
C51	C	1.887475	-0.338294	-0.527731
C52	C	1.496738	-0.338213	-0.801728
C53	C	1.496769	-0.338185	-0.918503
C54	C	1.508509	-0.155088	-0.516087
C55	C	1.513556	-0.077022	-0.511139
C56	C	1.426693	-0.383083	-0.976207
C57	C	1.426732	-0.383056	-1.085930
C58	C	1.566927	-0.293229	-1.080234
C59	C	1.566892	-0.293259	-0.970513
C60	C	1.383884	-0.465845	-1.241132
C61	C	1.313792	-0.510737	-1.298840
C62	C	1.210569	-0.521525	-1.263911
C63	C	1.177419	-0.487411	-1.171275
C64	C	1.247506	-0.442514	-1.113573
C65	C	1.350742	-0.431739	-1.148501
C66	C	1.609729	-0.210469	-0.815309
C67	C	1.679812	-0.165568	-0.757605
C68	C	1.783037	-0.154773	-0.792531
C69	C	1.816184	-0.188874	-0.885169
C70	C	1.746101	-0.233775	-0.942874
C71	C	1.642877	-0.244572	-0.907940
C72	C	1.496658	-0.338297	-0.254733
C73	C	1.496843	-0.338128	-0.137946
H74	H	1.091524	-0.419878	-0.654575
C75	C	1.372146	-1.080700	-0.652347
H76	H	1.378668	-1.129636	-0.645852
H77	H	1.388243	-1.068640	-0.722181
H78	H	1.302319	-1.068725	-0.636135
C79	C	1.329270	-0.749193	-0.694901
H80	H	1.291288	-0.716846	-0.732818
H81	H	1.281699	-0.777855	-0.656511
H82	H	1.367634	-0.777758	-0.742546
C83	C	1.339022	-0.595164	-0.685034
H84	H	1.296931	-0.627512	-0.727081
H85	H	1.381005	-0.566504	-0.729009
H86	H	1.295071	-0.566596	-0.642973
C87	C	1.005889	-0.526502	-0.639190
H88	H	1.016207	-0.573768	-0.661302
H89	H	0.996228	-0.523603	-0.565337
H90	H	1.065588	-0.498131	-0.657272
C91	C	1.296462	-0.105122	-0.165087
H92	H	1.265136	-0.060926	-0.160090
H93	H	1.366391	-0.099214	-0.189795
H94	H	1.297003	-0.124704	-0.097890
C95	C	1.654502	-1.080682	-0.370396
H96	H	1.641784	-1.129619	-0.383148
H97	H	1.639929	-1.068707	-0.299025
H98	H	1.725851	-1.068611	-0.385073
H99	H	1.525675	-0.219259	-0.786860
C100	C	1.381886	-0.926669	-0.642480
H101	H	1.339791	-0.959021	-0.684518
H102	H	1.423850	-0.898005	-0.686464
H103	H	1.337939	-0.898107	-0.600405
H104	H	1.369588	-0.419660	-0.933864
H105	H	1.336587	-0.242336	-0.221956
H106	H	0.875741	-0.601379	-0.780258
H107	H	1.118632	-0.075216	-0.275097
H108	H	1.584222	-0.825482	-0.440382
C109	C	1.211051	-0.404991	-1.011685
H110	H	1.139534	-0.417845	-0.999143
H111	H	1.218490	-0.355735	-1.018378
H112	H	1.252632	-0.418257	-0.954663
C113	C	1.240775	-0.343514	-0.354662
H114	H	1.301997	-0.351112	-0.315082
H115	H	1.255437	-0.350230	-0.427297
H116	H	1.186067	-0.375717	-0.335378
C117	C	1.664252	-0.926651	-0.360537
H118	H	1.702250	-0.958997	-0.322634
H119	H	1.625900	-0.898083	-0.312895
H120	H	1.711823	-0.897992	-0.398942
H121	H	1.013914	-0.156804	-0.402015
C122	C	1.621368	-0.595157	-0.403074
H123	H	1.659364	-0.627506	-0.365174
H124	H	1.583017	-0.566590	-0.355430
H125	H	1.668940	-0.566498	-0.441478
C126	C	1.063866	-0.499272	-1.132866
H127	H	1.026875	-0.530899	-1.180494
H128	H	1.030262	-0.455865	-1.129062
H129	H	1.064409	-0.518383	-1.065342
C130	C	1.611613	-0.749184	-0.412938
H131	H	1.653688	-0.716834	-0.370876
H132	H	1.655563	-0.777750	-0.454992
H133	H	1.569625	-0.777844	-0.368960
C134	C	1.133467	-0.570905	-1.327382
H135	H	1.067238	-0.572440	-1.293318
H136	H	1.159869	-0.616626	-1.332138
H137	H	1.125719	-0.554104	-1.395849
H138	H	0.714414	-0.558615	-0.870305
H139	H	1.409302	-0.850376	-0.615056
H140	H	1.340793	-0.538512	-1.374264
C141	C	1.497435	-0.453985	-1.279546
H142	H	1.534436	-0.422369	-1.231908
H143	H	1.496895	-0.434876	-1.347065
H144	H	1.531036	-0.497398	-1.283349
H145	H	0.657821	-0.434247	-0.833469
C146	C	0.888014	-0.243855	-0.380865
H147	H	0.814399	-0.250305	-0.390882
H148	H	0.909040	-0.196676	-0.393353
H149	H	0.905308	-0.254084	-0.310895
C150	C	0.753643	-0.333062	-0.700791
H151	H	0.800764	-0.309644	-0.652041
H152	H	0.684823	-0.334244	-0.672316
H153	H	0.754192	-0.308775	-0.764247
C154	C	1.644044	-0.243807	-1.137448
H155	H	1.634022	-0.250212	-1.211058
H156	H	1.713966	-0.254090	-1.120124
H157	H	1.631704	-0.196619	-1.116468
H158	H	1.773097	-0.261539	-1.018308
C159	C	1.929732	-0.177004	-0.923591
H160	H	1.966726	-0.145385	-0.875952
H161	H	1.929185	-0.157893	-0.991109
H162	H	1.963345	-0.220412	-0.927396
H163	H	1.840093	-0.118202	-0.745545
H164	H	1.652811	-0.137796	-0.682179
