data_functionalizedCrystal
_audit_creation_method	'MofGen! by Chris Wilmer'
_symmetry_space_group_name_H-M	'P1'
_symmetry_Int_Tables_number	1
_symmetry_cell_setting	triclinic
loop_
_symmetry_equiv_pos_as_xyz
  x,y,z
_cell_length_a	13.635800
_cell_length_b	7.076093
_cell_length_c	21.457703
_cell_angle_alpha	70.820785
_cell_angle_beta	116.828087
_cell_angle_gamma	117.701465
loop_
_atom_site_label
_atom_site_type_symbol
_atom_site_fract_x
_atom_site_fract_y
_atom_site_fract_z
V1	V	-1.814306	0.666228	-0.095571
O2	O	-1.775072	0.652268	0.005739
O3	O	-1.826800	0.662900	-0.190604
O4	O	-1.687144	0.956232	-0.093597
O5	O	-1.915695	0.356905	-0.091938
V6	V	-2.064707	0.629081	-0.083512
O7	O	-1.925984	0.747712	-0.122022
O8	O	-2.178128	0.547597	-0.057061
O9	O	-1.940610	0.632409	0.011521
O10	O	-2.162640	0.643041	-0.184823
O11	O	-2.022017	0.938404	-0.087145
O12	O	-2.080266	0.339077	-0.085486
V13	V	-1.314306	0.666228	-0.095571
O14	O	-1.275072	0.652268	0.005739
O15	O	-1.326800	0.662900	-0.190604
O16	O	-1.187144	0.956232	-0.093597
O17	O	-1.415695	0.356905	-0.091938
V18	V	-1.564707	0.629081	-0.083512
O19	O	-1.425984	0.747712	-0.122022
O20	O	-1.678128	0.547597	-0.057061
O21	O	-1.440610	0.632409	0.011521
O22	O	-1.662640	0.643041	-0.184823
O23	O	-1.522017	0.938404	-0.087145
O24	O	-1.580266	0.339077	-0.085486
C25	C	-1.761559	0.652707	-0.213787
C26	C	-1.811731	0.651919	-0.291474
C27	C	-1.583419	1.026878	-0.090042
C28	C	-1.519148	1.268422	-0.089038
C29	C	-2.015665	0.268419	-0.089040
C30	C	-2.069360	0.026873	-0.090042
C31	C	-1.837526	0.642596	0.034700
C32	C	-1.776968	0.643398	0.112387
C33	C	-1.261559	0.652707	-0.213787
C34	C	-1.311731	0.651919	-0.291474
C35	C	-1.337526	0.642596	0.034700
C36	C	-1.276968	0.643398	0.112387
C37	C	-1.923913	0.662251	-0.331502
C38	C	-1.971062	0.661543	-0.404500
C39	C	-1.906031	0.650488	-0.437467
C40	C	-1.793837	0.640162	-0.397434
C41	C	-1.746686	0.640885	-0.324438
C42	C	-1.837230	0.633249	0.152412
C43	C	-1.780280	0.634277	0.225394
C44	C	-1.663057	0.645497	0.258344
C45	C	-1.602793	0.655635	0.218310
C46	C	-1.659748	0.654586	0.145331
C47	C	-1.482109	0.780961	0.364992
C48	C	-1.425156	0.782023	0.437969
C49	C	-1.487386	0.648725	0.483436
C50	C	-1.606587	0.514391	0.455916
C51	C	-1.663542	0.513341	0.382937
C52	C	-1.601289	0.646635	0.337477
C53	C	-1.485902	0.639687	0.602597
C54	C	-1.428950	0.640702	0.675580
C55	C	-1.251458	0.662082	0.668494
C56	C	-1.308416	0.661046	0.595513
C57	C	-1.425635	0.649858	0.562569
C58	C	-1.337278	0.633072	0.152414
C59	C	-1.280397	0.633790	0.225412
C60	C	-1.163204	0.644850	0.258379
C61	C	-1.102893	0.655170	0.218346
C62	C	-1.159776	0.654437	0.145351
H63	H	-1.976885	0.671239	-0.304670
H64	H	-1.328104	0.891416	0.460370
O65	O	-1.463685	0.621111	0.116872
H66	H	-1.520329	0.474123	0.091002
O67	O	-1.101854	0.645652	0.337110
H68	H	-1.022050	0.796599	0.347612
H69	H	-1.655341	0.632460	-0.291852
O70	O	-1.963664	0.621138	0.116879
H71	H	-1.996001	0.614228	0.156979
O72	O	-2.092078	0.672641	-0.447670
H73	H	-2.129379	0.680401	-0.412475
H74	H	-1.944437	0.649901	-0.496906
H75	H	-1.329523	0.625389	0.257996
O76	O	-1.594749	0.665565	0.102151
H77	H	-1.503666	0.673554	0.137321
O78	O	-1.723699	0.628243	-0.432995
H79	H	-1.775349	0.629458	-0.490476
O80	O	-0.976483	0.667144	0.253905
H81	H	-0.947068	0.665955	0.311385
O82	O	-1.845260	0.623370	0.268577
H83	H	-1.936334	0.615436	0.233406
O84	O	-1.094707	0.665628	0.102180
H85	H	-1.067704	0.524781	0.121714
H86	H	-1.581351	0.630566	0.575773
O87	O	-1.792095	0.368436	0.353251
H88	H	-1.825805	0.275900	0.397122
H89	H	-1.478031	0.632426	0.708169
O90	O	-1.414976	0.924767	0.315960
H91	H	-1.458993	1.037486	0.278408
O92	O	-1.673725	0.370588	0.504943
H93	H	-1.614095	0.393855	0.560314
H94	H	-1.259341	0.669313	0.562923
O95	O	-1.125028	0.674195	0.704021
H96	H	-1.095542	0.673234	0.761492
H97	H	-1.507347	0.664768	0.245143
