data_functionalizedCrystal
_audit_creation_method	'MofGen! by Chris Wilmer'
_symmetry_space_group_name_H-M	'P1'
_symmetry_Int_Tables_number	1
_symmetry_cell_setting	triclinic
loop_
_symmetry_equiv_pos_as_xyz
  x,y,z
_cell_length_a	14.519709
_cell_length_b	19.288864
_cell_length_c	17.766277
_cell_angle_alpha	90.023209
_cell_angle_beta	89.992699
_cell_angle_gamma	96.591805
loop_
_atom_site_label
_atom_site_type_symbol
_atom_site_fract_x
_atom_site_fract_y
_atom_site_fract_z
O1	O	0.115045	-0.921767	-0.062837
O2	O	0.615045	-0.421767	0.437163
O3	O	0.130564	-0.719562	-0.062786
O4	O	0.630564	-0.219562	0.437214
O5	O	-0.011468	-0.826026	-0.062806
O6	O	0.488532	-0.326026	0.437194
O7	O	0.257077	-0.815304	-0.062817
O8	O	0.757077	-0.315304	0.437183
O9	O	-0.011475	-0.826007	0.062382
O10	O	0.488525	-0.326007	0.562382
O11	O	0.130557	-0.719544	0.062402
O12	O	0.630557	-0.219544	0.562402
O13	O	0.115038	-0.921748	0.062351
O14	O	0.615038	-0.421748	0.562351
Cu15	Cu	0.122797	-0.820644	0.073808
Cu16	Cu	0.622797	-0.320644	0.573808
Cu17	Cu	0.122805	-0.820666	-0.074242
Cu18	Cu	0.622805	-0.320666	0.425758
O19	O	0.257070	-0.815285	0.062371
O20	O	0.757070	-0.315285	0.562371
C21	C	0.130061	-0.693675	-0.000185
C22	C	0.630061	-0.193675	0.499815
C23	C	0.128562	-0.616566	-0.000165
C24	C	0.628562	-0.116566	0.499835
C25	C	-0.045828	-0.825517	-0.000212
C26	C	0.454172	-0.325517	0.499788
C27	C	-0.148200	-0.824019	-0.000211
C28	C	0.351800	-0.324019	0.499789
C29	C	0.115541	-0.947636	-0.000251
C30	C	0.615541	-0.447636	0.499749
C31	C	0.117040	-1.024745	-0.000276
C32	C	0.617040	-0.524745	0.499724
C33	C	-0.523061	-0.818507	-0.000229
C34	C	-0.023061	-0.318507	0.499771
C35	C	-0.418762	-0.820037	-0.000224
C36	C	0.081238	-0.320037	0.499776
C37	C	-0.335633	-0.821263	-0.000219
C38	C	0.164367	-0.321263	0.499781
C39	C	-0.231329	-0.822794	-0.000215
C40	C	0.268671	-0.322794	0.499785
C41	C	0.291430	-0.815794	-0.000225
C42	C	0.791430	-0.315794	0.499775
C43	C	0.393802	-0.817291	-0.000230
C44	C	0.893802	-0.317291	0.499770
N45	N	0.122790	-0.820634	0.177938
N46	N	0.622790	-0.320634	0.677938
C47	C	0.211900	-0.572169	-0.000181
C48	C	0.711900	-0.072169	0.499819
C49	C	0.210492	-0.499717	-0.000189
C50	C	0.710492	0.000283	0.499811
C51	C	0.125741	-0.471665	-0.000197
C52	C	0.625741	0.028335	0.499803
C53	C	0.042392	-0.516071	-0.000178
C54	C	0.542392	-0.016071	0.499822
C55	C	0.043803	-0.588521	-0.000162
C56	C	0.543803	-0.088521	0.499838
C57	C	0.059120	-0.363169	-0.044079
C58	C	0.559120	0.136831	0.455921
C59	C	0.057713	-0.290720	-0.044099
C60	C	0.557713	0.209280	0.455901
C61	C	0.121387	-0.248203	-0.000242
C62	C	0.621387	0.251797	0.499758
C63	C	0.186483	-0.278144	0.043625
C64	C	0.686483	0.221856	0.543625
C65	C	0.187894	-0.350594	0.043641
C66	C	0.687894	0.149406	0.543641
C67	C	0.124202	-0.393105	-0.000214
C68	C	0.624202	0.106895	0.499786
C69	C	0.203203	-0.125246	-0.000265
C70	C	0.703203	0.374754	0.499735
C71	C	0.201792	-0.052792	-0.000269
C72	C	0.701792	0.447208	0.499731
C73	C	0.033689	-0.069148	-0.000265
C74	C	0.533689	0.430852	0.499735
C75	C	0.035103	-0.141599	-0.000254
C76	C	0.535103	0.358401	0.499746
C77	C	0.119863	-0.169644	-0.000258
C78	C	0.619863	0.330356	0.499742
N79	N	0.122805	-0.820682	-0.178373
N80	N	0.622805	-0.320682	0.321627
C81	C	0.059929	-0.867791	0.217316
C82	C	0.559929	-0.367791	0.717316
C83	C	0.059925	-0.867795	0.296118
C84	C	0.559925	-0.367795	0.796118
C85	C	0.122798	-0.820648	0.335538
C86	C	0.622798	-0.320648	0.835538
C87	C	0.185664	-0.773482	0.296151
C88	C	0.685664	-0.273482	0.796151
C89	C	0.185660	-0.773475	0.217351
C90	C	0.685660	-0.273475	0.717351
C91	C	0.206826	-0.811652	0.460375
C92	C	0.706826	-0.311652	0.960375
C93	C	0.206831	-0.811664	0.539173
C94	C	0.706831	-0.311664	1.039173
C95	C	0.122809	-0.820667	0.578585
C96	C	0.622809	-0.320667	1.078585
C97	C	0.038778	-0.829672	0.539188
C98	C	0.538778	-0.329672	1.039188
C99	C	0.038775	-0.829665	0.460387
C100	C	0.538775	-0.329665	0.960387
C101	C	0.122808	-0.820651	0.420984
C102	C	0.622808	-0.320651	0.920984
C103	C	0.059938	-0.867831	0.703409
C104	C	0.559938	-0.367831	1.203409
C105	C	0.059932	-0.867830	0.782212
C106	C	0.559932	-0.367830	1.282212
C107	C	0.185679	-0.773521	0.782244
C108	C	0.685679	-0.273521	1.282244
C109	C	0.185676	-0.773518	0.703442
C110	C	0.685676	-0.273518	1.203442
C111	C	0.122807	-0.820677	0.664029
C112	C	0.622807	-0.320677	1.164029
H113	H	0.280918	-0.594998	-0.000185
H114	H	0.780918	-0.094998	0.499815
C115	C	0.302174	-0.450872	-0.000214
C116	C	0.802174	0.049128	0.499786
N117	N	0.371229	-0.414084	-0.000238
N118	N	0.871229	0.085916	0.499762
C119	C	0.254841	-0.721659	0.825602
C120	C	0.754841	-0.221659	1.325602
N121	N	0.306935	-0.682595	0.858263
N122	N	0.806935	-0.182595	1.358263
H123	H	0.008738	-0.906230	0.814274
H124	H	0.508738	-0.406230	1.314274
C125	C	-0.009238	-0.919661	0.173966
C126	C	0.490762	-0.419661	0.673966
N127	N	-0.061339	-0.958727	0.141314
N128	N	0.438661	-0.458727	0.641314
C129	C	0.259490	-0.383527	0.091902
C130	C	0.759490	0.116473	0.591902
N131	N	0.313414	-0.408332	0.128257
N132	N	0.813414	0.091668	0.628257
C133	C	0.293475	-0.003955	-0.000275
C134	C	0.793475	0.496045	0.499725
N135	N	0.362533	0.032829	-0.000277
N136	N	0.862533	0.532829	0.499723
C137	C	0.256528	-0.231381	0.091874
C138	C	0.756528	0.268619	0.591874
N139	N	0.309284	-0.196156	0.128214
N140	N	0.809284	0.303844	0.628214
C141	C	-0.009228	-0.919700	0.660052
C142	C	0.490772	-0.419700	1.160052
N143	N	-0.061326	-0.958767	0.627398
N144	N	0.438674	-0.458767	1.127398
C145	C	-0.047880	-0.637360	-0.000150
C146	C	0.452120	-0.137360	0.499850
N147	N	-0.116936	-0.674146	-0.000144
N148	N	0.383064	-0.174146	0.499856
C149	C	-0.009221	-0.919681	0.339442
C150	C	0.490779	-0.419681	0.839442
N151	N	-0.061298	-0.958764	0.372072
N152	N	0.438702	-0.458764	0.872072
H153	H	0.004711	-0.266348	-0.079822
H154	H	0.504711	0.233652	0.420178
C155	C	-0.059538	-0.038294	-0.000273
C156	C	0.440462	0.461706	0.499727
N157	N	-0.129760	-0.015052	-0.000278
N158	N	0.370240	0.484948	0.499722
H159	H	0.236850	-0.735073	0.185288
H160	H	0.736850	-0.235073	0.685288
C161	C	-0.010928	-0.409931	-0.092331
C162	C	0.489072	0.090069	0.407669
N163	N	-0.063685	-0.445150	-0.128675
N164	N	0.436315	0.054850	0.371325
H165	H	0.236854	-0.735093	0.328251
H166	H	0.736854	-0.235093	0.828251
C167	C	-0.056576	-0.190438	-0.000246
C168	C	0.443424	0.309562	0.499754
N169	N	-0.125634	-0.227223	-0.000239
N170	N	0.374366	0.272777	0.499761
H171	H	0.272220	-0.148080	-0.000257
H172	H	0.772220	0.351920	0.499743
H173	H	-0.029646	-0.836996	0.428314
H174	H	0.470354	-0.336996	0.928314
C175	C	-0.050834	-0.485212	-0.000187
C176	C	0.449166	0.014788	0.499813
N177	N	-0.121055	-0.461969	-0.000193
N178	N	0.378945	0.038031	0.499807
H179	H	0.236867	-0.735121	0.671378
H180	H	0.736867	-0.235121	1.171378
H181	H	-0.029641	-0.837003	0.571275
H182	H	0.470359	-0.337003	1.071275
H183	H	0.275253	-0.804336	0.571244
H184	H	0.775253	-0.304336	1.071244
C185	C	0.299263	-0.801748	0.417030
C186	C	0.799263	-0.301748	0.917030
N187	N	0.368884	-0.794288	0.384384
N188	N	0.868884	-0.294288	0.884384
