data_functionalizedCrystal
_audit_creation_method	'MofGen! by Chris Wilmer'
_symmetry_space_group_name_H-M	'P1'
_symmetry_Int_Tables_number	1
_symmetry_cell_setting	triclinic
loop_
_symmetry_equiv_pos_as_xyz
  x,y,z
_cell_length_a	13.101039
_cell_length_b	14.044220
_cell_length_c	14.044220
_cell_angle_alpha	93.188878
_cell_angle_beta	93.673600
_cell_angle_gamma	86.328313
loop_
_atom_site_label
_atom_site_type_symbol
_atom_site_fract_x
_atom_site_fract_y
_atom_site_fract_z
O1	O	-0.085111	-1.272352	-0.234979
O2	O	0.414889	-0.772352	0.265021
O3	O	-0.085137	-0.995679	-0.226675
O4	O	0.414863	-0.495679	0.273325
O5	O	-0.085114	-1.129863	-0.092490
O6	O	0.414886	-0.629863	0.407510
O7	O	-0.085133	-1.138168	-0.369163
O8	O	0.414867	-0.638168	0.130837
O9	O	0.085318	-1.139494	-0.082850
O10	O	0.585318	-0.639494	0.417150
O11	O	0.085295	-1.005310	-0.217035
O12	O	0.585295	-0.505310	0.282965
O13	O	0.085321	-1.281983	-0.225339
O14	O	0.585321	-0.781983	0.274661
Zn15	Zn	0.112367	-1.145176	-0.219656
Zn16	Zn	0.612367	-0.645176	0.280344
Zn17	Zn	-0.112183	-1.132486	-0.232357
Zn18	Zn	0.387817	-0.632486	0.267643
O19	O	0.085298	-1.147799	-0.359523
O20	O	0.585298	-0.647799	0.140477
C21	C	0.000076	-0.964872	-0.218219
C22	C	0.500076	-0.464872	0.281781
C23	C	0.000066	-0.858729	-0.207375
C24	C	0.500066	-0.358729	0.292625
N25	N	-0.265433	-1.123826	-0.241019
N26	N	0.234567	-0.623826	0.258981
C27	C	0.000106	-1.312789	-0.233794
C28	C	0.500106	-0.812789	0.266206
C29	C	0.000109	-1.418932	-0.244639
C30	C	0.500109	-0.918932	0.255361
C31	C	-0.474478	-1.112035	-0.252802
C32	C	0.025522	-0.612035	0.247198
C33	C	-0.525345	-1.165631	-0.199207
C34	C	-0.025345	-0.665631	0.300793
C35	C	-0.641664	-1.159070	-0.205764
C36	C	-0.141664	-0.659070	0.294236
C37	C	-0.358148	-1.118595	-0.246247
C38	C	0.141852	-0.618595	0.253753
N39	N	0.265617	-1.153843	-0.210988
N40	N	0.765617	-0.653843	0.289012
C41	C	0.000102	-1.131043	-0.052049
C42	C	0.500102	-0.631043	0.447951
C43	C	0.000102	-1.120198	0.054094
C44	C	0.500102	-0.620198	0.554094
C45	C	0.000088	-0.664393	-0.187548
C46	C	0.500088	-0.164393	0.312452
C47	C	0.000087	-0.613263	-0.264462
C48	C	0.500087	-0.113263	0.235538
C49	C	0.000099	-0.505127	-0.253430
C50	C	0.500099	-0.005127	0.246570
C51	C	0.000076	-0.772538	-0.198578
C52	C	0.500076	-0.272538	0.301422
C53	C	0.000080	-1.146619	-0.399965
C54	C	0.500080	-0.646619	0.100035
C55	C	0.000073	-1.157463	-0.506108
C56	C	0.500073	-0.657463	-0.006108
C57	C	0.000086	-1.100371	0.248431
C58	C	0.500086	-0.600371	0.748431
C59	C	0.000090	-1.177286	0.299561
C60	C	0.500090	-0.677286	0.799561
C61	C	0.000080	-1.166254	0.407697
C62	C	0.500080	-0.666254	0.907697
C63	C	0.000095	-1.111402	0.140285
C64	C	0.500095	-0.611402	0.640285
H65	H	-0.481534	-1.216442	-0.148399
H66	H	0.018466	-0.716442	0.351601
N67	N	-0.532498	-1.044728	-0.320097
N68	N	-0.032498	-0.544728	0.179903
H69	H	-0.608572	-1.049523	-0.315295
H70	H	-0.108572	-0.549523	0.184705
H71	H	-0.513815	-0.977104	-0.302278
H72	H	-0.013815	-0.477104	0.197722
N73	N	0.000121	-1.275491	0.249985
N74	N	0.500121	-0.775491	0.749985
H75	H	-0.063051	-1.307793	0.265460
H76	H	0.436949	-0.807793	0.765460
H77	H	0.000169	-1.269483	0.178660
H78	H	0.500169	-0.769483	0.678660
H79	H	0.000099	-0.626956	-0.113419
H80	H	0.500099	-0.126956	0.386581
N81	N	0.000075	-1.002176	0.298012
N82	N	0.500075	-0.502176	0.798012
H83	H	0.000073	-1.008117	0.369352
H84	H	0.500073	-0.508117	0.869352
H85	H	0.063258	-0.969940	0.282462
H86	H	0.563258	-0.469940	0.782462
H87	H	0.000077	-0.650701	-0.338596
H88	H	0.500077	-0.150701	0.161404
