data_functionalizedCrystal
_audit_creation_method	'MofGen! by Chris Wilmer'
_symmetry_space_group_name_H-M	'P1'
_symmetry_Int_Tables_number	1
_symmetry_cell_setting	triclinic
loop_
_symmetry_equiv_pos_as_xyz
  x,y,z
_cell_length_a	19.288840
_cell_length_b	16.109301
_cell_length_c	18.366186
_cell_angle_alpha	89.992337
_cell_angle_beta	89.983729
_cell_angle_gamma	83.293748
loop_
_atom_site_label
_atom_site_type_symbol
_atom_site_fract_x
_atom_site_fract_y
_atom_site_fract_z
O1	O	0.921611	0.103617	-0.060674
O2	O	1.254945	0.436950	0.272660
O3	O	1.588278	0.770283	0.605993
O4	O	0.719382	0.117629	-0.060649
O5	O	1.052715	0.450963	0.272685
O6	O	1.386048	0.784296	0.606018
O7	O	0.826052	-0.010428	-0.060654
O8	O	1.159385	0.322906	0.272679
O9	O	1.492718	0.656239	0.606012
O10	O	0.814941	0.231674	-0.060668
O11	O	1.148274	0.565007	0.272665
O12	O	1.481608	0.898340	0.605999
O13	O	0.826034	-0.010434	0.060445
O14	O	1.159367	0.322900	0.393778
O15	O	1.492700	0.656233	0.727112
O16	O	0.719363	0.117623	0.060451
O17	O	1.052697	0.450957	0.393784
O18	O	1.386030	0.784290	0.727117
O19	O	0.921593	0.103610	0.060426
O20	O	1.254926	0.436944	0.393759
O21	O	1.588260	0.770277	0.727092
Zn22	Zn	0.820475	0.110616	0.079665
Zn23	Zn	1.153809	0.443949	0.412999
Zn24	Zn	1.487142	0.777283	0.746332
Zn25	Zn	0.820499	0.110624	-0.079888
Zn26	Zn	1.153833	0.443957	0.253445
Zn27	Zn	1.487166	0.777291	0.586778
O28	O	0.814923	0.231667	0.060432
O29	O	1.148256	0.565001	0.393765
O30	O	1.481589	0.898334	0.727098
C31	C	0.693495	0.117179	-0.000096
C32	C	1.026828	0.450512	0.333238
C33	C	1.360161	0.783846	0.666571
C34	C	0.616387	0.115836	-0.000086
C35	C	0.949720	0.449169	0.333247
C36	C	1.283054	0.782503	0.666581
C37	C	0.580192	0.115194	-0.066099
C38	C	0.913525	0.448527	0.267234
C39	C	1.246858	0.781861	0.600568
C40	C	0.507742	0.113923	-0.066108
C41	C	0.841075	0.447256	0.267225
C42	C	1.174409	0.780590	0.600559
C43	C	0.471492	0.113277	-0.000100
C44	C	0.804825	0.446610	0.333233
C45	C	1.138158	0.779943	0.666567
C46	C	0.507695	0.113923	0.065922
C47	C	0.841028	0.447257	0.399255
C48	C	1.174362	0.780590	0.732589
C49	C	0.580143	0.115203	0.065929
C50	C	0.913476	0.448536	0.399262
C51	C	1.246809	0.781870	0.732596
C52	C	0.362035	0.062549	0.050464
C53	C	0.695369	0.395883	0.383798
C54	C	1.028702	0.729216	0.717131
C55	C	0.289590	0.061264	0.050455
C56	C	0.622923	0.394598	0.383788
C57	C	0.956256	0.727931	0.717121
C58	C	0.248039	0.109334	-0.000119
C59	C	0.581372	0.442667	0.333215
C60	C	0.914705	0.776000	0.666548
C61	C	0.278944	0.158677	-0.050694
C62	C	0.612277	0.492011	0.282639
C63	C	0.945610	0.825344	0.615972
C64	C	0.351391	0.159957	-0.050687
C65	C	0.684724	0.493290	0.282646
C66	C	1.018058	0.826623	0.615979
C67	C	0.392934	0.111890	-0.000100
C68	C	0.726268	0.445223	0.333233
C69	C	1.059601	0.778556	0.666567
C70	C	0.133285	0.107315	-0.066146
C71	C	0.466618	0.440648	0.267187
C72	C	0.799951	0.773981	0.600521
C73	C	0.060833	0.106049	-0.066152
C74	C	0.394166	0.439382	0.267181
C75	C	0.727500	0.772715	0.600515
C76	C	0.060789	0.106041	0.065880
C77	C	0.394122	0.439374	0.399213
C78	C	0.727455	0.772707	0.732546
C79	C	0.133238	0.107315	0.065884
C80	C	0.466571	0.440649	0.399217
C81	C	0.799905	0.773982	0.732551
C82	C	0.169482	0.107948	-0.000131
C83	C	0.502816	0.441282	0.333202
C84	C	0.836149	0.774615	0.666536
C85	C	0.825593	-0.041404	-0.000104
C86	C	1.158926	0.291929	0.333229
C87	C	1.492259	0.625263	0.666562
C88	C	0.824243	-0.133694	-0.000103
C89	C	1.157577	0.199639	0.333230
C90	C	1.490910	0.532972	0.666564
C91	C	0.884402	-0.356179	-0.000122
C92	C	1.217735	-0.022846	0.333211
C93	C	1.551069	0.310488	0.666545
C94	C	0.883129	-0.442895	-0.000128
C95	C	1.216462	-0.109562	0.333205
C96	C	1.549795	0.223772	0.666539
C97	C	0.756568	-0.422574	-0.000109
C98	C	1.089901	-0.089241	0.333224
C99	C	1.423235	0.244093	0.666557
C100	C	0.757842	-0.335860	-0.000109
C101	C	1.091175	-0.002527	0.333225
C102	C	1.424509	0.330807	0.666558
C103	C	0.821761	-0.302665	-0.000111
C104	C	1.155094	0.030668	0.333222
C105	C	1.488428	0.364002	0.666555
C106	C	0.819214	-0.476095	-0.000118
C107	C	1.152547	-0.142762	0.333215
C108	C	1.485880	0.190572	0.666549
C109	C	0.817833	-0.570116	-0.000124
C110	C	1.151166	-0.236783	0.333209
C111	C	1.484499	0.096550	0.666543
C112	C	0.823142	-0.208638	-0.000106
C113	C	1.156476	0.124695	0.333227
C114	C	1.489809	0.458029	0.666560
C115	C	0.947480	0.104061	-0.000129
C116	C	1.280813	0.437394	0.333205
C117	C	1.614147	0.770728	0.666538
C118	C	1.024588	0.105404	-0.000143
C119	C	1.357921	0.438737	0.333190
C120	C	1.691254	0.772071	0.666523
N121	N	0.820464	0.110610	0.188557
N122	N	1.153797	0.443943	0.521890
N123	N	1.487131	0.777276	0.855223
C124	C	0.815382	0.262644	-0.000120
C125	C	1.148715	0.595977	0.333213
C126	C	1.482049	0.929310	0.666547
C127	C	0.816731	0.354934	-0.000126
C128	C	1.150065	0.688268	0.333207
C129	C	1.483398	1.021601	0.666541
N130	N	0.820516	0.110624	-0.188779
N131	N	1.153849	0.443957	0.144554
N132	N	1.487183	0.777290	0.477887
C133	C	0.867713	0.053934	0.226654
C134	C	1.201047	0.387267	0.559988
C135	C	1.534380	0.720600	0.893321
C136	C	0.867718	0.053930	0.302882
C137	C	1.201051	0.387263	0.636216
C138	C	1.534384	0.720597	0.969549
C139	C	0.820480	0.110617	0.341009
C140	C	1.153813	0.443950	0.674343
C141	C	1.487146	0.777283	1.007676
C142	C	0.773222	0.167297	0.302902
C143	C	1.106555	0.500630	0.636236
C144	C	1.439888	0.833963	0.969569
C145	C	0.773214	0.167293	0.226676
C146	C	1.106547	0.500627	0.560009
C147	C	1.439881	0.833960	0.893343
C148	C	0.811362	0.186371	0.461766
C149	C	1.144695	0.519705	0.795099
C150	C	1.478029	0.853038	1.128433
C151	C	0.811375	0.186376	0.537991
C152	C	1.144708	0.519709	0.871324
C153	C	1.478041	0.853042	1.204658
C154	C	0.820499	0.110627	0.576117
C155	C	1.153833	0.443960	0.909450
C156	C	1.487166	0.777294	1.242783
C157	C	0.829626	0.034870	0.538008
C158	C	1.162960	0.368204	0.871342
C159	C	1.496293	0.701537	1.204675
C160	C	0.829618	0.034867	0.461782
C161	C	1.162952	0.368200	0.795115
C162	C	1.496285	0.701534	1.128449
C163	C	0.820482	0.110626	0.423664
C164	C	1.153816	0.443960	0.756997
C165	C	1.487149	0.777293	1.090331
C166	C	0.867756	0.053942	0.696870
C167	C	1.201089	0.387276	1.030203
C168	C	1.534422	0.720609	1.363536
C169	C	0.867755	0.053938	0.773099
C170	C	1.201089	0.387271	1.106432
C171	C	1.534422	0.720604	1.439765
C172	C	0.773263	0.167311	0.773117
C173	C	1.106596	0.500645	1.106451
C174	C	1.439929	0.833978	1.439784
C175	C	0.773260	0.167309	0.696890
C176	C	1.106593	0.500642	1.030223
C177	C	1.439926	0.833976	1.363556
C178	C	0.820510	0.110625	0.658770
C179	C	1.153843	0.443959	0.992104
C180	C	1.487177	0.777292	1.325437
H181	H	0.031364	0.105531	-0.119910
H182	H	0.364697	0.438865	0.213423
H183	H	0.698030	0.772198	0.546757
H184	H	0.803948	0.248061	0.569013
H185	H	1.137281	0.581394	0.902347
H186	H	1.470614	0.914728	1.235680
Cl187	Cl	0.676217	-0.464311	-0.000106
Cl188	Cl	1.009551	-0.130978	0.333228
Cl189	Cl	1.342884	0.202355	0.666561
H190	H	0.706829	-0.292286	-0.000102
H191	H	1.040162	0.041047	0.333231
H192	H	1.373496	0.374381	0.666564
H193	H	0.934137	-0.486463	-0.000138
H194	H	1.267471	-0.153130	0.333195
H195	H	1.600804	0.180203	0.666529
Cl196	Cl	0.799955	0.281610	0.413845
Cl197	Cl	1.133288	0.614943	0.747178
Cl198	Cl	1.466622	0.948277	1.080511
H199	H	0.478175	0.113399	0.119666
H200	H	0.811509	0.446733	0.452999
H201	H	1.144842	0.780066	0.786333
Cl202	Cl	0.015223	0.105237	0.148862
Cl203	Cl	0.348556	0.438570	0.482196
Cl204	Cl	0.681890	0.771904	0.815529
H205	H	0.936449	-0.329155	-0.000126
H206	H	1.269782	0.004178	0.333208
H207	H	1.603115	0.337512	0.666541
H208	H	0.906185	0.007777	0.195620
H209	H	1.239519	0.341110	0.528953
H210	H	1.572852	0.674443	0.862287
Cl211	Cl	0.927123	-0.017325	0.350785
Cl212	Cl	1.260456	0.316008	0.684118
Cl213	Cl	1.593789	0.649341	1.017451
H214	H	0.837048	-0.026817	0.430757
H215	H	1.170381	0.306517	0.764090
H216	H	1.503715	0.639850	1.097424
Cl217	Cl	0.462230	0.113115	-0.149102
Cl218	Cl	0.795563	0.446448	0.184231
Cl219	Cl	1.128896	0.779782	0.517565
Cl220	Cl	0.178744	0.108117	0.148877
Cl221	Cl	0.512077	0.441450	0.482210
Cl222	Cl	0.845410	0.774784	0.815544
H223	H	0.837056	-0.026812	0.569049
H224	H	1.170389	0.306522	0.902382
H225	H	1.503723	0.639855	1.235715
Cl226	Cl	0.713811	0.238550	0.178778
Cl227	Cl	1.047144	0.571883	0.512112
Cl228	Cl	1.380478	0.905216	0.845445
H229	H	0.906228	0.007784	0.665832
H230	H	1.239561	0.341118	0.999165
H231	H	1.572894	0.674451	1.332498
H232	H	0.609612	0.115726	0.119686
H233	H	0.942946	0.449060	0.453020
H234	H	1.276279	0.782393	0.786353
H235	H	0.734759	0.213450	0.333949
H236	H	1.068092	0.546784	0.667282
H237	H	1.401425	0.880117	1.000616
H238	H	0.395861	0.023403	0.091650
H239	H	0.729194	0.356736	0.424984
H240	H	1.062528	0.690070	0.758317
H241	H	0.906229	0.007781	0.804119
H242	H	1.239562	0.341114	1.137452
H243	H	1.572896	0.674447	1.470785
H244	H	0.245113	0.197823	-0.091873
H245	H	0.578447	0.531157	0.241460
H246	H	0.911780	0.864490	0.574793
H247	H	0.734798	0.213463	0.804160
H248	H	1.068131	0.546797	1.137493
H249	H	1.401465	0.880130	1.470826
H250	H	0.734788	0.213463	0.665868
H251	H	1.068121	0.546797	0.999202
H252	H	1.401455	0.880130	1.332535
H253	H	0.609697	0.115710	-0.119854
H254	H	0.943031	0.449043	0.213480
H255	H	1.276364	0.782376	0.546813
Cl256	Cl	0.250743	-0.000746	0.114049
Cl257	Cl	0.584076	0.332587	0.447382
Cl258	Cl	0.917410	0.665921	0.780716
H259	H	0.162795	0.107839	-0.119899
H260	H	0.496129	0.441172	0.213434
H261	H	0.829462	0.774506	0.546768
Cl262	Cl	0.390241	0.221989	-0.114262
Cl263	Cl	0.723574	0.555323	0.219072
Cl264	Cl	1.056907	0.888656	0.552405
