data_functionalizedCrystal
_audit_creation_method	'MofGen! by Chris Wilmer'
_symmetry_space_group_name_H-M	'P1'
_symmetry_Int_Tables_number	1
_symmetry_cell_setting	triclinic
loop_
_symmetry_equiv_pos_as_xyz
  x,y,z
_cell_length_a	6.817900
_cell_length_b	15.300912
_cell_length_c	18.024673
_cell_angle_alpha	84.703167
_cell_angle_beta	76.961240
_cell_angle_gamma	104.173621
loop_
_atom_site_label
_atom_site_type_symbol
_atom_site_fract_x
_atom_site_fract_y
_atom_site_fract_z
V1	V	-4.025142	-0.125599	0.237781
O2	O	-4.009137	0.005171	0.233016
O3	O	-3.980083	-0.248211	0.236383
O4	O	-3.974478	-0.124046	0.341380
O5	O	-4.014781	-0.119853	0.127292
V6	V	-4.508630	-0.109913	0.224537
O7	O	-4.286476	-0.160009	0.266830
O8	O	-4.697493	-0.075503	0.195488
O9	O	-4.330483	0.012699	0.225935
O10	O	-4.642032	-0.240683	0.229302
O11	O	-4.636388	-0.115659	0.335026
O12	O	-4.336088	-0.111465	0.120937
C13	C	-3.825970	-0.278089	0.232691
C14	C	-3.870401	-0.378328	0.232239
C15	C	-4.244021	-0.814699	0.234103
C16	C	-4.202255	-0.720513	0.234523
C17	C	-3.999216	-0.668820	0.230927
C18	C	-3.837927	-0.711316	0.226903
C19	C	-3.879692	-0.805500	0.226478
C20	C	-3.750892	-0.515008	0.227791
C21	C	-3.709125	-0.420818	0.228218
C22	C	-4.073456	-0.430021	0.235836
C23	C	-4.115220	-0.524205	0.235411
C24	C	-3.953929	-0.566695	0.231389
C25	C	-3.818819	-0.119704	0.366625
C26	C	-3.858701	-0.119246	0.451320
C27	C	-4.059590	-0.123549	0.494999
C28	C	-4.097052	-0.123118	0.574579
C29	C	-3.933624	-0.118390	0.610478
C30	C	-3.732717	-0.114084	0.566793
C31	C	-3.695255	-0.114508	0.487214
C32	C	-3.883792	-0.112370	0.887726
C33	C	-3.921272	-0.111948	0.967311
C34	C	-4.285589	-0.120979	0.975091
C35	C	-4.248127	-0.121404	0.895512
C36	C	-4.047222	-0.117093	0.851832
C37	C	-4.006603	-0.117559	0.765543
C38	C	-3.974243	-0.117931	0.696767
C39	C	-4.147938	0.042572	0.229625
C40	C	-4.082746	0.142810	0.230082
C41	C	-4.162053	-0.115806	1.095689
C42	C	-4.122161	-0.116245	1.010991
H43	H	-4.280553	-0.566292	0.238344
F44	F	-3.579225	-0.560228	0.223512
F45	F	-4.373900	-0.675292	0.238783
F46	F	-4.499413	-0.125564	1.021584
F47	F	-3.747318	-0.106915	1.005516
F48	F	-3.493029	-0.365805	0.224391
F49	F	-3.621829	-0.656296	0.223066
F50	F	-3.708038	-0.850721	0.222197
H51	H	-3.720225	-0.108892	0.852175
F52	F	-4.233543	-0.128587	0.456801
H53	H	-4.260630	-0.126617	0.610139
F54	F	-3.558785	-0.109051	0.605001
H55	H	-4.381212	-0.125258	0.866288
H56	H	-4.409357	-0.856782	0.237036
H57	H	-3.531661	-0.110982	0.451647
F58	F	-4.245116	-0.384799	0.240118
