data_functionalizedCrystal
_audit_creation_method	'MofGen! by Chris Wilmer'
_symmetry_space_group_name_H-M	'P1'
_symmetry_Int_Tables_number	1
_symmetry_cell_setting	triclinic
loop_
_symmetry_equiv_pos_as_xyz
  x,y,z
_cell_length_a	10.654559
_cell_length_b	10.268362
_cell_length_c	10.654550
_cell_angle_alpha	90.004111
_cell_angle_beta	95.513237
_cell_angle_gamma	89.996318
loop_
_atom_site_label
_atom_site_type_symbol
_atom_site_fract_x
_atom_site_fract_y
_atom_site_fract_z
O1	O	-1.667835	0.108270	0.176454
O2	O	-1.302358	0.108278	0.193248
O3	O	-1.493499	0.108269	0.002112
O4	O	-1.476693	0.108279	0.367590
O5	O	-1.493482	-0.108331	0.002104
O6	O	-1.302341	-0.108322	0.193240
O7	O	-1.667818	-0.108330	0.176446
Cu8	Cu	-1.485078	-0.128104	0.184842
Cu9	Cu	-1.485098	0.128052	0.184852
O10	O	-1.476676	-0.108321	0.367582
C11	C	-1.255551	-0.000021	0.192009
C12	C	-1.116109	-0.000018	0.188312
C13	C	-0.919579	0.118052	0.183121
C14	C	-1.050602	0.118053	0.186583
C15	C	-1.050588	-0.118097	0.186567
C16	C	-0.919568	-0.118096	0.183096
C17	C	-0.854078	0.236131	0.181404
C18	C	-0.919590	0.354210	0.183146
C19	C	-1.050613	0.354211	0.186608
C20	C	-1.116123	0.236132	0.188328
N21	N	-1.485073	-0.308269	0.184835
C22	C	-1.485091	-0.573940	0.184849
C23	C	-1.485077	-0.426102	0.184845
C24	C	-0.714624	-0.000027	0.177685
C25	C	-0.854067	-0.000018	0.181379
C26	C	-1.492257	-0.000029	-0.044690
C27	C	-1.488565	-0.000025	-0.184133
N28	N	-1.485112	0.308218	0.184849
C29	C	-1.601106	-0.000031	-0.263615
C30	C	-1.597629	-0.000022	-0.394636
C31	C	-1.369061	-0.000005	-0.366680
C32	C	-1.372539	-0.000005	-0.235662
C33	C	-1.717132	-0.000051	-0.212087
C34	C	-1.829682	-0.000058	-0.291570
C35	C	-1.826206	-0.000049	-0.422591
C36	C	-1.710179	-0.000032	-0.474129
C37	C	-1.477919	-0.000020	0.414384
C38	C	-1.481610	-0.000016	0.553827
H39	H	-1.103936	-0.214231	0.187969
O40	O	-0.856161	0.469022	0.181427
C41	C	-0.942081	0.573234	0.183736
H42	H	-1.040323	0.538621	0.146507
H43	H	-0.911665	0.655817	0.121879
H44	H	-0.943730	0.609535	0.284686
H45	H	-1.917850	-0.000042	-0.487303
H46	H	-1.103951	0.450357	0.188016
O47	O	-1.706959	0.000159	-0.601422
C48	C	-1.768464	0.112357	-0.652843
H49	H	-1.837203	0.149749	-0.585498
H50	H	-1.822315	0.087135	-0.747372
H51	H	-1.695610	0.190913	-0.667240
O52	O	-1.256330	0.000232	-0.416682
C53	C	-1.187650	0.112398	-0.376136
H54	H	-1.255479	0.190804	-0.348291
H55	H	-1.133531	0.150053	-0.455960
H56	H	-1.118405	0.087040	-0.291374
O57	O	-0.855764	-0.232706	0.181576
C58	C	-0.766724	-0.239780	0.288163
H59	H	-0.742680	-0.137263	0.323845
H60	H	-0.677572	-0.289749	0.261300
H61	H	-0.807918	-0.298047	0.365529
H62	H	-1.280898	-0.000002	-0.170945
O63	O	-1.243396	0.236364	0.191720
C64	C	-1.287183	0.365897	0.192836
H65	H	-1.206841	0.432761	0.230552
H66	H	-1.367418	0.373073	0.255996
H67	H	-1.322697	0.396601	0.092865
H68	H	-0.747392	0.236144	0.178589
O69	O	-1.720737	0.000001	-0.084843
C70	C	-1.847272	-0.000053	-0.056401
H71	H	-1.909993	0.040951	-0.139813
H72	H	-1.856552	0.062823	0.030410
H73	H	-1.877592	-0.103974	-0.036801
O74	O	-1.942462	-0.000240	-0.241661
C75	C	-2.011115	-0.112435	-0.282168
H76	H	-1.976090	-0.149830	-0.373324
H77	H	-2.115546	-0.087205	-0.299437
H78	H	-1.997227	-0.190990	-0.206499
