data_functionalizedCrystal
_audit_creation_method	'MofGen! by Chris Wilmer'
_symmetry_space_group_name_H-M	'P1'
_symmetry_Int_Tables_number	1
_symmetry_cell_setting	triclinic
loop_
_symmetry_equiv_pos_as_xyz
  x,y,z
_cell_length_a	16.959455
_cell_length_b	16.959454
_cell_length_c	10.686551
_cell_angle_alpha	85.595422
_cell_angle_beta	85.603624
_cell_angle_gamma	90.019503
loop_
_atom_site_label
_atom_site_type_symbol
_atom_site_fract_x
_atom_site_fract_y
_atom_site_fract_z
Zn1	Zn	1.242745	-0.280347	-0.713498
Zn2	Zn	1.232506	-0.422692	-0.502499
Zn3	Zn	1.100412	-0.290529	-0.502510
Zn4	Zn	1.110535	-0.412488	-0.713446
O5	O	1.171550	-0.351514	-0.607988
O6	O	1.351998	-0.299238	-0.685525
O7	O	1.206462	-0.413692	-0.325919
O8	O	1.119341	-0.178566	-0.530524
O9	O	1.344476	-0.403818	-0.530505
O10	O	1.223912	-0.171085	-0.685536
O11	O	1.109413	-0.316593	-0.325927
O12	O	0.991143	-0.306699	-0.530474
O13	O	1.136595	-0.386428	-0.890034
O14	O	0.998581	-0.396302	-0.685447
O15	O	1.233728	-0.289344	-0.890072
O16	O	1.216278	-0.531950	-0.530455
O17	O	1.126666	-0.524454	-0.685437
C18	C	0.966182	-0.351498	-0.607957
C19	C	0.878326	-0.351509	-0.607973
C20	C	1.171482	-0.556881	-0.607966
C21	C	1.171528	-0.644736	-0.607999
C22	C	0.833128	-0.405893	-0.527147
C23	C	0.840971	-0.297131	-0.688810
C24	C	0.758426	-0.297137	-0.688825
C25	C	0.713228	-0.351520	-0.607998
C26	C	0.750575	-0.405899	-0.527157
C27	C	0.721072	-0.242755	-0.769656
C28	C	0.638522	-0.242757	-0.769674
C29	C	0.593323	-0.297145	-0.688852
C30	C	0.630675	-0.351526	-0.608008
C31	C	0.585477	-0.405910	-0.527182
C32	C	0.622828	-0.460295	-0.446343
C33	C	0.705376	-0.460287	-0.446335
C34	C	0.510774	-0.297154	-0.688860
C35	C	0.502924	-0.405915	-0.527192
C36	C	1.124962	-1.012340	-0.688678
C37	C	1.218363	-1.020079	-0.527426
C38	C	1.218335	-0.937534	-0.527414
C39	C	1.171619	-0.892388	-0.608035
C40	C	1.124930	-0.929787	-0.688666
C41	C	1.265017	-0.900129	-0.446775
C42	C	1.264990	-0.817579	-0.446759
C43	C	1.218277	-0.772431	-0.527387
C44	C	1.171587	-0.809835	-0.608023
C45	C	1.124871	-0.764688	-0.688643
C46	C	1.078185	-0.802090	-0.769287
C47	C	1.078218	-0.884638	-0.769294
C48	C	1.218244	-0.689883	-0.527379
C49	C	1.124839	-0.682135	-0.688631
C50	C	1.377719	-0.351530	-0.608020
C51	C	1.465576	-0.351537	-0.608033
C52	C	1.187433	-0.335612	-0.937119
C53	C	1.194201	-0.328835	-1.077375
C54	C	1.171640	-0.145344	-0.608037
C55	C	1.171678	-0.057486	-0.608058
C56	C	1.155773	-0.367297	-0.280137
C57	C	1.149158	-0.373851	-0.139882
H58	H	0.466129	-0.450205	-0.461377
H59	H	1.105419	-0.417578	-1.086097
O60	O	1.079530	-0.638163	-0.766908
C61	C	1.038045	-0.507565	-0.838299
C62	C	1.089407	-0.557266	-0.749609
H63	H	1.046000	-0.442151	-0.824325
H64	H	1.056796	-0.518790	-0.940099
H65	H	0.973262	-0.524969	-0.816067
H66	H	1.154203	-0.539891	-0.771727
H67	H	1.070589	-0.546036	-0.647836
H68	H	1.256251	-0.659434	-0.461714
O69	O	0.741755	-0.513137	-0.367985
C70	C	0.834069	-0.620686	-0.350719
C71	C	0.792935	-0.560868	-0.439593
H72	H	0.875444	-0.659304	-0.408580
H73	H	0.869590	-0.587552	-0.284852
H74	H	0.787574	-0.659526	-0.292921
H75	H	0.839376	-0.522013	-0.497473
H76	H	0.757397	-0.594052	-0.505377
O77	O	0.884993	-0.244381	-0.767277
C78	C	1.015639	-0.196136	-0.838844
C79	C	0.965877	-0.255933	-0.749932
H80	H	1.081043	-0.205445	-0.824833
H81	H	1.004389	-0.205199	-0.940588
H82	H	0.998313	-0.133452	-0.816870
H83	H	0.983174	-0.318642	-0.771792
H84	H	0.977132	-0.246801	-0.648214
O85	O	1.263839	-1.063857	-0.449175
C86	C	1.395376	-1.092070	-0.388147
C87	C	1.343971	-1.042413	-0.476828
H88	H	1.460174	-1.074763	-0.410490
H89	H	1.376690	-1.080772	-0.286353
H90	H	1.387315	-1.157486	-0.402002
H91	H	1.352006	-0.976981	-0.463084
H92	H	1.362669	-1.053777	-0.578589
H93	H	1.237949	-0.285112	-1.131166
O94	O	0.765020	-0.190038	-0.848296
C95	C	0.866506	-0.171337	-1.018618
C96	C	0.816767	-0.231123	-0.929653
H97	H	0.908367	-0.204531	-1.084399
H98	H	0.825678	-0.132474	-1.076490
H99	H	0.902335	-0.132736	-0.960755
H100	H	0.780932	-0.269776	-0.987418
H101	H	0.857638	-0.269931	-0.871777
O102	O	1.079707	-1.048623	-0.767192
C103	C	1.051565	-1.063463	-0.981785
C104	C	1.102884	-1.022329	-0.893013
H105	H	1.070274	-1.042207	-1.083528
H106	H	1.059620	-1.130221	-0.968063
H107	H	0.986762	-1.048371	-0.959466
H108	H	1.167706	-1.037357	-0.915277
H109	H	1.094761	-0.955581	-0.906751
H110	H	0.586016	-0.504571	-0.380529
H111	H	1.040144	-0.765323	-0.834923
H112	H	0.863543	-0.450174	-0.461333
H113	H	0.480367	-0.252869	-0.754668
H114	H	1.040208	-0.915099	-0.834948
O115	O	0.602371	-0.189904	-0.848322
C116	C	0.618867	-0.081996	-1.008620
C117	C	0.659911	-0.141819	-0.919634
H118	H	0.665368	-0.043093	-1.066281
H119	H	0.583427	-0.115127	-1.074599
H120	H	0.577408	-0.043443	-0.950784
H121	H	0.701408	-0.180387	-0.977369
H122	H	0.695301	-0.108639	-0.853653
O123	O	1.310473	-0.943929	-0.368523
C124	C	1.441986	-0.972209	-0.307444
C125	C	1.390616	-0.922511	-0.396127
H126	H	1.506793	-0.954923	-0.329747
H127	H	1.423288	-0.960928	-0.205648
H128	H	1.433906	-1.037616	-0.321340
H129	H	1.398671	-0.857088	-0.382343
H130	H	1.409326	-0.933859	-0.497890
H131	H	1.303004	-0.787132	-0.381097
