data_functionalizedCrystal
_audit_creation_method	'MofGen! by Chris Wilmer'
_symmetry_space_group_name_H-M	'P1'
_symmetry_Int_Tables_number	1
_symmetry_cell_setting	triclinic
loop_
_symmetry_equiv_pos_as_xyz
  x,y,z
_cell_length_a	17.699083
_cell_length_b	12.996460
_cell_length_c	17.699083
_cell_angle_alpha	89.992964
_cell_angle_beta	96.716985
_cell_angle_gamma	89.999557
loop_
_atom_site_label
_atom_site_type_symbol
_atom_site_fract_x
_atom_site_fract_y
_atom_site_fract_z
O1	O	1.004077	0.085425	-0.095713
O2	O	1.254077	0.335425	0.154287
O3	O	1.504077	0.585425	0.404287
O4	O	1.754077	0.835425	0.654287
O5	O	0.783698	0.085459	-0.108165
O6	O	1.033698	0.335459	0.141835
O7	O	1.283698	0.585459	0.391835
O8	O	1.533698	0.835459	0.641835
O9	O	0.900114	0.085432	0.008250
O10	O	1.150114	0.335432	0.258250
O11	O	1.400114	0.585432	0.508250
O12	O	1.650114	0.835432	0.758250
O13	O	0.887661	0.085452	-0.212128
O14	O	1.137661	0.335452	0.037872
O15	O	1.387661	0.585452	0.287872
O16	O	1.637661	0.835452	0.537872
O17	O	0.900102	-0.085702	0.008257
O18	O	1.150102	0.164298	0.258257
O19	O	1.400102	0.414298	0.508257
O20	O	1.650102	0.664298	0.758257
O21	O	0.783686	-0.085675	-0.108159
O22	O	1.033686	0.164325	0.141841
O23	O	1.283686	0.414325	0.391841
O24	O	1.533686	0.664325	0.641841
O25	O	1.004065	-0.085709	-0.095706
O26	O	1.254065	0.164291	0.154294
O27	O	1.504065	0.414291	0.404294
O28	O	1.754065	0.664291	0.654294
Cu29	Cu	0.893874	-0.101318	-0.101932
Cu30	Cu	1.143874	0.148682	0.148068
Cu31	Cu	1.393874	0.398682	0.398068
Cu32	Cu	1.643874	0.648682	0.648068
Cu33	Cu	0.893889	0.101067	-0.101939
Cu34	Cu	1.143889	0.351067	0.148061
Cu35	Cu	1.393889	0.601067	0.398061
Cu36	Cu	1.643889	0.851067	0.648061
O37	O	0.887649	-0.085682	-0.212122
O38	O	1.137649	0.164318	0.037878
O39	O	1.387649	0.414318	0.287878
O40	O	1.637649	0.664318	0.537878
C41	C	0.755495	-0.000104	-0.107716
C42	C	1.005495	0.249896	0.142284
C43	C	1.255495	0.499896	0.392284
C44	C	1.505495	0.749896	0.642284
C45	C	0.671477	-0.000091	-0.106377
C46	C	0.921477	0.249909	0.143623
C47	C	1.171477	0.499909	0.393623
C48	C	1.421477	0.749909	0.643623
N49	N	0.893870	-0.243665	-0.101926
N50	N	1.143870	0.006335	0.148074
N51	N	1.393870	0.256335	0.398074
N52	N	1.643870	0.506335	0.648074
C53	C	0.622856	-0.000085	-0.174710
C54	C	0.872856	0.249915	0.075290
C55	C	1.122856	0.499915	0.325290
C56	C	1.372856	0.749915	0.575290
C57	C	0.543913	-0.000099	-0.173448
C58	C	0.793913	0.249901	0.076552
C59	C	1.043913	0.499901	0.326552
C60	C	1.293913	0.749901	0.576552
C61	C	0.513592	-0.000111	-0.103852
C62	C	0.763592	0.249889	0.146148
C63	C	1.013592	0.499889	0.396148
C64	C	1.263592	0.749889	0.646148
C65	C	0.562219	-0.000120	-0.035513
C66	C	0.812219	0.249880	0.214487
C67	C	1.062219	0.499880	0.464487
C68	C	1.312219	0.749880	0.714487
C69	C	0.641161	-0.000114	-0.036776
C70	C	0.891161	0.249886	0.213224
C71	C	1.141161	0.499886	0.463224
C72	C	1.391161	0.749886	0.713224
C73	C	0.243856	-0.000146	-0.030418
C74	C	0.493856	0.249854	0.219582
C75	C	0.743856	0.499854	0.469582
C76	C	0.993856	0.749854	0.719582
C77	C	0.164908	-0.000149	-0.029160
C78	C	0.414908	0.249851	0.220840
C79	C	0.664908	0.499851	0.470840
C80	C	0.914908	0.749851	0.720840
C81	C	0.146608	-0.000131	-0.167090
C82	C	0.396608	0.249869	0.082910
C83	C	0.646608	0.499869	0.332910
C84	C	0.896608	0.749869	0.582910
C85	C	0.225550	-0.000125	-0.168353
C86	C	0.475550	0.249875	0.081647
C87	C	0.725550	0.499875	0.331647
C88	C	0.975550	0.749875	0.581647
C89	C	0.274170	-0.000139	-0.100015
C90	C	0.524170	0.249861	0.149985
C91	C	0.774170	0.499861	0.399985
C92	C	1.024170	0.749861	0.649985
C93	C	0.359769	-0.000127	-0.101384
C94	C	0.609769	0.249873	0.148616
C95	C	0.859769	0.499873	0.398616
C96	C	1.109769	0.749873	0.648616
C97	C	0.427995	-0.000116	-0.102481
C98	C	0.677995	0.249884	0.147519
C99	C	0.927995	0.499884	0.397519
C100	C	1.177995	0.749884	0.647519
C101	C	0.893888	-0.663479	-0.101940
C102	C	1.143888	-0.413479	0.148060
C103	C	1.393888	-0.163479	0.398060
C104	C	1.643888	0.086521	0.648060
C105	C	0.893880	-0.546674	-0.101939
C106	C	1.143880	-0.296674	0.148061
C107	C	1.393880	-0.046674	0.398061
C108	C	1.643880	0.203326	0.648061
C109	C	0.893879	-0.453576	-0.101934
C110	C	1.143879	-0.203576	0.148066
C111	C	1.393879	0.046424	0.398066
C112	C	1.643879	0.296424	0.648066
C113	C	0.893871	-0.336763	-0.101931
C114	C	1.143871	-0.086763	0.148069
C115	C	1.393871	0.163237	0.398069
C116	C	1.643871	0.413237	0.648069
C117	C	1.032268	-0.000144	-0.096156
C118	C	1.282268	0.249856	0.153844
C119	C	1.532268	0.499856	0.403844
C120	C	1.782268	0.749856	0.653844
C121	C	1.116286	-0.000150	-0.097494
C122	C	1.366286	0.249850	0.152506
C123	C	1.616286	0.499850	0.402506
C124	C	1.866286	0.749850	0.652506
C125	C	0.899662	-0.000135	0.036451
C126	C	1.149662	0.249865	0.286451
C127	C	1.399662	0.499865	0.536451
C128	C	1.649662	0.749865	0.786451
C129	C	0.898323	-0.000136	0.120469
C130	C	1.148323	0.249864	0.370469
C131	C	1.398323	0.499864	0.620469
C132	C	1.648323	0.749864	0.870469
N133	N	0.893899	0.243415	-0.101939
N134	N	1.143899	0.493415	0.148061
N135	N	1.393899	0.743415	0.398061
N136	N	1.643899	0.993415	0.648061
C137	C	0.888102	-0.000113	-0.240322
C138	C	1.138102	0.249887	0.009678
C139	C	1.388102	0.499887	0.259678
C140	C	1.638102	0.749887	0.509678
C141	C	0.889440	-0.000106	-0.324340
C142	C	1.139440	0.249894	-0.074340
C143	C	1.389440	0.499894	0.175660
C144	C	1.639440	0.749894	0.425660
C145	C	0.966656	-0.000148	0.169090
C146	C	1.216656	0.249852	0.419090
C147	C	1.466656	0.499852	0.669090
C148	C	1.716656	0.749852	0.919090
C149	C	0.965394	-0.000138	0.248033
C150	C	1.215394	0.249862	0.498033
C151	C	1.465394	0.499862	0.748033
C152	C	1.715394	0.749862	0.998033
C153	C	0.895798	-0.000124	0.278354
C154	C	1.145798	0.249876	0.528354
C155	C	1.395798	0.499876	0.778354
C156	C	1.645798	0.749876	1.028354
C157	C	0.827459	-0.000109	0.229727
C158	C	1.077459	0.249891	0.479727
C159	C	1.327459	0.499891	0.729727
C160	C	1.577459	0.749891	0.979727
C161	C	0.828722	-0.000111	0.150785
C162	C	1.078722	0.249889	0.400785
C163	C	1.328722	0.499889	0.650785
C164	C	1.578722	0.749889	0.900785
C165	C	0.822364	-0.000100	0.548090
C166	C	1.072364	0.249900	0.798090
C167	C	1.322364	0.499900	1.048090
C168	C	1.572364	0.749900	1.298090
C169	C	0.821106	-0.000101	0.627038
C170	C	1.071106	0.249899	0.877038
C171	C	1.321106	0.499899	1.127038
C172	C	1.571106	0.749899	1.377038
C173	C	0.959036	-0.000127	0.645338
C174	C	1.209036	0.249873	0.895338
C175	C	1.459036	0.499873	1.145338
C176	C	1.709036	0.749873	1.395338
C177	C	0.960299	-0.000129	0.566396
C178	C	1.210299	0.249871	0.816396
C179	C	1.460299	0.499871	1.066396
C180	C	1.710299	0.749871	1.316396
C181	C	0.891961	-0.000109	0.517776
C182	C	1.141961	0.249891	0.767776
C183	C	1.391961	0.499891	1.017776
C184	C	1.641961	0.749891	1.267776
C185	C	0.893330	-0.000117	0.432177
C186	C	1.143330	0.249883	0.682177
C187	C	1.393330	0.499883	0.932177
C188	C	1.643330	0.749883	1.182177
C189	C	0.894427	-0.000124	0.363951
C190	C	1.144427	0.249876	0.613951
C191	C	1.394427	0.499876	0.863951
C192	C	1.644427	0.749876	1.113951
H193	H	0.647537	-0.000075	-0.231384
H194	H	0.897537	0.249925	0.018616
H195	H	1.147537	0.499925	0.268616
H196	H	1.397537	0.749925	0.518616
F197	F	1.034373	-0.000143	0.534131
F198	F	1.284373	0.249857	0.784131
F199	F	1.534373	0.499857	1.034131
F200	F	1.784373	0.749857	1.284131
H201	H	0.107012	-0.000125	-0.222734
H202	H	0.357012	0.249875	0.027266
H203	H	0.607012	0.499875	0.277266
H204	H	0.857012	0.749875	0.527266
H205	H	1.021038	-0.000150	0.287618
H206	H	1.271038	0.249850	0.537618
H207	H	1.521038	0.499850	0.787618
H208	H	1.771038	0.749850	1.037618
F209	F	1.031768	-0.000145	0.697089
F210	F	1.281768	0.249855	0.947089
F211	F	1.531768	0.499855	1.197089
F212	F	1.781768	0.749855	1.447089
H213	H	0.764429	-0.000092	0.651721
H214	H	1.014429	0.249908	0.901721
H215	H	1.264429	0.499908	1.151721
H216	H	1.514429	0.749908	1.401721
F217	F	0.132641	-0.000162	0.044918
F218	F	0.382641	0.249838	0.294918
F219	F	0.632641	0.499838	0.544918
F220	F	0.882641	0.749838	0.794918
H221	H	0.766718	-0.000084	0.508512
H222	H	1.016718	0.249916	0.758512
H223	H	1.266718	0.499916	1.008512
H224	H	1.516718	0.749916	1.258512
F225	F	1.040732	-0.000172	0.136828
F226	F	1.290732	0.249828	0.386828
F227	F	1.540732	0.499828	0.636828
F228	F	1.790732	0.749828	0.886828
H229	H	0.504328	-0.000093	-0.229092
H230	H	0.754328	0.249907	0.020908
H231	H	1.004328	0.499907	0.270908
H232	H	1.254328	0.749907	0.520908
H233	H	0.283434	-0.000158	0.025228
H234	H	0.533434	0.249842	0.275228
H235	H	0.783434	0.499842	0.525228
H236	H	1.033434	0.749842	0.775228
F237	F	0.257815	-0.000106	-0.242427
F238	F	0.507815	0.249894	0.007573
F239	F	0.757815	0.499894	0.257573
F240	F	1.007815	0.749894	0.507573
F241	F	0.692907	-0.000124	0.035954
F242	F	0.942907	0.249876	0.285954
F243	F	1.192907	0.499876	0.535954
F244	F	1.442907	0.749876	0.785954
H245	H	0.770792	-0.000091	0.254420
H246	H	1.020792	0.249909	0.504420
H247	H	1.270792	0.499909	0.754420
H248	H	1.520792	0.749909	1.004420
H249	H	0.773078	-0.000101	0.111198
H250	H	1.023078	0.249899	0.361198
H251	H	1.273078	0.499899	0.611198
H252	H	1.523078	0.749899	0.861198
H253	H	0.537526	-0.000144	0.021154
H254	H	0.787526	0.249856	0.271154
H255	H	1.037526	0.499856	0.521154
H256	H	1.287526	0.749856	0.771154
