data_functionalizedCrystal
_audit_creation_method	'MofGen! by Chris Wilmer'
_symmetry_space_group_name_H-M	'P1'
_symmetry_Int_Tables_number	1
_symmetry_cell_setting	triclinic
loop_
_symmetry_equiv_pos_as_xyz
  x,y,z
_cell_length_a	15.944551
_cell_length_b	15.944493
_cell_length_c	11.804365
_cell_angle_alpha	101.834508
_cell_angle_beta	78.155318
_cell_angle_gamma	83.486891
loop_
_atom_site_label
_atom_site_type_symbol
_atom_site_fract_x
_atom_site_fract_y
_atom_site_fract_z
O1	O	1.131450	0.091400	-0.098887
O2	O	1.631450	0.591400	0.401113
O3	O	0.886902	0.104751	-0.098915
O4	O	1.386902	0.604751	0.401085
O5	O	1.015881	-0.024204	-0.098910
O6	O	1.515881	0.475796	0.401090
O7	O	1.002471	0.220355	-0.098892
O8	O	1.502471	0.720355	0.401108
O9	O	0.981926	0.009711	0.099144
O10	O	1.481926	0.509711	0.599144
O11	O	0.852947	0.138666	0.099140
O12	O	1.352947	0.638666	0.599140
O13	O	1.097494	0.125314	0.099167
O14	O	1.597494	0.625314	0.599167
Cu15	Cu	0.972120	0.135087	0.117237
Cu16	Cu	1.472120	0.635087	0.617237
Cu17	Cu	1.012276	0.094979	-0.116985
Cu18	Cu	1.512276	0.594979	0.383015
O19	O	0.968515	0.254270	0.099163
O20	O	1.468515	0.754270	0.599163
C21	C	0.838631	0.121154	0.000108
C22	C	1.338631	0.621154	0.500108
C23	C	0.745387	0.119489	0.000097
C24	C	1.245387	0.619489	0.500097
C25	C	0.998356	-0.038543	0.000112
C26	C	1.498356	0.461457	0.500112
C27	C	0.996716	-0.131794	0.000097
C28	C	1.496716	0.368206	0.500097
C29	C	0.530545	0.035586	0.000114
C30	C	1.030545	0.535586	0.500114
C31	C	0.486258	0.057828	-0.097535
C32	C	0.986258	0.557828	0.402465
C33	C	0.574660	0.116484	0.000111
C34	C	1.074660	0.616484	0.500111
C35	C	0.452803	0.091284	0.097732
C36	C	0.952803	0.591284	0.597732
C37	C	0.409745	0.113577	0.000130
C38	C	0.909745	0.613577	0.500130
C39	C	0.531615	0.138735	-0.097618
C40	C	1.031615	0.638735	0.402382
C41	C	0.498151	0.172195	0.097736
C42	C	0.998151	0.672195	0.597736
C43	C	0.453886	0.194492	0.000064
C44	C	0.953886	0.694492	0.500064
C45	C	0.669664	0.118157	0.000099
C46	C	1.169664	0.618157	0.500099
C47	C	0.314743	0.111909	0.000133
C48	C	0.814743	0.611909	0.500133
C49	C	1.072631	-0.367548	0.000128
C50	C	1.572631	0.132452	0.500128
C51	C	1.048432	-0.434839	-0.097528
C52	C	1.548432	0.065161	0.402472
C53	C	0.993670	-0.302512	0.000111
C54	C	1.493670	0.197488	0.500111
C55	C	1.014937	-0.401377	0.097739
C56	C	1.514937	0.098623	0.597739
C57	C	0.990732	-0.467419	0.000130
C58	C	1.490732	0.032581	0.500130
C59	C	0.969506	-0.368588	-0.097625
C60	C	1.469506	0.131412	0.402375
C61	C	0.936007	-0.335109	0.097729
C62	C	1.436007	0.164891	0.597729
C63	C	0.911754	-0.402370	0.000050
C64	C	1.411754	0.097630	0.500050
C65	C	0.995364	-0.207514	0.000099
C66	C	1.495364	0.292486	0.500099
C67	C	0.989032	-0.562415	0.000133
C68	C	1.489032	-0.062415	0.500133
C69	C	1.145766	0.108912	0.000141
C70	C	1.645766	0.608912	0.500141
C71	C	1.239011	0.110575	0.000145
C72	C	1.739011	0.610575	0.500145
C73	C	0.986041	0.268608	0.000138
C74	C	1.486041	0.768608	0.500138
C75	C	0.987682	0.361858	0.000145
C76	C	1.487682	0.861858	0.500145
N77	N	0.943883	0.163297	0.281977
N78	N	1.443883	0.663297	0.781977
N79	N	1.040520	0.066763	-0.281725
N80	N	1.540520	0.566763	0.218275
C81	C	1.108329	-0.000995	0.655932
C82	C	1.608329	0.499005	1.155932
C83	C	1.129689	-0.022339	0.531271
C84	C	1.629689	0.477661	1.031271
C85	C	1.083239	0.024068	0.468941
C86	C	1.583239	0.524068	0.968941
C87	C	1.015425	0.091823	0.531285
C88	C	1.515425	0.591823	1.031285
C89	C	0.994067	0.113173	0.655958
C90	C	1.494067	0.613173	1.155958
C91	C	0.968978	0.138236	0.468967
C92	C	1.468978	0.638236	0.968967
C93	C	0.901164	0.205991	0.531311
C94	C	1.401164	0.705991	1.031311
C95	C	0.879809	0.227338	0.655972
C96	C	1.379809	0.727338	1.155972
C97	C	0.926259	0.180931	0.718301
C98	C	1.426259	0.680931	1.218301
C99	C	0.990336	0.116886	0.344294
C100	C	1.490336	0.616886	0.844294
C101	C	0.876074	0.231054	0.344321
C102	C	1.376074	0.731054	0.844321
C103	C	0.854714	0.252398	0.468981
C104	C	1.354714	0.752398	0.968981
H105	H	0.563914	-0.031576	-0.000012
H106	H	1.063914	0.468424	0.499988
H107	H	0.843694	-0.417847	-0.000011
H108	H	1.343694	0.082153	0.499989
H109	H	0.950347	-0.353921	-0.180273
H110	H	1.450347	0.146079	0.319727
H111	H	1.140664	-0.351935	0.000037
H112	H	1.640664	0.148065	0.500037
Cl113	Cl	0.862729	-0.268545	0.225192
Cl114	Cl	1.362729	0.231455	0.725192
Cl115	Cl	0.477075	-0.016825	-0.225003
Cl116	Cl	0.977075	0.483175	0.274997
Cl117	Cl	1.044594	-0.424216	0.225199
Cl118	Cl	1.544594	0.075784	0.725199
H119	H	1.146147	-0.038769	0.706689
H120	H	1.646147	0.461231	1.206689
Cl121	Cl	0.584334	0.169673	-0.225217
Cl122	Cl	1.084334	0.669673	0.274783
Cl123	Cl	0.402677	0.298243	-0.000009
Cl124	Cl	0.902677	0.798243	0.499991
H125	H	0.799498	0.307566	0.519757
H126	H	1.299498	0.807566	1.019757
Cl127	Cl	0.399953	0.060261	0.225187
Cl128	Cl	0.899953	0.560261	0.725187
H129	H	0.504120	0.220522	0.180300
H130	H	1.004120	0.720522	0.680300
H131	H	0.838252	0.268844	0.293573
H132	H	1.338252	0.768844	0.793573
H133	H	0.824597	0.282514	0.706732
H134	H	1.324597	0.782514	1.206732
H135	H	1.095934	-0.477921	-0.180081
H136	H	1.595934	0.022079	0.319919
H137	H	1.045550	0.061720	0.293545
H138	H	1.545550	0.561720	0.793545
Cl139	Cl	1.110091	-0.002768	0.312222
Cl140	Cl	1.610091	0.497232	0.812222
H141	H	1.184903	-0.077503	0.480515
H142	H	1.684903	0.422497	0.980515
H143	H	0.908865	0.198306	0.819811
H144	H	1.408865	0.698306	1.319811
